#------------------------------------------------------------------------------
#$Date: 2021-04-23 10:46:36 +0300 (Fri, 23 Apr 2021) $
#$Revision: 264449 $
#$URL: file:///home/coder/svn-repositories/cod/cif/1/56/20/1562013.cif $
#------------------------------------------------------------------------------
#
# This file is available in the Crystallography Open Database (COD),
# http://www.crystallography.net/
#
# All data on this site have been placed in the public domain by the
# contributors.
#
data_1562013
loop_
_publ_author_name
'Sohr, Gerhard'
'Falkowski, Viktoria'
'Huppertz, Hubert'
_publ_section_title
;
 The new silver borate Ag3B5O9
;
_journal_name_full               'Journal of Solid State Chemistry'
_journal_page_first              114
_journal_page_last               119
_journal_paper_doi               10.1016/j.jssc.2014.12.002
_journal_volume                  225
_journal_year                    2015
_chemical_absolute_configuration ad
_chemical_formula_moiety         'Ag3 B5 O9'
_chemical_formula_sum            'Ag3 B5 O9'
_chemical_formula_weight         521.66
_space_group_crystal_system      orthorhombic
_space_group_IT_number           19
_space_group_name_Hall           'P 2ac 2ab'
_space_group_name_H-M_alt        'P 21 21 21'
_atom_sites_solution_hydrogens   .
_atom_sites_solution_primary     direct
_atom_sites_solution_secondary   difmap
_cell_angle_alpha                90
_cell_angle_beta                 90
_cell_angle_gamma                90
_cell_formula_units_Z            4
_cell_length_a                   6.7473(13)
_cell_length_b                   9.4352(19)
_cell_length_c                   11.035(2)
_cell_measurement_reflns_used    18789
_cell_measurement_temperature    293(2)
_cell_measurement_theta_max      37.785
_cell_measurement_theta_min      0.998
_cell_volume                     702.5(2)
_computing_cell_refinement       'HKL Scalepack (Otwinowski & Minor 1997)'
_computing_data_collection       'Collect (Nonius BV, 1997-2000)'
_computing_data_reduction
'HKL Denzo and Scalepack (Otwinowski & Minor 1997)'
_computing_molecular_graphics    'DIAMOND (Brandenburg & Berndt, 1999)'
_computing_publication_material
'enCIFer (Allen et al., 2004) and SHELXL-2013 (Sheldrick, 2013)'
_computing_structure_refinement  'SHELXL-2013 (Sheldrick, 2013)'
_computing_structure_solution    'SHELXS-2013 (Sheldrick, 2013)'
_diffrn_ambient_temperature      293(2)
_diffrn_measured_fraction_theta_full 1.000
_diffrn_measured_fraction_theta_max 0.998
_diffrn_measurement_device_type  KappaCCD
_diffrn_measurement_method       CCD
_diffrn_radiation_type           MoK\a
_diffrn_radiation_wavelength     0.71073
_diffrn_reflns_av_R_equivalents  0.0560
_diffrn_reflns_av_unetI/netI     0.0579
_diffrn_reflns_Laue_measured_fraction_full 1.000
_diffrn_reflns_Laue_measured_fraction_max 0.998
_diffrn_reflns_limit_h_max       11
_diffrn_reflns_limit_h_min       -11
_diffrn_reflns_limit_k_max       16
_diffrn_reflns_limit_k_min       -13
_diffrn_reflns_limit_l_max       18
_diffrn_reflns_limit_l_min       -18
_diffrn_reflns_number            10856
_diffrn_reflns_point_group_measured_fraction_full 1.000
_diffrn_reflns_point_group_measured_fraction_max 0.997
_diffrn_reflns_theta_full        25.242
_diffrn_reflns_theta_max         37.722
_diffrn_reflns_theta_min         2.840
_diffrn_source                   'fine-focus sealed tube'
_exptl_absorpt_coefficient_mu    8.316
_exptl_absorpt_correction_type   multi-scan
_exptl_absorpt_process_details
'Z. Otwinowski, W. Minor, Vol. 276: Macromolecular Crystallography A, p.307-326, 1997, Academic Press (New York).'
_exptl_crystal_colour            'pink transparent'
_exptl_crystal_density_diffrn    4.932
_exptl_crystal_density_method    'not measured'
_exptl_crystal_description       block
_exptl_crystal_F_000             952
_exptl_crystal_size_max          0.037
_exptl_crystal_size_mid          0.035
_exptl_crystal_size_min          0.020
_refine_diff_density_max         1.341
_refine_diff_density_min         -1.633
_refine_diff_density_rms         0.239
_refine_ls_abs_structure_details
;
 Flack x determined using 1150 quotients [(I+)-(I-)]/[(I+)+(I-)]
 (Parsons and Flack (2004), Acta Cryst. A60, s61).
;
_refine_ls_abs_structure_Flack   -0.05(3)
_refine_ls_extinction_coef       .
_refine_ls_extinction_method     none
_refine_ls_goodness_of_fit_ref   1.052
_refine_ls_hydrogen_treatment    undef
_refine_ls_matrix_type           full
_refine_ls_number_parameters     154
_refine_ls_number_reflns         3740
_refine_ls_number_restraints     0
_refine_ls_restrained_S_all      1.052
_refine_ls_R_factor_all          0.0496
_refine_ls_R_factor_gt           0.0367
_refine_ls_shift/su_max          0.000
_refine_ls_shift/su_mean         0.000
_refine_ls_structure_factor_coef Fsqd
_refine_ls_weighting_details
'w=1/[\s^2^(Fo^2^)+1.3789P] where P=(Fo^2^+2Fc^2^)/3'
_refine_ls_weighting_scheme      calc
_refine_ls_wR_factor_gt          0.0557
_refine_ls_wR_factor_ref         0.0587
_reflns_Friedel_coverage         0.747
_reflns_Friedel_fraction_full    1.000
_reflns_Friedel_fraction_max     0.996
_reflns_number_gt                3150
_reflns_number_total             3740
_reflns_threshold_expression     'I > 2\s(I)'
_cod_data_source_file            JSSC-2015-225-114.cif
_cod_data_source_block           Ag3B5O9
_cod_database_code               1562013
_shelx_space_group_comment
;
The symmetry employed for this shelxl refinement is uniquely defined
by the following loop, which should always be used as a source of
symmetry information in preference to the above space-group names.
They are only intended as comments.
;
_shelx_hkl_file
;
 -11  -5  -1   50.55   33.99
 -11  -5   0   11.83    8.74
 -11  -5   1     .71    5.33
 -11  -4  -3   33.29    9.00
 -11  -4  -2   35.40    9.88
 -11  -4  -1    7.62    5.63
 -11  -4   0   31.25   12.41
 -11  -4   1   27.88    9.50
 -11  -4   2    8.12    5.59
 -11  -4   3   12.39    6.62
 -11  -3  -4   24.40    8.60
 -11  -3  -3    4.00    4.80
 -11  -3  -2   23.72   11.79
 -11  -3  -1    7.90    4.27
 -11  -3   0    4.58    5.91
 -11  -3   1   -1.59    5.29
 -11  -3   2   17.14    7.20
 -11  -3   3   16.16   10.21
 -11  -3   4   12.39    5.49
 -11  -2  -5   21.16    8.28
 -11  -2  -4   11.70    7.59
 -11  -2  -3   28.52   18.16
 -11  -2  -2    3.50    7.78
 -11  -2  -1   34.46    9.74
 -11  -2   0    8.29   18.37
 -11  -2   1   35.76   21.05
 -11  -2   2    7.90    8.32
 -11  -2   3   29.48    9.99
 -11  -2   4   11.97    7.82
 -11  -2   5   17.14    5.13
 -11  -1  -5    7.40   12.08
 -11  -1  -4     .79    5.18
 -11  -1  -3   32.60    9.82
 -11  -1  -2    1.21    3.72
 -11  -1  -1    6.71   16.89
 -11  -1   0   35.16   12.81
 -11  -1   1    5.90    6.03
 -11  -1   2    3.69    4.68
 -11  -1   3   15.29    6.73
 -11  -1   4   69.06   47.20
 -11  -1   5   10.50   10.11
 -11   0  -5   11.02    8.30
 -11   0  -4  111.30   41.15
 -11   0  -3  109.41   13.18
 -11   0  -2    6.71    5.39
 -11   0  -1   25.70    7.91
 -11   0   0  -11.49    6.98
 -11   0   1    9.92    7.12
 -11   0   2   21.07    7.99
 -11   0   3   78.68   12.42
 -11   0   4   13.47    7.12
 -11   0   5   18.66   12.36
 -11   1  -5   12.67    4.98
 -11   1  -4    1.39    6.99
 -11   1  -3   14.29    6.20
 -11   1  -2   32.95   16.53
 -11   1  -1   11.22    4.82
 -11   1   0   10.50    5.77
 -11   1   1    4.88    7.07
 -11   1   2    4.28    4.51
 -11   1   3   19.98    6.97
 -11   1   4     .40    6.48
 -11   1   5    6.10    4.99
 -11   2  -4   17.47    7.27
 -11   2  -3    9.92    7.94
 -11   2  -2    7.67    7.59
 -11   2  -1   33.52    6.60
 -11   2   0    5.52    4.79
 -11   2   1   26.52    6.28
 -11   2   2    7.29    4.21
 -11   2   3    7.29    6.48
 -11   2   4    7.40    9.79
 -11   2   5   13.62    5.09
 -11   3  -3    7.02    4.72
 -11   3  -2   28.52    7.58
 -11   3  -1   14.52    6.71
 -11   3   0    8.41    5.22
 -11   3   1    8.58    5.10
 -11   3   2   41.09   17.56
 -11   3   3    7.62    6.18
 -11   3   4   13.40    4.98
 -11   4  -2    5.20    4.88
 -11   4  -1   16.40    6.89
 -11   4   0   12.18   11.52
 -11   4   1   33.99   11.54
 -11   4   2   14.82    4.62
 -11   4   3    6.71    7.51
 -11   5  -1     .59    3.19
 -11   5   0    6.60    5.09
 -11   5   1    3.10    5.81
 -10  -7  -4   11.90    8.28
 -10  -7  -3   16.81    6.48
 -10  -7  -2    9.67    7.09
 -10  -7  -1   13.62    4.13
 -10  -7   0   28.84    6.98
 -10  -7   1    7.62    6.29
 -10  -7   2     .30    4.11
 -10  -7   3    9.80   11.02
 -10  -7   4   10.11    7.63
 -10  -7   5   15.13   13.62
 -10  -6  -6   16.73    7.53
 -10  -6  -5   35.52    7.87
 -10  -6  -4    9.99    7.52
 -10  -6  -3   12.32    7.51
 -10  -6  -2   21.53    8.63
 -10  -6  -1   -1.10    6.11
 -10  -6   0   11.22    5.09
 -10  -6   1    1.30    5.61
 -10  -6   2    6.30    5.02
 -10  -6   3    6.30    9.69
 -10  -6   4   -1.49    8.66
 -10  -6   5   63.84   15.34
 -10  -5  -7   11.22   10.18
 -10  -5  -6    8.58   12.89
 -10  -5  -5   17.64    6.89
 -10  -5  -4   24.50   13.66
 -10  -5  -3   42.64    7.31
 -10  -5  -2   27.25    8.35
 -10  -5  -1    3.39    4.89
 -10  -5   0   46.24    8.30
 -10  -5   1    3.69    6.30
 -10  -5   2   14.67   10.57
 -10  -5   3   39.44   10.93
 -10  -5   4   28.09    8.16
 -10  -5   5   14.90    6.79
 -10  -5   6   21.81   10.27
 -10  -5   7    6.30    7.88
 -10  -4  -7   64.80   14.17
 -10  -4  -6   14.98    5.80
 -10  -4  -5   11.70    5.88
 -10  -4  -4    7.90    5.51
 -10  -4  -3   13.76    6.68
 -10  -4  -2   13.62    6.57
 -10  -4  -1   18.06   10.12
 -10  -4   0    5.90    3.89
 -10  -4   1   32.95    9.76
 -10  -4   2    7.08    6.97
 -10  -4   3   14.29    5.59
 -10  -4   4     .30    3.92
 -10  -4   5     .40    4.08
 -10  -4   6   15.52    6.78
 -10  -4   7   73.96   13.93
 -10  -4   8   12.89    8.40
 -10  -3  -8   19.80    6.41
 -10  -3  -7    3.31    5.02
 -10  -3  -6   -2.40    3.50
 -10  -3  -5    2.69    2.89
 -10  -3  -4   21.44   12.13
 -10  -3  -3   43.03   10.10
 -10  -3  -2   58.52   14.08
 -10  -3  -1   17.81    7.93
 -10  -3   0   12.82    7.30
 -10  -3   1    9.92    5.99
 -10  -3   2   40.20   13.06
 -10  -3   3   32.72   13.61
 -10  -3   4   14.52    4.11
 -10  -3   5     .10    6.07
 -10  -3   6    1.99    3.19
 -10  -3   7   10.63    5.28
 -10  -3   8   17.22    5.81
 -10  -2  -9   19.27    6.76
 -10  -2  -7   28.41    6.93
 -10  -2  -6   10.30    6.68
 -10  -2  -5   -1.39    4.79
 -10  -2  -4   68.23   11.89
 -10  -2  -3   21.44    6.76
 -10  -2  -2   23.52    4.66
 -10  -2  -1    4.28    7.49
 -10  -2   0   17.47    7.52
 -10  -2   1    6.50    5.92
 -10  -2   2   30.91    4.89
 -10  -2   3   22.18    6.78
 -10  -2   4   49.84    7.06
 -10  -2   5   -4.28    5.67
 -10  -2   6   24.70    6.96
 -10  -2   7   19.98   10.19
 -10  -1  -9    6.50    4.28
 -10  -1  -8    2.31    7.11
 -10  -1  -7   11.83    4.68
 -10  -1  -6   64.48    7.07
 -10  -1  -5    -.71    5.53
 -10  -1  -4   21.07   13.40
 -10  -1  -3   26.42    5.35
 -10  -1  -2   14.59    4.20
 -10  -1  -1    6.00    4.31
 -10  -1   0   37.45    9.30
 -10  -1   1   15.52   14.34
 -10  -1   2   37.33   14.66
 -10  -1   3   17.72    6.90
 -10  -1   4    2.40    5.89
 -10  -1   5     .30    3.11
 -10  -1   6   56.85    8.14
 -10  -1   7   19.80    7.39
 -10   0  -9   17.64    8.23
 -10   0  -8    2.19    4.38
 -10   0  -7    9.67   18.35
 -10   0  -6   30.25    7.15
 -10   0  -5   22.94    5.17
 -10   0  -4   -3.61    3.91
 -10   0  -3   17.14    4.80
 -10   0  -2   39.56    6.67
 -10   0  -1   58.83    7.21
 -10   0   0    2.59    3.09
 -10   0   1   32.04    6.45
 -10   0   2   42.64    5.75
 -10   0   3   34.46    8.57
 -10   0   4     .59    4.37
 -10   0   5   20.34    7.04
 -10   0   6   32.83    5.96
 -10   0   7   -1.90    3.81
 -10   0   8    3.20    4.80
 -10   1  -9   10.11    9.22
 -10   1  -8    6.60    5.71
 -10   1  -7   26.52   10.20
 -10   1  -6   67.24    8.86
 -10   1  -5    2.59    3.90
 -10   1  -4   -1.49    2.88
 -10   1  -3   31.81    8.46
 -10   1  -2    8.01    5.49
 -10   1  -1    6.40    3.29
 -10   1   0   38.81    6.35
 -10   1   1    7.62    4.08
 -10   1   2   19.18    4.29
 -10   1   3   22.00    4.03
 -10   1   4    -.59    3.88
 -10   1   5    6.50    5.30
 -10   1   6   53.29    8.76
 -10   1   7    5.90    6.03
 -10   1   8    4.71    5.60
 -10   2  -8   -2.89    3.60
 -10   2  -7   25.00    5.50
 -10   2  -6   17.39    6.51
 -10   2  -5    -.20    4.53
 -10   2  -4   45.56    6.48
 -10   2  -3   27.88    5.39
 -10   2  -2   33.18    5.64
 -10   2  -1   -2.19    3.20
 -10   2   0   24.11    5.50
 -10   2   1    6.81    4.12
 -10   2   2   32.72    6.75
 -10   2   3   31.81    8.12
 -10   2   4   50.69    8.12
 -10   2   5    3.50    4.79
 -10   2   6   11.42    4.33
 -10   2   7   27.67   13.89
 -10   2   8    7.67    5.21
 -10   2   9    6.71    4.20
 -10   3  -8   10.11    4.71
 -10   3  -7     .71    3.91
 -10   3  -6   23.33   17.00
 -10   3  -5    7.67    4.38
 -10   3  -4   17.22    4.73
 -10   3  -3   14.82    6.93
 -10   3  -2   49.56    8.17
 -10   3  -1   12.67    4.91
 -10   3   0    5.29    3.50
 -10   3   1   18.06    7.48
 -10   3   2   50.41    6.96
 -10   3   3    8.18    4.98
 -10   3   4   18.58    5.52
 -10   3   5   27.04   14.66
 -10   3   6   13.10   14.41
 -10   3   7    3.69    8.29
 -10   3   8    6.00    7.69
 -10   4  -7   26.52   13.70
 -10   4  -6    7.02    4.98
 -10   4  -5   -2.40    6.51
 -10   4  -4   51.84   20.59
 -10   4  -3     .79    3.49
 -10   4  -2    6.10    4.79
 -10   4  -1   21.90    5.99
 -10   4   0   17.47    7.11
 -10   4   1   18.66    6.13
 -10   4   2   -4.00    4.40
 -10   4   3    3.61    3.99
 -10   4   4    8.53    6.72
 -10   4   5    3.69    6.11
 -10   4   6    4.00    7.32
 -10   4   7   39.31   10.03
 -10   4   8    6.81    6.89
 -10   5  -7   18.66   15.47
 -10   5  -6    6.00    5.39
 -10   5  -5    7.90    5.23
 -10   5  -4   15.37    6.12
 -10   5  -3   36.84    6.31
 -10   5  -2   12.39    5.70
 -10   5  -1   -1.90    4.61
 -10   5   0   34.11   10.16
 -10   5   1   11.83    7.50
 -10   5   2   18.84    6.77
 -10   5   3   45.43   11.19
 -10   5   4   15.13    7.78
 -10   5   5    6.30    4.32
 -10   5   6    4.00   16.00
 -10   5   7    8.88    9.12
 -10   6  -6    -.50    5.03
 -10   6  -5   50.84    9.55
 -10   6  -4   18.40    8.92
 -10   6  -3    8.29    6.51
 -10   6  -2    6.50   11.12
 -10   6  -1    7.29    5.99
 -10   6   0   16.32    8.48
 -10   6   1    1.80    2.60
 -10   6   2    4.49    5.09
 -10   6   3    6.20    4.78
 -10   6   4    3.20    5.51
 -10   6   5   50.27   11.06
 -10   6   6    -.90    3.71
 -10   7  -5    5.29    3.31
 -10   7  -4   24.11    9.72
 -10   7  -3   -1.30    3.01
 -10   7  -2   16.81    6.48
 -10   7  -1   19.01    4.10
 -10   7   0   11.90    2.90
 -10   7   1    7.18    3.48
 -10   7   2    -.20    3.82
 -10   7   3     .40    5.38
 -10   7   4    2.89    9.28
 -10   7   5   14.06    6.97
 -10   8  -1    8.53    4.79
 -10   8   0    -.40    3.98
 -10   8   1    3.50   12.60
  -9  -8   0    -.10    5.16
  -9  -8   1   10.63    5.41
  -9  -8   2     .71    4.32
  -9  -8   3   13.47    7.56
  -9  -8   4    7.62    6.73
  -9  -8   5   13.91    5.07
  -9  -8   6   37.21   11.83
  -9  -8   7   14.21   11.31
  -9  -7  -6   25.20    7.63
  -9  -7  -5   27.46    6.71
  -9  -7  -4   16.48    5.77
  -9  -7  -3  108.16   52.00
  -9  -7  -2   84.82   50.47
  -9  -7  -1   27.77    6.85
  -9  -7   0   41.60    7.87
  -9  -7   1   41.22    7.45
  -9  -7   2   25.70    8.42
  -9  -7   3    5.02    5.02
  -9  -7   4   30.47   10.27
  -9  -7   5   21.07    7.25
  -9  -7   6   49.28   26.54
  -9  -7   7   11.97    6.37
  -9  -6  -9    7.18    9.11
  -9  -6  -8    7.67    5.37
  -9  -6  -7   10.37    4.38
  -9  -6  -6   14.21    6.71
  -9  -6  -5    5.38    3.71
  -9  -6  -4   43.56   15.05
  -9  -6  -3   10.63    7.63
  -9  -6  -2   24.11    5.11
  -9  -6  -1   38.32    8.05
  -9  -6   0    9.30    5.43
  -9  -6   1  246.49  100.17
  -9  -6   2   20.07    8.51
  -9  -6   3    3.20    4.19
  -9  -6   4   45.83    7.58
  -9  -6   5    6.20    5.08
  -9  -6   6   12.53    5.03
  -9  -5 -10    4.58    5.99
  -9  -5  -9    5.62    5.40
  -9  -5  -8   38.69    7.84
  -9  -5  -7   32.04    6.00
  -9  -5  -6   17.14   11.18
  -9  -5  -5    2.99    4.19
  -9  -5  -4   51.98    9.52
  -9  -5  -3   44.49    6.94
  -9  -5  -2   32.15    6.46
  -9  -5  -1    8.58    4.57
  -9  -5   0    7.51    6.08
  -9  -5   1    2.19    3.88
  -9  -5   2   32.15    6.24
  -9  -5   3   45.70    5.68
  -9  -5   4   46.38    7.35
  -9  -5   5    9.61    3.91
  -9  -5   6    6.50   12.60
  -9  -4 -11   45.83   25.73
  -9  -4 -10    2.99    5.19
  -9  -4  -9   22.47    7.49
  -9  -4  -8   19.10    7.17
  -9  -4  -7   25.70    5.48
  -9  -4  -6   28.73    5.36
  -9  -4  -5    9.61    5.08
  -9  -4  -4    6.20    4.38
  -9  -4  -3    6.92    4.21
  -9  -4  -2   61.15    7.98
  -9  -4  -1   77.26    7.38
  -9  -4   0   23.14    4.91
  -9  -4   1   79.57    8.74
  -9  -4   2   69.22    8.65
  -9  -4   3    4.20    3.12
  -9  -4   4   15.29    3.60
  -9  -4   5     .50    3.82
  -9  -3 -11    2.50    5.40
  -9  -3 -10   15.68   11.72
  -9  -3  -9   72.93   10.93
  -9  -3  -8   38.19    7.54
  -9  -3  -7   43.16    6.44
  -9  -3  -6   19.27    3.86
  -9  -3  -5   13.40    5.27
  -9  -3  -4   22.09    4.79
  -9  -3  -3  122.99   17.30
  -9  -3  -2   13.18    9.08
  -9  -3  -1   46.51   13.64
  -9  -3   0   39.06    6.38
  -9  -3   1   25.60    6.78
  -9  -3   2    2.19    3.49
  -9  -3   3  130.42   11.88
  -9  -3   4   31.47    4.82
  -9  -3   5   32.15    8.05
  -9  -2 -11   17.31    5.91
  -9  -2 -10   10.82    4.47
  -9  -2  -9   22.00    9.76
  -9  -2  -8   16.16    9.33
  -9  -2  -7   38.44    6.45
  -9  -2  -6   49.56    7.04
  -9  -2  -5   27.67    9.89
  -9  -2  -4   13.10    5.43
  -9  -2  -3   26.01    7.65
  -9  -2  -2   10.50    4.21
  -9  -2  -1   38.32    9.66
  -9  -2   0    7.08   12.40
  -9  -2   1   33.76    5.00
  -9  -2   2   20.43    6.33
  -9  -2   3   30.91    5.89
  -9  -2   4    9.99    3.79
  -9  -2   5   22.18    5.18
  -9  -1 -11    7.51    5.81
  -9  -1 -10    2.79    5.68
  -9  -1  -9    5.71    6.50
  -9  -1  -8   15.68    5.70
  -9  -1  -7    4.80    3.29
  -9  -1  -6   28.94    6.03
  -9  -1  -5   82.45    9.26
  -9  -1  -4    9.49    5.48
  -9  -1  -3    1.90    2.59
  -9  -1  -2    6.20    3.39
  -9  -1  -1   76.74   15.59
  -9  -1   0  169.78   18.50
  -9  -1   1   73.62    7.04
  -9  -1   2    7.02    4.03
  -9  -1   3   -1.21    3.41
  -9  -1   4    1.59    4.99
  -9  -1   5   94.28   11.07
  -9   0 -11    6.60    3.70
  -9   0 -10  127.69   14.92
  -9   0  -9   12.39    4.72
  -9   0  -8   -1.59    5.19
  -9   0  -7    5.29    6.90
  -9   0  -6   -1.00    2.90
  -9   0  -5     .90    2.70
  -9   0  -4   86.12   11.14
  -9   0  -3   18.06    4.16
  -9   0  -2   -3.31    3.31
  -9   0  -1   44.76    4.95
  -9   0   0    5.20    3.78
  -9   0   1   34.11    5.49
  -9   0   2   -2.10    3.10
  -9   0   3   11.09    4.40
  -9   0   4   80.28    8.96
  -9   0   5    2.40    6.29
  -9   1 -11    4.49    7.21
  -9   1 -10    1.69    5.49
  -9   1  -9    6.00    5.19
  -9   1  -8    8.88    5.07
  -9   1  -7    5.62    4.93
  -9   1  -6   18.32    6.42
  -9   1  -5   97.61   11.46
  -9   1  -4    9.30    2.81
  -9   1  -3    9.42    4.11
  -9   1  -2   11.29    3.02
  -9   1  -1   51.98    5.62
  -9   1   0  159.26   13.88
  -9   1   1   67.57    6.58
  -9   1   2    5.02    4.61
  -9   1   3    9.30    5.18
  -9   1   4    9.61    3.29
  -9   1   5   63.04    6.83
  -9   2 -11    7.62    3.81
  -9   2 -10   17.89    7.87
  -9   2  -9   13.69    4.22
  -9   2  -8   15.37    3.21
  -9   2  -7   25.91    4.48
  -9   2  -6   37.58   15.69
  -9   2  -5   35.64    5.37
  -9   2  -4    5.20    2.92
  -9   2  -3   37.09    5.24
  -9   2  -2   14.59    4.51
  -9   2  -1   31.58    5.84
  -9   2   0    2.40    3.32
  -9   2   1   59.75   27.67
  -9   2   2   14.67   22.44
  -9   2   3   29.92    5.36
  -9   2   4    9.61    4.59
  -9   2   5   32.72    5.95
  -9   2   6   27.35    3.66
  -9   3 -11    1.30    5.20
  -9   3 -10    -.90    5.41
  -9   3  -9   55.50    9.54
  -9   3  -7   39.44    6.66
  -9   3  -6   23.62    6.71
  -9   3  -5    6.81    4.49
  -9   3  -4   31.36    6.16
  -9   3  -3  137.83   13.62
  -9   3  -2   13.99   36.28
  -9   3  -1  113.00   48.90
  -9   3   0   24.01    5.29
  -9   3   1   27.88    4.54
  -9   3   2    1.90    4.42
  -9   3   3  122.10   13.70
  -9   3   4   27.04    5.62
  -9   3   5   10.82    3.03
  -9   3   6   27.04    6.66
  -9   3   7   40.32    7.24
  -9   4 -10    6.81    3.71
  -9   4  -9   30.58    5.86
  -9   4  -8   11.09   12.59
  -9   4  -7   13.32    3.72
  -9   4  -6   30.36    7.16
  -9   4  -5   -3.88    3.51
  -9   4  -4   10.69    3.47
  -9   4  -3    4.20    2.58
  -9   4  -2   49.42    5.76
  -9   4  -1   67.08    8.35
  -9   4   0   24.60    5.36
  -9   4   1   71.74    8.47
  -9   4   2   57.61    6.83
  -9   4   3    5.71    3.01
  -9   4   4   11.02    3.72
  -9   4   5    4.00    3.52
  -9   4   6   22.47    7.30
  -9   4   7   15.13    4.98
  -9   4   8    8.58    5.80
  -9   5 -10    5.62    5.40
  -9   5  -9    7.51    4.38
  -9   5  -8   46.65    8.06
  -9   5  -7   36.72   24.00
  -9   5  -6   18.92    7.48
  -9   5  -5    3.61    3.19
  -9   5  -4   39.94    6.07
  -9   5  -3   37.09    5.85
  -9   5  -2   36.97    6.08
  -9   5  -1    7.08    5.59
  -9   5   0   -4.80    4.69
  -9   5   1    7.90    3.71
  -9   5   2   30.36    5.73
  -9   5   3   25.40    4.13
  -9   5   4   40.83    6.13
  -9   5   5    5.20    9.30
  -9   5   6    9.92    4.98
  -9   5   7   21.16    7.08
  -9   5   8   36.12   11.42
  -9   5   9    9.67    7.28
  -9   6  -9   -2.99    4.08
  -9   6  -8    1.00    5.60
  -9   6  -7   16.73    5.40
  -9   6  -6    4.71    2.82
  -9   6  -5   14.82    7.62
  -9   6  -4   27.67    5.37
  -9   6  -3    4.41    4.79
  -9   6  -2   16.89    4.52
  -9   6  -1   38.94    6.86
  -9   6   0   12.82    4.37
  -9   6   1   35.76    6.70
  -9   6   2   21.07    3.03
  -9   6   3    6.92    2.68
  -9   6   4   29.59   11.86
  -9   6   5    8.70    5.19
  -9   6   6   20.98    6.60
  -9   6   7   11.22    7.91
  -9   6   8    2.69    4.20
  -9   6   9    2.79    4.28
  -9   7  -8    5.62    4.41
  -9   7  -7    2.69    4.99
  -9   7  -6   17.72   13.22
  -9   7  -5   15.29    4.22
  -9   7  -4   12.18    4.89
  -9   7  -3    -.79    3.77
  -9   7  -2   19.62    4.78
  -9   7  -1   29.16    7.45
  -9   7   0   59.14    6.15
  -9   7   1   27.77    4.64
  -9   7   2   21.07    4.41
  -9   7   3    9.18    2.91
  -9   7   4    5.52    4.89
  -9   7   5   14.52    5.79
  -9   7   6   13.40    5.27
  -9   7   7    4.58    5.61
  -9   8  -7    -.30    6.03
  -9   8  -6    9.61    5.08
  -9   8  -5   31.14    6.92
  -9   8  -4   -1.80    3.81
  -9   8  -3    2.19    2.69
  -9   8  -2   22.09    8.46
  -9   8  -1    6.20    2.79
  -9   8   0    1.30    3.40
  -9   8   1    5.90    2.92
  -9   8   2     .10    2.63
  -9   8   3    2.99    5.78
  -9   9  -4   11.09    4.73
  -9   9  -3   -1.59    6.78
  -9   9  -2   20.16    6.56
  -9   9  -1    7.51    6.08
  -9   9   0   53.73   12.17
  -9   9   1    5.20    5.88
  -9   9   2   17.31    6.24
  -9  10  -1   20.16   15.27
  -9  10   0    6.00    6.62
  -9  10   1   -2.99    5.61
  -8  -8  -3   49.98   16.40
  -8  -8  -2   62.09    8.83
  -8  -8  -1   17.47    5.60
  -8  -8   0    1.69    2.60
  -8  -8   1   31.81    7.22
  -8  -8   2   68.89    7.47
  -8  -8   3   31.81   11.51
  -8  -8   4   31.02   12.81
  -8  -8   5   36.12   13.22
  -8  -8   6   10.18    5.87
  -8  -7  -8    6.50    4.49
  -8  -7  -7   56.25   10.05
  -8  -7  -6   29.70    9.05
  -8  -7  -5    1.90   10.52
  -8  -7  -4   22.28   10.48
  -8  -7  -3   49.84   10.31
  -8  -7  -2   79.03   30.23
  -8  -7  -1   16.16    9.09
  -8  -7   0   10.37    8.57
  -8  -7   1    8.29    4.61
  -8  -7   2   45.56    7.02
  -8  -7   3   32.04    5.55
  -8  -7   4     .10    3.24
  -8  -7   5   18.92   12.27
  -8  -6 -11    5.02    7.30
  -8  -6 -10   16.16    6.91
  -8  -6  -9   12.67    5.98
  -8  -6  -8    8.12    4.62
  -8  -6  -7   21.81    4.58
  -8  -6  -6   44.22    9.31
  -8  -6  -5   44.76    7.63
  -8  -6  -4   14.98    5.03
  -8  -6  -3   17.89    4.31
  -8  -6  -2   74.65    9.33
  -8  -6  -1   63.52    7.81
  -8  -6   0   17.72    8.93
  -8  -6   1   59.29    7.85
  -8  -6   2   62.25    6.94
  -8  -6   3   28.30    7.13
  -8  -6   4   21.44    5.19
  -8  -5 -12    2.69    6.30
  -8  -5 -11   25.81    6.71
  -8  -5 -10   31.47   14.25
  -8  -5  -9    3.69    5.61
  -8  -5  -8  346.70  166.46
  -8  -5  -7   35.05   12.79
  -8  -5  -6   29.05    8.41
  -8  -5  -5   44.22    7.05
  -8  -5  -4   22.28    5.76
  -8  -5  -3   80.28    9.32
  -8  -5  -2     .79    3.28
  -8  -5  -1   23.43    5.13
  -8  -5   0    4.49    5.98
  -8  -5   1   21.34    4.53
  -8  -5   2   22.00   26.36
  -8  -5   3   92.93    9.45
  -8  -5   4   10.63    3.91
  -8  -4 -12   28.09   13.25
  -8  -4 -11   10.11    9.60
  -8  -4 -10   37.09    7.43
  -8  -4  -9   31.36    5.94
  -8  -4  -8   26.32    5.44
  -8  -4  -7   11.97    3.53
  -8  -4  -6   15.92    4.87
  -8  -4  -5   42.64    5.49
  -8  -4  -4   30.80    5.33
  -8  -4  -3   21.81    3.08
  -8  -4  -2   54.46   43.54
  -8  -4  -1   95.84   42.29
  -8  -4   0   89.49    7.76
  -8  -4   1   60.06    6.66
  -8  -4   2   43.96    4.38
  -8  -4   3   27.35   23.01
  -8  -4   4   28.09    5.51
  -8  -3 -13   16.81    8.69
  -8  -3 -12    5.11    4.11
  -8  -3 -11   40.58    7.52
  -8  -3 -10    9.67   14.99
  -8  -3  -9  100.00   57.80
  -8  -3  -8   37.33   16.25
  -8  -3  -7    9.42    5.71
  -8  -3  -6   70.06    8.70
  -8  -3  -5   39.82    6.69
  -8  -3  -4   16.16    6.59
  -8  -3  -3    7.51    2.90
  -8  -3  -2   25.30    4.33
  -8  -3  -1    5.02    3.99
  -8  -3   0   63.68    7.50
  -8  -3   1   14.98    4.80
  -8  -3   2   25.50    9.49
  -8  -3   3    3.31    4.51
  -8  -2 -13    9.99    6.57
  -8  -2 -12    3.39    6.07
  -8  -2 -11   12.67    3.77
  -8  -2 -10   11.29    3.90
  -8  -2  -9   25.40    4.03
  -8  -2  -8   26.32    4.92
  -8  -2  -7    2.79    5.08
  -8  -2  -6   16.81    5.90
  -8  -2  -5   28.20    4.25
  -8  -2  -4  239.63   21.67
  -8  -2  -3    7.29    4.91
  -8  -2  -2  125.66   22.87
  -8  -2  -1    2.50   13.78
  -8  -2   0  203.92   18.28
  -8  -2   1    8.58    4.28
  -8  -2   2   77.26    8.44
  -8  -2   3    7.08    3.88
  -8  -1 -13   74.13   19.11
  -8  -1 -12    8.58    5.98
  -8  -1 -11   46.51   42.56
  -8  -1 -10    6.10    5.88
  -8  -1  -9   91.20   14.33
  -8  -1  -8    7.78   11.77
  -8  -1  -7   13.62    5.02
  -8  -1  -6   16.32    3.64
  -8  -1  -5  122.10    9.06
  -8  -1  -4    6.60    2.88
  -8  -1  -3   50.84    5.85
  -8  -1  -2   20.16    7.00
  -8  -1  -1   53.88    5.28
  -8  -1   0   12.11    3.20
  -8  -1   1   63.04    6.83
  -8  -1   2   12.18    2.72
  -8  -1   3   44.09    4.65
  -8   0 -13    7.62    8.11
  -8   0 -12   22.94    8.43
  -8   0 -11    1.39    4.89
  -8   0 -10    6.71    5.49
  -8   0  -9   14.67    5.13
  -8   0  -8   67.90    7.75
  -8   0  -7   63.04    7.94
  -8   0  -6   11.42    2.50
  -8   0  -5   12.60    3.98
  -8   0  -4  184.42   14.67
  -8   0  -3    2.79    3.91
  -8   0  -2    6.92    2.21
  -8   0  -1   88.36    7.14
  -8   0   0  252.17   22.23
  -8   0   1   77.62    8.46
  -8   0   2   18.49    3.53
  -8   0   3    1.99    5.27
  -8   1 -13  108.58   52.31
  -8   1 -12    7.78    6.47
  -8   1 -11   11.83    4.20
  -8   1 -10    8.12    4.73
  -8   1  -9   79.92    8.58
  -8   1  -8   -3.20    4.69
  -8   1  -7   11.90    3.73
  -8   1  -6    9.67    3.61
  -8   1  -5  109.83   13.20
  -8   1  -4    4.80    4.12
  -8   1  -3   53.29    8.03
  -8   1  -2   25.60    7.89
  -8   1  -1   61.15    8.60
  -8   1   0    8.82    4.81
  -8   1   1   69.39    8.16
  -8   1   2   20.88    5.03
  -8   1   3   48.44    4.87
  -8   1   4    7.67    4.27
  -8   2 -13    4.28    4.31
  -8   2 -12   -2.10    2.90
  -8   2 -11    6.10    5.88
  -8   2 -10    8.82    6.42
  -8   2  -9   24.70    5.17
  -8   2  -8   22.56    3.52
  -8   2  -7     .00    1.00
  -8   2  -6   13.99    4.71
  -8   2  -5   30.14    6.37
  -8   2  -4  232.56   16.47
  -8   2  -3    8.82    3.39
  -8   2  -2   89.11    7.93
  -8   2  -1   -4.41    3.61
  -8   2   0  202.49   15.08
  -8   2   1    2.59    3.28
  -8   2   2   71.06    6.58
  -8   2   3    4.88    2.08
  -8   2   4  258.57   16.40
  -8   3 -13   11.83    5.09
  -8   3 -12   -2.19    3.40
  -8   3 -11   25.30    6.14
  -8   3 -10    6.50    4.79
  -8   3  -9   80.28    8.24
  -8   3  -8   10.37    2.77
  -8   3  -7    1.49    3.10
  -8   3  -6   68.72    6.63
  -8   3  -5   29.38    4.34
  -8   3  -4    5.02   14.60
  -8   3  -3    4.08    2.99
  -8   3  -2   30.58    4.53
  -8   3  -1   17.72    3.28
  -8   3   0   64.48    7.07
  -8   3   1   13.40    3.51
  -8   3   2   24.60    4.17
  -8   3   3    5.52    3.38
  -8   3   4   -1.69    4.89
  -8   3   5   24.50    5.25
  -8   4 -12    -.71    3.51
  -8   4 -11    2.79    4.88
  -8   4 -10   20.79    5.56
  -8   4  -9   21.16    5.43
  -8   4  -8   27.25    5.12
  -8   4  -7    5.29    5.11
  -8   4  -6   16.32    4.69
  -8   4  -5   41.99    5.96
  -8   4  -4   29.59    3.81
  -8   4  -3   27.77    8.12
  -8   4  -2   56.85    6.18
  -8   4  -1   49.56    8.31
  -8   4   0  101.81   10.70
  -8   4   1   53.88    6.17
  -8   4   2   44.76    5.75
  -8   4   3   16.89    3.37
  -8   4   4   36.00    4.80
  -8   4   5   40.32    4.44
  -8   5 -12    5.11    5.60
  -8   5 -11   29.05    7.01
  -8   5 -10   25.10    7.21
  -8   5  -9   16.89    5.18
  -8   5  -8   15.76    5.72
  -8   5  -7   27.88    5.70
  -8   5  -6   25.70    4.66
  -8   5  -5   24.50    4.36
  -8   5  -4   11.42    2.50
  -8   5  -3   85.01    8.30
  -8   5  -2     .50    3.62
  -8   5  -1   19.62    3.72
  -8   5   0   -1.30    3.01
  -8   5   1   28.30    3.30
  -8   5   2    2.40    2.01
  -8   5   3  106.50   21.05
  -8   5   4   18.49    3.18
  -8   5   5   40.07    5.95
  -8   5   6   22.00    4.50
  -8   6 -11    6.50    4.39
  -8   6 -10   12.39   17.18
  -8   6  -9   14.67    8.27
  -8   6  -8   12.67    6.41
  -8   6  -7    7.78    2.79
  -8   6  -6   22.56    3.99
  -8   6  -5   39.69    4.79
  -8   6  -4   11.29    3.49
  -8   6  -3   21.53    3.90
  -8   6  -2   58.37    5.65
  -8   6  -1   64.64   11.90
  -8   6   0   12.89    2.80
  -8   6   1   46.79    4.92
  -8   6   2   59.91    4.49
  -8   6   3   20.61    3.27
  -8   6   4   11.97    2.91
  -8   6   5   27.77    4.85
  -8   6   6   26.11    5.42
  -8   6   7   13.03    3.68
  -8   6   8    3.61    3.12
  -8   7 -11   14.67    5.90
  -8   7 -10    3.31    5.82
  -8   7  -9    2.99    4.19
  -8   7  -8   18.32    5.14
  -8   7  -7   71.74   13.04
  -8   7  -6   12.60    4.90
  -8   7  -5     .59    4.17
  -8   7  -4    8.41    4.12
  -8   7  -3   19.27    5.71
  -8   7  -2   40.96    4.99
  -8   7  -1    1.80    3.30
  -8   7   0   13.99    3.07
  -8   7   1    2.89    2.58
  -8   7   2   47.06    4.39
  -8   7   3   35.88    5.15
  -8   7   4    1.00    3.90
  -8   7   5    4.41    4.41
  -8   7   6    5.71    3.82
  -8   7   7   49.14   12.48
  -8   7   8   13.91    4.77
  -8   8 -10   19.54    8.84
  -8   8  -9   10.37    5.80
  -8   8  -8   11.97    6.02
  -8   8  -7   17.64    5.54
  -8   8  -6   20.43    5.06
  -8   8  -5   21.62    5.77
  -8   8  -4   10.82    4.28
  -8   8  -3   17.47    4.68
  -8   8  -2   82.63    5.64
  -8   8  -1   22.00    4.03
  -8   8   0   -2.89    2.69
  -8   8   1   19.10    3.76
  -8   8   2   73.96    6.88
  -8   8   3   26.01    4.49
  -8   8   4   14.36    5.00
  -8   9  -8   51.84   18.29
  -8   9  -7   17.81    8.86
  -8   9  -6   43.96   11.67
  -8   9  -5    5.90    4.42
  -8   9  -4   13.03    5.70
  -8   9  -3   49.56    6.90
  -8   9  -2    4.28    3.60
  -8   9  -1     .71    6.03
  -8   9   0     .10    3.03
  -8   9   2   15.60    5.21
  -8   9   3   36.12    8.65
  -8   9   4   10.89    4.62
  -8  10  -6   12.89    4.88
  -8  10  -5   32.49    8.66
  -8  10  -4   -1.10    4.60
  -8  10  -3   26.42    5.65
  -8  10  -2   14.36    6.06
  -8  10  -1   32.15    6.24
  -8  10   1   45.70    9.33
  -8  10   2   28.84    6.66
  -8  10   3   18.23    7.34
  -8  10   4   18.32    5.91
  -8  11  -4    3.31    4.80
  -8  11  -3    7.78    6.81
  -8  11  -2   18.23   10.50
  -8  11  -1   16.40   10.77
  -8  11   0   33.06    8.28
  -8  11   1   -3.69    5.38
  -8  11   2    3.10    3.70
  -8  11   3    1.90    3.62
  -8  11   4    1.39    4.39
  -7  -8  -4   11.02    2.59
  -7  -8  -3    4.00    6.20
  -7  -8  -2   19.36    4.40
  -7  -8  -1   14.29    5.29
  -7  -8   0    2.89    3.50
  -7  -8   1    5.71    4.49
  -7  -8   2   32.49    4.90
  -7  -8   3    3.20    4.90
  -7  -8   4   21.44    6.02
  -7  -7 -10   11.29    5.11
  -7  -7  -9   11.83    4.88
  -7  -7  -8   12.11    5.78
  -7  -7  -7   -1.30    2.60
  -7  -7  -6    8.01    4.30
  -7  -7  -5    1.80    2.89
  -7  -7  -4   92.16    8.45
  -7  -7  -3  140.42   18.01
  -7  -7  -2   24.70    3.78
  -7  -7  -1   18.92    7.74
  -7  -7   0   64.96   10.80
  -7  -7   1   12.89    4.09
  -7  -7   2   19.98    4.38
  -7  -7   3  111.30   11.82
  -7  -7   4   84.46   10.66
  -7  -6 -13   42.77   18.05
  -7  -6 -12   21.81    6.82
  -7  -6 -11    8.70    5.72
  -7  -6 -10   13.47    4.70
  -7  -6  -9  118.37   11.53
  -7  -6  -8   82.81   12.56
  -7  -6  -7   17.22    3.98
  -7  -6  -6   75.00   10.57
  -7  -6  -5   36.24    4.94
  -7  -6  -4    3.88    3.70
  -7  -6  -3    3.10    4.79
  -7  -6  -2  123.21   11.32
  -7  -6  -1   -2.40    2.91
  -7  -6   0     .79    3.38
  -7  -6   1    4.71    3.30
  -7  -6   2  115.78   44.55
  -7  -6   3    -.59    3.08
  -7  -5 -13    6.30    4.42
  -7  -5 -12   30.25    7.70
  -7  -5 -11   47.06   15.50
  -7  -5 -10     .30    3.62
  -7  -5  -9   13.99    3.67
  -7  -5  -8   14.29    4.23
  -7  -5  -7   31.47    5.27
  -7  -5  -6   51.55    5.17
  -7  -5  -5   45.02    5.50
  -7  -5  -4   14.29   15.80
  -7  -5  -3  126.34    7.64
  -7  -5  -2    2.31    2.01
  -7  -5  -1  130.42    9.59
  -7  -5   0  206.78   14.38
  -7  -5   1  123.21   10.66
  -7  -5   2   10.69   11.38
  -7  -5   3  112.15    9.11
  -7  -4 -14   15.60    4.42
  -7  -4 -13    4.88   10.78
  -7  -4 -12    3.10    3.70
  -7  -4 -11   29.48    4.56
  -7  -4 -10   67.24    7.87
  -7  -4  -9   32.83    5.50
  -7  -4  -8    -.10    4.25
  -7  -4  -7    6.60    3.29
  -7  -4  -6   95.45    9.77
  -7  -4  -5   54.46    5.90
  -7  -4  -4  157.75   15.32
  -7  -4  -3     .30    2.82
  -7  -4  -2   90.82    6.67
  -7  -4  -1    1.80    1.61
  -7  -4   0   25.50    3.94
  -7  -4   1    1.69    2.39
  -7  -4   2   98.21    6.34
  -7  -3 -14    7.29    5.08
  -7  -3 -13   -1.99    4.68
  -7  -3 -12   24.21   12.60
  -7  -3 -11   28.84    5.37
  -7  -3 -10   20.88    3.20
  -7  -3  -9   15.29    4.61
  -7  -3  -8   74.65    9.33
  -7  -3  -7   60.53    7.78
  -7  -3  -6   16.40    3.73
  -7  -3  -5  157.00   12.78
  -7  -3  -4   31.81    3.84
  -7  -3  -3   37.09    4.02
  -7  -3  -2   15.37    3.76
  -7  -3  -1  196.28   14.85
  -7  -3   0   50.55    5.55
  -7  -3   1  196.84   16.84
  -7  -3   2   23.33    4.73
  -7  -2 -14    1.00    5.30
  -7  -2 -13   24.40    8.60
  -7  -2 -12   17.22    5.23
  -7  -2 -11   15.29    5.08
  -7  -2 -10   60.84    6.55
  -7  -2  -9    9.18   22.60
  -7  -2  -8   20.79    4.47
  -7  -2  -7   97.22   11.24
  -7  -2  -6   20.16    3.59
  -7  -2  -5   18.58    3.19
  -7  -2  -4   51.55    4.88
  -7  -2  -3    8.70    2.60
  -7  -2  -2   87.61    8.42
  -7  -2  -1  127.69    8.81
  -7  -2   0    8.53    2.39
  -7  -2   1  116.64   15.98
  -7  -2   2   92.16   12.86
  -7  -1 -15    2.50    5.40
  -7  -1 -14   13.99   10.47
  -7  -1 -13   20.52    5.53
  -7  -1 -12   38.69    7.09
  -7  -1 -11   23.33    5.80
  -7  -1 -10   13.47    5.06
  -7  -1  -9   81.54    8.31
  -7  -1  -8   36.84    5.71
  -7  -1  -7   50.55    6.97
  -7  -1  -6   75.17    6.24
  -7  -1  -5   25.00    5.40
  -7  -1  -4   22.66    3.14
  -7  -1  -3  187.69   13.15
  -7  -1  -2   46.24    4.35
  -7  -1  -1   34.93    4.61
  -7  -1   0   31.58    3.15
  -7  -1   1   36.84    4.86
  -7  -1   2   35.76    4.07
  -7   0 -14  138.30   59.98
  -7   0 -13    7.78    8.82
  -7   0 -12   35.16    6.05
  -7   0 -11   44.36    8.79
  -7   0 -10    -.79    3.77
  -7   0  -9    1.10    4.20
  -7   0  -8  112.57   12.52
  -7   0  -7   35.64    5.49
  -7   0  -6   92.16    7.30
  -7   0  -5   13.10    6.37
  -7   0  -4    6.92    2.89
  -7   0  -3   43.30    5.66
  -7   0  -2  165.38   10.03
  -7   0  -1     .90    2.91
  -7   0   0    2.69    2.59
  -7   0   1    5.71    7.12
  -7   0   2  152.52    9.39
  -7   1 -14   -3.39   14.28
  -7   1 -13    8.12    5.41
  -7   1 -12   44.76    6.42
  -7   1 -11   10.63    4.30
  -7   1 -10   14.06    3.97
  -7   1  -9   85.93    8.53
  -7   1  -8   46.51    6.55
  -7   1  -7   78.68    6.74
  -7   1  -6   78.68    6.74
  -7   1  -5   38.44    6.45
  -7   1  -4   17.22    2.49
  -7   1  -3  192.93   14.45
  -7   1  -2   36.00    3.72
  -7   1  -1   34.46    3.87
  -7   1   0   29.92    4.27
  -7   1   1   31.25    3.69
  -7   1   2   38.32    4.46
  -7   2 -14   12.67    4.98
  -7   2 -13   32.04    5.66
  -7   2 -12   16.00    6.00
  -7   2 -11    2.10    3.71
  -7   2 -10   89.30   10.58
  -7   2  -9    1.49    2.10
  -7   2  -8   17.64    4.62
  -7   2  -7  107.74    8.10
  -7   2  -6   23.43    4.26
  -7   2  -5    6.81    2.19
  -7   2  -4   50.84    3.85
  -7   2  -3   15.13    2.88
  -7   2  -2   80.82    5.75
  -7   2  -1  103.43    7.12
  -7   2   0    4.08    2.79
  -7   2   1  121.44    8.15
  -7   2   2   81.18    6.85
  -7   2   3    6.10    3.01
  -7   3 -14     .50    3.51
  -7   3 -13    5.11    4.52
  -7   3 -12    8.01    4.53
  -7   3 -11   17.22    4.48
  -7   3 -10   26.83    4.35
  -7   3  -9   59.75   28.45
  -7   3  -8   59.44    6.63
  -7   3  -7   64.32    7.38
  -7   3  -6    9.80    2.82
  -7   3  -5  196.56   15.70
  -7   3  -4   23.23    3.08
  -7   3  -3   40.96    4.48
  -7   3  -2   15.76    2.78
  -7   3  -1  195.44   14.54
  -7   3   0   58.83    5.83
  -7   3   1  204.78   14.02
  -7   3   2   18.49    3.01
  -7   3   3   42.25    4.42
  -7   4 -14   22.56    4.37
  -7   4 -13     .30    4.11
  -7   4 -12    5.29    4.09
  -7   4 -11   28.20    4.99
  -7   4 -10   65.77    6.49
  -7   4  -9   29.27    4.65
  -7   4  -8   13.76    8.31
  -7   4  -7    9.92    3.40
  -7   4  -6   83.17    8.94
  -7   4  -5   54.17    4.56
  -7   4  -4  173.19   12.11
  -7   4  -3    7.08    5.11
  -7   4  -2   90.25    6.84
  -7   4  -1    3.88    2.09
  -7   4   0   25.50    3.33
  -7   4   1    7.67    2.88
  -7   4   2   90.63    7.62
  -7   4   3    5.38    3.90
  -7   4   4  155.75   11.98
  -7   4   5   65.45   11.33
  -7   5 -13    5.11    9.63
  -7   5 -12   11.49    4.20
  -7   5 -11   11.90    5.11
  -7   5 -10     .90    4.31
  -7   5  -9   11.70    4.58
  -7   5  -8   13.10    4.63
  -7   5  -7   35.05    4.74
  -7   5  -6   52.42    5.65
  -7   5  -5   61.62    6.12
  -7   5  -4   15.92    3.91
  -7   5  -3  124.55   10.27
  -7   5  -2    2.79    2.81
  -7   5  -1  109.83   10.06
  -7   5   0  214.04   14.34
  -7   5   1  122.54    8.63
  -7   5   2   -1.90    1.60
  -7   5   3  118.37   11.10
  -7   5   4   17.72    3.12
  -7   5   5   39.56    3.02
  -7   6 -13   18.06   11.39
  -7   6 -12    3.61    3.99
  -7   6 -11   17.72    5.98
  -7   6 -10    2.69    5.08
  -7   6  -9  112.57   10.61
  -7   6  -8   69.89    8.53
  -7   6  -7   21.90    6.08
  -7   6  -6   67.73   12.18
  -7   6  -5   33.64    5.22
  -7   6  -4    1.21    2.82
  -7   6  -3   -3.39    2.98
  -7   6  -2  102.01    7.68
  -7   6  -1    2.50    1.80
  -7   6   0    5.52    2.49
  -7   6   1    -.20    2.52
  -7   6   2  109.83    6.50
  -7   6   3    1.59    1.59
  -7   6   4    1.99    1.69
  -7   6   5   23.52    2.81
  -7   6   6   74.13    8.95
  -7   7 -12    2.31    3.31
  -7   7 -11   25.20    5.92
  -7   7 -10    7.29    3.51
  -7   7  -9   13.32    5.11
  -7   7  -8   20.70    4.37
  -7   7  -7    -.79    3.19
  -7   7  -6   10.50    3.37
  -7   7  -5    4.00    3.92
  -7   7  -4   82.63    9.45
  -7   7  -3  119.90   22.78
  -7   7  -2   35.64   10.87
  -7   7  -1   20.70   10.92
  -7   7   0   64.64    4.82
  -7   7   1   12.82    2.58
  -7   7   2   23.04    2.50
  -7   7   3  100.40    7.21
  -7   7   4   79.92    5.72
  -7   7   5    -.40    2.49
  -7   7   6    6.00    2.30
  -7   7   7     .50    2.41
  -7   8 -11   10.82    6.19
  -7   8 -10    2.89    3.20
  -7   8  -9    7.18    4.77
  -7   8  -8    -.90    3.21
  -7   8  -7   65.45   10.84
  -7   8  -6   33.41    5.55
  -7   8  -5     .90    2.20
  -7   8  -4    6.92    2.79
  -7   8  -3    3.39    8.10
  -7   8  -2   29.59    3.81
  -7   8  -1    6.00    2.11
  -7   8   0    3.61    2.39
  -7   8   1    8.82    2.91
  -7   8   2   17.64    2.52
  -7   8   3    -.71    2.20
  -7   8   4    9.42    2.33
  -7   8   5     .90    2.81
  -7   9 -10    1.90   11.12
  -7   9  -9   17.22    8.22
  -7   9  -8   48.16    7.36
  -7   9  -7   16.00    5.44
  -7   9  -6    8.01    4.92
  -7   9  -5    9.92    3.59
  -7   9  -4   43.96   17.24
  -7   9  -3    2.10    4.61
  -7   9  -2   66.59    7.02
  -7   9  -1   45.16    7.26
  -7   9   0    2.99    4.19
  -7   9   1   38.19    8.65
  -7   9   2   59.14    6.61
  -7   9   3   -1.21    3.10
  -7   9   4   62.57   13.45
  -7   9   5     .59    2.48
  -7  10  -9   17.39    7.34
  -7  10  -8   27.88   30.20
  -7  10  -7   28.41    7.25
  -7  10  -6   10.82    5.13
  -7  10  -5   29.92    6.89
  -7  10  -4   30.58    9.40
  -7  10  -3   11.70    5.20
  -7  10  -2    6.10    4.00
  -7  10  -1    5.38    4.08
  -7  10   0   21.72    4.57
  -7  10   1     .59    3.68
  -7  10   2    3.88    4.10
  -7  10   3   11.02    4.38
  -7  10   4   25.60    5.26
  -7  10   5   10.69    4.38
  -7  11  -7   -2.50    6.51
  -7  11  -6   57.76   16.72
  -7  11  -5   34.46    6.57
  -7  11  -4   16.48    5.28
  -7  11  -3    5.02    3.81
  -7  11  -2   43.56    6.20
  -7  11  -1   11.70    6.50
  -7  11   0   43.56    6.47
  -7  11   1    5.38    4.69
  -7  11   2   32.15    7.48
  -7  11   3    3.20    5.91
  -7  11   4    9.49    4.99
  -7  11   5   25.81    7.11
  -7  12  -4   16.32    7.19
  -7  12  -3    9.00    6.12
  -7  12  -2    3.10    4.19
  -7  12  -1    1.30    4.70
  -7  12   0   19.80    6.41
  -7  12   1    9.18    5.51
  -7  12   2    9.92    5.92
  -7  12   3   15.13    6.61
  -7  12   4    3.50    5.20
  -7  12   5    2.19    8.50
  -6  -9   3   64.64    7.72
  -6  -9   4   26.73    5.07
  -6  -8  -6   15.68    3.41
  -6  -8  -5   66.26    7.16
  -6  -8  -4   96.04   11.37
  -6  -8  -3   42.51    5.22
  -6  -8  -2   20.16    4.22
  -6  -8  -1  111.09   10.12
  -6  -8   0  180.63   19.62
  -6  -8   1  117.29    9.53
  -6  -8   2   24.70    4.47
  -6  -8   3   37.45    4.65
  -6  -7 -11    9.12    3.08
  -6  -7 -10   14.82    4.62
  -6  -7  -9   50.13    8.07
  -6  -7  -8  117.51   12.79
  -6  -7  -7    5.20    4.38
  -6  -7  -6   23.62    3.79
  -6  -7  -5  126.79    9.01
  -6  -7  -4  123.88   30.72
  -6  -7  -3   60.37    6.37
  -6  -7  -2   14.06    3.97
  -6  -7  -1   58.06    6.10
  -6  -7   0    5.20    3.01
  -6  -7   1   41.86    3.75
  -6  -7   2    8.70    2.60
  -6  -6 -14   11.70    7.39
  -6  -6 -13   43.03    6.56
  -6  -6 -12   12.53   24.14
  -6  -6 -11   10.63    5.41
  -6  -6 -10   12.18    3.98
  -6  -6  -9   39.44    5.65
  -6  -6  -8   16.81    4.51
  -6  -6  -7   94.09    9.70
  -6  -6  -6   17.14    2.82
  -6  -6  -5    -.50    2.71
  -6  -6  -4  101.20    7.85
  -6  -6  -3   66.91    7.20
  -6  -6  -2   11.83    3.37
  -6  -6  -1   84.27    8.45
  -6  -6   0  246.80   12.88
  -6  -6   1  102.62    6.89
  -6  -6   2    7.18    2.57
  -6  -5 -15    4.00    4.92
  -6  -5 -14    4.49    6.11
  -6  -5 -13   16.08    7.22
  -6  -5 -12   41.86    6.99
  -6  -5 -11   93.32    9.27
  -6  -5 -10   39.44    7.54
  -6  -5  -9   58.83    7.98
  -6  -5  -8   75.52    6.95
  -6  -5  -7   50.55    6.54
  -6  -5  -6   16.16    4.10
  -6  -5  -5   74.65    6.91
  -6  -5  -4   41.60    5.16
  -6  -5  -3    5.52    2.11
  -6  -5  -2   13.18    6.32
  -6  -5  -1  109.20    9.82
  -6  -5   0   34.34    3.98
  -6  -5   1   98.01    7.33
  -6  -4 -15   20.43    8.41
  -6  -4 -14    6.71    9.32
  -6  -4 -13   15.92    5.99
  -6  -4 -12   19.36    4.66
  -6  -4 -11   67.90    7.42
  -6  -4 -10   17.31    4.91
  -6  -4  -9   57.46    5.76
  -6  -4  -8   34.69    6.48
  -6  -4  -7   35.76   10.52
  -6  -4  -6    7.29    3.62
  -6  -4  -5   36.12    4.57
  -6  -4  -4   96.24   10.01
  -6  -4  -3  121.88    7.95
  -6  -4  -2  155.50    9.98
  -6  -4  -1   40.45    3.94
  -6  -4   0    1.39    2.38
  -6  -4   1   39.56    4.15
  -6  -3 -15    9.92    6.49
  -6  -3 -14   15.52    7.88
  -6  -3 -13   56.25   18.45
  -6  -3 -12   21.90    3.56
  -6  -3 -11   13.32    4.31
  -6  -3 -10   14.29    2.49
  -6  -3  -9   11.97    2.91
  -6  -3  -8   26.83    4.45
  -6  -3  -7  131.10   15.34
  -6  -3  -6  281.23   15.76
  -6  -3  -5    2.50    3.41
  -6  -3  -4   57.00    4.08
  -6  -3  -3   62.41    6.64
  -6  -3  -2   28.09    4.56
  -6  -3  -1   28.30    4.47
  -6  -3   0  234.40   11.64
  -6  -3   1   25.30    5.13
  -6  -2 -16   -2.79    4.98
  -6  -2 -15    5.38    6.40
  -6  -2 -14    1.69    5.49
  -6  -2 -13   17.89    3.81
  -6  -2 -12   52.13    6.64
  -6  -2 -11   85.19    8.31
  -6  -2 -10   33.29    4.27
  -6  -2  -9   40.32    6.10
  -6  -2  -8   18.58    2.33
  -6  -2  -7   92.74    9.24
  -6  -2  -6   58.37    6.88
  -6  -2  -5   28.52    3.20
  -6  -2  -4  119.90    8.98
  -6  -2  -3   43.82    5.16
  -6  -2  -2  366.34   18.37
  -6  -2  -1  113.85    9.18
  -6  -2   0    4.28    1.78
  -6  -2   1  111.94    7.62
  -6  -1 -16   35.64    7.16
  -6  -1 -15    8.29    6.39
  -6  -1 -14   15.76    4.21
  -6  -1 -13   13.69    3.92
  -6  -1 -12    5.20    3.19
  -6  -1 -11   82.08   14.13
  -6  -1 -10   24.11    4.42
  -6  -1  -9   46.51    8.18
  -6  -1  -8   -3.69    2.69
  -6  -1  -7   76.21    6.46
  -6  -1  -6   32.15    3.74
  -6  -1  -5   42.25    4.68
  -6  -1  -4   37.58    5.39
  -6  -1  -3  207.65   12.68
  -6  -1  -2  472.19   26.08
  -6  -1  -1  161.29   11.68
  -6  -1   0   30.58    3.76
  -6  -1   1  157.50    8.03
  -6   0 -16    9.00    8.10
  -6   0 -15   61.47   54.57
  -6   0 -14   10.82    5.79
  -6   0 -13    5.29    2.99
  -6   0 -12    3.31    2.69
  -6   0 -11   43.43   12.26
  -6   0 -10   10.69    6.21
  -6   0  -9    5.52    2.21
  -6   0  -8   19.36    5.02
  -6   0  -7  328.70   23.21
  -6   0  -6  208.51   12.71
  -6   0  -5   39.94    3.67
  -6   0  -4   24.50    2.87
  -6   0  -3  134.10    8.57
  -6   0  -2  122.32    7.30
  -6   0  -1   77.62    5.11
  -6   0   0  132.02    7.58
  -6   0   1   75.86    6.27
  -6   1 -16   16.73    3.68
  -6   1 -15   22.75    6.96
  -6   1 -14   19.71    5.42
  -6   1 -13    5.02    2.82
  -6   1 -12   19.54    5.75
  -6   1 -11   72.25    7.99
  -6   1 -10   23.91    9.39
  -6   1  -9   37.58    4.54
  -6   1  -8    5.81    5.40
  -6   1  -7   68.89    5.98
  -6   1  -6   26.63    3.51
  -6   1  -5   47.75    4.56
  -6   1  -4   43.96    4.24
  -6   1  -3  228.92   12.71
  -6   1  -2  449.44   26.29
  -6   1  -1  147.14    9.70
  -6   1   0   29.05    4.31
  -6   1   1  159.26   11.61
  -6   2 -15   16.40    5.26
  -6   2 -14    4.88    7.29
  -6   2 -13    4.88    5.39
  -6   2 -12   55.35    8.78
  -6   2 -11   65.12    5.97
  -6   2 -10   38.56    4.60
  -6   2  -9   40.83    3.58
  -6   2  -8   30.03   24.44
  -6   2  -7   77.97    6.18
  -6   2  -6   68.72    4.97
  -6   2  -5   35.52    4.65
  -6   2  -4  105.68    9.25
  -6   2  -3   47.06    3.84
  -6   2  -2  416.98   36.35
  -6   2  -1  110.04    7.55
  -6   2   0   20.16    7.18
  -6   2   1  110.46   11.77
  -6   2   2  378.30   28.40
  -6   2   6   50.55    5.69
  -6   3 -15    -.30    6.13
  -6   3 -14    1.00    2.70
  -6   3 -13   52.13    7.80
  -6   3 -12   17.14    3.97
  -6   3 -11   20.61    5.08
  -6   3 -10    9.12    4.23
  -6   3  -9   12.11    3.62
  -6   3  -8   11.29    3.63
  -6   3  -7  154.50   13.42
  -6   3  -6  279.56   15.38
  -6   3  -5    4.41    2.10
  -6   3  -4  188.79   94.53
  -6   3  -3   69.22    4.66
  -6   3  -2   19.01    2.88
  -6   3  -1   23.62    2.53
  -6   3   0  237.16   16.02
  -6   3   1   23.81    2.93
  -6   3   2   13.10    2.82
  -6   3   5     .79    1.19
  -6   3   6  262.76   20.75
  -6   4 -15   26.63    6.71
  -6   4 -14    7.78    5.69
  -6   4 -13   16.08    6.90
  -6   4 -12   15.68    5.62
  -6   4 -11   72.76    7.34
  -6   4 -10   21.72    4.85
  -6   4  -9   58.68    7.05
  -6   4  -8   32.15    4.65
  -6   4  -7   38.81    5.11
  -6   4  -6    5.38    2.00
  -6   4  -5   41.86    4.66
  -6   4  -4  105.88    6.59
  -6   4  -3  138.30   10.11
  -6   4  -2  172.13    9.97
  -6   4  -1   41.09    4.23
  -6   4   0    7.90    2.02
  -6   4   1   41.34    3.47
  -6   4   2  146.89   10.42
  -6   4   3  115.13    7.94
  -6   4   4   96.63    5.70
  -6   4   5   33.76    3.25
  -6   4   6    5.38    1.81
  -6   5 -15     .50    4.81
  -6   5 -14    8.12    5.70
  -6   5 -13     .00    1.00
  -6   5 -12   45.97    6.78
  -6   5 -11  125.89   11.89
  -6   5 -10   49.14    5.75
  -6   5  -9   51.55    7.04
  -6   5  -8   85.01    6.27
  -6   5  -7   40.32    4.06
  -6   5  -6   22.75    3.72
  -6   5  -5  100.00    8.00
  -6   5  -4   39.19    4.01
  -6   5  -3    7.40    2.28
  -6   5  -2   13.32    2.34
  -6   5  -1   86.12    5.94
  -6   5   0   31.25    3.47
  -6   5   1   98.80    6.36
  -6   5   2    9.80    2.19
  -6   5   3    8.29    2.02
  -6   5   4   36.72    3.51
  -6   5   5   85.01    7.93
  -6   5   6   12.67    2.06
  -6   6 -14     .30    3.21
  -6   6 -13   42.77    6.15
  -6   6 -12    4.41    4.41
  -6   6 -11   11.70    3.42
  -6   6 -10    2.89    5.00
  -6   6  -9   31.70    4.95
  -6   6  -8   17.72    3.20
  -6   6  -7   97.42    8.49
  -6   6  -6   11.22    3.42
  -6   6  -5    -.90    2.20
  -6   6  -4   91.39    7.07
  -6   6  -3   67.24    5.74
  -6   6  -2    8.18    2.92
  -6   6  -1   70.73    5.05
  -6   6   0  250.59   14.56
  -6   6   1   86.86    5.96
  -6   6   2    6.40    1.42
  -6   6   3   63.52    3.67
  -6   6   4   80.64    5.03
  -6   6   5    3.69    2.30
  -6   6   6   11.97    3.32
  -6   7 -14   -1.99    2.99
  -6   7 -13    6.92    2.79
  -6   7 -12   24.90    3.89
  -6   7 -11    9.92    2.33
  -6   7 -10   14.98    2.48
  -6   7  -9   35.88    5.03
  -6   7  -8   84.09    9.17
  -6   7  -7   10.82    3.03
  -6   7  -6   19.80    4.00
  -6   7  -5  114.06   11.32
  -6   7  -4   91.97    8.25
  -6   7  -3   59.14    8.15
  -6   7  -2   13.69    3.48
  -6   7  -1   47.61    5.24
  -6   7   0    3.88    2.09
  -6   7   1   44.76    4.68
  -6   7   2   20.98    3.30
  -6   7   3   64.32    3.53
  -6   7   4   92.16    5.95
  -6   7   5  115.99    8.40
  -6   7   6   24.90    8.38
  -6   8 -13   11.83    4.13
  -6   8 -12   20.98   13.65
  -6   8 -11   15.37    4.78
  -6   8 -10    7.78    3.52
  -6   8  -9    1.99    2.79
  -6   8  -8   59.44   12.95
  -6   8  -7   20.34    3.88
  -6   8  -6    8.29    3.28
  -6   8  -5   46.92    4.52
  -6   8  -4   87.61    8.24
  -6   8  -3   41.22    3.47
  -6   8  -2   19.89    2.68
  -6   8  -1   99.20    5.78
  -6   8   0  159.01    8.57
  -6   8   1   96.63    5.50
  -6   8   2   17.31    2.83
  -6   8   3   35.40    3.69
  -6   8   4   82.26    8.16
  -6   8   5   50.55    3.70
  -6   8   6   12.53    2.48
  -6   9 -12   12.89    7.32
  -6   9 -11    3.31    2.80
  -6   9 -10   37.95    5.91
  -6   9  -9   35.40    4.64
  -6   9  -8   20.79    4.38
  -6   9  -7   14.67    2.68
  -6   9  -6   16.00    4.08
  -6   9  -5    4.08    2.59
  -6   9  -4   20.43    2.80
  -6   9  -3   73.44    8.06
  -6   9  -2    5.29    3.82
  -6   9  -1   64.96    6.45
  -6   9   0   77.97    7.77
  -6   9   1   53.58    6.59
  -6   9   2   10.37    2.77
  -6   9   3   60.53    8.87
  -6   9   4   23.62    4.86
  -6   9   5   10.11    2.67
  -6   9   6    2.10    2.90
  -6  10 -11    2.50    5.78
  -6  10 -10   12.60   11.22
  -6  10  -9   42.38    6.77
  -6  10  -8   10.63    6.52
  -6  10  -7   21.81    6.44
  -6  10  -6   11.42    4.93
  -6  10  -5   69.06    8.97
  -6  10  -4   12.67    5.70
  -6  10  -3    5.52    3.62
  -6  10  -2   16.40    4.78
  -6  10  -1   37.58    4.66
  -6  10   0    5.20    2.78
  -6  10   1   46.65    5.33
  -6  10   2   15.52    3.23
  -6  10   3    7.29    3.62
  -6  10   4   27.98    4.23
  -6  10   5   86.68   17.69
  -6  10   6   13.99    5.16
  -6  11  -9   -3.61    5.70
  -6  11  -8    9.67    7.46
  -6  11  -7  238.70   92.39
  -6  11  -6   26.73   10.34
  -6  11  -5   57.76    9.73
  -6  11  -4   16.48    4.38
  -6  11  -3   10.50    5.12
  -6  11  -2   16.32    5.58
  -6  11  -1   58.06    8.23
  -6  11   0   26.32   14.06
  -6  11   1   48.02    6.65
  -6  11   2   26.11    4.29
  -6  11   3    3.10    3.31
  -6  11   4   11.42    3.92
  -6  11   5   63.84   10.55
  -6  11   6   11.09    4.73
  -6  12  -8    2.59    2.19
  -6  12  -7    1.69    5.10
  -6  12  -6   -3.80    6.71
  -6  12  -5   17.64    5.80
  -6  12  -4    9.99    6.70
  -6  12  -3   26.94    6.75
  -6  12  -2     .71    3.21
  -6  12  -1   18.40    6.78
  -6  12   0    8.18    7.26
  -6  12   1   20.16    6.02
  -6  12   2   -2.10    3.71
  -6  12   3   20.70    6.64
  -6  12   4    9.30    5.18
  -6  12   5   22.56   10.26
  -6  12   6    -.71    4.92
  -6  13  -5   14.21   20.43
  -6  13  -4    1.80    4.58
  -6  13  -3    1.00    5.50
  -6  13  -2    3.39    5.08
  -6  13  -1   -1.69    5.59
  -6  13   0   10.30    5.01
  -6  13   1   19.62    7.00
  -6  13   2   16.56    9.52
  -6  13   3    6.92    4.68
  -6  13   4   -1.99    3.98
  -6  13   5   10.82    4.28
  -5 -10 -12    2.89    3.20
  -5 -10 -11   16.32    3.88
  -5  -9   2    -.59    2.28
  -5  -9   3   52.85    8.14
  -5  -8  -6   76.74    8.23
  -5  -8  -5   24.50    4.16
  -5  -8  -4   35.05    4.50
  -5  -8  -3   41.34    4.24
  -5  -8  -2   27.67    4.00
  -5  -8  -1   55.35    5.65
  -5  -8   0  113.00    9.35
  -5  -8   1   61.15    7.82
  -5  -8   2   32.38    3.64
  -5  -7 -12   16.08    7.06
  -5  -7 -11   31.25   16.88
  -5  -7 -10   10.50    2.98
  -5  -7  -9    4.08    3.19
  -5  -7  -8   21.44    3.61
  -5  -7  -7   30.25    4.62
  -5  -7  -6   32.04    4.19
  -5  -7  -5  138.30   15.52
  -5  -7  -4  109.41    8.79
  -5  -7  -3    5.20    1.19
  -5  -7  -2   97.81    7.52
  -5  -7  -1  126.34   10.12
  -5  -7   0   16.40    2.59
  -5  -7   1  119.68    6.78
  -5  -7   2  104.45    8.18
  -5  -6 -15    3.20    3.51
  -5  -6 -14   14.52    7.62
  -5  -6 -13    4.80    8.28
  -5  -6 -12   18.92    6.44
  -5  -6 -11   31.14    7.70
  -5  -6 -10   59.44    6.48
  -5  -6  -9   31.70    5.86
  -5  -6  -8   79.57    7.49
  -5  -6  -7  152.77   11.62
  -5  -6  -6   15.76    2.22
  -5  -6  -5   60.84    8.27
  -5  -6  -4  209.96   16.81
  -5  -6  -3   25.10    2.91
  -5  -6  -2  105.06    6.56
  -5  -6  -1   45.83    4.33
  -5  -6   0   45.16    3.23
  -5  -6   1   43.82    4.24
  -5  -5 -16   -1.69    3.48
  -5  -5 -15   20.43    8.32
  -5  -5 -14   38.32    6.56
  -5  -5 -13   17.98    6.11
  -5  -5 -12   91.78   12.26
  -5  -5 -11    3.50    3.52
  -5  -5 -10   47.75    5.11
  -5  -5  -9    9.80    3.32
  -5  -5  -8   25.60    5.06
  -5  -5  -7   55.50    4.92
  -5  -5  -6  108.99   10.02
  -5  -5  -5   25.00   27.50
  -5  -5  -4   41.22    4.49
  -5  -5  -3   21.16    2.76
  -5  -5  -2  401.60   24.45
  -5  -5  -1  131.79    7.81
  -5  -5   0  369.41   16.53
  -5  -5   1  111.72    8.46
  -5  -4 -16   10.37   10.50
  -5  -4 -15    7.62    3.42
  -5  -4 -14    2.40    4.59
  -5  -4 -13    3.31    4.51
  -5  -4 -12   28.20    4.99
  -5  -4 -11   40.96    5.12
  -5  -4 -10    9.80    2.88
  -5  -4  -9   43.16    5.26
  -5  -4  -8  129.05    7.50
  -5  -4  -7  161.29   12.95
  -5  -4  -6   95.45    6.06
  -5  -4  -5  189.06   14.30
  -5  -4  -4  103.84    7.74
  -5  -4  -3  414.94   17.93
  -5  -4  -2   37.95    3.57
  -5  -4  -1   99.00    7.36
  -5  -4   0  152.03    7.40
  -5  -3 -16    5.71    4.59
  -5  -3 -15   21.72    8.39
  -5  -3 -14   26.94    4.15
  -5  -3 -13   17.64    3.61
  -5  -3 -12   34.34    7.38
  -5  -3 -11   13.69   23.46
  -5  -3 -10   75.69    7.66
  -5  -3  -9   45.56    5.26
  -5  -3  -8   72.08    5.77
  -5  -3  -7   20.43    2.89
  -5  -3  -6   83.36    8.95
  -5  -3  -5  121.44    9.04
  -5  -3  -4  133.40    9.24
  -5  -3  -3  306.95   17.17
  -5  -3  -2  111.09    8.85
  -5  -3  -1   14.21    2.71
  -5  -3   0     .59    1.29
  -5  -2 -16    7.62    4.31
  -5  -2 -15   22.37   11.45
  -5  -2 -14   19.80    5.78
  -5  -2 -13   38.94    7.49
  -5  -2 -12   36.00    4.92
  -5  -2 -11   49.42    6.47
  -5  -2 -10   13.76    5.19
  -5  -2  -9   39.56    4.40
  -5  -2  -8   76.91    5.09
  -5  -2  -7   14.67    2.37
  -5  -2  -6   63.84   11.83
  -5  -2  -5  183.06    8.93
  -5  -2  -4   45.56    3.78
  -5  -2  -3  236.85   13.24
  -5  -2  -2   91.78    5.56
  -5  -2  -1  629.01   35.61
  -5  -2   0  179.83   10.73
  -5  -1 -17    7.51    5.70
  -5  -1 -16    4.49    5.09
  -5  -1 -15    9.61    5.89
  -5  -1 -14   63.36   15.12
  -5  -1 -13   54.46    8.71
  -5  -1 -12    1.21    2.31
  -5  -1 -11   32.26    5.91
  -5  -1 -10  160.78   12.93
  -5  -1  -9   64.96    5.96
  -5  -1  -8   55.95    3.74
  -5  -1  -7   99.20    9.76
  -5  -1  -6  242.42   12.14
  -5  -1  -5   64.48    4.18
  -5  -1  -4   59.14    4.46
  -5  -1  -3    2.10    2.20
  -5  -1  -2    8.70    3.60
  -5  -1  -1  113.85    5.76
  -5  -1   0   45.29    3.37
  -5   0 -17    9.99    5.69
  -5   0 -16   50.98   23.13
  -5   0 -15    -.40    2.89
  -5   0 -14   19.10    5.68
  -5   0 -13    2.69    3.38
  -5   0 -12   13.32    2.77
  -5   0 -11    1.10    2.50
  -5   0 -10   28.09    4.66
  -5   0  -9   33.87    4.07
  -5   0  -8   65.93    5.52
  -5   0  -7   45.16    4.57
  -5   0  -6   15.21    9.59
  -5   0  -5  207.07   10.36
  -5   0  -4  431.39   23.26
  -5   0  -3    9.92    2.39
  -5   0  -2   75.34    4.86
  -5   0  -1  339.30   17.68
  -5   0   0    1.99    2.20
  -5   1 -16    5.11    5.51
  -5   1 -15    1.80    3.11
  -5   1 -14   46.79    8.76
  -5   1 -13   60.84    8.11
  -5   1 -12    4.49    2.20
  -5   1 -11   35.28    4.28
  -5   1 -10  181.17   14.81
  -5   1  -9   81.72    5.79
  -5   1  -8   72.42   12.25
  -5   1  -7  115.35    9.02
  -5   1  -6  253.13   14.96
  -5   1  -5   65.45    4.37
  -5   1  -4   58.83    4.91
  -5   1  -3     .30    3.92
  -5   1  -2    1.90    1.79
  -5   1  -1  108.78    7.09
  -5   1   0   31.58    2.59
  -5   1   1  121.88    6.62
  -5   1   6  251.54   20.62
  -5   2 -16    4.88    4.29
  -5   2 -15   41.34    8.87
  -5   2 -14   12.82    5.08
  -5   2 -13   26.32    3.28
  -5   2 -12   43.30    4.74
  -5   2 -11   51.55    5.03
  -5   2 -10   10.18    4.78
  -5   2  -9   43.43    5.01
  -5   2  -8   66.59    5.55
  -5   2  -7   20.79   10.49
  -5   2  -6   62.25    6.00
  -5   2  -5  176.09    8.49
  -5   2  -4   43.43    4.74
  -5   2  -3  251.22   12.68
  -5   2  -2  109.83    7.34
  -5   2  -1  641.61   27.86
  -5   2   0  186.05   10.37
  -5   2   1  654.34   24.05
  -5   2   6   59.75    4.95
  -5   3 -16    6.30    4.62
  -5   3 -15   10.11    3.12
  -5   3 -14   25.91    4.68
  -5   3 -13   18.84    4.69
  -5   3 -12   33.29    6.46
  -5   3 -11    6.60    3.70
  -5   3 -10   64.64    5.63
  -5   3  -9   50.27    5.81
  -5   3  -8   78.68    6.56
  -5   3  -7   24.21    2.95
  -5   3  -6   95.84   13.90
  -5   3  -5  122.99    6.88
  -5   3  -4  114.49    8.13
  -5   3  -3  296.18   18.24
  -5   3  -2  111.09    7.80
  -5   3  -1   14.90    1.70
  -5   3   0    -.10    1.22
  -5   3   1   15.21    2.73
  -5   3   5  118.59    8.06
  -5   3   6   92.54   10.97
  -5   4 -16     .30    7.73
  -5   4 -15    3.88    6.30
  -5   4 -14    8.12    8.09
  -5   4 -13     .71    2.30
  -5   4 -12  114.70   41.77
  -5   4 -11   47.75    5.11
  -5   4 -10   -4.28    1.90
  -5   4  -9   55.65   16.86
  -5   4  -8  118.59    7.84
  -5   4  -7  168.48   11.94
  -5   4  -6   72.25    6.29
  -5   4  -5  178.49    8.82
  -5   4  -4  118.81    7.85
  -5   4  -3  422.71   28.37
  -5   4  -2   37.95    3.82
  -5   4  -1  104.45    4.29
  -5   4   0  166.67    9.81
  -5   4   1   96.04    5.68
  -5   4   2   32.38    2.73
  -5   4   4  112.78    6.58
  -5   4   5  164.35   37.18
  -5   4   6   79.74    7.32
  -5   4   7  140.19   11.13
  -5   5 -15   17.98    6.28
  -5   5 -14   30.69    5.43
  -5   5 -13   26.11    5.42
  -5   5 -12   88.74   10.55
  -5   5 -11   10.18    3.76
  -5   5 -10   36.00    3.96
  -5   5  -9    6.00    3.58
  -5   5  -8   40.45    4.45
  -5   5  -7   60.06    5.12
  -5   5  -6  110.04    9.02
  -5   5  -5   18.58    1.98
  -5   5  -4   46.92    3.56
  -5   5  -3   18.32    1.54
  -5   5  -2  405.62   18.53
  -5   5  -1  127.69    7.01
  -5   5   0  382.59   28.56
  -5   5   1  146.41   10.41
  -5   5   2  405.22   16.91
  -5   5   3   16.16    2.49
  -5   5   4   34.11    3.15
  -5   5   5   17.72    7.58
  -5   5   6  111.51    7.18
  -5   5   7   56.55    5.41
  -5   6 -15   -1.99    2.90
  -5   6 -14    9.18    3.09
  -5   6 -13    -.40    4.98
  -5   6 -12   -1.59    1.99
  -5   6 -11   19.98    4.20
  -5   6 -10   47.75    6.63
  -5   6  -9   32.72    5.72
  -5   6  -8   67.57    6.74
  -5   6  -7  129.50   10.24
  -5   6  -6   18.06    1.87
  -5   6  -5   59.60    3.55
  -5   6  -4  209.96    9.27
  -5   6  -3   23.72    2.34
  -5   6  -2   87.98    9.38
  -5   6  -1   51.70    4.31
  -5   6   0   43.96    3.85
  -5   6   1   49.14    2.94
  -5   6   2   89.68    3.22
  -5   6   3   25.30    2.01
  -5   6   4  207.65   14.99
  -5   6   5   62.73    6.97
  -5   6   6   14.90    2.16
  -5   6   7  126.34   12.81
  -5   7 -15   30.80    5.22
  -5   7 -14    6.20    3.49
  -5   7 -13    3.50    2.99
  -5   7 -12    4.58    2.78
  -5   7 -11   27.35    3.45
  -5   7 -10   13.99    2.32
  -5   7  -9    8.58    1.58
  -5   7  -8   21.72    2.80
  -5   7  -7   27.98    2.54
  -5   7  -6   28.62    2.25
  -5   7  -5  129.96    6.61
  -5   7  -4  102.62    4.86
  -5   7  -3    4.20    2.50
  -5   7  -2  103.02    7.51
  -5   7  -1  109.41    7.74
  -5   7   0   14.82    1.77
  -5   7   1  123.88    5.79
  -5   7   2   73.62    3.95
  -5   7   3    5.62    1.90
  -5   7   4   93.70    5.03
  -5   7   5  111.72    7.40
  -5   7   6   26.52    3.71
  -5   7   7   21.44    3.24
  -5   8 -14   35.88    6.11
  -5   8 -13   23.91    3.52
  -5   8 -12   23.04    4.99
  -5   8 -11   47.75    4.70
  -5   8 -10   32.15    4.08
  -5   8  -9    9.49    1.97
  -5   8  -8   12.11    2.78
  -5   8  -7    -.40    1.50
  -5   8  -6   78.50    4.78
  -5   8  -5   19.62    4.52
  -5   8  -4   31.14    3.46
  -5   8  -3   40.45    3.43
  -5   8  -2   23.72    2.43
  -5   8  -1   59.75    3.56
  -5   8   0  115.78    7.10
  -5   8   1   67.08    4.09
  -5   8   2   25.60    2.43
  -5   8   3   36.24    3.25
  -5   8   4   30.25    3.30
  -5   8   5   16.56    2.69
  -5   8   6   64.64    5.47
  -5   8   7    8.53    5.78
  -5   9 -13    3.88    3.19
  -5   9 -12   10.37    3.03
  -5   9 -11   34.22    3.74
  -5   9 -10   -1.49    2.59
  -5   9  -9   32.04    3.74
  -5   9  -8   38.07    6.05
  -5   9  -7   41.22    3.85
  -5   9  -6    4.88    2.39
  -5   9  -5   73.10    6.50
  -5   9  -4   20.43    2.71
  -5   9  -3   41.34    4.24
  -5   9  -2   -2.69    2.98
  -5   9  -1    8.01    3.79
  -5   9   0   64.00    6.24
  -5   9   1    4.80    2.80
  -5   9   2    4.49    3.90
  -5   9   3   37.70    5.16
  -5   9   4   24.80    3.29
  -5   9   5   64.48    4.98
  -5   9   6    6.30    2.21
  -5   9   7   44.89    5.76
  -5  10 -12   -5.02    4.79
  -5  10 -11   10.18    4.27
  -5  10 -10   31.81    5.08
  -5  10  -9   42.64   25.73
  -5  10  -8   19.89    6.33
  -5  10  -7    -.40    9.66
  -5  10  -6  147.38   19.18
  -5  10  -5   22.56    4.94
  -5  10  -4   40.83    5.75
  -5  10  -2  107.12   10.76
  -5  10  -1    5.20    2.60
  -5  10   0   42.64    5.35
  -5  10   1    7.51    3.18
  -5  10   2   95.84    8.22
  -5  10   3   21.34    3.60
  -5  10   4   37.58    5.52
  -5  10   5   27.35    4.50
  -5  10   6  118.59   13.07
  -5  10   7   -1.10    3.21
  -5  11 -10   15.92    8.54
  -5  11  -9   42.51   14.87
  -5  11  -8   32.15   12.93
  -5  11  -7   79.57   16.06
  -5  11  -6   27.14    6.56
  -5  11  -5     .40    3.59
  -5  11  -4   79.57    9.28
  -5  11  -3   42.64   10.32
  -5  11  -2   13.69    7.70
  -5  11  -1   12.18    4.89
  -5  11   0   25.70    4.46
  -5  11   1   11.97    3.67
  -5  11   2    7.40    3.37
  -5  11   3   19.18    3.68
  -5  11   4   88.36   12.60
  -5  11   5     .30    3.62
  -5  11   6    6.92    4.31
  -5  11   7   36.00    7.32
  -5  12  -9     .20    3.22
  -5  12  -8   19.36    5.46
  -5  12  -7    5.11    4.70
  -5  12  -6    5.81    5.01
  -5  12  -4    6.20    6.62
  -5  12  -3   13.99    5.61
  -5  12  -2  118.16   11.74
  -5  12  -1   32.95    5.63
  -5  12   0   30.25    5.39
  -5  12   1   38.94    7.86
  -5  12   2   88.17    9.39
  -5  12   3    8.29    5.70
  -5  12   4   25.91    5.70
  -5  12   5   13.76    3.86
  -5  12   6   19.01    5.32
  -5  12   7    6.00    5.49
  -5  13  -7   44.76   10.44
  -5  13  -6   24.30   10.65
  -5  13  -5   77.97   46.45
  -5  13  -4   19.27   19.49
  -5  13  -3   32.83    6.30
  -5  13  -2    2.19    3.79
  -5  13  -1    2.31    4.62
  -5  13   0   15.37    5.80
  -5  13   1   19.80    7.83
  -5  13   2    6.30    7.18
  -5  13   3   18.32    5.74
  -5  13   4   13.47    5.21
  -5  13   5    2.89    5.20
  -5  13   7   33.06    9.09
  -5  14  -4   15.37   22.74
  -5  14  -3   24.60    6.55
  -5  14  -2   38.56   11.43
  -5  14  -1   22.47    6.73
  -5  14   0    3.20    4.01
  -5  14   1   22.47    5.88
  -5  14   2   45.16   10.08
  -5  14   3   20.16   32.78
  -5  14   4    -.59    4.17
  -5  14   5   22.75    6.96
  -4 -11 -12    7.67    5.98
  -4 -11 -11    7.62    2.93
  -4 -10 -13    4.49    2.88
  -4 -10 -12   24.60    6.05
  -4 -10 -11   19.18    4.47
  -4 -10 -10   21.81    3.18
  -4 -10  -9    -.10    1.92
  -4 -10  -8   99.80    8.39
  -4 -10  -7  127.24    8.35
  -4 -10  -6   17.98    2.80
  -4  -9 -14    3.50    4.19
  -4  -9 -13   43.69   56.05
  -4  -9 -12   40.58    4.97
  -4  -9   2  229.83   20.92
  -4  -8 -15   14.67    4.21
  -4  -8  -7   85.38   10.16
  -4  -8  -6   18.32    3.77
  -4  -8  -5   31.47    4.15
  -4  -8  -4   25.50    3.84
  -4  -8  -3  187.69   16.71
  -4  -8  -2   21.44    2.22
  -4  -8  -1  151.54   13.29
  -4  -8   0    4.88    2.39
  -4  -8   1  136.42   16.12
  -4  -8   2   21.07    3.40
  -4  -7 -12   23.52   14.84
  -4  -7 -11   12.89    3.73
  -4  -7 -10   49.56    6.05
  -4  -7  -9   20.79    3.19
  -4  -7  -8   90.06    8.73
  -4  -7  -7   67.57    6.08
  -4  -7  -6  249.32   18.63
  -4  -7  -5  107.74   11.63
  -4  -7  -4   74.48    6.90
  -4  -7  -3   38.44    3.22
  -4  -7  -2  306.25   21.35
  -4  -7  -1  242.74   20.57
  -4  -7   0   45.97    9.90
  -4  -7   1  219.04   14.80
  -4  -6 -15   16.73    5.89
  -4  -6 -14   70.56   31.92
  -4  -6 -13   11.22    4.22
  -4  -6 -12   29.59    4.79
  -4  -6 -11  104.65    9.82
  -4  -6 -10   85.01   20.84
  -4  -6  -9   23.91    4.40
  -4  -6  -8   20.88    3.29
  -4  -6  -7   59.44    3.86
  -4  -6  -6  173.19   10.53
  -4  -6  -5   98.60    7.35
  -4  -6  -4   68.23    5.95
  -4  -6  -3  201.92   13.36
  -4  -6  -2   28.73    4.50
  -4  -6  -1   66.10    8.62
  -4  -6   0   73.44    6.68
  -4  -6   1   68.72    5.14
  -4  -5 -16   20.52    7.25
  -4  -5 -15    9.99    6.00
  -4  -5 -14    4.49    6.49
  -4  -5 -13   85.75   13.15
  -4  -5 -12   17.81    3.71
  -4  -5 -11   84.46    6.80
  -4  -5 -10   66.75    4.90
  -4  -5  -9  191.55   16.33
  -4  -5  -8   37.09    4.26
  -4  -5  -7   17.31    2.83
  -4  -5  -6   94.67    7.78
  -4  -5  -5   57.46    4.55
  -4  -5  -4  147.14    8.73
  -4  -5  -3  243.36   35.26
  -4  -5  -2  351.94   44.27
  -4  -5  -1   60.68    3.74
  -4  -5   0   84.82    5.53
  -4  -4 -17    3.69    9.10
  -4  -4 -16   11.49    6.17
  -4  -4 -15   14.21    3.62
  -4  -4 -14  114.70   10.92
  -4  -4 -13   27.77    5.80
  -4  -4 -12   12.82    3.08
  -4  -4 -11   64.32   15.72
  -4  -4 -10   58.98    6.60
  -4  -4  -9   31.47    4.38
  -4  -4  -8   39.44    3.01
  -4  -4  -7  269.62   19.05
  -4  -4  -6   85.56    6.47
  -4  -4  -5   28.84    2.90
  -4  -4  -4   42.12    3.37
  -4  -4  -3   92.35    5.19
  -4  -4  -2  143.28    9.58
  -4  -4  -1   79.92    5.36
  -4  -4   0  261.79   14.24
  -4  -3 -17   29.38    7.48
  -4  -3 -16    9.92    4.60
  -4  -3 -15   27.46    4.82
  -4  -3 -14     .20    4.53
  -4  -3 -13   32.15    4.76
  -4  -3 -12   19.10   24.21
  -4  -3 -11   16.40    3.24
  -4  -3 -10   13.47    2.13
  -4  -3  -9   41.22    4.11
  -4  -3  -8  212.87   10.50
  -4  -3  -7  135.02   10.92
  -4  -3  -6  134.10    9.96
  -4  -3  -5  163.07    8.68
  -4  -3  -4  463.11   30.99
  -4  -3  -3   16.00    2.24
  -4  -3  -2  234.40   15.00
  -4  -3  -1  302.76   14.62
  -4  -3   0  374.04   25.14
  -4  -2 -17    6.10    5.88
  -4  -2 -16   10.63    5.41
  -4  -2 -15   13.40    3.59
  -4  -2 -14   42.64    9.27
  -4  -2 -13  149.82   14.69
  -4  -2 -12   25.40    3.53
  -4  -2 -11   43.03    4.46
  -4  -2 -10  109.41   10.67
  -4  -2  -9  253.45   14.33
  -4  -2  -8   76.04    6.63
  -4  -2  -7   27.77    3.79
  -4  -2  -6   57.30    5.15
  -4  -2  -5  443.52   31.17
  -4  -2  -4   69.22    6.16
  -4  -2  -3  205.35    9.17
  -4  -2  -2   97.61    6.92
  -4  -2  -1  422.30   25.89
  -4  -2   0   15.92    6.06
  -4  -1 -17   16.32    6.14
  -4  -1 -16   18.66    5.10
  -4  -1 -15     .00    1.00
  -4  -1 -14   48.72    5.03
  -4  -1 -13    3.88    2.48
  -4  -1 -12   29.48    4.45
  -4  -1 -11     .00    1.00
  -4  -1 -10   37.95    5.67
  -4  -1  -9   21.44    3.43
  -4  -1  -8  154.75    7.46
  -4  -1  -7   88.55    4.89
  -4  -1  -6   66.75    4.58
  -4  -1  -5   99.80    8.19
  -4  -1  -4  964.72   36.03
  -4  -1  -3   95.26    5.66
  -4  -1  -2  157.25   10.53
  -4  -1  -1  110.67    5.89
  -4  -1   0 1276.63   66.46
  -4  -1   5   84.82    9.58
  -4   0 -17   27.77   13.18
  -4   0 -16   11.63    3.89
  -4   0 -15    3.31    4.11
  -4   0 -14    5.81    3.18
  -4   0 -13   22.66    3.71
  -4   0 -12    8.82    3.21
  -4   0 -11   13.99    2.69
  -4   0 -10    5.11    2.71
  -4   0  -9  496.40   32.08
  -4   0  -8  104.04    6.94
  -4   0  -7   43.69    3.70
  -4   0  -6  140.42    9.24
  -4   0  -5  935.75   45.89
  -4   0  -4   29.05    1.51
  -4   0  -3   55.06    3.26
  -4   0  -2    9.12    2.30
  -4   0  -1   89.87    5.12
  -4   0   0  331.60   15.66
  -4   0   6  129.28   12.51
  -4   1 -17    5.29    2.99
  -4   1 -16    3.80    4.29
  -4   1 -15    5.62    5.21
  -4   1 -14   60.37    9.17
  -4   1 -13    -.79    2.88
  -4   1 -12   37.45    4.65
  -4   1 -11    6.71    2.38
  -4   1 -10   43.16   12.22
  -4   1  -9   25.60    6.07
  -4   1  -8  146.89    8.00
  -4   1  -7   93.12    5.21
  -4   1  -6   56.85    3.32
  -4   1  -5   90.63    4.38
  -4   1  -4  940.65   41.10
  -4   1  -3   92.93    4.24
  -4   1  -2  159.01   10.59
  -4   1  -1  117.72    6.29
  -4   1   0 1291.68   58.22
  -4   1   1  117.07    7.14
  -4   1   2  161.80   13.74
  -4   1   6   61.62    4.55
  -4   1   7   89.68    4.74
  -4   2 -17   24.21    8.17
  -4   2 -16   13.69    3.63
  -4   2 -15   14.52    4.04
  -4   2 -14   42.64    8.36
  -4   2 -13  137.83   11.27
  -4   2 -12   31.36    3.92
  -4   2 -11   42.51    3.78
  -4   2 -10   98.21    6.14
  -4   2  -9  238.39   14.51
  -4   2  -8   76.04    4.53
  -4   2  -7   20.34    3.43
  -4   2  -6   60.84    4.37
  -4   2  -5  459.67   26.16
  -4   2  -4   82.63    4.36
  -4   2  -3  229.22    9.39
  -4   2  -2   87.80    5.43
  -4   2  -1  445.21   18.99
  -4   2   0   16.08    1.12
  -4   2   1  478.30   19.68
  -4   2   5  462.25   25.37
  -4   2   6   58.22    4.73
  -4   2   7   17.89    1.69
  -4   3 -17   15.76    5.88
  -4   3 -16    9.00    5.88
  -4   3 -15   25.81    5.18
  -4   3 -14    -.20    3.32
  -4   3 -13   29.59    4.24
  -4   3 -12    5.02    4.93
  -4   3 -11    8.12    2.68
  -4   3 -10    9.67    2.67
  -4   3  -9   39.94    5.56
  -4   3  -8  210.83   18.00
  -4   3  -7  136.89    8.66
  -4   3  -6  132.48   10.59
  -4   3  -5  185.23   10.34
  -4   3  -4  462.68   21.08
  -4   3  -3   18.92    3.57
  -4   3  -2  243.05   13.41
  -4   3  -1  307.30   17.53
  -4   3   0  416.98   15.11
  -4   3   1  294.12   19.89
  -4   3   4  461.82   24.07
  -4   3   5  162.05    8.66
  -4   3   6  124.55   10.27
  -4   3   7  150.80   11.79
  -4   4 -17    5.02    3.81
  -4   4 -16   13.62    4.43
  -4   4 -15   21.07    5.88
  -4   4 -14   86.68    9.12
  -4   4 -13   27.56   35.28
  -4   4 -12    2.10    4.00
  -4   4 -11   54.46    5.76
  -4   4 -10   44.76    4.01
  -4   4  -9   38.94    5.24
  -4   4  -8   36.00    6.00
  -4   4  -7  279.22   17.04
  -4   4  -6   69.39    5.00
  -4   4  -5   33.76    3.37
  -4   4  -4   50.13    3.12
  -4   4  -3   82.63    5.45
  -4   4  -2  146.65    7.27
  -4   4  -1   87.98    3.19
  -4   4   0  278.56    6.34
  -4   4   1   70.73    9.76
  -4   4   3   94.87    5.84
  -4   4   4   45.56    2.97
  -4   4   5   49.84   15.39
  -4   4   6   82.63    6.91
  -4   4   7  270.27   17.43
  -4   4   8   31.25    5.37
  -4   5 -16    3.61    4.90
  -4   5 -15    9.30    2.99
  -4   5 -14    -.10    5.06
  -4   5 -13   66.91    6.87
  -4   5 -12   19.18    3.42
  -4   5 -11   72.42    6.98
  -4   5 -10   70.90    6.57
  -4   5  -9  182.79   12.71
  -4   5  -8   30.80    2.55
  -4   5  -7   13.91    2.31
  -4   5  -6  105.88    7.20
  -4   5  -5   54.46    4.87
  -4   5  -4  136.19    8.64
  -4   5  -3  240.25    8.99
  -4   5  -2  329.79   12.35
  -4   5  -1   50.55    2.28
  -4   5   0   82.26    3.08
  -4   5   1   49.00    3.36
  -4   5   2  318.27   12.13
  -4   5   3  236.54   14.46
  -4   5   4  150.06    8.09
  -4   5   5   51.55    4.45
  -4   5   6  137.12   30.91
  -4   5   7   16.08    2.49
  -4   5   8   29.92    4.81
  -4   6 -16    2.59    4.09
  -4   6 -15   13.76    3.19
  -4   6 -14   60.68    5.14
  -4   6 -13    2.89    2.21
  -4   6 -12   20.34    3.61
  -4   6 -11   82.45    7.45
  -4   6 -10   67.57    6.58
  -4   6  -9   21.72    3.17
  -4   6  -8   13.47    2.57
  -4   6  -7   72.25    4.93
  -4   6  -6  156.00    7.49
  -4   6  -5  103.23    4.88
  -4   6  -4   81.54    5.42
  -4   6  -3  186.60    8.47
  -4   6  -2   23.43    1.84
  -4   6  -1   65.93    3.09
  -4   6   0   66.10    2.60
  -4   6   1   60.37    2.95
  -4   6   2   16.32    1.54
  -4   6   3  191.27    8.85
  -4   6   4   67.90    5.27
  -4   6   5   91.97    5.56
  -4   6   6  155.50   10.47
  -4   6   7   61.94    5.51
  -4   6   8   11.29    2.02
  -4   7 -15   27.77    5.27
  -4   7 -14   11.09    4.40
  -4   7 -13   34.93    2.72
  -4   7 -12   20.98    3.30
  -4   7 -11    8.18    2.69
  -4   7 -10   46.24    3.94
  -4   7  -9   26.94    3.22
  -4   7  -8   91.78    5.56
  -4   7  -7   55.50    3.28
  -4   7  -6  249.64   12.64
  -4   7  -5  100.80    5.22
  -4   7  -4   58.98    3.07
  -4   7  -3   32.26    2.04
  -4   7  -2  283.59   12.46
  -4   7  -1  210.83    8.42
  -4   7   0   39.06    2.75
  -4   7   1  220.52    8.32
  -4   7   2  280.23   14.06
  -4   7   3   40.96    2.43
  -4   7   4   61.31    3.13
  -4   7   5  102.82    7.71
  -4   7   6  245.55   11.28
  -4   7   7   57.46    4.85
  -4   7   8   85.01    8.85
  -4   8 -15   15.92    4.31
  -4   8 -14    9.00    4.62
  -4   8 -13    5.02    3.32
  -4   8 -12    6.50    1.89
  -4   8 -11   50.27    3.83
  -4   8 -10  148.84    7.56
  -4   8  -9   31.36    3.36
  -4   8  -8   21.90    2.25
  -4   8  -7   84.09    5.14
  -4   8  -6   15.37    1.80
  -4   8  -5   32.60    1.94
  -4   8  -4   24.50    1.78
  -4   8  -3  177.16    7.72
  -4   8  -2   13.47    1.10
  -4   8  -1  127.01    6.31
  -4   8   0    6.81    2.71
  -4   8   1  141.61    7.38
  -4   8   2   15.37    2.12
  -4   8   3  181.98    7.82
  -4   8   4   29.59    2.18
  -4   8   5   25.20    2.01
  -4   8   6   11.90    4.49
  -4   8   7   88.74    7.54
  -4   8   8   15.76    2.06
  -4   9 -14   25.00   17.90
  -4   9 -13    3.80    3.12
  -4   9 -12   39.31    3.76
  -4   9 -11   38.32    3.59
  -4   9 -10   12.11    2.58
  -4   9  -9    6.81    1.83
  -4   9  -8   23.04    2.30
  -4   9  -7   24.80    2.19
  -4   9  -6   52.27    2.75
  -4   9  -5   99.60    6.79
  -4   9  -4    3.10    1.09
  -4   9  -3   25.40    3.12
  -4   9  -2  216.09   15.29
  -4   9  -1  158.76    9.32
  -4   9   0   20.52    3.53
  -4   9   1  135.96    8.86
  -4   9   2  195.72   17.07
  -4   9   3   19.80    3.56
  -4   9   4     .90    1.60
  -4   9   5   96.04    6.86
  -4   9   6   60.22    6.21
  -4   9   7   27.88    4.01
  -4   9   8   21.90    3.37
  -4  10 -13    4.71    4.82
  -4  10 -12   14.21    2.87
  -4  10 -11   23.14    5.00
  -4  10 -10   17.89    3.38
  -4  10  -9    4.58    3.89
  -4  10  -8   88.17    9.39
  -4  10  -7  114.49    8.99
  -4  10  -6    9.12    2.90
  -4  10  -5   73.96    7.22
  -4  10  -4   24.70    8.65
  -4  10  -3   45.56    6.62
  -4  10  -2    1.59    3.00
  -4  10  -1   24.50    3.46
  -4  10   0    7.08    3.62
  -4  10   1   41.22    4.88
  -4  10   2    5.71    4.59
  -4  10   3   38.56    3.97
  -4  10   4   20.07    2.87
  -4  10   5   48.58    5.30
  -4  10   6    9.49    2.40
  -4  10   7  114.28    7.91
  -4  10   8   74.65    7.78
  -4  11 -12   17.64    8.90
  -4  11 -11    2.50    2.69
  -4  11 -10    7.90    7.02
  -4  11  -9   14.29    6.27
  -4  11  -8    4.80    5.39
  -4  11  -7   38.44    6.08
  -4  11  -6    6.81    9.81
  -4  11  -5   21.16    3.68
  -4  11  -4   14.90    3.78
  -4  11  -3  114.06    9.40
  -4  11  -2   67.40    8.05
  -4  11  -1   53.29    7.88
  -4  11   0    6.92    4.21
  -4  11   1   46.24    5.85
  -4  11   2   62.73   11.56
  -4  11   3  107.54    9.75
  -4  11   4   20.79   10.76
  -4  11   5   25.91    4.48
  -4  11   6   -4.49    3.10
  -4  11   7   38.32   15.85
  -4  11   8    4.08    2.50
  -4  12 -10   30.58   14.60
  -4  12  -9   21.07    6.70
  -4  12  -8   54.76   13.02
  -4  12  -7   -2.79    5.38
  -4  12  -6   -4.88    3.01
  -4  12  -5    7.29    6.37
  -4  12  -4   23.23    6.07
  -4  12  -3    9.49    4.68
  -4  12  -2   17.72    8.42
  -4  12  -1   22.18    6.88
  -4  12   0     .00    1.00
  -4  12   1   16.32    5.58
  -4  12   3   14.29   12.10
  -4  12   4   30.91    6.00
  -4  12   5    9.12    3.93
  -4  12   6    4.00    3.28
  -4  12   7    1.49    3.68
  -4  12   8   28.94    6.99
  -4  13  -9   63.52   34.75
  -4  13  -8   11.09    4.73
  -4  13  -7   54.46    9.74
  -4  13  -6    1.00    4.10
  -4  13  -5   11.29   10.89
  -4  13  -4    7.40    5.49
  -4  13  -3   73.96    8.60
  -4  13  -2   -7.18    4.40
  -4  13  -1   80.82    9.53
  -4  13   0    -.59    3.48
  -4  13   1   54.02    8.09
  -4  13   2    4.08    3.68
  -4  13   3   51.70    7.91
  -4  13   4    9.00    6.30
  -4  13   5    3.20    4.69
  -4  13   6   -6.10    5.38
  -4  13   7   36.24    8.19
  -4  13   8    6.20    3.49
  -4  14  -7    2.40    4.99
  -4  14  -6   16.81    7.71
  -4  14  -5    6.92    6.79
  -4  14  -4   95.26   50.56
  -4  14  -3    6.00    7.30
  -4  14  -2  -11.70    4.79
  -4  14  -1     .59    3.68
  -4  14   0    6.40    6.12
  -4  14   1   18.84   15.10
  -4  14   2   -4.80    4.99
  -4  14   3   16.48   10.31
  -4  14   4   23.14    7.12
  -4  14   5    9.92    5.61
  -4  14   6   18.32    6.33
  -4  14   7  125.89   43.31
  -4  15  -1    4.71    8.72
  -4  15   0     .50    3.31
  -4  15   1    8.41    6.03
  -3 -11 -13   13.32    4.31
  -3 -11 -12    2.99    2.39
  -3 -11 -11   86.68    9.68
  -3 -11 -10   11.42    7.71
  -3 -11  -9    7.78    2.79
  -3 -11  -8   69.56   14.34
  -3 -11  -7   75.52    7.65
  -3 -10 -14   29.59    5.55
  -3 -10 -13   17.39    6.59
  -3 -10 -12   39.82   11.86
  -3 -10 -11    3.10    2.71
  -3 -10 -10    8.18    2.29
  -3 -10  -9   93.12   11.00
  -3 -10  -8   48.02    6.65
  -3 -10  -7   19.10    2.27
  -3 -10  -6   90.06    6.45
  -3 -10  -5   22.09    2.26
  -3 -10  -4   33.99    3.38
  -3  -9 -15    -.71    2.40
  -3  -9 -14   34.81    4.72
  -3  -9 -13   51.84    5.62
  -3  -9 -12   11.90    2.00
  -3  -9 -11   87.42    8.79
  -3  -9 -10    4.58    2.10
  -3  -9  -9   59.75    4.64
  -3  -9  -8    3.39    1.40
  -3  -9  -7  139.24   12.27
  -3  -9  -6   27.25    2.61
  -3  -9  -5   33.76    3.37
  -3  -9  -4   62.57    4.75
  -3  -9  -3    4.80    1.40
  -3  -9  -2   11.02    1.13
  -3  -8 -15   15.52    6.30
  -3  -8 -14   45.56   11.74
  -3  -8 -13    4.58    8.99
  -3  -8  -6   19.80    2.94
  -3  -8  -5   26.42    2.16
  -3  -8  -4  232.26   14.02
  -3  -8  -3  145.68    9.90
  -3  -8  -2  209.09   14.17
  -3  -8  -1   43.96    2.25
  -3  -8   0   69.72    3.34
  -3  -8   1   43.43    4.35
  -3  -7 -16   -1.00    2.50
  -3  -7 -15   31.25    3.91
  -3  -7 -13   32.38    4.55
  -3  -7 -12   81.72    7.59
  -3  -7 -11   -1.59    2.49
  -3  -7 -10    1.30    3.60
  -3  -7  -9  117.72   12.59
  -3  -7  -8   73.62    5.15
  -3  -7  -7   32.15    3.97
  -3  -7  -6  159.52   11.11
  -3  -7  -5   91.97    8.06
  -3  -7  -4   47.33    3.85
  -3  -7  -3   77.97    7.06
  -3  -7  -2  192.65   12.49
  -3  -7  -1   60.06    4.03
  -3  -7   0    2.99     .80
  -3  -7   1   54.76    3.85
  -3  -6 -16    -.40    2.09
  -3  -6 -15   11.90    6.42
  -3  -6 -14   34.69    7.42
  -3  -6 -13   15.76    5.72
  -3  -6 -12    8.58    3.11
  -3  -6 -11   31.14   13.06
  -3  -6 -10  105.27    9.64
  -3  -6  -9   43.96    3.45
  -3  -6  -8   40.45    3.82
  -3  -6  -7  203.92   12.00
  -3  -6  -6   85.19    5.72
  -3  -6  -5   72.42    5.62
  -3  -6  -4  152.52   16.55
  -3  -6  -3  366.34   24.50
  -3  -6  -2    3.50    1.80
  -3  -6  -1  103.84    6.32
  -3  -6   0  442.26   26.50
  -3  -6   1  100.20   10.81
  -3  -5 -17   19.10    5.68
  -3  -5 -16    2.19    2.49
  -3  -5 -15    7.29    8.80
  -3  -5 -14   47.47    6.75
  -3  -5 -13    2.79    3.31
  -3  -5 -12   16.16    2.73
  -3  -5 -11   23.23    3.66
  -3  -5 -10  118.37   11.32
  -3  -5  -9  128.37   11.10
  -3  -5  -8  105.06    6.36
  -3  -5  -7   47.06    3.98
  -3  -5  -6   85.75    7.22
  -3  -5  -5  384.16   27.83
  -3  -5  -4   60.84    4.84
  -3  -5  -3   14.06    2.10
  -3  -5  -2  587.09   30.05
  -3  -5  -1   28.30    2.34
  -3  -5   0  516.65   28.64
  -3  -5   1   25.30    4.23
  -3  -5   2  621.01   49.34
  -3  -4 -17    3.31    8.12
  -3  -4 -16    9.99    4.68
  -3  -4 -15   35.76    5.02
  -3  -4 -14   10.50    3.82
  -3  -4 -13    6.40    2.48
  -3  -4 -12  117.94   20.85
  -3  -4 -11   47.89    6.09
  -3  -4 -10    9.99    2.53
  -3  -4  -9   55.20    4.76
  -3  -4  -8  163.58   13.56
  -3  -4  -7  234.40   15.62
  -3  -4  -6   66.42    5.22
  -3  -4  -5  671.85   35.77
  -3  -4  -4  152.28    7.40
  -3  -4  -3  192.38   14.42
  -3  -4  -2   44.76    3.35
  -3  -4  -1  576.96   28.34
  -3  -4   0  453.69   27.26
  -3  -4   2   46.24    6.39
  -3  -4   3  184.14   18.73
  -3  -3 -18   -4.20    3.89
  -3  -3 -17   19.27    4.92
  -3  -3 -16   25.60    5.46
  -3  -3 -15   25.30    4.53
  -3  -3 -14   16.56    4.31
  -3  -3 -13   29.92    3.94
  -3  -3 -12   25.40    5.44
  -3  -3 -11   24.90    3.29
  -3  -3 -10  284.60   21.26
  -3  -3  -9   11.90    2.07
  -3  -3  -8  120.56    9.66
  -3  -3  -7   58.52    5.97
  -3  -3  -6  241.80   16.79
  -3  -3  -5   41.73    3.49
  -3  -3  -4  531.30   28.12
  -3  -3  -3  236.24   12.91
  -3  -3  -2  349.32   23.18
  -3  -3  -1  151.54    8.62
  -3  -2 -18    3.61    5.70
  -3  -2 -17    3.10    5.60
  -3  -2 -16   20.98    6.23
  -3  -2 -15   33.87    8.26
  -3  -2 -14    8.18    3.49
  -3  -2 -13   20.07    3.85
  -3  -2 -12   72.08   10.19
  -3  -2 -11   45.43    4.45
  -3  -2 -10   43.43    4.09
  -3  -2  -9    7.51    2.79
  -3  -2  -8  200.79   11.05
  -3  -2  -7   34.11    2.80
  -3  -2  -6   81.72    6.87
  -3  -2  -5  178.76    9.36
  -3  -2  -4  164.87    8.73
  -3  -2  -3  256.32   11.53
  -3  -2  -2  231.65   18.87
  -3  -2  -1 1289.53   71.82
  -3  -2   4  162.31   11.21
  -3  -2   5  179.02   12.04
  -3  -1 -18   25.60    6.07
  -3  -1 -17   13.69    5.18
  -3  -1 -16   -4.41    3.91
  -3  -1 -15   37.82   13.53
  -3  -1 -14   41.47    5.15
  -3  -1 -13   78.85    8.88
  -3  -1 -12   55.06    5.05
  -3  -1 -11  111.51    7.81
  -3  -1 -10   62.88    5.39
  -3  -1  -9  134.79   13.00
  -3  -1  -8  128.60    6.35
  -3  -1  -7   81.00    5.76
  -3  -1  -6  417.79   25.35
  -3  -1  -5   37.45    2.82
  -3  -1  -4   42.77    3.14
  -3  -1  -3  219.04   18.06
  -3  -1  -2  164.61   10.52
  -3  -1  -1  534.07   32.82
  -3  -1   3  196.56   18.79
  -3  -1   4   33.06    2.76
  -3  -1   5   39.56    1.89
  -3   0 -18    6.50    5.51
  -3   0 -17   -6.71    3.11
  -3   0 -16   84.27   19.83
  -3   0 -15    7.51    3.12
  -3   0 -14   18.58    8.96
  -3   0 -13    4.49    6.28
  -3   0 -12   57.76    5.93
  -3   0 -11   47.47    3.72
  -3   0 -10    7.29    1.78
  -3   0  -9   95.26    7.61
  -3   0  -8   72.25    5.44
  -3   0  -7   33.76    2.67
  -3   0  -6   30.80    2.33
  -3   0  -5    4.28     .29
  -3   0  -4  268.63   10.82
  -3   0  -3 1314.79   53.66
  -3   0  -2  440.58   20.15
  -3   0  -1  524.41   28.85
  -3   0   1  531.30   44.26
  -3   0   2  437.23   24.26
  -3   0   4  283.25   15.82
  -3   0   5    4.49     .38
  -3   0  10    7.78    1.28
  -3   0  11   47.61    3.86
  -3   1 -18   18.32   17.38
  -3   1 -17    5.29    3.17
  -3   1 -16   -3.69    3.11
  -3   1 -15   32.49    6.50
  -3   1 -14   56.40    5.26
  -3   1 -13   76.56    7.17
  -3   1 -12   57.46    5.46
  -3   1 -11  111.94    8.46
  -3   1 -10   62.09    4.57
  -3   1  -9  124.10    6.02
  -3   1  -8  143.28    4.31
  -3   1  -7   84.64    4.23
  -3   1  -6  398.40   18.36
  -3   1  -5   34.69    2.83
  -3   1  -4   32.26    2.61
  -3   1  -3  205.35   11.18
  -3   1  -2  177.69    8.00
  -3   1  -1  540.56   25.11
  -3   1   0   36.84    2.19
  -3   1   1  585.64   38.72
  -3   1   5   34.93    1.89
  -3   1   6  445.21   15.19
  -3   1   7   99.40    4.99
  -3   1   8  171.87   27.79
  -3   1   9  131.10    7.10
  -3   1  10   66.75    4.09
  -3   1  11  111.30    9.07
  -3   1  12   54.61    5.32
  -3   1  13   87.42    7.48
  -3   1  14   42.12    4.28
  -3   2 -17    9.49    5.11
  -3   2 -16   16.00    5.28
  -3   2 -15   28.84    5.16
  -3   2 -14    9.99    3.48
  -3   2 -13   18.32    3.34
  -3   2 -12   61.94    6.45
  -3   2 -11   36.12    3.25
  -3   2 -10   42.12    1.95
  -3   2  -9    8.41     .99
  -3   2  -8  196.28   10.09
  -3   2  -7   31.70    2.93
  -3   2  -6   77.44    4.75
  -3   2  -5  177.96    8.80
  -3   2  -4  187.69   20.82
  -3   2  -3  284.60   13.50
  -3   2  -2  229.83   13.95
  -3   2  -1 1298.88   61.27
  -3   2   0  157.50    7.28
  -3   2   4  148.60    6.09
  -3   2   5  179.56    7.24
  -3   2   6   77.26    3.34
  -3   2   7   37.70    1.96
  -3   2   8  210.83    8.42
  -3   2   9    3.20    1.11
  -3   2  10   36.24    2.77
  -3   2  11   32.95    4.13
  -3   2  12   52.56    4.93
  -3   2  13   16.00    2.40
  -3   2  14    8.58    3.52
  -3   3 -17   23.43    9.20
  -3   3 -16   24.60    4.96
  -3   3 -15    7.18    3.38
  -3   3 -14    7.78    3.68
  -3   3 -13   27.35    4.50
  -3   3 -12   28.30    4.26
  -3   3 -11   15.52    4.10
  -3   3 -10  286.29   17.26
  -3   3  -9   19.89    2.68
  -3   3  -8  109.41    7.32
  -3   3  -7   55.65    3.88
  -3   3  -6  223.80   11.97
  -3   3  -5   45.70    3.65
  -3   3  -4  535.92   30.56
  -3   3  -3  243.67   18.42
  -3   3  -2  366.72   18.77
  -3   3  -1  171.35    7.59
  -3   3   0   96.63    3.93
  -3   3   3  239.01   12.06
  -3   3   4  532.22   18.46
  -3   3   5   47.06    2.06
  -3   3   6  225.60    7.81
  -3   3   7   60.84    2.34
  -3   3   8  113.21    5.53
  -3   3   9   23.04    2.50
  -3   3  10  275.89   21.26
  -3   3  11   15.76    2.38
  -3   3  12   32.38    5.92
  -3   3  13   42.25    5.46
  -3   4 -17    -.71    6.52
  -3   4 -16    2.50    4.20
  -3   4 -15   50.27   47.08
  -3   4 -14   24.70    4.67
  -3   4 -13   16.81    4.92
  -3   4 -12   77.97    7.95
  -3   4 -11   40.45    3.18
  -3   4 -10   17.72    4.21
  -3   4  -9   68.39    8.10
  -3   4  -8  172.92    8.15
  -3   4  -7  251.86   15.24
  -3   4  -6   64.96    3.71
  -3   4  -5  656.38   41.50
  -3   4  -4  144.96    6.74
  -3   4  -3  192.93   22.22
  -3   4  -2   51.27    2.43
  -3   4  -1  606.14   22.16
  -3   4   0  455.40   13.66
  -3   4   1  596.34   15.14
  -3   4   2   37.95    3.33
  -3   4   3  187.69    9.32
  -3   4   4  155.00    6.72
  -3   4   5  658.44   24.63
  -3   4   6   61.94    2.68
  -3   4   7  243.98   10.31
  -3   4   8  164.10    8.71
  -3   4   9   52.42    3.33
  -3   4  10    5.71    1.39
  -3   4  11   36.24    3.25
  -3   5 -17    8.58    3.11
  -3   5 -16   12.82    4.01
  -3   5 -15    1.49    3.39
  -3   5 -14   39.94    4.68
  -3   5 -13    3.10    2.18
  -3   5 -12   18.66    3.11
  -3   5 -11   23.33    4.06
  -3   5 -10  104.86    7.99
  -3   5  -9  124.32    7.58
  -3   5  -8  110.88    6.74
  -3   5  -7   57.46    4.09
  -3   5  -6   79.39    4.63
  -3   5  -5  366.72   19.53
  -3   5  -4   62.88    3.81
  -3   5  -3   15.52    1.10
  -3   5  -2  626.50   24.03
  -3   5  -1   25.91    1.53
  -3   5   0  516.65   17.27
  -3   5   1   25.00     .90
  -3   5   2  590.00   15.06
  -3   5   3   12.39     .63
  -3   5   4   51.55    3.30
  -3   5   5  366.34   13.40
  -3   5   6   74.30    3.97
  -3   5   7   50.55    2.42
  -3   5   8  110.88    5.26
  -3   5   9  124.99    7.16
  -3   6 -16   10.82    4.08
  -3   6 -15    4.88    3.09
  -3   6 -14   21.34    3.70
  -3   6 -13   12.32    3.23
  -3   6 -12    8.70    1.89
  -3   6 -11   34.46    2.58
  -3   6 -10  101.20    5.63
  -3   6  -9   49.00    3.36
  -3   6  -8   43.03    2.62
  -3   6  -7  184.14    8.14
  -3   6  -6   77.26    3.34
  -3   6  -5   69.39    3.83
  -3   6  -4  131.10    5.72
  -3   6  -3  372.10   14.27
  -3   6  -2    2.50     .79
  -3   6  -1  102.41    3.44
  -3   6   0  446.90   14.38
  -3   6   1  103.63    3.26
  -3   6   2    4.41     .50
  -3   6   3  350.06   13.85
  -3   6   4  130.19    4.11
  -3   6   5   64.32    4.01
  -3   6   6   85.01    4.06
  -3   6   7  186.05   11.73
  -3   6   8   36.36    2.65
  -3   6   9   45.16    3.76
  -3   7 -16   -2.99    2.80
  -3   7 -15   26.63    3.82
  -3   7 -14   23.81    3.51
  -3   7 -13   33.76    3.37
  -3   7 -12   76.74    4.56
  -3   7 -11    3.80    2.42
  -3   7 -10    2.10    1.31
  -3   7  -9  115.78    6.03
  -3   7  -8   74.13    3.96
  -3   7  -7   30.14    2.31
  -3   7  -6  161.80    6.61
  -3   7  -5   82.63    3.27
  -3   7  -4   38.81    1.99
  -3   7  -3   62.57    3.01
  -3   7  -2  182.25    5.94
  -3   7  -1   50.55    2.42
  -3   7   0    4.08     .81
  -3   7   1   53.44    2.34
  -3   7   2  172.40    5.25
  -3   7   3   62.73    2.38
  -3   7   4   44.89    2.68
  -3   7   5   79.39    4.63
  -3   7   6  140.19    9.71
  -3   7   7   30.58    3.87
  -3   7   8   64.32    6.74
  -3   7   9  116.21   11.21
  -3   8 -15    8.01    4.08
  -3   8 -14   27.56    4.30
  -3   8 -13    4.49    2.50
  -3   8 -12   41.34    3.73
  -3   8 -11   13.40    2.27
  -3   8 -10   52.42    4.05
  -3   8  -9    1.30    1.09
  -3   8  -8   35.88    2.28
  -3   8  -7   25.50    1.82
  -3   8  -6   15.76    1.51
  -3   8  -5   24.60    1.98
  -3   8  -4  220.82    8.92
  -3   8  -3  131.33    5.04
  -3   8  -2  197.96    7.03
  -3   8  -1   42.25    2.21
  -3   8   0   66.42    2.93
  -3   8   1   39.06    2.25
  -3   8   2  191.82    8.31
  -3   8   3  139.00    7.31
  -3   8   4  212.58   10.50
  -3   8   5   22.66    3.14
  -3   8   6    7.62    2.93
  -3   8   7   25.81    2.64
  -3   8   8   39.56    3.77
  -3   8   9    6.60    3.19
  -3   9 -15     .90    7.51
  -3   9 -14   24.70    4.77
  -3   9 -13   50.41    5.54
  -3   9 -12    7.67    2.60
  -3   9 -11   62.25    4.89
  -3   9 -10    7.78    1.90
  -3   9  -9   54.32    3.54
  -3   9  -8    1.69    1.30
  -3   9  -7  131.33    5.50
  -3   9  -6   27.25    1.88
  -3   9  -5   26.11    2.04
  -3   9  -4   57.76    4.26
  -3   9  -3    7.78    1.28
  -3   9  -2   11.70    1.71
  -3   9  -1   46.79    2.74
  -3   9   0  135.49    6.75
  -3   9   1   51.12    3.15
  -3   9   2   13.10    2.39
  -3   9   3    3.20    2.90
  -3   9   4   57.00    5.13
  -3   9   5   23.43    3.68
  -3   9   6   25.81    3.96
  -3   9   7  123.88    8.90
  -3   9   8    6.40    2.58
  -3   9   9   43.30    4.34
  -3  10 -14   26.73    9.00
  -3  10 -13    1.59    4.59
  -3  10 -12   11.29    3.49
  -3  10 -11    4.08    2.38
  -3  10 -10    6.81    3.08
  -3  10  -9   96.83    5.90
  -3  10  -8   45.70    4.87
  -3  10  -7   12.39    1.97
  -3  10  -6   87.42    5.24
  -3  10  -5   19.18    2.37
  -3  10  -4   31.36    4.59
  -3  10  -3    4.28    1.41
  -3  10  -2  178.76   10.43
  -3  10  -1   35.05    2.60
  -3  10   0   20.61    2.81
  -3  10   1   53.44    8.63
  -3  10   2  205.64   14.63
  -3  10   3    5.71    2.39
  -3  10   4   35.16    4.63
  -3  10   5   15.76    3.02
  -3  10   6   80.64    6.65
  -3  10   7   18.06    2.38
  -3  10   8   38.69    4.98
  -3  10   9   66.10    6.50
  -3  11 -13   12.53    6.02
  -3  11 -12    6.10    4.89
  -3  11 -11   87.24    9.15
  -3  11 -10    2.79    3.11
  -3  11  -9   10.30    2.18
  -3  11  -8   57.91    6.24
  -3  11  -7   70.39    6.54
  -3  11  -6    7.08    1.92
  -3  11  -5   24.60    3.97
  -3  11  -4  149.08   10.50
  -3  11  -3   17.64    2.27
  -3  11  -2   14.98    5.26
  -3  11  -1    2.69    2.10
  -3  11   0   73.96    6.02
  -3  11   1    5.71    4.30
  -3  11   2    4.80    2.80
  -3  11   3   23.91    3.52
  -3  11   4  157.00   15.29
  -3  11   5   20.88    3.93
  -3  11   6   10.69    2.68
  -3  11   7   79.39    6.95
  -3  11   9    6.40    3.49
  -3  12 -11   -3.31    4.22
  -3  12 -10    8.82    3.80
  -3  12  -9   12.67    3.77
  -3  12  -8    7.51    2.52
  -3  12  -7    1.69    2.89
  -3  12  -6   88.92    9.43
  -3  12  -5   52.85    7.27
  -3  12  -4   51.12    5.72
  -3  12  -3   24.60    3.87
  -3  12  -2   34.93    6.03
  -3  12  -1   54.17    7.80
  -3  12   0   74.30    7.07
  -3  12   1   54.91    5.34
  -3  12   2   39.06    5.50
  -3  12   3   32.26    4.09
  -3  12   4   42.64    5.62
  -3  12   5   43.03    5.12
  -3  12   6   90.25   14.06
  -3  12   7   -1.10    3.21
  -3  12   8    8.58    3.11
  -3  12   9   16.73    4.42
  -3  13 -10     .59    6.16
  -3  13  -9    5.71    3.92
  -3  13  -8   41.60    8.38
  -3  13  -7   33.76   11.16
  -3  13  -6   20.43   13.38
  -3  13  -5    2.10    3.31
  -3  13  -4   36.00    6.72
  -3  13  -3   43.03    6.17
  -3  13  -2   11.63    7.02
  -3  13  -1    3.88    4.69
  -3  13   0   54.17    6.48
  -3  13   1   13.91    5.30
  -3  13   2    9.99    5.31
  -3  13   3   54.61   11.97
  -3  13   4   46.10    6.25
  -3  13   5   24.50    8.41
  -3  13   6    8.12    5.19
  -3  13   7   12.89    3.30
  -3  13   8   37.33    8.68
  -3  13   9    4.20    4.39
  -3  14  -8   51.55   27.71
  -3  14  -7     .20    5.94
  -3  14  -6   24.50    7.42
  -3  14  -5   16.32    5.98
  -3  14  -4    7.90    5.79
  -3  14  -3   19.27    8.60
  -3  14  -2   65.77    9.25
  -3  14  -1   23.72    4.97
  -3  14   0   24.90    5.59
  -3  14   1   31.92    5.99
  -3  14   2   60.53    9.34
  -3  14   3   13.10    5.21
  -3  14   4    5.38    5.20
  -3  14   5   17.39    4.59
  -3  14   6    1.80    3.81
  -3  14   7   13.47    5.73
  -3  14   8   -2.19    5.48
  -3  15  -5    4.28    3.89
  -3  15  -4   16.73    5.73
  -3  15  -3   12.60    7.17
  -3  15  -2   -4.20    5.08
  -3  15  -1   27.98   15.45
  -3  15   0   15.68    6.49
  -3  15   1    8.53    4.03
  -3  15   2    3.39    3.39
  -3  15   3    3.31    4.62
  -3  15   4   14.59    6.80
  -3  15   5   -1.10    2.90
  -2 -12 -12   12.89    6.68
  -2 -12 -11    4.88    4.99
  -2 -12 -10   52.71    5.08
  -2 -11 -13   39.82   32.56
  -2 -11 -12   23.33   16.33
  -2 -11 -11    5.81    3.71
  -2 -11 -10   62.88    7.30
  -2 -11  -9   35.16    3.44
  -2 -11  -8    9.12    2.42
  -2 -11  -7   39.44    4.77
  -2 -11  -6   46.92    4.80
  -2 -10 -14   32.83    8.48
  -2 -10 -13   14.36    3.11
  -2 -10 -12   38.69   11.94
  -2 -10 -11   93.12   95.15
  -2 -10 -10   75.00    7.97
  -2 -10  -9   51.70    5.18
  -2 -10  -8    3.10    2.60
  -2 -10  -7   60.37    5.44
  -2 -10  -6   68.72   13.93
  -2 -10  -5  118.37   10.88
  -2 -10  -4   26.94    3.84
  -2 -10  -3   63.20    5.72
  -2  -9 -15    6.81    4.38
  -2  -9 -14   12.32    4.70
  -2  -9 -13    4.00    4.08
  -2  -9 -12   68.89    7.64
  -2  -9 -11   18.92    3.39
  -2  -9 -10   47.06    4.25
  -2  -9  -9   59.75    3.71
  -2  -9  -8   47.20    3.85
  -2  -9  -7   33.18    3.69
  -2  -9  -6   91.58    7.66
  -2  -9  -5  151.04   11.55
  -2  -9  -4   91.97    5.37
  -2  -9  -3  163.84   14.59
  -2  -9  -2   35.28    2.97
  -2  -9  -1   92.93    6.36
  -2  -8 -16   13.03    4.62
  -2  -8 -15     .30    1.90
  -2  -8 -14   18.66    4.06
  -2  -8 -13   18.58    3.10
  -2  -8 -12   54.02    5.29
  -2  -8 -11    2.19    1.39
  -2  -8 -10   51.98    4.18
  -2  -8  -9  117.94    6.95
  -2  -8  -8  165.89   12.36
  -2  -8  -7   14.67    1.38
  -2  -8  -6   54.76    2.66
  -2  -8  -5  165.89    8.50
  -2  -8  -4  157.75   11.30
  -2  -8  -3  312.58   20.86
  -2  -8  -2   13.99    1.27
  -2  -8  -1  130.64   12.12
  -2  -8   0   51.12    1.86
  -2  -8   1  112.78    6.80
  -2  -7 -16   11.70    9.17
  -2  -7 -15   35.64    4.42
  -2  -7 -14    4.28    1.99
  -2  -7 -13   96.43    7.86
  -2  -7 -12   22.18    2.83
  -2  -7 -11   21.90    4.02
  -2  -7 -10   16.16    2.57
  -2  -7  -9    1.21    1.21
  -2  -7  -8  207.94   14.71
  -2  -7  -7  119.25    9.39
  -2  -7  -6    8.41   14.50
  -2  -7  -5  107.95    8.52
  -2  -7  -4  216.38   15.89
  -2  -7  -3  134.79    7.89
  -2  -7  -2   55.06    2.08
  -2  -7  -1  505.80   19.34
  -2  -7   0  126.34    5.17
  -2  -6 -17   10.63    5.02
  -2  -6 -16   30.25    5.83
  -2  -6 -15   13.76    2.52
  -2  -6 -14    -.50    1.41
  -2  -6 -13   76.91   11.05
  -2  -6 -12   69.89    6.35
  -2  -6 -11  116.86    7.35
  -2  -6 -10    3.10    2.11
  -2  -6  -9  173.98   10.29
  -2  -6  -8  175.30    8.74
  -2  -6  -7   91.39    6.31
  -2  -6  -6  104.24    7.15
  -2  -6  -5  223.50   14.65
  -2  -6  -4  462.68   40.44
  -2  -6  -3   20.61    2.81
  -2  -6  -2  102.82   12.57
  -2  -6  -1  362.14   36.92
  -2  -6   0   56.25    2.85
  -2  -5 -17    8.01    3.68
  -2  -5 -16   59.44    4.78
  -2  -5 -15   17.72    4.13
  -2  -5 -14   27.77    6.22
  -2  -5 -13   43.69    4.49
  -2  -5 -12   14.59    5.50
  -2  -5 -11  106.50    8.05
  -2  -5 -10   44.36    4.66
  -2  -5  -9  155.75    9.24
  -2  -5  -8   41.60    3.48
  -2  -5  -7   73.96    5.16
  -2  -5  -6   39.44    3.14
  -2  -5  -5   91.97    7.67
  -2  -5  -4  507.15   27.02
  -2  -5  -3   70.06    5.52
  -2  -5  -2  242.11   15.56
  -2  -5  -1   90.06    5.69
  -2  -5   0  333.43   15.70
  -2  -5   1   91.78    2.87
  -2  -4 -18    1.49    4.98
  -2  -4 -17    2.50    3.10
  -2  -4 -16   54.32    6.63
  -2  -4 -15   35.05    6.04
  -2  -4 -14   37.21    5.25
  -2  -4 -13   27.25    3.13
  -2  -4 -12   83.72    7.69
  -2  -4 -11   94.09    7.57
  -2  -4 -10    6.20    1.79
  -2  -4  -9  137.59   10.09
  -2  -4  -8  164.61    8.21
  -2  -4  -7  221.71   14.59
  -2  -4  -6  299.64   16.96
  -2  -4  -5   90.06    5.88
  -2  -4  -4  139.71    9.69
  -2  -4  -3  162.56    9.44
  -2  -4  -2  130.19   10.27
  -2  -4  -1  536.39   33.35
  -2  -4   1  545.69   23.83
  -2  -3 -18    5.02    3.58
  -2  -3 -17   28.62    7.60
  -2  -3 -16   37.45    5.75
  -2  -3 -15   76.21   12.75
  -2  -3 -14   27.56    6.19
  -2  -3 -13   41.86    4.66
  -2  -3 -12   73.10    6.84
  -2  -3 -11  132.71   13.59
  -2  -3 -10   35.28    4.16
  -2  -3  -9  111.09    8.01
  -2  -3  -8   35.40    3.81
  -2  -3  -7  156.50   12.01
  -2  -3  -6  381.03   19.91
  -2  -3  -5  235.93   13.21
  -2  -3  -4   59.29    4.47
  -2  -3  -3  276.89   15.64
  -2  -3  -2  468.29   20.77
  -2  -3  -1  470.46   27.76
  -2  -3   1  483.12   17.14
  -2  -3   2  466.99   26.36
  -2  -2 -18    3.61    2.09
  -2  -2 -17   23.23    5.21
  -2  -2 -16   17.39    4.50
  -2  -2 -15   22.09   10.15
  -2  -2 -14    1.39    3.28
  -2  -2 -13    6.92    4.52
  -2  -2 -12   59.91    5.42
  -2  -2 -11  110.67   19.57
  -2  -2 -10   73.44    5.66
  -2  -2  -9  135.96    8.86
  -2  -2  -8   52.56    3.92
  -2  -2  -7  227.41   15.08
  -2  -2  -6  521.21   31.96
  -2  -2  -5  165.12   11.31
  -2  -2  -4   74.65    3.63
  -2  -2  -3  961.00   56.42
  -2  -2  -2  964.72   52.18
  -2  -2  -1  147.14    8.01
  -2  -2   0  306.25   36.40
  -2  -2   1  164.87    7.19
  -2  -2   2  996.66   42.30
  -2  -2   3  977.19   47.52
  -2  -2   4   67.90    4.61
  -2  -2  10   93.51    5.22
  -2  -2  11  106.71    6.40
  -2  -1 -18    4.88    5.30
  -2  -1 -17   13.32    3.58
  -2  -1 -16    7.40    3.70
  -2  -1 -15   13.03    4.12
  -2  -1 -14   15.29    3.68
  -2  -1 -13   58.83   14.88
  -2  -1 -12   30.69    4.32
  -2  -1 -11  160.78   13.69
  -2  -1 -10  143.76   10.55
  -2  -1  -9    8.41    2.03
  -2  -1  -8  153.26    9.90
  -2  -1  -7  718.78   46.65
  -2  -1  -6  377.14   20.97
  -2  -1  -5  293.44   17.82
  -2  -1  -4   83.36    5.48
  -2  -1  -3  574.56   32.12
  -2  -1  -2 2113.24  159.98
  -2  -1  -1    5.11    1.08
  -2  -1   0   48.44    4.73
  -2  -1   1    4.80     .61
  -2  -1   3  617.03   51.17
  -2  -1   4   87.80    5.62
  -2  -1   6  355.32   19.98
  -2  -1   7  748.57   49.25
  -2  -1   8  147.62    8.75
  -2  -1   9    4.71    1.09
  -2  -1  10  139.00    7.31
  -2  -1  11  168.74    8.05
  -2  -1  12   19.01    2.70
  -2  -1  13   13.62    2.58
  -2  -1  14   21.53    3.43
  -2  -1  15   16.00    3.28
  -2   0 -18   22.09   13.44
  -2   0 -17     .50    4.22
  -2   0 -16    8.82    3.92
  -2   0 -15   28.30    5.75
  -2   0 -14   27.88    3.27
  -2   0 -13   19.01    3.84
  -2   0 -12  142.80   13.15
  -2   0 -11   74.13    5.17
  -2   0 -10   24.30    1.58
  -2   0  -9   13.62    1.03
  -2   0  -8  170.56    5.49
  -2   0  -7  870.25   36.58
  -2   0  -6   31.58    1.57
  -2   0  -5    2.10     .20
  -2   0  -4   40.20    1.27
  -2   0  -3  787.36   43.77
  -2   0  -2 1936.88  130.27
  -2   0  -1   74.65    2.25
  -2   0   0  590.00   26.72
  -2   0   1   72.76    3.07
  -2   0   2 2218.41  127.17
  -2   0   3  877.94   40.30
  -2   0   4   37.70    1.23
  -2   0   5     .30     .70
  -2   0   6   29.81    2.40
  -2   0   7  845.65   53.51
  -2   0   8  176.36   18.59
  -2   0   9   10.69    1.70
  -2   0  10   22.94    1.92
  -2   0  11   69.22    5.82
  -2   0  12  121.22    9.91
  -2   0  13   17.22    2.74
  -2   0  14   31.47    4.04
  -2   0  15   28.09    3.82
  -2   0  16   15.37    3.76
  -2   0  17    6.10    5.88
  -2   1 -18     .71    3.21
  -2   1 -17   14.82    5.77
  -2   1 -16   24.21    6.00
  -2   1 -15   15.76    6.51
  -2   1 -14   17.31    4.08
  -2   1 -13   22.00    4.41
  -2   1 -12   18.32    3.94
  -2   1 -11  164.61    8.98
  -2   1 -10  154.01    7.20
  -2   1  -9    3.50     .60
  -2   1  -8  157.00    7.02
  -2   1  -7  715.03   27.27
  -2   1  -6  353.44   14.66
  -2   1  -5  294.47   13.73
  -2   1  -4   83.54    3.47
  -2   1  -3  546.16   27.58
  -2   1  -2 2148.32  126.07
  -2   1  -1    6.10     .40
  -2   1   0   50.41    3.27
  -2   1   1    6.20     .50
  -2   1   3  576.48   32.65
  -2   1   4   85.01    2.95
  -2   1   5  319.34   12.51
  -2   1   6  388.88   13.80
  -2   1   7  773.95   25.04
  -2   1   8  160.78    7.61
  -2   1   9    4.00    1.00
  -2   1  10  146.65    8.23
  -2   1  11  179.29   10.18
  -2   1  12   22.47    2.37
  -2   1  13   26.52    3.50
  -2   1  14   19.54    3.98
  -2   1  15   11.22    3.42
  -2   1  16   13.91    3.28
  -2   1  17   19.10    5.51
  -2   1  18    3.69    4.30
  -2   2 -18    4.80    6.00
  -2   2 -17   26.63    6.19
  -2   2 -16   13.91    5.67
  -2   2 -15   31.36    5.49
  -2   2 -14    -.30    2.41
  -2   2 -13    4.00    2.60
  -2   2 -12   60.53    6.22
  -2   2 -11  114.92    6.86
  -2   2 -10   85.93    4.26
  -2   2  -9  138.77    6.13
  -2   2  -8   52.56    3.34
  -2   2  -7  231.34    9.73
  -2   2  -6  487.08   19.86
  -2   2  -5  175.56   10.86
  -2   2  -4   72.25    3.57
  -2   2  -3  986.59   65.33
  -2   2  -2  936.36   39.17
  -2   2  -1  162.31    8.41
  -2   2   0  329.79   13.08
  -2   2   2  964.10   45.95
  -2   2   3  966.59   44.15
  -2   2   4   71.74    2.88
  -2   2   5  173.19    5.79
  -2   2   6  523.04   18.75
  -2   2   7  243.36    9.05
  -2   2   8   56.70    2.86
  -2   2   9  140.66    5.46
  -2   2  10   77.26    4.04
  -2   2  11  104.04    6.73
  -2   2  12   60.84    5.15
  -2   2  13    1.21    1.21
  -2   2  14   -1.69    2.00
  -2   2  15   20.07    3.67
  -2   2  16    9.92    4.28
  -2   2  17   18.66    3.63
  -2   3 -18    9.18    6.48
  -2   3 -17   12.60    3.62
  -2   3 -16   22.28    3.49
  -2   3 -15   71.91    6.78
  -2   3 -14   27.35    4.60
  -2   3 -13   24.70    3.38
  -2   3 -12   70.22    5.70
  -2   3 -11  154.50   10.44
  -2   3 -10   36.84    2.31
  -2   3  -9  110.88    7.37
  -2   3  -8   39.69    3.15
  -2   3  -7  153.76    9.42
  -2   3  -6  413.72   26.04
  -2   3  -5  235.93   13.21
  -2   3  -4   55.95    4.94
  -2   3  -3  283.59   15.49
  -2   3  -2  447.32   33.84
  -2   3  -1  469.59   16.04
  -2   3   0  270.93   10.86
  -2   3   1  474.80   18.30
  -2   3   2  484.44   16.29
  -2   3   3  293.09   16.78
  -2   3   4   56.70    2.26
  -2   3   5  222.61    8.06
  -2   3   6  405.22   13.69
  -2   3   7  167.96    7.00
  -2   3   8   38.44    1.86
  -2   3   9  113.85    5.34
  -2   3  10   33.18    3.46
  -2   3  11  151.29   12.05
  -2   3  12   70.22    6.54
  -2   3  13   33.52    4.98
  -2   3  14   25.00    6.30
  -2   3  15   58.22    8.09
  -2   3  16   43.30   17.24
  -2   4 -18   12.82    6.37
  -2   4 -17    1.90    3.09
  -2   4 -16   52.13    6.50
  -2   4 -15   33.18    4.95
  -2   4 -14   38.19    6.55
  -2   4 -13   36.48   18.24
  -2   4 -12   89.68    4.92
  -2   4 -11   87.05    4.85
  -2   4 -10     .79    1.30
  -2   4  -9  125.89    6.73
  -2   4  -8  190.99    9.40
  -2   4  -7  198.81   10.15
  -2   4  -6  270.60   13.16
  -2   4  -5   87.24    5.98
  -2   4  -4  128.14    8.15
  -2   4  -3  168.22    6.49
  -2   4  -2  135.72    6.06
  -2   4  -1  541.03   19.07
  -2   4   0  894.61   26.32
  -2   4   1  526.24   14.68
  -2   4   2  126.11    5.17
  -2   4   3  164.10    6.15
  -2   4   4  128.60    4.31
  -2   4   5   89.87    3.98
  -2   4   6  273.90    8.94
  -2   4   7  222.61    8.36
  -2   4   8  178.22    7.48
  -2   4   9  148.35    6.33
  -2   4  10    2.19    1.01
  -2   4  11   82.63    5.82
  -2   4  12   86.86   13.42
  -2   4  13   20.70    3.37
  -2   4  14   49.98    4.24
  -2   4  15   28.62    6.74
  -2   5 -17   10.63    4.11
  -2   5 -16   65.45    5.99
  -2   5 -15   22.00    3.19
  -2   5 -14   24.21    3.35
  -2   5 -13   39.56    4.40
  -2   5 -12   15.52    1.81
  -2   5 -11  103.02    8.93
  -2   5 -10   45.02    4.97
  -2   5  -9  152.77    9.15
  -2   5  -8   38.56    3.35
  -2   5  -7   76.56    4.20
  -2   5  -6   44.09    3.85
  -2   5  -5   93.51    4.25
  -2   5  -4  522.58   17.83
  -2   5  -3   69.06    4.49
  -2   5  -2  246.80    8.48
  -2   5  -1   87.24    2.99
  -2   5   0  348.57    9.34
  -2   5   1   95.65    3.33
  -2   5   2  229.52    8.79
  -2   5   3   68.39    3.14
  -2   5   4  484.88   15.85
  -2   5   5   95.06    3.90
  -2   5   6   49.14    2.24
  -2   5   7   72.93    3.07
  -2   5   8   40.70    2.04
  -2   5   9  140.19    8.76
  -2   5  10   40.96    2.69
  -2   5  11   97.61    9.09
  -2   5  12    7.02    2.23
  -2   5  13   32.15    6.35
  -2   6 -17     .71    3.61
  -2   6 -16   33.99    4.66
  -2   6 -15   16.56    2.77
  -2   6 -14     .20    1.71
  -2   6 -13   80.46    7.36
  -2   6 -12   67.08    4.75
  -2   6 -11  105.27    5.75
  -2   6 -10     .10    1.62
  -2   6  -9  162.05    6.87
  -2   6  -8  161.04    6.34
  -2   6  -7   98.80    3.98
  -2   6  -6  111.72    4.65
  -2   6  -5  203.92    6.57
  -2   6  -4  435.97   12.11
  -2   6  -3   18.06    1.19
  -2   6  -2   82.63    2.73
  -2   6  -1  347.08    9.69
  -2   6   0   59.91    2.48
  -2   6   1  333.06   10.95
  -2   6   2   84.09    2.93
  -2   6   3   16.32    1.21
  -2   6   4  428.90   14.50
  -2   6   5  195.44    7.55
  -2   6   6  104.04    5.71
  -2   6   7   79.57    4.10
  -2   6   8  163.07    7.66
  -2   6   9  151.29    7.63
  -2   6  10     .79    1.00
  -2   6  11  106.92   10.34
  -2   6  12   54.02    5.44
  -2   7 -16   12.39    4.29
  -2   7 -15   34.46    3.99
  -2   7 -14    6.10    2.82
  -2   7 -13   97.22    5.13
  -2   7 -12   18.23    2.73
  -2   7 -11   27.88    3.59
  -2   7 -10   16.08    1.76
  -2   7  -9    3.88     .99
  -2   7  -8  197.96    7.88
  -2   7  -7  110.67    4.00
  -2   7  -6    4.88    1.02
  -2   7  -5  102.41    3.44
  -2   7  -4  211.99    6.70
  -2   7  -3  135.72    4.19
  -2   7  -2   57.46    2.43
  -2   7  -1  476.99   12.67
  -2   7   0  118.59    3.92
  -2   7   1  495.95   14.70
  -2   7   2   51.27    2.00
  -2   7   3  130.87    3.89
  -2   7   4  210.25    8.99
  -2   7   5  107.12    4.55
  -2   7   6    6.30     .90
  -2   7   7   95.26    4.68
  -2   7   8  183.60    9.76
  -2   7   9    2.10    1.10
  -2   7  10   15.13    2.18
  -2   8 -16   13.76    4.53
  -2   8 -15     .71    2.40
  -2   8 -14    5.52    3.99
  -2   8 -13   23.52    2.62
  -2   8 -12   45.83    3.93
  -2   8 -11    4.00    1.72
  -2   8 -10   45.56    2.97
  -2   8  -9  125.44    5.38
  -2   8  -8  172.40    7.35
  -2   8  -7   12.32    1.47
  -2   8  -6   47.33    2.34
  -2   8  -5  151.29    6.89
  -2   8  -4  157.75    5.28
  -2   8  -3  304.85    9.43
  -2   8  -2   16.81    1.07
  -2   8  -1  113.64    4.69
  -2   8   0   48.86    2.10
  -2   8   1  121.00    4.84
  -2   8   2   13.69    1.41
  -2   8   3  296.87   12.75
  -2   8   4  157.25    6.27
  -2   8   5  150.06    6.12
  -2   8   6   51.55    3.45
  -2   8   7   13.03    2.02
  -2   8   8  158.00    7.29
  -2   8   9  108.78    7.51
  -2   8  10   38.44    3.84
  -2   9 -15    4.08    3.39
  -2   9 -14   13.99    2.99
  -2   9 -13    1.10    2.79
  -2   9 -12   64.96    4.84
  -2   9 -11   19.18    2.37
  -2   9 -10   43.96    2.65
  -2   9  -9   58.98    3.53
  -2   9  -8   46.24    2.86
  -2   9  -7   34.34    2.11
  -2   9  -6   75.86    3.48
  -2   9  -5  153.51    6.69
  -2   9  -4   85.75    4.26
  -2   9  -3  159.01    6.56
  -2   9  -2   28.30    1.92
  -2   9  -1   81.90    3.62
  -2   9   0  353.06   16.91
  -2   9   1   80.28    5.38
  -2   9   2   28.41    2.24
  -2   9   3  149.82    7.10
  -2   9   4   87.80    5.43
  -2   9   5  150.80    9.09
  -2   9   6   84.46    3.86
  -2   9   7   33.76    3.72
  -2   9   8   47.06    7.27
  -2   9   9   43.69    3.97
  -2   9  10   37.82    4.80
  -2  10 -14   29.38    8.13
  -2  10 -13    7.67    5.10
  -2  10 -12   11.83    3.78
  -2  10 -11    9.61    3.72
  -2  10 -10   67.73    4.94
  -2  10  -9   47.75    4.56
  -2  10  -8    2.59    2.38
  -2  10  -7   44.89    3.22
  -2  10  -6   26.63    2.89
  -2  10  -5  113.42    8.31
  -2  10  -4   26.52    2.37
  -2  10  -3   75.34    4.34
  -2  10  -2   49.84    3.39
  -2  10  -1   92.35    5.00
  -2  10   0  138.77    8.48
  -2  10   1   88.92    4.34
  -2  10   2   44.49    3.20
  -2  10   3   65.12    4.03
  -2  10   4   23.62    2.33
  -2  10   5  119.90   11.17
  -2  10   6   25.91    3.56
  -2  10   7   43.03    4.85
  -2  10   8    1.21    2.00
  -2  10   9   36.84    5.22
  -2  10  10   40.07    5.82
  -2  11 -13    8.41    4.93
  -2  11 -12    7.78    5.97
  -2  11 -11    5.20    3.01
  -2  11 -10   46.24    4.62
  -2  11  -9   28.30    4.68
  -2  11  -8   -1.21    2.42
  -2  11  -7   27.56    3.67
  -2  11  -6   43.16    4.86
  -2  11  -5   71.40    5.07
  -2  11  -4   43.82    3.97
  -2  11  -3   28.41    3.30
  -2  11  -2    8.88    2.09
  -2  11  -1   72.25    5.27
  -2  11   0   46.24    3.13
  -2  11   1   76.21    4.89
  -2  11   2    5.29    4.60
  -2  11   3   32.83    5.16
  -2  11   4   44.76    5.35
  -2  11   5   71.57    5.92
  -2  11   6   37.70    4.18
  -2  11   7   34.11    4.67
  -2  11   8     .00    1.00
  -2  11   9   34.93   10.52
  -2  11  10   42.38    7.29
  -2  12 -12   12.18    5.30
  -2  12 -11    6.40    4.91
  -2  12 -10   45.83    5.01
  -2  12  -9   18.92    4.78
  -2  12  -8    1.69    2.00
  -2  12  -7     .30    3.01
  -2  12  -6   27.25    3.03
  -2  12  -5   52.85    4.65
  -2  12  -4    3.88    2.21
  -2  12  -3    8.12    5.30
  -2  12  -2   12.89    2.80
  -2  12  -1   44.62    3.87
  -2  12   0    8.53    2.69
  -2  12   1   47.61    7.04
  -2  12   2    5.90    3.60
  -2  12   3    8.58    2.70
  -2  12   4    2.19    3.40
  -2  12   5   44.76    5.35
  -2  12   6   35.52    9.30
  -2  12   7     .10   11.74
  -2  12   8    1.21    4.62
  -2  12   9    1.99    3.58
  -2  12  10   69.22   18.97
  -2  13 -10   32.95    5.05
  -2  13  -9   19.10    4.20
  -2  13  -8    4.41    2.69
  -2  13  -7    7.18    2.79
  -2  13  -6   15.29    3.68
  -2  13  -5   47.06    5.21
  -2  13  -4    8.70    2.60
  -2  13  -3   25.70    8.21
  -2  13  -2    7.40    2.77
  -2  13  -1   25.70    4.77
  -2  13   0    7.18    8.90
  -2  13   1   29.81    5.35
  -2  13   2   19.27    6.50
  -2  13   3   16.08    4.17
  -2  13   4    6.50    7.60
  -2  13   5   33.29    5.65
  -2  13   6   30.91   10.68
  -2  13   7    5.81    5.49
  -2  13   8    9.18    4.61
  -2  13   9   13.18    4.57
  -2  13  10   22.37    6.62
  -2  14  -9   54.61   12.27
  -2  14  -8    -.40    3.78
  -2  14  -7   15.29   14.47
  -2  14  -6   25.10    5.61
  -2  14  -5   18.66    6.65
  -2  14  -4  320.05  103.76
  -2  14  -3   22.18   24.02
  -2  14  -2   11.49   16.81
  -2  14  -1   35.88    5.87
  -2  14   0    9.49    4.37
  -2  14   1   29.27    7.25
  -2  14   2   15.92    5.11
  -2  14   3   23.23    8.10
  -2  14   4    7.90    4.89
  -2  14   5   36.48    9.54
  -2  14   6   18.92    4.70
  -2  14   7    7.29    4.21
  -2  14   8    4.20    3.20
  -2  14   9  129.05   40.44
  -2  15  -6    5.62    6.02
  -2  15  -5   22.94    7.09
  -2  15  -4   11.22    5.29
  -2  15  -3   13.03    5.13
  -2  15  -2   43.16   51.64
  -2  15  -1   19.36    6.78
  -2  15   0   20.16    5.84
  -2  15   1    7.08    5.00
  -2  15   2    5.29    6.30
  -2  15   3   19.89    5.98
  -2  15   4   13.69    5.92
  -2  15   5   14.67    4.52
  -2  15   6    2.79    3.41
  -1 -12 -12   29.59   12.84
  -1 -12 -11   65.77   10.54
  -1 -12 -10   25.00    3.20
  -1 -12  -9   26.94    3.32
  -1 -12  -8   57.00    4.83
  -1 -12  -7   64.48    5.46
  -1 -11 -13   68.23   10.24
  -1 -11 -12    6.60    2.31
  -1 -11 -11   20.98    4.03
  -1 -11 -10    8.41    2.09
  -1 -11  -9   72.42    7.15
  -1 -11  -8    4.49    2.08
  -1 -11  -7    4.20    1.89
  -1 -11  -6  136.66   12.86
  -1 -11  -5   18.66    1.99
  -1 -11  -4   67.57    7.56
  -1 -10 -14   11.49    3.93
  -1 -10 -13   24.01    7.94
  -1 -10 -12   13.47    3.67
  -1 -10 -11  149.33   11.24
  -1 -10 -10   17.98    4.83
  -1 -10  -9  118.59   11.33
  -1 -10  -8   18.32    2.82
  -1 -10  -7   78.15    5.48
  -1 -10  -6    1.30    2.19
  -1 -10  -5    9.00    1.68
  -1 -10  -4   67.90    4.61
  -1 -10  -3   38.81    3.99
  -1 -10  -2    2.89     .99
  -1 -10  -1    2.19    1.01
  -1  -9 -15   10.37    4.77
  -1  -9 -14  100.60   10.23
  -1  -9 -13    9.92    3.40
  -1  -9 -12   29.70    3.92
  -1  -9 -11    4.49    1.91
  -1  -9 -10   56.70   20.78
  -1  -9  -9   99.80    9.39
  -1  -9  -8   30.91   10.45
  -1  -9  -7   37.82    3.20
  -1  -9  -6   35.88    3.35
  -1  -9  -5   87.05    8.77
  -1  -9  -4  100.40    8.22
  -1  -9  -3   27.67    2.00
  -1  -9  -2  250.91   14.89
  -1  -9  -1   41.86    2.85
  -1  -9   0  206.78   15.53
  -1  -8 -16   11.22    4.02
  -1  -8 -15   30.36    3.75
  -1  -8 -14   23.14    7.50
  -1  -8 -13   12.18    2.58
  -1  -8 -12   72.25    6.46
  -1  -8 -11   60.22    6.98
  -1  -8 -10    1.80    2.09
  -1  -8  -9   67.40    4.27
  -1  -8  -8   66.75    4.41
  -1  -8  -7  114.70    5.57
  -1  -8  -6  204.20    8.00
  -1  -8  -5  175.30    9.27
  -1  -8  -4   38.44    3.10
  -1  -8  -3   36.24    2.65
  -1  -8  -2    8.82     .89
  -1  -8  -1   26.01    1.73
  -1  -8   0    1.80     .51
  -1  -8   1   28.20    2.34
  -1  -7 -16    7.29    9.29
  -1  -7 -15    1.59    2.29
  -1  -7 -14    8.82    2.91
  -1  -7 -13   11.90    1.73
  -1  -7 -12   96.04    5.68
  -1  -7 -11  100.00    5.80
  -1  -7 -10  134.33    6.49
  -1  -7  -9   22.56    1.99
  -1  -7  -8   93.32    4.64
  -1  -7  -7  108.99    5.85
  -1  -7  -6   66.75    3.43
  -1  -7  -5    7.90     .67
  -1  -7  -4  292.41   10.26
  -1  -7  -3  117.94    6.30
  -1  -7  -2  119.03    8.29
  -1  -7  -1  150.55   11.04
  -1  -7   0  317.55   17.82
  -1  -7   1  149.33    6.11
  -1  -7   2  108.99   11.90
  -1  -6 -17    4.20    2.50
  -1  -6 -16   32.15    3.74
  -1  -6 -15   44.89    3.75
  -1  -6 -14   21.72    2.61
  -1  -6 -13   68.56    4.31
  -1  -6 -12   60.53    4.36
  -1  -6 -11    6.50    1.27
  -1  -6 -10   27.56    4.20
  -1  -6  -9  111.30    6.12
  -1  -6  -8  139.48    8.03
  -1  -6  -7   16.89    2.14
  -1  -6  -6   46.24    4.22
  -1  -6  -5  316.13   17.78
  -1  -6  -4  105.68    5.35
  -1  -6  -3   79.39    3.39
  -1  -6  -2  819.68   34.36
  -1  -6  -1  175.83   11.67
  -1  -6   0  230.13   19.72
  -1  -6   1  170.30    9.14
  -1  -5 -17    9.99    3.22
  -1  -5 -16    1.69    2.50
  -1  -5 -15    9.61    3.41
  -1  -5 -14    3.10    1.80
  -1  -5 -13   20.88    2.19
  -1  -5 -12   41.60    4.13
  -1  -5 -11   20.98    3.48
  -1  -5 -10   13.03    1.80
  -1  -5  -9  134.79    8.59
  -1  -5  -8    1.21    2.11
  -1  -5  -7  556.02   29.24
  -1  -5  -6  133.17    7.15
  -1  -5  -5  566.92   32.86
  -1  -5  -4  228.61   16.33
  -1  -5  -3  505.80   40.48
  -1  -5  -2  195.44   11.74
  -1  -5  -1  364.43   11.07
  -1  -5   0  495.51   17.81
  -1  -5   1  360.62   20.13
  -1  -5   2  160.53   22.30
  -1  -4 -18    8.88    2.68
  -1  -4 -17    9.49    3.82
  -1  -4 -16    5.20    1.92
  -1  -4 -15    8.70    2.60
  -1  -4 -14   43.56    4.36
  -1  -4 -13   15.21    5.93
  -1  -4 -12   87.98    6.00
  -1  -4 -11   42.64    3.79
  -1  -4 -10  188.24   11.52
  -1  -4  -9   82.81    6.01
  -1  -4  -8  101.00    6.03
  -1  -4  -7   10.11    1.53
  -1  -4  -6  160.28    7.09
  -1  -4  -5  171.87    7.60
  -1  -4  -4  168.48   12.20
  -1  -4  -3  785.12   46.51
  -1  -4  -2  827.71   55.24
  -1  -4  -1   68.72    4.31
  -1  -4   0  790.17   35.98
  -1  -4   1   70.06    3.35
  -1  -4   2  720.92   96.66
  -1  -3 -18     .59    1.99
  -1  -3 -17    2.59    2.70
  -1  -3 -16    6.81    2.40
  -1  -3 -15   47.47   12.26
  -1  -3 -14    5.02    2.69
  -1  -3 -13   46.65    6.28
  -1  -3 -12  114.28    9.41
  -1  -3 -11   38.69    3.61
  -1  -3 -10   93.51    6.19
  -1  -3  -9   44.09    3.72
  -1  -3  -8  292.75   16.77
  -1  -3  -7  245.55   15.36
  -1  -3  -6   35.05    3.20
  -1  -3  -5  352.69   23.29
  -1  -3  -4  792.42   46.73
  -1  -3  -3  950.49   51.18
  -1  -3  -2  109.41   11.92
  -1  -3  -1 1178.55   94.06
  -1  -3   1 1221.50   45.43
  -1  -3   2   91.78    9.58
  -1  -3   7  190.44   11.59
  -1  -3   8  305.20   15.37
  -1  -3   9   36.36    3.38
  -1  -3  10   96.43   11.00
  -1  -3  11   34.22    2.92
  -1  -3  12  111.94    6.56
  -1  -3  13   32.26    3.29
  -1  -3  14     .40    1.59
  -1  -2 -18    7.90    3.32
  -1  -2 -17   11.97    2.63
  -1  -2 -16   -4.00    4.00
  -1  -2 -15   29.92    4.27
  -1  -2 -14   49.84    8.47
  -1  -2 -13   98.01   14.45
  -1  -2 -12   19.27    4.04
  -1  -2 -11   15.76    1.43
  -1  -2 -10  200.22    8.77
  -1  -2  -9    3.88     .99
  -1  -2  -8  351.94   17.26
  -1  -2  -7  124.10    4.90
  -1  -2  -6 1207.56   50.04
  -1  -2  -5   93.12    7.91
  -1  -2  -4  617.03   36.27
  -1  -2  -3  430.15   27.79
  -1  -2  -2   98.80    5.96
  -1  -2  -1  101.40    7.05
  -1  -2   0  118.37    7.62
  -1  -2   1  115.99    3.88
  -1  -2   2   95.45    4.89
  -1  -2   3  437.23   35.55
  -1  -2   5   98.60    4.77
  -1  -2   6 1192.32   48.34
  -1  -2   7  113.21    5.53
  -1  -2   8  341.88   18.49
  -1  -2   9    6.30    1.51
  -1  -2  10  192.93   11.39
  -1  -2  11   20.98    3.57
  -1  -2  12   11.83    2.27
  -1  -2  13   92.54    6.54
  -1  -2  14   42.38    5.08
  -1  -2  15   24.11    4.12
  -1  -2  16    5.29    2.81
  -1  -1 -18   12.89    3.02
  -1  -1 -17   -1.21    1.80
  -1  -1 -16   70.90   19.03
  -1  -1 -15   28.41    5.12
  -1  -1 -14   16.32    3.23
  -1  -1 -13   47.06    3.43
  -1  -1 -12   69.06    8.31
  -1  -1 -11    5.90    1.02
  -1  -1 -10   10.82     .92
  -1  -1  -9  116.42    5.61
  -1  -1  -8  116.64    3.89
  -1  -1  -7   88.74    4.52
  -1  -1  -6   89.11    3.78
  -1  -1  -5  684.35   34.53
  -1  -1  -4  537.78   27.83
  -1  -1  -3  849.72   58.88
  -1  -1  -2  200.51   10.48
  -1  -1  -1  723.61   26.90
  -1  -1   0    3.88     .39
  -1  -1   1  695.90   24.27
  -1  -1   2  199.94    7.64
  -1  -1   3  816.82   52.59
  -1  -1   4  497.74   27.66
  -1  -1   5  696.43   38.00
  -1  -1   6   82.81    5.28
  -1  -1   7   82.81    4.55
  -1  -1   8  108.37    6.45
  -1  -1   9  115.99    5.82
  -1  -1  10   11.49    2.10
  -1  -1  11    5.90    1.99
  -1  -1  12   75.34    6.42
  -1  -1  13   43.82    3.84
  -1  -1  14   17.81    3.04
  -1  -1  15   44.76    8.83
  -1  -1  16   48.16    5.83
  -1  -1  17    2.19    4.08
  -1  -1  18   13.40    3.81
  -1   0 -18   13.40    3.22
  -1   0 -17   36.24    3.97
  -1   0 -16    5.90    2.19
  -1   0 -15    5.29    2.81
  -1   0 -14   79.57    7.85
  -1   0 -13   68.72    5.64
  -1   0 -12   20.07    1.79
  -1   0 -11  334.16   14.62
  -1   0 -10   84.09    4.22
  -1   0  -9  217.56    9.44
  -1   0  -8   41.34    1.54
  -1   0  -7  276.56   10.31
  -1   0  -6  244.61   10.32
  -1   0  -5  101.61    4.44
  -1   0  -4   11.02    1.73
  -1   0  -3  163.58   10.23
  -1   0  -2  144.00    5.28
  -1   0  -1  202.78    6.27
  -1   0   0     .40     .10
  -1   0   1  206.78    7.48
  -1   0   2  144.24    4.08
  -1   0   3  187.42    6.02
  -1   0   4   12.82    1.93
  -1   0   5  103.02    5.48
  -1   0   6  242.74   11.84
  -1   0   7  279.56   16.39
  -1   0   8   38.19    3.46
  -1   0   9  227.10   11.15
  -1   0  10   83.72    3.84
  -1   0  11  347.45   15.28
  -1   0  12   18.92    6.18
  -1   0  13   68.56    5.63
  -1   0  14   86.68    6.52
  -1   0  15   10.50    4.08
  -1   0  16    9.92   11.40
  -1   0  17   37.33    8.55
  -1   0  18   12.89    4.67
  -1   1 -18   14.67    3.29
  -1   1 -17   -1.49    2.39
  -1   1 -16   60.37    7.46
  -1   1 -15   34.81    4.96
  -1   1 -14   25.60    7.69
  -1   1 -13   52.85    5.23
  -1   1 -12   74.65    4.15
  -1   1 -11    8.41    1.62
  -1   1 -10   12.18    1.88
  -1   1  -9  119.25    4.59
  -1   1  -8  113.00    5.10
  -1   1  -7   77.44    2.82
  -1   1  -6   90.25    3.23
  -1   1  -5  708.62   50.58
  -1   1  -4  517.11   36.38
  -1   1  -3  828.86   57.00
  -1   1  -2  204.20    9.15
  -1   1  -1  714.49   25.66
  -1   1   0    3.69     .19
  -1   1   1  720.39   18.25
  -1   1   2  197.40    5.90
  -1   1   3  859.08   29.31
  -1   1   4  533.61   23.10
  -1   1   5  694.85   26.36
  -1   1   6   92.74    4.04
  -1   1   7   86.12    3.34
  -1   1   8  119.03    4.80
  -1   1   9  118.16    6.52
  -1   1  10    9.92    2.33
  -1   1  11    9.99    4.17
  -1   1  12   72.93    5.12
  -1   1  13   50.69    3.99
  -1   1  14   17.47    3.26
  -1   1  15   36.12    3.73
  -1   1  16   57.61    7.44
  -1   1  17    5.11    4.52
  -1   1  18   11.09    9.12
  -1   2 -18   13.10    3.48
  -1   2 -17   27.14    7.61
  -1   2 -16    6.50    4.49
  -1   2 -15   36.24    5.54
  -1   2 -14   44.36    4.80
  -1   2 -13   82.63    5.64
  -1   2 -12   18.32    2.57
  -1   2 -11   17.98    1.36
  -1   2 -10  196.56    7.85
  -1   2  -9    5.90    1.02
  -1   2  -8  346.70   14.15
  -1   2  -7  119.68    5.91
  -1   2  -6 1236.93   66.82
  -1   2  -5   99.40    9.17
  -1   2  -4  597.31   26.40
  -1   2  -3  414.53   27.69
  -1   2  -2   97.61    6.13
  -1   2  -1  108.78    3.55
  -1   2   0  110.25    3.99
  -1   2   1   95.06    3.12
  -1   2   2  100.60    3.21
  -1   2   3  433.47   18.32
  -1   2   4  612.07   26.22
  -1   2   5   93.32    3.28
  -1   2   6 1239.74   50.00
  -1   2   7  127.01    4.73
  -1   2   8  363.28   14.49
  -1   2   9    5.62     .90
  -1   2  10  203.06    8.84
  -1   2  11   17.98    1.87
  -1   2  12   10.18    2.81
  -1   2  13   79.57    7.14
  -1   2  14   65.77   42.17
  -1   2  15   19.36    3.87
  -1   2  16    5.02    3.09
  -1   2  17   11.42    5.48
  -1   2  18    4.71    3.30
  -1   3 -18   -4.71    3.21
  -1   3 -17    3.20    3.69
  -1   3 -16     .50    3.31
  -1   3 -15   19.80    3.29
  -1   3 -14    1.69    2.99
  -1   3 -13   44.22    3.86
  -1   3 -12  120.34    6.14
  -1   3 -11   34.69    2.12
  -1   3 -10   87.42    3.74
  -1   3  -9   45.56    5.26
  -1   3  -8  284.26   17.87
  -1   3  -7  239.94   15.18
  -1   3  -6   27.98    2.22
  -1   3  -5  359.48   26.54
  -1   3  -4  788.49   39.87
  -1   3  -3  979.69   59.47
  -1   3  -2  107.33    4.77
  -1   3  -1 1139.06   47.25
  -1   3   0  474.37   17.42
  -1   3   1 1153.28   49.58
  -1   3   2  104.86    3.07
  -1   3   3  941.88   31.30
  -1   3   4  799.19   30.53
  -1   3   5  344.47   10.76
  -1   3   6   33.29    1.38
  -1   3   7  245.24    8.14
  -1   3   8  314.35   11.35
  -1   3   9   40.07    1.90
  -1   3  10   88.55    4.33
  -1   3  11   34.46    5.05
  -1   3  12  109.41    7.53
  -1   3  13   41.73    4.91
  -1   3  14     .10    2.23
  -1   3  15   18.40    3.60
  -1   3  16    -.30    2.21
  -1   3  17    1.39    2.38
  -1   3  18   -3.20    3.69
  -1   4 -18    4.49    3.39
  -1   4 -17   19.71    4.44
  -1   4 -16    6.60    2.42
  -1   4 -15   12.11    3.90
  -1   4 -14   60.37    5.44
  -1   4 -13   18.23    1.96
  -1   4 -12   86.68    4.66
  -1   4 -11   40.32    2.54
  -1   4 -10  175.83   11.40
  -1   4  -9   66.75    4.58
  -1   4  -8  119.46    7.00
  -1   4  -7    8.58    3.69
  -1   4  -6  153.02    8.66
  -1   4  -5  158.76    7.81
  -1   4  -4  177.42    7.19
  -1   4  -3  798.06   29.94
  -1   4  -2  807.13   26.14
  -1   4  -1   72.59    2.22
  -1   4   0  736.58   25.51
  -1   4   1   65.12    2.10
  -1   4   2  793.55   23.10
  -1   4   3  768.95   26.07
  -1   4   4  174.77    6.61
  -1   4   5  168.74    5.72
  -1   4   6  148.60    5.61
  -1   4   7    9.92     .88
  -1   4   8  106.92    4.14
  -1   4   9   73.44    3.43
  -1   4  10  173.45    8.17
  -1   4  11   40.58   12.10
  -1   4  12   79.74    7.50
  -1   4  13   10.37    2.32
  -1   4  14   46.65    5.05
  -1   4  15    7.78    3.79
  -1   4  16    3.80    3.51
  -1   4  17   22.94   13.80
  -1   5 -17    4.58    3.08
  -1   5 -16    3.61    3.00
  -1   5 -15   -1.30    2.19
  -1   5 -14    1.21    2.20
  -1   5 -13   19.89    1.96
  -1   5 -12   33.41    1.97
  -1   5 -11   19.18    1.23
  -1   5 -10   12.32    1.19
  -1   5  -9  117.94    4.13
  -1   5  -8    5.20    1.32
  -1   5  -7  569.78   20.05
  -1   5  -6  135.72    5.59
  -1   5  -5  569.30   16.22
  -1   5  -4  210.54    8.42
  -1   5  -3  484.44   17.61
  -1   5  -2  193.21    5.28
  -1   5  -1  346.70   10.05
  -1   5   0  476.11   13.96
  -1   5   1  349.69    9.72
  -1   5   2  189.34    5.78
  -1   5   3  479.61   16.21
  -1   5   4  211.70    7.28
  -1   5   5  556.96   19.35
  -1   5   6  125.66    4.71
  -1   5   7  535.00   24.52
  -1   5   8    3.88    1.18
  -1   5   9  124.99    6.26
  -1   5  10   11.09    1.33
  -1   5  11   14.82    1.31
  -1   5  12   31.70    3.15
  -1   5  13   19.36    2.90
  -1   5  14     .20    2.11
  -1   5  15    -.50    2.71
  -1   5  16    6.92    3.52
  -1   6 -17    6.81    2.82
  -1   6 -16   30.47    3.75
  -1   6 -15   49.70    6.34
  -1   6 -14   26.63    3.10
  -1   6 -13   68.06    4.46
  -1   6 -12   57.76    3.04
  -1   6 -11    5.20    1.19
  -1   6 -10   31.92    2.15
  -1   6  -9  108.37    3.96
  -1   6  -8  122.99    4.44
  -1   6  -7   15.76    1.27
  -1   6  -6   44.62    1.74
  -1   6  -5  302.41    8.35
  -1   6  -4  109.62    3.56
  -1   6  -3   71.91    2.54
  -1   6  -2  773.40   18.35
  -1   6  -1  160.78    4.82
  -1   6   0  223.80    6.88
  -1   6   1  168.74    3.90
  -1   6   2  804.29   18.72
  -1   6   3   75.69    2.26
  -1   6   4  103.84    4.08
  -1   6   5  296.18   11.70
  -1   6   6   43.56    2.24
  -1   6   7   17.22    1.33
  -1   6   8  123.65    5.12
  -1   6   9   99.80    6.59
  -1   6  10   22.75    2.00
  -1   6  11    7.78    1.67
  -1   6  12   51.98    5.19
  -1   6  13   61.94    6.77
  -1   6  14   22.47    3.41
  -1   6  15   42.64   11.36
  -1   7 -17    7.67    5.21
  -1   7 -16    1.49    2.88
  -1   7 -15     .90    2.81
  -1   7 -14   10.63    1.63
  -1   7 -13    9.30    1.83
  -1   7 -12  100.00    6.20
  -1   7 -11   95.84    5.09
  -1   7 -10  137.36    5.16
  -1   7  -9   27.14    1.56
  -1   7  -8   84.09    3.30
  -1   7  -7  102.82    4.06
  -1   7  -6   58.83    3.07
  -1   7  -5    6.20     .90
  -1   7  -4  262.76    7.78
  -1   7  -3  115.56    3.65
  -1   7  -2  110.25    4.83
  -1   7  -1  152.03    4.69
  -1   7   0  300.68   12.14
  -1   7   1  139.00    4.72
  -1   7   2  106.50    4.33
  -1   7   3  109.20    2.93
  -1   7   4  268.63   11.15
  -1   7   5    5.71    1.20
  -1   7   6   62.25    3.00
  -1   7   7  101.20    4.02
  -1   7   8   91.20    4.97
  -1   7   9   20.98    1.74
  -1   7  10  121.88    5.96
  -1   7  11   77.44    6.16
  -1   7  12   91.97    8.44
  -1   7  13    7.08    2.61
  -1   8 -16   12.18    3.42
  -1   8 -15   23.43    4.26
  -1   8 -14   21.81    2.80
  -1   8 -13   12.82    2.00
  -1   8 -12   71.74    5.25
  -1   8 -11   62.57    4.43
  -1   8 -10     .71    1.11
  -1   8  -9   67.90    4.61
  -1   8  -8   58.98    2.61
  -1   8  -7  107.12    3.93
  -1   8  -6  189.61    7.44
  -1   8  -5  173.19    6.84
  -1   8  -4   32.83    1.72
  -1   8  -3   33.06    1.61
  -1   8  -2    7.08     .59
  -1   8  -1   32.83    2.64
  -1   8   0     .71     .91
  -1   8   1   23.33    1.64
  -1   8   2    5.29    1.10
  -1   8   3   34.11    1.99
  -1   8   4   37.82    2.95
  -1   8   5  159.26    8.33
  -1   8   6  179.29    8.57
  -1   8   7   98.60    4.37
  -1   8   8   54.76    3.26
  -1   8   9   61.62    4.55
  -1   8  10    2.19    1.01
  -1   8  11   51.98    3.46
  -1   8  12   70.56    6.22
  -1   9 -15   14.90    3.01
  -1   9 -14   60.06    5.42
  -1   9 -13    8.12    1.82
  -1   9 -12   21.07    4.31
  -1   9 -11    4.58    2.01
  -1   9 -10   51.84    3.74
  -1   9  -9  106.50    5.99
  -1   9  -8   25.20    2.01
  -1   9  -7   34.46    2.23
  -1   9  -6   38.56    2.36
  -1   9  -5   84.27    3.86
  -1   9  -4   97.81    3.96
  -1   9  -3   22.37    2.27
  -1   9  -2  239.01    8.66
  -1   9  -1   38.94    2.25
  -1   9   0  190.16    6.89
  -1   9   1   37.45    1.96
  -1   9   2  237.47   13.56
  -1   9   3   21.81    1.87
  -1   9   4   80.46    3.77
  -1   9   5   76.56    4.38
  -1   9   6   40.32    3.05
  -1   9   7   23.72    1.56
  -1   9   8   26.11    2.04
  -1   9   9   91.97    7.67
  -1   9  10   43.96    2.65
  -1   9  11   -1.00    1.50
  -1  10 -14   13.18    3.70
  -1  10 -13   61.00   21.87
  -1  10 -12   16.56    5.13
  -1  10 -11  121.00    7.70
  -1  10 -10    9.18    2.73
  -1  10  -9  102.62    7.90
  -1  10  -8   18.32    2.82
  -1  10  -7   73.62    7.04
  -1  10  -6    1.00    2.10
  -1  10  -5   16.73    3.03
  -1  10  -4   57.30    3.18
  -1  10  -3   27.46    2.83
  -1  10  -2    5.38    1.30
  -1  10  -1    -.30    1.31
  -1  10   0  191.82    8.31
  -1  10   1     .30    1.21
  -1  10   2    3.31    1.71
  -1  10   3   25.60    2.13
  -1  10   4   54.91    3.70
  -1  10   5    6.60    1.39
  -1  10   6    2.99    1.59
  -1  10   7   77.09    4.74
  -1  10   8   11.90    1.79
  -1  10   9  101.20   10.26
  -1  10  10    6.50    2.91
  -1  10  11  108.99    9.40
  -1  11 -13   44.76   10.70
  -1  11 -12    5.29    4.09
  -1  11 -11    7.62    4.03
  -1  11 -10    9.30    2.32
  -1  11  -9   51.84    4.46
  -1  11  -8    8.70    3.48
  -1  11  -7    8.88    4.71
  -1  11  -6  132.02    9.19
  -1  11  -5   22.37    2.27
  -1  11  -4   62.41    4.58
  -1  11  -3   18.23    1.96
  -1  11  -2  169.00    9.62
  -1  11  -1   81.36    4.33
  -1  11   0   61.47    4.08
  -1  11   1   79.74    4.64
  -1  11   2  146.17    7.50
  -1  11   3   19.01    2.79
  -1  11   4   52.56    4.06
  -1  11   5   19.98    2.41
  -1  11   6  114.70    8.14
  -1  11   7    7.18    2.89
  -1  11   8    4.41    3.11
  -1  11   9   62.73    7.44
  -1  11  10    6.30    5.12
  -1  11  11   10.82    4.47
  -1  12 -12    5.81    4.39
  -1  12 -11   53.14   10.50
  -1  12 -10   21.81    3.46
  -1  12  -9   24.90    4.89
  -1  12  -8   63.52   10.68
  -1  12  -7   67.73    6.58
  -1  12  -6   53.00    4.95
  -1  12  -5    8.82    2.08
  -1  12  -4  171.61   13.10
  -1  12  -3   66.75    4.74
  -1  12  -2    3.61    1.29
  -1  12  -1    3.61    1.52
  -1  12   0   60.53    4.51
  -1  12   1     .20    1.71
  -1  12   2    -.20    1.71
  -1  12   3   52.27    4.05
  -1  12   4  149.57   10.27
  -1  12   5   15.29    5.63
  -1  12   6   53.14    7.00
  -1  12   7   58.06    6.40
  -1  12   8   49.98    6.79
  -1  12   9   30.91    8.45
  -1  12  10   24.30    5.72
  -1  12  11   42.90    5.76
  -1  13 -11    7.40   10.28
  -1  13 -10   20.34    5.41
  -1  13  -9   13.69    3.63
  -1  13  -8   10.63    4.43
  -1  13  -7   14.36    2.80
  -1  13  -6   51.55    4.74
  -1  13  -5   39.94    5.56
  -1  13  -4   16.56    2.93
  -1  13  -3   35.64    3.70
  -1  13  -2   96.63    7.86
  -1  13  -1   73.96    4.47
  -1  13   0   33.41    3.24
  -1  13   1   60.06    6.04
  -1  13   2  115.78   12.05
  -1  13   3   35.88    6.95
  -1  13   4   11.22    3.08
  -1  13   5   49.28   10.67
  -1  13   6   77.09    7.55
  -1  13   7   16.97    6.18
  -1  13   8    9.18    4.42
  -1  13   9   27.25   10.54
  -1  13  10    9.42    3.01
  -1  14  -9   27.25   11.38
  -1  14  -8   20.79    6.48
  -1  14  -7   23.52    6.50
  -1  14  -6    5.38    2.27
  -1  14  -5    7.08    2.07
  -1  14  -4   21.90    4.12
  -1  14  -3   13.62    2.73
  -1  14  -2    4.58    5.78
  -1  14  -1    1.99    4.29
  -1  14   0   69.56    8.84
  -1  14   1    7.08    5.00
  -1  14   2    4.20    5.49
  -1  14   3   25.70    5.37
  -1  14   4   18.40    5.66
  -1  14   5   23.14    6.45
  -1  14   6    2.59    4.60
  -1  14   7   29.48    6.52
  -1  14   8   18.66    5.70
  -1  14   9   11.22    5.63
  -1  15  -7   13.03    4.62
  -1  15  -6   86.12   29.14
  -1  15  -5   35.52    6.79
  -1  15  -4   32.04    5.55
  -1  15  -3   11.09    6.79
  -1  15  -2   50.55    7.82
  -1  15  -1   15.60    5.21
  -1  15   0    8.53    3.91
  -1  15   1    7.90    6.01
  -1  15   2   37.45    6.98
  -1  15   3   11.49    4.07
  -1  15   4   26.73    5.48
  -1  15   5   25.00    4.20
  -1  15   6   22.37    6.53
  -1  16  -1   23.33   11.21
  -1  16   0    9.67   19.66
   0 -13 -11    9.00    6.60
   0 -12 -12    8.70   10.38
   0 -12 -11   19.10    2.97
   0 -12 -10   33.52    6.25
   0 -12  -9   11.90    3.17
   0 -12  -8    3.10    1.90
   0 -12  -7  100.80    8.84
   0 -12  -6    6.92    4.21
   0 -12  -5   16.40    2.51
   0 -11 -13    1.30   10.01
   0 -11 -12   65.29    6.79
   0 -11 -11    5.52    5.03
   0 -11 -10    -.71    2.02
   0 -11  -9    2.31    3.92
   0 -11  -8  146.65   11.87
   0 -11  -7   80.46    7.71
   0 -11  -6   37.09    9.74
   0 -11  -5     .50    1.51
   0 -11  -4   34.34    5.63
   0 -11  -3   30.69    2.55
   0 -11  -2   17.72    2.27
   0 -10 -14    3.69    4.61
   0 -10 -13   14.90    3.94
   0 -10 -12   77.97    7.42
   0 -10 -11   30.25    3.96
   0 -10 -10   10.18    2.68
   0 -10  -9   19.98    4.47
   0 -10  -8   10.50    3.18
   0 -10  -7    9.49    1.79
   0 -10  -6   22.28    2.64
   0 -10  -5   87.61    5.99
   0 -10  -4   24.70    2.48
   0 -10  -3  118.59    7.41
   0 -10  -2  389.67   49.35
   0 -10  -1  115.13   13.09
   0 -10   0  129.73    9.57
   0  -9 -15    7.02    3.13
   0  -9 -14   25.00    5.10
   0  -9 -13    1.21    3.21
   0  -9 -12    5.62    2.32
   0  -9 -11   10.69    4.97
   0  -9 -10   61.62    5.97
   0  -9  -9    8.53    2.28
   0  -9  -8   19.54    2.56
   0  -9  -7  302.06   20.86
   0  -9  -6    4.58    1.50
   0  -9  -5   62.57    5.22
   0  -9  -4  110.25    9.45
   0  -9  -3  492.40   25.74
   0  -9  -2   14.90    1.47
   0  -9  -1   62.09    6.30
   0  -9   0     .10     .61
   0  -9   1   58.22    3.97
   0  -8 -16    3.61    3.00
   0  -8 -15   22.28    3.40
   0  -8 -14   10.89    3.70
   0  -8 -13   17.64    3.28
   0  -8 -12   26.73    3.72
   0  -8 -11    8.82    1.72
   0  -8 -10   99.00    7.96
   0  -8  -9     .30    1.00
   0  -8  -8  109.83    6.29
   0  -8  -7   31.25    3.13
   0  -8  -6  209.38   10.13
   0  -8  -5  374.81   27.88
   0  -8  -4    8.29    2.42
   0  -8  -3   24.40    1.58
   0  -8  -2  249.96   12.65
   0  -8  -1  355.70   19.61
   0  -8   0   11.09    1.20
   0  -8   1  344.10   25.23
   0  -8   2  241.18   11.18
   0  -7 -16    7.62    4.53
   0  -7 -15   64.64    7.88
   0  -7 -14   21.44    5.74
   0  -7 -13     .59    1.59
   0  -7 -12    2.19    1.51
   0  -7 -11  179.56    9.92
   0  -7 -10  135.96    8.63
   0  -7  -9   40.70    2.68
   0  -7  -8    6.60    1.08
   0  -7  -7  114.28    7.70
   0  -7  -6  287.64   13.57
   0  -7  -5    8.70    1.48
   0  -7  -4   42.64    2.74
   0  -7  -3  306.95   14.37
   0  -7  -2    8.88    1.07
   0  -7  -1  709.16   41.01
   0  -7   0    1.21     .40
   0  -7   1  693.80   47.94
   0  -7   2    6.30    1.41
   0  -6 -17    -.10    3.34
   0  -6 -16   28.73    4.61
   0  -6 -15   31.02    3.45
   0  -6 -14   14.06    3.00
   0  -6 -13  114.06    5.77
   0  -6 -12    3.50    3.22
   0  -6 -11   45.97    3.25
   0  -6 -10    4.41    1.51
   0  -6  -9  268.63   12.13
   0  -6  -8  127.46    5.42
   0  -6  -7   13.32    1.10
   0  -6  -6  646.18   31.01
   0  -6  -5   27.25    1.57
   0  -6  -3  178.76   10.43
   0  -6  -2  416.57   19.59
   0  -6  -1   51.41    2.29
   0  -6   0  180.36   10.21
   0  -6   1   49.98    2.26
   0  -6   2  406.02   37.08
   0  -5 -17    2.31    3.71
   0  -5 -16   30.14    3.29
   0  -5 -15   20.88    3.02
   0  -5 -14  106.30    5.16
   0  -5 -13   26.01    2.86
   0  -5 -12     .79    1.30
   0  -5 -11  192.10    9.42
   0  -5 -10   34.81    2.12
   0  -5  -9    4.71    1.30
   0  -5  -8    3.69     .81
   0  -5  -7  172.66    7.10
   0  -5  -6  282.91   11.44
   0  -5  -5   20.61    1.18
   0  -5  -4  167.18    7.24
   0  -5  -3   28.94    1.83
   0  -5  -2  966.59   53.47
   0  -5  -1   49.84    2.40
   0  -5   0     .10     .51
   0  -5   1   50.55    2.28
   0  -5   2  965.97   45.38
   0  -4 -18   11.29    2.62
   0  -4 -17    3.10    3.20
   0  -4 -16   27.98    2.86
   0  -4 -15    5.20    1.41
   0  -4 -14    4.80    1.10
   0  -4 -13   16.89    2.71
   0  -4 -12   14.36    2.50
   0  -4 -11  126.11    5.84
   0  -4 -10    2.10    1.01
   0  -4  -9  478.30   35.87
   0  -4  -8  409.25   27.92
   0  -4  -7     .79     .89
   0  -4  -6    3.88     .99
   0  -4  -5  151.78    7.15
   0  -4  -4  347.08   13.79
   0  -4  -3  205.06    9.45
   0  -4  -2  933.91   40.34
   0  -4  -1   35.16    1.90
   0  -4   0  104.45    4.70
   0  -4   1   36.24    1.44
   0  -4   2  976.56  118.75
   0  -4   7    3.50    1.91
   0  -4   8  389.27   16.57
   0  -4   9  476.11   20.95
   0  -4  10    3.20    2.11
   0  -4  11  129.28   12.51
   0  -4  12   11.90    2.07
   0  -4  13   17.39    4.59
   0  -4  14    -.20    2.62
   0  -3 -18    8.41    2.73
   0  -3 -17    8.12    2.68
   0  -3 -16   11.90    2.21
   0  -3 -15   -1.99    1.69
   0  -3 -14  111.51    6.34
   0  -3 -13  176.62    7.71
   0  -3 -12   60.53    3.11
   0  -3 -11    4.58     .90
   0  -3 -10  194.04    8.36
   0  -3  -9  296.53   11.37
   0  -3  -8   17.64    1.01
   0  -3  -7  470.02   16.48
   0  -3  -6   29.05    1.40
   0  -3  -5  180.90    5.38
   0  -3  -4    3.31    1.31
   0  -3  -3   54.61    3.40
   0  -3  -2   74.30    2.76
   0  -3  -1 2316.50  149.20
   0  -3   0     .90     .30
   0  -3   1 2429.50  138.01
   0  -3   4    4.00    1.28
   0  -3   5  184.42    8.96
   0  -3   6   29.38    2.93
   0  -3   7  484.88   20.26
   0  -3   8   20.16    2.07
   0  -3   9  294.12   17.49
   0  -3  10  190.99   10.23
   0  -3  11    4.28    4.60
   0  -3  12   62.41    4.90
   0  -3  13  164.35    9.49
   0  -3  14  130.64    9.37
   0  -3  15    1.80    2.09
   0  -3  16   16.32    6.14
   0  -3  17    7.78    4.07
   0  -2 -18    3.61    3.12
   0  -2 -17   48.86    5.45
   0  -2 -16    9.61    2.79
   0  -2 -15   54.46    4.13
   0  -2 -14    2.10    1.51
   0  -2 -13   19.10    2.27
   0  -2 -12    2.31    1.40
   0  -2 -11   12.82    1.29
   0  -2 -10    3.20     .61
   0  -2  -9    3.61     .80
   0  -2  -8  177.42    6.93
   0  -2  -7    3.61     .49
   0  -2  -6    7.08     .59
   0  -2  -5  682.25   30.30
   0  -2  -4 1832.70   83.91
   0  -2  -3  872.02   32.48
   0  -2  -2  205.64    8.60
   0  -2  -1  345.22    9.66
   0  -2   0  703.84   24.94
   0  -2   1  344.84   11.51
   0  -2   2  208.51   14.44
   0  -2   3  832.32   39.81
   0  -2   4 1782.53  100.48
   0  -2   5  655.87   29.71
   0  -2   6    8.88    1.61
   0  -2   7    2.99     .90
   0  -2   8  181.71    8.36
   0  -2   9    4.08    1.62
   0  -2  10   25.10    7.41
   0  -2  11   12.67    2.42
   0  -2  12    4.20    2.42
   0  -2  13   15.52    1.97
   0  -2  14    3.50    3.10
   0  -2  15   49.28    5.90
   0  -2  16    3.39    2.69
   0  -2  17   45.56    7.29
   0  -2  18    3.31    5.61
   0  -1 -18    4.58    2.91
   0  -1 -17    9.67    2.61
   0  -1 -16   10.63    2.41
   0  -1 -15   30.25    2.42
   0  -1 -14    3.39    1.80
   0  -1 -13   54.61    3.99
   0  -1 -12    7.29    1.30
   0  -1 -11   41.86    2.72
   0  -1 -10  306.95   12.96
   0  -1  -9  759.55   30.32
   0  -1  -8   58.68    2.60
   0  -1  -7  156.00    6.74
   0  -1  -6   98.60    3.38
   0  -1  -5 1293.12   53.22
   0  -1  -4  524.87   20.16
   0  -1  -3   67.40    2.13
   0  -1  -2   11.70     .41
   0  -1  -1  169.00    6.24
   0  -1   0     .59     .09
   0  -1   1  166.41    8.00
   0  -1   2   10.63     .59
   0  -1   3   69.22    4.66
   0  -1   4  500.86   24.17
   0  -1   5 1250.33   78.50
   0  -1   6   98.41    5.75
   0  -1   7  147.38    7.77
   0  -1   8   52.85    3.63
   0  -1   9  768.95   33.83
   0  -1  10  297.91   17.61
   0  -1  11   63.52   75.56
   0  -1  12    5.62    1.71
   0  -1  13   60.84    5.93
   0  -1  14    2.10    2.90
   0  -1  15   34.11    4.79
   0  -1  16   29.81    8.41
   0  -1  17   19.98    7.87
   0  -1  18    2.99    4.60
   0   0 -18    5.20    2.19
   0   0 -17    2.19    2.60
   0   0 -16   40.70    4.47
   0   0 -15     .50    1.51
   0   0 -14  115.35   13.32
   0   0 -13    -.79    1.30
   0   0 -12   78.15    5.13
   0   0 -11     .71     .91
   0   0 -10  158.26    6.79
   0   0  -9     .71     .50
   0   0  -8  141.37    5.95
   0   0  -7     .90     .49
   0   0  -6    3.39     .52
   0   0  -5     .79     .30
   0   0  -4 1530.37   47.73
   0   0  -3     .00    1.00
   0   0  -2   72.25    2.38
   0   0  -1     .10     .10
   0   0   1     .40     .10
   0   0   2   73.44    2.57
   0   0   3    -.71     .20
   0   0   4 1528.81   58.65
   0   0   5     .10     .30
   0   0   6    3.80    1.01
   0   0   7    2.10    1.91
   0   0   8  130.87    6.41
   0   0   9    1.90    2.21
   0   0  10  156.00    8.99
   0   0  11   -1.00    1.30
   0   0  12   92.16    5.18
   0   0  13    2.10    3.92
   0   0  14  124.10   10.69
   0   0  15    3.80    4.29
   0   0  16   29.59    4.46
   0   0  17    4.49    5.68
   0   0  18    7.51    5.10
   0   1 -18    -.59    2.09
   0   1 -17    9.30    2.62
   0   1 -16    9.18    2.30
   0   1 -15   31.25    3.69
   0   1 -14    3.80    1.79
   0   1 -13   57.30    3.79
   0   1 -12    8.82    1.31
   0   1 -11   43.43    2.11
   0   1 -10  312.94   12.03
   0   1  -9  789.05   23.60
   0   1  -8   54.17    1.91
   0   1  -7  145.20    6.75
   0   1  -6   93.32    3.86
   0   1  -5 1272.35   40.66
   0   1  -4  543.36   17.72
   0   1  -3   64.16    3.04
   0   1  -2   11.97     .62
   0   1  -1  167.96    5.70
   0   1   0     .30     .10
   0   1   1  167.70    4.92
   0   1   2   10.82     .53
   0   1   3   69.22    2.00
   0   1   4  543.82   14.92
   0   1   5 1290.96   56.05
   0   1   6   94.48    4.28
   0   1   7  155.50    5.99
   0   1   8   61.47    2.82
   0   1   9  791.86   33.77
   0   1  10  297.56   17.25
   0   1  11   44.36    3.20
   0   1  12    4.88    2.30
   0   1  13   60.37    4.51
   0   1  14   -1.30    1.39
   0   1  15   27.14    3.65
   0   1  16   18.40    3.69
   0   1  17   15.21    6.47
   0   1  18    2.59    3.19
   0   2 -18     .00    1.00
   0   2 -17   39.69    5.54
   0   2 -16    5.29    2.12
   0   2 -15   55.50    7.30
   0   2 -14    2.40    1.39
   0   2 -13   18.23    1.96
   0   2 -12    1.59    1.08
   0   2 -11   14.82    1.46
   0   2 -10    4.71     .78
   0   2  -9    8.58    1.70
   0   2  -8  177.42    6.93
   0   2  -7    2.89     .71
   0   2  -6    8.53    1.58
   0   2  -5  622.50   44.41
   0   2  -4 1740.56   86.78
   0   2  -3  854.98   39.18
   0   2  -2  205.06    6.87
   0   2  -1  345.59   10.41
   0   2   0  701.19   21.71
   0   2   1  350.06   11.97
   0   2   2  205.64    5.74
   0   2   3  918.70   28.49
   0   2   4 1848.14   73.08
   0   2   5  657.41   22.56
   0   2   6    6.40     .71
   0   2   7    2.19     .59
   0   2   8  177.96    6.14
   0   2   9    2.79     .60
   0   2  10    4.49    1.99
   0   2  11   11.49    1.29
   0   2  12    -.10    6.17
   0   2  13   22.66    2.76
   0   2  14    5.02    2.51
   0   2  15   53.14    5.10
   0   2  16    7.08    7.98
   0   2  17   33.99    6.18
   0   2  18    4.88    3.98
   0   3 -18   12.32    3.23
   0   3 -17    5.81    2.51
   0   3 -16    8.29    2.02
   0   3 -15    3.80    1.79
   0   3 -14  111.30    6.75
   0   3 -13  168.74   11.43
   0   3 -12   71.74    4.07
   0   3 -11    5.20    1.09
   0   3 -10  190.99    8.84
   0   3  -9  278.56    9.68
   0   3  -8   20.79    4.01
   0   3  -7  476.99   21.40
   0   3  -6   26.01    2.04
   0   3  -5  182.52   11.35
   0   3  -4    2.50     .70
   0   3  -3   50.27    2.13
   0   3  -2   76.04    2.44
   0   3  -1 2232.56   67.10
   0   3   0     .50     .20
   0   3   1 2245.81   91.94
   0   3   2   75.34    2.95
   0   3   3   55.95    2.24
   0   3   4    2.59     .81
   0   3   5  185.50    6.81
   0   3   6   30.80    1.55
   0   3   7  458.82   15.42
   0   3   8   13.62    1.33
   0   3   9  296.18   12.05
   0   3  10  191.27    8.30
   0   3  11    5.20    1.50
   0   3  12   69.06    8.81
   0   3  13  174.50   14.00
   0   3  14  101.00   11.06
   0   3  15    -.90    1.60
   0   3  16    4.71    6.81
   0   3  17   11.97    3.60
   0   3  18   13.76    4.08
   0   4 -18    8.58    5.27
   0   4 -17    4.80    3.90
   0   4 -16   30.58    3.87
   0   4 -15    8.82    2.32
   0   4 -14    3.69    1.38
   0   4 -13   20.98    2.29
   0   4 -12   12.18    1.12
   0   4 -11  119.68    5.47
   0   4 -10    -.10     .71
   0   4  -9  493.28   22.65
   0   4  -8  416.16   12.24
   0   4  -7    -.20    1.51
   0   4  -6    8.01     .79
   0   4  -5  147.62    5.10
   0   4  -4  342.25    9.99
   0   4  -3  206.21    5.46
   0   4  -2  955.43   26.58
   0   4  -1   36.60    1.09
   0   4   0   99.00    2.99
   0   4   1   35.64    1.67
   0   4   2  942.49   30.70
   0   4   3  196.00    6.16
   0   4   4  341.14   12.93
   0   4   5  144.72    6.01
   0   4   6    2.99    1.31
   0   4   7    1.99     .79
   0   4   8  411.68   13.80
   0   4   9  473.50   17.84
   0   4  10     .50    1.01
   0   4  11  120.34    6.36
   0   4  12   17.64    2.44
   0   4  13   23.72    3.02
   0   4  14    3.10    4.01
   0   4  15    4.80    2.50
   0   4  16   34.34    4.45
   0   4  17    6.30    4.52
   0   4  18    5.20    3.28
   0   5 -18  102.01   17.37
   0   5 -17    3.88    2.68
   0   5 -16   32.15    3.52
   0   5 -15   15.29    2.74
   0   5 -14   97.81    4.95
   0   5 -13   33.06    2.41
   0   5 -12    -.71    1.01
   0   5 -11  193.21    6.12
   0   5 -10   33.18    1.73
   0   5  -9    1.99    1.18
   0   5  -8    2.50    1.01
   0   5  -7  177.42    5.59
   0   5  -6  300.68    8.67
   0   5  -5   24.80    1.39
   0   5  -4  162.31    4.84
   0   5  -3   28.84     .86
   0   5  -2  967.83   35.47
   0   5  -1   51.41    2.01
   0   5   0     .00    1.00
   0   5   1   50.27    2.41
   0   5   2  926.59   33.48
   0   5   3   25.81    1.12
   0   5   4  161.54    6.36
   0   5   5   19.36    1.32
   0   5   6  300.68   12.14
   0   5   7  169.26    7.29
   0   5   8    2.99     .90
   0   5   9    3.61    1.22
   0   5  10   28.20    1.70
   0   5  11  185.78   10.36
   0   5  12    -.40    1.59
   0   5  13   32.15   21.43
   0   5  14  100.20    6.41
   0   5  15   13.10    2.90
   0   5  16   32.95    4.94
   0   5  17    2.10    3.80
   0   5  18   58.83    5.98
   0   6 -17   -4.28    2.90
   0   6 -16   34.57    4.35
   0   6 -15   33.76    3.14
   0   6 -14    8.41    1.91
   0   6 -13  122.10    6.19
   0   6 -12    -.20    1.01
   0   6 -11   43.16    2.50
   0   6 -10     .79    1.00
   0   6  -9  262.12   11.33
   0   6  -8  123.21    4.88
   0   6  -7   12.89    1.29
   0   6  -6  621.01   20.43
   0   6  -5   22.00    1.31
   0   6  -4     .59     .29
   0   6  -3  183.87    4.88
   0   6  -2  401.60   10.42
   0   6  -1   52.13    2.45
   0   6   0  173.71    6.33
   0   6   1   50.13    2.41
   0   6   2  392.83   13.87
   0   6   3  180.36    4.83
   0   6   4     .40     .50
   0   6   5   21.81    2.34
   0   6   6  608.12   24.66
   0   6   7   12.32    1.19
   0   6   8  112.15    6.14
   0   6   9  240.87   11.17
   0   6  10    2.99    1.11
   0   6  11   44.76    2.94
   0   6  12    1.49    1.10
   0   6  13  108.37   10.20
   0   6  14    9.99    2.53
   0   6  15   23.33    6.76
   0   6  16   26.21    4.51
   0   6  17     .40    2.78
   0   7 -17    1.30    3.19
   0   7 -16    2.89    4.79
   0   7 -15   53.44    3.51
   0   7 -14   23.43    3.19
   0   7 -13    5.20    1.41
   0   7 -12    2.19    1.51
   0   7 -11  179.29    9.11
   0   7 -10  132.02    5.74
   0   7  -9   36.84    2.31
   0   7  -8    4.41    1.39
   0   7  -7  107.95    4.16
   0   7  -6  289.34   10.55
   0   7  -5    6.30     .80
   0   7  -4   41.86    1.81
   0   7  -3  295.84    8.94
   0   7  -2    7.78     .73
   0   7  -1  631.01   21.60
   0   7   0    3.20    1.11
   0   7   1  672.88   21.79
   0   7   2    7.40    1.69
   0   7   3  295.15   12.03
   0   7   4   39.69    1.89
   0   7   5    5.62     .81
   0   7   6  266.02    8.81
   0   7   7  100.80    4.22
   0   7   8    6.20    1.00
   0   7   9   33.52    2.55
   0   7  10  132.02    5.52
   0   7  11  160.53   10.39
   0   7  12    -.40    1.40
   0   7  13    -.20    1.71
   0   7  14   10.37    2.51
   0   7  15   46.38    7.35
   0   7  16    1.00    3.70
   0   8 -16    -.20    3.32
   0   8 -15   20.70    2.73
   0   8 -14    8.29    2.02
   0   8 -13   10.37    1.80
   0   8 -12   25.00    1.80
   0   8 -11    9.49    1.79
   0   8 -10   97.81    4.15
   0   8  -9    1.49    1.10
   0   8  -8  113.85    4.27
   0   8  -7   38.69    2.24
   0   8  -6  205.92    8.61
   0   8  -5  363.66   12.20
   0   8  -4    8.58     .82
   0   8  -3   20.61    1.73
   0   8  -2  244.92   11.27
   0   8  -1  295.84   11.01
   0   8   0   14.29    1.51
   0   8   1  320.05   10.38
   0   8   2  227.41    7.54
   0   8   3   26.21    1.84
   0   8   4    7.08    1.38
   0   8   5  355.70   13.20
   0   8   6  199.66    7.63
   0   8   7   37.09    3.05
   0   8   8  104.65    4.91
   0   8   9    1.21    1.61
   0   8  10   90.06    4.93
   0   8  11   10.30    2.12
   0   8  12   20.61    2.09
   0   8  13    5.52    2.59
   0   8  14     .30    2.92
   0   9 -15    8.12    2.62
   0   9 -14   22.09    3.20
   0   9 -13    -.59    1.59
   0   9 -12    1.99    2.40
   0   9 -11    -.79    1.19
   0   9 -10   61.15    2.97
   0   9  -9    9.61    1.80
   0   9  -8   15.68    1.90
   0   9  -7  304.15   10.81
   0   9  -6    5.52     .89
   0   9  -5   53.58    3.37
   0   9  -4  111.51    5.49
   0   9  -3  454.97   17.06
   0   9  -2   14.98    1.78
   0   9  -1   65.77    2.76
   0   9   0     .79    1.30
   0   9   1   50.55    2.84
   0   9   2   14.21    1.51
   0   9   3  445.21   15.61
   0   9   4   96.04    4.90
   0   9   5   53.73    3.08
   0   9   6    4.71    1.09
   0   9   7  283.59   11.45
   0   9   8   15.21    1.72
   0   9   9    4.71    1.52
   0   9  10   61.62    7.06
   0   9  11    4.58    2.18
   0   9  12    1.80    1.50
   0   9  13    3.61   16.34
   0  10 -14    3.20    2.51
   0  10 -13    7.78    3.01
   0  10 -12   67.90    8.08
   0  10 -11   26.42    3.70
   0  10 -10   14.82    2.62
   0  10  -9   16.56    2.69
   0  10  -8    6.92    1.89
   0  10  -7    9.18    1.82
   0  10  -6   17.81    2.28
   0  10  -5   78.50    4.96
   0  10  -4   20.98    3.11
   0  10  -3   96.83    4.92
   0  10  -2  298.25   11.05
   0  10  -1  106.92    6.62
   0  10   0  111.51    5.07
   0  10   1  109.20    6.06
   0  10   2  298.94   11.41
   0  10   3  101.61    5.04
   0  10   4   18.66    1.99
   0  10   5   78.68    4.26
   0  10   6   14.90    2.39
   0  10   7   11.09    1.73
   0  10   8    6.00    1.62
   0  10   9    9.92    2.20
   0  10  10    9.99    1.77
   0  10  11   18.06    2.38
   0  10  12   37.33    9.65
   0  11 -13    -.71    2.30
   0  11 -12   39.44   10.30
   0  11 -11    5.71    5.31
   0  11 -10    6.20    4.88
   0  11  -9    -.30    1.80
   0  11  -8  141.61    9.28
   0  11  -7   66.75    6.05
   0  11  -6   26.11    2.96
   0  11  -5    -.59    2.28
   0  11  -4   42.64    4.57
   0  11  -3   27.56    2.94
   0  11  -2   13.10    1.81
   0  11  -1   -1.00    1.10
   0  11   0     .20    1.11
   0  11   1   -1.10    1.81
   0  11   2   15.68    1.90
   0  11   3   36.84    3.64
   0  11   4   32.95    3.21
   0  11   5    1.21    1.10
   0  11   6   22.56    2.38
   0  11   7   66.75    4.74
   0  11   8  129.50    9.33
   0  11   9    2.50    1.61
   0  11  10    1.80    2.09
   0  11  11    4.41    3.70
   0  11  12   48.44    7.93
   0  12 -12   10.11    7.63
   0  12 -11   16.89    5.84
   0  12 -10   20.43    5.06
   0  12  -9   11.29    3.29
   0  12  -8    3.88    2.29
   0  12  -7   96.04    9.21
   0  12  -6    8.18    2.29
   0  12  -5   12.32    2.81
   0  12  -4   25.00    2.10
   0  12  -3  170.82    9.41
   0  12  -2   10.18    3.32
   0  12  -1   18.49    1.89
   0  12   0    9.00    2.88
   0  12   1   14.36    1.89
   0  12   2    6.20    1.99
   0  12   3  136.19    9.34
   0  12   4   24.90    2.99
   0  12   5   11.02    1.59
   0  12   6     .40    1.99
   0  12   7   88.55    8.28
   0  12   8    -.50    2.00
   0  12   9    7.51    4.33
   0  12  10   14.06    3.60
   0  12  11    5.38    3.57
   0  13 -11    3.88    4.29
   0  13 -10   -5.62    3.70
   0  13  -9    8.18    4.40
   0  13  -8   61.00    6.40
   0  13  -7    4.08    5.37
   0  13  -6   11.70    3.01
   0  13  -5    2.89    2.58
   0  13  -4    6.81    1.88
   0  13  -3    3.80    2.42
   0  13  -2    4.00    2.72
   0  13  -1   -1.00    2.40
   0  13   0    -.40    1.50
   0  13   1   -1.39    2.10
   0  13   2    -.30    5.42
   0  13   3    2.40    2.11
   0  13   4    5.71    1.91
   0  13   5    1.69    1.79
   0  13   6    7.78    4.58
   0  13   7   -2.10    3.02
   0  13   8   63.36    7.16
   0  13   9   12.53    5.59
   0  13  10    -.90    4.01
   0  13  11   14.59   11.46
   0  14  -9    7.62    3.31
   0  14  -8    3.10    4.68
   0  14  -7   43.69    5.68
   0  14  -6   17.47    4.10
   0  14  -5    4.49    2.50
   0  14  -4    4.49    3.60
   0  14  -3   53.14    6.27
   0  14  -2   30.58    4.31
   0  14  -1   61.47    6.74
   0  14   0   11.83    2.27
   0  14   1   46.65    5.19
   0  14   2   25.30    3.92
   0  14   3   68.72    7.96
   0  14   4    4.49    4.11
   0  14   5    5.71    3.30
   0  14   6   22.18    8.29
   0  14   7   45.83    8.53
   0  14   8   -3.39    4.89
   0  14   9   11.09    7.93
   0  15  -7   14.59    5.81
   0  15  -6   18.49    5.16
   0  15  -5   -2.50    2.50
   0  15  -4    7.18    2.52
   0  15  -3    2.19    2.60
   0  15  -2    -.20    3.92
   0  15  -1   17.14    4.97
   0  15   0    1.59    4.79
   0  15   1    9.80    3.88
   0  15   2    5.02    5.51
   0  15   3   -1.21    4.93
   0  15   4   19.62    5.32
   0  15   5    7.29    3.78
   0  15   6    7.02    9.22
   0  15   7   12.53    5.31
   0  16  -3    6.81    6.21
   0  16  -2   31.14    8.26
   0  16  -1   26.32    6.57
   0  16   0    9.49    9.98
   0  16   1   46.51   24.14
   1 -13 -11     .40    4.69
   1 -13 -10   10.69    5.69
   1 -13  -9   20.34    3.88
   1 -13  -8    8.12    3.70
   1 -13  -7   16.32    3.07
   1 -12 -12    3.80    6.20
   1 -12 -11   69.56    8.17
   1 -12 -10   38.69    5.85
   1 -12  -9   36.72    6.42
   1 -12  -8   54.61    4.14
   1 -12  -7   66.59    8.32
   1 -12  -6   75.52    8.17
   1 -12  -5   13.40    5.71
   1 -12  -4  177.42   12.52
   1 -12  -3   70.90    6.57
   1 -11 -13   54.32    6.63
   1 -11 -12   -1.39    2.38
   1 -11 -11   18.23    3.67
   1 -11 -10   13.40    4.03
   1 -11  -9   63.84    6.39
   1 -11  -8    7.02    2.38
   1 -11  -7    6.60    3.91
   1 -11  -6  132.25   12.42
   1 -11  -5   22.09    6.96
   1 -11  -4   84.64   31.28
   1 -11  -3   20.70    2.37
   1 -11  -2  191.82   15.51
   1 -11  -1   78.85    8.17
   1 -11   0   65.29    5.82
   1 -10 -14    6.30    2.91
   1 -10 -13   37.95   11.95
   1 -10 -12   41.86   11.26
   1 -10 -11  130.64   13.94
   1 -10 -10   13.03    3.18
   1 -10  -9  110.25   11.97
   1 -10  -8   16.32    2.50
   1 -10  -7   77.44    8.45
   1 -10  -6    1.59    1.99
   1 -10  -5   10.89    1.78
   1 -10  -4   60.53    4.36
   1 -10  -3   30.36    3.64
   1 -10  -2    6.30    1.51
   1 -10  -1    2.40    1.12
   1 -10   0  226.80   18.67
   1 -10   1     .90    1.01
   1  -9 -15   15.21    4.68
   1  -9 -14   79.03   10.31
   1  -9 -13    4.28    7.70
   1  -9 -12   18.84    3.30
   1  -9 -11    6.92    2.31
   1  -9 -10   62.57    6.17
   1  -9  -9  123.65   28.91
   1  -9  -8   35.05    2.84
   1  -9  -7   32.95    3.44
   1  -9  -6   53.44    5.26
   1  -9  -5   86.86    7.27
   1  -9  -4   90.63    6.09
   1  -9  -3   30.36    7.71
   1  -9  -2  250.91   15.21
   1  -9  -1   44.89    2.95
   1  -9   0  222.90   12.24
   1  -9   1   43.56    2.90
   1  -8 -16    8.18    6.46
   1  -8 -15   24.90    4.59
   1  -8 -14   22.28    2.93
   1  -8 -13   16.40    3.40
   1  -8 -12   70.22    6.03
   1  -8 -11   56.40    5.86
   1  -8 -10    6.00    1.81
   1  -8  -9   62.88    9.36
   1  -8  -8   60.53    3.73
   1  -8  -7  109.41    7.32
   1  -8  -6  182.52   13.51
   1  -8  -5  172.92   13.68
   1  -8  -4   31.25    3.02
   1  -8  -3   43.69    3.70
   1  -8  -2   10.50    2.01
   1  -8  -1   29.38    2.82
   1  -8   0    1.59     .91
   1  -8   1   27.14    1.77
   1  -7 -16    4.58    4.88
   1  -7 -15    1.90    2.70
   1  -7 -14   16.08    2.49
   1  -7 -13   16.81    2.62
   1  -7 -12   81.36    5.95
   1  -7 -11  106.30    6.80
   1  -7 -10  130.42    9.14
   1  -7  -9   27.56    2.52
   1  -7  -8   83.17    5.65
   1  -7  -7  106.50    5.37
   1  -7  -6   60.68    4.36
   1  -7  -5    6.60     .93
   1  -7  -4  268.96   12.14
   1  -7  -3  125.44    8.96
   1  -7  -2  115.35    5.58
   1  -7  -1  150.55    8.10
   1  -7   0  318.62   16.42
   1  -7   1  148.11    7.30
   1  -7   2   87.05   13.44
   1  -6 -17   16.40    3.48
   1  -6 -16   29.48    3.91
   1  -6 -15   47.61    7.59
   1  -6 -14   34.22    4.21
   1  -6 -13   54.61    5.32
   1  -6 -12   60.37    6.37
   1  -6 -11    8.18    1.77
   1  -6 -10   27.35    3.66
   1  -6  -9   91.78    6.32
   1  -6  -8  141.37    9.04
   1  -6  -7   22.00    1.78
   1  -6  -6   47.06    3.43
   1  -6  -5  290.02   16.01
   1  -6  -4  113.85    7.26
   1  -6  -3   65.93    4.06
   1  -6  -2  803.16   45.34
   1  -6  -1  161.04    7.11
   1  -6   0  224.70    9.89
   1  -6   1  171.35    6.55
   1  -5 -17    5.29    3.82
   1  -5 -16    5.29    2.30
   1  -5 -15    1.80    6.00
   1  -5 -14     .40    2.39
   1  -5 -13   20.16    1.89
   1  -5 -12   39.31    2.76
   1  -5 -11   14.21    2.34
   1  -5 -10   12.67    1.57
   1  -5  -9  122.32    5.97
   1  -5  -8    3.80    1.29
   1  -5  -7  522.58   26.52
   1  -5  -6  139.71   49.41
   1  -5  -5  564.06   29.45
   1  -5  -4  208.22   10.10
   1  -5  -3  464.40   20.69
   1  -5  -2  190.44   10.21
   1  -5  -1  341.51   12.94
   1  -5   0  476.55   20.08
   1  -5   1  347.82   17.16
   1  -5   8    4.08    2.18
   1  -5   9  128.37   10.42
   1  -5  10    8.70    3.19
   1  -5  11   33.29    4.50
   1  -5  12   33.76    3.95
   1  -5  13   27.88    7.71
   1  -4 -18    4.28    3.60
   1  -4 -17   12.89    3.30
   1  -4 -16    8.29    3.51
   1  -4 -15    8.70    2.12
   1  -4 -14   47.06    3.43
   1  -4 -13   16.16    1.53
   1  -4 -12   91.20    5.92
   1  -4 -11   41.86    1.94
   1  -4 -10  183.87    5.97
   1  -4  -9   70.06    2.85
   1  -4  -8  115.99    3.45
   1  -4  -7   13.32     .88
   1  -4  -6  157.50    5.02
   1  -4  -5  157.00    7.27
   1  -4  -4  173.98    7.91
   1  -4  -3  773.95   49.52
   1  -4  -2  805.42   39.73
   1  -4  -1   72.93    3.59
   1  -4   0  743.11   37.07
   1  -4   1   62.73    3.01
   1  -4   5  166.15   10.57
   1  -4   6  146.17    7.01
   1  -4   7   17.22    3.24
   1  -4   8  101.61    6.05
   1  -4  10  162.56   10.45
   1  -4  11   36.60    3.15
   1  -4  12   77.62    7.22
   1  -4  13   17.81    2.79
   1  -4  14   49.98    4.95
   1  -4  15    3.80    3.51
   1  -4  16    1.99    2.20
   1  -3 -18     .79    3.28
   1  -3 -17    6.40    2.88
   1  -3 -16    7.40    2.18
   1  -3 -15   22.75    2.86
   1  -3 -14    2.31    1.00
   1  -3 -13   47.47    2.62
   1  -3 -12  114.70    4.71
   1  -3 -11   40.20    2.16
   1  -3 -10   97.22    3.16
   1  -3  -9   40.96    1.54
   1  -3  -8  298.94    8.65
   1  -3  -7  244.30    5.94
   1  -3  -6   26.94    1.35
   1  -3  -5  348.94    8.97
   1  -3  -4  781.76   22.93
   1  -3  -3  934.52   32.40
   1  -3  -2  101.20    5.03
   1  -3  -1 1137.04   37.77
   1  -3   0  484.88   20.70
   1  -3   1 1159.40   45.63
   1  -3   3  929.64   48.78
   1  -3   4  796.37   47.97
   1  -3   5  345.22   21.92
   1  -3   6   33.87    2.44
   1  -3   7  246.49   10.99
   1  -3   8  311.88   14.83
   1  -3   9   37.09    3.05
   1  -3  10   81.36    5.23
   1  -3  11   39.44    3.01
   1  -3  12  101.40    7.45
   1  -3  13   40.96    4.35
   1  -3  14    2.69    3.51
   1  -3  15   23.23    4.05
   1  -3  16   -1.10    2.79
   1  -3  17    3.20    3.62
   1  -3  18    5.52    3.99
   1  -2 -18    4.28    2.48
   1  -2 -17    8.29    2.88
   1  -2 -16    2.69    2.59
   1  -2 -15   36.60    3.75
   1  -2 -14   46.92    3.15
   1  -2 -13   86.86    4.10
   1  -2 -12   16.56    1.06
   1  -2 -11   17.72    1.26
   1  -2 -10  198.25    6.20
   1  -2  -9    4.00     .80
   1  -2  -8  358.72    9.85
   1  -2  -7  118.59    3.05
   1  -2  -6 1215.92   36.96
   1  -2  -5   94.28    3.69
   1  -2  -4  613.55   17.34
   1  -2  -3  419.43   11.47
   1  -2  -2   91.01    2.48
   1  -2  -1  107.33    3.32
   1  -2   0  108.78    3.96
   1  -2   1  100.20    3.60
   1  -2   2  101.00    4.42
   1  -2   3  426.84   21.07
   1  -2   4  636.55   35.32
   1  -2   5  101.61    4.64
   1  -2   6 1212.43   55.71
   1  -2   7  130.19    5.70
   1  -2   8  356.83   14.36
   1  -2   9    2.19    1.39
   1  -2  10  205.35    9.46
   1  -2  11   16.56    2.36
   1  -2  12   16.32    2.18
   1  -2  13   81.36    7.22
   1  -2  14   61.94    8.03
   1  -2  15   28.52   23.50
   1  -2  16     .30    3.01
   1  -2  17   13.03    6.43
   1  -2  18    5.90    4.71
   1  -1 -18   18.40    2.83
   1  -1 -17   -1.00    2.10
   1  -1 -16   59.75    4.33
   1  -1 -15   51.70    4.75
   1  -1 -14   10.89    1.12
   1  -1 -13   50.27    2.55
   1  -1 -12   70.90    3.03
   1  -1 -11    6.71     .88
   1  -1 -10    9.80     .81
   1  -1  -9  115.13    3.43
   1  -1  -8  114.49    3.64
   1  -1  -7   78.32    2.48
   1  -1  -6   85.93    2.60
   1  -1  -5  688.54   20.99
   1  -1  -4  524.87   14.20
   1  -1  -3  867.89   19.44
   1  -1  -2  205.06    6.59
   1  -1  -1  689.59   26.26
   1  -1   0    3.50     .30
   1  -1   1  729.00   27.54
   1  -1   2  197.68    7.87
   1  -1   3  854.98   53.22
   1  -1   4  528.08   37.69
   1  -1   5  662.03   39.11
   1  -1   6   87.24    6.35
   1  -1   7   79.57    3.57
   1  -1   8  111.09    5.69
   1  -1   9  123.21    6.44
   1  -1  10    9.12    2.42
   1  -1  11   12.89    7.61
   1  -1  12   75.86    4.53
   1  -1  13   54.32    4.13
   1  -1  14   14.29    3.78
   1  -1  15   34.93    5.20
   1  -1  16   59.29    6.93
   1  -1  17    -.90    3.10
   1  -1  18   13.10    3.48
   1   0 -18   13.69    4.22
   1   0 -17   45.70    4.60
   1   0 -16    6.71    2.02
   1   0 -15    5.02    1.30
   1   0 -14   86.68    5.40
   1   0 -13   76.74    3.85
   1   0 -12   20.07    1.25
   1   0 -11  332.70   10.58
   1   0 -10   85.01    3.50
   1   0  -9  215.50    6.17
   1   0  -8   36.48    1.57
   1   0  -7  275.23    8.30
   1   0  -6  241.80    7.15
   1   0  -5  102.82    3.45
   1   0  -4    9.61     .37
   1   0  -3  185.50    4.90
   1   0  -2  140.90    4.04
   1   0  -1  195.72    6.16
   1   0   0     .40     .10
   1   0   1  196.00    5.32
   1   0   2  145.44    4.34
   1   0   3  189.61    6.61
   1   0   4    9.18     .61
   1   0   5  101.40    3.83
   1   0   6  247.43    9.44
   1   0   7  259.21   11.59
   1   0   8   47.06    7.82
   1   0   9  219.63   11.26
   1   0  10   70.56    3.86
   1   0  11  337.09   20.20
   1   0  12   24.21    3.54
   1   0  13   82.63    6.36
   1   0  14   94.28    5.63
   1   0  15    3.80    1.91
   1   0  16    7.40    3.70
   1   0  17   26.21    6.55
   1   0  18   16.81    5.00
   1   1 -18   14.06    2.48
   1   1 -17    -.10    1.62
   1   1 -16   66.26    4.07
   1   1 -15   38.94    2.50
   1   1 -14   19.89    3.39
   1   1 -13   49.14    2.10
   1   1 -12   69.06    2.99
   1   1 -11    5.71     .72
   1   1 -10   10.50     .78
   1   1  -9  119.68    3.72
   1   1  -8  117.94    3.48
   1   1  -7   83.91    3.11
   1   1  -6   91.01    2.67
   1   1  -5  696.43   16.36
   1   1  -4  533.61   15.25
   1   1  -3  847.97   20.38
   1   1  -2  194.32    5.30
   1   1  -1  702.78   26.51
   1   1   0    3.80     .31
   1   1   1  731.70   29.75
   1   1   2  203.06    7.12
   1   1   3  845.65   27.92
   1   1   4  530.38   16.58
   1   1   5  692.74   24.74
   1   1   6   94.09    3.88
   1   1   7   83.54    4.02
   1   1   8  116.64    4.32
   1   1   9  117.72    4.77
   1   1  10   12.60    6.60
   1   1  11   57.15  104.63
   1   1  12   58.22    4.73
   1   1  13   51.55    4.45
   1   1  14    8.01    2.89
   1   1  15   29.48    4.02
   1   1  16   46.24    5.71
   1   1  17    9.00    4.20
   1   1  18   20.34    7.22
   1   2 -18    9.18    3.39
   1   2 -17    8.82    1.78
   1   2 -16    1.99    1.69
   1   2 -15   34.11    2.22
   1   2 -14   49.00    2.66
   1   2 -13   86.86    3.73
   1   2 -12   14.90    1.08
   1   2 -11   17.14    1.24
   1   2 -10  209.38    7.81
   1   2  -9    4.20     .49
   1   2  -8  368.64   12.67
   1   2  -7  123.65    3.56
   1   2  -6 1224.30   38.49
   1   2  -5   93.90    3.49
   1   2  -4  631.52   20.10
   1   2  -3  428.90   11.18
   1   2  -2   98.41    3.17
   1   2  -1   98.01    4.36
   1   2   0  109.41    4.60
   1   2   1  113.21    3.83
   1   2   2   91.58    3.45
   1   2   3  433.06   14.15
   1   2   4  634.54   22.17
   1   2   5  102.41    2.83
   1   2   6 1246.80   43.08
   1   2   7  116.64    4.10
   1   2   8  373.26   13.91
   1   2   9    4.49     .81
   1   2  10  205.64    7.17
   1   2  11   21.62    1.86
   1   2  12   13.91    1.87
   1   2  13   87.80    5.81
   1   2  14   49.14    5.61
   1   2  15   37.21    4.76
   1   2  16    -.79    2.19
   1   2  17   13.03    4.12
   1   2  18   13.10    5.00
   1   3 -18   -2.19    3.29
   1   3 -17     .00    1.00
   1   3 -16    2.19    2.78
   1   3 -15   22.18    1.51
   1   3 -14    3.80    1.01
   1   3 -13   43.69    2.12
   1   3 -12  117.51    3.69
   1   3 -11   36.24    1.93
   1   3 -10   89.68    3.03
   1   3  -9   41.73    1.81
   1   3  -8  317.91    8.20
   1   3  -7  246.18    7.22
   1   3  -6   33.99    1.40
   1   3  -5  348.57   11.20
   1   3  -4  809.97   24.48
   1   3  -3  946.18   24.61
   1   3  -2  104.45    4.09
   1   3  -1 1118.90   41.48
   1   3   0  470.89   19.96
   1   3   1 1118.90   36.80
   1   3   2  106.92    3.31
   1   3   3  946.79   46.15
   1   3   4  786.24   28.60
   1   3   5  334.52   12.07
   1   3   6   28.41    1.92
   1   3   7  249.96    8.54
   1   3   8  301.02   10.76
   1   3   9   40.20    2.03
   1   3  10   93.90    5.04
   1   3  11   35.28    2.38
   1   3  12  111.30    5.70
   1   3  13   47.06    4.94
   1   3  14    -.59    2.28
   1   3  15   23.91    3.62
   1   3  16    2.10    2.49
   1   3  17   11.90    5.52
   1   3  18    7.40    4.79
   1   4 -18    4.08    2.71
   1   4 -17   18.66    3.63
   1   4 -16    4.08    2.59
   1   4 -15    8.53    1.40
   1   4 -14   49.84    2.97
   1   4 -13   16.89    1.40
   1   4 -12   85.19    3.88
   1   4 -11   42.25    2.08
   1   4 -10  182.25    6.21
   1   4  -9   76.04    2.79
   1   4  -8  113.00    3.83
   1   4  -7    9.99    1.01
   1   4  -6  156.00    5.00
   1   4  -5  171.61    4.72
   1   4  -4  170.82    4.18
   1   4  -3  767.29   21.61
   1   4  -2  738.75   22.83
   1   4  -1   61.47    2.67
   1   4   0  729.54   30.25
   1   4   1   68.06    2.81
   1   4   2  795.80   24.82
   1   4   3  773.40   24.47
   1   4   4  168.48    5.97
   1   4   5  162.31    6.62
   1   4   6  151.78    5.42
   1   4   7    9.42    1.29
   1   4   8  108.99    3.97
   1   4   9   75.34    2.95
   1   4  10  189.61    6.33
   1   4  11   35.64    2.75
   1   4  12   85.93    5.01
   1   4  13   19.71    3.29
   1   4  14   43.96    5.83
   1   4  15   10.69    3.20
   1   4  16    1.39    3.49
   1   4  17   14.52    5.11
   1   4  18    4.08    3.11
   1   5 -17   11.02    3.52
   1   5 -16    2.40    2.91
   1   5 -15    2.50    1.49
   1   5 -14    3.69    1.69
   1   5 -13   23.04    1.82
   1   5 -12   32.60    2.86
   1   5 -11   19.71    1.24
   1   5 -10   11.90     .97
   1   5  -9  125.89    4.49
   1   5  -8    3.20     .79
   1   5  -7  558.38   16.54
   1   5  -6  138.77    6.60
   1   5  -5  563.11   12.81
   1   5  -4  225.60    4.21
   1   5  -3  486.64   15.44
   1   5  -2  192.10    6.93
   1   5  -1  348.94   10.46
   1   5   0  460.10   22.31
   1   5   1  328.33   11.23
   1   5   2  181.17    6.19
   1   5   3  476.99   15.29
   1   5   4  208.22    7.22
   1   5   5  536.39   18.53
   1   5   6  123.21    6.22
   1   5   7  550.84   17.84
   1   5   8    1.30     .80
   1   5   9  122.10    5.08
   1   5  10   10.30    1.22
   1   5  11   16.97    1.81
   1   5  12   39.44    3.52
   1   5  13   23.43    3.29
   1   5  14     .50    4.12
   1   5  15    7.90    7.19
   1   5  16   11.83    7.29
   1   5  17   11.49    5.97
   1   6 -17   10.37   13.40
   1   6 -16   32.49    4.45
   1   6 -15   45.83    3.25
   1   6 -14   27.77    2.53
   1   6 -13   66.10    4.23
   1   6 -12   61.15    3.13
   1   6 -11    7.67    1.38
   1   6 -10   29.38    1.41
   1   6  -9  111.72    5.28
   1   6  -8  128.82    4.99
   1   6  -7   16.48     .89
   1   6  -6   48.44    1.53
   1   6  -5  307.65    9.47
   1   6  -4  113.64    4.05
   1   6  -3   77.44    3.34
   1   6  -2  776.74   22.85
   1   6  -1  159.26    5.81
   1   6   0  214.04    8.78
   1   6   1  159.26    5.05
   1   6   2  750.21   29.03
   1   6   3   72.42    5.11
   1   6   4  111.30    3.80
   1   6   5  297.91   11.05
   1   6   6   39.94    2.28
   1   6   7   21.34    1.57
   1   6   8  114.28    4.92
   1   6   9   92.74    3.66
   1   6  10   22.75    1.91
   1   6  11    7.18    1.29
   1   6  12   57.61    4.10
   1   6  13   56.85    4.37
   1   6  14   20.88    3.20
   1   6  15   45.56    5.94
   1   6  16   29.59    4.35
   1   6  17    2.79    3.21
   1   7 -17   13.40    4.68
   1   7 -16   10.63    4.43
   1   7 -15    5.38    2.09
   1   7 -14   13.99    2.09
   1   7 -13   11.29    1.81
   1   7 -12   82.81    4.55
   1   7 -11  100.20    5.41
   1   7 -10  129.96    6.61
   1   7  -9   18.84    2.08
   1   7  -8   89.68    3.79
   1   7  -7  110.88    4.21
   1   7  -6   65.12    2.74
   1   7  -5    7.51    1.21
   1   7  -4  258.89    9.65
   1   7  -3  106.50    4.33
   1   7  -2  103.43    4.27
   1   7  -1  132.94    5.30
   1   7   0  281.57   10.07
   1   7   1  138.30    4.94
   1   7   2  102.01    4.44
   1   7   3  117.29    4.98
   1   7   4  244.61    8.76
   1   7   5    6.40    1.52
   1   7   6   59.91    2.48
   1   7   7  100.40    3.81
   1   7   8   74.48    3.28
   1   7   9   22.00    1.88
   1   7  10  125.44    5.60
   1   7  11   85.56    5.55
   1   7  12   89.68    5.49
   1   7  13    8.70    2.60
   1   7  14   19.54    2.83
   1   7  15    3.39    3.50
   1   7  16   21.07    7.07
   1   7  17   34.93    9.46
   1   8 -16    8.01    5.09
   1   8 -15   27.77    3.69
   1   8 -14   18.84    3.39
   1   8 -13   14.98    2.17
   1   8 -12   65.29    3.56
   1   8 -11   65.12    3.87
   1   8 -10    1.69    1.20
   1   8  -9   67.73    4.44
   1   8  -8   59.44    2.78
   1   8  -7  111.51    5.28
   1   8  -6  189.61    9.64
   1   8  -5  163.33    6.65
   1   8  -4   35.64    2.27
   1   8  -3   25.60    2.33
   1   8  -2    8.12    1.42
   1   8  -1   21.81    1.77
   1   8   0    1.69    1.30
   1   8   1   25.60    2.02
   1   8   2    8.70    1.48
   1   8   3   40.20    3.04
   1   8   4   28.84    1.83
   1   8   5  165.12    6.94
   1   8   6  189.89    8.82
   1   8   7  103.23    5.28
   1   8   8   55.35    3.42
   1   8   9   64.64    3.54
   1   8  10    5.02    1.61
   1   8  11   56.25    3.30
   1   8  12   59.60    4.48
   1   8  13   12.11    2.23
   1   8  14   22.37    5.01
   1   8  15   16.00    4.80
   1   8  16    2.69    4.59
   1   9 -15   13.62    2.58
   1   9 -14   75.17    5.72
   1   9 -13    9.80    2.50
   1   9 -12   13.62    1.99
   1   9 -11     .59    2.28
   1   9 -10   50.55    4.27
   1   9  -9  102.62    7.09
   1   9  -8   31.81    3.16
   1   9  -7   35.76    2.63
   1   9  -6   43.96    2.92
   1   9  -5   79.03    3.73
   1   9  -4   85.56    4.44
   1   9  -3   20.98    2.20
   1   9  -2  225.60    7.81
   1   9  -1   36.24    2.05
   1   9   0  195.16    6.71
   1   9   1   33.18    1.84
   1   9   2  231.04    9.73
   1   9   3   21.90    1.78
   1   9   4   85.01    4.06
   1   9   5   76.21    4.19
   1   9   6   35.76    2.63
   1   9   7   29.70    2.07
   1   9   8   25.70    2.33
   1   9   9   92.54    4.62
   1   9  10   53.00    3.64
   1   9  11    1.30    1.50
   1   9  12   13.91    2.39
   1   9  13   10.11    3.63
   1   9  14   81.18    9.73
   1   9  15    9.12    4.29
   1  10 -14   10.30    3.98
   1  10 -13   32.15    4.08
   1  10 -12    8.41    1.91
   1  10 -11  137.12   13.58
   1  10 -10    9.99    4.42
   1  10  -9  121.44    7.71
   1  10  -8   16.32    2.18
   1  10  -7   80.82    4.85
   1  10  -6     .79    1.30
   1  10  -5    3.88    2.09
   1  10  -4   54.46    3.54
   1  10  -3   25.60    2.63
   1  10  -2    8.18    3.72
   1  10  -1    2.99    1.31
   1  10   0  205.64    8.89
   1  10   1    -.40     .89
   1  10   2    4.28    1.28
   1  10   3   28.62    2.14
   1  10   4   58.06    3.20
   1  10   5    6.71    1.50
   1  10   6     .30    1.51
   1  10   7   65.45    4.05
   1  10   8   13.10    2.32
   1  10   9  110.04    6.29
   1  10  10   10.50    2.20
   1  10  11  127.01   11.72
   1  10  12    9.12    1.99
   1  10  13   19.36   12.76
   1  10  14     .10    4.86
   1  11 -13   52.56    5.07
   1  11 -12    1.90    3.81
   1  11 -11   31.25    7.60
   1  11 -10    6.50    4.08
   1  11  -9   61.47    5.33
   1  11  -8    9.12    2.90
   1  11  -7    6.81    3.50
   1  11  -6  128.60    7.48
   1  11  -5   15.76    2.38
   1  11  -4   56.10    3.74
   1  11  -3   15.68    3.01
   1  11  -2  159.01    8.57
   1  11  -1   74.82    4.32
   1  11   0   71.06    4.72
   1  11   1   78.68    4.79
   1  11   2  165.12    6.17
   1  11   3   16.81    2.13
   1  11   4   54.76    3.55
   1  11   5   18.23    2.90
   1  11   6  128.37    7.70
   1  11   7    7.62    1.88
   1  11   8    5.62    2.09
   1  11   9   61.62    5.49
   1  11  10    6.92    2.58
   1  11  11    9.12    2.42
   1  11  12    4.80    2.41
   1  12 -12    1.59    3.68
   1  12 -11   68.89   12.95
   1  12 -10   27.56    9.14
   1  12  -9   25.10    5.41
   1  12  -8   48.72    3.91
   1  12  -7   63.52    5.26
   1  12  -6   66.42    5.38
   1  12  -5    9.80    4.01
   1  12  -4  139.48    8.98
   1  12  -3   71.06    5.06
   1  12  -2    3.39    1.99
   1  12  -1    3.39    2.10
   1  12   0   57.61    4.40
   1  12   1    2.10    1.60
   1  12   2    1.80    2.20
   1  12   3   63.52    4.46
   1  12   4  155.50    7.23
   1  12   5    5.52    3.38
   1  12   6   58.37    4.74
   1  12   7   56.25    5.25
   1  12   8   44.09    4.25
   1  12   9   28.30    3.62
   1  12  10   21.72    3.54
   1  12  11   42.51   13.17
   1  12  12    4.80    2.98
   1  13 -11    5.11    6.28
   1  13 -10   16.32    8.08
   1  13  -9    7.08    3.78
   1  13  -8   10.37    3.61
   1  13  -7   14.98    4.41
   1  13  -6   62.57    6.01
   1  13  -5   55.95    5.24
   1  13  -4   11.83    3.58
   1  13  -3   29.05    2.80
   1  13  -2  111.30    6.96
   1  13  -1   65.12    5.16
   1  13   0   33.99    4.20
   1  13   1   75.34    5.73
   1  13   2   99.60    5.39
   1  13   3   31.14    3.57
   1  13   4   12.89    2.58
   1  13   5   47.75    5.53
   1  13   6   58.83    5.68
   1  13   7   13.03    3.10
   1  13   8    9.67    4.17
   1  13   9   16.97    6.43
   1  13  10   12.53    5.52
   1  13  11    3.69    6.37
   1  14  -9   55.50   17.13
   1  14  -8   28.20    5.95
   1  14  -7   33.87    3.84
   1  14  -6    1.99    4.29
   1  14  -5   17.81    4.64
   1  14  -4   18.40    2.83
   1  14  -3   15.52    4.10
   1  14  -2     .30    2.01
   1  14  -1     .20    1.81
   1  14   0   77.44    6.34
   1  14   1    2.50    1.99
   1  14   2    -.59    2.48
   1  14   3   14.29    2.80
   1  14   4   16.81    3.77
   1  14   5    8.12    2.51
   1  14   6    6.30    2.51
   1  14   7   37.58    9.69
   1  14   8   17.22    5.98
   1  14   9   30.14   24.70
   1  15  -7   18.06    8.41
   1  15  -6   14.06    6.97
   1  15  -5   35.16    5.69
   1  15  -4   34.57    8.47
   1  15  -3   11.22    4.02
   1  15  -2   32.04    4.87
   1  15  -1   12.82    3.72
   1  15   0    7.67    3.88
   1  15   1    8.01    3.00
   1  15   2   34.93    4.85
   1  15   3   10.30    3.72
   1  15   4   16.00    3.68
   1  15   5   51.27    7.88
   1  15   6   13.47    8.07
   1  16  -2    4.49    5.51
   1  16  -1    -.40    2.19
   1  16   0   15.29    3.99
   2 -13 -10   36.24    5.54
   2 -13  -9   29.59    5.98
   2 -13  -8    4.58    2.78
   2 -13  -7    7.08    6.70
   2 -13  -6   19.10    3.41
   2 -13  -5   60.22    9.93
   2 -12 -12    9.99    6.00
   2 -12 -11    4.80    2.89
   2 -12 -10   61.78    8.17
   2 -12  -9   17.64    5.04
   2 -12  -8    1.21    3.01
   2 -12  -7    4.28    4.60
   2 -12  -6   43.96   13.66
   2 -12  -5   45.29    3.63
   2 -12  -4    4.80    3.42
   2 -12  -3   11.63    2.52
   2 -12  -2    6.10    2.91
   2 -11 -13   16.08    5.61
   2 -11 -12    5.90    2.82
   2 -11 -11    5.38    3.48
   2 -11 -10   65.93    7.63
   2 -11  -9   46.92    5.07
   2 -11  -8    4.71    2.08
   2 -11  -7   33.29    3.81
   2 -11  -6   55.06    5.34
   2 -11  -5   84.82    8.47
   2 -11  -4   53.14    4.67
   2 -11  -3   31.92    3.05
   2 -11  -2   10.11    2.93
   2 -11  -1   68.72    6.13
   2 -11   0   47.06    4.25
   2 -10 -14   32.83    4.81
   2 -10 -13    8.88    3.58
   2 -10 -12   14.06    9.67
   2 -10 -11    6.50    4.59
   2 -10 -10   62.41    7.58
   2 -10  -9   41.34    4.24
   2 -10  -8   12.18   13.82
   2 -10  -7   60.84    5.46
   2 -10  -6   24.01    2.94
   2 -10  -5  111.30    9.28
   2 -10  -4   22.94    2.49
   2 -10  -3   67.24    6.07
   2 -10  -2   47.75    3.32
   2 -10  -1  109.20    6.90
   2 -10   0  146.65   10.17
   2 -10   1   97.61    6.52
   2  -9 -15   -2.69    3.08
   2  -9 -14   20.52    3.26
   2  -9 -13    6.00    2.89
   2  -9 -12   68.23    8.43
   2  -9 -11   23.62    3.11
   2  -9 -10   49.14    4.49
   2  -9  -9   71.40   14.53
   2  -9  -8   48.86    4.19
   2  -9  -7   34.22    3.39
   2  -9  -6   84.82    5.71
   2  -9  -5  164.10   11.79
   2  -9  -4   91.39    6.12
   2  -9  -3  198.25   14.92
   2  -9  -2   30.47    2.32
   2  -9  -1   90.44    4.95
   2  -9   0  361.00   21.66
   2  -9   1   90.44    4.76
   2  -8 -15     .79    1.99
   2  -8 -14   19.71    3.82
   2  -8 -13   23.52    3.20
   2  -8 -12   50.69   14.10
   2  -8 -11    5.20    4.70
   2  -8 -10   48.86    3.91
   2  -8  -9  121.22    7.93
   2  -8  -8  175.03   12.44
   2  -8  -7   19.62    3.37
   2  -8  -6   52.27    3.18
   2  -8  -5  154.50    9.45
   2  -8  -4  155.25    6.98
   2  -8  -3  306.25   20.30
   2  -8  -2   16.00    1.28
   2  -8  -1  115.78    5.60
   2  -8   0   52.71    2.76
   2  -8   1  125.89    9.42
   2  -7 -16    7.29    4.48
   2  -7 -15   37.45    6.00
   2  -7 -14    8.41    2.78
   2  -7 -13   90.06    5.88
   2  -7 -12   21.34    2.59
   2  -7 -11   24.21    3.64
   2  -7 -10   15.68    2.38
   2  -7  -9    6.00    2.01
   2  -7  -8  196.28   10.09
   2  -7  -7  102.62    8.71
   2  -7  -6    7.78    2.40
   2  -7  -5  115.56    6.02
   2  -7  -4  219.63   10.08
   2  -7  -3  136.42    7.71
   2  -7  -2   55.95    4.79
   2  -7  -1  473.06   28.71
   2  -7   0  113.85    7.04
   2  -7   1  492.40   24.85
   2  -6 -17    6.92    4.00
   2  -6 -16   41.99    7.91
   2  -6 -15   18.66    3.89
   2  -6 -14    -.50    2.31
   2  -6 -13   89.87    6.83
   2  -6 -12   69.56    7.17
   2  -6 -11  110.88    7.79
   2  -6 -10    5.62    1.90
   2  -6  -9  171.87    8.13
   2  -6  -8  161.54    9.41
   2  -6  -7  105.06    5.94
   2  -6  -6  110.25    5.88
   2  -6  -5  216.38   13.24
   2  -6  -4  421.07   17.24
   2  -6  -3   18.32    1.54
   2  -6  -2   86.49    5.02
   2  -6  -1  347.45   16.78
   2  -6   0   52.56    2.90
   2  -6   1  341.88   16.27
   2  -5 -17    3.80    2.50
   2  -5 -16   52.85    6.40
   2  -5 -15   12.39    3.17
   2  -5 -14   22.18    3.30
   2  -5 -13   33.29    4.15
   2  -5 -12   17.39    2.42
   2  -5 -11  106.92    4.34
   2  -5 -10   51.98    3.03
   2  -5  -9  163.07    6.13
   2  -5  -8   40.45    1.91
   2  -5  -7   72.25    2.72
   2  -5  -6   49.42    3.23
   2  -5  -5  106.50    5.37
   2  -5  -4  492.84   24.42
   2  -5  -3   69.39    4.16
   2  -5  -2  235.62   11.67
   2  -5  -1   90.44    4.56
   2  -5   0  327.25   17.00
   2  -5   1   84.09    4.22
   2  -5   5   90.06    7.78
   2  -5   6   44.09    3.45
   2  -5   7   61.00    4.06
   2  -5   8   38.69    7.71
   2  -5   9  147.87   10.70
   2  -5  10   43.16    3.68
   2  -5  11   95.26    8.20
   2  -5  12    8.29    2.02
   2  -5  13   33.64    5.45
   2  -5  14   19.36    4.40
   2  -5  15   13.03    5.63
   2  -5  16   58.22    8.24
   2  -4 -17    1.59    4.18
   2  -4 -16   50.13    6.51
   2  -4 -15   36.12    4.21
   2  -4 -14   36.84    3.16
   2  -4 -13   27.14    2.61
   2  -4 -12   83.54    4.02
   2  -4 -11   90.82    3.81
   2  -4 -10    3.20    1.00
   2  -4  -9  130.64    5.26
   2  -4  -8  181.17    6.19
   2  -4  -7  203.35    6.56
   2  -4  -6  278.22    8.67
   2  -4  -5   83.54    2.92
   2  -4  -4  122.99    5.10
   2  -4  -3  147.38    8.74
   2  -4  -2  120.56    4.61
   2  -4  -1  510.76   21.70
   2  -4   0  851.47   45.52
   2  -4   1  498.18   24.55
   2  -4   3  153.51    9.42
   2  -4   4  141.85   10.24
   2  -4   5   91.58    4.78
   2  -4   6  286.96   17.96
   2  -4   7  218.45   10.94
   2  -4   8  173.19   10.53
   2  -4   9  143.04    7.18
   2  -4  10    4.49    1.40
   2  -4  11   93.90    7.95
   2  -4  12   84.27    8.26
   2  -4  13   25.30    3.12
   2  -4  14   32.95    5.63
   2  -4  15   37.33    6.72
   2  -4  16   52.71    7.55
   2  -4  17    4.49    4.49
   2  -4  18    3.80    6.01
   2  -3 -18    -.10    2.43
   2  -3 -17   12.39    5.77
   2  -3 -16   22.56    3.89
   2  -3 -15   71.74    5.42
   2  -3 -14   27.25    3.03
   2  -3 -13   31.25    2.91
   2  -3 -12   72.93    4.27
   2  -3 -11  158.26    7.30
   2  -3 -10   33.41    1.85
   2  -3  -9  116.42    4.53
   2  -3  -8   39.31    2.13
   2  -3  -7  155.50    6.48
   2  -3  -6  396.81   14.34
   2  -3  -5  224.40    8.39
   2  -3  -4   52.13    1.88
   2  -3  -3  284.26    8.43
   2  -3  -2  445.63   12.67
   2  -3  -1  454.12   23.01
   2  -3   0  260.50   11.94
   2  -3   1  443.94   19.81
   2  -3   2  484.44   22.45
   2  -3   3  286.96   14.23
   2  -3   4   60.53    3.73
   2  -3   5  227.10   12.66
   2  -3   6  398.40   27.54
   2  -3   7  181.44   44.18
   2  -3   8   39.69    3.15
   2  -3   9  116.42    6.91
   2  -3  10   26.73    3.00
   2  -3  11  156.50   10.01
   2  -3  12   74.65    7.08
   2  -3  13   32.04    3.85
   2  -3  14   29.59    4.68
   2  -3  15   55.80    8.37
   2  -3  16   18.92    4.00
   2  -3  17   11.42    4.19
   2  -3  18     .10    3.14
   2  -2 -18   -1.39    1.70
   2  -2 -17   37.33    5.25
   2  -2 -16   11.42    2.50
   2  -2 -15   22.75    1.91
   2  -2 -14    4.08    2.18
   2  -2 -13     .90    1.50
   2  -2 -12   65.29    3.56
   2  -2 -11  117.07    3.68
   2  -2 -10   83.54    3.29
   2  -2  -9  137.83    5.17
   2  -2  -8   62.09    2.05
   2  -2  -7  236.54    9.23
   2  -2  -6  516.20   18.63
   2  -2  -5  175.30    7.15
   2  -2  -4   68.23    2.48
   2  -2  -3  980.94   25.68
   2  -2  -2  921.12   33.39
   2  -2  -1  149.82    5.88
   2  -2   0  305.90   11.19
   2  -2   1  149.08    6.11
   2  -2   2  967.83   54.13
   2  -2   3  975.31   53.72
   2  -2   4   66.26    6.02
   2  -2   5  176.36    7.17
   2  -2   6  528.08   26.20
   2  -2   7  246.80   11.31
   2  -2   8   51.84    2.88
   2  -2   9  127.69    7.01
   2  -2  10   76.74    4.56
   2  -2  11  107.12    8.49
   2  -2  12   63.68    7.66
   2  -2  13    5.62    2.80
   2  -2  14   -5.90    2.38
   2  -2  15   29.05    5.61
   2  -2  16   20.52    4.53
   2  -2  17   25.10    5.61
   2  -2  18   10.18    6.32
   2  -1 -18    1.80    2.89
   2  -1 -17    9.12    2.42
   2  -1 -16   11.49    2.31
   2  -1 -15   13.69    1.48
   2  -1 -14   21.44    1.76
   2  -1 -13   22.66    1.62
   2  -1 -12   31.02    1.78
   2  -1 -11  172.13    6.30
   2  -1 -10  152.52    4.69
   2  -1  -9    5.11     .68
   2  -1  -8  152.52    4.69
   2  -1  -7  754.60   19.78
   2  -1  -6  369.02   12.68
   2  -1  -5  318.62   10.71
   2  -1  -4   85.75    3.52
   2  -1  -3  572.17   15.79
   2  -1  -2 2119.68   80.11
   2  -1  -1    6.20     .40
   2  -1   0   47.89    1.66
   2  -1   1    5.81     .39
   2  -1   2 2317.46  130.94
   2  -1   3  605.65   32.49
   2  -1   4   82.26    4.17
   2  -1   5  301.72   17.02
   2  -1   6  394.02   17.07
   2  -1   7  738.75   42.94
   2  -1   8  148.84    9.27
   2  -1   9    8.12    1.71
   2  -1  10  162.82    7.40
   2  -1  11  173.71   16.34
   2  -1  12   26.52    4.33
   2  -1  13   20.79    4.20
   2  -1  14   19.27    4.57
   2  -1  15   11.97    3.81
   2  -1  16    9.80    3.51
   2  -1  17   15.60    3.71
   2  -1  18    3.39    4.78
   2   0 -18    5.02    2.28
   2   0 -17    1.30    3.81
   2   0 -16   13.76    2.30
   2   0 -15   28.84    3.65
   2   0 -14   33.06    2.07
   2   0 -13   22.47    1.80
   2   0 -12  145.44    5.79
   2   0 -11   66.91    2.62
   2   0 -10   24.01    1.18
   2   0  -9    9.30     .98
   2   0  -8  164.61    4.11
   2   0  -7  871.43   23.03
   2   0  -6   30.80    1.22
   2   0  -5    1.80     .40
   2   0  -4   40.45    1.53
   2   0  -3  787.92   18.53
   2   0  -2 2000.77   52.78
   2   0  -1   69.39    2.33
   2   0   0  557.43   17.47
   2   0   1   76.74    2.45
   2   0   2 2123.37   76.49
   2   0   3  807.70   25.01
   2   0   4   36.97    1.95
   2   0   5    2.99     .69
   2   0   6   31.92    2.71
   2   0   7  837.52   34.73
   2   0   8  156.00    7.74
   2   0   9   12.39    1.41
   2   0  10   23.04    2.21
   2   0  11   91.78    4.41
   2   0  12  132.25    8.28
   2   0  13   26.94    3.53
   2   0  14   35.64    3.46
   2   0  15   25.50    4.95
   2   0  16   14.82    3.70
   2   0  17    4.28    3.31
   2   0  18    5.29    6.30
   2   1 -18   17.72   10.52
   2   1 -17    9.30    2.50
   2   1 -16   11.29    1.81
   2   1 -15    9.18    1.39
   2   1 -14   15.68    1.27
   2   1 -13   19.27    1.32
   2   1 -12   26.94    1.66
   2   1 -11  169.78    6.78
   2   1 -10  149.08    4.40
   2   1  -9    5.11     .59
   2   1  -8  168.48    5.19
   2   1  -7  757.35   19.81
   2   1  -6  392.83    9.51
   2   1  -5  323.64   10.07
   2   1  -4   87.24    2.99
   2   1  -3  590.49   16.52
   2   1  -2 2148.32   59.33
   2   1  -1    5.38     .28
   2   1   0   48.44    1.25
   2   1   1    5.90     .39
   2   1   2 2202.43   82.60
   2   1   3  585.16   25.16
   2   1   4   84.46    3.31
   2   1   5  314.35   10.99
   2   1   6  377.91   12.44
   2   1   7  768.40   24.95
   2   1   8  164.10    5.38
   2   1   9    3.61     .99
   2   1  10  154.01    7.45
   2   1  11  163.33   11.76
   2   1  12   25.91    2.85
   2   1  13   19.98    3.04
   2   1  14   15.92    3.99
   2   1  15   19.01    4.62
   2   1  16    7.29    2.32
   2   1  17   11.90    4.07
   2   1  18    1.59    5.09
   2   2 -18   19.98   12.52
   2   2 -17   40.45    8.52
   2   2 -16   15.13    2.18
   2   2 -15   18.06    1.62
   2   2 -14     .50    1.11
   2   2 -13    1.59     .60
   2   2 -12   61.31    2.66
   2   2 -11  113.21    4.47
   2   2 -10   80.46    2.87
   2   2  -9  136.19    3.73
   2   2  -8   62.25    1.89
   2   2  -7  235.62    6.14
   2   2  -6  534.53   12.02
   2   2  -5  181.71    5.12
   2   2  -4   66.42    1.79
   2   2  -3  959.76   24.78
   2   2  -2  951.72   25.91
   2   2  -1  148.60    4.88
   2   2   0  321.48   10.40
   2   2   1  159.77    5.81
   2   2   2  935.14   31.80
   2   2   3  938.20   34.31
   2   2   4   71.57    2.03
   2   2   5  179.83    5.90
   2   2   6  504.90   17.08
   2   2   7  242.11    8.09
   2   2   8   59.91    2.63
   2   2   9  134.56    6.03
   2   2  10   94.09    4.46
   2   2  11  112.78    5.52
   2   2  12   70.56    4.54
   2   2  13    1.69    2.29
   2   2  14   -1.39    1.79
   2   2  15   14.90   11.73
   2   2  16   15.13    4.90
   2   2  17   97.02   50.63
   2   2  18    3.50    6.69
   2   3 -18   16.08   12.27
   2   3 -17   18.92    7.13
   2   3 -16   22.00    4.41
   2   3 -15   66.26    5.21
   2   3 -14   23.91    1.66
   2   3 -13   33.64    2.32
   2   3 -12   80.64    2.87
   2   3 -11  154.01    5.21
   2   3 -10   31.58    1.46
   2   3  -9  123.21    3.33
   2   3  -8   38.94    1.37
   2   3  -7  169.78    3.91
   2   3  -6  400.40    9.20
   2   3  -5  224.40    6.29
   2   3  -4   58.68    1.84
   2   3  -3  292.41    9.23
   2   3  -2  463.11   18.08
   2   3  -1  457.10   18.39
   2   3   0  252.49    8.26
   2   3   1  457.96   13.70
   2   3   2  449.44   17.81
   2   3   3  291.04   10.58
   2   3   4   49.56    1.97
   2   3   5  231.95    7.31
   2   3   6  406.43   12.50
   2   3   7  161.04    4.31
   2   3   8   42.77    1.96
   2   3   9  118.16    5.43
   2   3  10   28.94    1.61
   2   3  11  144.48    6.49
   2   3  12   71.74    3.90
   2   3  13   31.81    3.27
   2   3  14   34.46    8.10
   2   3  15   52.85    5.96
   2   3  16   28.62    5.03
   2   3  17    9.42    4.91
   2   3  18   11.29    6.79
   2   4 -18     .40    8.06
   2   4 -17   15.13    8.48
   2   4 -16   55.35    6.55
   2   4 -15   36.00    3.84
   2   4 -14   43.96    2.65
   2   4 -13   27.04    2.08
   2   4 -12   88.74    4.14
   2   4 -11   94.09    3.88
   2   4 -10    1.90     .50
   2   4  -9  145.68    4.10
   2   4  -8  173.45    4.21
   2   4  -7  223.50    5.08
   2   4  -6  289.34    9.19
   2   4  -5   85.75    3.15
   2   4  -4  135.49    3.96
   2   4  -3  157.00    6.01
   2   4  -2  123.21    5.11
   2   4  -1  529.00   18.40
   2   4   0  866.12   30.02
   2   4   1  519.38   15.95
   2   4   2  121.00    4.84
   2   4   3  155.75    5.99
   2   4   4  121.00    3.74
   2   4   5   81.72    3.44
   2   4   6  256.96    8.34
   2   4   7  200.51    8.21
   2   4   8  173.98    7.39
   2   4   9  132.94    5.30
   2   4  10    4.88    1.81
   2   4  11   85.75    4.07
   2   4  12   92.93    6.17
   2   4  13   26.21    2.15
   2   4  14   46.92    4.66
   2   4  15   35.05    5.92
   2   4  16   56.25   10.80
   2   4  17   -1.30    2.90
   2   4  18    9.00   11.88
   2   5 -17    9.30    4.88
   2   5 -16   70.73    6.22
   2   5 -15   11.97    2.77
   2   5 -14   24.30    2.66
   2   5 -13   41.86    3.23
   2   5 -12   10.82    1.58
   2   5 -11  111.72    4.44
   2   5 -10   60.53    4.05
   2   5  -9  154.01    4.72
   2   5  -8   41.34    1.54
   2   5  -7   73.62    2.92
   2   5  -6   42.51    1.56
   2   5  -5  100.00    3.20
   2   5  -4  493.73   19.11
   2   5  -3   69.72    2.84
   2   5  -2  222.31    8.05
   2   5  -1   92.74    4.24
   2   5   0  321.84   10.76
   2   5   1   83.54    2.92
   2   5   2  223.80    7.78
   2   5   3   63.68    2.55
   2   5   4  461.82   16.33
   2   5   5   93.51    3.48
   2   5   6   42.25    1.95
   2   5   7   74.65    3.11
   2   5   8   44.22    2.26
   2   5   9  150.06    6.37
   2   5  10   47.47    3.03
   2   5  11  108.16    7.07
   2   5  12   14.82    2.23
   2   5  13   35.05    3.79
   2   5  14   17.81    3.29
   2   5  15    8.18    4.00
   2   5  16   51.70    6.04
   2   5  17     .90    3.91
   2   6 -17    8.88    6.79
   2   6 -16   34.46    3.87
   2   6 -15   15.21    2.81
   2   6 -14     .71    3.31
   2   6 -13   76.04    9.77
   2   6 -12   67.90    4.12
   2   6 -11  112.78    6.37
   2   6 -10    3.61    1.22
   2   6  -9  145.20    6.03
   2   6  -8  168.22    7.52
   2   6  -7   94.09    4.07
   2   6  -6   98.41    4.17
   2   6  -5  201.07    7.37
   2   6  -4  440.58   16.79
   2   6  -3   16.48    1.46
   2   6  -2   90.25    3.61
   2   6  -1  329.06   10.52
   2   6   0   55.95    2.54
   2   6   1  331.24   10.56
   2   6   2   71.57    3.21
   2   6   3   17.47    1.50
   2   6   4  416.98   13.89
   2   6   5  205.64    6.60
   2   6   6  108.16    4.78
   2   6   7   97.02    3.94
   2   6   8  157.50    5.77
   2   6   9  159.26    6.31
   2   6  10    1.99    1.30
   2   6  11  107.95    5.20
   2   6  12   63.36    3.82
   2   6  13   71.74    5.25
   2   6  14    4.08    2.30
   2   6  15   16.81    4.51
   2   6  16   39.94    5.81
   2   6  17    3.20    2.79
   2   7 -16    3.88    3.31
   2   7 -15   36.84    3.76
   2   7 -14    8.88    1.67
   2   7 -13   90.44    5.52
   2   7 -12   26.11    3.37
   2   7 -11   26.73    2.59
   2   7 -10   18.23    2.48
   2   7  -9    3.88    1.50
   2   7  -8  203.63    9.42
   2   7  -7  104.04    5.51
   2   7  -6    6.10    1.38
   2   7  -5  103.43    4.68
   2   7  -4  211.70    7.57
   2   7  -3  134.10    4.63
   2   7  -2   48.72    2.51
   2   7  -1  459.67   16.72
   2   7   0  108.58    3.75
   2   7   1  457.53   13.69
   2   7   2   50.55    2.56
   2   7   3  132.48    5.29
   2   7   4  200.79    8.79
   2   7   5  106.50    6.81
   2   7   6    6.50    1.27
   2   7   7  109.62    4.61
   2   7   8  193.21    7.78
   2   7   9    5.11    1.22
   2   7  10   17.81    2.03
   2   7  11   21.07    2.39
   2   7  12   12.82    2.08
   2   7  13   86.49    5.58
   2   7  14    3.80    2.11
   2   7  15   37.09    5.48
   2   7  16    8.12    3.82
   2   8 -16    5.20    3.60
   2   8 -15    -.30    2.82
   2   8 -14   12.89    2.51
   2   8 -13   24.40    2.87
   2   8 -12   54.76    4.44
   2   8 -11    5.02    1.52
   2   8 -10   50.55    3.41
   2   8  -9  104.45    8.38
   2   8  -8  175.30   11.39
   2   8  -7   16.81    1.89
   2   8  -6   46.92    2.74
   2   8  -5  163.07    6.39
   2   8  -4  146.41    7.02
   2   8  -3  292.07   14.36
   2   8  -2   16.00    1.28
   2   8  -1  112.36    6.15
   2   8   0   49.28    3.65
   2   8   1  111.30    5.49
   2   8   2   15.37    4.63
   2   8   3  290.70   11.25
   2   8   4  150.31    6.13
   2   8   5  146.41    6.53
   2   8   6   49.70    2.96
   2   8   7   14.90    1.78
   2   8   8  160.78    6.85
   2   8   9  120.56    5.93
   2   8  10   42.64    2.74
   2   8  11    5.02    1.52
   2   8  12   44.22    4.26
   2   8  13   23.14    2.79
   2   8  14   13.76    6.97
   2   8  15   10.69    8.89
   2   8  16   14.21    5.13
   2   9 -15    -.20    4.43
   2   9 -14   18.40    3.52
   2   9 -13    4.20    3.20
   2   9 -12   56.55    4.36
   2   9 -11   18.23    2.22
   2   9 -10   53.88    6.46
   2   9  -9   50.41    6.25
   2   9  -8   35.88    3.83
   2   9  -7   32.15    3.86
   2   9  -6   87.61    4.31
   2   9  -5  155.25    6.48
   2   9  -4   88.92    6.04
   2   9  -3  152.77    9.89
   2   9  -2   31.02    2.23
   2   9  -1   91.58    4.59
   2   9   0  331.24   14.56
   2   9   1   77.97    3.53
   2   9   2   27.67    2.52
   2   9   3  148.60    8.05
   2   9   4   79.39    3.74
   2   9   5  152.28    6.42
   2   9   6   71.06    3.88
   2   9   7   41.34    3.34
   2   9   8   58.83    3.53
   2   9   9   57.46    3.94
   2   9  10   37.45    3.18
   2   9  11    7.29    2.00
   2   9  12   54.76    6.51
   2   9  13    -.10    2.23
   2   9  14   20.16    8.89
   2   9  15    1.80    8.39
   2  10 -14   33.52    5.21
   2  10 -13   16.56    4.97
   2  10 -12   18.23    4.53
   2  10 -11    5.29    2.21
   2  10 -10   59.29    7.85
   2  10  -9   43.30    3.95
   2  10  -8    1.59    1.69
   2  10  -7   57.46    3.64
   2  10  -6   31.36    3.58
   2  10  -5  112.57    8.28
   2  10  -4   29.48    3.80
   2  10  -3   60.06    4.34
   2  10  -2   52.56    2.75
   2  10  -1  103.02    6.50
   2  10   0  132.25    6.44
   2  10   1   97.42    4.74
   2  10   2   48.86    3.49
   2  10   3   55.06    3.41
   2  10   4   19.18    2.37
   2  10   5  108.78    5.42
   2  10   6   26.52    2.58
   2  10   7   49.98    3.11
   2  10   8    1.10    1.20
   2  10   9   37.45    2.94
   2  10  10   50.69    3.70
   2  10  11    7.51    1.92
   2  10  12   10.11    2.80
   2  10  13   11.63    3.27
   2  10  14   19.80    6.67
   2  11 -13   11.42    3.99
   2  11 -12    3.69    2.50
   2  11 -11    -.30    1.71
   2  11 -10   59.60    6.95
   2  11  -9   46.24    6.53
   2  11  -8    4.49    3.18
   2  11  -7   35.64    4.18
   2  11  -6   39.44    3.52
   2  11  -5   86.30    4.83
   2  11  -4   43.69    5.02
   2  11  -3   30.91    3.00
   2  11  -2    7.67    1.88
   2  11  -1   85.75    5.74
   2  11   0   47.47    3.44
   2  11   1   76.21    4.02
   2  11   2    8.41    1.91
   2  11   3   25.70    2.94
   2  11   4   37.21    3.05
   2  11   5   65.45    5.02
   2  11   6   44.89    3.75
   2  11   7   30.69    2.77
   2  11   8    1.59    1.89
   2  11   9   32.95    4.36
   2  11  10   47.33    4.27
   2  11  11    5.71    3.01
   2  11  12    7.62    2.32
   2  11  13    8.12    3.19
   2  12 -12   10.63    3.13
   2  12 -11   10.82    3.62
   2  12 -10   57.15    7.41
   2  12  -9   11.63    7.23
   2  12  -8    2.89    5.88
   2  12  -7    2.40    2.70
   2  12  -6   31.81    3.38
   2  12  -5   54.02    4.85
   2  12  -4    2.31    2.71
   2  12  -3    9.12    2.42
   2  12  -2    3.80    1.79
   2  12  -1   40.32    3.05
   2  12   0    2.79    1.50
   2  12   1   45.97    3.93
   2  12   2    5.29    2.39
   2  12   3    9.18    2.48
   2  12   4    1.80    1.61
   2  12   5   47.61    3.86
   2  12   6   23.33    3.09
   2  12   7    2.79    2.10
   2  12   8    1.99    1.89
   2  12   9    8.53    5.08
   2  12  10   45.02    6.04
   2  12  11    8.41    2.73
   2  12  12    3.80    3.39
   2  13 -10   29.81    7.97
   2  13  -9   17.72   10.19
   2  13  -8    7.18    3.38
   2  13  -7   10.69    3.60
   2  13  -6   23.23    4.24
   2  13  -5   45.70    5.54
   2  13  -4   18.49    4.56
   2  13  -3   23.62    2.62
   2  13  -2    8.12    2.62
   2  13  -1   34.46    3.52
   2  13   0    5.71    2.49
   2  13   1   35.05    3.55
   2  13   2    6.92    2.68
   2  13   3   22.18    2.64
   2  13   4   12.11    2.58
   2  13   5   49.42    4.08
   2  13   6   18.06    2.81
   2  13   7    9.61    4.40
   2  13   8   11.90    7.18
   2  13   9   16.40    3.73
   2  13  10   29.38    5.75
   2  14  -9   14.36    5.31
   2  14  -8    1.10    3.40
   2  14  -7    8.53    7.18
   2  14  -6   17.64    3.61
   2  14  -5   42.64    7.05
   2  14  -4   13.62    3.32
   2  14  -3   10.37    3.09
   2  14  -2    9.92    3.53
   2  14  -1   38.69    4.73
   2  14   0   19.01    3.23
   2  14   1   21.44    2.59
   2  14   2    6.20    1.99
   2  14   3   12.32    2.60
   2  14   4   10.82    3.42
   2  14   5   19.18    4.12
   2  14   6   19.10    2.88
   2  14   7    7.29    3.29
   2  14   8    6.71    3.88
   2  14   9   10.63    4.63
   2  15  -6   14.67    6.97
   2  15  -5   16.56    3.91
   2  15  -4   15.52    4.18
   2  15  -3    8.29    3.97
   2  15  -2    7.78    4.80
   2  15  -1   25.10    4.71
   2  15   0   19.01    4.10
   2  15   1   12.32    4.07
   2  15   2   13.99    4.11
   2  15   3   16.32    4.93
   2  15   4   19.98    4.56
   2  15   5   19.18    3.42
   2  15   6    4.80    5.61
   3 -13 -10    2.50    4.39
   3 -13  -9   20.16    4.76
   3 -13  -8   37.45    4.28
   3 -13  -7   22.18    3.96
   3 -13  -6   11.09   18.18
   3 -13  -5    5.20    3.42
   3 -13  -4   37.45    8.57
   3 -12 -11    6.20    3.49
   3 -12 -10   10.18    2.68
   3 -12  -9   28.30    4.58
   3 -12  -8   12.32    2.18
   3 -12  -7    8.41    2.61
   3 -12  -6   94.28    8.35
   3 -12  -5   68.72    7.13
   3 -12  -4   49.00    4.76
   3 -12  -3   23.43    3.48
   3 -12  -2   55.06    6.23
   3 -12  -1   62.25    5.05
   3 -11 -13   12.53    3.82
   3 -11 -12    2.50    2.69
   3 -11 -11   95.06    8.77
   3 -11 -10    1.49    4.78
   3 -11  -9   11.49    2.17
   3 -11  -8   77.26    5.80
   3 -11  -7   99.40    7.38
   3 -11  -6   13.69    2.66
   3 -11  -5   30.69    3.77
   3 -11  -4  156.25   10.25
   3 -11  -3   25.81    3.45
   3 -11  -2   11.42    7.91
   3 -11  -1    4.41    1.60
   3 -11   0   75.34    6.60
   3 -10 -14   11.83    3.51
   3 -10 -13   11.63    3.21
   3 -10 -12   15.29    3.68
   3 -10 -11     .71    2.60
   3 -10 -10    4.08    3.11
   3 -10  -9   92.54    8.08
   3 -10  -8   38.81    3.36
   3 -10  -7   18.06    2.81
   3 -10  -6   87.61    7.30
   3 -10  -5   21.62    8.28
   3 -10  -4   31.02    2.45
   3 -10  -3   12.18    2.58
   3 -10  -2  183.87   16.81
   3 -10  -1   45.43    4.45
   3 -10   0   23.33    3.28
   3  -9 -14   38.56    5.59
   3  -9 -13   61.62    6.28
   3  -9 -12   21.44    5.00
   3  -9 -11   80.82    8.09
   3  -9 -10   10.63    3.00
   3  -9  -9   62.25    6.47
   3  -9  -8    8.88    2.68
   3  -9  -7  124.32    9.59
   3  -9  -6   31.02    2.45
   3  -9  -5   37.70    3.32
   3  -9  -4   59.14    4.46
   3  -9  -3    8.01    1.53
   3  -9  -2   15.60    2.92
   3  -9  -1   58.83    4.76
   3  -9   0  141.37    8.09
   3  -9   1   55.06    5.05
   3  -8 -15   13.18    5.30
   3  -8 -14   36.24    4.58
   3  -8 -13    4.41    4.49
   3  -8 -12   51.41    6.02
   3  -8 -11   10.63    2.41
   3  -8 -10   54.46    4.13
   3  -8  -9    3.50    1.98
   3  -8  -8   37.70    2.82
   3  -8  -7   23.62    2.43
   3  -8  -6   16.81    2.79
   3  -8  -5   33.41    5.09
   3  -8  -4  221.71   13.40
   3  -8  -3  127.92    7.01
   3  -8  -2  181.98    9.71
   3  -8  -1   48.30    5.42
   3  -8   0   72.93    5.12
   3  -8   1   32.60    3.08
   3  -7 -16    2.31    2.92
   3  -7 -15   38.32    8.05
   3  -7 -14   19.01    3.84
   3  -7 -13   33.41    4.05
   3  -7 -12   90.25    9.12
   3  -7 -11    1.99    1.61
   3  -7 -10    2.99    3.29
   3  -7  -9  123.43   14.44
   3  -7  -8   61.62    4.08
   3  -7  -7   29.16    3.02
   3  -7  -6  144.72    8.66
   3  -7  -5   84.46    5.70
   3  -7  -4   42.64    3.53
   3  -7  -3   63.68    3.67
   3  -7  -2  180.10   10.20
   3  -7  -1   48.86    3.63
   3  -7   0    1.39    1.30
   3  -7   1   53.44    4.24
   3  -6 -16    7.62    3.70
   3  -6 -15    5.38    2.69
   3  -6 -14   27.88    3.70
   3  -6 -13   11.22    3.42
   3  -6 -12    9.67    2.61
   3  -6 -11   31.14    4.46
   3  -6 -10  100.80    8.43
   3  -6  -9   39.06    5.00
   3  -6  -8   40.58    3.82
   3  -6  -7  189.06    8.52
   3  -6  -6   73.96    4.13
   3  -6  -5   64.16    4.17
   3  -6  -4  120.12    6.36
   3  -6  -3  349.69   13.46
   3  -6  -2    5.29     .92
   3  -6  -1   95.06    5.27
   3  -6   0  431.39   24.51
   3  -6   1  101.61    5.85
   3  -6   7  177.42   10.12
   3  -6   8   38.81    3.99
   3  -6   9   46.24    3.81
   3  -6  10  100.60    8.63
   3  -6  11   33.06    3.91
   3  -6  12    1.39    2.90
   3  -6  13    6.20    3.49
   3  -6  14   24.60    5.56
   3  -5 -17   14.06    4.80
   3  -5 -16    7.08    4.47
   3  -5 -15    3.39    3.09
   3  -5 -14   38.32    2.97
   3  -5 -13    2.50    1.80
   3  -5 -12   16.08    1.68
   3  -5 -11   23.14    1.92
   3  -5 -10  107.95    4.78
   3  -5  -9  125.22    5.59
   3  -5  -8  105.47    4.31
   3  -5  -7   57.46    2.43
   3  -5  -6   76.56    3.15
   3  -5  -5  366.34   12.63
   3  -5  -4   58.37    3.21
   3  -5  -3   11.97    1.11
   3  -5  -2  596.82   25.41
   3  -5  -1   29.81    6.55
   3  -5   0  499.08   23.68
   3  -5   1   25.00    3.10
   3  -5   4   58.37    4.13
   3  -5   5  368.64   27.65
   3  -5   6   73.10    5.64
   3  -5   7   55.80    5.23
   3  -5   8  112.15    8.47
   3  -5   9  135.26   12.33
   3  -5  10  113.85    9.60
   3  -5  11   16.81    5.08
   3  -5  12   28.94    4.95
   3  -5  13    5.62    2.99
   3  -5  14   38.44    8.43
   3  -5  15    3.80    3.78
   3  -5  16    2.89    4.08
   3  -5  17   16.00    4.16
   3  -4 -17    6.30    3.92
   3  -4 -16   15.52    8.51
   3  -4 -15   31.81    2.82
   3  -4 -14   14.06    2.70
   3  -4 -13   10.82    1.51
   3  -4 -12   97.22    6.31
   3  -4 -11   47.89    2.49
   3  -4 -10   11.42    1.62
   3  -4  -9   54.46    2.66
   3  -4  -8  162.31    5.35
   3  -4  -7  249.01    9.47
   3  -4  -6   62.57    2.37
   3  -4  -5  648.21   18.33
   3  -4  -4  144.48    4.57
   3  -4  -3  191.55    5.81
   3  -4  -2   46.10    2.58
   3  -4  -1  560.74   23.21
   3  -4   0  434.72   27.52
   3  -4   1  546.16   31.78
   3  -4   2   41.09    2.05
   3  -4   3  190.16    8.83
   3  -4   4  151.78    8.38
   3  -4   5  692.22   34.20
   3  -4   6   65.12    3.71
   3  -4   7  241.80   13.99
   3  -4   8  163.33    9.20
   3  -4   9   60.53    3.73
   3  -4  10    8.88    2.21
   3  -4  11   36.36    5.67
   3  -4  12   85.56    7.40
   3  -4  13    8.01    3.40
   3  -4  14   14.82    5.00
   3  -4  15   25.81    7.82
   3  -4  16    4.41    4.41
   3  -4  17   -1.30    2.90
   3  -3 -18    3.20    2.11
   3  -3 -17   16.32    3.88
   3  -3 -16   34.69    4.24
   3  -3 -15   11.29    1.88
   3  -3 -14   14.36    1.97
   3  -3 -13   29.48    2.06
   3  -3 -12   28.73    3.11
   3  -3 -11   19.01    1.92
   3  -3 -10  296.18   12.74
   3  -3  -9   20.79    1.28
   3  -3  -8  117.72    6.73
   3  -3  -7   61.47    2.82
   3  -3  -6  234.70   10.42
   3  -3  -5   46.65    2.05
   3  -3  -4  514.84   14.07
   3  -3  -3  236.85    7.08
   3  -3  -2  345.22   11.52
   3  -3  -1  159.77    5.56
   3  -3   0   84.09    5.32
   3  -3   1  164.10    6.92
   3  -3   2  376.75   15.92
   3  -3   3  244.61   10.95
   3  -3   4  560.27   28.40
   3  -3   5   44.36    3.33
   3  -3   6  221.71    9.53
   3  -3   7   62.25    3.94
   3  -3   8  119.25    6.99
   3  -3   9   22.37    2.74
   3  -3  10  289.00   20.40
   3  -3  11   25.70    3.95
   3  -3  12   28.30    3.30
   3  -3  13   26.01    5.81
   3  -3  14    7.08    3.19
   3  -3  15   12.60    4.69
   3  -3  16   28.52    4.59
   3  -3  17   27.56    5.56
   3  -2 -18    4.41    3.32
   3  -2 -17   -1.90    2.82
   3  -2 -16   13.91    1.57
   3  -2 -15   31.25    2.35
   3  -2 -14    8.82    1.72
   3  -2 -13   17.89    1.52
   3  -2 -12   61.94    2.83
   3  -2 -11   41.22    2.31
   3  -2 -10   37.95    1.97
   3  -2  -9    5.62     .90
   3  -2  -8  203.92    6.85
   3  -2  -7   35.64    1.91
   3  -2  -6   79.57    2.68
   3  -2  -5  181.98    5.40
   3  -2  -4  164.10    4.61
   3  -2  -3  289.68    6.47
   3  -2  -2  231.65    7.31
   3  -2  -1 1296.72   40.33
   3  -2   0  150.31    4.41
   3  -2   1 1266.65   46.27
   3  -2   2  240.25   11.47
   3  -2   3  291.04   15.01
   3  -2   4  165.89    7.99
   3  -2   5  181.71   12.94
   3  -2   6   76.74    5.96
   3  -2   7   44.89    3.75
   3  -2   8  235.93   10.75
   3  -2   9    7.67    1.99
   3  -2  10   38.81    4.86
   3  -2  11   36.24    3.01
   3  -2  12   61.62    5.65
   3  -2  13   28.09    3.71
   3  -2  14    8.88    2.68
   3  -2  15   28.73    4.07
   3  -2  16   14.52    4.80
   3  -2  17     .00    1.00
   3  -2  18    5.81    3.42
   3  -1 -18   11.02    3.59
   3  -1 -17   11.22    3.82
   3  -1 -16     .50    2.22
   3  -1 -15   28.62    2.78
   3  -1 -14   54.76    3.40
   3  -1 -13   87.05    5.22
   3  -1 -12   60.53    2.96
   3  -1 -11  124.99    5.37
   3  -1 -10   64.32    3.05
   3  -1  -9  122.10    5.53
   3  -1  -8  150.06    5.88
   3  -1  -7   85.38    3.14
   3  -1  -6  441.00   12.60
   3  -1  -5   40.45    1.40
   3  -1  -4   32.60    1.37
   3  -1  -3  215.80    5.58
   3  -1  -2  172.40    5.25
   3  -1  -1  569.30   16.70
   3  -1   0   37.33    1.34
   3  -1   1  568.82   25.28
   3  -1   2  181.98    6.21
   3  -1   3  227.71   13.88
   3  -1   4   38.32    2.48
   3  -1   5   42.64    2.87
   3  -1   6  419.43   23.35
   3  -1   7   96.04   49.00
   3  -1   8  159.52    8.08
   3  -1   9  115.99    8.19
   3  -1  10   75.52    4.34
   3  -1  11  113.21    7.66
   3  -1  12   54.76    5.03
   3  -1  13   98.60    8.14
   3  -1  14   54.76    6.51
   3  -1  15   34.93    6.26
   3  -1  16   -1.49    5.69
   3  -1  17   12.89    3.81
   3  -1  18   11.70    6.43
   3   0 -18   15.52    4.18
   3   0 -17    3.88    2.29
   3   0 -16   79.74    5.54
   3   0 -15    6.81    1.20
   3   0 -14   17.31    2.41
   3   0 -13     .59    1.00
   3   0 -12   53.14    2.62
   3   0 -11   52.56    2.75
   3   0 -10    8.88    1.01
   3   0  -9   91.58    3.64
   3   0  -8   73.96    2.58
   3   0  -7   29.92    1.64
   3   0  -6   26.42    1.13
   3   0  -5    3.10     .49
   3   0  -4  268.30    8.19
   3   0  -3 1397.26   50.09
   3   0  -2  434.31   14.17
   3   0  -1  534.53   16.18
   3   0   0    1.80     .40
   3   0   1  556.02   24.99
   3   0   2  437.23   12.96
   3   0   3 1439.44   82.71
   3   0   4  268.30   10.81
   3   0   5    6.81    3.18
   3   0   6   30.58    3.65
   3   0   7   28.73    3.00
   3   0   8   63.52    3.67
   3   0   9   98.21    7.73
   3   0  10    8.12    1.48
   3   0  11   51.55    4.16
   3   0  12   63.84    4.15
   3   0  13     .20    2.52
   3   0  14   14.82    2.46
   3   0  15    7.90    4.50
   3   0  16   70.22    7.37
   3   0  17    4.20    5.70
   3   0  18   16.56    6.11
   3   1 -18    7.40    7.72
   3   1 -17   15.13    4.82
   3   1 -16    1.30    1.21
   3   1 -15   27.25    3.03
   3   1 -14   51.84    3.17
   3   1 -13   97.02    4.93
   3   1 -12   67.24    3.44
   3   1 -11  125.89    3.81
   3   1 -10   68.06    2.81
   3   1  -9  137.83    5.40
   3   1  -8  147.14    4.61
   3   1  -7   94.67    2.72
   3   1  -6  414.12   12.21
   3   1  -5   40.83    1.53
   3   1  -4   38.56    1.24
   3   1  -3  216.68    6.48
   3   1  -2  181.98    4.05
   3   1  -1  562.64   14.23
   3   1   0   37.33    1.34
   3   1   1  589.52   16.02
   3   1   2  180.63    5.38
   3   1   3  219.04    6.51
   3   1   4   31.36    1.57
   3   1   5   40.96    1.92
   3   1   6  427.66   13.24
   3   1   7   79.03    3.56
   3   1   8  150.80    6.63
   3   1   9  134.10    6.48
   3   1  10   62.88    4.12
   3   1  11  111.30   10.76
   3   1  12   59.91    5.26
   3   1  13   80.10    6.98
   3   1  14   58.68    5.97
   3   1  15   27.67    4.10
   3   1  16    1.00    2.50
   3   1  17   14.06    5.40
   3   1  18   19.10    6.64
   3   2 -18    6.00    5.49
   3   2 -17    1.49    2.10
   3   2 -16   14.82    5.08
   3   2 -15   28.30    2.45
   3   2 -14    8.82    1.19
   3   2 -13   20.34    1.62
   3   2 -12   56.85    2.56
   3   2 -11   41.34    2.44
   3   2 -10   41.86    2.07
   3   2  -9    6.40     .71
   3   2  -8  211.41    6.11
   3   2  -7   40.07    1.52
   3   2  -6   83.72    2.56
   3   2  -5  189.89    5.51
   3   2  -4  156.75    4.01
   3   2  -3  270.93    6.91
   3   2  -2  233.48    6.11
   3   2  -1 1330.06   36.47
   3   2   0  156.00    4.25
   3   2   1 1342.49   43.24
   3   2   2  248.38    7.25
   3   2   3  286.62    8.13
   3   2   4  164.35    4.62
   3   2   5  177.16    6.12
   3   2   6   68.39    3.14
   3   2   7   34.46    1.64
   3   2   8  203.35    6.84
   3   2   9    6.60    1.18
   3   2  10   45.43    2.56
   3   2  11   38.69    2.36
   3   2  12   66.26    7.65
   3   2  13   26.21    4.10
   3   2  14   13.40    3.73
   3   2  15   29.05    5.71
   3   2  16   13.03    4.33
   3   2  17    8.29    8.99
   3   2  18    3.10    3.48
   3   3 -18     .20    8.95
   3   3 -17   19.71    3.29
   3   3 -16   30.47    3.53
   3   3 -15   15.76    2.22
   3   3 -14    9.80    2.19
   3   3 -13   39.19    2.88
   3   3 -12   27.67    1.68
   3   3 -11   17.81    1.69
   3   3 -10  296.18   11.70
   3   3  -9   18.40    1.12
   3   3  -8  117.72    4.56
   3   3  -7   63.52    2.55
   3   3  -6  233.48    6.11
   3   3  -5   45.16    1.75
   3   3  -4  530.38   12.44
   3   3  -3  236.54    6.46
   3   3  -2  357.59   10.97
   3   3  -1  160.78    5.58
   3   3   0   88.55    3.01
   3   3   1  163.33    5.11
   3   3   2  351.56   11.62
   3   3   3  242.11    6.54
   3   3   4  522.12   13.25
   3   3   5   45.16    1.08
   3   3   6  224.70    6.90
   3   3   7   59.29    2.77
   3   3   8  122.32    4.20
   3   3   9   19.71    1.42
   3   3  10  294.47   11.67
   3   3  11   15.29    1.41
   3   3  12   30.80    2.00
   3   3  13   25.81    5.79
   3   3  14   25.81   26.82
   3   3  15   19.62    4.52
   3   3  16   29.48    5.86
   3   3  17   33.99    9.44
   3   4 -17    2.99    3.81
   3   4 -16    2.50    2.91
   3   4 -15   43.30    5.66
   3   4 -14   12.67    1.92
   3   4 -13   11.70    3.63
   3   4 -12  102.01    6.06
   3   4 -11   44.76    2.54
   3   4 -10   10.89    1.39
   3   4  -9   55.20    2.38
   3   4  -8  169.00    7.02
   3   4  -7  249.96    6.96
   3   4  -6   67.57    2.14
   3   4  -5  656.38   17.93
   3   4  -4  155.00    3.98
   3   4  -3  193.77    6.68
   3   4  -2   36.36    2.05
   3   4  -1  559.32   21.76
   3   4   0  434.72   15.01
   3   4   1  563.11   20.41
   3   4   2   43.56    2.24
   3   4   3  181.17    5.92
   3   4   4  143.52    5.51
   3   4   5  614.54   18.34
   3   4   6   62.57    2.53
   3   4   7  239.01    8.35
   3   4   8  165.38    5.92
   3   4   9   53.44    3.36
   3   4  10   12.82    1.50
   3   4  11   40.70    2.81
   3   4  12   87.05    4.66
   3   4  13   11.29    2.69
   3   4  14    9.18    3.88
   3   4  15   33.87    5.94
   3   4  16   14.98    5.11
   3   4  17    2.10    2.70
   3   5 -17   15.21    3.98
   3   5 -16    2.40    2.29
   3   5 -15    6.40    3.29
   3   5 -14   46.65    4.92
   3   5 -13    1.90    1.49
   3   5 -12   20.43    2.26
   3   5 -11   28.52    4.06
   3   5 -10  110.88    4.63
   3   5  -9  122.99    5.10
   3   5  -8  111.09    3.58
   3   5  -7   54.76    2.22
   3   5  -6   72.42    2.55
   3   5  -5  384.16   13.72
   3   5  -4   54.91    2.67
   3   5  -3   13.18    1.38
   3   5  -2  586.12   22.76
   3   5  -1   25.81    1.73
   3   5   0  500.42   17.90
   3   5   1   25.81    1.63
   3   5   2  582.74   19.79
   3   5   3   14.52    1.22
   3   5   4   60.84    2.81
   3   5   5  367.49   11.89
   3   5   6   73.96    3.61
   3   5   7   57.15    3.63
   3   5   8   98.21    4.36
   3   5   9  120.78    7.91
   3   5  10   93.90    5.62
   3   5  11   20.16    1.89
   3   5  12   19.36    2.02
   3   5  13    1.21    1.61
   3   5  14   31.58    2.92
   3   5  15   12.82    6.09
   3   5  16   17.22   13.53
   3   5  17    9.92    3.59
   3   6 -16    7.62    3.09
   3   6 -15    8.01    3.91
   3   6 -14   28.62    2.78
   3   6 -13    9.42    3.50
   3   6 -12    7.18    1.88
   3   6 -11   33.41    3.93
   3   6 -10  102.41    5.06
   3   6  -9   40.58    2.68
   3   6  -8   35.76    1.67
   3   6  -7  188.51    6.86
   3   6  -6   89.30    3.78
   3   6  -5   65.12    2.74
   3   6  -4  124.99    4.70
   3   6  -3  347.82   11.94
   3   6  -2    3.69    1.00
   3   6  -1   99.40    3.99
   3   6   0  421.89   14.38
   3   6   1  108.16    6.24
   3   6   2    4.20     .98
   3   6   3  338.56   13.25
   3   6   4  113.85    4.27
   3   6   5   62.57    3.01
   3   6   6   81.36    3.07
   3   6   7  182.79    8.38
   3   6   8   40.45    3.18
   3   6   9   36.97    2.55
   3   6  10  103.23    4.88
   3   6  11   37.33    2.44
   3   6  12    9.12    2.30
   3   6  13   13.18    2.03
   3   6  14   18.58    3.10
   3   6  15    3.69    4.80
   3   6  16    6.00    4.02
   3   7 -16    7.29    5.89
   3   7 -15   44.76    4.82
   3   7 -14   24.11    2.55
   3   7 -13   31.70    2.70
   3   7 -12   75.52    5.21
   3   7 -11    1.10    1.51
   3   7 -10    6.10    1.88
   3   7  -9  109.83    6.50
   3   7  -8   57.00    2.87
   3   7  -7   30.69    2.22
   3   7  -6  149.33    7.33
   3   7  -5   87.98    4.88
   3   7  -4   47.06    3.70
   3   7  -3   59.29    3.23
   3   7  -2  173.98    6.33
   3   7  -1   49.98    2.97
   3   7   0    1.30    1.39
   3   7   1   55.06    3.26
   3   7   2  169.52    7.29
   3   7   3   53.29    2.77
   3   7   4   47.33    2.61
   3   7   5   85.38    3.33
   3   7   6  137.12    6.79
   3   7   7   31.25    2.35
   3   7   8   64.32    3.05
   3   7   9  101.00    5.03
   3   7  10     .30    1.61
   3   7  11     .59    1.49
   3   7  12   64.16    4.33
   3   7  13   32.38    2.96
   3   7  14   19.27    3.51
   3   7  15   38.56    7.20
   3   7  16   -2.50    3.51
   3   8 -15    6.40    3.49
   3   8 -14   32.83    4.24
   3   8 -13    2.69    2.30
   3   8 -12   40.96    4.86
   3   8 -11   17.98    3.48
   3   8 -10   42.77    2.75
   3   8  -9    5.52    1.79
   3   8  -8   41.60    3.61
   3   8  -7   32.04    4.75
   3   8  -6   18.92    2.78
   3   8  -5   23.43    2.23
   3   8  -4  207.65   10.66
   3   8  -3  128.60    6.35
   3   8  -2  194.04    8.92
   3   8  -1   37.58    2.45
   3   8   0   69.56    4.17
   3   8   1   41.86    2.85
   3   8   2  186.87    9.02
   3   8   3  142.09    5.72
   3   8   4  209.09    9.83
   3   8   5   23.91    2.35
   3   8   6   15.76    1.51
   3   8   7   27.04    1.87
   3   8   8   46.51    4.09
   3   8   9    -.59    1.39
   3   8  10   46.79    3.15
   3   8  11   13.03    2.09
   3   8  12   40.70    3.19
   3   8  13   -1.10    1.51
   3   8  14   25.20    4.52
   3   8  15    6.00    4.31
   3   9 -15    1.21    2.51
   3   9 -14   30.47    4.53
   3   9 -13   48.86    4.19
   3   9 -12   12.32    2.67
   3   9 -11   69.56    5.50
   3   9 -10    8.29    1.79
   3   9  -9   50.55    4.27
   3   9  -8    5.71    4.11
   3   9  -7  127.69    9.27
   3   9  -6   29.27    2.16
   3   9  -5   27.67    3.05
   3   9  -4   63.36    3.66
   3   9  -3    6.00    1.81
   3   9  -2   11.97    1.87
   3   9  -1   50.69    3.13
   3   9   0  147.62    8.50
   3   9   1   61.94    3.62
   3   9   2    8.29    2.07
   3   9   3    7.67    2.27
   3   9   4   57.46    3.34
   3   9   5   23.43    1.84
   3   9   6   23.81    2.15
   3   9   7  126.56    5.62
   3   9   8     .90    1.80
   3   9   9   61.94    3.31
   3   9  10    4.20    1.89
   3   9  11   75.00    6.75
   3   9  12    6.10    2.42
   3   9  13   48.44    6.26
   3   9  14   17.31    4.08
   3   9  15   -2.89    4.39
   3  10 -14   16.16    4.50
   3  10 -13    7.29    2.38
   3  10 -12    9.61    3.72
   3  10 -11    4.58    2.78
   3  10 -10    3.80    1.99
   3  10  -9   91.97    6.14
   3  10  -8   24.60    3.87
   3  10  -7   16.81    2.30
   3  10  -6   95.65    6.06
   3  10  -5   15.29    2.42
   3  10  -4   33.41    4.39
   3  10  -3    2.79    1.30
   3  10  -2  178.49   10.42
   3  10  -1   52.85    3.93
   3  10   0   15.37    1.72
   3  10   1   40.45    3.05
   3  10   2  186.87    7.93
   3  10   3    5.38    1.90
   3  10   4   30.14    3.18
   3  10   5   16.81    1.80
   3  10   6   79.57    5.71
   3  10   7   20.61    2.63
   3  10   8   48.16    3.89
   3  10   9   90.06    5.50
   3  10  10    7.02    2.38
   3  10  11    2.10    2.20
   3  10  12    6.81    2.40
   3  10  13   10.11    4.20
   3  10  14    7.02    3.92
   3  11 -13   15.37    3.29
   3  11 -12     .40    2.49
   3  11 -11   86.12    7.24
   3  11 -10    3.31    2.69
   3  11  -9    6.00    6.22
   3  11  -8   66.75    8.33
   3  11  -7   85.75    6.48
   3  11  -6    5.90    1.90
   3  11  -5   36.72    3.39
   3  11  -4  164.10    8.71
   3  11  -3   28.20    3.61
   3  11  -2   10.63    2.28
   3  11  -1    5.38    1.90
   3  11   0   69.56    4.00
   3  11   1    1.80    2.71
   3  11   2    3.31    2.00
   3  11   3   28.09    2.54
   3  11   4  144.24    7.93
   3  11   5   29.05    2.80
   3  11   6   12.89    2.58
   3  11   7   70.56    4.37
   3  11   8   61.62    4.24
   3  11   9    9.00    2.58
   3  11  10    8.29    3.11
   3  11  11   70.90    8.93
   3  11  12    4.49    2.88
   3  11  13   18.06    5.61
   3  12 -11     .10    3.03
   3  12 -10    5.81    5.40
   3  12  -9   39.44   12.31
   3  12  -8   11.49    4.61
   3  12  -7   10.50    4.99
   3  12  -6   69.56    6.17
   3  12  -5   60.37    4.66
   3  12  -4   46.24    3.67
   3  12  -3   24.40    3.16
   3  12  -2   42.38    3.65
   3  12  -1   69.06    5.15
   3  12   0   72.08    4.92
   3  12   1   62.73    4.12
   3  12   2   46.51    3.68
   3  12   3   23.04    2.78
   3  12   4   48.86    4.05
   3  12   5   58.83    5.06
   3  12   6   80.64    5.75
   3  12   7    8.70    2.12
   3  12   8   16.56    2.77
   3  12   9   24.70    3.58
   3  12  10    6.40    2.68
   3  12  11   -2.79    3.01
   3  13 -10   -5.62    3.41
   3  13  -9   31.14    7.14
   3  13  -8   37.21    6.34
   3  13  -7   19.98    4.02
   3  13  -6   16.48    4.87
   3  13  -5    3.80    2.89
   3  13  -4   34.57    6.70
   3  13  -3   37.95    4.07
   3  13  -2   14.98    3.17
   3  13  -1   20.34    3.61
   3  13   0   68.23    4.63
   3  13   1   24.70    4.97
   3  13   2   16.40    2.11
   3  13   3   34.93    3.78
   3  13   4   28.84    3.11
   3  13   5    1.49    2.49
   3  13   6   15.68    3.80
   3  13   7   12.53    2.69
   3  13   8   30.58    4.98
   3  13   9   14.82    3.93
   3  13  10    8.70    3.72
   3  14  -8   -4.80    6.88
   3  14  -7    6.10    7.21
   3  14  -6   31.81   11.05
   3  14  -5   15.29    3.99
   3  14  -4   20.43    5.60
   3  14  -3   14.52    3.73
   3  14  -2   65.12    6.13
   3  14  -1   16.32    3.80
   3  14   0   32.04    7.13
   3  14   1   28.84    6.01
   3  14   2   58.68    5.52
   3  14   3   13.62    3.17
   3  14   4   17.39    3.59
   3  14   5   26.73    4.86
   3  14   6   19.01    5.84
   3  14   7    8.01    3.68
   3  14   8    -.59    4.28
   3  15  -5    -.20    3.52
   3  15  -4   30.25    6.05
   3  15  -3    4.08    3.27
   3  15  -2    3.10    2.99
   3  15  -1    7.18    3.59
   3  15   0   13.69    3.40
   3  15   1   13.03    5.13
   3  15   2    3.80    2.89
   3  15   3    5.62    2.80
   3  15   4   43.16    8.67
   3  15   5   -3.80    4.91
   4 -13  -9    6.00    5.19
   4 -13  -8   11.97    4.01
   4 -13  -7   60.84    7.02
   4 -13  -6    9.99    7.77
   4 -13  -5    2.19    4.08
   4 -13  -4   11.29    5.78
   4 -13  -3   61.00    6.09
   4 -13  -2   13.03    4.40
   4 -12 -10    3.31    3.20
   4 -12  -9   15.21    2.96
   4 -12  -8   52.56    5.07
   4 -12  -7    7.90    4.38
   4 -12  -6    7.40    4.03
   4 -12  -5    9.18    4.12
   4 -12  -4   30.25    9.02
   4 -12  -3    9.92    2.77
   4 -12  -2   20.43    4.52
   4 -12  -1    7.18    2.79
   4 -11 -12   10.18    4.02
   4 -11 -11    1.39    3.00
   4 -11 -10    3.20    2.29
   4 -11  -9   18.32    5.82
   4 -11  -8    6.20    3.19
   4 -11  -7   24.80    4.18
   4 -11  -6     .40    1.59
   4 -11  -5   26.01    2.75
   4 -11  -4   22.37    2.74
   4 -11  -3  128.14    9.96
   4 -11  -2   65.45    4.53
   4 -11  -1   58.22    4.58
   4 -11   0   12.39    2.68
   4 -10 -13    4.71    2.82
   4 -10 -12   31.81    7.56
   4 -10 -11   20.34    2.98
   4 -10 -10   22.09    5.64
   4 -10  -9    -.20    4.33
   4 -10  -8   97.42   10.86
   4 -10  -7  119.90    9.64
   4 -10  -6   25.91    4.99
   4 -10  -5   59.14    5.08
   4 -10  -4   30.36    4.85
   4 -10  -3   54.17   10.75
   4 -10  -2    5.52   10.62
   4 -10  -1   39.94    3.41
   4 -10   0    8.53    2.51
   4  -9 -14   13.99   11.89
   4  -9 -13    5.38    3.71
   4  -9 -12   49.70    5.50
   4  -9 -11   55.35    6.55
   4  -9 -10   17.72    5.30
   4  -9  -9   14.82    5.00
   4  -9  -8   25.20   12.25
   4  -9  -7   26.01    3.37
   4  -9  -6   53.14    4.81
   4  -9  -5  102.21    7.08
   4  -9  -4    4.41    1.22
   4  -9  -3   26.11    3.37
   4  -9  -2  206.78   16.39
   4  -9  -1  127.46    9.94
   4  -9   0   34.11    3.27
   4  -8 -14   19.98    4.74
   4  -8 -13    1.80    3.81
   4  -8 -12    4.00    2.72
   4  -8 -11   55.50    5.81
   4  -8 -10  142.56   10.98
   4  -8  -9   39.94    4.04
   4  -8  -8   27.88    4.33
   4  -8  -7   85.01    7.74
   4  -8  -6   17.81    4.14
   4  -8  -5   29.38    2.60
   4  -8  -4   25.40    4.03
   4  -8  -3  191.82   12.19
   4  -8  -2   16.97    1.90
   4  -8  -1  136.42    6.77
   4  -8   0    2.19    1.01
   4  -8   1  127.01   11.72
   4  -7 -15   21.44    3.89
   4  -7 -14   17.81    4.39
   4  -7 -13   43.56    6.86
   4  -7 -12   17.47    2.42
   4  -7 -11   13.10    4.42
   4  -7 -10   43.30    3.68
   4  -7  -9   32.83    3.44
   4  -7  -8   78.85    7.10
   4  -7  -7   61.00    5.94
   4  -7  -6  263.74   20.14
   4  -7  -5  102.62    9.12
   4  -7  -4   70.06    5.86
   4  -7  -3   32.38    2.50
   4  -7  -2  291.38   16.39
   4  -7  -1  212.87   12.84
   4  -7   0   39.94    3.16
   4  -7   1  212.87   12.84
   4  -6 -16    2.79    3.01
   4  -6 -15   13.69    4.29
   4  -6 -14   57.15    4.84
   4  -6 -13    6.00    2.20
   4  -6 -12   29.38    2.82
   4  -6 -11   91.01    6.11
   4  -6 -10   70.22    4.02
   4  -6  -9   17.89    1.69
   4  -6  -8   12.60    1.70
   4  -6  -7   60.53    5.13
   4  -6  -6  167.18    7.76
   4  -6  -5   92.93    6.75
   4  -6  -4   67.73    4.44
   4  -6  -3  188.79    7.42
   4  -6  -2   19.98    2.23
   4  -6  -1   69.22    4.33
   4  -6   0   62.73    3.48
   4  -6   1   64.64    3.70
   4  -6   6  148.60    9.02
   4  -6   7   68.06    4.95
   4  -6   8   17.31    2.66
   4  -6   9   16.81    3.36
   4  -6  10   62.73    5.23
   4  -6  11   89.30    8.32
   4  -6  12   23.91    4.40
   4  -6  13    8.58    3.52
   4  -6  14   46.79    6.98
   4  -6  15   14.06    5.62
   4  -5 -16   13.47    3.82
   4  -5 -15   12.32    2.04
   4  -5 -14    3.88    2.09
   4  -5 -13   71.74    4.57
   4  -5 -12   19.18    2.54
   4  -5 -11   84.09    3.48
   4  -5 -10   67.40    3.78
   4  -5  -9  184.42    8.42
   4  -5  -8   33.87    1.75
   4  -5  -7   17.22    1.91
   4  -5  -6  101.61    4.03
   4  -5  -5   48.30    2.78
   4  -5  -4  134.56    4.87
   4  -5  -3  216.68    9.42
   4  -5  -2  313.29   14.87
   4  -5  -1   48.30    2.64
   4  -5   0   83.54    4.39
   4  -5   1   52.56    3.04
   4  -5   4  143.04    8.85
   4  -5   5   60.68    3.74
   4  -5   6  107.33    4.97
   4  -5   7   18.58    4.14
   4  -5   8   39.44    4.14
   4  -5   9  196.56   14.58
   4  -5  10   70.22    5.53
   4  -5  11   75.52    7.82
   4  -5  12   14.59    4.43
   4  -5  13   60.53    6.22
   4  -5  14    2.59    4.28
   4  -5  15  142.09   77.24
   4  -5  16    4.20    3.89
   4  -4 -17    8.01    8.60
   4  -4 -16   21.53    3.90
   4  -4 -15   10.37    1.87
   4  -4 -14   87.24    5.60
   4  -4 -13   25.60    2.53
   4  -4 -12   11.22    1.61
   4  -4 -11   53.44    3.36
   4  -4 -10   59.44    3.55
   4  -4  -9   33.52    1.85
   4  -4  -8   36.36    1.81
   4  -4  -7  280.23    9.04
   4  -4  -6   80.82    2.88
   4  -4  -5   28.41    1.49
   4  -4  -4   46.10    1.90
   4  -4  -3   81.54    2.71
   4  -4  -2  138.53    4.71
   4  -4  -1   78.15    3.71
   4  -4   0  256.00    9.28
   4  -4   1   74.13    4.48
   4  -4   2  152.52    9.63
   4  -4   3   90.06    5.88
   4  -4   4   42.25    3.51
   4  -4   5   33.29    2.77
   4  -4   6   87.98    5.07
   4  -4   7  286.96   11.86
   4  -4   8   37.33    3.54
   4  -4   9   35.05    4.62
   4  -4  10   59.91    7.59
   4  -4  11   53.44    5.12
   4  -4  12    9.30    6.89
   4  -4  13   25.30    3.82
   4  -4  14   86.49   10.04
   4  -4  15    9.49    4.31
   4  -4  16   21.90    5.24
   4  -4  17   -1.21    5.72
   4  -3 -17    6.92    2.52
   4  -3 -16    5.20    1.60
   4  -3 -15   32.49    4.33
   4  -3 -14    2.59    1.61
   4  -3 -13   33.87    2.79
   4  -3 -12    7.02    2.01
   4  -3 -11   11.22    1.07
   4  -3 -10   11.29    1.01
   4  -3  -9   40.20    1.78
   4  -3  -8  217.56    7.38
   4  -3  -7  148.84    5.61
   4  -3  -6  124.10    4.01
   4  -3  -5  175.30    4.50
   4  -3  -4  463.11   13.34
   4  -3  -3   14.21    1.21
   4  -3  -2  238.70    6.80
   4  -3  -1  299.98    9.70
   4  -3   0  386.52   10.62
   4  -3   1  278.56   10.35
   4  -3   2  260.50   16.14
   4  -3   3   12.82    1.29
   4  -3   4  465.70   20.72
   4  -3   5  175.30   11.12
   4  -3   6  125.44    6.05
   4  -3   7  152.52    8.89
   4  -3   8  223.20   12.25
   4  -3   9   40.07    3.92
   4  -3  10    8.01    2.89
   4  -3  11    4.88    3.32
   4  -3  12   19.18    5.26
   4  -3  13   38.94    5.49
   4  -3  14   -2.50    2.31
   4  -3  15   17.81    4.98
   4  -3  16    7.02    2.92
   4  -3  17   13.62    5.39
   4  -2 -17    9.67    3.67
   4  -2 -16    9.92    2.58
   4  -2 -15   12.32    1.90
   4  -2 -14   35.64    2.87
   4  -2 -13  145.20    6.75
   4  -2 -12   33.29    2.65
   4  -2 -11   50.41    2.13
   4  -2 -10  117.51    4.12
   4  -2  -9  263.41    7.79
   4  -2  -8   76.21    2.44
   4  -2  -7   22.56    1.33
   4  -2  -6   58.52    2.14
   4  -2  -5  459.24   12.86
   4  -2  -4   75.34    2.08
   4  -2  -3  212.28    6.99
   4  -2  -2   88.92    3.02
   4  -2  -1  455.40   11.52
   4  -2   0   19.54     .88
   4  -2   1  465.70   16.40
   4  -2   2   95.65    4.69
   4  -2   3  227.10   10.85
   4  -2   4   78.85    4.08
   4  -2   5  453.26   30.66
   4  -2   6   61.62    4.87
   4  -2   7   20.43    2.17
   4  -2   8   78.85    5.33
   4  -2   9  260.50   14.53
   4  -2  10  121.66    9.93
   4  -2  11   48.58    3.90
   4  -2  12   42.25    4.94
   4  -2  13  162.56    8.93
   4  -2  14   37.70   13.75
   4  -2  15   11.90    3.59
   4  -2  16   22.56    7.41
   4  -2  17    3.69    3.99
   4  -1 -17   10.82    3.68
   4  -1 -16   10.37    2.19
   4  -1 -15     .30    1.61
   4  -1 -14   37.95    2.46
   4  -1 -13    4.49    1.31
   4  -1 -12   36.84    1.94
   4  -1 -11    1.39     .90
   4  -1 -10   39.82    2.02
   4  -1  -9   24.40    1.48
   4  -1  -8  159.01    5.80
   4  -1  -7   93.70    3.48
   4  -1  -6   60.06    2.17
   4  -1  -5   87.05    2.43
   4  -1  -4  956.05   28.45
   4  -1  -3   88.92    2.83
   4  -1  -2  165.12    5.40
   4  -1  -1  126.34    4.27
   4  -1   0 1340.29   38.07
   4  -1   1  121.88    3.53
   4  -1   2  162.82    6.38
   4  -1   3   93.90    4.26
   4  -1   4  946.79   56.62
   4  -1   5   91.20    7.26
   4  -1   6   65.93    6.01
   4  -1   7   97.42    6.91
   4  -1   8  157.75    8.29
   4  -1   9   24.90    2.79
   4  -1  10   34.93    4.14
   4  -1  11    1.90    1.41
   4  -1  12   34.46    3.99
   4  -1  13    3.31    1.71
   4  -1  14   41.99    4.41
   4  -1  15   -2.31    5.62
   4  -1  16    6.92    3.42
   4  -1  17    9.67    4.66
   4   0 -17    3.31    1.89
   4   0 -16    4.88    1.50
   4   0 -15    5.29    1.52
   4   0 -14   11.22    1.41
   4   0 -13   19.18    1.93
   4   0 -12   19.62    2.13
   4   0 -11   19.98    1.43
   4   0 -10    3.20    1.00
   4   0  -9  522.12   17.82
   4   0  -8  124.77    3.80
   4   0  -7   47.61    1.79
   4   0  -6  135.72    4.43
   4   0  -5  977.81   27.52
   4   0  -4   26.21    1.02
   4   0  -3   55.50    1.64
   4   0  -2    4.20     .49
   4   0  -1   91.39    2.87
   4   0   0  363.66   13.35
   4   0   1   90.06    2.85
   4   0   2    4.58     .51
   4   0   3   57.91    2.44
   4   0   4   27.35    7.95
   4   0   5 1030.41   44.30
   4   0   6  153.51    8.92
   4   0   7   44.62    3.74
   4   0   8  112.36    7.00
   4   0   9  530.84   25.80
   4   0  10   13.47    5.73
   4   0  11   12.89    2.23
   4   0  12    9.99    2.21
   4   0  13   12.39    5.00
   4   0  14    8.01    3.11
   4   0  15    4.41    2.39
   4   0  16    7.51    4.33
   4   0  17    2.19    4.80
   4   1 -17   11.09    3.33
   4   1 -16   10.89    2.90
   4   1 -15    7.78    1.79
   4   1 -14   37.21    2.68
   4   1 -13    6.50    1.12
   4   1 -12   37.95    2.22
   4   1 -11    4.49     .81
   4   1 -10   36.48    1.93
   4   1  -9   25.30    1.61
   4   1  -8  162.56    5.61
   4   1  -7   90.25    3.04
   4   1  -6   64.96    2.10
   4   1  -5   91.97    2.69
   4   1  -4  979.06   25.03
   4   1  -3   91.78    2.68
   4   1  -2  164.61    4.88
   4   1  -1  123.43    3.33
   4   1   0 1444.00   42.56
   4   1   1  126.79    3.60
   4   1   2  166.93    5.43
   4   1   3   93.51    3.09
   4   1   4 1005.52   33.61
   4   1   5  102.21    4.04
   4   1   6   63.84    2.56
   4   1   7   99.40    3.99
   4   1   8  154.50    8.20
   4   1   9   24.60    2.38
   4   1  10   43.16    3.02
   4   1  11    -.59    2.28
   4   1  12   35.28    4.63
   4   1  13    6.60    3.08
   4   1  14   38.44    6.20
   4   1  15    7.02    3.71
   4   1  16    7.51    5.10
   4   1  17   19.18   14.80
   4   2 -17   10.30    2.50
   4   2 -16   10.18    2.11
   4   2 -15   12.60    2.63
   4   2 -14   28.52    2.24
   4   2 -13  159.26    7.57
   4   2 -12   36.84    1.94
   4   2 -11   47.06    2.47
   4   2 -10  119.68    5.03
   4   2  -9  270.93   10.21
   4   2  -8   71.06    2.87
   4   2  -7   22.56    1.14
   4   2  -6   62.88    2.22
   4   2  -5  477.42   13.11
   4   2  -4   77.62    1.94
   4   2  -3  218.74    5.03
   4   2  -2  100.00    3.00
   4   2  -1  461.39   14.61
   4   2   0   19.54     .97
   4   2   1  471.32   13.89
   4   2   2   92.35    2.50
   4   2   3  224.40    5.99
   4   2   4   80.10    2.68
   4   2   5  473.93   15.24
   4   2   6   56.85    3.02
   4   2   7   20.07    1.61
   4   2   8   75.17    3.29
   4   2   9  265.04    9.44
   4   2  10  118.59    5.66
   4   2  11   59.44    4.47
   4   2  12   34.22    3.74
   4   2  13  157.25   13.79
   4   2  14   45.97    7.86
   4   2  15   23.23    5.78
   4   2  16   18.92   12.27
   4   2  17    5.71    4.83
   4   3 -17    8.58    3.28
   4   3 -16    4.28    2.28
   4   3 -15   21.07    2.39
   4   3 -14    5.62    2.18
   4   3 -13   38.07    2.84
   4   3 -12   11.49    1.83
   4   3 -11   10.18    1.08
   4   3 -10   11.22    1.07
   4   3  -9   40.07    2.03
   4   3  -8  223.50    7.47
   4   3  -7  143.76    4.56
   4   3  -6  134.10    4.17
   4   3  -5  186.05    4.91
   4   3  -4  473.06   11.75
   4   3  -3   13.10     .72
   4   3  -2  246.49    8.48
   4   3  -1  305.55    9.09
   4   3   0  389.67   11.45
   4   3   1  299.64    8.31
   4   3   2  241.80    7.15
   4   3   3   15.29     .78
   4   3   4  479.61   15.33
   4   3   5  170.04    6.52
   4   3   6  129.05    5.68
   4   3   7  143.52    6.47
   4   3   8  215.21    9.68
   4   3   9   40.45    2.29
   4   3  10    7.02    1.91
   4   3  11   13.47    1.69
   4   3  12   11.70    3.63
   4   3  13   26.32    4.92
   4   3  14    1.99    2.48
   4   3  15   21.81    4.48
   4   3  16     .71    4.12
   4   3  17   12.11    4.18
   4   4 -17    1.80    2.79
   4   4 -16   16.81    2.71
   4   4 -15   11.02    2.92
   4   4 -14   98.01    6.14
   4   4 -13   37.33    3.91
   4   4 -12   10.89    2.31
   4   4 -11   61.00    5.15
   4   4 -10   57.76    3.34
   4   4  -9   32.72    1.94
   4   4  -8   36.36    1.69
   4   4  -7  279.22    9.36
   4   4  -6   84.46    2.57
   4   4  -5   32.26    1.25
   4   4  -4   45.16    2.15
   4   4  -3   88.92    2.83
   4   4  -2  146.17    5.32
   4   4  -1   77.79    2.65
   4   4   0  272.58   10.24
   4   4   1   85.38    2.59
   4   4   2  149.82    4.90
   4   4   3   83.36    2.74
   4   4   4   48.44    1.81
   4   4   5   32.15    1.47
   4   4   6   81.54    3.97
   4   4   7  275.56   12.28
   4   4   8   36.12    3.25
   4   4   9   30.80    3.55
   4   4  10   58.37    3.36
   4   4  11   50.27    3.97
   4   4  12    9.80    1.63
   4   4  13   24.01    2.16
   4   4  14   92.35    8.65
   4   4  15   12.39    4.08
   4   4  16   16.40    3.89
   4   4  17    8.70    4.78
   4   5 -16   15.76    3.73
   4   5 -15   13.40    2.42
   4   5 -14     .50    1.80
   4   5 -13   58.06    3.66
   4   5 -12   11.83    3.78
   4   5 -11   74.65    3.97
   4   5 -10   59.14    3.85
   4   5  -9  196.56    8.13
   4   5  -8   36.60    2.90
   4   5  -7   16.16    1.21
   4   5  -6  107.54    5.39
   4   5  -5   52.56    2.18
   4   5  -4  139.00    4.95
   4   5  -3  230.13    6.67
   4   5  -2  314.71    9.22
   4   5  -1   47.47    2.20
   4   5   0   84.64    5.52
   4   5   1   49.00    2.52
   4   5   2  316.84   11.04
   4   5   3  224.10    7.78
   4   5   4  133.40    4.16
   4   5   5   48.86    2.10
   4   5   6  106.50    3.92
   4   5   7   16.48    1.62
   4   5   8   28.09    2.23
   4   5   9  187.69    9.04
   4   5  10   67.73    5.27
   4   5  11   87.61    5.43
   4   5  12   14.90    1.78
   4   5  13   60.06    3.88
   4   5  14    -.79    1.50
   4   5  15   16.00    4.48
   4   5  16    9.92    3.91
   4   6 -16    2.31    3.62
   4   6 -15   15.68    3.88
   4   6 -14   54.02    4.26
   4   6 -13    4.41    2.81
   4   6 -12   26.11    2.76
   4   6 -11   96.43    5.89
   4   6 -10   60.53    4.05
   4   6  -9   24.70    2.19
   4   6  -8   16.56    1.71
   4   6  -7   61.47    2.82
   4   6  -6  155.00    5.48
   4   6  -5   97.22    4.14
   4   6  -4   68.06    2.81
   4   6  -3  182.25    7.02
   4   6  -2   20.98    1.74
   4   6  -1   63.20    3.34
   4   6   0   64.32    2.89
   4   6   1   64.32    3.05
   4   6   2   25.00    1.70
   4   6   3  165.89    6.96
   4   6   4   65.45    3.24
   4   6   5   94.87    4.29
   4   6   6  155.75    5.74
   4   6   7   57.61    3.04
   4   6   8   15.21    1.40
   4   6   9   21.34    4.34
   4   6  10   63.52    3.98
   4   6  11   94.09    5.24
   4   6  12   26.42    2.88
   4   6  13    7.40    1.80
   4   6  14   53.44    4.82
   4   6  15   13.40    5.42
   4   6  16    -.79    3.49
   4   7 -15   29.48    3.26
   4   7 -14   13.62    2.73
   4   7 -13   37.33    4.77
   4   7 -12   26.21    2.46
   4   7 -11    8.01    2.49
   4   7 -10   51.55    3.45
   4   7  -9   26.42    2.36
   4   7  -8   80.28    3.58
   4   7  -7   51.98    2.74
   4   7  -6  240.25    8.99
   4   7  -5   91.97    4.03
   4   7  -4   67.08    4.26
   4   7  -3   38.56    3.11
   4   7  -2  275.56    9.63
   4   7  -1  215.80    9.99
   4   7   0   43.69    2.25
   4   7   1  211.99    7.57
   4   7   2  256.64   11.53
   4   7   3   36.00    2.04
   4   7   4   67.40    3.12
   4   7   5  100.80    4.02
   4   7   6  248.69   12.62
   4   7   7   55.95    3.74
   4   7   8   80.28    4.66
   4   7   9   27.77    2.74
   4   7  10   37.58    2.82
   4   7  11    8.70    2.89
   4   7  12   19.98    2.59
   4   7  13   32.38    5.23
   4   7  14    9.92    2.52
   4   7  15   28.73    4.61
   4   8 -15   19.89    3.66
   4   8 -14   22.09    2.91
   4   8 -13     .10    2.63
   4   8 -12    3.88    1.69
   4   8 -11   55.20    4.76
   4   8 -10  145.93    7.49
   4   8  -9   26.94    2.70
   4   8  -8   23.62    2.82
   4   8  -7   74.65    3.97
   4   8  -6   13.62    1.40
   4   8  -5   30.91    3.45
   4   8  -4   23.23    2.12
   4   8  -3  180.36    7.79
   4   8  -2   12.18    1.81
   4   8  -1  121.88    6.84
   4   8   0    4.20    1.19
   4   8   1  135.96    7.00
   4   8   2   18.23    2.13
   4   8   3  175.03    7.41
   4   8   4   25.91    2.85
   4   8   5   32.15    3.29
   4   8   6   12.53    2.48
   4   8   7   75.17    4.34
   4   8   8   19.62    2.21
   4   8   9   32.60    2.51
   4   8  10  124.55    7.59
   4   8  11   55.80    4.48
   4   8  12    6.40    1.92
   4   8  13     .00    1.00
   4   8  14   18.06    3.31
   4   8  15   15.76    6.91
   4   9 -14    8.41    2.90
   4   9 -13   -2.69    3.08
   4   9 -12   48.44    3.90
   4   9 -11   49.84    3.95
   4   9 -10   12.89    1.51
   4   9  -9    7.02    2.60
   4   9  -8   21.90    2.34
   4   9  -7   24.40    2.47
   4   9  -6   49.56    3.80
   4   9  -5  100.40    6.01
   4   9  -4    1.80    1.29
   4   9  -3   26.42    3.08
   4   9  -2  209.67    9.27
   4   9  -1  126.34    6.29
   4   9   0   22.94    2.30
   4   9   1  128.37    5.89
   4   9   2  186.05    7.64
   4   9   3   22.66    2.00
   4   9   4    2.10    1.51
   4   9   5  107.12    6.21
   4   9   6   46.38    3.27
   4   9   7   28.52    2.78
   4   9   8   26.83    2.38
   4   9   9   15.92    3.19
   4   9  10   14.67    2.91
   4   9  11   49.98    5.09
   4   9  12   41.60    4.77
   4   9  13   -2.31    2.01
   4   9  14    1.80    2.89
   4  10 -13    8.41    2.73
   4  10 -12   16.16    2.97
   4  10 -11   18.40    3.78
   4  10 -10   17.81    2.53
   4  10  -9    4.28    1.90
   4  10  -8   89.49    5.11
   4  10  -7  124.99    6.48
   4  10  -6    7.02    1.59
   4  10  -5   77.97    9.18
   4  10  -4   24.11    2.55
   4  10  -3   35.05    4.03
   4  10  -2    2.79    2.40
   4  10  -1   33.18    4.61
   4  10   0    7.02    2.12
   4  10   1   34.93    3.31
   4  10   2    5.02    2.60
   4  10   3   41.99    3.76
   4  10   4   16.73    2.37
   4  10   5   48.16    3.19
   4  10   6   13.76    1.93
   4  10   7  122.10    6.85
   4  10   8   92.54    4.81
   4  10   9    2.69    3.61
   4  10  10   18.40    3.00
   4  10  11   13.47    2.86
   4  10  12   26.73    4.45
   4  10  13   19.54   10.52
   4  11 -12   21.34    5.54
   4  11 -11    3.31    3.20
   4  11 -10    6.00    2.79
   4  11  -9   16.48    3.74
   4  11  -8    4.49    2.08
   4  11  -7   20.52    2.17
   4  11  -6    5.38    2.00
   4  11  -5   21.62    2.88
   4  11  -4   19.80    2.94
   4  11  -3  108.99    7.52
   4  11  -2   55.65    4.92
   4  11  -1   51.27    4.30
   4  11   0   15.13    3.27
   4  11   1   46.79    3.97
   4  11   2   58.06    4.27
   4  11   3  105.88    6.79
   4  11   4   20.70    2.91
   4  11   5   25.20    4.92
   4  11   6    2.50    1.90
   4  11   7   18.49    1.98
   4  11   8    2.19    4.00
   4  11   9   16.32    3.23
   4  11  10    4.20    2.58
   4  11  11   12.39    3.52
   4  11  12   -1.10    2.60
   4  12 -10   11.09    6.59
   4  12  -9    8.41    3.42
   4  12  -8   52.85    4.36
   4  12  -7    6.92    5.63
   4  12  -6   16.40    6.89
   4  12  -5   -3.20    2.51
   4  12  -4   19.89    3.39
   4  12  -3   13.32    2.99
   4  12  -2    9.49    2.40
   4  12  -1    7.40    2.61
   4  12   0   -1.69    2.70
   4  12   1   17.81    2.87
   4  12   2    8.88    2.21
   4  12   3    4.20    2.09
   4  12   4   19.18    3.50
   4  12   5    2.59    3.28
   4  12   6    8.82    3.33
   4  12   7    2.31    2.80
   4  12   8   45.56    4.72
   4  12   9   11.97    2.98
   4  12  10    4.41    3.40
   4  13  -9    -.59    3.68
   4  13  -8   12.32    2.67
   4  13  -7   51.12    4.86
   4  13  -6    3.39    5.37
   4  13  -5    4.80    3.11
   4  13  -4   10.50    3.82
   4  13  -3   65.12    6.29
   4  13  -2   -2.19    2.10
   4  13  -1   66.10    6.18
   4  13   0   -2.50    2.81
   4  13   1   66.26    5.37
   4  13   2   -2.31    3.10
   4  13   3   62.57    6.64
   4  13   4   -2.50    1.90
   4  13   5    1.10    2.31
   4  13   6    1.59    4.18
   4  13   7   42.25    5.33
   4  13   8   11.90    3.52
   4  13   9    1.90   30.33
   4  14  -6   18.49    6.28
   4  14  -5    5.29    6.07
   4  14  -4   40.07    7.22
   4  14  -3    8.18    9.38
   4  14  -2   10.37    5.02
   4  14  -1    9.67    4.66
   4  14   0    5.11    2.89
   4  14   1   -1.10    2.10
   4  14   2     .90    2.51
   4  14   3    6.71    2.90
   4  14   4   26.83    5.59
   4  14   5    9.42    5.28
   4  14   6    9.80    4.70
   4  14   7   29.81   11.14
   4  15  -3   28.09   12.19
   4  15  -2   13.99    3.37
   4  15  -1    9.67    4.17
   4  15   0    2.19    3.49
   4  15   1    8.58    3.28
   4  15   2   16.81    4.43
   4  15   3    7.51    6.19
   5 -13  -7   58.98   24.73
   5 -13  -6    5.11    3.30
   5 -13  -5    5.90    4.81
   5 -13  -4   17.47    5.02
   5 -13  -3   18.58    4.40
   5 -13  -2    -.59    1.99
   5 -12  -9    4.88    3.09
   5 -12  -8   12.53    5.38
   5 -12  -7    4.71    3.91
   5 -12  -6   17.89    3.21
   5 -12  -5   29.92    6.56
   5 -12  -4   18.23    4.44
   5 -12  -3   14.06    4.28
   5 -12  -2  103.23   11.99
   5 -12  -1   31.58    3.37
   5 -11 -11   17.47    3.68
   5 -11 -10   12.53    2.97
   5 -11  -9   30.25   11.99
   5 -11  -8   27.25    4.07
   5 -11  -7   52.13   11.55
   5 -11  -6    3.80    2.50
   5 -11  -5    1.10    2.10
   5 -11  -4   80.10    8.23
   5 -11  -3   22.66    4.09
   5 -11  -2    6.10    3.31
   5 -11  -1   23.04    3.26
   5 -10 -12   -1.69    3.09
   5 -10 -11   10.69    4.19
   5 -10 -10   22.94    3.93
   5 -10  -9   41.34    3.60
   5 -10  -8    5.38    3.02
   5 -10  -7     .40    2.39
   5 -10  -6  140.42   12.80
   5 -10  -5   33.87    3.72
   5 -10  -4   51.27    6.44
   5 -10  -3   30.03   12.49
   5 -10  -2   97.22    8.09
   5 -10  -1    6.50    2.40
   5 -10   0   44.76    4.82
   5  -9 -13    1.69   10.97
   5  -9 -12   77.26   65.75
   5  -9 -11   61.94    8.97
   5  -9 -10    2.10    2.90
   5  -9  -9   52.71    5.37
   5  -9  -8   57.30    4.84
   5  -9  -7   36.12    4.33
   5  -9  -6    9.99    2.21
   5  -9  -5   74.13   10.33
   5  -9  -4   25.00    2.90
   5  -9  -3   41.47    3.61
   5  -9  -2    4.71    2.08
   5  -9  -1    2.40    2.01
   5  -9   0   66.75    6.37
   5  -8 -14   43.30    7.76
   5  -8 -13   42.77    5.89
   5  -8 -12   15.92    2.63
   5  -8 -11   55.50    5.21
   5  -8 -10   36.60    3.99
   5  -8  -9   16.00    3.52
   5  -8  -8   18.58    3.36
   5  -8  -7    5.38    1.72
   5  -8  -6   79.57    6.42
   5  -8  -5   16.08    2.01
   5  -8  -4   36.60    4.60
   5  -8  -3   43.69    3.83
   5  -8  -2   28.20    2.55
   5  -8  -1   57.46    3.94
   5  -8   0  105.88    8.64
   5  -7 -14   -2.59    3.51
   5  -7 -13    6.92    2.89
   5  -7 -12    3.20    2.29
   5  -7 -11   24.80    3.69
   5  -7 -10   15.37    2.98
   5  -7  -9    2.79    1.30
   5  -7  -8   23.91    2.74
   5  -7  -7   39.69    3.28
   5  -7  -6   32.60    2.74
   5  -7  -5  126.56    8.55
   5  -7  -4   98.41    8.53
   5  -7  -3    5.52    1.22
   5  -7  -2   94.87    9.93
   5  -7  -1  114.49    8.13
   5  -7   0    9.80    1.88
   5  -6 -15    2.50    5.40
   5  -6 -14   20.52    9.78
   5  -6 -13    1.30    2.30
   5  -6 -12     .00    1.00
   5  -6 -11   33.64    2.78
   5  -6 -10   59.44    3.86
   5  -6  -9   32.72    3.09
   5  -6  -8   75.69    3.48
   5  -6  -7  133.17    7.62
   5  -6  -6   23.43    2.23
   5  -6  -5   70.22    3.85
   5  -6  -4  192.38   11.65
   5  -6  -3   18.92    1.83
   5  -6  -2   85.93    4.45
   5  -6  -1   45.70    6.76
   5  -6   0   45.97    3.66
   5  -6   6   19.18    4.12
   5  -6   7  147.14    9.70
   5  -6   8   70.73    5.38
   5  -6   9   43.16    6.44
   5  -6  10   82.45    9.81
   5  -6  11   31.92    3.39
   5  -6  12    2.99    3.01
   5  -6  13   -4.80    3.29
   5  -6  14    6.71    5.49
   5  -6  15    7.18    6.00
   5  -5 -16    6.50    1.58
   5  -5 -15   13.69    2.59
   5  -5 -14   36.97    4.74
   5  -5 -13   18.84    3.12
   5  -5 -12   97.61    5.53
   5  -5 -11    5.52    1.22
   5  -5 -10   39.31    3.01
   5  -5  -9   13.99    2.17
   5  -5  -8   27.77    2.95
   5  -5  -7   57.00    2.72
   5  -5  -6  109.20    4.60
   5  -5  -5   18.49    1.29
   5  -5  -4   39.44    2.14
   5  -5  -3   20.70    2.18
   5  -5  -2  354.95   14.32
   5  -5  -1  128.82    6.36
   5  -5   0  351.94   15.38
   5  -5   3   21.53    2.60
   5  -5   4   46.10    5.43
   5  -5   5   19.62    2.13
   5  -5   6  115.35    9.24
   5  -5   7   54.32    3.83
   5  -5   8   35.64    3.46
   5  -5   9   14.52    4.04
   5  -5  10   46.79    5.47
   5  -5  11    6.40    2.58
   5  -5  12   97.22    9.07
   5  -5  13   22.18    5.28
   5  -5  14   45.83    9.48
   5  -5  15   12.18    8.59
   5  -5  16    7.18    4.40
   5  -4 -16    -.20    2.52
   5  -4 -15    4.71    2.60
   5  -4 -14    1.49    1.59
   5  -4 -13    1.99    1.61
   5  -4 -12   46.38    3.40
   5  -4 -11   42.25    3.25
   5  -4 -10    4.49    1.61
   5  -4  -9   41.99    2.59
   5  -4  -8  111.72    4.86
   5  -4  -7  167.18    7.24
   5  -4  -6   85.93    4.82
   5  -4  -5  175.56    7.95
   5  -4  -4  110.67    4.42
   5  -4  -3  398.40   14.77
   5  -4  -2   30.36    1.32
   5  -4  -1  101.20    4.63
   5  -4   0  134.10    6.95
   5  -4   2   36.84    4.13
   5  -4   3  438.90   27.65
   5  -4   4  113.42    6.60
   5  -4   5  200.79   14.17
   5  -4   6   91.39    8.99
   5  -4   7  159.52   11.87
   5  -4   8  118.37    8.92
   5  -4   9   40.70    4.34
   5  -4  10    3.88    2.88
   5  -4  11   46.51    5.05
   5  -4  12   37.82    6.77
   5  -4  13    2.69    4.00
   5  -4  14    8.01    5.89
   5  -4  15   22.00   14.54
   5  -4  16    9.30    6.89
   5  -3 -16    2.50    2.31
   5  -3 -15   17.89    3.13
   5  -3 -14   26.42    2.36
   5  -3 -13   19.80    2.14
   5  -3 -12   40.83    3.83
   5  -3 -11    2.40    1.12
   5  -3 -10   70.90    3.54
   5  -3  -9   53.44    3.07
   5  -3  -8   71.06    3.37
   5  -3  -7   20.43    1.99
   5  -3  -6   87.80    4.50
   5  -3  -5  118.37    6.53
   5  -3  -4  117.29    4.12
   5  -3  -3  297.56    9.66
   5  -3  -2  106.71    3.51
   5  -3  -1   15.60    1.19
   5  -3   0    1.10     .40
   5  -3   1   13.32    1.10
   5  -3   2  112.78    9.77
   5  -3   3  350.81   23.23
   5  -3   4  128.60    9.30
   5  -3   5  131.10    7.79
   5  -3   6   93.90    5.43
   5  -3   7   22.66    2.38
   5  -3   8   85.75    5.93
   5  -3   9   53.88    5.58
   5  -3  10   63.68    6.54
   5  -3  11   22.66   17.90
   5  -3  12   42.25    4.55
   5  -3  13   13.10    3.40
   5  -3  14   27.98    5.08
   5  -3  15   16.81    5.33
   5  -3  16    9.67   12.50
   5  -2 -16   10.11    1.97
   5  -2 -15   18.84    3.21
   5  -2 -14    6.92    1.53
   5  -2 -13   27.98    2.86
   5  -2 -12   35.05    2.72
   5  -2 -11   52.27    3.04
   5  -2 -10    8.70    1.71
   5  -2  -9   42.77    1.96
   5  -2  -8   83.54    3.29
   5  -2  -7    9.67     .81
   5  -2  -6   61.47    2.51
   5  -2  -5  169.00    4.68
   5  -2  -4   46.24    1.90
   5  -2  -3  235.93    7.68
   5  -2  -2   96.04    3.33
   5  -2  -1  655.36   16.90
   5  -2   0  181.17    4.85
   5  -2   1  665.12   22.70
   5  -2   2  104.24    4.70
   5  -2   3  266.02   13.05
   5  -2   4   46.92    3.56
   5  -2   5  186.32   12.28
   5  -2   6   62.73    3.80
   5  -2   7   21.16    3.04
   5  -2   8   77.09    4.92
   5  -2   9   40.83    3.45
   5  -2  10   12.82    2.51
   5  -2  11   49.28    3.79
   5  -2  12   40.96    4.61
   5  -2  13   18.92    3.91
   5  -2  14     .90    4.01
   5  -2  15   16.73    4.17
   5  -2  16   26.21    6.14
   5  -1 -17    5.02    2.42
   5  -1 -16    1.90    2.82
   5  -1 -15    5.62    1.80
   5  -1 -14   43.56    3.96
   5  -1 -13   49.14    3.36
   5  -1 -12    2.40    1.61
   5  -1 -11   37.21    2.44
   5  -1 -10  179.02    7.49
   5  -1  -9   66.91    2.94
   5  -1  -8   78.68    3.19
   5  -1  -7   97.81    3.56
   5  -1  -6  266.67    7.51
   5  -1  -5   65.12    2.42
   5  -1  -4   60.53    2.02
   5  -1  -3     .50     .50
   5  -1  -2    1.80     .51
   5  -1  -1  115.13    3.43
   5  -1   0   43.30    2.11
   5  -1   1  124.55    6.03
   5  -1   2    2.40     .90
   5  -1   3    1.00     .90
   5  -1   4   77.62    4.93
   5  -1   5   64.80    4.67
   5  -1   6  267.98   14.08
   5  -1   7  113.00    8.08
   5  -1   8   82.63    7.27
   5  -1   9   68.72    6.13
   5  -1  10  174.50   14.53
   5  -1  11   33.99    3.96
   5  -1  12   -4.00    2.28
   5  -1  13   52.42    6.66
   5  -1  14   56.70   12.65
   5  -1  15    2.10    3.02
   5  -1  16    1.10    4.01
   5  -1  17    9.92    9.01
   5   0 -17    9.80    4.70
   5   0 -16   28.94    4.30
   5   0 -15    6.00    1.52
   5   0 -14   20.43    1.99
   5   0 -13    5.11    1.22
   5   0 -12   16.48    2.27
   5   0 -11    2.31    1.09
   5   0 -10   21.34    1.29
   5   0  -9   32.38    1.59
   5   0  -8   72.08    2.89
   5   0  -7   49.70    1.83
   5   0  -6     .40     .79
   5   0  -5  238.39    6.48
   5   0  -4  480.92   13.60
   5   0  -3    8.53     .82
   5   0  -2   79.03    3.73
   5   0  -1  350.81   11.61
   5   0   0     .40     .89
   5   0   1  367.49   11.12
   5   0   2   84.64    2.76
   5   0   3    8.88     .72
   5   0   4  464.40   23.70
   5   0   5  248.06   10.40
   5   0   6   -1.00    1.30
   5   0   7   47.75    3.45
   5   0   8   67.24    6.23
   5   0   9   26.52    3.30
   5   0  10   15.68    2.69
   5   0  11    1.59    3.98
   5   0  12   12.82    3.08
   5   0  13    9.49    3.08
   5   0  14   21.44    6.02
   5   0  15    6.00   10.58
   5   0  16   37.82    6.89
   5   0  17    5.11   15.91
   5   1 -17   14.06   12.07
   5   1 -16  139.00   73.81
   5   1 -15    8.88    3.28
   5   1 -14   44.36    3.20
   5   1 -13   47.06    2.88
   5   1 -12    1.30    1.09
   5   1 -11   35.76    2.63
   5   1 -10  178.76    7.49
   5   1  -9   68.72    2.82
   5   1  -8   73.27    2.57
   5   1  -7  107.74    3.53
   5   1  -6  263.09    7.46
   5   1  -5   64.96    2.26
   5   1  -4   61.94    2.05
   5   1  -3    1.21     .59
   5   1  -2    2.19     .71
   5   1  -1  124.99    4.47
   5   1   0   38.81    1.62
   5   1   1  121.00    3.74
   5   1   2     .20     .50
   5   1   3     .50     .30
   5   1   4   60.84    2.34
   5   1   5   67.08    4.09
   5   1   6  275.56   11.95
   5   1   7  114.06    6.19
   5   1   8   68.56    4.47
   5   1   9   76.91    5.09
   5   1  10  170.56   14.37
   5   1  11   37.58    5.64
   5   1  12    2.69    2.10
   5   1  13   44.89    6.97
   5   1  14   48.02    6.10
   5   1  15    6.92    3.10
   5   1  16   15.76   14.85
   5   1  17   22.18    8.29
   5   2 -16   11.09    2.73
   5   2 -15   17.72    2.86
   5   2 -14    9.12    1.69
   5   2 -13   26.73    3.41
   5   2 -12   41.34    2.44
   5   2 -11   53.73    3.23
   5   2 -10    8.12    1.08
   5   2  -9   42.25    1.95
   5   2  -8   76.21    2.97
   5   2  -7   12.89     .93
   5   2  -6   60.53    2.65
   5   2  -5  173.98    5.80
   5   2  -4   48.58    1.81
   5   2  -3  263.74    7.15
   5   2  -2   92.35    2.88
   5   2  -1  709.16   20.24
   5   2   0  197.12    6.74
   5   2   1  665.12   19.60
   5   2   2   97.02    2.96
   5   2   3  255.36    7.99
   5   2   4   48.44    1.81
   5   2   5  164.61    5.39
   5   2   6   63.36    3.34
   5   2   7    7.51    1.10
   5   2   8   89.11    5.85
   5   2   9   41.73    4.65
   5   2  10    8.88    2.68
   5   2  11   46.38    5.31
   5   2  12   39.06    4.88
   5   2  13   38.19    4.94
   5   2  14    8.82    3.80
   5   2  15   28.94    4.95
   5   2  16   19.27    7.20
   5   3 -16    3.50    3.59
   5   3 -15   21.34    3.88
   5   3 -14   32.04    3.28
   5   3 -13   15.92    2.79
   5   3 -12   39.94    4.04
   5   3 -11    4.49    1.48
   5   3 -10   74.48    3.97
   5   3  -9   51.55    3.02
   5   3  -8   79.92    3.75
   5   3  -7   22.75    1.34
   5   3  -6   93.51    3.67
   5   3  -5  120.56    4.17
   5   3  -4  128.14    3.40
   5   3  -3  325.44    9.38
   5   3  -2  113.85    3.63
   5   3  -1   11.09     .80
   5   3   0     .90     .49
   5   3   1   11.70     .68
   5   3   2  121.88    3.97
   5   3   3  314.00    9.57
   5   3   4  119.25    4.80
   5   3   5  129.28    4.55
   5   3   6   89.11    3.96
   5   3   7   18.92    2.52
   5   3   8   67.73    4.28
   5   3   9   55.95    5.09
   5   3  10   78.15    4.42
   5   3  11   17.98    6.28
   5   3  12   38.32    4.21
   5   3  13   17.89    3.64
   5   3  14   28.20    4.57
   5   3  15    9.92    3.09
   5   3  16    3.50    3.52
   5   4 -16     .30    3.62
   5   4 -15   19.36    5.63
   5   4 -14    7.90    3.37
   5   4 -13    1.90    2.40
   5   4 -12   42.12    4.41
   5   4 -11   35.05    2.96
   5   4 -10    3.39    1.51
   5   4  -9   52.42    3.33
   5   4  -8  118.59    6.10
   5   4  -7  159.01    5.80
   5   4  -6   90.25    2.85
   5   4  -5  192.10    5.82
   5   4  -4  117.72    3.91
   5   4  -3  406.02   10.88
   5   4  -2   34.46    1.64
   5   4  -1  101.81    3.63
   5   4   0  156.50    5.25
   5   4   1  100.20    3.40
   5   4   2   33.76    1.28
   5   4   3  420.25   10.66
   5   4   4  115.13    4.94
   5   4   5  180.36    6.45
   5   4   6   91.97    3.64
   5   4   7  166.93    8.01
   5   4   8  127.46    5.42
   5   4   9   46.38    3.13
   5   4  10    2.31    1.31
   5   4  11   41.34    3.09
   5   4  12   38.44    2.85
   5   4  13   -2.79    3.91
   5   4  14    7.18    5.68
   5   4  15   12.32    8.99
   5   4  16     .90    4.31
   5   5 -16    5.52    2.21
   5   5 -15   20.52    5.71
   5   5 -14   32.72    3.66
   5   5 -13   16.73    2.37
   5   5 -12   96.43    6.28
   5   5 -11    9.42    3.32
   5   5 -10   44.09    2.79
   5   5  -9   11.83    1.79
   5   5  -8   29.92    2.19
   5   5  -7   50.55    3.41
   5   5  -6  115.56    4.09
   5   5  -5   19.36    1.76
   5   5  -4   40.96    1.79
   5   5  -3   18.40    1.12
   5   5  -2  400.40   10.81
   5   5  -1  131.33    4.58
   5   5   0  372.49   12.35
   5   5   1  119.46    3.93
   5   5   2  376.36   13.19
   5   5   3   16.32    1.21
   5   5   4   43.03    1.84
   5   5   5   21.07    2.02
   5   5   6  117.94    5.00
   5   5   7   55.35    2.83
   5   5   8   31.25    2.68
   5   5   9   13.62    1.70
   5   5  10   33.41    2.89
   5   5  11    6.81    1.72
   5   5  12   97.02    7.68
   5   5  13   15.29    2.50
   5   5  14   38.44    5.58
   5   5  15   17.98    6.70
   5   5  16    6.20    4.58
   5   6 -15     .71    3.21
   5   6 -14    8.58    2.11
   5   6 -13    1.90    2.40
   5   6 -12    4.08    1.70
   5   6 -11   38.44    3.22
   5   6 -10   66.26    4.56
   5   6  -9   28.09    2.65
   5   6  -8   70.39    5.03
   5   6  -7  138.06    9.64
   5   6  -6   18.58    1.47
   5   6  -5   60.22    3.10
   5   6  -4  197.40    7.87
   5   6  -3   23.81    1.27
   5   6  -2   88.92    3.58
   5   6  -1   48.58    2.23
   5   6   0   44.36    2.00
   5   6   1   47.47    2.20
   5   6   2   81.54    3.97
   5   6   3   18.92    1.22
   5   6   4  194.32    7.53
   5   6   5   61.47    3.76
   5   6   6   21.34    2.03
   5   6   7  137.36    6.33
   5   6   8   71.23    3.54
   5   6   9   33.29    2.42
   5   6  10   61.62    4.24
   5   6  11   26.42    2.78
   5   6  12   -1.69    1.59
   5   6  13    2.59    2.70
   5   6  14    8.01    2.89
   5   6  15    7.51    3.51
   5   7 -15   32.95    3.33
   5   7 -14    1.49    2.68
   5   7 -13    4.49    3.48
   5   7 -12    6.20    2.19
   5   7 -11   27.98    2.43
   5   7 -10   15.60    2.77
   5   7  -9    5.62    2.42
   5   7  -8   18.40    2.06
   5   7  -7   31.25    2.91
   5   7  -6   34.22    2.22
   5   7  -5  116.64    4.32
   5   7  -4  110.46    4.20
   5   7  -3    5.71     .91
   5   7  -2   88.17    3.94
   5   7  -1  108.78    4.17
   5   7   0   13.76    1.41
   5   7   1  104.65    4.50
   5   7   2   89.87    3.22
   5   7   3    7.51    1.10
   5   7   4  102.21    4.85
   5   7   5  122.54    5.76
   5   7   6   32.04    2.38
   5   7   7   29.05    2.37
   5   7   8   17.14    2.07
   5   7   9    4.28    1.99
   5   7  10   14.90    2.62
   5   7  11   31.25    3.02
   5   7  12    2.69    1.80
   5   7  13    1.80    2.20
   5   7  14    -.10    2.53
   5   7  15   27.35    8.26
   5   8 -14   47.33    6.19
   5   8 -13   33.76    4.53
   5   8 -12   19.89    3.57
   5   8 -11   67.24   10.82
   5   8 -10   37.95    3.57
   5   8  -9   15.37    2.12
   5   8  -8   10.30    1.48
   5   8  -7    5.02    1.52
   5   8  -6   80.82    3.96
   5   8  -5   23.23    1.74
   5   8  -4   27.46    1.99
   5   8  -3   43.82    2.25
   5   8  -2   22.18    1.41
   5   8  -1   55.65    2.83
   5   8   0  108.78    6.05
   5   8   1   52.56    3.92
   5   8   2   23.14    2.69
   5   8   3   56.70    4.97
   5   8   4   31.14    2.46
   5   8   5   20.61    2.00
   5   8   6   73.62    4.12
   5   8   7    8.58    1.99
   5   8   8   16.32    2.59
   5   8   9   15.76    2.62
   5   8  10   34.11    3.39
   5   8  11   50.55    4.27
   5   8  12   16.08    2.57
   5   8  13   32.15    5.56
   5   8  14   39.44    5.90
   5   9 -13    2.10    3.71
   5   9 -12   18.58    3.62
   5   9 -11   49.28    5.34
   5   9 -10    4.71    1.82
   5   9  -9   55.95    4.64
   5   9  -8   50.84    4.56
   5   9  -7   48.44    4.87
   5   9  -6    7.67    1.72
   5   9  -5   74.13    3.62
   5   9  -4   22.66    1.90
   5   9  -3   42.64    2.61
   5   9  -2    1.30    2.01
   5   9  -1    4.80    1.62
   5   9   0   57.30    3.79
   5   9   1    4.49    1.91
   5   9   2     .30    1.41
   5   9   3   47.89    2.91
   5   9   4   20.34    2.80
   5   9   5   76.56    4.73
   5   9   6   10.37    2.32
   5   9   7   38.44    3.35
   5   9   8   47.75    5.25
   5   9   9   37.82    3.81
   5   9  10    2.19    1.89
   5   9  11   41.34    5.79
   5   9  12    9.80    4.57
   5   9  13     .59    2.19
   5  10 -12   -3.50    2.81
   5  10 -11    9.92    2.20
   5  10 -10   22.75    2.67
   5  10  -9   43.96    4.64
   5  10  -8    6.30    1.91
   5  10  -7     .90    2.70
   5  10  -6  129.50    6.83
   5  10  -5   22.47    2.09
   5  10  -4   43.03    4.72
   5  10  -3   23.62    3.40
   5  10  -2   89.49    5.49
   5  10  -1    5.52    1.79
   5  10   0   50.55    3.70
   5  10   1   20.88    6.58
   5  10   2   90.82    6.29
   5  10   3   14.29    2.49
   5  10   4   35.76    3.11
   5  10   5   25.10    3.11
   5  10   6  111.51    7.18
   5  10   7    1.21    2.42
   5  10   8    1.30    2.30
   5  10   9   41.34    3.86
   5  10  10   24.50    4.55
   5  10  11    6.50    3.01
   5  10  12    1.80    3.40
   5  11 -11   22.18    5.09
   5  11 -10    9.67    3.30
   5  11  -9   15.60    2.21
   5  11  -8   25.10    3.01
   5  11  -7   46.38    4.36
   5  11  -6    5.02    2.02
   5  11  -5    1.21    1.50
   5  11  -4   80.82    5.03
   5  11  -3   23.72    3.60
   5  11  -2   10.37    2.58
   5  11  -1   20.43    3.16
   5  11   0   10.18    2.11
   5  11   1   20.98    3.48
   5  11   2    6.20    2.49
   5  11   3   14.90    2.78
   5  11   4   80.28    6.81
   5  11   5    1.10    1.99
   5  11   6    3.31    2.51
   5  11   7   50.69    4.84
   5  11   8   23.33    2.80
   5  11   9   16.48    3.82
   5  11  10    4.71    2.91
   5  11  11   16.56    3.26
   5  12  -9   12.18    3.70
   5  12  -8   10.50    3.37
   5  12  -7    5.90    2.48
   5  12  -6   20.79    4.92
   5  12  -5   20.88    3.20
   5  12  -4   20.07    3.32
   5  12  -3   15.37    2.82
   5  12  -2  101.00   10.45
   5  12  -1   39.94    4.17
   5  12   0   21.81    3.08
   5  12   1   37.95    4.93
   5  12   2  111.51    6.97
   5  12   3   15.13    2.88
   5  12   4    9.92    3.40
   5  12   5   21.44    4.07
   5  12   6   10.30    3.21
   5  12   7    4.71    2.69
   5  12   8   15.52    4.02
   5  12   9   12.67    5.62
   5  13  -7   42.51    4.43
   5  13  -6    5.90    3.50
   5  13  -5   11.22    3.89
   5  13  -4   20.79    3.01
   5  13  -3   25.60    5.36
   5  13  -2    4.71    4.51
   5  13  -1    4.49    2.88
   5  13   0   26.83    4.04
   5  13   1   12.39    3.17
   5  13   2    6.20    2.69
   5  13   3   22.75    3.63
   5  13   4   13.76    3.26
   5  13   5    9.61    9.30
   5  13   6    6.81    4.70
   5  13   7   40.45    5.85
   5  14  -4    4.88    2.61
   5  14  -3   20.16    4.94
   5  14  -2   37.95    5.42
   5  14  -1    8.88    3.99
   5  14   0    5.11    2.71
   5  14   1   21.53    4.92
   5  14   2   46.10    5.84
   5  14   3   12.18    4.19
   5  14   4    3.80    4.49
   5  14   5   24.11    4.62
   6 -13  -5    9.30    3.60
   6 -13  -4    8.58    4.92
   6 -13  -3     .00    1.00
   6 -12  -8   24.80    7.37
   6 -12  -7   12.39    6.62
   6 -12  -6    6.20   11.01
   6 -12  -5   22.00    4.13
   6 -12  -4    6.20    3.49
   6 -12  -3   24.30    2.96
   6 -12  -2   11.22    5.23
   6 -11  -9    4.88    5.70
   6 -11  -8    6.81    2.82
   6 -11  -7   19.54   12.38
   6 -11  -6   20.79    3.10
   6 -11  -5   67.08    5.90
   6 -11  -4    4.08    2.91
   6 -11  -3    9.92    3.02
   6 -11  -2   25.81    4.47
   6 -10 -11    3.80    5.50
   6 -10 -10   11.90   11.39
   6 -10  -9   33.18    5.18
   6 -10  -8   15.60    2.69
   6 -10  -7   22.94    2.97
   6 -10  -6   11.83    3.03
   6 -10  -5   81.90    7.96
   6 -10  -4   38.32    8.79
   6 -10  -3    3.39    6.59
   6 -10  -2    7.08    2.50
   6 -10  -1   33.06    2.99
   6  -9 -12   25.60    5.77
   6  -9 -11    3.10    2.50
   6  -9 -10   39.94    4.55
   6  -9  -9   45.83    4.87
   6  -9  -8   19.54    2.92
   6  -9  -7   12.53    4.11
   6  -9  -6    8.82    1.90
   6  -9  -5   15.60    4.66
   6  -9  -4   38.81   24.42
   6  -9  -3   67.73    6.75
   6  -9  -2    9.49    3.57
   6  -9  -1   60.53    4.82
   6  -8 -12   15.29    3.99
   6  -8 -11   17.39    5.17
   6  -8 -10    5.81    2.70
   6  -8  -9   13.62    5.09
   6  -8  -8   72.42    6.64
   6  -8  -7   14.90    2.62
   6  -8  -6    9.00    4.62
   6  -8  -5   53.14    5.69
   6  -8  -4   87.61    5.80
   6  -8  -3   50.27    5.67
   6  -8  -2    9.99    2.40
   6  -8  -1  102.01   10.10
   6  -7 -13   15.76    4.53
   6  -7 -12   28.09    4.03
   6  -7 -11    8.88    2.32
   6  -7 -10   28.52    3.84
   6  -7  -9   67.08    5.73
   6  -7  -8   82.45    7.26
   6  -7  -7    5.02    1.39
   6  -7  -6   22.28    2.45
   6  -7  -5  110.25    7.77
   6  -7  -4   94.48    6.22
   6  -7  -3   66.26    4.40
   6  -7  -2   11.63    1.71
   6  -7  -1   43.56    4.75
   6  -7   0    2.31    2.22
   6  -6 -14    7.02    3.50
   6  -6 -13   37.09    5.48
   6  -6 -12    3.61    1.29
   6  -6 -11    1.69    1.30
   6  -6 -10    9.00    1.62
   6  -6  -9   33.99    2.57
   6  -6  -8   17.89    2.03
   6  -6  -7   90.06    4.74
   6  -6  -6   12.11    2.02
   6  -6  -5    4.41    1.51
   6  -6  -4   77.26    6.86
   6  -6  -3   62.57    4.27
   6  -6  -2    6.20    1.69
   6  -6  -1   80.82    5.39
   6  -6   0  250.59   14.88
   6  -6   6   19.18    4.73
   6  -6   7   99.60    7.58
   6  -6   8   17.81    2.87
   6  -6   9   33.06    4.60
   6  -6  10   16.97    6.59
   6  -6  11    2.31    2.22
   6  -6  12    6.00    7.30
   6  -6  13   40.83    9.84
   6  -6  14    8.82    4.63
   6  -5 -15    -.79    1.80
   6  -5 -14    6.60    1.90
   6  -5 -13    3.39    1.91
   6  -5 -12   35.05    2.72
   6  -5 -11  101.40    7.05
   6  -5 -10   44.36    3.06
   6  -5  -9   58.06    3.20
   6  -5  -8   85.38    5.54
   6  -5  -7   47.20    2.34
   6  -5  -6   15.37    2.51
   6  -5  -5   88.92    3.96
   6  -5  -4   43.03    2.23
   6  -5  -3   16.81    2.21
   6  -5  -2   19.27    2.02
   6  -5  -1   90.44    5.90
   6  -5   0   39.56    2.77
   6  -5   3    9.99    1.39
   6  -5   4   43.69    4.63
   6  -5   5   85.38    7.95
   6  -5   6   16.73    3.11
   6  -5   7   54.76   10.95
   6  -5   8   98.80   11.33
   6  -5   9   52.85    6.54
   6  -5  10   54.17    5.89
   6  -5  11  128.82   13.85
   6  -5  12  147.14  110.14
   6  -5  13   11.22    6.30
   6  -5  14  177.42   78.32
   6  -5  15    -.50    3.82
   6  -4 -15   20.16    2.78
   6  -4 -14    8.82    2.38
   6  -4 -13   10.30    2.12
   6  -4 -12   14.98    1.70
   6  -4 -11   72.76    4.26
   6  -4 -10   16.08    1.68
   6  -4  -9   56.85    4.07
   6  -4  -8   35.52    2.03
   6  -4  -7   41.60    2.45
   6  -4  -6    6.00    1.08
   6  -4  -5   44.36    2.26
   6  -4  -4   99.00    4.38
   6  -4  -3  124.77    6.48
   6  -4  -2  167.70    6.47
   6  -4  -1   37.95    2.96
   6  -4   0    6.10    1.19
   6  -4   2  179.29   11.25
   6  -4   3  137.59    8.91
   6  -4   4  101.00    8.44
   6  -4   5   56.55    3.91
   6  -4   6    5.62    2.09
   6  -4   7   41.86    3.75
   6  -4   8   39.31    4.39
   6  -4   9   61.62    5.97
   6  -4  10   13.32    2.92
   6  -4  11   87.80    6.93
   6  -4  12   18.32    4.88
   6  -4  13    5.90    2.82
   6  -4  14   15.76    9.37
   6  -4  15   19.62    7.44
   6  -3 -15    4.20    2.58
   6  -3 -14    3.10    1.90
   6  -3 -13   51.27    4.15
   6  -3 -12   21.34    3.14
   6  -3 -11   12.89    1.72
   6  -3 -10   10.82    1.38
   6  -3  -9    9.67    1.18
   6  -3  -8   27.56    2.20
   6  -3  -7  137.12    6.32
   6  -3  -6  270.27   10.85
   6  -3  -5    2.10    1.10
   6  -3  -4   61.47    2.51
   6  -3  -3   73.27    2.91
   6  -3  -2   21.07    1.38
   6  -3  -1   19.80    1.51
   6  -3   0  240.56   10.24
   6  -3   1   28.20    2.23
   6  -3   2   25.50    2.63
   6  -3   3   71.40    5.24
   6  -3   4   67.40    5.25
   6  -3   5    -.10    1.52
   6  -3   6  296.53   15.84
   6  -3   7  144.00   10.32
   6  -3   8   29.05    3.23
   6  -3   9   37.95   18.60
   6  -3  10   31.47    7.52
   6  -3  11    8.29   10.31
   6  -3  12   24.90    5.49
   6  -3  13   47.61    5.66
   6  -3  14   10.18    4.59
   6  -3  15    1.99    2.90
   6  -2 -16    7.08    4.47
   6  -2 -15   16.16    2.41
   6  -2 -14    3.88    2.29
   6  -2 -13   14.36    2.20
   6  -2 -12   50.13    3.26
   6  -2 -11   79.03    6.05
   6  -2 -10   43.82    3.31
   6  -2  -9   39.82    2.52
   6  -2  -8   22.47    1.71
   6  -2  -7   80.46    3.23
   6  -2  -6   63.68    2.87
   6  -2  -5   36.84    4.37
   6  -2  -4  110.88    4.21
   6  -2  -3   39.19    2.00
   6  -2  -2  419.02   14.33
   6  -2  -1  113.00    3.40
   6  -2   0    6.92     .68
   6  -2   1  117.07    4.98
   6  -2   2  428.08   20.69
   6  -2   3   40.58    3.69
   6  -2   4  117.07    7.14
   6  -2   5   32.95    2.98
   6  -2   6   56.55    5.72
   6  -2   7   75.00    5.37
   6  -2   8   29.05    4.10
   6  -2   9   35.16    3.44
   6  -2  10   50.27    5.81
   6  -2  11   88.17    5.82
   6  -2  12   46.65    4.23
   6  -2  13   12.60    4.97
   6  -2  14    9.61    5.52
   6  -2  15    8.18    4.98
   6  -2  16    3.39    3.90
   6  -1 -16   28.84    6.55
   6  -1 -15   16.81    2.62
   6  -1 -14   15.37    2.12
   6  -1 -13    8.88    1.61
   6  -1 -12   11.22    1.81
   6  -1 -11   77.79    4.23
   6  -1 -10   21.07    2.11
   6  -1  -9   47.75    2.76
   6  -1  -8    2.79    1.30
   6  -1  -7   77.26    3.16
   6  -1  -6   34.22    1.64
   6  -1  -5   46.51    1.64
   6  -1  -4   35.28    1.54
   6  -1  -3  233.48    6.72
   6  -1  -2  487.08   13.24
   6  -1  -1  162.05    5.35
   6  -1   0   31.02    2.56
   6  -1   1  176.09    7.43
   6  -1   2  512.57   20.38
   6  -1   3  261.15   10.34
   6  -1   4   38.94    3.12
   6  -1   5   48.02    2.91
   6  -1   6   63.36   16.72
   6  -1   7   79.39    4.99
   6  -1   8    9.12    3.68
   6  -1   9   53.73    6.01
   6  -1  10   20.79    4.83
   6  -1  11   80.82    7.19
   6  -1  12    7.90    3.60
   6  -1  13    8.58    3.57
   6  -1  14    6.00    6.42
   6  -1  15   25.20    5.32
   6  -1  16   29.05    6.68
   6   0 -16    3.39    3.39
   6   0 -15   23.04    8.83
   6   0 -14    9.92    2.20
   6   0 -13    6.81    1.20
   6   0 -12    3.39    1.69
   6   0 -11   28.52    2.14
   6   0 -10    3.69    1.88
   6   0  -9    5.02     .90
   6   0  -8   24.30    1.68
   6   0  -7  342.62   12.22
   6   0  -6  210.83    8.71
   6   0  -5   46.24    1.90
   6   0  -4   23.81    1.07
   6   0  -3  144.72    4.81
   6   0  -2  138.30    4.47
   6   0  -1   70.56    2.69
   6   0   0  154.26    5.22
   6   0   1   71.06    2.70
   6   0   2  143.04    5.50
   6   0   3  142.80    5.97
   6   0   4   22.66    2.48
   6   0   5   54.32    3.24
   6   0   6  206.50   11.78
   6   0   7  348.57   22.78
   6   0   8   20.79   11.04
   6   0   9    2.69    1.41
   6   0  10    3.10    1.80
   6   0  11   40.45    4.96
   6   0  12    8.82    3.33
   6   0  13   10.11    3.50
   6   0  14   16.73    8.18
   6   0  15    5.52    5.12
   6   0  16    4.28    3.97
   6   1 -16   31.36    5.60
   6   1 -15   14.82    5.08
   6   1 -14   27.25    5.64
   6   1 -13    5.38    1.48
   6   1 -12   18.58    2.33
   6   1 -11   88.17    4.32
   6   1 -10   24.40    1.68
   6   1  -9   49.00    2.24
   6   1  -8    2.31     .79
   6   1  -7   82.08    3.08
   6   1  -6   39.82    2.02
   6   1  -5   40.83    2.43
   6   1  -4   37.45    1.35
   6   1  -3  232.87    7.02
   6   1  -2  523.49   22.88
   6   1  -1  173.45    7.11
   6   1   0   27.35    1.57
   6   1   1  168.48    5.97
   6   1   2  511.21   19.44
   6   1   3  240.87   10.55
   6   1   4   32.95    2.18
   6   1   5   52.13    6.06
   6   1   6   34.46    3.99
   6   1   7   77.62    4.76
   6   1   8    2.79    2.20
   6   1   9   54.76   10.36
   6   1  10   26.42    4.32
   6   1  11   77.97    8.65
   6   1  12    7.67    3.88
   6   1  13   12.60    5.40
   6   1  14   19.18    3.68
   6   1  15   23.04    4.03
   6   1  16   26.21    7.48
   6   2 -16    8.70    4.90
   6   2 -15    7.78    2.12
   6   2 -14     .00    1.00
   6   2 -13    8.70    2.30
   6   2 -12   52.13    4.04
   6   2 -11   60.53    2.96
   6   2 -10   45.56    2.57
   6   2  -9   38.94    2.00
   6   2  -8   20.52    1.36
   6   2  -7   73.96    2.75
   6   2  -6   59.60    2.32
   6   2  -5   34.93    2.36
   6   2  -4  107.33    3.52
   6   2  -3   40.32    2.03
   6   2  -2  432.22   14.14
   6   2  -1  125.44    4.93
   6   2   0    8.41     .99
   6   2   1  124.32    3.79
   6   2   2  446.05   16.47
   6   2   3   42.51    2.09
   6   2   4  119.90    5.91
   6   2   5   29.81    1.97
   6   2   6   63.68    4.15
   6   2   7   75.69    5.22
   6   2   8   20.98    3.11
   6   2   9   39.19   10.02
   6   2  10   47.06    4.66
   6   2  11   68.72    7.13
   6   2  12   49.14    5.05
   6   2  13   15.13    5.60
   6   2  14   11.63    8.18
   6   2  15   28.62   19.26
   6   2  16   24.40    6.72
   6   3 -15    4.88    2.92
   6   3 -14    8.82    3.68
   6   3 -13   46.51    4.91
   6   3 -12   20.16    3.05
   6   3 -11    6.81    1.83
   6   3 -10    9.49    2.40
   6   3  -9    6.40    1.62
   6   3  -8   30.14    1.65
   6   3  -7  142.80    6.45
   6   3  -6  280.23    9.71
   6   3  -5     .40     .59
   6   3  -4   72.42    3.57
   6   3  -3   75.34    2.26
   6   3  -2   27.46    1.15
   6   3  -1   29.38    1.73
   6   3   0  248.06    9.45
   6   3   1   27.56    1.58
   6   3   2   22.37    1.14
   6   3   3   76.39    3.32
   6   3   4   63.36    3.34
   6   3   5     .40    1.10
   6   3   6  286.29   11.84
   6   3   7  129.50    6.83
   6   3   8   29.59    2.18
   6   3   9    7.67    1.99
   6   3  10   12.67    3.20
   6   3  11   16.32    9.37
   6   3  12   15.37   17.01
   6   3  13   64.16    6.57
   6   3  14   18.58    6.72
   6   3  15   -1.30   10.40
   6   4 -15   25.81    7.32
   6   4 -14   10.69    3.73
   6   4 -13   11.63    2.73
   6   4 -12   20.88    2.38
   6   4 -11   73.27    4.79
   6   4 -10   15.37    1.88
   6   4  -9   63.52    4.14
   6   4  -8   37.45    2.94
   6   4  -7   40.96    2.43
   6   4  -6    6.92    1.00
   6   4  -5   43.69    2.78
   6   4  -4  106.09    3.91
   6   4  -3  127.46    4.74
   6   4  -2  180.90    5.11
   6   4  -1   48.16    2.08
   6   4   0    6.20     .80
   6   4   1   47.33    2.34
   6   4   2  176.62    5.58
   6   4   3  128.60    4.76
   6   4   4  107.74    4.98
   6   4   5   47.75    2.76
   6   4   6    4.80    1.49
   6   4   7   41.73    3.62
   6   4   8   38.32    2.85
   6   4   9   60.84    3.43
   6   4  10   15.76    2.46
   6   4  11   73.62    8.07
   6   4  12   18.58    5.00
   6   4  13   14.29    4.61
   6   4  14    5.71    3.11
   6   4  15   36.97   19.46
   6   5 -15     .20    3.22
   6   5 -14    9.42    3.38
   6   5 -13    5.52    1.79
   6   5 -12   33.41    3.12
   6   5 -11  108.37    6.66
   6   5 -10   46.79    3.42
   6   5  -9   49.28    3.51
   6   5  -8   77.26    6.15
   6   5  -7   43.56    2.64
   6   5  -6   14.82    2.08
   6   5  -5   90.63    3.62
   6   5  -4   42.25    1.95
   6   5  -3   10.18    1.08
   6   5  -2   15.60    1.03
   6   5  -1   91.97    3.64
   6   5   0   36.24    1.81
   6   5   1   92.74    3.27
   6   5   2   14.82    1.00
   6   5   3   10.69     .98
   6   5   4   40.96    2.69
   6   5   5   86.86    4.29
   6   5   6   17.14    1.74
   6   5   7   44.89    3.35
   6   5   8   91.97    6.14
   6   5   9   54.46    3.84
   6   5  10   45.43    3.37
   6   5  11  102.41    7.69
   6   5  12   38.07    4.44
   6   5  13    7.18    3.91
   6   5  14   10.69    6.02
   6   5  15    4.08    7.60
   6   6 -14    4.58    3.21
   6   6 -13   50.84    6.70
   6   6 -12    1.00    1.50
   6   6 -11    1.80    1.50
   6   6 -10   10.82    3.68
   6   6  -9   28.62    2.89
   6   6  -8   15.92    2.39
   6   6  -7   92.74    5.78
   6   6  -6   15.52    1.58
   6   6  -5     .50     .91
   6   6  -4   90.06    4.93
   6   6  -3   74.65    3.63
   6   6  -2    8.29    1.09
   6   6  -1   80.28    3.05
   6   6   0  239.32    9.90
   6   6   1   83.72    2.93
   6   6   2    6.50     .82
   6   6   3   68.06    3.63
   6   6   4   94.48    4.28
   6   6   5    2.50    2.09
   6   6   6   13.69    1.70
   6   6   7   82.81    4.91
   6   6   8   13.03    2.38
   6   6   9   35.52    2.98
   6   6  10    7.51    2.52
   6   6  11    3.31    2.51
   6   6  12    4.49    2.50
   6   6  13   39.19    4.63
   6   6  14    2.10    3.80
   6   7 -14   65.77   22.71
   6   7 -13   10.69    2.22
   6   7 -12   25.30    3.72
   6   7 -11    7.08    2.87
   6   7 -10   24.70    3.28
   6   7  -9   49.42    3.80
   6   7  -8   94.87    6.23
   6   7  -7    4.20    1.68
   6   7  -6   19.01    2.18
   6   7  -5  109.41    5.02
   6   7  -4  100.20    4.20
   6   7  -3   63.52    3.19
   6   7  -2   12.39    1.27
   6   7  -1   46.92    2.47
   6   7   0    3.39     .88
   6   7   1   45.56    2.83
   6   7   2   13.99    1.20
   6   7   3   62.73    4.12
   6   7   4   80.82    5.21
   6   7   5   97.42    5.72
   6   7   6   32.60    4.00
   6   7   7    1.69    1.51
   6   7   8   96.04    6.08
   6   7   9   45.29    3.63
   6   7  10   22.00    3.85
   6   7  11   10.50    3.30
   6   7  12   26.63    3.10
   6   7  13    6.40    2.38
   6   7  14    3.80    2.42
   6   8 -13    5.11    3.80
   6   8 -12   11.29    4.50
   6   8 -11   14.36    2.73
   6   8 -10    5.81    2.41
   6   8  -9     .40    1.30
   6   8  -8   65.45    6.15
   6   8  -7   24.90    4.79
   6   8  -6   14.36    2.12
   6   8  -5   55.50    3.28
   6   8  -4   97.81    4.75
   6   8  -3   46.38    3.13
   6   8  -2   22.66    1.81
   6   8  -1   94.48    4.08
   6   8   0  165.12    6.17
   6   8   1   94.48    5.64
   6   8   2   16.56    1.47
   6   8   3   43.43    3.30
   6   8   4   89.11    4.53
   6   8   5   56.10    3.89
   6   8   6    8.53    1.93
   6   8   7    9.67    1.93
   6   8   8   58.83    4.60
   6   8   9    3.61    1.71
   6   8  10    7.18    2.09
   6   8  11   18.32    5.56
   6   8  12   19.18    4.12
   6   8  13    3.88    2.29
   6   9 -12    6.92    2.68
   6   9 -11    4.00    3.08
   6   9 -10   45.97    4.20
   6   9  -9   38.69    4.60
   6   9  -8   21.44    2.87
   6   9  -7   13.40    2.49
   6   9  -6    6.00    1.72
   6   9  -5   12.53    1.98
   6   9  -4   30.25    2.75
   6   9  -3   75.69    3.31
   6   9  -2    7.51    1.59
   6   9  -1   69.56    4.84
   6   9   0   85.75    4.07
   6   9   1   60.06    3.25
   6   9   2    9.00    2.22
   6   9   3   72.08    5.09
   6   9   4   29.81    3.17
   6   9   5   11.49    2.31
   6   9   6   26.94    4.15
   6   9   7   18.32    3.00
   6   9   8   17.22    3.40
   6   9   9   40.20    3.30
   6   9  10   50.69    4.56
   6   9  11    6.50    3.72
   6   9  12   10.30    5.97
   6  10 -11    8.01    6.11
   6  10 -10    9.67    2.80
   6  10  -9   39.06    4.75
   6  10  -8   11.97    2.21
   6  10  -7   22.66    3.24
   6  10  -6    9.99    2.40
   6  10  -5   67.40    4.43
   6  10  -4   21.90    2.34
   6  10  -3    2.79    1.70
   6  10  -2    9.18    1.58
   6  10  -1   29.27    2.38
   6  10   0    7.62    1.49
   6  10   1   32.04    2.60
   6  10   2   11.97    2.21
   6  10   3    3.10    2.60
   6  10   4   33.76    5.46
   6  10   5   68.72    5.97
   6  10   6   16.97    3.46
   6  10   7   17.14    3.06
   6  10   8   11.90    3.93
   6  10   9   23.72    4.09
   6  10  10    6.81    3.08
   6  10  11    9.61    3.22
   6  11  -9    3.10    1.90
   6  11  -8   10.37    3.03
   6  11  -7   19.10    3.32
   6  11  -6   14.67    3.29
   6  11  -5   70.90    6.74
   6  11  -4   10.11    1.91
   6  11  -3    8.41    1.51
   6  11  -2   21.44    2.41
   6  11  -1   54.32    3.83
   6  11   0   10.50    2.01
   6  11   1   52.71    4.07
   6  11   2   27.25    3.55
   6  11   3    4.71    2.52
   6  11   4   11.83    3.51
   6  11   5   68.72    5.80
   6  11   6   17.39    3.42
   6  11   7   18.84    2.69
   6  11   8   10.50    6.03
   6  11   9    4.88    3.01
   6  12  -8    2.40    3.41
   6  12  -7     .30    2.31
   6  12  -6    6.92    4.00
   6  12  -5   19.71    4.53
   6  12  -4    7.90    3.48
   6  12  -3   19.18    2.63
   6  12  -2    6.71    2.38
   6  12  -1   16.48    2.44
   6  12   0    8.18    2.52
   6  12   1   19.18    3.50
   6  12   2    6.30    3.41
   6  12   3   34.93    4.85
   6  12   4    2.10    5.10
   6  12   5   18.32    4.11
   6  12   6    7.51    6.58
   6  12   7    1.90    2.21
   6  12   8    2.79    3.21
   6  13  -5   16.97    4.12
   6  13  -4    1.10    1.99
   6  13  -3    4.20    1.89
   6  13  -2    6.20    3.19
   6  13  -1    5.71    1.82
   6  13   0    1.99    3.19
   6  13   1     .50    3.21
   6  13   2    5.71    4.49
   6  13   3     .90    2.30
   6  13   4    2.31    3.71
   6  13   5   21.72    5.78
   7 -12  -5   10.50    6.29
   7 -12  -4   48.72   33.09
   7 -12  -3   16.40    7.61
   7 -11  -7    9.92    6.99
   7 -11  -6   25.00    5.00
   7 -11  -5   61.94   15.74
   7 -11  -4   12.11    2.99
   7 -11  -3    1.21    3.92
   7 -10  -9    6.20    4.38
   7 -10  -8   20.88   13.07
   7 -10  -7   15.92    3.51
   7 -10  -6     .50    2.41
   7 -10  -5   12.67    3.77
   7 -10  -4   33.29    4.85
   7 -10  -3    8.12    2.39
   7 -10  -2    8.29    6.28
   7  -9 -10   -2.99   16.78
   7  -9  -9   91.58   34.64
   7  -9  -8   55.35    6.55
   7  -9  -7   23.81    4.20
   7  -9  -6    8.88    4.11
   7  -9  -5    4.88    2.92
   7  -9  -4   66.26    7.49
   7  -9  -3    5.38    7.10
   7  -9  -2   58.83    7.06
   7  -8 -11   13.91    4.63
   7  -8 -10   19.62    5.49
   7  -8  -9   11.49    3.32
   7  -8  -8    1.00    1.70
   7  -8  -7   81.90   10.50
   7  -8  -6   41.47    3.86
   7  -8  -5    2.59    2.29
   7  -8  -4   16.16    3.86
   7  -8  -3    2.50    2.40
   7  -8  -2   21.81    3.46
   7  -7 -12    3.50    4.00
   7  -7 -11   20.88    7.22
   7  -7 -10   13.03    9.53
   7  -7  -9   19.18    4.03
   7  -7  -8   19.36    4.22
   7  -7  -7    4.08    3.27
   7  -7  -6    3.31    2.80
   7  -7  -5    7.62    2.82
   7  -7  -4   95.26    6.44
   7  -7  -3  119.03    6.76
   7  -7  -2   19.71    2.49
   7  -6 -13   22.37    4.82
   7  -6 -12    7.02    3.82
   7  -6 -11    2.69    1.71
   7  -6 -10    8.82    1.60
   7  -6  -9  111.94    6.35
   7  -6  -8   83.17    7.11
   7  -6  -7   23.33    3.09
   7  -6  -6   72.42    4.77
   7  -6  -5   26.94    3.84
   7  -6  -4    3.88    2.68
   7  -6  -3    2.79    1.90
   7  -6  -2   98.80    6.96
   7  -6  -1    5.62    1.90
   7  -6  10   19.62    7.44
   7  -6  11   19.71    4.97
   7  -6  12    8.01    5.21
   7  -6  13   22.00    7.88
   7  -5 -13    5.90    2.19
   7  -5 -12   21.16    3.04
   7  -5 -11   17.31    2.66
   7  -5 -10    7.67    2.71
   7  -5  -9   12.60    1.49
   7  -5  -8   14.82    3.39
   7  -5  -7   26.94    1.97
   7  -5  -6   58.68    3.98
   7  -5  -5   37.95    2.71
   7  -5  -4   15.68    1.50
   7  -5  -3  111.51    9.08
   7  -5  -2   -3.10    1.51
   7  -5  -1  104.04    6.32
   7  -5   7   26.52    5.05
   7  -5   8    9.30    2.07
   7  -5   9   11.22    3.08
   7  -5  10    -.59    2.79
   7  -5  11   23.04    6.72
   7  -5  12   24.60    4.86
   7  -5  13    3.39    9.57
   7  -4 -14   18.92    3.13
   7  -4 -13    3.31    1.82
   7  -4 -12    3.80    2.18
   7  -4 -11   36.24    3.25
   7  -4 -10   65.77    3.73
   7  -4  -9   35.40    3.33
   7  -4  -8    9.12    1.99
   7  -4  -7    8.88    1.49
   7  -4  -6   94.67    4.48
   7  -4  -5   65.77    3.24
   7  -4  -4  158.51    7.05
   7  -4  -3    1.00    1.20
   7  -4  -2   99.40    3.99
   7  -4  -1    4.20    1.19
   7  -4   5   66.42    6.52
   7  -4   6  105.88    6.59
   7  -4   7   16.73    5.40
   7  -4   8    7.51   16.93
   7  -4   9   32.95    4.94
   7  -4  10   53.14    6.42
   7  -4  11   33.76    4.65
   7  -4  12   12.53    4.81
   7  -4  13    5.02   16.13
   7  -4  14   64.32   23.58
   7  -3 -14    5.81    2.22
   7  -3 -13    4.80    1.80
   7  -3 -12    7.90    2.08
   7  -3 -11   17.81    2.19
   7  -3 -10   19.89    1.87
   7  -3  -9   19.62    2.04
   7  -3  -8   78.85    3.73
   7  -3  -7   63.52    3.35
   7  -3  -6   11.97    1.38
   7  -3  -5  181.71    6.74
   7  -3  -4   31.70    1.80
   7  -3  -3   43.96    1.99
   7  -3  -2   20.52    1.54
   7  -3  -1  197.68   11.25
   7  -3   0   50.84    3.57
   7  -3   3   45.97    4.34
   7  -3   4   33.06    4.95
   7  -3   5  173.98   17.41
   7  -3   6   10.82    2.70
   7  -3   7   76.04    5.06
   7  -3   8   77.62    5.99
   7  -3   9   20.52    5.53
   7  -3  10   12.18    2.79
   7  -3  11   17.89    8.29
   7  -3  12   30.03   16.55
   7  -3  13    5.29    2.99
   7  -3  14    3.69    5.61
   7  -2 -14    5.81    1.78
   7  -2 -13   23.23    2.99
   7  -2 -12   26.32    2.98
   7  -2 -11   10.50    2.27
   7  -2 -10   74.65    3.97
   7  -2  -9    1.59    1.29
   7  -2  -8   19.54    2.03
   7  -2  -7  100.40    4.61
   7  -2  -6   20.52    1.90
   7  -2  -5   12.11    1.11
   7  -2  -4   43.16    2.50
   7  -2  -3    7.78    1.79
   7  -2  -2   77.44    3.52
   7  -2  -1  115.13    7.08
   7  -2   0   12.11    1.39
   7  -2   1  124.77    6.03
   7  -2   2   78.32    5.13
   7  -2   3    7.67    1.38
   7  -2   4   51.55    4.74
   7  -2   5   15.76    2.30
   7  -2   6   20.70    3.00
   7  -2   7  105.68   10.07
   7  -2   8   24.21    3.54
   7  -2   9    3.39    3.39
   7  -2  10   78.68    6.56
   7  -2  11   20.07    9.77
   7  -2  12   29.59    5.55
   7  -2  13   37.95    5.67
   7  -2  14   15.29   15.17
   7  -1 -15    8.70    3.89
   7  -1 -14    6.81    2.09
   7  -1 -13    3.80    2.89
   7  -1 -12   39.56    3.14
   7  -1 -11    7.78    1.67
   7  -1 -10   17.64    2.44
   7  -1  -9   74.82    5.02
   7  -1  -8   36.97    2.55
   7  -1  -7   61.31    2.98
   7  -1  -6   78.15    4.07
   7  -1  -5   30.47    1.55
   7  -1  -4   19.54    1.94
   7  -1  -3  184.69    7.07
   7  -1  -2   45.43    2.97
   7  -1  -1   41.47    2.06
   7  -1   0   36.84    2.06
   7  -1   1   36.84    2.55
   7  -1   2   37.45    2.08
   7  -1   3  216.38   15.30
   7  -1   4   22.75    3.05
   7  -1   5   32.72    3.55
   7  -1   6   76.74    4.73
   7  -1   7   52.27    5.64
   7  -1   8   43.69    8.06
   7  -1   9   91.39    8.41
   7  -1  10   14.90    3.47
   7  -1  11    5.71    2.10
   7  -1  12   31.25    5.14
   7  -1  13    1.00    3.30
   7  -1  14   10.11    4.58
   7  -1  15   26.94    9.34
   7   0 -15   15.29    3.91
   7   0 -14   12.11    3.13
   7   0 -13    2.69    1.51
   7   0 -12   28.94    3.12
   7   0 -11   27.56    2.52
   7   0 -10     .10     .91
   7   0  -9    -.10    1.62
   7   0  -8  101.61    6.05
   7   0  -7   32.49    2.17
   7   0  -6   88.92    4.15
   7   0  -5    8.70    1.00
   7   0  -4    7.29     .92
   7   0  -3   43.03    1.71
   7   0  -2  174.24    7.39
   7   0  -1    3.10     .92
   7   0   0    -.71     .81
   7   0   1    3.61    1.22
   7   0   2  171.61    7.60
   7   0   3   44.09    2.12
   7   0   4   11.63    2.11
   7   0   5    9.67    2.18
   7   0   6   92.35    6.53
   7   0   7   35.64    4.54
   7   0   8  102.82    7.30
   7   0   9    8.01    4.98
   7   0  10    6.00    7.89
   7   0  11   33.76    4.88
   7   0  12   30.36    4.41
   7   0  13   13.32    5.40
   7   0  14   13.62    5.53
   7   0  15   13.62    4.58
   7   1 -15    8.12    3.08
   7   1 -14   15.60    7.27
   7   1 -13    5.02    3.09
   7   1 -12   40.32    4.32
   7   1 -11    4.00    1.20
   7   1 -10   15.52    1.81
   7   1  -9   76.91    5.09
   7   1  -8   37.70    2.58
   7   1  -7   57.30    2.73
   7   1  -6   77.26    3.87
   7   1  -5   29.05    1.40
   7   1  -4   23.14    1.54
   7   1  -3  203.92    8.28
   7   1  -2   38.19    2.22
   7   1  -1   37.58    3.19
   7   1   0   38.44    2.11
   7   1   1   36.12    2.04
   7   1   2   45.02    2.42
   7   1   3  199.94    9.90
   7   1   4   18.06    2.04
   7   1   5   31.36    4.93
   7   1   6   83.17    7.84
   7   1   7   59.91    4.80
   7   1   8   47.06    8.51
   7   1   9   72.93    5.29
   7   1  10   13.62    3.32
   7   1  11    9.12    3.99
   7   1  12   31.25    4.70
   7   1  13    3.69    3.88
   7   1  14    7.62    6.18
   7   1  15   14.59   11.00
   7   2 -14    4.08    3.27
   7   2 -13   25.00    4.10
   7   2 -12   21.72    3.08
   7   2 -11   14.21    2.56
   7   2 -10   91.01    9.73
   7   2  -9    5.90    1.31
   7   2  -8   22.66    1.81
   7   2  -7  102.41    3.85
   7   2  -6   23.04    1.63
   7   2  -5   12.11    1.32
   7   2  -4   49.56    2.96
   7   2  -3    8.41     .99
   7   2  -2   83.72    3.66
   7   2  -1  139.00    7.31
   7   2   0   11.22    1.41
   7   2   1  127.69    5.65
   7   2   2   80.46    4.31
   7   2   3   15.92    3.27
   7   2   4   42.25    2.99
   7   2   5   11.90    2.21
   7   2   6   15.37    4.08
   7   2   7   92.93    8.48
   7   2   8   16.00    3.68
   7   2   9    6.81    4.49
   7   2  10   82.26    6.71
   7   2  11   23.62   12.05
   7   2  12   24.50    4.65
   7   2  13   41.22    7.19
   7   2  14   14.90    7.33
   7   3 -14    1.30    2.69
   7   3 -13    4.41    1.81
   7   3 -12     .79    2.30
   7   3 -11   27.25    3.45
   7   3 -10   22.00    3.38
   7   3  -9   21.44    2.04
   7   3  -8   73.27    4.79
   7   3  -7   58.06    3.66
   7   3  -6   11.97    1.73
   7   3  -5  179.02    7.49
   7   3  -4   35.05    2.01
   7   3  -3   42.64    3.13
   7   3  -2   17.64    1.18
   7   3  -1  217.86    8.86
   7   3   0   53.73    2.64
   7   3   1  208.22    8.66
   7   3   2   18.84    1.22
   7   3   3   44.62    2.54
   7   3   4   29.05    2.69
   7   3   5  182.79    8.92
   7   3   6   10.11    2.93
   7   3   7   65.77   18.17
   7   3   8   83.54    7.68
   7   3   9   24.50    5.64
   7   3  10   13.99    4.41
   7   3  11   15.21    3.51
   7   3  12   20.61    7.54
   7   3  13    8.12    3.59
   7   3  14    3.20    4.62
   7   4 -14   18.66    5.62
   7   4 -13    6.81    4.02
   7   4 -12    4.28    2.11
   7   4 -11   31.92    3.05
   7   4 -10   56.40    4.81
   7   4  -9   35.16    3.44
   7   4  -8    5.02    1.61
   7   4  -7   29.59    8.27
   7   4  -6   99.80    6.59
   7   4  -5   75.00    4.16
   7   4  -4  162.31    8.66
   7   4  -3    1.49    1.00
   7   4  -2   96.83    3.35
   7   4  -1    4.00     .80
   7   4   0   22.47    1.33
   7   4   1    5.90     .92
   7   4   2   99.60    4.59
   7   4   3    1.59    1.49
   7   4   4  160.53    8.62
   7   4   5   64.96    3.71
   7   4   6   98.21    6.34
   7   4   7   11.42    2.50
   7   4   8    5.90    1.80
   7   4   9   35.52    8.22
   7   4  10   57.61    7.13
   7   4  11   26.73    4.65
   7   4  12   11.97    5.26
   7   4  13     .00    1.00
   7   4  14   19.01    4.88
   7   5 -13    4.28    1.99
   7   5 -12   25.60    3.44
   7   5 -11   20.88    3.29
   7   5 -10    1.39    1.79
   7   5  -9   12.53    2.90
   7   5  -8    9.42    1.78
   7   5  -7   25.30    2.62
   7   5  -6   57.46    3.79
   7   5  -5   45.02    2.95
   7   5  -4   14.90    1.62
   7   5  -3  113.64    5.33
   7   5  -2    3.61     .91
   7   5  -1  138.77    4.95
   7   5   0  229.52   10.00
   7   5   1  127.46    5.19
   7   5   2    3.50    1.01
   7   5   3  115.35    5.80
   7   5   4   18.06    2.63
   7   5   5   40.96    2.82
   7   5   6   61.15    3.75
   7   5   7   27.67    2.84
   7   5   8   11.90    2.21
   7   5   9   17.89    3.13
   7   5  10   -1.80    2.60
   7   5  11   22.09    5.64
   7   5  12   23.72    5.26
   7   5  13   26.42    9.35
   7   6 -13   29.81   11.79
   7   6 -12    8.70    3.13
   7   6 -11    9.30    2.32
   7   6 -10   13.47    1.76
   7   6  -9   95.06    6.82
   7   6  -8   78.85    4.97
   7   6  -7   15.92    1.68
   7   6  -6   68.23    4.96
   7   6  -5   36.84    3.28
   7   6  -4    5.38    1.30
   7   6  -3     .00    1.00
   7   6  -2  104.45    4.70
   7   6  -1    2.40     .90
   7   6   0     .30    1.00
   7   6   1    2.99    1.21
   7   6   2  102.01    6.67
   7   6   3    -.10    1.92
   7   6   4    4.00    1.28
   7   6   5   31.92    2.49
   7   6   6   67.57    4.44
   7   6   7   23.52    3.49
   7   6   8   84.64    5.34
   7   6   9  108.99    7.10
   7   6  10   13.62    3.47
   7   6  11    6.00    3.48
   7   6  12    8.01   20.83
   7   6  13   34.34   21.21
   7   7 -12    3.80    2.69
   7   7 -11   20.70    3.28
   7   7 -10    7.78    1.79
   7   7  -9   18.92    3.04
   7   7  -8   15.52    2.29
   7   7  -7    6.30    2.71
   7   7  -6    7.51    1.59
   7   7  -5    5.90    1.70
   7   7  -4   96.24    5.49
   7   7  -3  110.46    5.89
   7   7  -2   26.63    1.65
   7   7  -1    9.00    1.08
   7   7   0   66.59    3.75
   7   7   1    7.51    1.10
   7   7   2   25.91    2.85
   7   7   3  117.94    6.73
   7   7   4   82.99    4.74
   7   7   5    4.58    1.80
   7   7   6    9.49    2.22
   7   7   7    -.30    1.61
   7   7   8   18.58    3.02
   7   7   9   13.18    2.69
   7   7  10    7.67    2.27
   7   7  11   24.21    3.94
   7   7  12     .59    2.79
   7   8 -11    9.30    2.50
   7   8 -10    2.10    2.09
   7   8  -9   15.92    3.19
   7   8  -8    3.39    2.21
   7   8  -7   83.72    6.40
   7   8  -6   39.69    2.90
   7   8  -5    4.88    2.92
   7   8  -4    6.20    1.39
   7   8  -3    -.20     .91
   7   8  -2   22.18    2.83
   7   8  -1    5.11     .99
   7   8   0     .10    1.11
   7   8   1   11.49    2.31
   7   8   2   31.36    4.70
   7   8   3    6.00    3.92
   7   8   4   11.83    2.89
   7   8   5    5.02    2.02
   7   8   6   55.65    6.56
   7   8   7   67.57    5.43
   7   8   8    7.08    2.71
   7   8   9    7.18    3.11
   7   8  10    1.90    3.81
   7   8  11   20.98    3.76
   7   9 -10    7.90    4.27
   7   9  -9   11.09    2.20
   7   9  -8   48.30    4.45
   7   9  -7   21.53    2.97
   7   9  -6    8.29    2.82
   7   9  -5    2.40    2.29
   7   9  -4   56.25    4.65
   7   9  -3    2.10    1.60
   7   9  -2   57.15    3.48
   7   9  -1   33.29    2.77
   7   9   0    3.20    1.50
   7   9   1   39.44    3.64
   7   9   2   66.42    5.54
   7   9   3    -.10    2.02
   7   9   4   71.74    5.93
   7   9   5    3.50    2.39
   7   9   6    3.88    2.68
   7   9   7   17.98    2.37
   7   9   8   56.25    6.45
   7   9   9   12.18    3.49
   7   9  10    6.20    4.58
   7  10  -9    5.90    2.82
   7  10  -8   13.99    2.92
   7  10  -7   28.84    3.65
   7  10  -6    6.40    2.28
   7  10  -5   15.92    2.47
   7  10  -4   24.80    3.59
   7  10  -3   17.22    2.32
   7  10  -2    2.31    1.49
   7  10  -1    6.81    1.88
   7  10   0   26.11    5.31
   7  10   1    3.88    1.89
   7  10   2    5.38    3.39
   7  10   3   14.52    2.51
   7  10   4   31.25    3.24
   7  10   5   16.97    3.46
   7  10   6    6.50    3.01
   7  10   7   24.01    3.92
   7  10   8   17.89    3.72
   7  10   9    8.58    3.40
   7  11  -7    7.08    5.21
   7  11  -6   25.70    4.26
   7  11  -5   32.60    6.28
   7  11  -4    7.02    3.02
   7  11  -3    4.58    2.01
   7  11  -2   34.22    3.39
   7  11  -1   11.97    3.32
   7  11   0   45.83    6.23
   7  11   1   11.70    2.67
   7  11   2   31.81    4.17
   7  11   3     .10    3.85
   7  11   4    2.10    2.70
   7  11   5   32.95    4.36
   7  11   6   21.16    3.77
   7  11   7    9.80    4.01
   7  12  -5    6.71    2.80
   7  12  -4    8.01    3.00
   7  12  -3    9.30    3.72
   7  12  -2    2.19    2.10
   7  12  -1   11.29    6.52
   7  12   0   35.52    6.44
   7  12   1   28.52   10.79
   7  12   2     .59    4.57
   7  12   3   13.62    4.21
   7  12   4   13.03    3.90
   7  12   5    8.58    4.10
   8 -11  -4    9.92    4.54
   8 -10  -7   12.82    4.37
   8 -10  -6   16.89    4.52
   8 -10  -5   18.92    3.74
   8 -10  -4    7.08    2.98
   8  -9  -8   10.82    3.88
   8  -9  -7   13.47    3.96
   8  -9  -6   13.18    3.99
   8  -9  -5   11.29    3.02
   8  -9  -4   15.76    3.49
   8  -9  -3   44.89    6.57
   8  -8  -9   13.10    5.29
   8  -8  -8   10.50    3.30
   8  -8  -7   20.07    4.12
   8  -8  -6   12.11    3.69
   8  -8  -5   32.04    3.85
   8  -8  -4    7.62    3.59
   8  -8  -3   17.72    3.28
   8  -7 -10   14.36    2.73
   8  -7  -9   13.62    7.38
   8  -7  -8   24.80    9.66
   8  -7  -7   62.73    7.13
   8  -7  -6    9.80    2.19
   8  -7  -5    2.31    1.92
   8  -7  -4    2.99    3.18
   8  -7  -3   23.62    3.30
   8  -6 -11    1.80    3.11
   8  -6 -10    7.51    3.18
   8  -6  -9   13.32    2.70
   8  -6  -8   10.89    3.37
   8  -6  -7   14.59    3.21
   8  -6  -6   55.95    9.57
   8  -6  -5   41.86    5.18
   8  -6  -4   22.47    3.41
   8  -6  -3   18.49    3.18
   8  -5 -12   -2.40    2.70
   8  -5 -11   23.04    4.32
   8  -5 -10   22.75    3.53
   8  -5  -9   17.22    2.49
   8  -5  -8    7.02    2.23
   8  -5  -7   29.92    2.41
   8  -5  -6   31.58    2.36
   8  -5  -5   33.52    2.55
   8  -5  -4   15.52    2.60
   8  -5  -3   79.03    5.87
   8  -4 -12    4.80    2.80
   8  -4 -11    6.92    2.00
   8  -4 -10   30.25    3.41
   8  -4  -9   32.26    3.18
   8  -4  -8   17.22    2.74
   8  -4  -7    6.60    1.18
   8  -4  -6   19.71    1.86
   8  -4  -5   55.06    3.86
   8  -4  -4   32.04    2.49
   8  -4  -3   18.92    1.57
   8  -4  -2   58.68    5.97
   8  -3 -13    7.29    2.11
   8  -3 -12    7.40    4.90
   8  -3 -11   30.47    3.53
   8  -3 -10   16.16    2.49
   8  -3  -9   65.77    4.87
   8  -3  -8    8.58    1.52
   8  -3  -7    2.79    1.60
   8  -3  -6   78.15    4.95
   8  -3  -5   36.72    2.55
   8  -3  -4    4.71    1.00
   8  -3  -3    6.00     .98
   8  -3  -2   29.16    2.59
   8  -3  -1    7.51    1.42
   8  -3   7    4.28    3.39
   8  -3   8   14.36    4.40
   8  -3   9   68.23    7.43
   8  -3  10   17.72    5.81
   8  -3  11   34.46    5.64
   8  -3  12    7.51    4.88
   8  -3  13   22.94    7.47
   8  -2 -13   11.02    2.12
   8  -2 -12    1.21    2.42
   8  -2 -11    4.58    2.18
   8  -2 -10    7.62    2.21
   8  -2  -9   24.80    1.99
   8  -2  -8   16.16    1.77
   8  -2  -7    1.69    1.51
   8  -2  -6   11.97    1.31
   8  -2  -5   27.14    2.92
   8  -2  -4  238.08   12.34
   8  -2  -3   12.60    1.21
   8  -2  -2   78.85    5.68
   8  -2  -1     .20    1.31
   8  -2   0  181.44   13.74
   8  -2   1     .71     .71
   8  -2   5   31.14    4.13
   8  -2   6   14.36    2.88
   8  -2   7   -2.10    2.20
   8  -2   8   25.40    7.36
   8  -2   9   18.92    3.83
   8  -2  10    7.02    3.29
   8  -2  11    5.02    2.82
   8  -2  12    8.58    5.39
   8  -2  13    9.30    5.43
   8  -1 -13   11.97    3.53
   8  -1 -12   10.89    3.50
   8  -1 -11   10.82    1.97
   8  -1 -10    3.61    1.60
   8  -1  -9   77.97    4.94
   8  -1  -8    7.18    1.82
   8  -1  -7   10.63    1.43
   8  -1  -6   13.40    1.90
   8  -1  -5  113.85    5.98
   8  -1  -4    2.89     .88
   8  -1  -3   48.58    4.74
   8  -1  -2   19.10    2.36
   8  -1  -1   52.56    3.34
   8  -1   0   10.69    1.57
   8  -1   1   56.85    3.77
   8  -1   2   21.72    2.61
   8  -1   3   53.73    4.84
   8  -1   4     .79    1.80
   8  -1   5  118.59   11.11
   8  -1   6   19.18    3.68
   8  -1   7   15.52    3.78
   8  -1   8    2.40    2.70
   8  -1   9   89.11    8.12
   8  -1  10    2.40    4.90
   8  -1  11    7.29    3.40
   8  -1  12   14.21    5.73
   8  -1  13   31.25    6.48
   8   0 -13    9.12    3.93
   8   0 -12   11.09    3.13
   8   0 -11    1.10    1.70
   8   0 -10    2.10    1.51
   8   0  -9    7.08    1.70
   8   0  -8   69.22    3.99
   8   0  -7   67.24    4.26
   8   0  -6    6.30    1.20
   8   0  -5   21.72    3.36
   8   0  -4  181.71    9.71
   8   0  -3    -.10    1.11
   8   0  -2   10.69    1.37
   8   0  -1  102.62    9.52
   8   0   0  253.76   17.84
   8   0   1   90.82    5.15
   8   0   2   12.53    1.98
   8   0   3    -.40    3.09
   8   0   4  191.55   14.67
   8   0   5   23.33    3.19
   8   0   6    9.42    9.70
   8   0   7   57.46    6.67
   8   0   8   74.65    8.64
   8   0   9    2.31    2.92
   8   0  10    7.51    4.11
   8   0  11   -1.59    3.58
   8   0  12   17.72    5.64
   8   0  13     .10    6.17
   8   1 -13   29.05    4.31
   8   1 -12   12.82    3.58
   8   1 -11    9.80    3.51
   8   1 -10    1.99    2.28
   8   1  -9   83.54    6.58
   8   1  -8    3.20    1.22
   8   1  -7   15.60    1.82
   8   1  -6   18.06    1.70
   8   1  -5  112.15    7.84
   8   1  -4    -.50    1.41
   8   1  -3   49.28    4.07
   8   1  -2   20.16    1.80
   8   1  -1   55.80    3.73
   8   1   0    9.67    2.30
   8   1   1   54.76    2.96
   8   1   2   22.37    2.84
   8   1   3   63.20    7.47
   8   1   4    2.10    2.09
   8   1   5  128.60   15.42
   8   1   6   15.13    3.50
   8   1   7   12.39    5.63
   8   1   8    7.08    3.62
   8   1   9   89.49    7.76
   8   1  10    6.92    5.31
   8   1  11   10.18    3.89
   8   1  12   10.37    5.28
   8   1  13   54.46   10.63
   8   2 -13   14.67    4.52
   8   2 -12    6.20    3.88
   8   2 -11    3.61    3.42
   8   2 -10    5.71    1.91
   8   2  -9   16.40    2.84
   8   2  -8   19.18    2.80
   8   2  -7     .79    1.19
   8   2  -6   11.22    1.47
   8   2  -5   27.56    2.41
   8   2  -4  233.48   17.42
   8   2  -3    7.18    1.39
   8   2  -2   89.30    4.54
   8   2  -1    1.39     .99
   8   2   0  211.12   12.50
   8   2   1    1.49    1.90
   8   2   2   85.01    5.16
   8   2   3   14.90    2.93
   8   2   4  226.20   18.65
   8   2   5   33.41    4.39
   8   2   6   11.49    2.78
   8   2   7   10.69    3.99
   8   2   8   18.32    6.76
   8   2   9   20.07    4.66
   8   2  10    8.82    3.62
   8   2  11    6.81    4.02
   8   2  12    5.52    4.61
   8   2  13   16.08    3.21
   8   3 -13    8.18    4.98
   8   3 -12    2.89    1.80
   8   3 -11   27.04    3.54
   8   3 -10   16.08    3.37
   8   3  -9   80.10    7.88
   8   3  -8    7.18    2.20
   8   3  -7    1.90    1.90
   8   3  -6   78.15    6.54
   8   3  -5   40.07    3.54
   8   3  -4    2.10    1.10
   8   3  -3    9.00    1.68
   8   3  -2   28.30    2.55
   8   3  -1   12.82    1.93
   8   3   0   69.56    3.84
   8   3   1    6.30    1.00
   8   3   2   33.41    3.70
   8   3   3    2.10    2.09
   8   3   4    5.29    2.71
   8   3   5   35.28    3.80
   8   3   6   79.39    7.13
   8   3   7    1.39    2.01
   8   3   8   11.63    3.48
   8   3   9   82.26    7.98
   8   3  10   15.37    4.63
   8   3  11   28.09    6.57
   8   3  12   20.79    6.11
   8   3  13   14.90    4.71
   8   4 -12    1.99    2.28
   8   4 -11    8.88    2.80
   8   4 -10   27.25    4.07
   8   4  -9   27.67    4.52
   8   4  -8   14.90    2.62
   8   4  -7    5.71    1.63
   8   4  -6   19.27    2.02
   8   4  -5   50.27    2.98
   8   4  -4   33.18    2.30
   8   4  -3   20.70    2.28
   8   4  -2   54.32    3.83
   8   4  -1   53.73    3.96
   8   4   0  102.41    7.49
   8   4   1   50.98    6.00
   8   4   2   57.76    5.32
   8   4   3   24.11    4.22
   8   4   4   33.64    4.87
   8   4   5   55.95    5.98
   8   4   6   26.11    7.56
   8   4   7    5.02    2.69
   8   4   8   18.84    5.99
   8   4   9   34.57    6.35
   8   4  10   40.96    9.09
   8   4  11    8.70    3.60
   8   4  12     .10    3.74
   8   5 -12    3.50    4.90
   8   5 -11   20.52    4.98
   8   5 -10   25.00    3.70
   8   5  -9   16.08    3.77
   8   5  -8    7.51    2.52
   8   5  -7   33.29    3.81
   8   5  -6   29.05    2.69
   8   5  -5   33.41    3.58
   8   5  -4   10.30    1.67
   8   5  -3   95.45    4.69
   8   5  -2    3.50    1.68
   8   5  -1   21.07    1.56
   8   5   0   -1.30     .89
   8   5   1   24.01    3.63
   8   5   2    2.19    1.18
   8   5   3   82.99    4.92
   8   5   4   20.70    2.82
   8   5   5   37.45    3.92
   8   5   6   37.82    3.44
   8   5   7   36.36    4.10
   8   5   8    4.28    4.31
   8   5   9   18.49   14.88
   8   5  10   22.09    4.32
   8   5  11   28.30    5.85
   8   5  12   -5.38    7.38
   8   6 -11    2.89    2.89
   8   6 -10   13.47    5.21
   8   6  -9   11.90    2.41
   8   6  -8    -.40    1.40
   8   6  -7   20.61    2.36
   8   6  -6   33.76    3.25
   8   6  -5   38.94    3.49
   8   6  -4   15.76    2.22
   8   6  -3   18.40    1.46
   8   6  -2   61.62    3.30
   8   6  -1   58.06    3.05
   8   6   0    6.00    1.62
   8   6   1   71.91    4.58
   8   6   2   65.12    5.16
   8   6   3   19.89    2.41
   8   6   4   21.90    2.90
   8   6   5   44.36    4.26
   8   6   6   37.95    4.19
   8   6   7   13.69    4.51
   8   6   8    6.92    2.10
   8   6   9   22.09    4.42
   8   6  10   11.22    3.08
   8   6  11   13.62    9.30
   8   7 -10   12.39    2.11
   8   7  -9     .59    1.89
   8   7  -8   14.21    2.49
   8   7  -7   69.06    6.32
   8   7  -6   11.42    2.10
   8   7  -5    3.69    2.30
   8   7  -4    4.71    1.61
   8   7  -3   33.76    3.25
   8   7  -2   53.29    3.36
   8   7  -1   10.63    1.89
   8   7   0   16.81    3.36
   8   7   1    8.58    1.70
   8   7   2   57.46    5.31
   8   7   3   34.22    4.09
   8   7   4    9.18    4.30
   8   7   5    7.40    3.37
   8   7   6   15.37    2.51
   8   7   7   69.06    5.48
   8   7   8   12.89    2.58
   8   7   9    5.20    3.92
   8   7  10   12.67    3.42
   8   7  11    9.00    5.70
   8   8 -10    3.50    3.40
   8   8  -9   18.92    3.91
   8   8  -8   19.80    4.54
   8   8  -7   14.52    3.43
   8   8  -6   16.00    3.28
   8   8  -5   32.60    4.11
   8   8  -4    9.80    2.13
   8   8  -3   26.11    3.47
   8   8  -2   76.74    4.91
   8   8  -1   19.80    2.22
   8   8   0     .71    1.41
   8   8   1   30.14    3.51
   8   8   2   79.74    5.72
   8   8   3   23.81    6.34
   8   8   4   11.63    2.73
   8   8   5   34.34    4.10
   8   8   6   22.37    3.41
   8   8   7   18.58    3.71
   8   8   8    9.67    2.92
   8   8   9   11.29    3.96
   8   8  10    1.69    3.59
   8   9  -8   27.35    5.54
   8   9  -7    8.70    2.42
   8   9  -6   12.60    3.12
   8   9  -5   11.83    2.41
   8   9  -4    6.40    3.09
   8   9  -3   51.70    4.89
   8   9  -2    5.71    1.63
   8   9  -1    8.18    3.60
   8   9   0    -.10    2.73
   8   9   1   10.37    2.77
   8   9   2   11.22    2.41
   8   9   3   49.70    6.49
   8   9   4    7.90    2.02
   8   9   5   12.82    3.58
   8   9   6   10.30    5.07
   8   9   7    9.49    2.77
   8   9   8   25.70    5.27
   8  10  -7    5.38    4.18
   8  10  -6   12.32    6.11
   8  10  -5   10.30    3.21
   8  10  -4     .40    2.68
   8  10  -3   16.81    3.36
   8  10  -2   17.31    3.49
   8  10  -1   45.83    4.74
   8  10   0    4.08    2.50
   8  10   1   43.82    4.10
   8  10   2   23.43    5.13
   8  10   3   18.92    4.09
   8  10   4     .79    2.58
   8  10   5   16.97    3.30
   8  10   6   15.21    3.67
   8  10   7   18.40    6.01
   8  11  -4   19.01    4.97
   8  11  -3   -1.59    5.47
   8  11  -2    2.50    3.41
   8  11  -1    4.80    2.89
   8  11   0   35.64    5.01
   8  11   1   14.29    9.90
   8  11   2    6.20    4.28
   8  11   3    7.51    4.88
   8  11   4    4.28    3.11
   9  -9  -5    2.59    4.19
   9  -8  -7    3.80    2.50
   9  -8  -6   12.67    3.06
   9  -8  -5   18.32    5.14
   9  -7  -8    5.11    3.71
   9  -7  -7   16.81    3.94
   9  -7  -6   29.05    6.14
   9  -7  -5   26.32    5.34
   9  -7  -4   15.13    2.80
   9  -6  -9    1.59    2.29
   9  -6  -8    -.71    3.91
   9  -6  -7   12.67    3.92
   9  -6  -6    9.80    3.00
   9  -6  -5   13.99    2.69
   9  -6  -4   16.97    3.38
   9  -5 -10    9.18    3.21
   9  -5  -9     .71    1.61
   9  -5  -8   50.84    4.85
   9  -5  -7   22.28    2.74
   9  -5  -6   13.03    4.84
   9  -5  -5   10.50    3.37
   9  -5  -4   36.97    5.23
   9  -4 -11    1.21    3.81
   9  -4 -10    -.50    1.60
   9  -4  -9    7.90    2.42
   9  -4  -8   10.69    2.29
   9  -4  -7   14.90    3.01
   9  -4  -6   21.34    2.68
   9  -4  -5     .71    2.30
   9  -4  -4    8.18    1.49
   9  -3 -11    8.01    1.81
   9  -3 -10    2.59    2.51
   9  -3  -9   45.56    3.91
   9  -3  -8   26.63    2.37
   9  -3  -7   30.25    2.64
   9  -3  -6   15.37    2.20
   9  -3  -5    3.50    1.31
   9  -3  -4   19.36    4.22
   9  -3  -3  117.72    8.25
   9  -3  -2    1.30    1.21
   9  -2 -11    6.60    2.31
   9  -2 -10   11.02    3.78
   9  -2  -9   11.49    2.51
   9  -2  -8   15.92    2.87
   9  -2  -7   36.00    3.12
   9  -2  -6   34.81    2.95
   9  -2  -5   26.94    2.70
   9  -2  -4   11.09    2.33
   9  -2  -3   29.70    2.51
   9  -2  -2   12.18    2.16
   9  -2  -1   33.76    3.83
   9  -2   0    1.99    1.30
   9  -1 -11    2.31    2.40
   9  -1 -10    1.99    1.49
   9  -1  -9    7.40    2.28
   9  -1  -8   11.63    2.59
   9  -1  -7    4.58    1.71
   9  -1  -6   24.01    3.33
   9  -1  -5   79.74    7.14
   9  -1  -4    4.20    1.39
   9  -1  -3   17.39    4.00
   9  -1  -2    6.30    1.81
   9  -1  -1   79.03    5.16
   9  -1   0  151.29   12.30
   9  -1   1   71.06    7.42
   9  -1  11    1.69    4.19
   9   0 -11    8.41    2.49
   9   0 -10  129.50   12.52
   9   0  -9    6.60    1.80
   9   0  -8    2.31    1.79
   9   0  -7    4.28    1.70
   9   0  -6    1.99    1.38
   9   0  -5    -.10    1.72
   9   0  -4   78.50    7.80
   9   0  -3    9.80    2.13
   9   0  -2    7.51    2.58
   9   0  -1   31.25    3.35
   9   0   0    2.19    4.38
   9   0   6    6.20    3.78
   9   0   7    -.20    3.01
   9   0   8    4.49    3.31
   9   0   9   12.11    2.92
   9   0  10  114.92    9.86
   9   0  11   15.52   13.40
   9   1 -11    2.31    2.71
   9   1 -10    2.40    3.50
   9   1  -9     .90    1.41
   9   1  -8    9.18    1.70
   9   1  -7    7.02    2.23
   9   1  -6   27.25    3.03
   9   1  -5   83.72    7.14
   9   1  -4    6.20    1.69
   9   1  -3    5.20    1.92
   9   1  -2    4.08    1.49
   9   1  -1   60.53    7.16
   9   1   0  150.55   15.71
   9   1   4    7.90    4.10
   9   1   5   83.36   12.96
   9   1   6   33.99    5.48
   9   1   7    1.00    3.60
   9   1   8   19.98    4.92
   9   1   9    8.58    3.81
   9   1  10    1.49    3.78
   9   1  11    2.19    5.68
   9   2 -11    1.00    2.10
   9   2 -10   12.82    4.73
   9   2  -9   10.50    3.18
   9   2  -8   11.63    2.59
   9   2  -7   42.64    3.92
   9   2  -6   41.47    4.12
   9   2  -5   22.75    2.86
   9   2  -4    9.99    1.90
   9   2  -3   20.88    3.11
   9   2  -2   14.06    2.17
   9   2  -1   32.60    3.31
   9   2   0    2.50    1.49
   9   2   1   30.69    5.54
   9   2   2   20.52    5.98
   9   2   3   31.36    4.48
   9   2   4   12.32    6.81
   9   2   5   27.88    4.86
   9   2   6   39.31    6.02
   9   2   7   44.36    6.93
   9   2   8   22.94    5.75
   9   2   9   25.81    7.82
   9   2  10   22.37   16.93
   9   2  11   -2.99    4.50
   9   3 -11    8.01    2.60
   9   3 -10    2.50    2.81
   9   3  -9   57.00    5.44
   9   3  -8   24.50    3.86
   9   3  -7   24.70    4.08
   9   3  -6   13.99    2.77
   9   3  -5    2.89    2.21
   9   3  -4   25.10    2.71
   9   3  -3  123.65    7.56
   9   3  -2    4.28    1.41
   9   3  -1   23.52    3.30
   9   3   0   34.57    6.35
   9   3   1   38.69    7.34
   9   3   2     .20    3.42
   9   3   3  145.93   13.29
   9   3   4   23.43    5.61
   9   3   5    6.81    4.49
   9   3   6   11.83    5.50
   9   3   7   39.56    5.16
   9   3   8   23.33    4.93
   9   3   9   80.10   17.18
   9   3  10    4.28    4.10
   9   3  11    4.49    7.59
   9   4 -10    4.20    4.39
   9   4  -9   11.02    4.38
   9   4  -8   19.27    2.72
   9   4  -7   18.32    3.00
   9   4  -6   17.89    2.88
   9   4  -5     .30    5.93
   9   4  -4    4.88    1.90
   9   4  -3    8.18    4.58
   9   4  -2   57.30    5.15
   9   4  -1   56.55    4.81
   9   4   0   25.60    6.48
   9   4   1   55.06    7.87
   9   4   2   57.91    7.00
   9   4   3   11.29    6.99
   9   4   4   10.50    3.63
   9   4   5    1.90    4.00
   9   4   6   23.04    5.66
   9   4   7   29.05   15.31
   9   4   8   10.63    4.24
   9   4   9   18.32    8.22
   9   4  10   13.32   10.29
   9   4  11    6.50    6.12
   9   5 -10    6.50    2.70
   9   5  -9    4.88    2.78
   9   5  -8   43.30    4.74
   9   5  -7   23.81    4.00
   9   5  -6    9.00    2.58
   9   5  -5    9.99    2.53
   9   5  -4   41.86    3.75
   9   5  -3   34.57    3.41
   9   5  -2   32.72    5.03
   9   5  -1    9.18    3.51
   9   5   0    3.88    4.89
   9   5   1    4.71    2.60
   9   5   2   37.45    4.65
   9   5   3   26.42    5.24
   9   5   4   56.85   12.52
   9   5   5  126.34  120.27
   9   5   6    8.12    3.70
   9   5   7   37.95   15.15
   9   5   8   59.14    7.23
   9   5   9    1.00    5.10
   9   5  10    4.88    8.18
   9   6  -9    1.30    3.49
   9   6  -8    2.89    3.50
   9   6  -7   13.69    2.29
   9   6  -6   11.09    2.80
   9   6  -5   12.53    2.34
   9   6  -4   25.50    2.93
   9   6  -3    3.31    1.20
   9   6  -2   17.98    2.37
   9   6  -1   38.32    5.57
   9   6   0    2.10    3.10
   9   6   1   43.16    6.04
   9   6   2   23.33    9.66
   9   6   3    6.00    3.09
   9   6   4   26.01    7.65
   9   6   5   18.40    5.58
   9   6   6    7.18    4.50
   9   6   7   17.31    4.66
   9   6   8   -2.69    5.18
   9   6   9    8.01    4.58
   9   7  -8    4.41    3.02
   9   7  -7    5.71    3.01
   9   7  -6   18.58    2.50
   9   7  -5   18.58    2.50
   9   7  -4    9.42    2.21
   9   7  -3    4.20    1.89
   9   7  -2   19.54    6.72
   9   7  -1   43.30    6.97
   9   7   0   68.23    5.95
   9   7   1   30.25    5.50
   9   7   2   22.94    3.45
   9   7   3   10.18    3.13
   9   7   4   14.59    2.52
   9   7   5   21.90    3.84
   9   7   6   13.18    2.83
   9   7   7    7.51    1.81
   9   7   8    2.89    5.78
   9   8  -7     .00    1.00
   9   8  -6   13.47    3.30
   9   8  -5   18.66    3.20
   9   8  -4    7.78    1.90
   9   8  -3    2.89    2.01
   9   8  -2    8.12    5.30
   9   8  -1   10.50    3.11
   9   8   0   -1.59    2.60
   9   8   1    9.61    3.22
   9   8   2    5.20    3.42
   9   8   3    4.80    3.11
   9   8   4    7.62    3.48
   9   8   5   20.34    3.61
   9   8   6   14.29    3.18
   9   8   7    6.10    3.80
   9   9  -5    1.10    2.60
   9   9  -4   11.09    3.13
   9   9  -3    -.79    5.68
   9   9  -2   27.67    6.94
   9   9  -1   10.50    6.48
   9   9   0   38.94    4.99
   9   9   1    1.30    2.10
   9   9   2   12.32    2.67
   9   9   3    6.00    3.09
   9   9   4    6.50    2.29
   9   9   5    1.30    3.31
   9  10  -2   15.92    6.94
   9  10  -1    8.18    7.89
   9  10   0    6.10    3.90
   9  10   1    4.08    3.88
   9  10   2    9.42    3.50
  10  -5  -7    3.20    2.61
  10  -4  -8   13.76    3.12
  10  -4  -7   45.16    4.97
  10  -4  -6   18.58    4.57
  10  -3  -9    1.69    2.39
  10  -3  -8   14.98    3.56
  10  -3  -7    8.01    1.81
  10  -3  -6    1.00    2.10
  10  -3  -5    3.31    3.60
  10  -3  -4   11.49    2.98
  10  -3  -3   19.80    5.43
  10  -2  -9    7.51    2.41
  10  -2  -8    -.30    1.51
  10  -2  -7   23.23    3.57
  10  -2  -6   12.11    3.27
  10  -2  -5    2.40    1.61
  10  -2  -4   51.12    4.72
  10  -2  -3   30.25    5.50
  10  -2  -2   23.62    3.30
  10  -2  -1    1.00    1.30
  10  -1  -9    8.41    2.73
  10  -1  -8    2.40    3.10
  10  -1  -7   19.98    3.40
  10  -1  -6   58.06    6.86
  10  -1  -5    4.20    2.01
  10  -1  -4    6.10    3.31
  10  -1  -3   19.62    2.84
  10  -1  -2   11.97    2.70
  10  -1  -1    1.49    1.68
  10   0  -9    8.12    2.91
  10   0  -8    -.59    1.99
  10   0  -7     .30    1.90
  10   0  -6   23.23    4.72
  10   0  -5   16.00    4.40
  10   0  -4    4.20    4.02
  10   0  -3   28.09    5.62
  10   0  -2   31.58    4.72
  10   0  -1   36.97    4.26
  10   1  -9    3.61    3.31
  10   1  -8   -2.50    2.40
  10   1  -7   16.89    3.53
  10   1  -6   55.65    6.56
  10   1  -5    5.71    2.29
  10   1  -4    1.59    9.75
  10   1  -3   15.92    3.11
  10   1  -2   13.03    2.89
  10   2  -9   13.40    3.00
  10   2  -8    2.89    2.31
  10   2  -7   29.70    9.27
  10   2  -6   19.18    4.29
  10   2  -5    1.10    2.71
  10   2  -4   48.44    8.35
  10   2  -3   29.81    4.91
  10   2  -2   21.44    4.91
  10   3  -8   11.22    3.08
  10   3  -7    1.90    1.90
  10   3  -6    4.20    1.60
  10   3  -5    3.80    2.42
  10   3  -4   24.21    4.13
  10   3  -3   13.18    2.61
  10   3   7   12.18    7.61
  10   3   8   20.98    6.14
  10   4  -8   26.11    7.15
  10   4  -7   38.19    5.69
  10   4  -6    9.80    3.00
  10   4  -5   -2.40    2.11
  10   4  -4    4.58    1.88
  10   4  -3    4.49    2.59
  10   4   4    9.92    4.91
  10   4   5   -4.71    5.12
  10   4   6   16.16    4.58
  10   4   7   51.98    9.81
  10   4   8    9.80    6.07
  10   5  -7    9.30    6.22
  10   5  -6    2.69    2.49
  10   5  -5   10.11    2.93
  10   5  -4   12.11    3.41
  10   5   2    7.78    3.57
  10   5   3   26.83    4.45
  10   5   4   21.53    7.52
  10   5   5   15.52    6.23
  10   5   6   11.49    5.42
  10   5   7   16.81    6.40
  10   6  -6   -3.31    2.22
  10   6  -5   38.07    6.05
  10   6  -4    1.59    2.39
  10   6   0   17.72    6.40
  10   6   1    8.41    6.09
  10   6   2   18.66    7.95
  10   6   3   12.60    8.73
  10   6   4   11.49   11.59
  10   6   5   30.69    7.09
  10   6   6    6.30    3.92
  10   7  -5     .10    2.73
  10   7  -1   22.28    5.76
  10   7   0   29.59    4.90
  10   7   1   31.81   14.89
  10   7   2     .79    2.88
  10   7   3    9.12    3.68
  10   7   4     .20    3.82
  10   7   5     .79    2.58
  10   8  -2   33.06   15.87
  10   8  -1   29.81    6.99
  10   8   0    7.02    6.10
  10   8   1    6.30    5.72
  10   8   2    2.31    4.41
  11  -3  -5    1.80    2.49
  11  -2  -5    6.81    3.03
  11  -2  -4    6.30    3.41
  11  -2  -3   -2.89    2.38
  11  -1  -5    1.39    6.37
  11  -1  -4    1.59    1.89
  11  -1  -3   11.02    3.52
  11   0  -6    1.69    2.50
  11   0  -5    1.90    2.59
  11   0  -4   16.48    5.60
  11   1  -5    -.90    2.20
  11   1  -4    -.71    1.81
  11   2  -5   27.25    6.58
  11   2  -4    -.50    2.22
   0   0   0     .00     .00
;
_shelx_hkl_checksum              47594
loop_
_space_group_symop_operation_xyz
'x, y, z'
'-x+1/2, -y, z+1/2'
'x+1/2, -y+1/2, -z'
'-x, y+1/2, -z+1/2'
loop_
_atom_site_label
_atom_site_type_symbol
_atom_site_fract_x
_atom_site_fract_y
_atom_site_fract_z
_atom_site_U_iso_or_equiv
_atom_site_adp_type
_atom_site_occupancy
_atom_site_site_symmetry_order
_atom_site_calc_flag
_atom_site_refinement_flags_posn
_atom_site_refinement_flags_adp
_atom_site_refinement_flags_occupancy
_atom_site_disorder_assembly
_atom_site_disorder_group
Ag1 Ag 0.18484(7) 0.22978(4) 0.72958(4) 0.02012(9) Uani 1 1 d . . . . .
Ag2 Ag 0.43543(7) 0.19198(5) 0.51304(4) 0.02312(10) Uani 1 1 d . . . . .
Ag3 Ag 0.97096(7) 0.10349(6) 0.92623(5) 0.03478(14) Uani 1 1 d . . . . .
O1 O 0.0595(5) 0.0327(3) 0.6597(3) 0.0093(6) Uani 1 1 d . . . . .
O2 O 0.3293(5) 0.1071(4) 0.9877(3) 0.0133(6) Uani 1 1 d . . . . .
O3 O 0.5435(5) 0.3482(3) 0.6886(3) 0.0112(6) Uani 1 1 d . . . . .
O4 O 0.2651(5) 0.4385(4) 0.7966(3) 0.0106(6) Uani 1 1 d . . . . .
O5 O 0.2657(5) 0.3257(3) 0.3779(3) 0.0099(6) Uani 1 1 d . . . . .
O6 O 0.6622(5) 0.0230(4) 0.9958(3) 0.0114(6) Uani 1 1 d . . . . .
O7 O 0.5138(5) 0.0966(4) 0.8082(3) 0.0121(6) Uani 1 1 d . . . . .
O8 O 0.8233(5) 0.2924(4) 0.8133(3) 0.0134(6) Uani 1 1 d . . . . .
O9 O 0.5947(5) 0.4807(3) 0.8747(3) 0.0089(6) Uani 1 1 d . . . . .
B1 B 0.4735(8) 0.4647(5) 0.7671(4) 0.0087(8) Uani 1 1 d . . . . .
B2 B 0.7025(9) 0.2638(6) 0.7160(5) 0.0169(11) Uani 1 1 d . . . . .
B3 B 0.1489(7) 0.5280(6) 0.8760(5) 0.0088(9) Uani 1 1 d . . . . .
B4 B 0.2038(8) 0.9266(6) 0.6173(4) 0.0097(8) Uani 1 1 d . . . . .
B5 B 0.5025(8) 0.0744(6) 0.9311(5) 0.0101(9) Uani 1 1 d . . . . .
loop_
_atom_site_aniso_label
_atom_site_aniso_U_11
_atom_site_aniso_U_22
_atom_site_aniso_U_33
_atom_site_aniso_U_23
_atom_site_aniso_U_13
_atom_site_aniso_U_12
Ag1 0.01846(18) 0.01408(16) 0.02782(19) -0.00966(15) 0.00507(16) -0.00624(15)
Ag2 0.0326(2) 0.01857(18) 0.01820(16) 0.00475(14) -0.00889(16) 0.00150(17)
Ag3 0.01643(19) 0.0518(3) 0.0361(2) 0.0308(2) 0.00037(19) 0.0043(2)
O1 0.0061(14) 0.0104(15) 0.0114(13) -0.0029(11) -0.0002(11) 0.0002(12)
O2 0.0123(14) 0.0177(16) 0.0098(13) 0.0040(12) 0.0020(12) 0.0047(13)
O3 0.0129(16) 0.0106(14) 0.0102(12) -0.0040(10) -0.0008(12) 0.0028(13)
O4 0.0068(14) 0.0107(14) 0.0142(15) -0.0018(11) 0.0024(11) -0.0013(11)
O5 0.0127(16) 0.0073(14) 0.0096(13) 0.0004(11) -0.0024(11) -0.0009(11)
O6 0.0109(15) 0.0144(15) 0.0088(14) 0.0015(12) -0.0009(12) 0.0004(12)
O7 0.0189(17) 0.0091(15) 0.0083(12) -0.0009(11) -0.0015(12) 0.0036(13)
O8 0.0111(15) 0.0118(16) 0.0173(14) -0.0047(12) -0.0059(12) 0.0028(13)
O9 0.0079(14) 0.0111(15) 0.0076(12) -0.0022(11) -0.0012(11) 0.0008(11)
B1 0.0087(19) 0.010(2) 0.0079(17) -0.0011(15) 0.0016(17) -0.0003(16)
B2 0.014(2) 0.018(2) 0.018(2) -0.011(2) -0.0051(19) 0.006(2)
B3 0.008(2) 0.010(2) 0.0082(19) -0.0002(16) -0.0012(16) -0.0009(16)
B4 0.009(2) 0.013(2) 0.0070(18) -0.0006(15) 0.0011(16) 0.0019(18)
B5 0.013(2) 0.009(2) 0.0084(18) 0.0017(15) -0.0016(17) 0.0002(17)
loop_
_atom_type_symbol
_atom_type_description
_atom_type_scat_dispersion_real
_atom_type_scat_dispersion_imag
_atom_type_scat_source
B B 0.0013 0.0007 'International Tables Vol C Tables 4.2.6.8 and 6.1.1.4'
O O 0.0106 0.0060 'International Tables Vol C Tables 4.2.6.8 and 6.1.1.4'
Ag Ag -0.8971 1.1015 'International Tables Vol C Tables 4.2.6.8 and 6.1.1.4'
loop_
_geom_angle_atom_site_label_1
_geom_angle_atom_site_label_2
_geom_angle_atom_site_label_3
_geom_angle
_geom_angle_site_symmetry_1
_geom_angle_site_symmetry_3
O4 Ag1 O1 171.44(13) . .
O4 Ag1 O8 84.81(11) . 1_455
O1 Ag1 O8 87.52(12) . 1_455
O4 Ag1 O7 96.19(12) . .
O1 Ag1 O7 92.05(12) . .
O8 Ag1 O7 138.00(10) 1_455 .
O4 Ag1 O3 57.27(11) . .
O1 Ag1 O3 129.75(11) . .
O8 Ag1 O3 141.54(10) 1_455 .
O7 Ag1 O3 60.60(11) . .
O4 Ag1 Ag3 104.16(9) . 1_455
O1 Ag1 Ag3 73.64(9) . 1_455
O8 Ag1 Ag3 51.01(8) 1_455 1_455
O7 Ag1 Ag3 88.69(8) . 1_455
O3 Ag1 Ag3 138.54(7) . 1_455
O5 Ag2 O9 140.72(12) . 4_646
O5 Ag2 O5 142.47(10) . 3_556
O9 Ag2 O5 76.75(11) 4_646 3_556
O5 Ag2 O3 108.92(11) . .
O9 Ag2 O3 96.60(11) 4_646 .
O5 Ag2 O3 54.87(11) 3_556 .
O5 Ag2 Ag1 100.16(9) . .
O9 Ag2 Ag1 68.10(8) 4_646 .
O5 Ag2 Ag1 97.29(7) 3_556 .
O3 Ag2 Ag1 58.44(8) . .
O6 Ag3 O8 92.38(12) . .
O6 Ag3 O9 84.59(11) . 3_557
O8 Ag3 O9 147.15(11) . 3_557
O6 Ag3 O2 140.43(11) . 1_655
O8 Ag3 O2 122.12(12) . 1_655
O9 Ag3 O2 56.02(11) 3_557 1_655
O6 Ag3 Ag1 146.03(8) . 1_655
O8 Ag3 Ag1 60.36(9) . 1_655
O9 Ag3 Ag1 129.36(8) 3_557 1_655
O2 Ag3 Ag1 73.39(8) 1_655 1_655
O6 Ag3 Ag2 77.46(8) . 2_655
O8 Ag3 Ag2 160.35(9) . 2_655
O9 Ag3 Ag2 49.61(7) 3_557 2_655
O2 Ag3 Ag2 74.04(8) 1_655 2_655
Ag1 Ag3 Ag2 121.31(2) 1_655 2_655
B3 O1 B4 122.0(4) 4_546 1_545
B3 O1 Ag1 119.6(3) 4_546 .
B4 O1 Ag1 115.8(3) 1_545 .
B3 O1 Ag3 94.4(2) 4_546 1_455
B4 O1 Ag3 125.4(3) 1_545 1_455
Ag1 O1 Ag3 63.41(8) . 1_455
B3 O1 Ag2 68.1(2) 4_546 3_456
B4 O1 Ag2 121.0(3) 1_545 3_456
Ag1 O1 Ag2 68.61(8) . 3_456
Ag3 O1 Ag2 109.24(9) 1_455 3_456
B3 O1 Ag2 127.6(3) 4_546 .
B4 O1 Ag2 69.7(2) 1_545 .
Ag1 O1 Ag2 59.83(8) . .
Ag3 O1 Ag2 120.65(10) 1_455 .
Ag2 O1 Ag2 64.25(6) 3_456 .
B3 O1 Ag1 67.5(2) 4_546 4_546
B4 O1 Ag1 82.4(2) 1_545 4_546
Ag1 O1 Ag1 138.64(13) . 4_546
Ag3 O1 Ag1 75.71(7) 1_455 4_546
Ag2 O1 Ag1 135.64(11) 3_456 4_546
Ag2 O1 Ag1 152.06(11) . 4_546
B3 O1 Ag3 82.0(2) 4_546 4_646
B4 O1 Ag3 45.5(2) 1_545 4_646
Ag1 O1 Ag3 158.07(14) . 4_646
Ag3 O1 Ag3 114.79(9) 1_455 4_646
Ag2 O1 Ag3 128.03(9) 3_456 4_646
Ag2 O1 Ag3 111.23(8) . 4_646
Ag1 O1 Ag3 42.77(4) 4_546 4_646
B5 O2 B4 121.6(4) . 2_565
B5 O2 Ag3 134.4(3) . 1_455
B4 O2 Ag3 96.5(3) 2_565 1_455
B5 O2 Ag3 94.4(3) . 3_457
B4 O2 Ag3 86.5(3) 2_565 3_457
Ag3 O2 Ag3 113.49(12) 1_455 3_457
B5 O2 Ag1 86.3(2) . .
B4 O2 Ag1 152.1(3) 2_565 .
Ag3 O2 Ag1 58.35(7) 1_455 .
Ag3 O2 Ag1 92.77(9) 3_457 .
B5 O2 Ag2 107.8(3) . 2
B4 O2 Ag2 70.0(2) 2_565 2
Ag3 O2 Ag2 59.86(8) 1_455 2
Ag3 O2 Ag2 153.69(12) 3_457 2
Ag1 O2 Ag2 102.39(10) . 2
B5 O2 Ag1 98.1(3) . 2
B4 O2 Ag1 38.0(2) 2_565 2
Ag3 O2 Ag1 98.11(10) 1_455 2
Ag3 O2 Ag1 119.56(10) 3_457 2
Ag1 O2 Ag1 146.67(11) . 2
Ag2 O2 Ag1 44.73(4) 2 2
B5 O2 Ag1 86.2(3) . 3_557
B4 O2 Ag1 56.7(2) 2_565 3_557
Ag3 O2 Ag1 138.67(12) 1_455 3_557
Ag3 O2 Ag1 42.69(5) 3_457 3_557
Ag1 O2 Ag1 133.85(11) . 3_557
Ag2 O2 Ag1 123.22(9) 2 3_557
Ag1 O2 Ag1 79.48(6) 2 3_557
B5 O2 Ag2 57.8(3) . 4_646
B4 O2 Ag2 81.9(2) 2_565 4_646
Ag3 O2 Ag2 110.39(12) 1_455 4_646
Ag3 O2 Ag2 135.55(11) 3_457 4_646
Ag1 O2 Ag2 116.38(9) . 4_646
Ag2 O2 Ag2 54.55(5) 2 4_646
Ag1 O2 Ag2 45.60(4) 2 4_646
Ag1 O2 Ag2 97.23(7) 3_557 4_646
B2 O3 B1 123.6(4) . .
B2 O3 Ag2 93.2(3) . .
B1 O3 Ag2 141.9(3) . .
B2 O3 Ag1 115.1(3) . .
B1 O3 Ag1 85.6(3) . .
Ag2 O3 Ag1 68.35(9) . .
B2 O3 Ag2 58.8(3) . 3_556
B1 O3 Ag2 134.4(3) . 3_556
Ag2 O3 Ag2 70.56(8) . 3_556
Ag1 O3 Ag2 137.99(11) . 3_556
B2 O3 Ag1 96.3(3) . 4_656
B1 O3 Ag1 50.7(2) . 4_656
Ag2 O3 Ag1 142.92(12) . 4_656
Ag1 O3 Ag1 135.98(11) . 4_656
Ag2 O3 Ag1 84.12(7) 3_556 4_656
B2 O3 Ag3 78.0(3) . 4_756
B1 O3 Ag3 90.0(2) . 4_756
Ag2 O3 Ag3 108.79(10) . 4_756
Ag1 O3 Ag3 166.41(12) . 4_756
Ag2 O3 Ag3 44.46(4) 3_556 4_756
Ag1 O3 Ag3 39.86(3) 4_656 4_756
B3 O4 B1 123.8(4) . .
B3 O4 Ag1 126.9(3) . .
B1 O4 Ag1 108.4(3) . .
B3 O4 Ag3 85.1(2) . 4_656
B1 O4 Ag3 102.5(2) . 4_656
Ag1 O4 Ag3 93.06(11) . 4_656
B3 O4 Ag3 75.1(2) . 3_457
B1 O4 Ag3 80.0(2) . 3_457
Ag1 O4 Ag3 107.71(12) . 3_457
Ag3 O4 Ag3 157.26(12) 4_656 3_457
B3 O4 Ag2 65.3(2) . 4_656
B1 O4 Ag2 60.2(2) . 4_656
Ag1 O4 Ag2 153.95(14) . 4_656
Ag3 O4 Ag2 111.87(10) 4_656 4_656
Ag3 O4 Ag2 49.49(5) 3_457 4_656
B3 O4 Ag3 88.6(3) . 1_455
B1 O4 Ag3 133.6(3) . 1_455
Ag1 O4 Ag3 44.04(7) . 1_455
Ag3 O4 Ag3 113.45(9) 4_656 1_455
Ag3 O4 Ag3 77.75(7) 3_457 1_455
Ag2 O4 Ag3 124.64(9) 4_656 1_455
B3 O4 Ag2 162.4(3) . .
B1 O4 Ag2 69.7(2) . .
Ag1 O4 Ag2 44.73(6) . .
Ag3 O4 Ag2 80.42(7) 4_656 .
Ag3 O4 Ag2 120.86(10) 3_457 .
Ag2 O4 Ag2 129.81(9) 4_656 .
Ag3 O4 Ag2 87.90(7) 1_455 .
B3 O4 Ag1 41.5(2) . 4_556
B1 O4 Ag1 125.5(3) . 4_556
Ag1 O4 Ag1 113.49(12) . 4_556
Ag3 O4 Ag1 43.84(4) 4_656 4_556
Ag3 O4 Ag1 116.47(9) 3_457 4_556
Ag2 O4 Ag1 90.62(7) 4_656 4_556
Ag3 O4 Ag1 100.81(7) 1_455 4_556
Ag2 O4 Ag1 122.54(8) . 4_556
B3 O4 Ag2 111.8(3) . 3_456
B1 O4 Ag2 111.8(2) . 3_456
Ag1 O4 Ag2 48.28(7) . 3_456
Ag3 O4 Ag2 44.79(4) 4_656 3_456
Ag3 O4 Ag2 154.98(10) 3_457 3_456
Ag2 O4 Ag2 155.53(10) 4_656 3_456
Ag3 O4 Ag2 78.42(6) 1_455 3_456
Ag2 O4 Ag2 50.55(4) . 3_456
Ag1 O4 Ag2 75.57(6) 4_556 3_456
B2 O5 B3 131.5(4) 3_456 2_564
B2 O5 Ag2 107.7(3) 3_456 .
B3 O5 Ag2 109.2(3) 2_564 .
B2 O5 Ag2 92.5(3) 3_456 3_456
B3 O5 Ag2 113.9(3) 2_564 3_456
Ag2 O5 Ag2 95.45(11) . 3_456
B2 O5 Ag1 83.9(3) 3_456 3_556
B3 O5 Ag1 78.5(2) 2_564 3_556
Ag2 O5 Ag1 72.39(9) . 3_556
Ag2 O5 Ag1 165.42(13) 3_456 3_556
B2 O5 Ag3 63.4(3) 3_456 3_456
B3 O5 Ag3 71.1(2) 2_564 3_456
Ag2 O5 Ag3 120.65(12) . 3_456
Ag2 O5 Ag3 140.58(11) 3_456 3_456
Ag1 O5 Ag3 48.92(5) 3_556 3_456
B2 O5 Ag3 135.8(3) 3_456 4_656
B3 O5 Ag3 61.8(2) 2_564 4_656
Ag2 O5 Ag3 102.99(10) . 4_656
Ag2 O5 Ag3 53.09(6) 3_456 4_656
Ag1 O5 Ag3 136.35(10) 3_556 4_656
Ag3 O5 Ag3 123.83(9) 3_456 4_656
B2 O5 Ag1 122.4(3) 3_456 .
B3 O5 Ag1 105.9(2) 2_564 .
Ag2 O5 Ag1 46.19(6) . .
Ag2 O5 Ag1 53.74(6) 3_456 .
Ag1 O5 Ag1 116.95(9) 3_556 .
Ag3 O5 Ag1 165.64(10) 3_456 .
Ag3 O5 Ag1 62.86(5) 4_656 .
B2 O5 Ag1 54.8(3) 3_456 3_456
B3 O5 Ag1 118.6(2) 2_564 3_456
Ag2 O5 Ag1 126.78(12) . 3_456
Ag2 O5 Ag1 45.12(6) 3_456 3_456
Ag1 O5 Ag1 137.08(9) 3_556 3_456
Ag3 O5 Ag1 96.78(7) 3_456 3_456
Ag3 O5 Ag1 81.38(7) 4_656 3_456
Ag1 O5 Ag1 96.89(7) . 3_456
B5 O6 B3 123.7(4) . 3_557
B5 O6 Ag3 114.2(3) . .
B3 O6 Ag3 117.8(3) 3_557 .
B5 O6 Ag2 99.6(3) . 4_646
B3 O6 Ag2 72.7(2) 3_557 4_646
Ag3 O6 Ag2 119.31(12) . 4_646
B5 O6 Ag2 149.7(3) . 2_655
B3 O6 Ag2 78.6(2) 3_557 2_655
Ag3 O6 Ag2 60.10(8) . 2_655
Ag2 O6 Ag2 65.30(6) 4_646 2_655
B5 O6 Ag1 103.1(3) . 3_557
B3 O6 Ag1 56.6(2) 3_557 3_557
Ag3 O6 Ag1 91.51(10) . 3_557
Ag2 O6 Ag1 128.93(10) 4_646 3_557
Ag2 O6 Ag1 106.73(8) 2_655 3_557
B5 O6 Ag3 62.1(3) . 3_457
B3 O6 Ag3 93.6(2) 3_557 3_457
Ag3 O6 Ag3 94.28(10) . 3_457
Ag2 O6 Ag3 146.39(11) 4_646 3_457
Ag2 O6 Ag3 143.37(10) 2_655 3_457
Ag1 O6 Ag3 43.83(4) 3_557 3_457
B5 O6 Ag1 97.3(3) . 4_646
B3 O6 Ag1 113.2(3) 3_557 4_646
Ag3 O6 Ag1 77.51(9) . 4_646
Ag2 O6 Ag1 48.29(5) 4_646 4_646
Ag2 O6 Ag1 52.70(5) 2_655 4_646
Ag1 O6 Ag1 159.41(10) 3_557 4_646
Ag3 O6 Ag1 152.81(9) 3_457 4_646
B5 O6 Ag1 94.7(3) . 2
B3 O6 Ag1 37.6(2) 3_557 2
Ag3 O6 Ag1 151.04(12) . 2
Ag2 O6 Ag1 49.59(5) 4_646 2
Ag2 O6 Ag1 94.11(8) 2_655 2
Ag1 O6 Ag1 83.25(6) 3_557 2
Ag3 O6 Ag1 101.22(7) 3_457 2
Ag1 O6 Ag1 97.87(7) 4_646 2
B5 O7 B1 115.0(4) . 4_646
B5 O7 Ag1 110.1(3) . .
B1 O7 Ag1 104.8(3) 4_646 .
B5 O7 Ag3 70.7(3) . .
B1 O7 Ag3 100.3(3) 4_646 .
Ag1 O7 Ag3 151.06(13) . .
B5 O7 Ag2 166.2(3) . .
B1 O7 Ag2 72.5(2) 4_646 .
Ag1 O7 Ag2 56.18(6) . .
Ag3 O7 Ag2 120.51(10) . .
B5 O7 Ag3 67.7(3) . 1_455
B1 O7 Ag3 104.7(3) 4_646 1_455
Ag1 O7 Ag3 47.47(6) . 1_455
Ag3 O7 Ag3 137.48(9) . 1_455
Ag2 O7 Ag3 99.74(8) . 1_455
B5 O7 Ag1 89.9(3) . 4_646
B1 O7 Ag1 37.0(2) 4_646 4_646
Ag1 O7 Ag1 141.43(11) . 4_646
Ag3 O7 Ag1 65.96(6) . 4_646
Ag2 O7 Ag1 101.84(8) . 4_646
Ag3 O7 Ag1 121.56(9) 1_455 4_646
B5 O7 Ag3 52.7(3) . 3_457
B1 O7 Ag3 167.7(2) 4_646 3_457
Ag1 O7 Ag3 81.36(8) . 3_457
Ag3 O7 Ag3 76.86(7) . 3_457
Ag2 O7 Ag3 119.36(9) . 3_457
Ag3 O7 Ag3 71.42(6) 1_455 3_457
Ag1 O7 Ag3 134.74(8) 4_646 3_457
B5 O7 Ag2 54.4(3) . 4_646
B1 O7 Ag2 60.9(2) 4_646 4_646
Ag1 O7 Ag2 128.74(11) . 4_646
Ag3 O7 Ag2 76.46(6) . 4_646
Ag2 O7 Ag2 132.92(9) . 4_646
Ag3 O7 Ag2 86.34(7) 1_455 4_646
Ag1 O7 Ag2 41.21(3) 4_646 4_646
Ag3 O7 Ag2 106.90(7) 3_457 4_646
B2 O8 B4 119.6(4) . 4_646
B2 O8 Ag3 120.5(3) . .
B4 O8 Ag3 114.6(3) 4_646 .
B2 O8 Ag1 103.2(3) . 1_655
B4 O8 Ag1 118.5(3) 4_646 1_655
Ag3 O8 Ag1 68.63(9) . 1_655
B2 O8 Ag2 50.7(3) . 3_556
B4 O8 Ag2 119.5(2) 4_646 3_556
Ag3 O8 Ag2 116.99(12) . 3_556
Ag1 O8 Ag2 58.91(7) 1_655 3_556
B2 O8 Ag3 105.4(3) . 3_457
B4 O8 Ag3 47.6(2) 4_646 3_457
Ag3 O8 Ag3 93.35(11) . 3_457
Ag1 O8 Ag3 151.15(12) 1_655 3_457
Ag2 O8 Ag3 147.67(10) 3_556 3_457
B2 O8 Ag1 95.6(3) . 4_656
B4 O8 Ag1 38.1(2) 4_646 4_656
Ag3 O8 Ag1 143.61(12) . 4_656
Ag1 O8 Ag1 101.07(10) 1_655 4_656
Ag2 O8 Ag1 81.46(7) 3_556 4_656
Ag3 O8 Ag1 79.84(6) 3_457 4_656
B2 O8 Ag3 80.8(3) . 4_756
B4 O8 Ag3 76.7(2) 4_646 4_756
Ag3 O8 Ag3 135.50(13) . 4_756
Ag1 O8 Ag3 68.55(8) 1_655 4_756
Ag2 O8 Ag3 44.47(4) 3_556 4_756
Ag3 O8 Ag3 119.74(8) 3_457 4_756
Ag1 O8 Ag3 40.18(3) 4_656 4_756
B2 O8 Ag2 1.7(3) . .
B4 O8 Ag2 120.3(3) 4_646 .
Ag3 O8 Ag2 119.19(11) . .
Ag1 O8 Ag2 103.81(10) 1_655 .
Ag2 O8 Ag2 51.99(4) 3_556 .
Ag3 O8 Ag2 104.69(8) 3_457 .
Ag1 O8 Ag2 97.01(7) 4_656 .
Ag3 O8 Ag2 82.56(6) 4_756 .
B1 O9 B4 122.7(4) . 4_646
B1 O9 Ag2 118.0(3) . 4_656
B4 O9 Ag2 110.2(3) 4_646 4_656
B1 O9 Ag3 120.2(3) . 3_457
B4 O9 Ag3 98.6(2) 4_646 3_457
Ag2 O9 Ag3 77.08(9) 4_656 3_457
B1 O9 Ag1 92.7(2) . 4_656
B4 O9 Ag1 80.5(2) 4_646 4_656
Ag2 O9 Ag1 65.35(8) 4_656 4_656
Ag3 O9 Ag1 139.02(12) 3_457 4_656
B1 O9 Ag1 38.4(2) . .
B4 O9 Ag1 117.7(2) 4_646 .
Ag2 O9 Ag1 130.96(12) 4_656 .
Ag3 O9 Ag1 86.11(9) 3_457 .
Ag1 O9 Ag1 130.86(9) 4_656 .
O9 B1 O4 112.1(4) . .
O9 B1 O3 112.2(4) . .
O4 B1 O3 108.2(4) . .
O9 B1 O7 109.6(4) . 4_656
O4 B1 O7 108.6(4) . 4_656
O3 B1 O7 106.0(3) . 4_656
O9 B1 Ag1 124.0(3) . .
O4 B1 Ag1 43.8(2) . .
O3 B1 Ag1 64.8(2) . .
O7 B1 Ag1 125.3(3) 4_656 .
O9 B1 Ag2 39.11(19) . 4_656
O4 B1 Ag2 97.2(2) . 4_656
O3 B1 Ag2 148.9(3) . 4_656
O7 B1 Ag2 81.8(2) 4_656 4_656
Ag1 B1 Ag2 135.07(16) . 4_656
O9 B1 Ag1 62.1(2) . 4_656
O4 B1 Ag1 140.6(3) . 4_656
O3 B1 Ag1 109.7(3) . 4_656
O7 B1 Ag1 49.9(2) 4_656 4_656
Ag1 B1 Ag1 172.53(17) . 4_656
Ag2 B1 Ag1 52.21(8) 4_656 4_656
O9 B1 Ag3 38.48(19) . 3_457
O4 B1 Ag3 75.2(2) . 3_457
O3 B1 Ag3 116.0(3) . 3_457
O7 B1 Ag3 134.4(3) 4_656 3_457
Ag1 B1 Ag3 89.67(12) . 3_457
Ag2 B1 Ag3 53.07(7) 4_656 3_457
Ag1 B1 Ag3 97.46(13) 4_656 3_457
O9 B1 Ag2 135.3(3) . .
O4 B1 Ag2 89.2(2) . .
O3 B1 Ag2 24.27(19) . .
O7 B1 Ag2 99.0(2) 4_656 .
Ag1 B1 Ag2 49.62(7) . .
Ag2 B1 Ag2 173.04(16) 4_656 .
Ag1 B1 Ag2 123.35(13) 4_656 .
Ag3 B1 Ag2 126.58(14) 3_457 .
O9 B1 Ag3 147.7(3) . 4_656
O4 B1 Ag3 56.0(2) . 4_656
O3 B1 Ag3 100.1(3) . 4_656
O7 B1 Ag3 57.5(2) 4_656 4_656
Ag1 B1 Ag3 70.84(10) . 4_656
Ag2 B1 Ag3 109.08(13) 4_656 4_656
Ag1 B1 Ag3 106.24(12) 4_656 4_656
Ag3 B1 Ag3 126.52(14) 3_457 4_656
Ag2 B1 Ag3 76.89(9) . 4_656
O3 B2 O8 121.6(4) . .
O3 B2 O5 115.1(4) . 3_556
O8 B2 O5 121.0(5) . 3_556
O3 B2 Ag2 59.2(2) . .
O8 B2 Ag2 177.5(4) . .
O5 B2 Ag2 59.1(2) 3_556 .
O3 B2 Ag2 98.2(3) . 3_556
O8 B2 Ag2 108.6(4) . 3_556
O5 B2 Ag2 45.9(2) 3_556 3_556
Ag2 B2 Ag2 73.32(13) . 3_556
O3 B2 Ag1 147.8(4) . 1_655
O8 B2 Ag1 52.7(3) . 1_655
O5 B2 Ag1 70.9(3) 3_556 1_655
Ag2 B2 Ag1 128.21(18) . 1_655
Ag2 B2 Ag1 62.11(12) 3_556 1_655
O3 B2 Ag3 148.2(4) . .
O8 B2 Ag3 38.5(2) . .
O5 B2 Ag3 94.4(3) 3_556 .
Ag2 B2 Ag3 139.5(2) . .
Ag2 B2 Ag3 111.51(18) 3_556 .
Ag1 B2 Ag3 51.61(9) 1_655 .
O3 B2 Ag1 44.2(3) . .
O8 B2 Ag1 125.1(4) . .
O5 B2 Ag1 106.2(3) 3_556 .
Ag2 B2 Ag1 53.44(10) . .
Ag2 B2 Ag1 124.67(17) 3_556 .
Ag1 B2 Ag1 168.0(2) 1_655 .
Ag3 B2 Ag1 118.23(19) . .
O3 B2 Ag3 83.4(3) . 4_756
O8 B2 Ag3 80.3(3) . 4_756
O5 B2 Ag3 91.4(3) 3_556 4_756
Ag2 B2 Ag3 102.24(17) . 4_756
Ag2 B2 Ag3 45.93(9) 3_556 4_756
Ag1 B2 Ag3 64.52(11) 1_655 4_756
Ag3 B2 Ag3 108.91(15) . 4_756
Ag1 B2 Ag3 127.48(16) . 4_756
O4 B3 O1 112.1(4) . 4_556
O4 B3 O5 109.8(4) . 2_565
O1 B3 O5 110.3(4) 4_556 2_565
O4 B3 O6 110.6(4) . 3_457
O1 B3 O6 108.8(4) 4_556 3_457
O5 B3 O6 105.1(3) 2_565 3_457
O4 B3 Ag2 153.2(3) . 2_565
O1 B3 Ag2 85.9(3) 4_556 2_565
O5 B3 Ag2 43.68(19) 2_565 2_565
O6 B3 Ag2 79.9(2) 3_457 2_565
O4 B3 Ag1 120.8(3) . 4_556
O1 B3 Ag1 36.77(19) 4_556 4_556
O5 B3 Ag1 74.0(2) 2_565 4_556
O6 B3 Ag1 125.6(3) 3_457 4_556
Ag2 B3 Ag1 62.40(10) 2_565 4_556
O4 B3 Ag1 32.27(19) . .
O1 B3 Ag1 88.0(3) 4_556 .
O5 B3 Ag1 140.9(3) 2_565 .
O6 B3 Ag1 100.8(3) 3_457 .
Ag2 B3 Ag1 173.68(18) 2_565 .
Ag1 B3 Ag1 112.93(14) 4_556 .
O4 B3 Ag3 79.9(2) . 3_457
O1 B3 Ag3 144.9(3) 4_556 3_457
O5 B3 Ag3 94.8(2) 2_565 3_457
O6 B3 Ag3 38.70(19) 3_457 3_457
Ag2 B3 Ag3 96.78(13) 2_565 3_457
Ag1 B3 Ag3 158.55(18) 4_556 3_457
Ag1 B3 Ag3 87.40(13) . 3_457
O4 B3 Ag2 92.1(3) . 4_656
O1 B3 Ag2 150.4(3) 4_556 4_656
O5 B3 Ag2 42.58(19) 2_565 4_656
O6 B3 Ag2 76.0(2) 3_457 4_656
Ag2 B3 Ag2 65.86(10) 2_565 4_656
Ag1 B3 Ag2 116.18(16) 4_556 4_656
Ag1 B3 Ag2 120.44(15) . 4_656
Ag3 B3 Ag2 53.03(8) 3_457 4_656
O4 B3 Ag3 70.6(2) . 4_656
O1 B3 Ag3 61.0(2) 4_556 4_656
O5 B3 Ag3 85.1(2) 2_565 4_656
O6 B3 Ag3 168.0(3) 3_457 4_656
Ag2 B3 Ag3 104.41(14) 2_565 4_656
Ag1 B3 Ag3 50.54(7) 4_556 4_656
Ag1 B3 Ag3 73.76(10) . 4_656
Ag3 B3 Ag3 148.48(17) 3_457 4_656
Ag2 B3 Ag3 115.91(14) 4_656 4_656
O4 B3 Ag3 71.3(2) . 1_455
O1 B3 Ag3 77.9(2) 4_556 1_455
O5 B3 Ag3 169.8(3) 2_565 1_455
O6 B3 Ag3 65.6(2) 3_457 1_455
Ag2 B3 Ag3 133.91(15) 2_565 1_455
Ag1 B3 Ag3 114.60(13) 4_556 1_455
Ag1 B3 Ag3 42.72(6) . 1_455
Ag3 B3 Ag3 75.23(10) 3_457 1_455
Ag2 B3 Ag3 127.91(14) 4_656 1_455
Ag3 B3 Ag3 104.61(12) 4_656 1_455
O4 B3 Ag2 149.0(3) . 4_556
O1 B3 Ag2 37.2(2) 4_556 4_556
O5 B3 Ag2 91.0(2) 2_565 4_556
O6 B3 Ag2 84.5(2) 3_457 4_556
Ag2 B3 Ag2 53.17(8) 2_565 4_556
Ag1 B3 Ag2 41.94(6) 4_556 4_556
Ag1 B3 Ag2 120.53(13) . 4_556
Ag3 B3 Ag2 122.26(14) 3_457 4_556
Ag2 B3 Ag2 118.28(14) 4_656 4_556
Ag3 B3 Ag2 89.23(10) 4_656 4_556
Ag3 B3 Ag2 92.41(10) 1_455 4_556
O9 B4 O1 111.1(4) 4_656 1_565
O9 B4 O2 105.9(4) 4_656 2_564
O1 B4 O2 110.6(4) 1_565 2_564
O9 B4 O8 112.4(4) 4_656 4_656
O1 B4 O8 109.5(4) 1_565 4_656
O2 B4 O8 107.1(4) 2_564 4_656
O9 B4 Ag3 53.3(2) 4_656 2_664
O1 B4 Ag3 139.2(3) 1_565 2_664
O2 B4 Ag3 54.7(2) 2_564 2_664
O8 B4 Ag3 111.3(3) 4_656 2_664
O9 B4 Ag1 72.1(2) 4_656 1_565
O1 B4 Ag1 39.07(19) 1_565 1_565
O2 B4 Ag1 125.0(3) 2_564 1_565
O8 B4 Ag1 124.8(3) 4_656 1_565
Ag3 B4 Ag1 112.87(17) 2_664 1_565
O9 B4 Ag2 44.26(19) 4_656 1_565
O1 B4 Ag2 84.5(3) 1_565 1_565
O2 B4 Ag2 83.9(3) 2_564 1_565
O8 B4 Ag2 156.7(3) 4_656 1_565
Ag3 B4 Ag2 57.90(9) 2_664 1_565
Ag1 B4 Ag2 55.93(9) 1_565 1_565
O9 B4 Ag3 131.7(3) 4_656 4_656
O1 B4 Ag3 115.9(3) 1_565 4_656
O2 B4 Ag3 66.9(2) 2_564 4_656
O8 B4 Ag3 41.15(19) 4_656 4_656
Ag3 B4 Ag3 94.02(13) 2_664 4_656
Ag1 B4 Ag3 152.77(18) 1_565 4_656
Ag2 B4 Ag3 148.48(16) 1_565 4_656
O9 B4 Ag1 145.7(3) 4_656 4_556
O1 B4 Ag1 73.9(2) 1_565 4_556
O2 B4 Ag1 103.3(3) 2_564 4_556
O8 B4 Ag1 40.4(2) 4_656 4_556
Ag3 B4 Ag1 142.38(17) 2_664 4_556
Ag1 B4 Ag1 104.75(14) 1_565 4_556
Ag2 B4 Ag1 158.39(17) 1_565 4_556
Ag3 B4 Ag1 48.54(7) 4_656 4_556
O9 B4 Ag3 99.5(2) 4_656 1_465
O1 B4 Ag3 37.59(19) 1_565 1_465
O2 B4 Ag3 146.1(3) 2_564 1_465
O8 B4 Ag3 82.7(2) 4_656 1_465
Ag3 B4 Ag3 152.23(17) 2_664 1_465
Ag1 B4 Ag3 44.14(6) 1_565 1_465
Ag2 B4 Ag3 99.74(13) 1_565 1_465
Ag3 B4 Ag3 111.04(13) 4_656 1_465
Ag1 B4 Ag3 62.96(8) 4_556 1_465
O9 B4 Ag2 97.0(2) 4_656 3_466
O1 B4 Ag2 41.8(2) 1_565 3_466
O2 B4 Ag2 78.0(2) 2_564 3_466
O8 B4 Ag2 146.6(3) 4_656 3_466
Ag3 B4 Ag2 98.63(13) 2_664 3_466
Ag1 B4 Ag2 49.07(7) 1_565 3_466
Ag2 B4 Ag2 54.68(8) 1_565 3_466
Ag3 B4 Ag2 125.19(14) 4_656 3_466
Ag1 B4 Ag2 106.33(13) 4_556 3_466
Ag3 B4 Ag2 77.02(9) 1_465 3_466
O2 B5 O7 117.8(4) . .
O2 B5 O6 120.8(4) . .
O7 B5 O6 121.4(4) . .
O2 B5 Ag3 147.5(3) . .
O7 B5 Ag3 85.1(3) . .
O6 B5 Ag3 42.4(2) . .
O2 B5 Ag1 70.3(2) . .
O7 B5 Ag1 47.7(2) . .
O6 B5 Ag1 167.5(3) . .
Ag3 B5 Ag1 125.21(16) . .
O2 B5 Ag3 62.3(3) . 3_457
O7 B5 Ag3 108.7(3) . 3_457
O6 B5 Ag3 97.0(3) . 3_457
Ag3 B5 Ag3 89.60(13) . 3_457
Ag1 B5 Ag3 83.09(12) . 3_457
O2 B5 Ag3 29.9(2) . 1_455
O7 B5 Ag3 91.7(3) . 1_455
O6 B5 Ag3 144.3(3) . 1_455
Ag3 B5 Ag3 170.49(18) . 1_455
Ag1 B5 Ag3 48.13(7) . 1_455
Ag3 B5 Ag3 82.95(11) 3_457 1_455
O2 B5 Ag2 104.0(3) . 4_646
O7 B5 Ag2 108.0(3) . 4_646
O6 B5 Ag2 58.7(2) . 4_646
Ag3 B5 Ag2 88.53(12) . 4_646
Ag1 B5 Ag2 126.87(15) . 4_646
Ag3 B5 Ag2 142.94(15) 3_457 4_646
Ag3 B5 Ag2 100.98(13) 1_455 4_646
O2 B5 Ag2 53.2(2) . 2
O7 B5 Ag2 111.2(3) . 2
O6 B5 Ag2 103.9(3) . 2
Ag3 B5 Ag2 142.87(16) . 2
Ag1 B5 Ag2 87.31(11) . 2
Ag3 B5 Ag2 114.13(14) 3_457 2
Ag3 B5 Ag2 46.52(7) 1_455 2
Ag2 B5 Ag2 55.13(7) 4_646 2
O2 B5 Ag1 142.1(3) . 4_646
O7 B5 Ag1 71.3(3) . 4_646
O6 B5 Ag1 64.0(2) . 4_646
Ag3 B5 Ag1 64.28(9) . 4_646
Ag1 B5 Ag1 111.53(13) . 4_646
Ag3 B5 Ag1 153.87(15) 3_457 4_646
Ag3 B5 Ag1 123.05(14) 1_455 4_646
Ag2 B5 Ag1 42.80(6) 4_646 4_646
Ag2 B5 Ag1 88.86(10) 2 4_646
O2 B5 Ag1 75.6(3) . 3_557
O7 B5 Ag1 140.2(3) . 3_557
O6 B5 Ag1 58.9(2) . 3_557
Ag3 B5 Ag1 72.32(10) . 3_557
Ag1 B5 Ag1 123.69(14) . 3_557
Ag3 B5 Ag1 41.10(6) 3_457 3_557
Ag3 B5 Ag1 105.20(12) 1_455 3_557
Ag2 B5 Ag1 103.86(11) 4_646 3_557
Ag2 B5 Ag1 106.39(11) 2 3_557
Ag1 B5 Ag1 122.80(12) 4_646 3_557
loop_
_geom_bond_atom_site_label_1
_geom_bond_atom_site_label_2
_geom_bond_distance
_geom_bond_site_symmetry_2
Ag1 O4 2.172(4) .
Ag1 O1 2.183(3) .
Ag1 O8 2.674(4) 1_455
Ag1 O7 2.694(3) .
Ag1 O3 2.703(4) .
Ag1 Ag3 2.8656(7) 1_455
Ag2 O5 2.265(3) .
Ag2 O9 2.356(3) 4_646
Ag2 O5 2.538(3) 3_556
Ag2 O3 2.541(3) .
Ag3 O6 2.346(3) .
Ag3 O8 2.392(3) .
Ag3 O9 2.480(3) 3_557
Ag3 O2 2.512(4) 1_655
Ag3 Ag1 2.8656(7) 1_655
Ag3 Ag2 3.0147(9) 2_655
O1 B3 1.461(6) 4_546
O1 B4 1.473(6) 1_545
O1 Ag3 3.075(3) 1_455
O1 Ag2 3.329(3) 3_456
O1 Ag1 3.519(3) 4_546
O1 Ag3 4.165(3) 4_646
O2 B5 1.361(6) .
O2 B4 1.482(6) 2_565
O2 Ag3 2.512(4) 1_455
O2 Ag3 3.045(4) 3_457
O2 Ag2 3.351(4) 2
O2 Ag1 4.151(3) 2
O2 Ag1 4.225(4) 3_557
O2 Ag2 4.226(4) 4_646
O3 B2 1.370(7) .
O3 B1 1.477(6) .
O3 Ag2 3.477(4) 3_556
O3 Ag1 4.140(3) 4_656
O3 Ag3 4.259(4) 4_756
O4 B3 1.447(6) .
O4 B1 1.465(6) .
O4 Ag3 3.318(3) 4_656
O4 Ag3 3.382(3) 3_457
O4 Ag2 3.771(3) 4_656
O4 Ag3 3.997(3) 1_455
O4 Ag1 4.105(4) 4_556
O4 Ag2 4.259(3) 3_456
O5 B2 1.403(6) 3_456
O5 B3 1.496(6) 2_564
O5 Ag2 2.538(3) 3_456
O5 Ag1 3.111(3) 3_556
O5 Ag3 3.691(3) 3_456
O5 Ag3 3.754(3) 4_656
O5 Ag1 4.128(3) 3_456
O6 B5 1.380(6) .
O6 B3 1.497(6) 3_557
O6 Ag2 3.194(3) 4_646
O6 Ag2 3.395(3) 2_655
O6 Ag1 3.827(3) 3_557
O6 Ag3 3.850(4) 3_457
O6 Ag1 3.861(3) 4_646
O6 Ag1 4.223(3) 2
O7 B5 1.374(6) .
O7 B1 1.499(6) 4_646
O7 Ag3 3.888(4) 1_455
O7 Ag1 4.036(3) 4_646
O7 Ag3 4.084(3) 3_457
O7 Ag2 4.311(3) 4_646
O8 B2 1.375(6) .
O8 B4 1.491(6) 4_646
O8 Ag1 2.674(4) 1_655
O8 Ag2 3.683(4) 3_556
O8 Ag3 3.857(4) 3_457
O8 Ag1 4.155(3) 4_656
O8 Ag3 4.187(4) 4_756
O9 B1 1.450(6) .
O9 B4 1.455(6) 4_646
O9 Ag2 2.356(3) 4_656
O9 Ag3 2.480(3) 3_457
O9 Ag1 3.011(3) 4_656
B1 O7 1.499(6) 4_656
B1 Ag2 3.297(5) 4_656
B1 Ag1 3.402(5) 4_656
B1 Ag3 3.445(5) 3_457
B1 Ag3 3.906(5) 4_656
B2 O5 1.403(6) 3_556
B2 Ag2 3.006(6) 3_556
B2 Ag1 3.274(6) 1_655
B2 Ag3 4.194(7) 4_756
B3 O1 1.461(6) 4_556
B3 O5 1.496(6) 2_565
B3 O6 1.497(6) 3_457
B3 Ag2 3.097(5) 2_565
B3 Ag1 3.171(5) 4_556
B3 Ag3 3.320(5) 3_457
B3 Ag2 3.429(5) 4_656
B3 Ag3 3.505(5) 4_656
B3 Ag3 4.218(5) 1_455
B3 Ag2 4.409(5) 4_556
B4 O9 1.455(6) 4_656
B4 O1 1.473(6) 1_565
B4 O2 1.482(6) 2_564
B4 O8 1.491(6) 4_656
B4 Ag3 3.057(5) 2_664
B4 Ag1 3.120(5) 1_565
B4 Ag2 3.168(5) 1_565
B4 Ag3 3.304(5) 4_656
B4 Ag1 3.630(5) 4_556
B4 Ag3 4.108(5) 1_465
B4 Ag2 4.277(5) 3_466
B5 Ag3 3.429(5) 3_457
B5 Ag3 3.597(5) 1_455
B5 Ag2 3.685(5) 4_646
B5 Ag2 3.983(5) 2
B5 Ag1 4.262(5) 4_646
B5 Ag1 4.353(5) 3_557
loop_
_geom_torsion_atom_site_label_1
_geom_torsion_atom_site_label_2
_geom_torsion_atom_site_label_3
_geom_torsion_atom_site_label_4
_geom_torsion
_geom_torsion_site_symmetry_1
_geom_torsion_site_symmetry_2
_geom_torsion_site_symmetry_3
_geom_torsion_site_symmetry_4
B4 O9 B1 O4 142.9(4) 4_646 . . .
Ag2 O9 B1 O4 -73.4(4) 4_656 . . .
Ag3 O9 B1 O4 17.6(5) 3_457 . . .
Ag1 O9 B1 O4 -136.7(3) 4_656 . . .
Ag1 O9 B1 O4 48.2(3) . . . .
B4 O9 B1 O3 20.9(6) 4_646 . . .
Ag2 O9 B1 O3 164.7(3) 4_656 . . .
Ag3 O9 B1 O3 -104.4(3) 3_457 . . .
Ag1 O9 B1 O3 101.3(3) 4_656 . . .
Ag1 O9 B1 O3 -73.8(4) . . . .
B4 O9 B1 O7 -96.5(4) 4_646 . . 4_656
Ag2 O9 B1 O7 47.2(4) 4_656 . . 4_656
Ag3 O9 B1 O7 138.2(3) 3_457 . . 4_656
Ag1 O9 B1 O7 -16.1(3) 4_656 . . 4_656
Ag1 O9 B1 O7 168.8(5) . . . 4_656
B4 O9 B1 Ag1 94.7(4) 4_646 . . .
Ag2 O9 B1 Ag1 -121.6(3) 4_656 . . .
Ag3 O9 B1 Ag1 -30.6(4) 3_457 . . .
Ag1 O9 B1 Ag1 175.1(2) 4_656 . . .
B4 O9 B1 Ag2 -143.8(5) 4_646 . . 4_656
Ag3 O9 B1 Ag2 91.0(3) 3_457 . . 4_656
Ag1 O9 B1 Ag2 -63.36(18) 4_656 . . 4_656
Ag1 O9 B1 Ag2 121.6(3) . . . 4_656
B4 O9 B1 Ag1 -80.4(3) 4_646 . . 4_656
Ag2 O9 B1 Ag1 63.36(18) 4_656 . . 4_656
Ag3 O9 B1 Ag1 154.3(3) 3_457 . . 4_656
Ag1 O9 B1 Ag1 -175.1(2) . . . 4_656
B4 O9 B1 Ag3 125.3(5) 4_646 . . 3_457
Ag2 O9 B1 Ag3 -91.0(3) 4_656 . . 3_457
Ag1 O9 B1 Ag3 -154.3(3) 4_656 . . 3_457
Ag1 O9 B1 Ag3 30.6(4) . . . 3_457
B4 O9 B1 Ag2 30.1(6) 4_646 . . .
Ag2 O9 B1 Ag2 173.8(2) 4_656 . . .
Ag3 O9 B1 Ag2 -95.2(4) 3_457 . . .
Ag1 O9 B1 Ag2 110.5(3) 4_656 . . .
Ag1 O9 B1 Ag2 -64.6(3) . . . .
B4 O9 B1 Ag3 -156.3(4) 4_646 . . 4_656
Ag2 O9 B1 Ag3 -12.5(6) 4_656 . . 4_656
Ag3 O9 B1 Ag3 78.5(6) 3_457 . . 4_656
Ag1 O9 B1 Ag3 -75.9(5) 4_656 . . 4_656
Ag1 O9 B1 Ag3 109.1(6) . . . 4_656
B3 O4 B1 O9 53.2(6) . . . .
Ag1 O4 B1 O9 -116.7(3) . . . .
Ag3 O4 B1 O9 145.7(3) 4_656 . . .
Ag3 O4 B1 O9 -11.2(3) 3_457 . . .
Ag2 O4 B1 O9 37.5(3) 4_656 . . .
Ag3 O4 B1 O9 -73.5(5) 1_455 . . .
Ag2 O4 B1 O9 -139.5(4) . . . .
Ag1 O4 B1 O9 104.3(3) 4_556 . . .
Ag2 O4 B1 O9 -168.2(3) 3_456 . . .
B3 O4 B1 O3 177.5(4) . . . .
Ag1 O4 B1 O3 7.5(4) . . . .
Ag3 O4 B1 O3 -90.0(3) 4_656 . . .
Ag3 O4 B1 O3 113.0(3) 3_457 . . .
Ag2 O4 B1 O3 161.8(4) 4_656 . . .
Ag3 O4 B1 O3 50.7(5) 1_455 . . .
Ag2 O4 B1 O3 -15.3(2) . . . .
Ag1 O4 B1 O3 -131.5(3) 4_556 . . .
Ag2 O4 B1 O3 -44.0(4) 3_456 . . .
B3 O4 B1 O7 -67.9(5) . . . 4_656
Ag1 O4 B1 O7 122.1(3) . . . 4_656
Ag3 O4 B1 O7 24.6(3) 4_656 . . 4_656
Ag3 O4 B1 O7 -132.4(3) 3_457 . . 4_656
Ag2 O4 B1 O7 -83.7(3) 4_656 . . 4_656
Ag3 O4 B1 O7 165.3(2) 1_455 . . 4_656
Ag2 O4 B1 O7 99.3(3) . . . 4_656
Ag1 O4 B1 O7 -16.9(4) 4_556 . . 4_656
Ag2 O4 B1 O7 70.6(3) 3_456 . . 4_656
B3 O4 B1 Ag1 169.9(5) . . . .
Ag3 O4 B1 Ag1 -97.56(19) 4_656 . . .
Ag3 O4 B1 Ag1 105.48(17) 3_457 . . .
Ag2 O4 B1 Ag1 154.22(14) 4_656 . . .
Ag3 O4 B1 Ag1 43.2(2) 1_455 . . .
Ag2 O4 B1 Ag1 -22.85(19) . . . .
Ag1 O4 B1 Ag1 -139.0(3) 4_556 . . .
Ag2 O4 B1 Ag1 -51.53(12) 3_456 . . .
B3 O4 B1 Ag2 15.7(4) . . . 4_656
Ag1 O4 B1 Ag2 -154.22(14) . . . 4_656
Ag3 O4 B1 Ag2 108.22(13) 4_656 . . 4_656
Ag3 O4 B1 Ag2 -48.74(11) 3_457 . . 4_656
Ag3 O4 B1 Ag2 -111.0(3) 1_455 . . 4_656
Ag2 O4 B1 Ag2 -177.07(18) . . . 4_656
Ag1 O4 B1 Ag2 66.8(3) 4_556 . . 4_656
Ag2 O4 B1 Ag2 154.25(11) 3_456 . . 4_656
B3 O4 B1 Ag1 -19.3(7) . . . 4_656
Ag1 O4 B1 Ag1 170.8(3) . . . 4_656
Ag3 O4 B1 Ag1 73.2(4) 4_656 . . 4_656
Ag3 O4 B1 Ag1 -83.7(4) 3_457 . . 4_656
Ag2 O4 B1 Ag1 -35.0(3) 4_656 . . 4_656
Ag3 O4 B1 Ag1 -146.0(3) 1_455 . . 4_656
Ag2 O4 B1 Ag1 147.9(4) . . . 4_656
Ag1 O4 B1 Ag1 31.8(6) 4_556 . . 4_656
Ag2 O4 B1 Ag1 119.3(4) 3_456 . . 4_656
B3 O4 B1 Ag3 64.5(4) . . . 3_457
Ag1 O4 B1 Ag3 -105.48(17) . . . 3_457
Ag3 O4 B1 Ag3 156.96(13) 4_656 . . 3_457
Ag2 O4 B1 Ag3 48.74(11) 4_656 . . 3_457
Ag3 O4 B1 Ag3 -62.3(3) 1_455 . . 3_457
Ag2 O4 B1 Ag3 -128.33(10) . . . 3_457
Ag1 O4 B1 Ag3 115.5(2) 4_556 . . 3_457
Ag2 O4 B1 Ag3 -157.01(15) 3_456 . . 3_457
B3 O4 B1 Ag2 -167.2(4) . . . .
Ag1 O4 B1 Ag2 22.85(19) . . . .
Ag3 O4 B1 Ag2 -74.71(13) 4_656 . . .
Ag3 O4 B1 Ag2 128.33(10) 3_457 . . .
Ag2 O4 B1 Ag2 177.07(18) 4_656 . . .
Ag3 O4 B1 Ag2 66.1(3) 1_455 . . .
Ag1 O4 B1 Ag2 -116.16(19) 4_556 . . .
Ag2 O4 B1 Ag2 -28.68(18) 3_456 . . .
B3 O4 B1 Ag3 -92.5(4) . . . 4_656
Ag1 O4 B1 Ag3 97.56(19) . . . 4_656
Ag3 O4 B1 Ag3 -156.96(13) 3_457 . . 4_656
Ag2 O4 B1 Ag3 -108.22(14) 4_656 . . 4_656
Ag3 O4 B1 Ag3 140.8(3) 1_455 . . 4_656
Ag2 O4 B1 Ag3 74.71(13) . . . 4_656
Ag1 O4 B1 Ag3 -41.45(15) 4_556 . . 4_656
Ag2 O4 B1 Ag3 46.03(9) 3_456 . . 4_656
B2 O3 B1 O9 1.1(6) . . . .
Ag2 O3 B1 O9 164.2(3) . . . .
Ag1 O3 B1 O9 118.4(3) . . . .
Ag2 O3 B1 O9 -76.2(4) 3_556 . . .
Ag1 O3 B1 O9 -67.0(3) 4_656 . . .
Ag3 O3 B1 O9 -74.4(3) 4_756 . . .
B2 O3 B1 O4 -123.1(5) . . . .
Ag2 O3 B1 O4 40.0(6) . . . .
Ag1 O3 B1 O4 -5.8(3) . . . .
Ag2 O3 B1 O4 159.6(2) 3_556 . . .
Ag1 O3 B1 O4 168.8(4) 4_656 . . .
Ag3 O3 B1 O4 161.4(3) 4_756 . . .
B2 O3 B1 O7 120.6(5) . . . 4_656
Ag2 O3 B1 O7 -76.3(5) . . . 4_656
Ag1 O3 B1 O7 -122.0(3) . . . 4_656
Ag2 O3 B1 O7 43.3(5) 3_556 . . 4_656
Ag1 O3 B1 O7 52.5(2) 4_656 . . 4_656
Ag3 O3 B1 O7 45.1(3) 4_756 . . 4_656
B2 O3 B1 Ag1 -117.3(5) . . . .
Ag2 O3 B1 Ag1 45.7(4) . . . .
Ag2 O3 B1 Ag1 165.3(3) 3_556 . . .
Ag1 O3 B1 Ag1 174.54(17) 4_656 . . .
Ag3 O3 B1 Ag1 167.14(11) 4_756 . . .
B2 O3 B1 Ag2 19.9(8) . . . 4_656
Ag2 O3 B1 Ag2 -177.0(2) . . . 4_656
Ag1 O3 B1 Ag2 137.3(5) . . . 4_656
Ag2 O3 B1 Ag2 -57.4(7) 3_556 . . 4_656
Ag1 O3 B1 Ag2 -48.2(4) 4_656 . . 4_656
Ag3 O3 B1 Ag2 -55.6(5) 4_756 . . 4_656
B2 O3 B1 Ag1 68.1(5) . . . 4_656
Ag2 O3 B1 Ag1 -128.8(3) . . . 4_656
Ag1 O3 B1 Ag1 -174.54(17) . . . 4_656
Ag2 O3 B1 Ag1 -9.2(4) 3_556 . . 4_656
Ag3 O3 B1 Ag1 -7.40(18) 4_756 . . 4_656
B2 O3 B1 Ag3 -41.0(6) . . . 3_457
Ag2 O3 B1 Ag3 122.0(3) . . . 3_457
Ag1 O3 B1 Ag3 76.3(2) . . . 3_457
Ag2 O3 B1 Ag3 -118.4(3) 3_556 . . 3_457
Ag1 O3 B1 Ag3 -109.2(3) 4_656 . . 3_457
Ag3 O3 B1 Ag3 -116.6(2) 4_756 . . 3_457
B2 O3 B1 Ag2 -163.1(7) . . . .
Ag1 O3 B1 Ag2 -45.7(4) . . . .
Ag2 O3 B1 Ag2 119.6(6) 3_556 . . .
Ag1 O3 B1 Ag2 128.8(3) 4_656 . . .
Ag3 O3 B1 Ag2 121.4(4) 4_756 . . .
B2 O3 B1 Ag3 179.5(4) . . . 4_656
Ag2 O3 B1 Ag3 -17.4(5) . . . 4_656
Ag1 O3 B1 Ag3 -63.12(12) . . . 4_656
Ag2 O3 B1 Ag3 102.2(3) 3_556 . . 4_656
Ag1 O3 B1 Ag3 111.4(2) 4_656 . . 4_656
Ag3 O3 B1 Ag3 104.02(12) 4_756 . . 4_656
B1 O3 B2 O8 -7.6(8) . . . .
Ag2 O3 B2 O8 -177.2(5) . . . .
Ag1 O3 B2 O8 -109.6(5) . . . .
Ag2 O3 B2 O8 117.9(6) 3_556 . . .
Ag1 O3 B2 O8 38.7(6) 4_656 . . .
Ag3 O3 B2 O8 74.3(5) 4_756 . . .
B1 O3 B2 O5 -170.2(4) . . . 3_556
Ag2 O3 B2 O5 20.1(5) . . . 3_556
Ag1 O3 B2 O5 87.7(5) . . . 3_556
Ag2 O3 B2 O5 -44.8(4) 3_556 . . 3_556
Ag1 O3 B2 O5 -124.0(4) 4_656 . . 3_556
Ag3 O3 B2 O5 -88.4(5) 4_756 . . 3_556
B1 O3 B2 Ag2 169.6(5) . . . .
Ag1 O3 B2 Ag2 67.57(16) . . . .
Ag2 O3 B2 Ag2 -64.93(18) 3_556 . . .
Ag1 O3 B2 Ag2 -144.12(15) 4_656 . . .
Ag3 O3 B2 Ag2 -108.53(10) 4_756 . . .
B1 O3 B2 Ag2 -125.4(4) . . . 3_556
Ag2 O3 B2 Ag2 64.93(18) . . . 3_556
Ag1 O3 B2 Ag2 132.50(18) . . . 3_556
Ag1 O3 B2 Ag2 -79.19(16) 4_656 . . 3_556
Ag3 O3 B2 Ag2 -43.59(13) 4_756 . . 3_556
B1 O3 B2 Ag1 -76.5(7) . . . 1_655
Ag2 O3 B2 Ag1 113.9(5) . . . 1_655
Ag1 O3 B2 Ag1 -178.6(4) . . . 1_655
Ag2 O3 B2 Ag1 48.9(5) 3_556 . . 1_655
Ag1 O3 B2 Ag1 -30.3(6) 4_656 . . 1_655
Ag3 O3 B2 Ag1 5.3(5) 4_756 . . 1_655
B1 O3 B2 Ag3 33.7(10) . . . .
Ag2 O3 B2 Ag3 -135.9(6) . . . .
Ag1 O3 B2 Ag3 -68.3(7) . . . .
Ag2 O3 B2 Ag3 159.2(8) 3_556 . . .
Ag1 O3 B2 Ag3 80.0(7) 4_656 . . .
Ag3 O3 B2 Ag3 115.6(7) 4_756 . . .
B1 O3 B2 Ag1 102.1(5) . . . .
Ag2 O3 B2 Ag1 -67.57(16) . . . .
Ag2 O3 B2 Ag1 -132.50(18) 3_556 . . .
Ag1 O3 B2 Ag1 148.3(2) 4_656 . . .
Ag3 O3 B2 Ag1 -176.10(16) 4_756 . . .
B1 O3 B2 Ag3 -81.8(4) . . . 4_756
Ag2 O3 B2 Ag3 108.53(10) . . . 4_756
Ag1 O3 B2 Ag3 176.10(16) . . . 4_756
Ag2 O3 B2 Ag3 43.59(13) 3_556 . . 4_756
Ag1 O3 B2 Ag3 -35.60(9) 4_656 . . 4_756
B4 O8 B2 O3 -7.1(8) 4_646 . . .
Ag3 O8 B2 O3 146.0(4) . . . .
Ag1 O8 B2 O3 -141.2(5) 1_655 . . .
Ag2 O8 B2 O3 -112.6(7) 3_556 . . .
Ag3 O8 B2 O3 42.5(6) 3_457 . . .
Ag1 O8 B2 O3 -38.5(6) 4_656 . . .
Ag3 O8 B2 O3 -76.0(5) 4_756 . . .
Ag2 O8 B2 O3 107(9) . . . .
B4 O8 B2 O5 154.6(5) 4_646 . . 3_556
Ag3 O8 B2 O5 -52.3(7) . . . 3_556
Ag1 O8 B2 O5 20.4(6) 1_655 . . 3_556
Ag2 O8 B2 O5 49.1(4) 3_556 . . 3_556
Ag3 O8 B2 O5 -155.8(4) 3_457 . . 3_556
Ag1 O8 B2 O5 123.2(5) 4_656 . . 3_556
Ag3 O8 B2 O5 85.7(5) 4_756 . . 3_556
Ag2 O8 B2 O5 -92(9) . . . 3_556
B4 O8 B2 Ag2 105.5(4) 4_646 . . 3_556
Ag3 O8 B2 Ag2 -101.4(3) . . . 3_556
Ag1 O8 B2 Ag2 -28.6(3) 1_655 . . 3_556
Ag3 O8 B2 Ag2 155.11(15) 3_457 . . 3_556
Ag1 O8 B2 Ag2 74.1(2) 4_656 . . 3_556
Ag3 O8 B2 Ag2 36.63(19) 4_756 . . 3_556
Ag2 O8 B2 Ag2 -141(9) . . . 3_556
B4 O8 B2 Ag1 134.1(5) 4_646 . . 1_655
Ag3 O8 B2 Ag1 -72.8(2) . . . 1_655
Ag2 O8 B2 Ag1 28.6(3) 3_556 . . 1_655
Ag3 O8 B2 Ag1 -176.2(2) 3_457 . . 1_655
Ag1 O8 B2 Ag1 102.78(17) 4_656 . . 1_655
Ag3 O8 B2 Ag1 65.28(14) 4_756 . . 1_655
Ag2 O8 B2 Ag1 -112(9) . . . 1_655
B4 O8 B2 Ag3 -153.1(6) 4_646 . . .
Ag1 O8 B2 Ag3 72.8(2) 1_655 . . .
Ag2 O8 B2 Ag3 101.4(3) 3_556 . . .
Ag3 O8 B2 Ag3 -103.5(3) 3_457 . . .
Ag1 O8 B2 Ag3 175.5(3) 4_656 . . .
Ag3 O8 B2 Ag3 138.0(3) 4_756 . . .
Ag2 O8 B2 Ag3 -39(9) . . . .
B4 O8 B2 Ag1 -60.5(6) 4_646 . . .
Ag3 O8 B2 Ag1 92.6(4) . . . .
Ag1 O8 B2 Ag1 165.4(2) 1_655 . . .
Ag2 O8 B2 Ag1 -166.0(5) 3_556 . . .
Ag3 O8 B2 Ag1 -10.9(4) 3_457 . . .
Ag1 O8 B2 Ag1 -91.9(3) 4_656 . . .
Ag3 O8 B2 Ag1 -129.4(3) 4_756 . . .
Ag2 O8 B2 Ag1 53(9) . . . .
B4 O8 B2 Ag3 68.9(4) 4_646 . . 4_756
Ag3 O8 B2 Ag3 -138.0(3) . . . 4_756
Ag1 O8 B2 Ag3 -65.28(14) 1_655 . . 4_756
Ag2 O8 B2 Ag3 -36.63(19) 3_556 . . 4_756
Ag3 O8 B2 Ag3 118.48(13) 3_457 . . 4_756
Ag1 O8 B2 Ag3 37.50(8) 4_656 . . 4_756
Ag2 O8 B2 Ag3 -177(9) . . . 4_756
B1 O4 B3 O1 147.6(4) . . . 4_556
Ag1 O4 B3 O1 -44.4(5) . . . 4_556
Ag3 O4 B3 O1 45.8(3) 4_656 . . 4_556
Ag3 O4 B3 O1 -145.6(4) 3_457 . . 4_556
Ag2 O4 B3 O1 162.5(4) 4_656 . . 4_556
Ag3 O4 B3 O1 -67.9(3) 1_455 . . 4_556
Ag2 O4 B3 O1 10.8(12) . . . 4_556
Ag1 O4 B3 O1 40.1(2) 4_556 . . 4_556
Ag2 O4 B3 O1 9.0(4) 3_456 . . 4_556
B1 O4 B3 O5 24.7(6) . . . 2_565
Ag1 O4 B3 O5 -167.3(2) . . . 2_565
Ag3 O4 B3 O5 -77.1(3) 4_656 . . 2_565
Ag3 O4 B3 O5 91.5(3) 3_457 . . 2_565
Ag2 O4 B3 O5 39.7(2) 4_656 . . 2_565
Ag3 O4 B3 O5 169.2(3) 1_455 . . 2_565
Ag2 O4 B3 O5 -112.1(8) . . . 2_565
Ag1 O4 B3 O5 -82.7(4) 4_556 . . 2_565
Ag2 O4 B3 O5 -113.8(3) 3_456 . . 2_565
B1 O4 B3 O6 -90.9(5) . . . 3_457
Ag1 O4 B3 O6 77.2(4) . . . 3_457
Ag3 O4 B3 O6 167.3(3) 4_656 . . 3_457
Ag3 O4 B3 O6 -24.0(3) 3_457 . . 3_457
Ag2 O4 B3 O6 -75.9(3) 4_656 . . 3_457
Ag3 O4 B3 O6 53.7(3) 1_455 . . 3_457
Ag2 O4 B3 O6 132.4(8) . . . 3_457
Ag1 O4 B3 O6 161.7(5) 4_556 . . 3_457
Ag2 O4 B3 O6 130.6(3) 3_456 . . 3_457
B1 O4 B3 Ag2 18.3(9) . . . 2_565
Ag1 O4 B3 Ag2 -173.7(4) . . . 2_565
Ag3 O4 B3 Ag2 -83.5(7) 4_656 . . 2_565
Ag3 O4 B3 Ag2 85.1(6) 3_457 . . 2_565
Ag2 O4 B3 Ag2 33.3(6) 4_656 . . 2_565
Ag3 O4 B3 Ag2 162.8(6) 1_455 . . 2_565
Ag2 O4 B3 Ag2 -118.5(8) . . . 2_565
Ag1 O4 B3 Ag2 -89.2(7) 4_556 . . 2_565
Ag2 O4 B3 Ag2 -120.3(6) 3_456 . . 2_565
B1 O4 B3 Ag1 107.4(4) . . . 4_556
Ag1 O4 B3 Ag1 -84.5(4) . . . 4_556
Ag3 O4 B3 Ag1 5.6(3) 4_656 . . 4_556
Ag3 O4 B3 Ag1 174.3(3) 3_457 . . 4_556
Ag2 O4 B3 Ag1 122.4(3) 4_656 . . 4_556
Ag3 O4 B3 Ag1 -108.0(2) 1_455 . . 4_556
Ag2 O4 B3 Ag1 -29.3(11) . . . 4_556
Ag2 O4 B3 Ag1 -31.1(4) 3_456 . . 4_556
B1 O4 B3 Ag1 -168.0(6) . . . .
Ag3 O4 B3 Ag1 90.2(3) 4_656 . . .
Ag3 O4 B3 Ag1 -101.2(3) 3_457 . . .
Ag2 O4 B3 Ag1 -153.1(2) 4_656 . . .
Ag3 O4 B3 Ag1 -23.5(2) 1_455 . . .
Ag2 O4 B3 Ag1 55.2(8) . . . .
Ag1 O4 B3 Ag1 84.5(4) 4_556 . . .
Ag2 O4 B3 Ag1 53.4(2) 3_456 . . .
B1 O4 B3 Ag3 -66.8(4) . . . 3_457
Ag1 O4 B3 Ag3 101.2(3) . . . 3_457
Ag3 O4 B3 Ag3 -168.64(10) 4_656 . . 3_457
Ag2 O4 B3 Ag3 -51.85(8) 4_656 . . 3_457
Ag3 O4 B3 Ag3 77.68(7) 1_455 . . 3_457
Ag2 O4 B3 Ag3 156.4(9) . . . 3_457
Ag1 O4 B3 Ag3 -174.3(3) 4_556 . . 3_457
Ag2 O4 B3 Ag3 154.63(13) 3_456 . . 3_457
B1 O4 B3 Ag2 -15.0(4) . . . 4_656
Ag1 O4 B3 Ag2 153.1(2) . . . 4_656
Ag3 O4 B3 Ag2 -116.78(11) 4_656 . . 4_656
Ag3 O4 B3 Ag2 51.85(8) 3_457 . . 4_656
Ag3 O4 B3 Ag2 129.54(11) 1_455 . . 4_656
Ag2 O4 B3 Ag2 -151.8(8) . . . 4_656
Ag1 O4 B3 Ag2 -122.4(3) 4_556 . . 4_656
Ag2 O4 B3 Ag2 -153.51(11) 3_456 . . 4_656
B1 O4 B3 Ag3 101.8(4) . . . 4_656
Ag1 O4 B3 Ag3 -90.2(3) . . . 4_656
Ag3 O4 B3 Ag3 168.64(10) 3_457 . . 4_656
Ag2 O4 B3 Ag3 116.78(11) 4_656 . . 4_656
Ag3 O4 B3 Ag3 -113.68(8) 1_455 . . 4_656
Ag2 O4 B3 Ag3 -35.0(9) . . . 4_656
Ag1 O4 B3 Ag3 -5.6(3) 4_556 . . 4_656
Ag2 O4 B3 Ag3 -36.73(12) 3_456 . . 4_656
B1 O4 B3 Ag3 -144.5(4) . . . 1_455
Ag1 O4 B3 Ag3 23.5(2) . . . 1_455
Ag3 O4 B3 Ag3 113.68(8) 4_656 . . 1_455
Ag3 O4 B3 Ag3 -77.68(7) 3_457 . . 1_455
Ag2 O4 B3 Ag3 -129.54(11) 4_656 . . 1_455
Ag2 O4 B3 Ag3 78.7(9) . . . 1_455
Ag1 O4 B3 Ag3 108.0(2) 4_556 . . 1_455
Ag2 O4 B3 Ag3 76.95(13) 3_456 . . 1_455
B1 O4 B3 Ag2 153.9(4) . . . 4_556
Ag1 O4 B3 Ag2 -38.0(7) . . . 4_556
Ag3 O4 B3 Ag2 52.1(5) 4_656 . . 4_556
Ag3 O4 B3 Ag2 -139.2(6) 3_457 . . 4_556
Ag2 O4 B3 Ag2 168.9(6) 4_656 . . 4_556
Ag3 O4 B3 Ag2 -61.5(5) 1_455 . . 4_556
Ag2 O4 B3 Ag2 17.2(14) . . . 4_556
Ag1 O4 B3 Ag2 46.5(4) 4_556 . . 4_556
Ag2 O4 B3 Ag2 15.4(6) 3_456 . . 4_556
B4 O2 B5 O7 173.7(4) 2_565 . . .
Ag3 O2 B5 O7 31.8(7) 1_455 . . .
Ag3 O2 B5 O7 -97.7(4) 3_457 . . .
Ag1 O2 B5 O7 -5.2(4) . . . .
Ag2 O2 B5 O7 96.7(4) 2 . . .
Ag1 O2 B5 O7 141.6(4) 2 . . .
Ag1 O2 B5 O7 -139.6(4) 3_557 . . .
Ag2 O2 B5 O7 119.4(5) 4_646 . . .
B4 O2 B5 O6 -7.4(7) 2_565 . . .
Ag3 O2 B5 O6 -149.4(3) 1_455 . . .
Ag3 O2 B5 O6 81.2(5) 3_457 . . .
Ag1 O2 B5 O6 173.7(4) . . . .
Ag2 O2 B5 O6 -84.5(5) 2 . . .
Ag1 O2 B5 O6 -39.5(5) 2 . . .
Ag1 O2 B5 O6 39.3(4) 3_557 . . .
Ag2 O2 B5 O6 -61.7(4) 4_646 . . .
B4 O2 B5 Ag3 -55.8(8) 2_565 . . .
Ag3 O2 B5 Ag3 162.3(3) 1_455 . . .
Ag3 O2 B5 Ag3 32.8(6) 3_457 . . .
Ag1 O2 B5 Ag3 125.3(6) . . . .
Ag2 O2 B5 Ag3 -132.8(5) 2 . . .
Ag1 O2 B5 Ag3 -87.9(6) 2 . . .
Ag1 O2 B5 Ag3 -9.1(6) 3_557 . . .
Ag2 O2 B5 Ag3 -110.1(6) 4_646 . . .
B4 O2 B5 Ag1 178.9(4) 2_565 . . .
Ag3 O2 B5 Ag1 36.9(3) 1_455 . . .
Ag3 O2 B5 Ag1 -92.50(10) 3_457 . . .
Ag2 O2 B5 Ag1 101.83(15) 2 . . .
Ag1 O2 B5 Ag1 146.77(13) 2 . . .
Ag1 O2 B5 Ag1 -134.43(9) 3_557 . . .
Ag2 O2 B5 Ag1 124.58(15) 4_646 . . .
B4 O2 B5 Ag3 -88.6(4) 2_565 . . 3_457
Ag3 O2 B5 Ag3 129.4(4) 1_455 . . 3_457
Ag1 O2 B5 Ag3 92.50(10) . . . 3_457
Ag2 O2 B5 Ag3 -165.67(19) 2 . . 3_457
Ag1 O2 B5 Ag3 -120.73(13) 2 . . 3_457
Ag1 O2 B5 Ag3 -41.94(6) 3_557 . . 3_457
Ag2 O2 B5 Ag3 -142.93(13) 4_646 . . 3_457
B4 O2 B5 Ag3 142.0(7) 2_565 . . 1_455
Ag3 O2 B5 Ag3 -129.4(4) 3_457 . . 1_455
Ag1 O2 B5 Ag3 -36.9(3) . . . 1_455
Ag2 O2 B5 Ag3 64.9(3) 2 . . 1_455
Ag1 O2 B5 Ag3 109.9(4) 2 . . 1_455
Ag1 O2 B5 Ag3 -171.3(4) 3_557 . . 1_455
Ag2 O2 B5 Ag3 87.7(4) 4_646 . . 1_455
B4 O2 B5 Ag2 54.3(5) 2_565 . . 4_646
Ag3 O2 B5 Ag2 -87.7(4) 1_455 . . 4_646
Ag3 O2 B5 Ag2 142.93(13) 3_457 . . 4_646
Ag1 O2 B5 Ag2 -124.57(15) . . . 4_646
Ag2 O2 B5 Ag2 -22.7(2) 2 . . 4_646
Ag1 O2 B5 Ag2 22.20(19) 2 . . 4_646
Ag1 O2 B5 Ag2 100.99(14) 3_557 . . 4_646
B4 O2 B5 Ag2 77.1(4) 2_565 . . 2
Ag3 O2 B5 Ag2 -64.9(3) 1_455 . . 2
Ag3 O2 B5 Ag2 165.67(19) 3_457 . . 2
Ag1 O2 B5 Ag2 -101.83(15) . . . 2
Ag1 O2 B5 Ag2 44.94(9) 2 . . 2
Ag1 O2 B5 Ag2 123.74(14) 3_557 . . 2
Ag2 O2 B5 Ag2 22.7(2) 4_646 . . 2
B4 O2 B5 Ag1 78.8(6) 2_565 . . 4_646
Ag3 O2 B5 Ag1 -63.2(6) 1_455 . . 4_646
Ag3 O2 B5 Ag1 167.4(4) 3_457 . . 4_646
Ag1 O2 B5 Ag1 -100.1(4) . . . 4_646
Ag2 O2 B5 Ag1 1.8(5) 2 . . 4_646
Ag1 O2 B5 Ag1 46.7(5) 2 . . 4_646
Ag1 O2 B5 Ag1 125.5(4) 3_557 . . 4_646
Ag2 O2 B5 Ag1 24.5(3) 4_646 . . 4_646
B4 O2 B5 Ag1 -46.7(4) 2_565 . . 3_557
Ag3 O2 B5 Ag1 171.3(4) 1_455 . . 3_557
Ag3 O2 B5 Ag1 41.94(6) 3_457 . . 3_557
Ag1 O2 B5 Ag1 134.43(9) . . . 3_557
Ag2 O2 B5 Ag1 -123.74(14) 2 . . 3_557
Ag1 O2 B5 Ag1 -78.79(8) 2 . . 3_557
Ag2 O2 B5 Ag1 -100.99(15) 4_646 . . 3_557
B1 O7 B5 O2 -111.6(5) 4_646 . . .
Ag1 O7 B5 O2 6.6(5) . . . .
Ag3 O7 B5 O2 155.8(5) . . . .
Ag2 O7 B5 O2 9.3(16) . . . .
Ag3 O7 B5 O2 -15.2(3) 1_455 . . .
Ag1 O7 B5 O2 -139.7(4) 4_646 . . .
Ag3 O7 B5 O2 67.9(4) 3_457 . . .
Ag2 O7 B5 O2 -117.3(5) 4_646 . . .
B1 O7 B5 O6 69.6(6) 4_646 . . .
Ag1 O7 B5 O6 -172.3(4) . . . .
Ag3 O7 B5 O6 -23.1(4) . . . .
Ag2 O7 B5 O6 -169.6(9) . . . .
Ag3 O7 B5 O6 165.9(5) 1_455 . . .
Ag1 O7 B5 O6 41.4(5) 4_646 . . .
Ag3 O7 B5 O6 -111.0(5) 3_457 . . .
Ag2 O7 B5 O6 63.8(4) 4_646 . . .
B1 O7 B5 Ag3 92.6(3) 4_646 . . .
Ag1 O7 B5 Ag3 -149.23(15) . . . .
Ag2 O7 B5 Ag3 -146.5(12) . . . .
Ag3 O7 B5 Ag3 -171.04(17) 1_455 . . .
Ag1 O7 B5 Ag3 64.46(9) 4_646 . . .
Ag3 O7 B5 Ag3 -87.92(19) 3_457 . . .
Ag2 O7 B5 Ag3 86.86(18) 4_646 . . .
B1 O7 B5 Ag1 -118.1(4) 4_646 . . .
Ag3 O7 B5 Ag1 149.23(15) . . . .
Ag2 O7 B5 Ag1 2.8(11) . . . .
Ag3 O7 B5 Ag1 -21.8(2) 1_455 . . .
Ag1 O7 B5 Ag1 -146.3(2) 4_646 . . .
Ag3 O7 B5 Ag1 61.3(3) 3_457 . . .
Ag2 O7 B5 Ag1 -123.90(17) 4_646 . . .
B1 O7 B5 Ag3 -179.5(3) 4_646 . . 3_457
Ag1 O7 B5 Ag3 -61.3(3) . . . 3_457
Ag3 O7 B5 Ag3 87.92(19) . . . 3_457
Ag2 O7 B5 Ag3 -58.6(13) . . . 3_457
Ag3 O7 B5 Ag3 -83.12(19) 1_455 . . 3_457
Ag1 O7 B5 Ag3 152.38(17) 4_646 . . 3_457
Ag2 O7 B5 Ag3 174.8(3) 4_646 . . 3_457
B1 O7 B5 Ag3 -96.3(3) 4_646 . . 1_455
Ag1 O7 B5 Ag3 21.8(2) . . . 1_455
Ag3 O7 B5 Ag3 171.04(17) . . . 1_455
Ag2 O7 B5 Ag3 24.6(13) . . . 1_455
Ag1 O7 B5 Ag3 -124.50(11) 4_646 . . 1_455
Ag3 O7 B5 Ag3 83.12(19) 3_457 . . 1_455
Ag2 O7 B5 Ag3 -102.1(2) 4_646 . . 1_455
B1 O7 B5 Ag2 5.8(4) 4_646 . . 4_646
Ag1 O7 B5 Ag2 123.90(17) . . . 4_646
Ag3 O7 B5 Ag2 -86.86(18) . . . 4_646
Ag2 O7 B5 Ag2 126.7(12) . . . 4_646
Ag3 O7 B5 Ag2 102.1(2) 1_455 . . 4_646
Ag1 O7 B5 Ag2 -22.40(19) 4_646 . . 4_646
Ag3 O7 B5 Ag2 -174.8(3) 3_457 . . 4_646
B1 O7 B5 Ag2 -53.0(4) 4_646 . . 2
Ag1 O7 B5 Ag2 65.2(3) . . . 2
Ag3 O7 B5 Ag2 -145.6(2) . . . 2
Ag2 O7 B5 Ag2 67.9(13) . . . 2
Ag3 O7 B5 Ag2 43.36(13) 1_455 . . 2
Ag1 O7 B5 Ag2 -81.14(19) 4_646 . . 2
Ag3 O7 B5 Ag2 126.5(3) 3_457 . . 2
Ag2 O7 B5 Ag2 -58.74(17) 4_646 . . 2
B1 O7 B5 Ag1 28.2(3) 4_646 . . 4_646
Ag1 O7 B5 Ag1 146.3(2) . . . 4_646
Ag3 O7 B5 Ag1 -64.46(9) . . . 4_646
Ag2 O7 B5 Ag1 149.1(13) . . . 4_646
Ag3 O7 B5 Ag1 124.50(11) 1_455 . . 4_646
Ag3 O7 B5 Ag1 -152.38(17) 3_457 . . 4_646
Ag2 O7 B5 Ag1 22.40(19) 4_646 . . 4_646
B1 O7 B5 Ag1 147.3(4) 4_646 . . 3_557
Ag1 O7 B5 Ag1 -94.6(4) . . . 3_557
Ag3 O7 B5 Ag1 54.6(4) . . . 3_557
Ag2 O7 B5 Ag1 -91.8(13) . . . 3_557
Ag3 O7 B5 Ag1 -116.4(5) 1_455 . . 3_557
Ag1 O7 B5 Ag1 119.1(4) 4_646 . . 3_557
Ag3 O7 B5 Ag1 -33.3(3) 3_457 . . 3_557
Ag2 O7 B5 Ag1 141.5(5) 4_646 . . 3_557
B3 O6 B5 O2 12.7(7) 3_557 . . .
Ag3 O6 B5 O2 -143.5(4) . . . .
Ag2 O6 B5 O2 88.2(5) 4_646 . . .
Ag2 O6 B5 O2 144.8(4) 2_655 . . .
Ag1 O6 B5 O2 -45.7(5) 3_557 . . .
Ag3 O6 B5 O2 -61.8(4) 3_457 . . .
Ag1 O6 B5 O2 137.0(4) 4_646 . . .
Ag1 O6 B5 O2 38.4(5) 2 . . .
B3 O6 B5 O7 -168.5(4) 3_557 . . .
Ag3 O6 B5 O7 35.4(6) . . . .
Ag2 O6 B5 O7 -93.0(5) 4_646 . . .
Ag2 O6 B5 O7 -36.3(9) 2_655 . . .
Ag1 O6 B5 O7 133.1(4) 3_557 . . .
Ag3 O6 B5 O7 117.0(5) 3_457 . . .
Ag1 O6 B5 O7 -44.2(5) 4_646 . . .
Ag1 O6 B5 O7 -142.8(4) 2 . . .
B3 O6 B5 Ag3 156.2(5) 3_557 . . .
Ag2 O6 B5 Ag3 -128.3(2) 4_646 . . .
Ag2 O6 B5 Ag3 -71.7(5) 2_655 . . .
Ag1 O6 B5 Ag3 97.7(2) 3_557 . . .
Ag3 O6 B5 Ag3 81.7(2) 3_457 . . .
Ag1 O6 B5 Ag3 -79.55(18) 4_646 . . .
Ag1 O6 B5 Ag3 -178.1(2) 2 . . .
B3 O6 B5 Ag1 164.2(14) 3_557 . . .
Ag3 O6 B5 Ag1 8.1(17) . . . .
Ag2 O6 B5 Ag1 -120.3(15) 4_646 . . .
Ag2 O6 B5 Ag1 -63.6(19) 2_655 . . .
Ag1 O6 B5 Ag1 105.8(15) 3_557 . . .
Ag3 O6 B5 Ag1 89.7(16) 3_457 . . .
Ag1 O6 B5 Ag1 -71.5(16) 4_646 . . .
Ag1 O6 B5 Ag1 -170.0(15) 2 . . .
B3 O6 B5 Ag3 74.5(4) 3_557 . . 3_457
Ag3 O6 B5 Ag3 -81.7(2) . . . 3_457
Ag2 O6 B5 Ag3 150.00(11) 4_646 . . 3_457
Ag2 O6 B5 Ag3 -153.4(4) 2_655 . . 3_457
Ag1 O6 B5 Ag3 16.08(19) 3_557 . . 3_457
Ag1 O6 B5 Ag3 -161.20(10) 4_646 . . 3_457
Ag1 O6 B5 Ag3 100.23(13) 2 . . 3_457
B3 O6 B5 Ag3 -13.2(8) 3_557 . . 1_455
Ag3 O6 B5 Ag3 -169.3(4) . . . 1_455
Ag2 O6 B5 Ag3 62.3(5) 4_646 . . 1_455
Ag2 O6 B5 Ag3 118.9(5) 2_655 . . 1_455
Ag1 O6 B5 Ag3 -71.6(5) 3_557 . . 1_455
Ag3 O6 B5 Ag3 -87.7(5) 3_457 . . 1_455
Ag1 O6 B5 Ag3 111.1(5) 4_646 . . 1_455
Ag1 O6 B5 Ag3 12.5(5) 2 . . 1_455
B3 O6 B5 Ag2 -75.5(4) 3_557 . . 4_646
Ag3 O6 B5 Ag2 128.3(2) . . . 4_646
Ag2 O6 B5 Ag2 56.6(5) 2_655 . . 4_646
Ag1 O6 B5 Ag2 -133.92(17) 3_557 . . 4_646
Ag3 O6 B5 Ag2 -150.00(11) 3_457 . . 4_646
Ag1 O6 B5 Ag2 48.80(7) 4_646 . . 4_646
Ag1 O6 B5 Ag2 -49.77(7) 2 . . 4_646
B3 O6 B5 Ag2 -42.5(5) 3_557 . . 2
Ag3 O6 B5 Ag2 161.30(13) . . . 2
Ag2 O6 B5 Ag2 33.0(2) 4_646 . . 2
Ag2 O6 B5 Ag2 89.6(5) 2_655 . . 2
Ag1 O6 B5 Ag2 -100.97(16) 3_557 . . 2
Ag3 O6 B5 Ag2 -117.0(2) 3_457 . . 2
Ag1 O6 B5 Ag2 81.75(16) 4_646 . . 2
Ag1 O6 B5 Ag2 -16.82(17) 2 . . 2
B3 O6 B5 Ag1 -124.3(4) 3_557 . . 4_646
Ag3 O6 B5 Ag1 79.55(18) . . . 4_646
Ag2 O6 B5 Ag1 -48.80(7) 4_646 . . 4_646
Ag2 O6 B5 Ag1 7.8(5) 2_655 . . 4_646
Ag1 O6 B5 Ag1 177.28(17) 3_557 . . 4_646
Ag3 O6 B5 Ag1 161.20(10) 3_457 . . 4_646
Ag1 O6 B5 Ag1 -98.57(11) 2 . . 4_646
B3 O6 B5 Ag1 58.4(4) 3_557 . . 3_557
Ag3 O6 B5 Ag1 -97.7(2) . . . 3_557
Ag2 O6 B5 Ag1 133.92(17) 4_646 . . 3_557
Ag2 O6 B5 Ag1 -169.4(6) 2_655 . . 3_557
Ag3 O6 B5 Ag1 -16.1(2) 3_457 . . 3_557
Ag1 O6 B5 Ag1 -177.28(17) 4_646 . . 3_557
Ag1 O6 B5 Ag1 84.15(11) 2 . . 3_557
