#------------------------------------------------------------------------------
#$Date: 2021-05-12 12:30:53 +0300 (Wed, 12 May 2021) $
#$Revision: 265139 $
#$URL: file:///home/coder/svn-repositories/cod/cif/1/56/25/1562528.cif $
#------------------------------------------------------------------------------
#
# This file is available in the Crystallography Open Database (COD),
# http://www.crystallography.net/
#
# All data on this site have been placed in the public domain by the
# contributors.
#
data_1562528
loop_
_publ_author_name
'Lipina, Olga A.'
'Surat, Ludmila L.'
'Melkozerova, Marina A.'
'Tyutyunnik, Alexander P.'
'Leonidov, Ivan I.'
'Zubkov, Vladimir G.'
_publ_section_title
;
 Synthesis, crystal structure and luminescence properties of
 CaY2&#x2212;xEuxGe3O10 (x=0--2)
;
_journal_name_full               'Journal of Solid State Chemistry'
_journal_page_first              117
_journal_page_last               121
_journal_paper_doi               10.1016/j.jssc.2013.08.002
_journal_volume                  206
_journal_year                    2013
_chemical_formula_structural     'Ca Y2 Ge3 O10'
_chemical_formula_sum            'Ca Ge3 O10 Y2'
_chemical_formula_weight         595.73
_chemical_name_common            'Calcium Yttrium Germanium Oxide'
_space_group_IT_number           14
_space_group_name_Hall           '-P 2ybc'
_space_group_name_H-M_alt        'P 1 21/c 1'
_symmetry_cell_setting           monoclinic
_symmetry_space_group_name_Hall  '-P 2ybc'
_symmetry_space_group_name_H-M   'P 1 21/c 1'
_cell_angle_alpha                90.0
_cell_angle_beta                 108.9988(5)
_cell_angle_gamma                90.0
_cell_formula_units_Z            4
_cell_length_a                   6.90763(6)
_cell_length_b                   6.84276(5)
_cell_length_c                   18.75830(16)
_cell_measurement_temperature    298(2)
_cell_volume                     838.353(12)
_computing_data_collection
'STOE Powder Software Package (STOE, Germany)'
_computing_data_reduction
'STOE Powder Software Package (STOE, Germany)'
_computing_structure_refinement  GSAS
_computing_structure_solution
'GSAS (A.C. Larson and R.B. Von Dreele, 2004), EXPGUI (Toby, B.H., 2001)'
_diffrn_ambient_temperature      298
_diffrn_detector                 'position sensitive detector'
_diffrn_detector_type            'linear mini-PSD (STOE)'
_diffrn_measurement_device_type  'transmission diffractometer Stadi-P (STOE)'
_diffrn_radiation_monochromator  'Primary, curved Ge 111'
_diffrn_radiation_polarisn_ratio 0.8
_diffrn_radiation_probe          x-ray
_diffrn_radiation_type           'Cu K\a~1~'
_diffrn_radiation_wavelength     1.54056
_diffrn_source                   'sealed X-ray tube'
_diffrn_source_target            Cu
_diffrn_source_type              'PHILIPS PW 2283/20'
_exptl_absorpt_correction_T_max  0.90674
_exptl_absorpt_correction_T_min  0.81417
_exptl_absorpt_process_details
;   GSAS Absorption/surface roughness correction: function number 4
 Flat plate transmission absorption correction
Terms =     0.63294E-01     0.0000    
Correction is refined.
;
_exptl_crystal_density_diffrn    4.720
_exptl_crystal_density_method    'not measured'
_pd_calc_method                  'Rietveld Refinement'
_pd_char_colour                  white
_pd_instr_dist_mono/spec         130
_pd_instr_dist_spec/detc         220
_pd_instr_dist_src/mono          260
_pd_instr_location               ' ?'
_pd_meas_2theta_range_inc        0.02
_pd_meas_2theta_range_max        119.98
_pd_meas_2theta_range_min        5.0
_pd_meas_number_of_points        5750
_pd_meas_scan_method             step
_pd_phase_name
'from C:/GSAS/MyWork/Tarasova/CaY2-xEuxGe3O10/CaY1_7Eu0_3Ge3O10/CAY'
_pd_prep_temperature             1523
_pd_proc_2theta_range_inc        0.02
_pd_proc_2theta_range_max        119.96387
_pd_proc_2theta_range_min        4.98388
_pd_proc_info_datetime           2013-04-08T13:00:30
_pd_proc_info_excluded_regions   ' ?'
_pd_proc_ls_background_function
;   GSAS Background function number 1 with 36 terms.
 Shifted Chebyshev function of 1st kind
      1:    1024.91     2:   -1231.75     3:    752.556     4:   -389.546    
      5:    136.074     6:   -16.2853     7:   -36.1180     8:    39.8924    
      9:   -20.4540    10:    1.19239    11:    9.22609    12:   -3.57224    
     13:    11.8005    14:   -6.32328    15:   -3.45968    16:    15.8987    
     17:   -10.4234    18:    13.0413    19:   -2.50860    20:    4.47481    
     21:   -1.00953    22:    8.89222    23:   -6.95901    24:    13.6038    
     25:   -2.86783    26:   0.882761    27:    5.35627    28:   0.529078    
     29:   -1.76783    30:    7.18175    31:  -5.938500E-0332:    2.55350    
     33:   -5.52214    34:    12.8505    35:   -12.3826    36:    9.51345    
;
_pd_proc_ls_peak_cutoff          0.00100
_pd_proc_ls_pref_orient_corr
;   March-Dollase
 AXIS  1 Ratio=   1.01613  h=-1.000  k= 0.000  l= 2.000
 Prefered orientation correction range: Min=   0.95314, Max=   1.02428
;
_pd_proc_ls_profile_function
;
 CW Profile function number 2 with  18 terms
 Profile coefficients for Simpson's rule integration of pseudovoigt function
 C.J. Howard (1982). J. Appl. Cryst.,15,615-620.
 P. Thompson, D.E. Cox & J.B. Hastings (1987). J. Appl. Cryst.,20,79-83.
 #1(GU)   =   80.490 #2(GV)   =  -21.900 #3(GW)   =   20.125
 #4(LX)   =    1.000 #5(LY)   =    4.857 #6(trns) =    0.000
 #7(asym) =   1.0000 #8(shft) =   0.0000 #9(GP)   =    0.000
 #10(stec)=     0.00 #11(ptec)=     0.00 #12(sfec)=     0.00
 #13(L11) =    0.000 #14(L22) =    0.000 #15(L33) =    0.000
 #16(L12) =    0.000 #17(L13) =    0.000 #18(L23) =    0.000
 Peak tails are ignored  where the intensity is below 0.0010 times the peak
   Aniso. broadening axis   0.0   0.0   1.0
;
_pd_proc_ls_prof_R_factor        0.0368
_pd_proc_ls_prof_wR_expected     0.0251
_pd_proc_ls_prof_wR_factor       0.0498
_pd_proc_number_of_points        5750
_pd_spec_mounting                'powder on Mylar film'
_pd_spec_mount_mode              transmission
_pd_spec_shape                   flat_sheet
_pd_spec_size_axial              7
_pd_spec_size_equat              0.1
_refine_ls_goodness_of_fit_all   2.00
_refine_ls_matrix_type           full
_refine_ls_number_parameters     102
_refine_ls_number_restraints     0
_refine_ls_R_Fsqd_factor         0.02633
_refine_ls_shift/su_max          0.01
_refine_ls_shift/su_mean         0.00
_reflns_d_resolution_high        0.890
_reflns_d_resolution_low         8.868
_reflns_limit_h_max              7
_reflns_limit_h_min              0
_reflns_limit_k_max              7
_reflns_limit_k_min              0
_reflns_limit_l_max              20
_reflns_limit_l_min              -21
_reflns_number_total             1244
_cod_data_source_file            CAY2GE3O10.cif
_cod_data_source_block           CAY2GE3O10_publ
_cod_depositor_comments
;
The following automatic conversions were performed:

data item '_geom_angle_publ_flag' value 'N' was changed to 'n' in
accordance with the built-in table derived from the CIF Core
dictionary named 'cif_core.dic' version 2.4.5 last updated on
2014-11-21 (2 times).

data item '_geom_bond_publ_flag' value 'N' was changed to 'n' in
accordance with the built-in table derived from the CIF Core
dictionary named 'cif_core.dic' version 2.4.5 last updated on
2014-11-21 (54 times).

Automatic conversion script
Id: cif_fix_values 8369 2020-08-20 11:38:08Z andrius 
;
_cod_database_code               1562528
_gsas_exptl_extinct_corr_t_min   1.00000
_gsas_exptl_extinct_corr_t_max   1.00000
loop_
_symmetry_equiv_pos_site_id
_symmetry_equiv_pos_as_xyz
1 +x,+y,+z
2 -x,+y+1/2,-z+1/2
-1 -x,-y,-z
-2 +x,-y+1/2,+z+1/2
loop_
_atom_site_type_symbol
_atom_site_label
_atom_site_fract_x
_atom_site_fract_y
_atom_site_fract_z
_atom_site_occupancy
_atom_site_thermal_displace_type
_atom_site_U_iso_or_equiv
_atom_site_symmetry_multiplicity
Ca Ca1 0.02485(28) 0.90094(26) 0.41485(11) 0.45 Uiso 0.0216(9) 4
Y Y1 0.02485(28) 0.90094(26) 0.41485(11) 0.55 Uiso 0.0216(9) 4
Ca Ca2 0.58209(29) 0.23430(27) 0.41481(10) 0.462 Uiso 0.0198(9) 4
Y Y2 0.58209(29) 0.23430(27) 0.41481(10) 0.538 Uiso 0.0198(9) 4
Ca Ca3 0.12922(22) 0.12904(21) 0.25331(9) 0.088 Uiso 0.0179(9) 4
Y Y3 0.12922(22) 0.12904(21) 0.25331(9) 0.912 Uiso 0.0179(9) 4
Ge Ge1 0.09713(28) 0.37185(27) 0.42426(10) 1.0 Uiso 0.0239(9) 4
Ge Ge2 0.45201(27) 0.22787(26) 0.07198(10) 1.0 Uiso 0.0218(10) 4
Ge Ge3 0.65606(27) 0.11699(26) 0.24107(10) 1.0 Uiso 0.0195(9) 4
O O1 0.0156(13) 0.0746(11) 0.1289(5) 1.0 Uiso 0.0174(10) 4
O O2 0.0676(13) 0.7187(11) 0.0460(4) 1.0 Uiso 0.0174(10) 4
O O3 0.1470(12) 0.4504(10) 0.2171(4) 1.0 Uiso 0.0174(10) 4
O O4 0.1835(12) 0.8129(11) 0.2676(4) 1.0 Uiso 0.0174(10) 4
O O5 0.2171(14) 0.2016(12) 0.3795(5) 1.0 Uiso 0.0204(10) 4
O O6 0.3084(12) 0.0527(11) 0.0059(5) 1.0 Uiso 0.0204(10) 4
O O7 0.3080(11) 0.4188(11) 0.0876(4) 1.0 Uiso 0.0204(10) 4
O O8 0.4730(13) 0.1679(11) 0.2843(5) 1.0 Uiso 0.0212(10) 4
O O9 0.5255(13) 0.0476(11) 0.1458(5) 1.0 Uiso 0.0212(10) 4
O O10 0.6363(12) 0.3200(12) 0.0387(5) 1.0 Uiso 0.0212(10) 4
loop_
_atom_type_symbol
_atom_type_number_in_cell
_atom_type_scat_dispersion_real
_atom_type_scat_dispersion_imag
_atom_type_scat_Cromer_Mann_a1
_atom_type_scat_Cromer_Mann_a2
_atom_type_scat_Cromer_Mann_a3
_atom_type_scat_Cromer_Mann_a4
_atom_type_scat_Cromer_Mann_b1
_atom_type_scat_Cromer_Mann_b2
_atom_type_scat_Cromer_Mann_b3
_atom_type_scat_Cromer_Mann_b4
_atom_type_scat_Cromer_Mann_c
_atom_type_scat_source
Ca 4.0 0.000 0.000 8.62660 10.4421 7.38730 0.65990 1.58990 85.7484 1.02110
178.437 1.37510 International_Tables_Vol_C
Y 8.0 0.000 0.000 17.7760 1.40290 10.2946 12.8006 5.72629 0.12560 3.26588
104.354 1.91213 International_Tables_Vol_C
Ge 12.0 0.000 0.000 16.0816 2.85090 6.37470 0.25160 3.70680 11.4468 3.68300
54.7625 2.13130 International_Tables_Vol_C
O 40.0 0.000 0.000 3.04850 13.2771 2.28680 5.70110 1.54630 0.32390 0.86700
32.9089 0.25080 International_Tables_Vol_C
loop_
_geom_angle_atom_site_label_1
_geom_angle_atom_site_label_2
_geom_angle_atom_site_label_3
_geom_angle
_geom_angle_site_symmetry_1
_geom_angle_site_symmetry_2
_geom_angle_site_symmetry_3
_geom_angle_publ_flag
Ge1 O6 Ge2 120.7(4) -2_554 . 1_555 n
Ge2 O9 Ge3 120.8(5) 1_555 . 1_555 n
loop_
_geom_bond_atom_site_label_1
_geom_bond_atom_site_label_2
_geom_bond_distance
_geom_bond_site_symmetry_1
_geom_bond_site_symmetry_2
_geom_bond_publ_flag
Ca1 O1 2.364(8) . 2_555 n
Ca1 O2 2.446(8) . 2_555 n
Ca1 O2 2.517(8) . -2_565 n
Ca1 O3 2.395(8) . 2_555 n
Ca1 O5 2.647(8) . 1_565 n
Ca1 O7 2.288(7) . 2_555 n
Ca1 O10 2.284(8) . 2_655 n
Y1 O1 2.364(8) . 2_555 n
Y1 O2 2.446(8) . 2_555 n
Y1 O2 2.517(8) . -2_565 n
Y1 O3 2.395(8) . 2_555 n
Y1 O5 2.647(8) . 1_565 n
Y1 O7 2.288(7) . 2_555 n
Y1 O10 2.284(8) . 2_655 n
Ca2 O2 2.291(8) . 2_645 n
Ca2 O5 2.400(9) . 1_555 n
Ca2 O6 2.607(8) . 2_655 n
Ca2 O7 2.294(8) . 2_645 n
Ca2 O8 2.360(8) . 1_555 n
Ca2 O9 2.427(8) . 2_655 n
Ca2 O10 2.261(8) . -2_555 n
Y2 O2 2.291(8) . 2_645 n
Y2 O5 2.400(9) . 1_555 n
Y2 O6 2.607(8) . 2_655 n
Y2 O7 2.294(8) . 2_645 n
Y2 O8 2.360(8) . 1_555 n
Y2 O9 2.427(8) . 2_655 n
Y2 O10 2.261(8) . -2_555 n
Ca3 O1 2.238(9) . 1_555 n
Ca3 O3 2.317(7) . 1_555 n
Ca3 O3 2.476(7) . 2_545 n
Ca3 O4 2.197(7) . 1_545 n
Ca3 O4 2.419(8) . 2_545 n
Ca3 O5 2.299(9) . 1_555 n
Ca3 O8 2.269(8) . 1_555 n
Y3 O1 2.238(9) . 1_555 n
Y3 O3 2.317(7) . 1_555 n
Y3 O3 2.476(7) . 2_545 n
Y3 O4 2.197(7) . 1_545 n
Y3 O4 2.419(8) . 2_545 n
Y3 O5 2.299(9) . 1_555 n
Y3 O8 2.269(8) . 1_555 n
Ge1 O1 1.738(8) . 2_555 n
Ge1 O2 1.766(8) . 2_545 n
Ge1 O5 1.789(8) . 1_555 n
Ge1 O6 1.813(9) . -2_555 n
Ge2 O6 1.777(8) . 1_555 n
Ge2 O7 1.724(7) . 1_555 n
Ge2 O9 1.800(8) . 1_555 n
Ge2 O10 1.710(8) . 1_555 n
Ge3 O3 1.752(7) . 2_645 n
Ge3 O4 1.781(7) . 2_645 n
Ge3 O8 1.745(8) . 1_555 n
Ge3 O9 1.785(9) . 1_555 n
loop_
_pd_meas_counts_total
_pd_proc_ls_weight
_pd_proc_intensity_bkg_calc
_pd_calc_intensity_total
3407.0 0.0002935 3353.41455 3353.41382
3503.0 0.0002855 3377.32764 3377.32715
3431.0 0.0002915 3398.61084 3398.61035
3415.0 0.0002928 3417.44531 3417.44507
3458.0 0.0002892 3434.00391 3434.00366
3552.0 0.0002815 3448.44873 3448.44849
3419.0 0.0002925 3460.93408 3460.93408
3498.0 0.0002859 3471.60571 3471.60571
3419.0 0.0002925 3480.60132 3480.60132
3483.0 0.0002871 3488.05078 3488.05103
3465.0 0.0002886 3494.07642 3494.07666
3442.0 0.0002905 3498.79443 3498.79468
3492.0 0.0002864 3502.31323 3502.31348
3487.0 0.0002868 3504.73511 3504.73535
3474.0 0.0002879 3506.15674 3506.15723
3498.0 0.0002859 3506.66797 3506.66821
3415.0 0.0002928 3506.35425 3506.35474
3457.0 0.0002893 3505.29468 3505.29517
3451.0 0.0002898 3503.56421 3503.56470
3472.0 0.0002880 3501.23242 3501.23291
3418.0 0.0002926 3498.36401 3498.36450
3356.0 0.0002980 3495.02002 3495.02051
3361.0 0.0002975 3491.25684 3491.25732
3463.0 0.0002888 3487.12769 3487.12793
3411.0 0.0002932 3482.68018 3482.68066
3530.0 0.0002833 3477.96069 3477.96094
3535.0 0.0002829 3473.01099 3473.01123
3566.0 0.0002804 3467.86914 3467.86938
3463.0 0.0002888 3462.57153 3462.57202
3424.0 0.0002921 3457.15088 3457.15112
3376.0 0.0002962 3451.63721 3451.63745
3382.0 0.0002957 3446.05786 3446.05811
3468.0 0.0002884 3440.43799 3440.43823
3472.0 0.0002880 3434.80103 3434.80127
3374.0 0.0002964 3429.16699 3429.16724
3525.0 0.0002837 3423.55493 3423.55518
3343.0 0.0002991 3417.98120 3417.98145
3443.0 0.0002904 3412.46094 3412.46118
3396.0 0.0002945 3407.00757 3407.00781
3498.0 0.0002859 3401.63232 3401.63257
3410.0 0.0002933 3396.34619 3396.34644
3417.0 0.0002927 3391.15723 3391.15723
3397.0 0.0002944 3386.07300 3386.07324
3447.0 0.0002901 3381.10059 3381.10059
3410.0 0.0002933 3376.24414 3376.24414
3392.0 0.0002948 3371.50854 3371.50854
3455.0 0.0002894 3366.89624 3366.89648
3471.0 0.0002881 3362.41040 3362.41064
3421.0 0.0002923 3358.05200 3358.05200
3479.0 0.0002874 3353.82129 3353.82153
3386.0 0.0002953 3349.71924 3349.71924
3405.0 0.0002937 3345.74438 3345.74463
3442.0 0.0002905 3341.89600 3341.89600
3347.0 0.0002988 3338.17163 3338.17163
3431.0 0.0002915 3334.56958 3334.56958
3361.0 0.0002975 3331.08716 3331.08716
3316.0 0.0003016 3327.72070 3327.72070
3280.0 0.0003049 3324.46753 3324.46753
3387.0 0.0002952 3321.32300 3321.32300
3349.0 0.0002986 3318.28394 3318.28394
3328.0 0.0003005 3315.34546 3315.34546
3248.0 0.0003079 3312.50317 3312.50317
3274.0 0.0003054 3309.75293 3309.75293
3277.0 0.0003052 3307.08911 3307.08911
3280.0 0.0003049 3304.50757 3304.50757
3313.0 0.0003018 3302.00269 3302.00269
3388.0 0.0002952 3299.56958 3299.56958
3344.0 0.0002990 3297.20386 3297.20386
3413.0 0.0002930 3294.89917 3294.89917
3236.0 0.0003090 3292.65137 3292.65137
3280.0 0.0003049 3290.45459 3290.45459
3273.0 0.0003055 3288.30444 3288.30444
3290.0 0.0003040 3286.19531 3286.19531
3196.0 0.0003129 3284.12231 3284.12231
3260.0 0.0003067 3282.08105 3282.08105
3346.0 0.0002989 3280.06592 3280.06616
3177.0 0.0003148 3278.07324 3278.07324
3243.0 0.0003084 3276.09741 3276.09741
3288.0 0.0003041 3274.13403 3274.13428
3355.0 0.0002981 3272.17969 3272.17969
3301.0 0.0003029 3270.22925 3270.22925
3224.0 0.0003102 3268.27881 3268.27905
3208.0 0.0003117 3266.32471 3266.32471
3291.0 0.0003039 3264.36304 3264.36304
3198.0 0.0003127 3262.38965 3262.38965
3291.0 0.0003039 3260.40161 3260.40161
3244.0 0.0003083 3258.39575 3258.39575
3221.0 0.0003105 3256.36816 3256.36841
3267.0 0.0003061 3254.31689 3254.31714
3144.0 0.0003181 3252.23828 3252.23828
3164.0 0.0003161 3250.12988 3250.12988
3178.0 0.0003147 3247.98926 3247.98950
3173.0 0.0003152 3245.81421 3245.81421
3198.0 0.0003127 3243.60229 3243.60254
3258.0 0.0003069 3241.35181 3241.35181
3170.0 0.0003155 3239.06079 3239.06104
3278.0 0.0003051 3236.72729 3236.72754
3233.0 0.0003093 3234.35010 3234.35034
3208.0 0.0003117 3231.92822 3231.92822
3347.0 0.0002988 3229.45947 3229.45972
3266.0 0.0003062 3226.94409 3226.94409
3241.0 0.0003085 3224.37988 3224.38013
3208.0 0.0003117 3221.76685 3221.76709
3195.0 0.0003130 3219.10449 3219.10474
3245.0 0.0003082 3216.39185 3216.39209
3175.0 0.0003150 3213.62915 3213.62939
3170.0 0.0003155 3210.81567 3210.81567
3222.0 0.0003104 3207.95166 3207.95190
3216.0 0.0003109 3205.03687 3205.03711
3121.0 0.0003204 3202.07178 3202.07202
3237.0 0.0003089 3199.05688 3199.05713
3247.0 0.0003080 3195.99219 3195.99219
3186.0 0.0003139 3192.87817 3192.87842
3182.0 0.0003143 3189.71582 3189.71606
3204.0 0.0003121 3186.50537 3186.50562
3254.0 0.0003073 3183.24829 3183.24854
3174.0 0.0003151 3179.94507 3179.94507
3172.0 0.0003153 3176.59692 3176.59692
3124.0 0.0003201 3173.20435 3173.20459
3173.0 0.0003152 3169.76904 3169.76929
3177.0 0.0003148 3166.29248 3166.29272
3212.0 0.0003113 3162.77515 3162.77539
3124.0 0.0003201 3159.21924 3159.21924
3125.0 0.0003200 3155.62549 3155.62573
3063.0 0.0003265 3151.99585 3151.99609
3071.0 0.0003256 3148.33154 3148.33179
3041.0 0.0003288 3144.63452 3144.63452
3167.0 0.0003158 3140.90601 3140.90625
3097.0 0.0003229 3137.14795 3137.14819
3131.0 0.0003194 3133.36206 3133.36230
3073.0 0.0003254 3129.54980 3129.54980
3117.0 0.0003208 3125.71313 3125.71338
3057.0 0.0003271 3121.85376 3121.85400
3000.0 0.0003333 3117.97363 3117.97363
3083.0 0.0003244 3114.07446 3114.07471
2988.0 0.0003347 3110.15820 3110.15820
3030.0 0.0003300 3106.22656 3106.22656
3125.0 0.0003200 3102.28125 3102.28149
3129.0 0.0003196 3098.32446 3098.32471
3086.0 0.0003240 3094.35815 3094.35840
3109.0 0.0003216 3090.38403 3090.38403
3072.0 0.0003255 3086.40405 3086.40405
3085.0 0.0003241 3082.41943 3082.41968
3103.0 0.0003223 3078.43286 3078.43311
3149.0 0.0003176 3074.44604 3074.44604
3102.0 0.0003224 3070.46021 3070.46045
3137.0 0.0003188 3066.47803 3066.47803
3024.0 0.0003307 3062.50049 3062.50049
3175.0 0.0003150 3058.53003 3058.53003
3033.0 0.0003297 3054.56787 3054.56787
3109.0 0.0003216 3050.61572 3050.61572
2996.0 0.0003338 3046.67578 3046.67578
3008.0 0.0003324 3042.74927 3042.74927
3149.0 0.0003176 3038.83789 3038.83789
3033.0 0.0003297 3034.94336 3034.94336
2935.0 0.0003407 3031.06714 3031.06714
3040.0 0.0003289 3027.21094 3027.21094
3059.0 0.0003269 3023.37573 3023.37573
3148.0 0.0003177 3019.56372 3019.56372
3067.0 0.0003261 3015.77563 3015.77563
2958.0 0.0003381 3012.01343 3012.01343
2962.0 0.0003376 3008.27783 3008.27783
2998.0 0.0003336 3004.57031 3004.57031
3000.0 0.0003333 3000.89258 3000.89258
2995.0 0.0003339 2997.24536 2997.24536
3053.0 0.0003275 2993.62988 2993.62988
3041.0 0.0003288 2990.04736 2990.04712
2960.0 0.0003378 2986.49854 2986.49854
3017.0 0.0003315 2982.98486 2982.98486
3003.0 0.0003330 2979.50708 2979.50684
2937.0 0.0003405 2976.06616 2976.06616
3032.0 0.0003298 2972.66260 2972.66260
2933.0 0.0003409 2969.29810 2969.29810
3008.0 0.0003324 2965.97241 2965.97241
2904.0 0.0003444 2962.68701 2962.68677
2969.0 0.0003368 2959.44189 2959.44189
3031.0 0.0003299 2956.23828 2956.23804
2972.0 0.0003365 2953.07666 2953.07666
2958.0 0.0003381 2949.95728 2949.95703
2936.0 0.0003406 2946.88086 2946.88086
2973.0 0.0003364 2943.84741 2943.84741
2987.0 0.0003348 2940.85791 2940.85791
2964.0 0.0003374 2937.91260 2937.91260
2983.0 0.0003352 2935.01147 2935.01123
2865.0 0.0003490 2932.15454 2932.15454
2944.0 0.0003397 2929.34277 2929.34277
2971.0 0.0003366 2926.57568 2926.57544
2902.0 0.0003446 2923.85376 2923.85376
2889.0 0.0003461 2921.17676 2921.17651
2884.0 0.0003467 2918.54492 2918.54468
3018.0 0.0003313 2915.95776 2915.95776
2980.0 0.0003356 2913.41602 2913.41577
2851.0 0.000351 2910.91870 2910.91846
2904.0 0.0003444 2908.46606 2908.46606
2991.0 0.0003343 2906.05835 2906.05811
2916.0 0.0003429 2903.69458 2903.69434
2892.0 0.0003458 2901.37500 2901.37476
2932.0 0.0003411 2899.09888 2899.09863
2977.0 0.0003359 2896.86597 2896.86572
3049.0 0.0003280 2894.67627 2894.67603
2881.0 0.0003471 2892.52881 2892.52856
2817.0 0.000355 2890.42358 2890.42358
2920.0 0.0003425 2888.35986 2888.35962
2993.0 0.0003341 2886.33716 2886.33691
2891.0 0.0003459 2884.35498 2884.35474
2787.0 0.000359 2882.41260 2882.41235
2854.0 0.0003504 2880.50977 2880.50952
2879.0 0.0003473 2878.64526 2878.64502
2929.0 0.0003414 2876.81909 2876.81885
2915.0 0.0003431 2875.02979 2875.02954
2908.0 0.0003439 2873.27710 2873.27686
2989.0 0.0003346 2871.56055 2871.56030
2867.0 0.0003488 2869.87866 2869.87842
2896.0 0.0003453 2868.23120 2868.24194
2912.0 0.0003434 2866.61719 2866.62842
2876.0 0.0003477 2865.03564 2865.04761
2918.0 0.0003427 2863.48584 2863.49854
2890.0 0.0003460 2861.96704 2861.98071
2860.0 0.0003497 2860.47803 2860.49268
3002.0 0.0003331 2859.01807 2859.03369
2887.0 0.0003464 2857.58643 2857.60327
2891.0 0.0003459 2856.18188 2856.19995
2846.0 0.000351 2854.80322 2854.82275
2860.0 0.0003497 2853.45044 2853.47144
2933.0 0.0003409 2852.12158 2852.14429
2820.0 0.000355 2850.81616 2850.84106
2792.0 0.000358 2849.53296 2849.56006
2930.0 0.0003413 2848.27100 2848.30078
2865.0 0.0003490 2847.02954 2847.06226
2872.0 0.0003482 2845.80713 2845.84326
2827.0 0.000354 2844.60327 2844.64355
2858.0 0.0003499 2843.41650 2843.46143
2786.0 0.000359 2842.24585 2842.29663
2857.0 0.0003500 2841.09033 2841.14795
2792.0 0.000358 2839.94897 2840.01465
2829.0 0.000353 2838.82104 2838.89697
2858.0 0.0003499 2837.70459 2837.79321
2799.0 0.000357 2836.59961 2836.70483
2819.0 0.000355 2835.50439 2835.63403
2901.0 0.0003447 2834.41821 2834.59033
2898.0 0.0003451 2833.33960 2833.60254
2824.0 0.000354 2832.26807 2832.74146
2899.0 0.0003449 2831.20239 2832.14941
2805.0 0.000357 2830.14160 2832.05029
2773.0 0.000361 2829.08447 2832.69385
2747.0 0.000364 2828.03027 2834.18848
2809.0 0.000356 2826.97754 2836.25024
2784.0 0.000359 2825.92603 2838.08496
2757.0 0.000363 2824.87427 2838.60938
2802.0 0.000357 2823.82153 2836.99512
2829.0 0.000353 2822.76611 2833.42969
2838.0 0.000352 2821.70801 2829.04443
2812.0 0.000356 2820.64600 2824.98096
2745.0 0.000364 2819.57886 2821.81958
2842.0 0.000352 2818.50586 2819.56396
2755.0 0.000363 2817.42603 2817.92676
2792.0 0.000358 2816.33887 2816.60864
2753.0 0.000363 2815.24292 2815.42017
2799.0 0.000357 2814.13745 2814.27222
2690.0 0.000372 2813.02197 2813.13232
2771.0 0.000361 2811.89526 2811.98804
2672.0 0.000374 2810.75684 2810.83618
2770.0 0.000361 2809.60547 2809.67407
2809.0 0.000356 2808.44067 2808.50049
2880.0 0.0003472 2807.26196 2807.31445
2819.0 0.000355 2806.06763 2806.11450
2766.0 0.000362 2804.85815 2804.89966
2780.0 0.000360 2803.63184 2803.66919
2789.0 0.000359 2802.38843 2802.42236
2834.0 0.000353 2801.12720 2801.15771
2845.0 0.000351 2799.84717 2799.87524
2682.0 0.000373 2798.54834 2798.57373
2750.0 0.000364 2797.22949 2797.25293
2773.0 0.000361 2795.89038 2795.91187
2835.0 0.000353 2794.53027 2794.55005
2754.0 0.000363 2793.14844 2793.16675
2799.0 0.000357 2791.74463 2791.76196
2791.0 0.000358 2790.31812 2790.33423
2753.0 0.000363 2788.86865 2788.88379
2740.0 0.000365 2787.39526 2787.40942
2745.0 0.000364 2785.89795 2785.91089
2677.0 0.000374 2784.37622 2784.38843
2749.0 0.000364 2782.82910 2782.84082
2822.0 0.000354 2781.25708 2781.26782
2769.0 0.000361 2779.65894 2779.65869
2826.0 0.000354 2778.03491 2778.03491
2723.0 0.000367 2776.38403 2776.38403
2820.0 0.000355 2774.70654 2774.70630
2806.0 0.000356 2773.00195 2773.00195
2725.0 0.000367 2771.26978 2771.26978
2684.0 0.000373 2769.51025 2769.51025
2726.0 0.000367 2767.72241 2767.72241
2693.0 0.000371 2765.90649 2765.90649
2776.0 0.000360 2764.06250 2764.06250
2664.0 0.000375 2762.18970 2762.18970
2614.0 0.000383 2760.28833 2760.28833
2813.0 0.000355 2758.35791 2758.35767
2780.0 0.000360 2756.39868 2756.39868
2724.0 0.000367 2754.41016 2754.41016
2644.0 0.000378 2752.39258 2752.39258
2693.0 0.000371 2750.34570 2750.34570
2731.0 0.000366 2748.26929 2748.26929
2766.0 0.000362 2746.16382 2746.16382
2656.0 0.000377 2744.02881 2744.02881
2817.0 0.000355 2741.86475 2741.86475
2765.0 0.000362 2739.67090 2739.67090
2739.0 0.000365 2737.44800 2737.44800
2638.0 0.000379 2735.19580 2735.19580
2741.0 0.000365 2732.91431 2732.91431
2754.0 0.000363 2730.60376 2730.60376
2740.0 0.000365 2728.26440 2728.26440
2744.0 0.000364 2725.89600 2725.89600
2736.0 0.000365 2723.49902 2723.49902
2761.0 0.000362 2721.07349 2721.07349
2679.0 0.000373 2718.61963 2718.61963
2698.0 0.000371 2716.13721 2716.13721
2679.0 0.000373 2713.62720 2713.62720
2790.0 0.000358 2711.08911 2711.08911
2721.0 0.000368 2708.52344 2708.52344
2709.0 0.000369 2705.93066 2705.93066
2704.0 0.000370 2703.31079 2703.31079
2692.0 0.000371 2700.66431 2700.66431
2734.0 0.000366 2697.99097 2697.99097
2737.0 0.000365 2695.29150 2695.29150
2753.0 0.000363 2692.56641 2692.56641
2723.0 0.000367 2689.81543 2689.81543
2660.0 0.000376 2687.03955 2687.03955
2673.0 0.000374 2684.23853 2684.23853
2752.0 0.000363 2681.41309 2681.41309
2664.0 0.000375 2678.56348 2678.56348
2685.0 0.000372 2675.68994 2675.68994
2658.0 0.000376 2672.79346 2672.79346
2647.0 0.000378 2669.87354 2669.87378
2651.0 0.000377 2666.93140 2666.93140
2658.0 0.000376 2663.96680 2663.96680
2702.0 0.000370 2660.98071 2660.98071
2624.0 0.000381 2657.97314 2657.97314
2648.0 0.000378 2654.94482 2654.94482
2631.0 0.000380 2651.89624 2651.89624
2680.0 0.000373 2648.82739 2648.82764
2664.0 0.000375 2645.73926 2645.73926
2654.0 0.000377 2642.63232 2642.63232
2745.0 0.000364 2639.50635 2639.50635
2721.0 0.000368 2636.36279 2636.36304
2573.0 0.000389 2633.20142 2633.20142
2621.0 0.000382 2630.02319 2630.02344
2719.0 0.000368 2626.82837 2626.82837
2611.0 0.000383 2623.61768 2623.61768
2701.0 0.000370 2620.39087 2620.39111
2712.0 0.000369 2617.14941 2617.14966
2579.0 0.000388 2613.89355 2613.89355
2641.0 0.000379 2610.62354 2610.62354
2682.0 0.000373 2607.33984 2607.34009
2667.0 0.000375 2604.04370 2604.04370
2533.0 0.000395 2600.73486 2600.73486
2609.0 0.000383 2597.41431 2597.41455
2661.0 0.000376 2594.08228 2594.08228
2614.0 0.000383 2590.73926 2590.73926
2577.0 0.000388 2587.38647 2587.38647
2622.0 0.000381 2584.02344 2584.02344
2654.0 0.000377 2580.65161 2580.65161
2608.0 0.000383 2577.27075 2577.27075
2576.0 0.000388 2573.88208 2573.88208
2607.0 0.000384 2570.48560 2570.48560
2571.0 0.000389 2567.08203 2567.08228
2490.0 0.000402 2563.67188 2563.67212
2540.0 0.000394 2560.25586 2560.25586
2638.0 0.000379 2556.83447 2556.83447
2507.0 0.000399 2553.40796 2553.40796
2518.0 0.000397 2549.97705 2549.97705
2568.0 0.000389 2546.54224 2546.54248
2569.0 0.000389 2543.10400 2543.10400
2612.0 0.000383 2539.66309 2539.66333
2584.0 0.000387 2536.21973 2536.21973
2528.0 0.000396 2532.77466 2532.77466
2470.0 0.000405 2529.32813 2529.32813
2458.0 0.000407 2525.88062 2525.88062
2552.0 0.000392 2522.43311 2522.43335
2614.0 0.000383 2518.98560 2518.98584
2508.0 0.000399 2515.53906 2515.53906
2570.0 0.000389 2512.09326 2512.09351
2432.0 0.000411 2508.64941 2508.64966
2448.0 0.000408 2505.20752 2505.20776
2535.0 0.000394 2501.76831 2501.76831
2537.0 0.000394 2498.33203 2498.33228
2526.0 0.000396 2494.89941 2494.89941
2578.0 0.000388 2491.47070 2491.47095
2577.0 0.000388 2488.04639 2488.04663
2458.0 0.000407 2484.62671 2484.62695
2587.0 0.000387 2481.21289 2481.21289
2552.0 0.000392 2477.80420 2477.80444
2433.0 0.000411 2474.40210 2474.40210
2406.0 0.000416 2471.00610 2471.32837
2523.0 0.000396 2467.61743 2467.95874
2460.0 0.000407 2464.23608 2464.59766
2504.0 0.000399 2460.86230 2461.24658
2385.0 0.000419 2457.49683 2457.90601
2510.0 0.000398 2454.13965 2454.57593
2401.0 0.000416 2450.79175 2451.25757
2410.0 0.000415 2447.45264 2447.95190
2435.0 0.000411 2444.12329 2444.65918
2530.0 0.000395 2440.80420 2441.38086
2358.0 0.000424 2437.49487 2438.11768
2502.0 0.000400 2434.19678 2434.87085
2397.0 0.000417 2430.90918 2431.64160
2489.0 0.000402 2427.63281 2428.43115
2454.0 0.000407 2424.36816 2425.24170
2432.0 0.000411 2421.11523 2422.07520
2459.0 0.000407 2417.87476 2419.03687
2424.0 0.000413 2414.64648 2415.93066
2389.0 0.000419 2411.43115 2412.85767
2437.0 0.000410 2408.22827 2409.82324
2404.0 0.000416 2405.03882 2406.83374
2386.0 0.000419 2401.86304 2405.93164
2369.0 0.000422 2398.70068 2403.18140
2424.0 0.000413 2395.55249 2400.52490
2361.0 0.000424 2392.41821 2397.99194
2460.0 0.000407 2389.29834 2395.64038
2334.0 0.000428 2386.19312 2393.63208
2427.0 0.000412 2383.10229 2392.44629
2401.0 0.000416 2380.02686 2393.42554
2379.0 0.000420 2376.96606 2399.72876
2515.0 0.000398 2373.92090 2417.27490
2422.0 0.000413 2370.89087 2454.15747
2470.0 0.000405 2367.87671 2516.46094
2589.0 0.000386 2364.87793 2600.41211
2760.0 0.000362 2361.89502 2685.88159
2867.0 0.0003488 2358.92822 2740.11792
2990.0 0.0003344 2355.97705 2734.97095
2883.0 0.0003469 2353.04248 2670.39600
2669.0 0.000375 2350.12402 2576.83350
2520.0 0.000397 2347.22168 2488.48438
2484.0 0.000403 2344.33594 2424.40576
2395.0 0.000418 2341.46655 2386.69922
2275.0 0.000440 2338.61377 2368.06641
2367.0 0.000422 2335.77759 2360.21777
2336.0 0.000428 2332.95801 2358.07764
2416.0 0.000414 2330.15527 2360.24316
2455.0 0.000407 2327.36890 2368.07495
2418.0 0.000414 2324.59961 2384.64526
2417.0 0.000414 2321.84644 2413.79517
2584.0 0.000387 2319.11035 2460.52466
2692.0 0.000371 2316.39087 2535.37646
2811.0 0.000356 2313.68799 2663.20166
2984.0 0.0003351 2311.00195 2887.55908
3217.0 0.0003108 2308.33252 3253.54297
3545.0 0.0002821 2305.67944 3756.87134
3820.0 0.0002618 2303.04321 4290.68457
4307.0 0.0002322 2300.42310 4656.13330
4439.0 0.0002253 2297.81982 4665.32666
4350.0 0.0002299 2295.23242 4294.88086
3812.0 0.0002623 2292.66162 3722.74219
3349.0 0.0002986 2290.10693 3167.08618
2784.0 0.000359 2287.56812 2757.03125
2458.0 0.000407 2285.04565 2513.23926
2328.0 0.000430 2282.53882 2391.98169
2275.0 0.000440 2280.04810 2338.63721
2329.0 0.000429 2277.57275 2315.42920
2284.0 0.000438 2275.11328 2303.58838
2305.0 0.000434 2272.66870 2295.80371
2283.0 0.000438 2270.23975 2289.67188
2285.0 0.000438 2267.82593 2284.43042
2209.0 0.000453 2265.42700 2279.78589
2224.0 0.000450 2263.04297 2275.26416
2220.0 0.000450 2260.67334 2271.41797
2229.0 0.000449 2258.31836 2267.83667
2166.0 0.000462 2255.97803 2264.46777
2285.0 0.000438 2253.65137 2261.26978
2250.0 0.000444 2251.33911 2258.21313
2261.0 0.000442 2249.04028 2255.27393
2188.0 0.000457 2246.75537 2252.43335
2179.0 0.000459 2244.48364 2249.67676
2195.0 0.000456 2242.22534 2246.99316
2244.0 0.000446 2239.97974 2244.37256
2193.0 0.000456 2237.74707 2241.80688
2241.0 0.000446 2235.52686 2239.29077
2249.0 0.000445 2233.31909 2236.81738
2244.0 0.000446 2231.12329 2234.38354
2271.0 0.000440 2228.93970 2231.98511
2172.0 0.000460 2226.76758 2229.52075
2245.0 0.000445 2224.60693 2227.18921
2177.0 0.000459 2222.45728 2224.88403
2164.0 0.000462 2220.31885 2222.60376
2236.0 0.000447 2218.19116 2220.34619
2181.0 0.000459 2216.07349 2216.07397
2084.0 0.000480 2213.96655 2213.96704
2248.0 0.000445 2211.86938 2211.86963
2188.0 0.000457 2209.78198 2209.78223
2186.0 0.000457 2207.70386 2207.70410
2157.0 0.000464 2205.63525 2205.63550
2086.0 0.000479 2203.57520 2203.57544
2190.0 0.000457 2201.52393 2201.52417
2165.0 0.000462 2199.48120 2199.48145
2170.0 0.000461 2197.44653 2197.44678
2137.0 0.000468 2195.41968 2195.41992
2151.0 0.000465 2193.40039 2193.40063
2099.0 0.000476 2191.38818 2191.38867
2165.0 0.000462 2189.38354 2189.38379
2101.0 0.000476 2187.38525 2187.38550
2063.0 0.000485 2185.39380 2185.39404
2178.0 0.000459 2183.40820 2183.40845
2092.0 0.000478 2181.42871 2181.42896
2139.0 0.000468 2179.45508 2179.45532
2077.0 0.000481 2177.48657 2177.48682
2116.0 0.000473 2175.52319 2175.52344
2057.0 0.000486 2173.56470 2173.56470
2081.0 0.000481 2171.61084 2171.61108
2137.0 0.000468 2169.66089 2169.66113
2171.0 0.000461 2167.71509 2167.71533
2042.0 0.000490 2165.77319 2165.77344
2205.0 0.000454 2163.83447 2163.83472
2197.0 0.000455 2161.89917 2161.89941
2066.0 0.000484 2159.96655 2159.96655
2104.0 0.000475 2158.03638 2158.03662
2109.0 0.000474 2156.10889 2156.10889
2089.0 0.000479 2154.18311 2154.18335
2044.0 0.000489 2152.25928 2152.25952
2144.0 0.000466 2150.33691 2150.33716
2029.0 0.000493 2148.41577 2148.41602
2068.0 0.000484 2146.49561 2146.49561
2168.0 0.000461 2144.57593 2144.57617
2147.0 0.000466 2142.65698 2142.65723
2182.0 0.000458 2140.73804 2140.73804
2129.0 0.000470 2138.81909 2138.81909
2168.0 0.000461 2136.89941 2136.89966
2175.0 0.000460 2134.97949 2134.97949
2148.0 0.000466 2133.05859 2133.05859
2111.0 0.000474 2131.13623 2131.13647
2043.0 0.000489 2129.21289 2129.21313
2193.0 0.000456 2127.28784 2127.28784
2062.0 0.000485 2125.36060 2125.36084
2123.0 0.000471 2123.43164 2123.43164
2155.0 0.000464 2121.50000 2121.59961
2194.0 0.000456 2119.56592 2119.67139
2104.0 0.000475 2117.62866 2117.74072
2117.0 0.000472 2115.68872 2115.80737
2096.0 0.000477 2113.74512 2113.87134
2092.0 0.000478 2111.79834 2111.93286
2111.0 0.000474 2109.84741 2109.99121
2073.0 0.000482 2107.89233 2108.04639
2116.0 0.000473 2105.93335 2106.09863
2135.0 0.000468 2103.96997 2104.14746
2088.0 0.000479 2102.00171 2102.19312
2135.0 0.000468 2100.02881 2100.23608
2094.0 0.000478 2098.05054 2098.27539
2057.0 0.000486 2096.06738 2096.31226
2145.0 0.000466 2094.07837 2094.34595
2129.0 0.000470 2092.08398 2092.37769
2167.0 0.000461 2090.08350 2090.40747
2047.0 0.000489 2088.07715 2088.43604
2081.0 0.000481 2086.06445 2086.46411
2229.0 0.000449 2084.04517 2084.49316
2184.0 0.000458 2082.01953 2082.52466
2170.0 0.000461 2079.98730 2080.56177
2162.0 0.000463 2077.94800 2078.60669
2167.0 0.000461 2075.90137 2076.66406
2145.0 0.000466 2073.84766 2074.74097
2166.0 0.000462 2071.78662 2072.85083
2136.0 0.000468 2069.71777 2071.02563
2220.0 0.000450 2067.64160 2069.36523
2090.0 0.000478 2065.55737 2068.15894
2224.0 0.000450 2063.46533 2068.14844
2136.0 0.000468 2061.36475 2070.85059
2224.0 0.000450 2059.25610 2078.58862
2230.0 0.000448 2057.13892 2093.56055
2123.0 0.000471 2055.01367 2115.67285
2210.0 0.000452 2052.87964 2140.23438
2240.0 0.000446 2050.73657 2157.96973
2223.0 0.000450 2048.58472 2159.36621
2193.0 0.000456 2046.42419 2142.18066
2196.0 0.000455 2044.25427 2114.15747
2263.0 0.000442 2042.07544 2085.78857
2197.0 0.000455 2039.88721 2063.71655
2072.0 0.000483 2037.68994 2049.43237
2160.0 0.000463 2035.48291 2041.13025
2144.0 0.000466 2033.26636 2036.25122
2123.0 0.000471 2031.04053 2032.93042
2089.0 0.000479 2028.80481 2030.20422
2125.0 0.000471 2026.55969 2027.68628
2120.0 0.000472 2024.30444 2025.24500
2081.0 0.000481 2022.03943 2022.83923
2143.0 0.000467 2019.76477 2020.45337
2108.0 0.000474 2017.48010 2018.07910
2132.0 0.000469 2015.18555 2015.71094
2214.0 0.000452 2012.88074 2013.34534
2165.0 0.000462 2010.56592 2010.97974
2228.0 0.000449 2008.24133 2008.61206
2108.0 0.000474 2005.90637 2006.24036
2117.0 0.000472 2003.56140 2003.86389
2142.0 0.000467 2001.20618 2001.48132
2023.0 0.000494 1998.84106 1999.09241
2015.0 0.000496 1996.46558 1996.69617
1972.0 0.000507 1994.07983 1994.29199
1936.0 0.000517 1991.68408 1991.88000
1982.0 0.000505 1989.27820 1989.45947
1964.0 0.000509 1986.86218 1987.03052
1998.0 0.000501 1984.43579 1984.59265
1999.0 0.000500 1981.99927 1982.14575
1963.0 0.000509 1979.55310 1979.68994
1910.0 0.000524 1977.09631 1977.22473
1864.0 0.000536 1974.62976 1974.75037
1967.0 0.000508 1972.15308 1972.26648
1919.0 0.000521 1969.66626 1969.77319
1960.0 0.000510 1967.16992 1967.16943
1936.0 0.000517 1964.66321 1964.66272
1907.0 0.000524 1962.14697 1962.14648
1896.0 0.000527 1959.62073 1959.62012
1945.0 0.000514 1957.08496 1957.08447
1937.0 0.000516 1954.53918 1954.53870
1903.0 0.000525 1951.98389 1951.98328
1844.0 0.000542 1949.41907 1949.41846
1901.0 0.000526 1946.84473 1946.84412
1863.0 0.000537 1944.26099 1944.26050
1890.0 0.000529 1941.66772 1941.66711
1822.0 0.000549 1939.06519 1939.06458
1905.0 0.000525 1936.45386 1936.45325
1925.0 0.000519 1933.83301 1933.83240
1895.0 0.000528 1931.20337 1931.20264
1931.0 0.000518 1928.56458 1928.56384
1936.0 0.000517 1925.91724 1925.91663
1930.0 0.000518 1923.26086 1923.26025
1895.0 0.000528 1920.59595 1920.59521
1899.0 0.000527 1917.92261 1917.92188
1913.0 0.000523 1915.24072 1915.24011
1806.0 0.000554 1912.55066 1912.55005
1897.0 0.000527 1909.85217 1909.85156
1827.0 0.000547 1907.14563 1907.14502
1915.0 0.000522 1904.43140 1907.29553
1838.0 0.000544 1901.70911 1904.74084
1939.0 0.000516 1898.97925 1902.19385
1827.0 0.000547 1896.24158 1899.65601
1856.0 0.000539 1893.49646 1897.12964
1841.0 0.000543 1890.74426 1894.61829
1807.0 0.000553 1887.98450 1892.12390
1966.0 0.000509 1885.21790 1889.65076
1894.0 0.000528 1882.44421 1887.20276
1891.0 0.000529 1879.66406 1884.78552
1781.0 0.000561 1876.87695 1882.40417
1904.0 0.000525 1874.08325 1880.06616
1892.0 0.000529 1871.28345 1877.78076
1885.0 0.000531 1868.47754 1875.55823
1836.0 0.000545 1865.66528 1873.41101
1876.0 0.000533 1862.84705 1871.35559
1953.0 0.000512 1860.02307 1869.41211
1856.0 0.000539 1857.19385 1867.60632
1878.0 0.000532 1854.35876 1865.97034
1850.0 0.000541 1851.51868 1864.54688
1801.0 0.000555 1848.67322 1863.39111
1827.0 0.000547 1845.82312 1862.57800
1793.0 0.000558 1842.96790 1862.20776
1828.0 0.000547 1840.10803 1862.42346
1810.0 0.000552 1837.24377 1863.44604
1775.0 0.000563 1834.37512 1865.69934
1864.0 0.000536 1831.50256 1870.91760
1895.0 0.000528 1828.62585 1881.15686
1937.0 0.000516 1825.74524 1906.55347
2110.0 0.000474 1822.86108 1970.57422
2171.0 0.000461 1819.97375 2119.12183
2504.0 0.000399 1817.08264 2417.68945
2796.0 0.000358 1814.18848 2919.16992
3261.0 0.0003067 1811.29138 3600.60181
3973.0 0.0002517 1808.39185 4307.39844
4557.0 0.0002194 1805.48950 4772.23242
4759.0 0.0002101 1802.58459 4757.73682
4347.0 0.0002300 1799.67737 4264.72168
3608.0 0.0002772 1796.76843 3540.67578
2861.0 0.0003495 1793.85730 2856.15796
2247.0 0.000445 1790.94434 2359.89771
1975.0 0.000506 1788.03003 2068.19580
1776.0 0.000563 1785.11450 1924.72021
1774.0 0.000564 1782.19751 1860.92920
1739.0 0.000575 1779.27942 1832.79150
1775.0 0.000563 1776.36047 1818.24304
1773.0 0.000564 1773.44128 1808.71265
1759.0 0.000569 1770.52136 1801.35950
1679.0 0.000596 1767.60095 1795.26965
1724.0 0.000580 1764.68042 1790.09814
1760.0 0.000568 1761.75989 1785.68530
1776.0 0.000563 1758.83997 1781.97974
1724.0 0.000580 1755.92029 1779.08936
1747.0 0.000572 1753.00098 1777.80298
1783.0 0.000561 1750.08228 1779.37512
1825.0 0.000548 1747.16492 1788.55310
1797.0 0.000556 1744.24829 1814.59888
1836.0 0.000545 1741.33313 1871.59070
1915.0 0.000522 1738.41907 1972.56555
1956.0 0.000511 1735.50708 2116.31299
2082.0 0.000480 1732.59656 2273.77661
2345.0 0.000426 1729.68787 2388.34814
2297.0 0.000435 1726.78125 2402.73901
2248.0 0.000445 1723.87732 2306.20020
2104.0 0.000475 1720.97559 2147.68115
1962.0 0.000510 1718.07642 1989.61633
1810.0 0.000552 1715.17993 1870.34656
1827.0 0.000547 1712.28662 1797.93372
1795.0 0.000557 1709.39612 1761.85205
1730.0 0.000578 1706.50916 1748.65698
1734.0 0.000577 1703.62524 1751.62292
1803.0 0.000555 1700.74536 1772.33984
1889.0 0.000529 1697.86890 1831.99927
2034.0 0.000492 1694.99622 1948.23328
2156.0 0.000464 1692.12781 2131.44751
2272.0 0.000440 1689.26331 2359.86719
2447.0 0.000409 1686.40369 2567.71509
2576.0 0.000388 1683.54810 2664.67944
2703.0 0.000370 1680.69702 2597.26953
2514.0 0.000398 1677.85107 2398.11328
2285.0 0.000438 1675.01001 2160.01538
2102.0 0.000476 1672.17395 1958.69263
2032.0 0.000492 1669.34302 1826.59961
2066.0 0.000484 1666.51746 1761.00427
2067.0 0.000484 1663.69763 1745.81067
2018.0 0.000496 1660.88318 1766.91711
1934.0 0.000517 1658.07458 1813.21033
1903.0 0.000525 1655.27185 1869.59448
1921.0 0.000521 1652.47534 1913.77844
1899.0 0.000527 1649.68469 1920.99487
1795.0 0.000557 1646.90039 1884.83997
1774.0 0.000564 1644.12256 1822.33386
1720.0 0.000581 1641.35132 1757.85291
1668.0 0.000600 1638.58679 1707.37036
1659.0 0.000603 1635.82874 1675.01697
1678.0 0.000596 1633.07764 1657.01941
1585.0 0.000631 1630.33386 1647.50146
1633.0 0.000612 1627.59692 1641.36084
1616.0 0.000619 1624.86743 1637.55896
1576.0 0.000635 1622.14502 1634.42810
1560.0 0.000641 1619.43005 1631.63367
1576.0 0.000635 1616.72302 1629.07495
1568.0 0.000638 1614.02332 1626.72449
1571.0 0.000637 1611.33154 1624.58228
1660.0 0.000602 1608.64746 1622.66724
1585.0 0.000631 1605.97156 1621.04468
1609.0 0.000622 1603.30347 1619.81934
1655.0 0.000604 1600.64343 1619.37695
1601.0 0.000625 1597.99182 1620.65625
1643.0 0.000609 1595.34863 1625.62476
1666.0 0.000600 1592.71375 1637.44189
1689.0 0.000592 1590.08716 1659.42908
1681.0 0.000595 1587.46924 1692.32910
1692.0 0.000591 1584.86023 1730.16943
1775.0 0.000563 1582.25952 1763.47925
1800.0 0.000556 1579.66797 1779.42712
1855.0 0.000539 1577.08496 1778.98340
1858.0 0.000538 1574.51123 1787.17334
1921.0 0.000521 1571.94617 1851.46521
2095.0 0.000477 1569.39026 2033.67688
2401.0 0.000416 1566.84363 2388.53613
2807.0 0.000356 1564.30627 2918.59595
3492.0 0.0002864 1561.77783 3524.45874
4061.0 0.0002462 1559.25879 3998.66699
4225.0 0.0002367 1556.74902 4113.72314
4069.0 0.0002458 1554.24890 3802.33325
3492.0 0.0002864 1551.75818 3234.31714
2728.0 0.000367 1549.27698 2657.97119
2307.0 0.000433 1546.80518 2247.53735
2127.0 0.000470 1544.34302 2066.54834
2083.0 0.000480 1541.89075 2092.68994
2209.0 0.000453 1539.44775 2252.98755
2363.0 0.000423 1537.01477 2444.01221
2584.0 0.000387 1534.59131 2551.99023
2500.0 0.000400 1532.17786 2501.14966
2366.0 0.000423 1529.77393 2310.17310
2176.0 0.000460 1527.37976 2066.57227
1911.0 0.000523 1524.99573 1850.73511
1735.0 0.000576 1522.62170 1700.36902
1598.0 0.000626 1520.25720 1613.75708
1472.0 0.000679 1517.90259 1570.42236
1488.0 0.000672 1515.55786 1549.89844
1534.0 0.000652 1513.22351 1539.31433
1505.0 0.000664 1510.89893 1532.66699
1583.0 0.000632 1508.58411 1527.81592
1558.0 0.000642 1506.27917 1524.32788
1476.0 0.000678 1503.98462 1522.44604
1569.0 0.000637 1501.69958 1522.51245
1485.0 0.000673 1499.42468 1524.38574
1502.0 0.000666 1497.15991 1526.92480
1583.0 0.000632 1494.90491 1528.00391
1591.0 0.000629 1492.66016 1525.49927
1523.0 0.000657 1490.42505 1519.05420
1532.0 0.000653 1488.19983 1510.48669
1513.0 0.000661 1485.98486 1502.04846
1538.0 0.000650 1483.77979 1495.09521
1447.0 0.000691 1481.58435 1489.89075
1494.0 0.000669 1479.39893 1486.02429
1528.0 0.000654 1477.22327 1482.94226
1447.0 0.000691 1475.05774 1480.24377
1506.0 0.000664 1472.90198 1477.62549
1493.0 0.000670 1470.75586 1475.19348
1470.0 0.000680 1468.61938 1472.81836
1490.0 0.000671 1466.49304 1470.48950
1528.0 0.000654 1464.37622 1468.20215
1464.0 0.000683 1462.26917 1465.95508
1552.0 0.000644 1460.17151 1463.74792
1506.0 0.000664 1458.08386 1461.58350
1466.0 0.000682 1456.00549 1459.46680
1479.0 0.000676 1453.93665 1455.85693
1492.0 0.000670 1451.87744 1453.98535
1456.0 0.000687 1449.82788 1452.37537
1484.0 0.000674 1447.78760 1451.42285
1506.0 0.000664 1445.75659 1451.96826
1495.0 0.000669 1443.73486 1455.36047
1477.0 0.000677 1441.72253 1462.99475
1499.0 0.000667 1439.71960 1475.10706
1560.0 0.000641 1437.72571 1489.34998
1501.0 0.000666 1435.74097 1500.44482
1472.0 0.000679 1433.76526 1501.68677
1472.0 0.000679 1431.79883 1492.05627
1458.0 0.000686 1429.84106 1475.04602
1516.0 0.000660 1427.89246 1457.02930
1459.0 0.000685 1425.95251 1442.37488
1438.0 0.000695 1424.02161 1432.39136
1417.0 0.000706 1422.09924 1426.23328
1406.0 0.000711 1420.18555 1422.39185
1392.0 0.000718 1418.28064 1419.66931
1419.0 0.000705 1416.38416 1417.40442
1416.0 0.000706 1414.49634 1415.31494
1446.0 0.000692 1412.61670 1413.30042
1462.0 0.000684 1410.74548 1411.32788
1376.0 0.000727 1408.88281 1409.38550
1399.0 0.000715 1407.02820 1407.46631
1426.0 0.000701 1405.18176 1405.56726
1427.0 0.000701 1403.34338 1403.68518
1441.0 0.000694 1401.51318 1401.80322
1404.0 0.000712 1399.69080 1399.95032
1432.0 0.000698 1397.87610 1398.10999
1445.0 0.000692 1396.06946 1396.28113
1383.0 0.000723 1394.27039 1394.46289
1420.0 0.000704 1392.47925 1392.65503
1429.0 0.000700 1390.69543 1390.85669
1411.0 0.000709 1388.91919 1389.06738
1401.0 0.000714 1387.15039 1387.28735
1411.0 0.000709 1385.38892 1385.51575
1338.0 0.000747 1383.63489 1383.75269
1343.0 0.000745 1381.88782 1381.99731
1377.0 0.000726 1380.14783 1380.25012
1424.0 0.000702 1378.41516 1378.51086
1326.0 0.000754 1376.68921 1376.77893
1394.0 0.000717 1374.97034 1375.05457
1357.0 0.000737 1373.25806 1373.33740
1323.0 0.000756 1371.55273 1371.62756
1353.0 0.000739 1369.85388 1369.92456
1421.0 0.000704 1368.16150 1368.22827
1356.0 0.000737 1366.47571 1366.53894
1411.0 0.000709 1364.79626 1364.85645
1399.0 0.000715 1363.12329 1363.18042
1361.0 0.000735 1361.45642 1361.51062
1373.0 0.000728 1359.79553 1359.84729
1327.0 0.000754 1358.14111 1358.19043
1362.0 0.000734 1356.49231 1356.53943
1380.0 0.000725 1354.84961 1354.89465
1373.0 0.000728 1353.21265 1353.21277
1334.0 0.000750 1351.58130 1351.58154
1414.0 0.000707 1349.95593 1349.95605
1428.0 0.000700 1348.33582 1348.33606
1275.0 0.000784 1346.72144 1346.72168
1379.0 0.000725 1345.11230 1345.11243
1297.0 0.000771 1343.50867 1343.50891
1330.0 0.000752 1341.91003 1341.91028
1336.0 0.000749 1340.31665 1340.31689
1248.0 0.000801 1338.72852 1338.72864
1279.0 0.000782 1337.14514 1337.14539
1348.0 0.000742 1335.56689 1335.56714
1330.0 0.000752 1333.99329 1333.99365
1287.0 0.000777 1332.42444 1332.42480
1346.0 0.000743 1330.86060 1330.86084
1327.0 0.000754 1329.30103 1329.30127
1349.0 0.000741 1327.74622 1327.74646
1357.0 0.000737 1326.19556 1326.19592
1300.0 0.000769 1324.64954 1324.64978
1358.0 0.000736 1323.10767 1323.13721
1331.0 0.000751 1321.56995 1321.60071
1337.0 0.000748 1320.03650 1320.06885
1321.0 0.000757 1318.50720 1318.54089
1334.0 0.000750 1316.98157 1317.01709
1266.0 0.000790 1315.45996 1315.49707
1253.0 0.000798 1313.94214 1313.98120
1298.0 0.000770 1312.42822 1312.46936
1298.0 0.000770 1310.91797 1310.96106
1348.0 0.000742 1309.41125 1309.45691
1271.0 0.000787 1307.90808 1307.95618
1304.0 0.000767 1306.40833 1306.45935
1310.0 0.000763 1304.91223 1304.96606
1288.0 0.000776 1303.41919 1303.47632
1300.0 0.000769 1301.92957 1301.99036
1298.0 0.000770 1300.44287 1300.50781
1204.0 0.000831 1298.95959 1299.02893
1312.0 0.000762 1297.47925 1297.55334
1273.0 0.000786 1296.00183 1296.08118
1319.0 0.000758 1294.52747 1294.61279
1233.0 0.000811 1293.05603 1293.14819
1253.0 0.000798 1291.58716 1291.68689
1338.0 0.000747 1290.12109 1290.22913
1364.0 0.000733 1288.65759 1288.77527
1249.0 0.000801 1287.19690 1287.32544
1258.0 0.000795 1285.73889 1285.87988
1246.0 0.000803 1284.28308 1284.43835
1320.0 0.000758 1282.82971 1283.00183
1229.0 0.000814 1281.37891 1281.57056
1234.0 0.000810 1279.93018 1280.14478
1260.0 0.000794 1278.48376 1278.77856
1264.0 0.000791 1277.03979 1277.36987
1217.0 0.000822 1275.59778 1275.97034
1205.0 0.000830 1274.15808 1274.58264
1243.0 0.000805 1272.72021 1273.20959
1224.0 0.000817 1271.28430 1271.85730
1248.0 0.000801 1269.85059 1270.54016
1283.0 0.000779 1268.41870 1269.29968
1256.0 0.000796 1266.98865 1269.02258
1285.0 0.000778 1265.56030 1268.50842
1240.0 0.000806 1264.13367 1269.09717
1246.0 0.000803 1262.70911 1271.69849
1284.0 0.000779 1261.28613 1277.15247
1270.0 0.000787 1259.86462 1285.39795
1260.0 0.000794 1258.44470 1294.61804
1290.0 0.000775 1257.02649 1301.18689
1293.0 0.000773 1255.60974 1301.27002
1289.0 0.000776 1254.19458 1294.01648
1301.0 0.000769 1252.78064 1282.53967
1355.0 0.000738 1251.36841 1270.89319
1269.0 0.000788 1249.95740 1261.63330
1294.0 0.000773 1248.54761 1255.38757
1242.0 0.000805 1247.13928 1251.52185
1261.0 0.000793 1245.73230 1249.07104
1186.0 0.000843 1244.32666 1247.30249
1277.0 0.000783 1242.92200 1245.82031
1242.0 0.000805 1241.51855 1244.45935
1162.0 0.000861 1240.11646 1243.16272
1231.0 0.000812 1238.71558 1241.91455
1232.0 0.000812 1237.31580 1240.71130
1254.0 0.000797 1235.91699 1239.55469
1236.0 0.000809 1234.51917 1238.44983
1228.0 0.000814 1233.12280 1237.40393
1284.0 0.000779 1231.72717 1236.42798
1195.0 0.000837 1230.33276 1235.53833
1280.0 0.000781 1228.93921 1234.76282
1208.0 0.000828 1227.54688 1234.16272
1274.0 0.000785 1226.15540 1233.89441
1154.0 0.000867 1224.76477 1234.34912
1228.0 0.000814 1223.37537 1236.37268
1236.0 0.000809 1221.98682 1241.39966
1229.0 0.000814 1220.59924 1251.12842
1240.0 0.000806 1219.21252 1266.40186
1236.0 0.000809 1217.82666 1285.69189
1269.0 0.000788 1216.44202 1304.54541
1241.0 0.000806 1215.05798 1317.83972
1352.0 0.000740 1213.67517 1326.46631
1359.0 0.000736 1212.29309 1344.80566
1368.0 0.000731 1210.91199 1399.72754
1598.0 0.000626 1209.53174 1520.58984
1653.0 0.000605 1208.15234 1721.13916
1843.0 0.000543 1206.77405 1976.94934
2089.0 0.000479 1205.39648 2214.14868
2226.0 0.000449 1204.02014 2329.47900
2172.0 0.000460 1202.64441 2257.57397
2063.0 0.000485 1201.26978 2036.57166
1817.0 0.000550 1199.89612 1767.74634
1534.0 0.000652 1198.52332 1535.42542
1389.0 0.000720 1197.15161 1376.21387
1307.0 0.000765 1195.78076 1285.77979
1277.0 0.000783 1194.41077 1241.40149
1219.0 0.000820 1193.04211 1221.16174
1132.0 0.000883 1191.67419 1211.45752
1192.0 0.000839 1190.30750 1205.80872
1167.0 0.000857 1188.94165 1201.73767
1271.0 0.000787 1187.57703 1198.40149
1237.0 0.000808 1186.21338 1195.50281
1193.0 0.000838 1184.85083 1192.90991
1254.0 0.000797 1183.48950 1190.54614
1153.0 0.000867 1182.12915 1188.35828
1192.0 0.000839 1180.77014 1186.30798
1188.0 0.000842 1179.41211 1184.36743
1104.0 0.000906 1178.05530 1182.51489
1199.0 0.000834 1176.69983 1180.73438
1178.0 0.000849 1175.34558 1179.01257
1181.0 0.000847 1173.99268 1177.34021
1177.0 0.000850 1172.64087 1175.70874
1126.0 0.000888 1171.29041 1174.11230
1169.0 0.000855 1169.94153 1172.54565
1190.0 0.000840 1168.59387 1171.00452
1167.0 0.000857 1167.24768 1169.48572
1196.0 0.000836 1165.90283 1167.98596
1135.0 0.000881 1164.55969 1166.50342
1184.0 0.000845 1163.21790 1165.03577
1222.0 0.000818 1161.87756 1163.58142
1128.0 0.000887 1160.53894 1162.13916
1218.0 0.000821 1159.20190 1160.70764
1154.0 0.000867 1157.86658 1159.28589
1171.0 0.000854 1156.53271 1157.87305
1155.0 0.000866 1155.20068 1156.46826
1183.0 0.000845 1153.87048 1155.07117
1138.0 0.000879 1152.54187 1153.62976
1223.0 0.000818 1151.21533 1152.24817
1117.0 0.000895 1149.89050 1150.87244
1181.0 0.000847 1148.56763 1149.50232
1195.0 0.000837 1147.24658 1148.34668
1095.0 0.000913 1145.92761 1146.99609
1137.0 0.000880 1144.61072 1145.65125
1150.0 0.000870 1143.29590 1144.31165
1206.0 0.000829 1141.98303 1142.23401
1243.0 0.000805 1140.67236 1140.93567
1111.0 0.000900 1139.36389 1139.64075
1147.0 0.000872 1138.05774 1138.34912
1193.0 0.000838 1136.75391 1137.06104
1178.0 0.000849 1135.45215 1135.77625
1214.0 0.000824 1134.15283 1134.49536
1140.0 0.000877 1132.85596 1137.34741
1183.0 0.000845 1131.56165 1136.26172
1166.0 0.000858 1130.26965 1135.19324
1134.0 0.000882 1128.98035 1134.14380
1130.0 0.000885 1127.69360 1133.11499
1129.0 0.000886 1126.40955 1132.10901
1147.0 0.000872 1125.12793 1131.12781
1156.0 0.000865 1123.84924 1130.17371
1152.0 0.000868 1122.57324 1129.24988
1121.0 0.000892 1121.30029 1128.35974
1165.0 0.000858 1120.02991 1127.50647
1105.0 0.000905 1118.76257 1126.69482
1125.0 0.000889 1117.49805 1125.92969
1158.0 0.000864 1116.23682 1125.21753
1093.0 0.000915 1114.97852 1124.56470
1174.0 0.000852 1113.72327 1123.97949
1155.0 0.000866 1112.47119 1123.47229
1059.0 0.000944 1111.22241 1123.05493
1070.0 0.000935 1109.97668 1122.74182
1076.0 0.000929 1108.73450 1122.55103
1098.0 0.000911 1107.49548 1122.50464
1142.0 0.000876 1106.25977 1122.63110
1149.0 0.000870 1105.02771 1122.96704
1147.0 0.000872 1103.79907 1123.56262
1081.0 0.000925 1102.57385 1132.30029
1067.0 0.000937 1101.35242 1134.09119
1070.0 0.000935 1100.13464 1136.83191
1139.0 0.000878 1098.92041 1141.61548
1120.0 0.000893 1097.70984 1150.93970
1211.0 0.000826 1096.50305 1169.41443
1251.0 0.000799 1095.30029 1203.26489
1229.0 0.000814 1094.10132 1257.14917
1270.0 0.000787 1092.90625 1328.50330
1351.0 0.000740 1091.71509 1402.91638
1451.0 0.000689 1090.52808 1455.72168
1463.0 0.000684 1089.34485 1465.31311
1408.0 0.000710 1088.16602 1434.76404
1399.0 0.000715 1086.99121 1395.02100
1394.0 0.000717 1085.82068 1388.23438
1564.0 0.000639 1084.65417 1473.41870
1773.0 0.000564 1083.49207 1737.33240
2315.0 0.000432 1082.33423 2293.65601
3141.0 0.0003184 1081.18091 3231.53320
4317.0 0.0002316 1080.03198 4510.02734
5745.0 0.0001741 1078.88745 5861.19580
7067.0 0.0001415 1077.74731 6802.73145
7200.0 0.0001389 1076.61182 6867.83398
5930.0 0.0001686 1075.48108 6016.21631
4499.0 0.0002223 1074.35486 4684.04053
3073.0 0.0003254 1073.23328 3373.44043
2135.0 0.000468 1072.11633 2382.32593
1625.0 0.000615 1071.00427 1771.94836
1353.0 0.000739 1069.89697 1456.14929
1258.0 0.000795 1068.79443 1314.12524
1229.0 0.000814 1067.69678 1255.69446
1229.0 0.000814 1066.60425 1232.42798
1234.0 0.000810 1065.51636 1223.94983
1140.0 0.000877 1064.43347 1223.28662
1190.0 0.000840 1063.35583 1228.64478
1225.0 0.000816 1062.28308 1240.34705
1253.0 0.000798 1061.21558 1260.83594
1282.0 0.000780 1060.15295 1297.99060
1402.0 0.000713 1059.09558 1375.10669
1663.0 0.000601 1058.04346 1558.48608
2021.0 0.000495 1056.99646 1962.15125
2858.0 0.0003499 1055.95496 2795.73584
4201.0 0.0002380 1054.91846 4277.58984
6129.0 0.0001632 1053.88745 6470.02930
8932.0 0.0001120 1052.86182 9066.63770
11473.0 0.0000872 1051.84143 11306.38184
12648.0 0.0000791 1050.82654 12208.66016
11787.0 0.0000848 1049.81702 11272.48242
9065.0 0.0001103 1048.81311 9008.71680
5968.0 0.0001676 1047.81445 6408.45361
3898.0 0.0002565 1046.82141 4228.50635
2558.0 0.000391 1045.83398 2769.20703
2005.0 0.000499 1044.85205 1968.61804
1650.0 0.000606 1043.87585 1619.29822
1567.0 0.000638 1042.90515 1537.57300
1646.0 0.000608 1041.93994 1614.86938
1755.0 0.000570 1040.98071 1787.18604
1975.0 0.000506 1040.02686 1989.67981
2119.0 0.000472 1039.07886 2133.73608
2150.0 0.000465 1038.13647 2136.93555
2031.0 0.000492 1037.19995 1987.05249
1815.0 0.000551 1036.26904 1754.49622
1460.0 0.000685 1035.34399 1523.66504
1382.0 0.000724 1034.42468 1346.46851
1340.0 0.000746 1033.51111 1234.89246
1349.0 0.000741 1032.60352 1175.26978
1276.0 0.000784 1031.70154 1147.19788
1247.0 0.000802 1030.80542 1130.88000
1189.0 0.000841 1029.91528 1126.22473
1173.0 0.000853 1029.03088 1125.25867
1163.0 0.000860 1028.15247 1126.78906
1076.0 0.000929 1027.27966 1133.39661
1150.0 0.000870 1026.41284 1139.88196
1180.0 0.000847 1025.55200 1149.46326
1221.0 0.000819 1024.69702 1163.28479
1229.0 0.000814 1023.84796 1184.19080
1291.0 0.000775 1023.00464 1220.35071
1431.0 0.000699 1022.16736 1294.77197
1526.0 0.000655 1021.33588 1463.86182
1941.0 0.000515 1020.51031 1839.71069
2696.0 0.000371 1019.69073 2589.79785
3787.0 0.0002641 1018.87695 3870.90918
5531.0 0.0001808 1018.06915 5705.69531
7799.0 0.0001282 1017.26709 7737.49658
9638.0 0.0001038 1016.47095 9336.21191
10373.0 0.0000964 1015.68085 9760.83203
9031.0 0.0001107 1014.89648 8769.99316
7009.0 0.0001427 1014.11810 6889.75830
4854.0 0.0002060 1013.34546 4885.58057
3079.0 0.0003248 1012.57867 3278.47729
2085.0 0.000480 1011.81775 2235.21045
1611.0 0.000621 1011.06262 1667.82556
1339.0 0.000747 1010.31342 1392.05029
1302.0 0.000768 1009.57007 1276.12939
1210.0 0.000826 1008.83234 1226.23169
1160.0 0.000862 1008.10034 1205.08301
1227.0 0.000815 1007.37415 1202.36646
1173.0 0.000853 1006.65375 1221.23010
1302.0 0.000768 1005.93921 1270.81726
1425.0 0.000702 1005.23010 1358.46082
1574.0 0.000635 1004.52679 1479.50513
1721.0 0.000581 1003.82910 1609.66321
1746.0 0.000573 1003.13721 1707.70752
1772.0 0.000564 1002.45074 1737.09937
1641.0 0.000609 1001.77008 1699.22009
1609.0 0.000622 1001.09479 1631.97668
1569.0 0.000637 1000.42523 1565.98499
1446.0 0.000692 999.76111 1510.09705
1478.0 0.000677 999.10242 1462.96045
1409.0 0.000710 998.44934 1434.99548
1503.0 0.000665 997.80170 1456.49170
1609.0 0.000622 997.15930 1579.89258
2030.0 0.000493 996.52228 1877.83777
2557.0 0.000391 995.89063 2418.10840
3312.0 0.0003019 995.26434 3206.84033
4185.0 0.0002389 994.64349 4119.56055
4942.0 0.0002023 994.02765 4887.83057
5626.0 0.0001777 993.41699 5189.08008
5189.0 0.0001927 992.81171 4895.69189
4267.0 0.0002344 992.21136 4234.81445
3705.0 0.0002699 991.61627 3613.57373
3787.0 0.0002641 991.02606 3457.51196
4764.0 0.0002099 990.44098 4228.87305
6940.0 0.0001441 989.86090 6479.36572
10668.0 0.0000937 989.28571 10693.24902
16824.0 0.0000594 988.71533 16888.45703
23182.0 0.0000431 988.14996 24057.76367
28487.0 0.0000351 987.58942 30002.54492
30340.0 0.0000330 987.03345 32058.01563
28233.0 0.0000354 986.48230 29072.15820
23024.0 0.0000434 985.93567 22648.78906
16692.0 0.0000599 985.39386 15495.14844
10879.0 0.0000919 984.85663 9587.55371
6820.0 0.0001466 984.32385 5661.13037
4276.0 0.0002339 983.79547 3488.80908
2856.0 0.0003501 983.27167 2457.55786
2152.0 0.000465 982.75214 1998.69324
1835.0 0.000545 982.23700 1770.16101
1550.0 0.000645 981.72601 1618.85364
1466.0 0.000682 981.21942 1499.24744
1338.0 0.000747 980.71680 1404.17578
1312.0 0.000762 980.21832 1332.91370
1259.0 0.000794 979.72400 1282.21716
1180.0 0.000847 979.23352 1246.72351
1158.0 0.000864 978.74719 1221.35559
1164.0 0.000859 978.26453 1202.59412
1175.0 0.000851 977.78577 1188.43481
1215.0 0.000823 977.31073 1185.42004
1124.0 0.000890 976.83948 1177.84692
1190.0 0.000840 976.37195 1173.59729
1105.0 0.000905 975.90784 1172.40906
1139.0 0.000878 975.44727 1175.17456
1199.0 0.000834 974.99023 1184.65613
1219.0 0.000820 974.53650 1207.62219
1274.0 0.000785 974.08630 1258.36377
1321.0 0.000757 973.63916 1368.53699
1537.0 0.000651 973.19537 1539.96899
1808.0 0.000553 972.75458 1787.96350
2102.0 0.000476 972.31696 2077.67700
2389.0 0.000419 971.88239 2334.54492
2511.0 0.000398 971.45062 2470.94849
2625.0 0.000381 971.02191 2471.17603
2538.0 0.000394 970.59589 2459.90747
2861.0 0.0003495 970.17261 2655.47559
3400.0 0.0002941 969.75214 3290.79175
4464.0 0.0002240 969.33411 4489.40479
6209.0 0.0001611 968.91876 6149.29590
8122.0 0.0001231 968.50580 7863.78076
9293.0 0.0001076 968.09534 9000.33984
9495.0 0.0001053 967.68713 9066.68750
8455.0 0.0001183 967.28113 8241.41016
7248.0 0.0001380 966.87744 7307.97803
6813.0 0.0001468 966.47577 7057.34961
7478.0 0.0001337 966.07629 7862.16260
9322.0 0.0001073 965.67859 9483.79883
11372.0 0.0000879 965.28290 11239.80664
12373.0 0.0000808 964.88910 12214.70117
11783.0 0.0000849 964.49695 11993.55469
10744.0 0.0000931 964.10663 10951.99414
9370.0 0.0001067 963.71777 9667.14746
8355.0 0.0001197 963.33051 8371.22754
6972.0 0.0001434 962.94470 6997.54346
5639.0 0.0001773 962.56036 5548.16943
4328.0 0.0002311 962.17731 4227.97754
3198.0 0.0003127 961.79547 3163.89111
2512.0 0.000398 961.41498 2527.98999
2359.0 0.000424 961.03534 2268.96021
2592.0 0.000386 960.65680 2459.42261
3278.0 0.0003051 960.27930 3189.34155
4448.0 0.0002248 959.90253 4569.27393
6440.0 0.0001553 959.52679 6587.98193
8755.0 0.0001142 959.15155 8894.79297
10682.0 0.0000936 958.77704 10812.07617
11945.0 0.0000837 958.40314 11545.02246
11236.0 0.0000890 958.02966 10847.53223
9552.0 0.0001047 957.65674 9420.42773
8093.0 0.0001236 957.28412 8370.14844
8079.0 0.0001238 956.91168 8542.10156
9912.0 0.0001009 956.53955 10156.04883
12556.0 0.0000796 956.16748 12673.25000
14975.0 0.0000668 955.79559 14930.55859
15755.0 0.0000635 955.42358 15637.62305
14736.0 0.0000679 955.05151 14290.59766
11996.0 0.0000834 954.67920 11534.48242
8815.0 0.0001134 954.30670 8413.28516
6163.0 0.0001623 953.93390 5731.99414
4164.0 0.0002402 953.56055 3844.95093
3075.0 0.0003252 953.18701 2717.30151
2333.0 0.000429 952.81274 2128.83887
1968.0 0.000508 952.43781 1855.38611
1797.0 0.000556 952.06232 1744.61731
1663.0 0.000601 951.68597 1707.40503
1576.0 0.000635 951.30890 1707.98865
1560.0 0.000641 950.93079 1731.80505
1602.0 0.000624 950.55182 1768.80688
1634.0 0.000612 950.17175 1831.25720
1727.0 0.000579 949.79041 1915.81177
1890.0 0.000529 949.40808 2028.04675
1910.0 0.000524 949.02448 2179.47949
2213.0 0.000452 948.63947 2398.37427
2687.0 0.000372 948.25299 2759.89160
3415.0 0.0002928 947.86499 3452.84473
4955.0 0.0002018 947.47565 4880.13818
7835.0 0.0001276 947.08459 7787.49658
12665.0 0.0000790 946.69177 13178.01660
21110.0 0.0000474 946.29718 22017.10938
32683.0 0.0000306 945.90076 34605.99219
47541.0 0.0000210 945.50256 49898.63281
63680.0 0.0000157 945.10229 65042.79688
76134.0 0.0000131 944.70007 76388.78125
84333.0 0.0000119 944.29565 81277.78906
81961.0 0.0000122 943.88916 78288.25000
70138.0 0.0000143 943.48035 68077.15625
54495.0 0.0000184 943.06927 54451.56641
39790.0 0.0000251 942.65588 41568.72656
30617.0 0.0000327 942.24005 31334.29688
23207.0 0.0000431 941.82166 23501.21289
17344.0 0.0000577 941.40070 17223.22070
11879.0 0.0000842 940.97711 12134.09863
7877.0 0.0001270 940.55096 8232.30469
5046.0 0.0001982 940.12201 5504.52197
3323.0 0.0003009 939.69025 3802.30737
2616.0 0.000382 939.25555 2845.53320
2166.0 0.000462 938.81799 2339.29907
1900.0 0.000526 938.37738 2066.45605
1822.0 0.000549 937.93390 1904.57788
1722.0 0.000581 937.48712 1788.09766
1632.0 0.000613 937.03723 1720.16919
1653.0 0.000605 936.58417 1691.99487
1681.0 0.000595 936.12775 1721.56946
1808.0 0.000553 935.66803 1848.31653
2142.0 0.000467 935.20502 2121.95044
2573.0 0.000389 934.73859 2581.65210
3139.0 0.0003186 934.26849 3209.74683
3801.0 0.0002631 933.79486 3891.18237
4441.0 0.0002252 933.31763 4408.22559
4519.0 0.0002213 932.83685 4516.02100
4128.0 0.0002422 932.35242 4138.29004
3358.0 0.0002978 931.86414 3458.05786
2620.0 0.000382 931.37195 2739.43701
1965.0 0.000509 930.87610 2161.45166
1694.0 0.000590 930.37622 1789.11108
1560.0 0.000641 929.87250 1600.79102
1494.0 0.000669 929.36469 1548.75818
1669.0 0.000599 928.85291 1613.48621
1945.0 0.000514 928.33704 1845.81274
2458.0 0.000407 927.81696 2402.56860
3632.0 0.0002753 927.29285 3554.91821
5588.0 0.0001790 926.76434 5607.58984
8580.0 0.0001166 926.23175 8681.95508
12464.0 0.0000802 925.69476 12432.94727
16262.0 0.0000615 925.15344 15896.46484
18179.0 0.0000550 924.60779 17697.54102
17183.0 0.0000582 924.05774 16897.02539
13736.0 0.0000728 923.50330 13902.89160
9540.0 0.0001048 922.94421 10112.89551
6031.0 0.0001658 922.38074 6677.87354
3752.0 0.0002665 921.81262 4145.18652
2466.0 0.000406 921.23999 2638.57520
1773.0 0.000564 920.66278 1851.36755
1464.0 0.000683 920.08075 1479.59155
1271.0 0.000787 919.49420 1310.35938
1170.0 0.000855 918.90283 1224.11780
1094.0 0.000914 918.30670 1172.51123
1039.0 0.000962 917.70587 1136.55835
996.0 0.001004 917.10022 1113.39124
1070.0 0.000935 916.48981 1092.15015
1026.0 0.000975 915.87439 1075.24976
994.0 0.001006 915.25415 1061.74890
997.0 0.001003 914.62915 1051.00232
1004.0 0.000996 913.99908 1042.56079
1002.0 0.000998 913.36414 1036.12378
969.0 0.001032 912.72418 1031.51685
957.0 0.001045 912.07928 1028.71338
945.0 0.001058 911.42932 1027.96460
954.0 0.001048 910.77435 1030.26135
1015.0 0.000985 910.11438 1038.56787
1021.0 0.000979 909.44928 1060.33899
1117.0 0.000895 908.77924 1110.79199
1165.0 0.000858 908.10400 1214.56531
1386.0 0.000722 907.42365 1398.16882
1684.0 0.000594 906.73834 1668.99927
1911.0 0.000523 906.04773 2001.21033
2292.0 0.000436 905.35217 2307.13403
2435.0 0.000411 904.65131 2466.41870
2274.0 0.000440 903.94531 2400.28125
2060.0 0.000485 903.23425 2142.77539
1759.0 0.000569 902.51794 1814.67810
1500.0 0.000667 901.79657 1519.79419
1312.0 0.000762 901.06989 1309.94031
1107.0 0.000903 900.33820 1188.52258
1053.0 0.000950 899.60114 1132.81836
1080.0 0.000926 898.85895 1116.60132
1050.0 0.000952 898.11169 1121.65942
1043.0 0.000959 897.35907 1139.03088
1052.0 0.000951 896.60150 1166.24573
1117.0 0.000895 895.83856 1205.55798
1250.0 0.000800 895.07043 1266.29834
1382.0 0.000724 894.29730 1361.95264
1752.0 0.000571 893.51886 1587.33569
2338.0 0.000428 892.73541 2072.50366
3419.0 0.0002925 891.94666 3060.87695
5280.0 0.0001894 891.15277 4849.48926
7934.0 0.0001260 890.35388 7625.54004
11413.0 0.0000876 889.54974 11223.02637
15094.0 0.0000663 888.74060 14948.80273
17651.0 0.0000567 887.92633 17661.46484
18265.0 0.0000547 887.10693 18347.67969
17003.0 0.0000588 886.28235 17011.81055
14387.0 0.0000695 885.45276 14516.17773
11785.0 0.0000849 884.61829 11644.01758
8855.0 0.0001129 883.77856 8826.34473
6483.0 0.0001542 882.93396 6353.38477
4377.0 0.0002285 882.08453 4414.61328
2999.0 0.0003334 881.22986 3038.51025
1992.0 0.000502 880.37030 2160.59302
1506.0 0.000664 879.50574 1656.37695
1300.0 0.000769 878.63647 1391.33765
1193.0 0.000838 877.76215 1257.83325
1118.0 0.000894 876.88300 1188.47693
1080.0 0.000926 875.99908 1150.04028
1021.0 0.000979 875.11041 1127.02686
1040.0 0.000962 874.21680 1117.56531
1096.0 0.000912 873.31854 1128.03589
1198.0 0.000835 872.41547 1177.85303
1304.0 0.000767 871.50769 1305.48755
1537.0 0.000651 870.59528 1567.00537
1917.0 0.000522 869.67828 2013.92932
2531.0 0.000395 868.75659 2646.98022
3138.0 0.0003187 867.83032 3367.15649
3721.0 0.0002687 866.89978 3961.14429
4080.0 0.0002451 865.96442 4172.87402
3797.0 0.0002634 865.02466 3884.08960
3062.0 0.0003266 864.08057 3243.90845
2469.0 0.000405 863.13196 2514.03003
1977.0 0.000506 862.17896 1894.10510
1757.0 0.000569 861.22168 1463.07080
1660.0 0.000602 860.26025 1211.04407
1656.0 0.000604 859.29456 1082.90271
1580.0 0.000633 858.32458 1023.71002
1490.0 0.000671 857.35052 997.31073
1403.0 0.000713 856.37219 985.83057
1333.0 0.000750 855.38983 983.09705
1207.0 0.000829 854.40344 989.63281
1222.0 0.000818 853.41321 1010.33679
1302.0 0.000768 852.41888 1052.73767
1300.0 0.000769 851.42084 1123.50208
1295.0 0.000772 850.41888 1222.96619
1475.0 0.000678 849.41309 1340.29614
1481.0 0.000675 848.40350 1453.29749
1590.0 0.000629 847.39032 1540.25037
1765.0 0.000567 846.37335 1606.86377
1761.0 0.000568 845.35278 1686.93921
1960.0 0.000510 844.32874 1887.54163
2312.0 0.000433 843.30121 2300.91333
2975.0 0.0003361 842.27039 3012.72656
4017.0 0.0002489 841.23596 3995.72705
5065.0 0.0001974 840.19824 5056.73340
5870.0 0.0001704 839.15723 5824.38672
6092.0 0.0001641 838.11298 5930.26465
5595.0 0.0001787 837.06549 5325.06738
4454.0 0.0002245 836.01501 4342.70850
3464.0 0.0002887 834.96136 3388.17188
2802.0 0.000357 833.90497 2709.43921
2330.0 0.000429 832.84546 2346.77905
2108.0 0.000474 831.78296 2183.81812
1958.0 0.000511 830.71771 2055.16724
1709.0 0.000585 829.64972 1864.46033
1589.0 0.000629 828.57892 1622.71704
1344.0 0.000744 827.50549 1385.68054
1209.0 0.000827 826.42950 1197.74976
1140.0 0.000877 825.35126 1075.38977
1068.0 0.000936 824.27026 1014.09290
1081.0 0.000925 823.18677 1005.99054
1148.0 0.000871 822.10114 1055.81104
1288.0 0.000776 821.01312 1186.83899
1493.0 0.000670 819.92291 1428.68372
1978.0 0.000506 818.83057 1801.67786
2390.0 0.000418 817.73615 2265.04053
2648.0 0.000378 816.63959 2707.53638
2747.0 0.000364 815.54138 2962.69385
2640.0 0.000379 814.44116 2900.73779
2418.0 0.000414 813.33899 2552.64600
2118.0 0.000472 812.23511 2077.01221
1718.0 0.000582 811.12958 1627.05212
1499.0 0.000667 810.02240 1287.54150
1261.0 0.000793 808.91357 1073.25366
1065.0 0.000939 807.80341 956.37909
1021.0 0.000979 806.69196 898.75909
1056.0 0.000947 805.57892 870.95813
992.0 0.001008 804.46466 856.22443
971.0 0.001030 803.34918 846.89337
881.0 0.001135 802.23260 839.96295
857.0 0.001167 801.11487 834.77283
820.0 0.001220 799.99615 830.01080
777.0 0.001287 798.87653 825.55383
762.0 0.001312 797.75616 821.91718
827.0 0.001209 796.63495 818.66248
786.0 0.001272 795.51294 815.49017
825.0 0.001212 794.39026 812.80127
737.0 0.001357 793.26703 810.31738
786.0 0.001272 792.14325 808.00427
751.0 0.001332 791.01910 805.83490
828.0 0.001208 789.89453 803.78772
814.0 0.001229 788.76971 797.50305
824.0 0.001214 787.64484 795.84888
806.0 0.001241 786.51965 794.25061
767.0 0.001304 785.39435 792.71210
813.0 0.001230 784.26904 791.22662
782.0 0.001279 783.14380 789.78876
798.0 0.001253 782.01874 788.39441
761.0 0.001314 780.89380 786.17786
785.0 0.001274 779.76923 784.89807
778.0 0.001285 778.64508 783.65222
776.0 0.001289 777.52130 782.43933
741.0 0.001350 776.39807 781.25983
781.0 0.001280 775.27527 782.21521
797.0 0.001255 774.15314 781.19946
813.0 0.001230 773.03174 780.22882
815.0 0.001227 771.91113 779.30792
804.0 0.001244 770.79132 778.44287
839.0 0.001192 769.67279 777.64252
831.0 0.001203 768.55499 776.91724
786.0 0.001272 767.43817 776.28192
804.0 0.001244 766.32263 775.75665
785.0 0.001274 765.20819 775.36865
780.0 0.001282 764.09515 773.32367
771.0 0.001297 762.98352 773.44293
829.0 0.001206 761.87317 773.97205
732.0 0.001366 760.76440 775.34338
720.0 0.001389 759.65735 778.69519
788.0 0.001269 758.55176 786.69397
788.0 0.001269 757.44794 804.53302
814.0 0.001229 756.34583 840.08124
879.0 0.001138 755.24567 901.44568
968.0 0.001033 754.14728 991.04742
1093.0 0.000915 753.05109 1098.40540
1194.0 0.000838 751.95679 1196.55322
1307.0 0.000765 750.86487 1247.64868
1295.0 0.000772 749.77502 1225.62744
1159.0 0.000863 748.68732 1141.95776
1067.0 0.000937 747.60211 1033.47400
919.0 0.001088 746.51923 933.39087
832.0 0.001202 745.43884 859.27252
801.0 0.001248 744.36096 813.56360
780.0 0.001282 743.28571 789.92316
707.0 0.001414 742.21332 780.15155
775.0 0.001290 741.14349 778.00775
722.0 0.001385 740.07648 779.74585
745.0 0.001342 739.01233 783.17450
752.0 0.001330 737.95111 786.82202
726.0 0.001377 736.89288 790.23248
775.0 0.001290 735.83777 793.89380
806.0 0.001241 734.78577 801.50580
782.0 0.001279 733.73700 820.61578
818.0 0.001222 732.69153 866.67633
975.0 0.001026 731.64941 967.47089
1189.0 0.000841 730.61053 1162.43323
1400.0 0.000714 729.57513 1487.01062
1958.0 0.000511 728.54327 1943.45032
2449.0 0.000408 727.51495 2466.93774
2879.0 0.0003473 726.49023 2914.67285
3035.0 0.0003295 725.46930 3107.48096
2880.0 0.0003472 724.45221 2940.53564
2419.0 0.000413 723.43878 2503.05127
1880.0 0.000532 722.42920 1976.82959
1348.0 0.000742 721.42358 1509.87073
1096.0 0.000912 720.42194 1172.61780
947.0 0.001056 719.42438 966.68927
843.0 0.001186 718.43079 857.10638
801.0 0.001248 717.44153 803.95056
753.0 0.001328 716.45654 778.52521
744.0 0.001344 715.47559 765.14874
721.0 0.001387 714.49902 756.81592
742.0 0.001348 713.52686 750.80707
746.0 0.001340 712.55908 746.11176
710.0 0.001408 711.59583 742.31348
720.0 0.001389 710.63696 739.19672
725.0 0.001379 709.68280 737.54779
758.0 0.001319 708.73328 735.47656
731.0 0.001368 707.78851 733.80273
724.0 0.001381 706.84845 732.48651
735.0 0.001361 705.91302 731.50623
693.0 0.001443 704.98248 730.85614
749.0 0.001335 704.05688 730.11493
725.0 0.001379 703.13617 730.20148
740.0 0.001351 702.22040 730.74725
731.0 0.001368 701.30963 731.96082
756.0 0.001323 700.40411 734.37122
709.0 0.001410 699.50348 739.21436
722.0 0.001385 698.60803 748.96405
725.0 0.001379 697.71777 767.59259
779.0 0.001284 696.83270 799.73730
843.0 0.001186 695.95300 848.14935
923.0 0.001083 695.07855 910.17798
1033.0 0.000968 694.20947 975.63733
1102.0 0.000907 693.34589 1028.62048
1112.0 0.000899 692.48767 1056.93726
1111.0 0.000900 691.63489 1067.09204
1111.0 0.000900 690.78754 1084.08569
1265.0 0.000791 689.94586 1137.42004
1435.0 0.000697 689.10962 1256.61438
1608.0 0.000622 688.27917 1474.75769
1978.0 0.000506 687.45428 1829.42896
2386.0 0.000419 686.63507 2344.10400
2966.0 0.0003372 685.82166 2978.15356
3460.0 0.0002890 685.01398 3587.22803
3615.0 0.0002766 684.21198 3941.30957
3497.0 0.0002860 683.41583 3848.32471
3153.0 0.0003172 682.62543 3343.64697
2593.0 0.000386 681.84100 2643.93945
2052.0 0.000487 681.06238 1969.79175
1619.0 0.000618 680.28973 1449.91187
1319.0 0.000758 679.52319 1115.99292
1084.0 0.000923 678.76251 930.92285
938.0 0.001066 678.00775 844.02087
804.0 0.001244 677.25903 815.54596
835.0 0.001198 676.51642 828.14612
912.0 0.001096 675.77991 883.71930
979.0 0.001021 675.04932 992.62567
1133.0 0.000883 674.32501 1158.68274
1270.0 0.000787 673.60687 1363.50891
1447.0 0.000691 672.89478 1558.04736
1636.0 0.000611 672.18884 1670.22742
1607.0 0.000622 671.48907 1643.54285
1474.0 0.000678 670.79559 1490.03113
1259.0 0.000794 670.10834 1277.38586
1059.0 0.000944 669.42725 1072.54883
942.0 0.001062 668.75244 914.22803
822.0 0.001217 668.08386 811.25665
736.0 0.001359 667.42181 753.23077
672.0 0.001488 666.76581 723.62225
757.0 0.001321 666.11615 709.05591
653.0 0.001531 665.47278 701.42297
683.0 0.001464 664.83575 696.80548
648.0 0.001543 664.20508 693.59479
676.0 0.001479 663.58075 691.18970
696.0 0.001437 662.96283 689.36475
666.0 0.001502 662.35126 688.03235
691.0 0.001447 661.74597 687.18298
703.0 0.001422 661.14709 686.91296
644.0 0.001553 660.55450 687.53149
720.0 0.001389 659.96838 689.51068
715.0 0.001399 659.38855 694.67310
684.0 0.001462 658.81519 704.63544
752.0 0.001330 658.24817 721.14655
730.0 0.001370 657.68756 744.46149
746.0 0.001340 657.13336 773.00293
801.0 0.001248 656.58545 800.47601
824.0 0.001214 656.04395 816.75629
852.0 0.001174 655.50885 821.37750
848.0 0.001179 654.98010 824.56244
869.0 0.001151 654.45770 848.78253
888.0 0.001126 653.94159 921.76404
1052.0 0.000951 653.43201 1082.29333
1279.0 0.000782 652.92877 1347.52307
1598.0 0.000626 652.43176 1703.39282
2204.0 0.000454 651.94110 2083.76538
2425.0 0.000412 651.45673 2373.15674
2593.0 0.000386 650.97870 2445.18677
2283.0 0.000438 650.50696 2266.40381
1871.0 0.000534 650.04163 1925.34497
1464.0 0.000683 649.58240 1546.75415
1174.0 0.000852 649.12958 1220.88293
945.0 0.001058 648.68298 987.77997
828.0 0.001208 648.24255 844.40283
763.0 0.001311 647.80835 766.41803
717.0 0.001395 647.38043 727.79565
686.0 0.001458 646.95862 710.17462
705.0 0.001418 646.54303 702.90601
704.0 0.001420 646.13354 704.10846
675.0 0.001481 645.73035 712.01715
695.0 0.001439 645.33307 726.09119
740.0 0.001351 644.94196 744.10309
737.0 0.001357 644.55695 761.24792
733.0 0.001364 644.17798 770.92194
759.0 0.001318 643.80499 768.41144
783.0 0.001277 643.43805 755.39789
733.0 0.001364 643.07703 738.21167
720.0 0.001389 642.72211 722.93341
734.0 0.001362 642.37305 712.92700
702.0 0.001425 642.02985 709.27698
720.0 0.001389 641.69263 711.70093
721.0 0.001387 641.36115 720.42657
759.0 0.001318 641.03552 738.47485
814.0 0.001229 640.71564 774.85883
835.0 0.001198 640.40167 848.79663
1028.0 0.000973 640.09332 992.90637
1256.0 0.000796 639.79077 1250.19299
1724.0 0.000580 639.49384 1658.64050
2371.0 0.000422 639.20251 2222.17798
3054.0 0.0003274 638.91687 2877.33862
3565.0 0.0002805 638.63672 3479.37427
3870.0 0.0002584 638.36224 3844.34985
3781.0 0.0002645 638.09320 3836.56079
3321.0 0.0003011 637.82953 3449.10059
2651.0 0.000377 637.57153 2836.44458
2188.0 0.000457 637.31873 2212.22192
1690.0 0.000592 637.07141 1736.44604
1468.0 0.000681 636.82941 1484.43774
1390.0 0.000719 636.59259 1455.70667
1627.0 0.000615 636.36115 1593.01514
1777.0 0.000563 636.13489 1800.40002
2023.0 0.000494 635.91382 1963.83765
1927.0 0.000519 635.69781 1972.82959
1845.0 0.000542 635.48700 1812.37317
1545.0 0.000647 635.28119 1548.01453
1188.0 0.000842 635.08032 1270.20398
942.0 0.001062 634.88458 1040.69519
826.0 0.001211 634.69366 882.72748
726.0 0.001377 634.50763 790.55450
755.0 0.001325 634.32648 746.52423
734.0 0.001362 634.15002 735.46088
763.0 0.001311 633.97845 750.81757
808.0 0.001238 633.81158 793.16534
868.0 0.001152 633.64929 863.80859
1009.0 0.000991 633.49170 956.82721
1120.0 0.000893 633.33856 1054.74548
1170.0 0.000855 633.19006 1123.94116
1137.0 0.000880 633.04596 1134.53467
1019.0 0.000981 632.90637 1080.41870
1002.0 0.000998 632.77106 987.22009
845.0 0.001183 632.64014 885.86212
781.0 0.001280 632.51349 800.45355
711.0 0.001406 632.39105 740.42584
670.0 0.001493 632.27289 704.33032
718.0 0.001393 632.15869 685.14685
644.0 0.001553 632.04877 676.17273
681.0 0.001468 631.94281 672.89282
666.0 0.001502 631.84076 673.42407
639.0 0.001565 631.74268 677.87769
672.0 0.001488 631.64856 687.49908
682.0 0.001466 631.55817 703.42450
686.0 0.001458 631.47156 725.15485
691.0 0.001447 631.38873 749.28302
727.0 0.001376 631.30951 769.16858
743.0 0.001346 631.23395 777.06885
749.0 0.001335 631.16187 769.51404
729.0 0.001372 631.09338 749.85077
708.0 0.001412 631.02832 728.19305
666.0 0.001502 630.96661 707.49384
673.0 0.001486 630.90833 695.22003
697.0 0.001435 630.85333 689.28839
702.0 0.001425 630.80151 688.35480
652.0 0.001534 630.75293 690.84308
725.0 0.001379 630.70746 695.65808
645.0 0.001550 630.66498 702.31866
697.0 0.001435 630.62555 710.83313
695.0 0.001439 630.58911 721.60303
761.0 0.001314 630.55554 734.32312
800.0 0.001250 630.52484 753.86011
820.0 0.001220 630.49689 784.78381
868.0 0.001152 630.47168 841.61060
1012.0 0.000988 630.44916 955.95325
1166.0 0.000858 630.42926 1185.31702
1541.0 0.000649 630.41187 1612.02454
2265.0 0.000442 630.39703 2317.54175
3285.0 0.0003044 630.38464 3326.84131
4425.0 0.0002260 630.37463 4545.34375
5658.0 0.0001767 630.36688 5710.48389
6304.0 0.0001586 630.36151 6448.22607
6439.0 0.0001553 630.35828 6461.27588
5755.0 0.0001738 630.35724 5776.70605
4587.0 0.0002180 630.35822 4681.35156
3454.0 0.0002895 630.36133 3509.57983
2527.0 0.000396 630.36639 2513.66895
1834.0 0.000545 630.37335 1807.24207
1432.0 0.000698 630.38214 1391.81104
1330.0 0.000752 630.39282 1220.55237
1273.0 0.000786 630.40521 1248.96814
1476.0 0.000678 630.41925 1451.35693
1862.0 0.000537 630.43500 1806.19519
2267.0 0.000441 630.45227 2269.25171
2646.0 0.000378 630.47101 2755.40723
2993.0 0.0003341 630.49133 3145.62549
3166.0 0.0003159 630.51300 3346.25708
3211.0 0.0003114 630.53595 3365.01123
3149.0 0.0003176 630.56024 3261.23535
3129.0 0.0003196 630.58563 3057.48047
2856.0 0.0003501 630.61237 2744.99194
2511.0 0.000398 630.64020 2354.05811
2106.0 0.000475 630.66895 1951.66064
1635.0 0.000612 630.69879 1590.39966
1355.0 0.000738 630.72949 1297.30481
1039.0 0.000962 630.76111 1081.27917
941.0 0.001063 630.79352 937.01056
801.0 0.001248 630.82678 846.11340
737.0 0.001357 630.86072 793.28589
758.0 0.001319 630.89520 765.26111
703.0 0.001422 630.93042 752.14117
751.0 0.001332 630.96606 746.31299
717.0 0.001395 631.00226 741.82086
695.0 0.001439 631.03888 734.95087
702.0 0.001425 631.07581 725.28790
676.0 0.001479 631.11316 714.92914
648.0 0.001543 631.15057 705.89392
714.0 0.001401 631.18835 699.42297
679.0 0.001473 631.22626 695.81921
682.0 0.001466 631.26416 694.71448
674.0 0.001484 631.30219 695.59894
665.0 0.001504 631.34015 698.08234
726.0 0.001377 631.37811 702.02533
679.0 0.001473 631.41583 707.54797
761.0 0.001314 631.45337 715.07709
776.0 0.001289 631.49084 725.65234
910.0 0.001099 631.52783 741.92908
951.0 0.001052 631.56458 770.70563
978.0 0.001022 631.60089 827.89001
1070.0 0.000935 631.63678 945.39636
1291.0 0.000775 631.67224 1175.29932
1623.0 0.000616 631.70697 1581.25171
2201.0 0.000454 631.74127 2207.70581
3014.0 0.0003318 631.77484 3031.31201
3968.0 0.0002520 631.80768 3919.67822
4812.0 0.0002078 631.83984 4625.31494
5092.0 0.0001964 631.87109 4865.23877
4729.0 0.0002115 631.90161 4521.85547
3717.0 0.0002690 631.93109 3756.27295
2819.0 0.000355 631.95972 2866.78906
1971.0 0.000507 631.98730 2074.91406
1437.0 0.000696 632.01379 1493.27905
1099.0 0.000910 632.03925 1127.81995
948.0 0.001055 632.06348 927.18231
796.0 0.001256 632.08661 828.81085
756.0 0.001323 632.10852 785.66620
720.0 0.001389 632.12903 772.25079
726.0 0.001377 632.14825 780.29883
792.0 0.001263 632.16608 812.93030
876.0 0.001142 632.18250 876.85522
925.0 0.001081 632.19739 977.65112
1124.0 0.000890 632.21082 1109.93567
1327.0 0.000754 632.22272 1250.33203
1391.0 0.000719 632.23291 1363.35779
1460.0 0.000685 632.24158 1411.59424
1380.0 0.000725 632.24847 1385.68054
1367.0 0.000732 632.25366 1335.96741
1346.0 0.000743 632.25708 1337.16882
1420.0 0.000704 632.25867 1448.91382
1714.0 0.000583 632.25836 1693.29736
2014.0 0.000497 632.25623 2034.67651
2559.0 0.000391 632.25208 2377.51538
2819.0 0.000355 632.24603 2582.37671
2772.0 0.000361 632.23792 2541.53784
2399.0 0.000417 632.22778 2267.10669
1853.0 0.000540 632.21552 1876.01624
1390.0 0.000719 632.20117 1485.18860
1062.0 0.000942 632.18457 1171.69714
860.0 0.001163 632.16577 959.34412
766.0 0.001305 632.14484 835.21106
728.0 0.001374 632.12152 771.77136
696.0 0.001437 632.09595 743.32043
685.0 0.001460 632.06805 732.46259
671.0 0.001490 632.03772 729.32104
679.0 0.001473 632.00494 728.58057
625.0 0.001600 631.96973 727.44397
663.0 0.001508 631.93207 725.37781
667.0 0.001499 631.89191 722.90527
724.0 0.001381 631.84918 721.55389
648.0 0.001543 631.80383 722.40881
660.0 0.001515 631.75592 726.25934
658.0 0.001520 631.70538 734.04272
749.0 0.001335 631.65216 747.82703
729.0 0.001372 631.59631 772.43121
750.0 0.001333 631.53766 817.57214
867.0 0.001153 631.47626 899.86975
1099.0 0.000910 631.41211 1043.34998
1309.0 0.000764 631.34515 1276.95068
1720.0 0.000581 631.27533 1627.69678
2262.0 0.000442 631.20276 2108.60571
2819.0 0.000355 631.12714 2701.20093
3356.0 0.0002980 631.04877 3346.58984
3835.0 0.0002608 630.96741 3953.94360
4367.0 0.0002290 630.88306 4392.42041
4630.0 0.0002160 630.79578 4523.49805
4459.0 0.0002243 630.70551 4282.85254
4014.0 0.0002491 630.61224 3735.26221
3207.0 0.0003118 630.51587 3032.93433
2393.0 0.000418 630.41644 2350.78735
1842.0 0.000543 630.31390 1812.77722
1480.0 0.000676 630.20837 1469.52771
1318.0 0.000759 630.09967 1315.06885
1275.0 0.000784 629.98785 1312.46619
1476.0 0.000678 629.87286 1416.31775
1627.0 0.000615 629.75476 1589.50085
1966.0 0.000509 629.63336 1817.18982
2255.0 0.000443 629.50879 2123.19067
2659.0 0.000376 629.38104 2565.56079
3248.0 0.0003079 629.25006 3176.51514
4014.0 0.0002491 629.11584 3894.57617
4612.0 0.0002168 628.97833 4541.38086
4879.0 0.0002050 628.83759 4873.07080
5071.0 0.0001972 628.69348 4746.00049
4545.0 0.0002200 628.54614 4273.62305
3801.0 0.0002631 628.39545 3728.18872
3385.0 0.0002954 628.24158 3342.38110
3413.0 0.0002930 628.08429 3226.71289
3507.0 0.0002851 627.92358 3357.72534
3894.0 0.0002568 627.75964 3621.26367
3993.0 0.0002504 627.59229 3893.77417
4051.0 0.0002469 627.42163 4088.87158
3885.0 0.0002574 627.24756 4101.12695
3903.0 0.0002562 627.07013 3837.43237
3320.0 0.0003012 626.88934 3311.62085
2637.0 0.000379 626.70514 2662.41797
1983.0 0.000504 626.51758 2042.40002
1477.0 0.000677 626.32660 1549.84607
1195.0 0.000837 626.13226 1217.26270
1014.0 0.000986 625.93451 1031.36487
986.0 0.001014 625.73328 954.58142
965.0 0.001036 625.52869 945.52051
1036.0 0.000965 625.32068 967.45795
1028.0 0.000973 625.10938 989.14581
1048.0 0.000954 624.89453 986.43933
1019.0 0.000981 624.67633 951.14398
937.0 0.001067 624.45477 893.90723
818.0 0.001222 624.22974 831.96710
780.0 0.001282 624.00134 778.65833
788.0 0.001269 623.76959 740.53094
795.0 0.001258 623.53436 718.16010
727.0 0.001376 623.29578 708.51953
720.0 0.001389 623.05383 707.25256
760.0 0.001316 622.80853 709.88953
753.0 0.001328 622.55981 712.23291
707.0 0.001414 622.30774 711.00153
716.0 0.001397 622.05231 705.04938
742.0 0.001348 621.79346 696.13220
734.0 0.001362 621.53131 686.26007
686.0 0.001458 621.26587 678.40955
747.0 0.001339 620.99701 672.90381
747.0 0.001339 620.72491 668.13989
724.0 0.001381 620.44946 666.94049
724.0 0.001381 620.17072 666.15735
733.0 0.001364 619.88873 667.48950
712.0 0.001404 619.60339 669.93341
707.0 0.001414 619.31482 673.89417
755.0 0.001325 619.02295 680.30231
782.0 0.001279 618.72791 690.83899
837.0 0.001195 618.42963 708.21661
871.0 0.001148 618.12817 736.41827
891.0 0.001122 617.82349 780.61298
1022.0 0.000978 617.51556 846.22998
1066.0 0.000938 617.20453 936.56372
1137.0 0.000880 616.89026 1052.41321
1267.0 0.000789 616.57294 1188.30347
1380.0 0.000725 616.25250 1334.13989
1455.0 0.000687 615.92889 1476.52588
1583.0 0.000632 615.60236 1607.72156
1720.0 0.000581 615.27258 1731.41968
1843.0 0.000543 614.93988 1859.73633
1864.0 0.000536 614.60413 1983.29846
2010.0 0.000498 614.26526 2100.25757
2261.0 0.000442 613.92358 2251.68457
2548.0 0.000392 613.57874 2513.47607
3140.0 0.0003185 613.23108 2926.90015
3752.0 0.0002665 612.88049 3445.58154
4075.0 0.0002454 612.52698 3923.37671
4209.0 0.0002376 612.17059 4161.55469
4066.0 0.0002459 611.81134 4042.86401
3799.0 0.0002632 611.44934 3651.07837
3273.0 0.0003055 611.08441 3169.93848
2793.0 0.000358 610.71674 2739.74951
2443.0 0.000409 610.34631 2401.92773
2141.0 0.000467 609.97308 2115.59668
1826.0 0.000548 609.59729 1829.99084
1578.0 0.000634 609.21875 1540.70825
1368.0 0.000731 608.83746 1273.80347
1134.0 0.000882 608.45361 1054.84705
973.0 0.001028 608.06714 897.26709
897.0 0.001115 607.67804 794.45898
815.0 0.001227 607.28644 733.61304
740.0 0.001351 606.89233 699.96234
733.0 0.001364 606.49579 681.40479
723.0 0.001383 606.09668 670.88947
673.0 0.001486 605.69513 665.28601
637.0 0.001570 605.29120 663.93341
657.0 0.001522 604.88483 667.37140
649.0 0.001541 604.47626 676.19342
646.0 0.001548 604.06519 689.87134
728.0 0.001374 603.65192 705.85986
685.0 0.001460 603.23633 719.35291
717.0 0.001395 602.81873 724.61096
745.0 0.001342 602.39874 717.71429
699.0 0.001431 601.97662 701.09161
699.0 0.001431 601.55237 680.44592
696.0 0.001437 601.12598 660.90656
633.0 0.001580 600.69757 645.41589
643.0 0.001555 600.26709 634.70856
632.0 0.001582 599.83466 628.03833
650.0 0.001538 599.40027 624.35272
606.0 0.001650 598.96393 622.05377
603.0 0.001658 598.52570 620.60828
612.0 0.001634 598.08551 619.61041
586.0 0.001706 597.64362 618.87604
581.0 0.001721 597.19983 618.33099
613.0 0.001631 596.75427 617.94977
595.0 0.001681 596.30707 617.72540
631.0 0.001585 595.85828 617.66119
623.0 0.001605 595.40765 617.76575
605.0 0.001653 594.95544 618.03320
617.0 0.001621 594.50159 618.53156
609.0 0.001642 594.04626 619.23419
615.0 0.001626 593.58942 620.25238
633.0 0.001580 593.13110 621.26398
623.0 0.001605 592.67126 623.05518
605.0 0.001653 592.21021 625.41724
627.0 0.001595 591.74774 628.65503
617.0 0.001621 591.28381 632.78510
622.0 0.001608 590.81873 640.83044
649.0 0.001541 590.35236 655.45953
701.0 0.001427 589.88470 682.71332
715.0 0.001399 589.41589 731.33514
830.0 0.001205 588.94598 810.58380
982.0 0.001018 588.47491 924.79724
1092.0 0.000916 588.00293 1067.07214
1234.0 0.000810 587.52985 1219.24280
1361.0 0.000735 587.05573 1347.49768
1428.0 0.000700 586.58063 1424.64880
1487.0 0.000672 586.10474 1460.87451
1458.0 0.000686 585.62781 1514.03723
1654.0 0.000605 585.15021 1653.91248
1920.0 0.000521 584.67169 1922.97058
2305.0 0.000434 584.19263 2300.99805
2800.0 0.000357 583.71265 2699.86523
3063.0 0.0003265 583.23199 2976.92456
3132.0 0.0003193 582.75079 3001.47559
2755.0 0.000363 582.26898 2752.39355
2131.0 0.000469 581.78662 2324.50293
1689.0 0.000592 581.30365 1848.28210
1347.0 0.000742 580.82025 1427.20337
1020.0 0.000980 580.33643 1113.44470
860.0 0.001163 579.85229 913.33105
795.0 0.001258 579.36768 807.32263
717.0 0.001395 578.88275 769.57587
717.0 0.001395 578.39746 778.42444
740.0 0.001351 577.91205 817.28070
847.0 0.001181 577.42633 870.61621
858.0 0.001166 576.94055 920.40820
842.0 0.001188 576.45459 947.26166
883.0 0.001133 575.96857 940.70599
909.0 0.001100 575.48248 912.15881
881.0 0.001135 574.99640 879.05957
857.0 0.001167 574.51025 862.65302
831.0 0.001203 574.02429 872.31903
849.0 0.001178 573.53833 896.57385
855.0 0.001170 573.05261 918.83899
832.0 0.001202 572.56702 917.34521
801.0 0.001248 572.08173 882.99683
787.0 0.001271 571.59668 825.35431
703.0 0.001422 571.11182 761.39575
654.0 0.001529 570.62738 704.70288
641.0 0.001560 570.14325 662.11639
606.0 0.001650 569.65967 634.29022
591.0 0.001692 569.17645 618.16315
544.0 0.001838 568.69366 609.69507
554.0 0.001805 568.21149 605.58844
548.0 0.001825 567.72998 603.78516
556.0 0.001799 567.24890 603.24420
528.0 0.001894 566.76855 603.55157
595.0 0.001681 566.28888 604.65332
552.0 0.001812 565.80988 606.80432
597.0 0.001675 565.33167 610.78302
620.0 0.001613 564.85419 618.44928
661.0 0.001513 564.37756 633.87250
691.0 0.001447 563.90192 663.28088
748.0 0.001337 563.42712 716.21106
852.0 0.001174 562.95313 801.94891
879.0 0.001138 562.48022 924.14044
1013.0 0.000987 562.00830 1074.10547
1088.0 0.000919 561.53741 1226.84692
1210.0 0.000826 561.06763 1343.49194
1327.0 0.000754 560.59894 1387.27881
1208.0 0.000828 560.13147 1355.04871
1260.0 0.000794 559.66516 1285.69934
1167.0 0.000857 559.20001 1227.56750
1155.0 0.000866 558.73608 1211.49365
1271.0 0.000787 558.27350 1237.73743
1329.0 0.000752 557.81226 1279.59009
1348.0 0.000742 557.35236 1294.24414
1340.0 0.000746 556.89386 1248.87354
1122.0 0.000891 556.43677 1147.02563
983.0 0.001017 555.98126 1017.91443
859.0 0.001164 555.52710 896.41357
798.0 0.001253 555.07446 800.57550
668.0 0.001497 554.62341 737.59576
639.0 0.001565 554.17401 704.23462
690.0 0.001449 553.72614 694.00195
702.0 0.001425 553.27991 702.61670
752.0 0.001330 552.83539 732.49030
817.0 0.001224 552.39264 796.60541
919.0 0.001088 551.95166 921.71313
1229.0 0.000814 551.51239 1148.04407
1650.0 0.000606 551.07489 1521.60339
2248.0 0.000445 550.63922 2072.59058
2954.0 0.0003385 550.20544 2794.90845
3643.0 0.0002745 549.77356 3622.28760
4349.0 0.0002299 549.34363 4422.03027
4752.0 0.0002104 548.91565 5028.04932
4958.0 0.0002017 548.48969 5339.56787
5107.0 0.0001958 548.06567 5351.26514
5021.0 0.0001992 547.64368 5065.38477
4620.0 0.0002165 547.22382 4485.92090
3816.0 0.0002621 546.80597 3704.30005
2978.0 0.0003358 546.39026 2879.25879
2171.0 0.000461 545.97668 2145.47510
1536.0 0.000651 545.56531 1574.67834
1148.0 0.000871 545.15619 1180.03381
957.0 0.001045 544.74921 934.48218
821.0 0.001218 544.34454 794.46381
700.0 0.001429 543.94208 719.02856
660.0 0.001515 543.54193 679.00897
635.0 0.001575 543.14410 658.71259
624.0 0.001603 542.74860 649.07629
653.0 0.001531 542.35553 649.48053
632.0 0.001582 541.96490 661.77893
671.0 0.001490 541.57660 688.44733
714.0 0.001401 541.19073 729.75739
763.0 0.001311 540.80731 781.08356
803.0 0.001245 540.42639 831.43958
825.0 0.001212 540.04803 864.55066
880.0 0.001136 539.67206 865.35016
803.0 0.001245 539.29877 831.75659
744.0 0.001344 538.92804 776.68005
658.0 0.001520 538.55981 716.80164
618.0 0.001618 538.19421 664.33795
622.0 0.001608 537.83124 626.14532
609.0 0.001642 537.47089 600.29187
610.0 0.001639 537.11322 585.40173
523.0 0.001912 536.75824 576.30316
598.0 0.001672 536.40594 572.68427
510.0 0.001961 536.05634 571.20996
547.0 0.001828 535.70959 569.68182
563.0 0.001776 535.36548 568.74597
574.0 0.001742 535.02411 571.01129
538.0 0.001859 534.68561 571.07062
588.0 0.001701 534.34979 571.08118
523.0 0.001912 534.01685 572.10010
592.0 0.001689 533.68671 573.80353
549.0 0.001821 533.35938 576.62671
556.0 0.001799 533.03497 581.62451
605.0 0.001653 532.71338 591.16174
597.0 0.001675 532.39471 611.19019
631.0 0.001585 532.07886 646.98761
731.0 0.001368 531.76599 710.17175
802.0 0.001247 531.45593 810.42511
928.0 0.001078 531.14886 950.47180
1143.0 0.000875 530.84479 1118.43005
1381.0 0.000724 530.54358 1284.11121
1473.0 0.000679 530.24536 1401.28174
1469.0 0.000681 529.95001 1426.78821
1354.0 0.000739 529.65778 1346.35730
1172.0 0.000853 529.36847 1196.79797
989.0 0.001011 529.08215 1027.56995
855.0 0.001170 528.79883 876.61230
794.0 0.001259 528.51849 763.12585
657.0 0.001522 528.24121 689.92780
642.0 0.001558 527.96698 649.41718
613.0 0.001631 527.69574 629.28229
604.0 0.001656 527.42755 626.64026
681.0 0.001468 527.16235 636.63580
661.0 0.001513 526.90021 663.11859
790.0 0.001266 526.64117 716.04523
869.0 0.001151 526.38513 810.38959
1044.0 0.000958 526.13220 963.24426
1291.0 0.000775 525.88232 1175.51611
1487.0 0.000672 525.63550 1434.04883
1740.0 0.000575 525.39178 1695.75684
1755.0 0.000570 525.15112 1892.27795
1851.0 0.000540 524.91345 1953.76672
1708.0 0.000585 524.67896 1857.84802
1572.0 0.000636 524.44745 1649.00549
1422.0 0.000703 524.21906 1400.31335
1271.0 0.000787 523.99377 1174.82471
1132.0 0.000883 523.77161 1011.60425
1007.0 0.000993 523.55243 928.40790
969.0 0.001032 523.33643 930.52209
1036.0 0.000965 523.12341 1023.12415
1256.0 0.000796 522.91345 1215.92041
1604.0 0.000623 522.70667 1511.58008
2055.0 0.000487 522.50287 1907.27515
2543.0 0.000393 522.30212 2381.86719
3130.0 0.0003195 522.10449 2897.42041
3492.0 0.0002864 521.90991 3419.05542
4008.0 0.0002495 521.71844 3948.42236
4473.0 0.0002236 521.52991 4507.39600
5099.0 0.0001961 521.34454 5084.10449
5667.0 0.0001765 521.16211 5613.18018
5922.0 0.0001689 520.98279 5994.93604
6234.0 0.0001604 520.80646 6139.27637
6100.0 0.0001639 520.63324 5983.83398
5634.0 0.0001775 520.46295 5498.84326
4766.0 0.0002098 520.29572 4752.44580
3770.0 0.0002653 520.13147 3933.91406
3127.0 0.0003198 519.97015 3238.56616
2539.0 0.000394 519.81195 2779.66968
2570.0 0.000389 519.65668 2569.80664
2592.0 0.000386 519.50433 2535.11133
2659.0 0.000376 519.35504 2551.60889
2686.0 0.000372 519.20868 2508.60620
2407.0 0.000415 519.06525 2383.00659
2228.0 0.000449 518.92468 2244.13477
2073.0 0.000482 518.78711 2188.94409
2167.0 0.000461 518.65247 2290.09839
2581.0 0.000387 518.52069 2572.90308
3089.0 0.0003237 518.39178 3003.07886
3577.0 0.0002796 518.26581 3490.38452
3933.0 0.0002543 518.14270 3916.70459
4015.0 0.0002491 518.02240 4197.92188
4265.0 0.0002345 517.90497 4340.59180
4296.0 0.0002328 517.79034 4391.68408
4402.0 0.0002272 517.67859 4347.63037
4250.0 0.0002353 517.56958 4147.92969
3882.0 0.0002576 517.46338 3768.42334
3317.0 0.0003015 517.35992 3299.70947
2857.0 0.0003500 517.25928 2894.23706
2586.0 0.000387 517.16132 2676.92773
2686.0 0.000372 517.06616 2698.83691
3030.0 0.0003300 516.97357 2918.93262
3436.0 0.0002910 516.88379 3210.26147
3785.0 0.0002642 516.79669 3394.89673
3620.0 0.0002762 516.71222 3325.47388
3118.0 0.0003207 516.63043 2988.36548
2420.0 0.000413 516.55121 2496.76465
1877.0 0.000533 516.47467 1989.74548
1495.0 0.000669 516.40070 1571.02612
1167.0 0.000857 516.32922 1290.27319
1074.0 0.000931 516.26038 1160.38232
1198.0 0.000835 516.19403 1169.91858
1312.0 0.000762 516.13025 1290.25842
1479.0 0.000676 516.06891 1502.20691
1835.0 0.000545 516.01013 1778.83911
1948.0 0.000513 515.95380 2085.02856
2448.0 0.000408 515.89984 2377.72437
2766.0 0.000362 515.84833 2597.17163
2879.0 0.0003473 515.79926 2665.69604
2684.0 0.000373 515.75250 2532.71753
2389.0 0.000419 515.70819 2231.66138
1781.0 0.000561 515.66608 1859.41357
1467.0 0.000682 515.62640 1500.63574
1162.0 0.000861 515.58905 1221.65442
1069.0 0.000935 515.55383 1051.54968
1029.0 0.000972 515.52094 998.43506
1080.0 0.000926 515.49023 1062.06665
1220.0 0.000820 515.46179 1231.35303
1505.0 0.000664 515.43549 1487.96716
1863.0 0.000537 515.41138 1791.20178
2131.0 0.000469 515.38940 2070.78296
2484.0 0.000403 515.36951 2236.12231
2447.0 0.000409 515.35168 2225.34668
2175.0 0.000460 515.33594 2043.23962
1744.0 0.000573 515.32227 1766.49988
1456.0 0.000687 515.31061 1486.36572
1251.0 0.000799 515.30090 1276.24255
1165.0 0.000858 515.29321 1186.59338
1303.0 0.000767 515.28741 1248.39807
1516.0 0.000660 515.28357 1482.25122
2007.0 0.000498 515.28162 1885.58997
2525.0 0.000396 515.28149 2423.36450
3217.0 0.0003108 515.28320 3011.29907
3752.0 0.0002665 515.28680 3514.33496
3988.0 0.0002508 515.29211 3782.13452
3755.0 0.0002663 515.29919 3724.34302
3323.0 0.0003009 515.30811 3372.13403
2673.0 0.000374 515.31860 2856.54834
2188.0 0.000457 515.33081 2328.66504
1841.0 0.000543 515.34473 1882.26501
1496.0 0.000668 515.36029 1548.94348
1303.0 0.000767 515.37738 1312.53699
1138.0 0.000879 515.39606 1138.93372
1039.0 0.000962 515.41632 1010.18896
848.0 0.001179 515.43811 914.00446
802.0 0.001247 515.46143 847.01056
788.0 0.001269 515.48615 810.49072
795.0 0.001258 515.51239 808.71259
871.0 0.001148 515.53998 851.38995
1058.0 0.000945 515.56897 957.43762
1282.0 0.000780 515.59930 1154.79224
1714.0 0.000583 515.63098 1486.05164
2370.0 0.000422 515.66394 1983.17029
2967.0 0.0003370 515.69818 2655.60229
3760.0 0.0002660 515.73370 3461.47168
4386.0 0.0002280 515.77039 4291.44482
4908.0 0.0002037 515.80835 4986.56445
5149.0 0.0001942 515.84741 5378.76758
5121.0 0.0001953 515.88763 5331.23584
4785.0 0.0002090 515.92889 4845.59326
4163.0 0.0002402 515.97131 4106.64844
3472.0 0.0002880 516.01471 3366.55444
3001.0 0.0003332 516.05914 2832.04614
2812.0 0.000356 516.10461 2620.66187
3005.0 0.0003328 516.15100 2751.21460
3280.0 0.0003049 516.19830 3146.08643
3630.0 0.0002755 516.24652 3654.83057
3668.0 0.0002726 516.29565 4074.98975
3719.0 0.0002689 516.34564 4222.30518
3669.0 0.0002726 516.39642 4039.98877
3410.0 0.0002933 516.44800 3629.26196
3244.0 0.0003083 516.50031 3138.73633
2934.0 0.0003408 516.55334 2668.87622
2578.0 0.000388 516.60712 2253.22754
2228.0 0.000449 516.66156 1888.45752
1776.0 0.000563 516.71661 1570.29919
1442.0 0.000693 516.77228 1300.06921
1117.0 0.000895 516.82855 1080.58765
963.0 0.001038 516.88544 912.08960
823.0 0.001215 516.94275 793.11316
756.0 0.001323 517.00067 715.96527
701.0 0.001427 517.05902 667.79144
633.0 0.001580 517.11780 639.84186
645.0 0.001550 517.17700 624.86090
633.0 0.001580 517.23657 623.66827
640.0 0.001563 517.29651 622.82050
624.0 0.001603 517.35675 625.43402
621.0 0.001610 517.41736 630.21320
633.0 0.001580 517.47815 632.75360
627.0 0.001595 517.53925 631.65393
628.0 0.001592 517.60052 625.32678
563.0 0.001776 517.66205 618.26959
604.0 0.001656 517.72369 611.27594
568.0 0.001761 517.78552 611.97949
607.0 0.001647 517.84735 622.33771
625.0 0.001600 517.90930 646.44952
675.0 0.001481 517.97131 686.46448
730.0 0.001370 518.03339 740.89087
816.0 0.001225 518.09540 802.60834
908.0 0.001101 518.15735 859.40210
923.0 0.001083 518.21930 894.39569
883.0 0.001133 518.28113 894.69159
872.0 0.001147 518.34283 861.43738
789.0 0.001267 518.40442 809.54309
750.0 0.001333 518.46582 757.56818
746.0 0.001340 518.52698 721.45947
683.0 0.001464 518.58795 713.52783
728.0 0.001374 518.64868 743.88391
817.0 0.001224 518.70911 817.95996
955.0 0.001047 518.76923 938.34863
1182.0 0.000846 518.82904 1097.78113
1409.0 0.000710 518.88849 1275.03198
1539.0 0.000650 518.94757 1433.28833
1529.0 0.000654 519.00623 1531.86841
1377.0 0.000726 519.06445 1536.30310
1323.0 0.000756 519.12219 1440.28784
1206.0 0.000829 519.17944 1284.81262
1054.0 0.000949 519.23621 1113.44226
937.0 0.001067 519.29248 962.69159
836.0 0.001196 519.34808 851.08264
758.0 0.001319 519.40320 780.50787
737.0 0.001357 519.45758 741.66858
697.0 0.001435 519.51141 721.17908
638.0 0.001567 519.56458 708.32892
672.0 0.001488 519.61707 698.60571
643.0 0.001555 519.66888 689.43115
662.0 0.001511 519.71991 689.04871
704.0 0.001420 519.77020 698.09259
712.0 0.001404 519.81970 721.93988
815.0 0.001227 519.86835 769.56671
819.0 0.001221 519.91626 855.23694
1034.0 0.000967 519.96326 1003.17169
1268.0 0.000789 520.00940 1243.73096
1657.0 0.000604 520.05469 1614.76233
2096.0 0.000477 520.09906 2154.91943
2803.0 0.000357 520.14246 2891.44824
3661.0 0.0002731 520.18488 3818.93872
4994.0 0.0002002 520.22638 4882.78857
6256.0 0.0001598 520.26678 5979.46777
7029.0 0.0001423 520.30621 6943.73535
7588.0 0.0001318 520.34460 7536.80420
7297.0 0.0001370 520.38196 7540.70361
6473.0 0.0001545 520.41821 6940.85303
5586.0 0.0001790 520.45331 5935.48291
4540.0 0.0002203 520.48730 4774.55713
3458.0 0.0002892 520.52020 3669.06592
2763.0 0.000362 520.55188 2760.82178
2096.0 0.000477 520.58240 2102.59473
1708.0 0.000585 520.61163 1671.27930
1421.0 0.000704 520.63971 1402.73682
1291.0 0.000775 520.66656 1226.24988
1156.0 0.000865 520.69208 1091.51160
917.0 0.001091 520.71637 977.03229
838.0 0.001193 520.73932 879.37225
800.0 0.001250 520.76099 801.46405
728.0 0.001374 520.78131 746.88428
770.0 0.001299 520.80029 718.47162
788.0 0.001269 520.81787 718.51642
856.0 0.001168 520.83411 751.18744
884.0 0.001131 520.84888 818.29736
950.0 0.001053 520.86230 919.04840
1052.0 0.000951 520.87421 1043.67786
1213.0 0.000824 520.88477 1170.76099
1332.0 0.000751 520.89380 1269.23059
1373.0 0.000728 520.90131 1302.17151
1394.0 0.000717 520.90735 1254.96973
1218.0 0.000821 520.91187 1145.07458
1036.0 0.000965 520.91492 1007.77948
866.0 0.001155 520.91638 874.76892
757.0 0.001321 520.91626 765.60388
680.0 0.001471 520.91461 687.24353
671.0 0.001490 520.91138 641.18494
621.0 0.001610 520.90656 611.67529
578.0 0.001730 520.90002 594.68591
566.0 0.001767 520.89197 584.18243
562.0 0.001779 520.88226 576.78351
527.0 0.001898 520.87091 571.02704
599.0 0.001669 520.85791 566.40759
567.0 0.001764 520.84320 562.76593
538.0 0.001859 520.82678 559.93408
548.0 0.001825 520.80865 559.11664
552.0 0.001812 520.78888 557.70221
562.0 0.001779 520.76740 556.72308
570.0 0.001754 520.74420 556.07587
596.0 0.001678 520.71918 555.69788
559.0 0.001789 520.69244 555.58734
605.0 0.001653 520.66400 555.68671
563.0 0.001776 520.63373 556.05420
576.0 0.001736 520.60175 556.78125
569.0 0.001757 520.56787 558.08240
531.0 0.001883 520.53229 560.40338
498.0 0.002008 520.49487 564.55115
557.0 0.001795 520.45569 571.76758
575.0 0.001739 520.41461 582.53766
568.0 0.001761 520.37177 600.32324
595.0 0.001681 520.32709 625.24176
593.0 0.001686 520.28052 653.72375
577.0 0.001733 520.23218 677.02930
604.0 0.001656 520.18195 699.67639
643.0 0.001555 520.12982 709.20740
624.0 0.001603 520.07587 709.87115
613.0 0.001631 520.02008 691.94916
604.0 0.001656 519.96234 669.47174
595.0 0.001681 519.90271 649.12134
599.0 0.001669 519.84131 635.48291
611.0 0.001637 519.77795 631.12903
580.0 0.001724 519.71265 637.42151
611.0 0.001637 519.64551 655.29114
655.0 0.001527 519.57642 687.44543
715.0 0.001399 519.50549 735.86755
777.0 0.001287 519.43262 803.48792
884.0 0.001131 519.35779 892.34998
1047.0 0.000955 519.28107 1003.78253
1223.0 0.000818 519.20251 1138.17834
1337.0 0.000748 519.12195 1293.41602
1509.0 0.000663 519.03949 1465.34583
1766.0 0.000566 518.95508 1652.12500
2036.0 0.000491 518.86877 1851.71021
2179.0 0.000459 518.78052 2051.37354
2243.0 0.000446 518.69037 2227.72925
2234.0 0.000448 518.59827 2369.90576
2385.0 0.000419 518.50427 2517.91797
2577.0 0.000388 518.40839 2765.11865
3145.0 0.0003180 518.31049 3203.74561
3994.0 0.0002504 518.21069 3855.35327
5107.0 0.0001958 518.10895 4653.65918
5997.0 0.0001668 518.00531 5426.05127
6460.0 0.0001548 517.89972 5929.08154
6265.0 0.0001596 517.79224 5952.51514
5525.0 0.0001810 517.68286 5468.44141
4716.0 0.0002120 517.57153 4668.40332
3790.0 0.0002639 517.45825 3807.26367
3033.0 0.0003297 517.34314 3081.81177
2602.0 0.000384 517.22607 2590.20313
2525.0 0.000396 517.10706 2330.61035
2093.0 0.000478 516.98621 2227.23535
1867.0 0.000536 516.86340 2170.72168
1801.0 0.000555 516.73871 2065.06763
1643.0 0.000609 516.61212 1881.80872
1588.0 0.000630 516.48364 1650.02100
1347.0 0.000742 516.35333 1415.36255
1368.0 0.000731 516.22113 1213.96094
1207.0 0.000829 516.08704 1065.45837
1129.0 0.000886 515.95105 975.68585
1026.0 0.000975 515.81317 943.64648
1064.0 0.000940 515.67346 968.96942
1068.0 0.000936 515.53192 1057.26135
1268.0 0.000789 515.38855 1222.36523
1603.0 0.000624 515.24329 1488.95105
2019.0 0.000495 515.09619 1884.24329
2613.0 0.000383 514.94733 2449.14258
3387.0 0.0002952 514.79657 3221.16333
4394.0 0.0002276 514.64404 4220.28809
5554.0 0.0001801 514.48969 5431.25098
6679.0 0.0001497 514.33356 6770.09961
8120.0 0.0001232 514.17566 8037.24756
9193.0 0.0001088 514.01587 8912.84375
9244.0 0.0001082 513.85443 9065.59766
8721.0 0.0001147 513.69116 8387.97266
7127.0 0.0001403 513.52612 7105.72266
5252.0 0.0001904 513.35931 5591.64893
3699.0 0.0002703 513.19080 4162.94531
2713.0 0.000369 513.02057 3008.97510
1997.0 0.000501 512.84863 2189.49731
1670.0 0.000599 512.67499 1667.77722
1398.0 0.000715 512.49957 1358.82275
1192.0 0.000839 512.32251 1177.06274
1077.0 0.000929 512.14374 1062.94202
994.0 0.001006 511.96332 986.56641
922.0 0.001085 511.78125 938.63708
958.0 0.001044 511.59750 922.37683
1040.0 0.000962 511.41214 950.26001
1127.0 0.000887 511.22516 1044.27209
1377.0 0.000726 511.03653 1232.50134
1676.0 0.000597 510.84628 1546.40247
2150.0 0.000465 510.65445 2005.50720
2761.0 0.000362 510.46103 2600.61890
3361.0 0.0002975 510.26605 3277.50586
4123.0 0.0002425 510.06949 3939.91162
4639.0 0.0002156 509.87143 4458.48389
5045.0 0.0001982 509.67184 4732.70752
4878.0 0.0002050 509.47070 4753.44678
4661.0 0.0002145 509.26801 4616.08301
4245.0 0.0002356 509.06384 4413.40088
3957.0 0.0002527 508.85822 4166.23389
3660.0 0.0002732 508.65112 3851.43066
3374.0 0.0002964 508.44254 3437.30127
2824.0 0.000354 508.23254 2955.60962
2478.0 0.000404 508.02112 2468.86499
1941.0 0.000515 507.80826 2027.50305
1609.0 0.000622 507.59402 1659.96130
1369.0 0.000730 507.37836 1379.47083
1210.0 0.000826 507.16132 1188.96082
1125.0 0.000889 506.94293 1081.95593
1120.0 0.000893 506.72318 1050.89368
1075.0 0.000930 506.50211 1082.57471
1258.0 0.000795 506.27979 1163.98438
1344.0 0.000744 506.05609 1282.06995
1470.0 0.000680 505.83112 1426.41821
1706.0 0.000586 505.60486 1595.74939
1855.0 0.000539 505.37732 1805.67505
2021.0 0.000495 505.14856 2080.60693
2440.0 0.000410 504.91858 2426.32080
2875.0 0.0003478 504.68741 2805.97144
3270.0 0.0003058 504.45499 3134.72217
3372.0 0.0002966 504.22147 3302.38062
3201.0 0.0003124 503.98672 3229.92358
2883.0 0.0003469 503.75085 2936.16528
2379.0 0.000420 503.51379 2524.54150
1883.0 0.000531 503.27563 2117.30249
1614.0 0.000620 503.03638 1819.42615
1578.0 0.000634 502.79602 1700.63965
1736.0 0.000576 502.55460 1795.62561
2091.0 0.000478 502.31219 2098.46240
2707.0 0.000369 502.06870 2560.53809
3401.0 0.0002940 501.82416 3099.89551
4011.0 0.0002493 501.57861 3575.93652
4447.0 0.0002249 501.33206 3834.72388
4097.0 0.0002441 501.08456 3770.31665
3679.0 0.0002718 500.83609 3402.51440
2896.0 0.0003453 500.58667 2855.54639
2314.0 0.000432 500.33640 2270.13184
1733.0 0.000577 500.08517 1748.81519
1383.0 0.000723 499.83304 1346.61426
1027.0 0.000974 499.58002 1073.84338
901.0 0.001110 499.32617 914.56158
841.0 0.001189 499.07144 839.65088
836.0 0.001196 498.81592 824.62683
841.0 0.001189 498.55957 850.39709
866.0 0.001155 498.30246 903.20355
894.0 0.001119 498.04462 970.08661
945.0 0.001058 497.78598 1039.61658
976.0 0.001025 497.52658 1100.26013
1135.0 0.000881 497.26645 1144.63354
1155.0 0.000866 497.00562 1179.15320
1189.0 0.000841 496.74411 1227.31067
1280.0 0.000781 496.48193 1315.50818
1519.0 0.000658 496.21909 1468.32288
1646.0 0.000608 495.95569 1680.91663
1850.0 0.000541 495.69159 1928.79797
2099.0 0.000476 495.42688 2169.58862
2231.0 0.000448 495.16159 2361.28589
2330.0 0.000429 494.89572 2495.85498
2522.0 0.000397 494.62933 2630.54834
2850.0 0.000351 494.36237 2844.44507
3280.0 0.0003049 494.09491 3197.75806
3866.0 0.0002587 493.82700 3698.33569
4537.0 0.0002204 493.55856 4285.92920
5147.0 0.0001943 493.28970 4836.32031
5484.0 0.0001823 493.02032 5171.48193
5630.0 0.0001776 492.75052 5130.11621
5076.0 0.0001970 492.48032 4683.39893
3957.0 0.0002527 492.20969 3961.22339
2934.0 0.0003408 491.93872 3148.05737
2079.0 0.000481 491.66736 2393.94531
1505.0 0.000664 491.39569 1785.99829
1184.0 0.000845 491.12366 1350.35229
989.0 0.001011 490.85132 1069.10962
862.0 0.001160 490.57867 903.28369
750.0 0.001333 490.30573 812.08130
725.0 0.001379 490.03253 764.30042
753.0 0.001328 489.75912 741.14166
732.0 0.001366 489.48544 737.43640
718.0 0.001393 489.21158 757.89746
751.0 0.001332 488.93750 814.93695
862.0 0.001160 488.66324 925.92822
1034.0 0.000967 488.38879 1108.07947
1287.0 0.000777 488.11420 1369.88647
1633.0 0.000612 487.83948 1700.75000
2088.0 0.000479 487.56464 2062.80322
2458.0 0.000407 487.28970 2390.79248
2646.0 0.000378 487.01474 2595.18188
2657.0 0.000376 486.73962 2609.06616
2308.0 0.000433 486.46445 2426.19678
1972.0 0.000507 486.18930 2108.54639
1558.0 0.000642 485.91403 1740.74207
1310.0 0.000763 485.63885 1397.35876
1065.0 0.000939 485.36365 1118.85535
888.0 0.001126 485.08841 921.12457
781.0 0.001280 484.81326 795.31799
766.0 0.001305 484.53824 727.81165
743.0 0.001346 484.26321 702.76172
736.0 0.001359 483.98828 708.92303
777.0 0.001287 483.71341 740.74896
821.0 0.001218 483.43869 797.49353
892.0 0.001121 483.16406 881.36902
1058.0 0.000945 482.88962 995.03876
1207.0 0.000829 482.61533 1142.32129
1436.0 0.000696 482.34125 1328.14771
1647.0 0.000607 482.06729 1548.71936
1974.0 0.000507 481.79355 1791.10730
2309.0 0.000433 481.52002 2033.60889
2399.0 0.000417 481.24677 2254.70020
2406.0 0.000416 480.97366 2428.40552
2418.0 0.000414 480.70090 2525.13574
2339.0 0.000428 480.42834 2517.37427
2384.0 0.000419 480.15619 2406.38257
2232.0 0.000448 479.88425 2221.25391
2005.0 0.000499 479.61258 1997.40430
1919.0 0.000521 479.34128 1755.76978
1614.0 0.000620 479.07028 1512.38257
1393.0 0.000718 478.79968 1287.22766
1157.0 0.000864 478.52942 1095.39807
926.0 0.001080 478.25952 946.51270
848.0 0.001179 477.99005 841.74817
772.0 0.001295 477.72101 777.84961
774.0 0.001292 477.45230 752.37128
788.0 0.001269 477.18405 764.92938
856.0 0.001168 476.91623 823.45752
978.0 0.001022 476.64886 944.36719
1220.0 0.000820 476.38196 1151.55493
1585.0 0.000631 476.11551 1473.63550
2041.0 0.000490 475.84958 1927.53577
2634.0 0.000380 475.58414 2507.12988
3357.0 0.0002979 475.31921 3168.00830
3770.0 0.0002653 475.05475 3820.45483
4173.0 0.0002396 474.79086 4344.35254
4341.0 0.0002304 474.52753 4626.11768
4269.0 0.0002342 474.26468 4597.87939
4210.0 0.0002375 474.00241 4263.52686
3746.0 0.0002670 473.74072 3709.82422
3133.0 0.0003192 473.47971 3056.46362
2470.0 0.000405 473.21918 2424.15234
1881.0 0.000532 472.95929 1897.26648
1609.0 0.000622 472.69998 1514.73474
1367.0 0.000732 472.44128 1277.54944
1218.0 0.000821 472.18323 1161.91150
1165.0 0.000858 471.92584 1132.15918
1108.0 0.000903 471.66907 1151.12585
1202.0 0.000832 471.41296 1188.13940
1202.0 0.000832 471.15756 1229.32935
1264.0 0.000791 470.90283 1284.67725
1399.0 0.000715 470.64874 1389.25098
1652.0 0.000605 470.39536 1584.54456
2085.0 0.000480 470.14267 1901.43591
2509.0 0.000399 469.89072 2344.25244
2881.0 0.0003471 469.63943 2876.76392
3376.0 0.0002962 469.38889 3419.58325
3600.0 0.0002778 469.13913 3863.65015
3828.0 0.0002612 468.89008 4102.32422
3767.0 0.0002655 468.64175 4078.36548
3681.0 0.0002717 468.39420 3836.05908
3310.0 0.0003021 468.14737 3506.23853
3134.0 0.0003191 467.90131 3222.72900
3040.0 0.0003289 467.65607 3066.30420
2856.0 0.0003501 467.41159 3044.18677
3109.0 0.0003216 467.16794 3093.97876
3116.0 0.0003209 466.92502 3108.23242
3027.0 0.0003304 466.68292 2989.71094
2751.0 0.000364 466.44159 2714.54199
2222.0 0.000450 466.20108 2335.51123
1910.0 0.000524 465.96140 1931.95618
1391.0 0.000719 465.72253 1572.51257
1140.0 0.000877 465.48450 1302.73535
1037.0 0.000964 465.24731 1145.30896
1052.0 0.000951 465.01099 1106.43042
1107.0 0.000903 464.77545 1183.68384
1326.0 0.000754 464.54077 1368.30469
1628.0 0.000614 464.30692 1645.80542
1928.0 0.000519 464.07394 1990.12097
2365.0 0.000423 463.84183 2358.79858
2816.0 0.000355 463.61053 2695.80786
3059.0 0.0003269 463.38013 2948.44995
3193.0 0.0003132 463.15063 3096.63110
3293.0 0.0003037 462.92200 3145.50122
3227.0 0.0003099 462.69421 3103.58740
3241.0 0.0003085 462.46725 2982.28320
3023.0 0.0003308 462.24121 2819.17285
2648.0 0.000378 462.01608 2662.53931
2403.0 0.000416 461.79184 2540.97217
2322.0 0.000431 461.56845 2450.64893
2203.0 0.000454 461.34601 2371.57690
2118.0 0.000472 461.12439 2290.26465
2122.0 0.000471 460.90369 2202.16138
2080.0 0.000481 460.68390 2099.32764
1980.0 0.000505 460.46497 1970.74084
1777.0 0.000563 460.24695 1811.96313
1685.0 0.000593 460.02985 1631.65173
1573.0 0.000636 459.81366 1452.03247
1358.0 0.000736 459.59830 1297.85034
1281.0 0.000781 459.38394 1186.96484
1183.0 0.000845 459.17044 1124.01660
1213.0 0.000824 458.95786 1105.15588
1186.0 0.000843 458.74615 1119.18884
1229.0 0.000814 458.53534 1150.31702
1232.0 0.000812 458.32544 1180.14941
1197.0 0.000835 458.11646 1196.33167
1202.0 0.000832 457.90836 1192.97424
1209.0 0.000827 457.70123 1169.12512
1109.0 0.000902 457.49490 1121.78259
1110.0 0.000901 457.28952 1053.87964
1000.0 0.001000 457.08505 977.65900
924.0 0.001082 456.88144 912.71777
918.0 0.001089 456.67874 878.31500
931.0 0.001074 456.47699 888.86902
954.0 0.001048 456.27606 951.09491
1101.0 0.000908 456.07611 1061.31030
1208.0 0.000828 455.87701 1203.74622
1305.0 0.000766 455.67877 1350.64038
1371.0 0.000729 455.48145 1465.29651
1320.0 0.000758 455.28497 1514.80981
1382.0 0.000724 455.08942 1487.91284
1292.0 0.000774 454.89468 1399.90259
1226.0 0.000816 454.70090 1276.07202
1133.0 0.000883 454.50793 1136.73340
1026.0 0.000975 454.31592 997.21631
903.0 0.001107 454.12469 870.79114
775.0 0.001290 453.93436 765.97803
719.0 0.001391 453.74487 688.04828
632.0 0.001582 453.55624 632.18530
613.0 0.001631 453.36850 600.51520
575.0 0.001739 453.18158 586.64911
602.0 0.001661 452.99551 585.25879
612.0 0.001634 452.81033 590.93146
644.0 0.001553 452.62595 598.52435
595.0 0.001681 452.44241 603.53534
612.0 0.001634 452.25967 605.16632
597.0 0.001675 452.07776 605.39355
622.0 0.001608 451.89667 614.04346
696.0 0.001437 451.71643 636.57385
714.0 0.001401 451.53696 677.73669
761.0 0.001314 451.35834 737.90039
804.0 0.001244 451.18051 811.30103
894.0 0.001119 451.00345 885.53583
890.0 0.001124 450.82721 942.75330
949.0 0.001054 450.65170 964.72528
982.0 0.001018 450.47705 943.17487
851.0 0.001175 450.30310 886.41156
769.0 0.001300 450.12997 812.42426
753.0 0.001328 449.95755 738.50684
624.0 0.001603 449.78598 676.59906
610.0 0.001639 449.61508 630.34198
589.0 0.001698 449.44495 600.83344
541.0 0.001848 449.27551 583.36188
544.0 0.001838 449.10684 571.56226
558.0 0.001792 448.93890 561.51575
554.0 0.001805 448.77164 554.87823
515.0 0.001942 448.60513 552.18201
550.0 0.001818 448.43933 556.32666
512.0 0.001953 448.27420 571.02423
592.0 0.001689 448.10980 599.77454
632.0 0.001582 447.94601 648.22253
771.0 0.001297 447.78299 719.25165
818.0 0.001222 447.62057 814.16956
893.0 0.001120 447.45883 931.72815
1132.0 0.000883 447.29773 1064.14783
1177.0 0.000850 447.13733 1200.79858
1253.0 0.000798 446.97751 1327.73706
1320.0 0.000758 446.81836 1433.48340
1339.0 0.000747 446.65985 1506.07629
1570.0 0.000637 446.50189 1539.89746
1532.0 0.000653 446.34454 1550.21924
1659.0 0.000603 446.18787 1566.39600
1707.0 0.000586 446.03174 1619.30847
1751.0 0.000571 445.87622 1718.94092
1918.0 0.000521 445.72128 1849.53381
2008.0 0.000498 445.56686 1970.84631
2073.0 0.000482 445.41302 2031.59204
2045.0 0.000489 445.25974 1993.83594
1800.0 0.000556 445.10699 1853.67639
1704.0 0.000587 444.95477 1640.61023
1462.0 0.000684 444.80313 1400.35840
1200.0 0.000833 444.65195 1175.90222
983.0 0.001017 444.50134 995.72705
867.0 0.001153 444.35120 873.30292
852.0 0.001174 444.20151 809.99878
871.0 0.001148 444.05237 800.00897
858.0 0.001166 443.90366 835.28088
917.0 0.001091 443.75543 909.05530
947.0 0.001056 443.60764 1016.50073
1091.0 0.000917 443.46033 1157.03650
1264.0 0.000791 443.31348 1331.26953
1506.0 0.000664 443.16702 1539.63403
1688.0 0.000592 443.02100 1779.43628
2073.0 0.000482 442.87537 2031.09851
2395.0 0.000418 442.73016 2253.87842
2609.0 0.000383 442.58533 2394.85962
2530.0 0.000395 442.44089 2410.45483
2353.0 0.000425 442.29684 2293.86401
2068.0 0.000484 442.15314 2081.50562
1832.0 0.000546 442.00983 1826.86499
1572.0 0.000636 441.86682 1573.79041
1348.0 0.000742 441.72418 1348.08691
1122.0 0.000891 441.58188 1158.52124
1021.0 0.000979 441.43988 1004.34625
894.0 0.001119 441.29819 879.19830
807.0 0.001239 441.15683 780.94397
674.0 0.001484 441.01575 706.89282
643.0 0.001555 440.87497 655.12030
596.0 0.001678 440.73444 622.79004
599.0 0.001669 440.59418 609.05402
619.0 0.001616 440.45416 613.83508
683.0 0.001464 440.31442 638.97583
683.0 0.001464 440.17490 688.57623
785.0 0.001274 440.03558 768.02020
864.0 0.001157 439.89655 883.29242
1019.0 0.000981 439.75769 1035.25684
1276.0 0.000784 439.61905 1217.45740
1440.0 0.000694 439.48059 1412.86145
1661.0 0.000602 439.34229 1593.30908
1823.0 0.000549 439.20419 1725.92798
1922.0 0.000520 439.06625 1787.11499
1860.0 0.000538 438.92847 1769.79834
1744.0 0.000573 438.79080 1671.43176
1571.0 0.000637 438.65332 1513.67859
1382.0 0.000724 438.51593 1329.76514
1134.0 0.000882 438.37866 1154.97656
976.0 0.001025 438.24155 1015.68652
975.0 0.001026 438.10446 927.19867
972.0 0.001029 437.96750 895.59967
992.0 0.001008 437.83063 920.52631
1104.0 0.000906 437.69382 997.60388
1222.0 0.000818 437.55707 1121.59668
1287.0 0.000777 437.42041 1286.91626
1476.0 0.000678 437.28375 1485.36951
1573.0 0.000636 437.14716 1703.31458
1773.0 0.000564 437.01056 1925.49512
2016.0 0.000496 436.87402 2136.97900
2258.0 0.000443 436.73749 2320.97827
2394.0 0.000418 436.60095 2445.23926
2542.0 0.000393 436.46442 2467.88501
2592.0 0.000386 436.32785 2361.22705
2306.0 0.000434 436.19128 2143.95508
2039.0 0.000490 436.05466 1871.70972
1676.0 0.000597 435.91803 1603.86487
1375.0 0.000727 435.78128 1383.14478
1270.0 0.000787 435.64453 1229.13831
1168.0 0.000856 435.50769 1141.45886
1134.0 0.000882 435.37079 1100.09155
1128.0 0.000887 435.23383 1078.57031
1087.0 0.000920 435.09680 1052.26062
1047.0 0.000955 434.95959 1012.09106
1012.0 0.000988 434.82236 966.06818
919.0 0.001088 434.68497 932.56213
918.0 0.001089 434.54742 929.92151
1021.0 0.000979 434.40979 973.59479
1145.0 0.000873 434.27200 1069.22021
1345.0 0.000743 434.13412 1209.62109
1428.0 0.000700 433.99606 1373.46045
1501.0 0.000666 433.85782 1526.47083
1518.0 0.000659 433.71942 1626.88672
1493.0 0.000670 433.58087 1643.03467
1443.0 0.000693 433.44211 1569.52686
1322.0 0.000756 433.30313 1437.70862
1282.0 0.000780 433.16400 1291.72510
1168.0 0.000856 433.02466 1173.21729
1151.0 0.000869 432.88510 1113.34253
1096.0 0.000912 432.74536 1135.56213
1266.0 0.000790 432.60535 1240.47107
1413.0 0.000708 432.46512 1421.58533
1614.0 0.000620 432.32465 1656.23938
2000.0 0.000500 432.18396 1908.66943
2342.0 0.000427 432.04297 2131.53662
2439.0 0.000410 431.90173 2272.27319
2430.0 0.000412 431.76025 2301.05127
2342.0 0.000427 431.61853 2224.89258
2055.0 0.000487 431.47647 2073.84546
1856.0 0.000539 431.33417 1878.27393
1599.0 0.000625 431.19159 1661.02417
1356.0 0.000737 431.04868 1449.18701
1246.0 0.000803 430.90549 1270.92456
1132.0 0.000883 430.76196 1151.79431
1148.0 0.000871 430.61813 1115.72302
1248.0 0.000801 430.47406 1188.67676
1385.0 0.000722 430.32956 1398.91370
1733.0 0.000577 430.18478 1771.04919
2382.0 0.000420 430.03967 2313.54810
2998.0 0.0003336 429.89423 3003.00269
3734.0 0.0002678 429.74841 3770.89917
4489.0 0.0002228 429.60226 4498.36621
5212.0 0.0001919 429.45575 5029.26367
5370.0 0.0001862 429.30893 5211.90381
5106.0 0.0001958 429.16168 4985.07861
4409.0 0.0002268 429.01410 4426.50049
3446.0 0.0002902 428.86615 3692.60547
2736.0 0.000365 428.71780 2936.96021
2109.0 0.000474 428.56909 2269.32764
1700.0 0.000588 428.41998 1747.66406
1310.0 0.000763 428.27048 1384.50415
1112.0 0.000899 428.12061 1161.72986
1082.0 0.000924 427.97037 1048.12573
1013.0 0.000987 427.81964 1012.54382
1049.0 0.000953 427.66858 1028.06409
1016.0 0.000984 427.51706 1070.68018
1110.0 0.000901 427.36517 1116.81543
1140.0 0.000877 427.21283 1142.46497
1131.0 0.000884 427.06012 1131.32410
1147.0 0.000872 426.90692 1079.22278
954.0 0.001048 426.75339 995.27509
898.0 0.001114 426.59937 899.57922
807.0 0.001239 426.44492 806.90192
719.0 0.001391 426.29004 730.83783
613.0 0.001631 426.13474 675.51801
570.0 0.001754 425.97897 642.49841
603.0 0.001658 425.82281 631.83691
663.0 0.001508 425.66620 643.48578
704.0 0.001420 425.50916 679.09454
706.0 0.001416 425.35162 740.52234
814.0 0.001229 425.19366 828.05829
985.0 0.001015 425.03525 937.86237
1128.0 0.000887 424.87637 1061.71509
1250.0 0.000800 424.71704 1186.14563
1340.0 0.000746 424.55731 1293.46692
1347.0 0.000742 424.39706 1373.11035
1422.0 0.000703 424.23639 1431.68652
1562.0 0.000640 424.07526 1490.47668
1474.0 0.000678 423.91367 1578.43896
1630.0 0.000613 423.75159 1713.98914
1801.0 0.000555 423.58908 1901.16248
2035.0 0.000491 423.42609 2126.09302
2303.0 0.000434 423.26266 2365.89673
2584.0 0.000387 423.09872 2603.38306
2827.0 0.000354 422.93436 2840.05322
2985.0 0.0003350 422.76953 3094.32080
3482.0 0.0002872 422.60425 3372.96240
3908.0 0.0002559 422.43848 3650.96997
4266.0 0.0002344 422.27228 3871.28467
4441.0 0.0002252 422.10556 3971.25977
4437.0 0.0002254 421.93845 3928.25806
3922.0 0.0002550 421.77081 3772.25269
3456.0 0.0002894 421.60275 3549.20483
3081.0 0.0003246 421.43423 3292.38110
2754.0 0.000363 421.26523 3025.04956
2473.0 0.000404 421.09579 2772.74902
2312.0 0.000433 420.92587 2547.67847
2110.0 0.000474 420.75549 2340.82446
2058.0 0.000486 420.58466 2128.26611
1848.0 0.000541 420.41339 1892.60669
1654.0 0.000605 420.24164 1640.14392
1474.0 0.000678 420.06946 1390.38660
1274.0 0.000785 419.89685 1163.83984
965.0 0.001036 419.72379 974.17316
851.0 0.001175 419.55023 827.03674
689.0 0.001451 419.37625 720.97430
623.0 0.001605 419.20181 649.63715
591.0 0.001692 419.02698 604.57794
611.0 0.001637 418.85165 577.64447
585.0 0.001709 418.67593 562.36414
517.0 0.001934 418.49979 554.52753
573.0 0.001745 418.32321 551.06439
467.0 0.002141 418.14615 546.96057
558.0 0.001792 417.96869 549.82867
569.0 0.001757 417.79080 555.93634
594.0 0.001684 417.61252 566.80371
609.0 0.001642 417.43381 585.26855
665.0 0.001504 417.25467 616.49274
768.0 0.001302 417.07520 669.17987
858.0 0.001166 416.89523 756.83667
1027.0 0.000974 416.71487 897.39954
1249.0 0.000801 416.53412 1111.84985
1640.0 0.000610 416.35297 1417.74390
2067.0 0.000484 416.17145 1821.05835
2481.0 0.000403 415.98950 2306.07349
2837.0 0.000352 415.80719 2827.34302
3034.0 0.0003296 415.62448 3307.74365
3202.0 0.0003123 415.44144 3647.90332
3131.0 0.0003194 415.25800 3759.34937
3072.0 0.0003255 415.07419 3611.27905
2887.0 0.0003464 414.88998 3254.81152
2571.0 0.000389 414.70544 2789.59302
2299.0 0.000435 414.52057 2314.25464
2003.0 0.000499 414.33533 1900.64966
1736.0 0.000576 414.14972 1588.37097
1716.0 0.000583 413.96381 1389.36353
1600.0 0.000625 413.77756 1298.06250
1510.0 0.000662 413.59097 1303.30750
1600.0 0.000625 413.40402 1394.35132
1821.0 0.000549 413.21677 1560.84668
1871.0 0.000534 413.02921 1782.03333
2033.0 0.000492 412.84137 2032.45789
2119.0 0.000472 412.65314 2277.64624
2306.0 0.000434 412.46469 2484.67529
2497.0 0.000400 412.27594 2627.51782
2520.0 0.000397 412.08685 2688.34253
2473.0 0.000404 411.89752 2661.29004
2546.0 0.000393 411.70789 2562.46729
2388.0 0.000419 411.51804 2411.65479
2199.0 0.000455 411.32782 2220.79663
2058.0 0.000486 411.13745 1992.54602
1780.0 0.000562 410.94672 1736.96350
1642.0 0.000609 410.75583 1475.08948
1325.0 0.000755 410.56464 1233.23816
1095.0 0.000913 410.37326 1027.39355
898.0 0.001114 410.18158 866.23743
768.0 0.001302 409.98975 751.31635
691.0 0.001447 409.79773 678.78418
647.0 0.001546 409.60541 639.21918
617.0 0.001621 409.41296 628.12262
655.0 0.001527 409.22025 634.13770
677.0 0.001477 409.02740 648.48767
696.0 0.001437 408.83429 662.22449
684.0 0.001462 408.64111 670.55066
647.0 0.001546 408.44772 669.68420
617.0 0.001621 408.25412 661.40369
620.0 0.001613 408.06046 649.90448
595.0 0.001681 407.86652 637.82196
592.0 0.001689 407.67255 628.20752
606.0 0.001650 407.47833 619.64099
652.0 0.001534 407.28409 610.70508
587.0 0.001704 407.08966 601.78241
533.0 0.001876 406.89514 595.95856
561.0 0.001783 406.70053 597.40527
572.0 0.001748 406.50577 609.46320
627.0 0.001595 406.31100 633.31677
593.0 0.001686 406.11603 667.58038
725.0 0.001379 405.92108 706.38922
699.0 0.001431 405.72598 742.20123
766.0 0.001305 405.53091 766.30853
747.0 0.001339 405.33569 773.26221
694.0 0.001441 405.14047 763.42761
656.0 0.001524 404.94528 741.09564
705.0 0.001418 404.74991 711.85175
623.0 0.001605 404.55463 681.55200
668.0 0.001497 404.35922 655.06525
633.0 0.001580 404.16391 635.21228
549.0 0.001821 403.96851 620.73767
570.0 0.001754 403.77319 609.57721
574.0 0.001742 403.57791 599.16107
527.0 0.001898 403.38254 588.87988
514.0 0.001946 403.18729 580.19092
541.0 0.001848 402.99197 575.11603
580.0 0.001724 402.79678 574.71857
574.0 0.001742 402.60156 578.75397
589.0 0.001698 402.40652 585.75305
642.0 0.001558 402.21140 592.91754
645.0 0.001550 402.01648 601.75500
639.0 0.001565 401.82162 612.43817
635.0 0.001575 401.62677 635.51135
737.0 0.001357 401.43213 678.68140
878.0 0.001139 401.23752 753.51422
1004.0 0.000996 401.04306 871.61011
1274.0 0.000785 400.84863 1041.28906
1481.0 0.000675 400.65445 1264.78992
1681.0 0.000595 400.46033 1532.34717
1850.0 0.000541 400.26639 1819.98987
1946.0 0.000514 400.07263 2088.52612
1891.0 0.000529 399.87897 2289.95166
1910.0 0.000524 399.68555 2385.01904
1921.0 0.000521 399.49222 2369.64917
2037.0 0.000491 399.29913 2279.40527
2005.0 0.000499 399.10620 2166.04297
2032.0 0.000492 398.91351 2064.15967
2073.0 0.000482 398.72104 1985.01526
2126.0 0.000470 398.52872 1917.93469
1947.0 0.000514 398.33667 1833.98840
1778.0 0.000562 398.14478 1710.80408
1547.0 0.000646 397.95322 1547.94312
1323.0 0.000756 397.76184 1361.03284
1176.0 0.000850 397.57077 1171.88696
1023.0 0.000978 397.37988 996.86115
926.0 0.001080 397.18933 848.52686
829.0 0.001206 396.99908 733.81427
735.0 0.001361 396.80902 653.37488
616.0 0.001623 396.61935 604.24268
650.0 0.001538 396.42990 580.98651
604.0 0.001656 396.24081 577.60083
592.0 0.001689 396.05200 588.75043
594.0 0.001684 395.86356 606.30231
591.0 0.001692 395.67535 624.76801
552.0 0.001812 395.48761 638.28705
569.0 0.001757 395.30020 643.19208
585.0 0.001709 395.11304 640.68817
594.0 0.001684 394.92633 635.33154
616.0 0.001623 394.73990 632.78809
592.0 0.001689 394.55392 637.52856
653.0 0.001531 394.36826 652.24475
680.0 0.001471 394.18307 676.81360
747.0 0.001339 393.99823 710.09039
757.0 0.001321 393.81378 750.41260
861.0 0.001161 393.62976 795.47852
858.0 0.001166 393.44614 841.56140
977.0 0.001024 393.26297 881.90149
924.0 0.001082 393.08017 906.77222
895.0 0.001117 392.89789 906.99744
881.0 0.001135 392.71597 880.73212
775.0 0.001290 392.53458 836.28619
768.0 0.001302 392.35367 788.04504
732.0 0.001366 392.17310 750.53131
682.0 0.001466 391.99310 733.55212
771.0 0.001297 391.81354 741.26196
738.0 0.001355 391.63449 771.31036
797.0 0.001255 391.45587 814.94470
842.0 0.001188 391.27783 858.83337
790.0 0.001266 391.10022 885.69617
808.0 0.001238 390.92319 883.26483
746.0 0.001340 390.74667 848.96625
754.0 0.001326 390.57059 791.47699
699.0 0.001431 390.39511 723.51825
660.0 0.001515 390.22012 657.70648
612.0 0.001634 390.04572 603.48151
627.0 0.001595 389.87183 567.07861
572.0 0.001748 389.69852 551.97266
580.0 0.001724 389.52579 559.54230
600.0 0.001667 389.35352 589.46429
665.0 0.001504 389.18192 639.60675
732.0 0.001366 389.01083 705.12988
775.0 0.001290 388.84039 778.69708
848.0 0.001179 388.67044 848.51263
874.0 0.001144 388.50119 901.78912
835.0 0.001198 388.33246 927.33142
871.0 0.001148 388.16440 922.71411
817.0 0.001224 387.99695 897.96783
823.0 0.001215 387.82999 870.32404
911.0 0.001098 387.66376 856.61890
897.0 0.001115 387.49808 868.29114
1000.0 0.001000 387.33310 908.84760
1068.0 0.000936 387.16870 971.24829
1163.0 0.000860 387.00497 1044.80188
1040.0 0.000962 386.84183 1107.70752
1113.0 0.000898 386.67941 1139.15259
1111.0 0.000900 386.51764 1127.47595
1000.0 0.001000 386.35648 1076.93469
949.0 0.001054 386.19598 1002.42072
925.0 0.001081 386.03613 920.21307
868.0 0.001152 385.87701 847.33130
836.0 0.001196 385.71851 794.97247
789.0 0.001267 385.56073 772.33392
859.0 0.001164 385.40359 784.89966
866.0 0.001155 385.24713 834.61639
989.0 0.001011 385.09140 919.27411
1027.0 0.000974 384.93631 1032.21729
1199.0 0.000834 384.78195 1162.72510
1279.0 0.000782 384.62827 1296.78638
1408.0 0.000710 384.47534 1417.59363
1508.0 0.000663 384.32303 1502.93750
1522.0 0.000657 384.17151 1531.73828
1494.0 0.000669 384.02069 1493.79736
1418.0 0.000705 383.87057 1395.99133
1288.0 0.000776 383.72116 1264.95532
1154.0 0.000867 383.57245 1128.47449
985.0 0.001015 383.42450 1007.72772
918.0 0.001089 383.27728 913.02039
798.0 0.001253 383.13077 845.18671
811.0 0.001233 382.98499 797.18103
693.0 0.001443 382.83997 758.67029
738.0 0.001355 382.69571 721.81024
685.0 0.001460 382.55212 684.69849
635.0 0.001575 382.40933 649.77258
623.0 0.001605 382.26724 621.07837
606.0 0.001650 382.12595 601.62000
572.0 0.001748 381.98532 592.79803
653.0 0.001531 381.84552 594.28082
657.0 0.001522 381.70648 604.18549
667.0 0.001499 381.56815 621.92908
727.0 0.001376 381.43060 647.62616
757.0 0.001321 381.29376 684.76581
848.0 0.001179 381.15771 738.34064
848.0 0.001179 381.02243 811.75598
906.0 0.001104 380.88791 904.20148
1009.0 0.000991 380.75415 1009.18750
1032.0 0.000969 380.62115 1113.64539
1134.0 0.000882 380.48895 1200.17651
1176.0 0.000850 380.35745 1252.77173
1278.0 0.000782 380.22675 1264.20630
1174.0 0.000852 380.09680 1239.18835
1176.0 0.000850 379.96762 1185.68311
1147.0 0.000872 379.83920 1114.00330
1078.0 0.000928 379.71161 1038.06018
964.0 0.001037 379.58469 973.99463
955.0 0.001047 379.45862 935.37451
943.0 0.001060 379.33331 927.53992
952.0 0.001050 379.20877 948.15643
1007.0 0.000993 379.08499 987.39752
1011.0 0.000989 378.96194 1028.98572
1031.0 0.000970 378.83972 1053.65100
1075.0 0.000930 378.71820 1046.18701
1017.0 0.000983 378.59750 1001.42981
958.0 0.001044 378.47760 926.87653
888.0 0.001126 378.35840 836.10333
795.0 0.001258 378.24002 744.69946
671.0 0.001490 378.12238 662.93158
583.0 0.001715 378.00552 598.19324
529.0 0.001890 377.88940 553.71161
518.0 0.001931 377.77408 529.62653
512.0 0.001953 377.65948 524.21313
508.0 0.001969 377.54568 534.56366
529.0 0.001890 377.43265 556.94745
635.0 0.001575 377.32031 586.76532
648.0 0.001543 377.20880 617.93213
675.0 0.001481 377.09802 645.10077
763.0 0.001311 376.98798 661.78857
717.0 0.001395 376.87872 664.81433
679.0 0.001473 376.77023 656.49805
645.0 0.001550 376.66245 644.39032
620.0 0.001613 376.55545 638.07147
610.0 0.001639 376.44919 647.58484
660.0 0.001515 376.34363 681.12494
755.0 0.001325 376.23889 743.37213
839.0 0.001192 376.13483 834.44647
969.0 0.001032 376.03156 948.15997
1126.0 0.000888 375.92896 1070.74109
1215.0 0.000823 375.82712 1183.46191
1395.0 0.000717 375.72607 1263.05139
1414.0 0.000707 375.62567 1289.56140
1341.0 0.000746 375.52603 1256.42175
1238.0 0.000808 375.42709 1174.51172
1078.0 0.000928 375.32892 1069.28394
939.0 0.001065 375.23138 963.11200
861.0 0.001161 375.13464 876.38611
805.0 0.001242 375.03857 823.57452
804.0 0.001244 374.94327 814.60852
834.0 0.001199 374.84863 854.01715
939.0 0.001065 374.75470 944.61115
1069.0 0.000935 374.66147 1085.50586
1237.0 0.000808 374.56891 1272.36389
1460.0 0.000685 374.47705 1493.59021
1699.0 0.000589 374.38589 1728.38782
2020.0 0.000495 374.29544 1945.35938
2205.0 0.000454 374.20563 2104.54150
2226.0 0.000449 374.11652 2167.90845
2137.0 0.000468 374.02808 2119.44238
1946.0 0.000514 373.94034 1976.48584
1659.0 0.000603 373.85321 1777.04272
1482.0 0.000675 373.76678 1560.00940
1344.0 0.000744 373.68103 1355.85156
1114.0 0.000898 373.59589 1183.42212
1041.0 0.000961 373.51144 1050.45776
974.0 0.001027 373.42761 954.35669
865.0 0.001156 373.34442 885.45306
805.0 0.001242 373.26190 831.36481
739.0 0.001353 373.17999 781.60101
705.0 0.001418 373.09872 730.55334
653.0 0.001531 373.01804 680.08655
587.0 0.001704 372.93802 633.34937
564.0 0.001773 372.85858 594.60425
566.0 0.001767 372.77979 566.91534
498.0 0.002008 372.70163 553.23364
479.0 0.002088 372.62402 553.99670
578.0 0.001730 372.54706 568.55121
577.0 0.001733 372.47061 594.97943
679.0 0.001473 372.39484 630.23798
714.0 0.001401 372.31958 670.79889
729.0 0.001372 372.24496 713.41949
825.0 0.001212 372.17087 756.84583
842.0 0.001188 372.09735 803.77844
840.0 0.001190 372.02444 861.17212
952.0 0.001050 371.95203 937.73383
1010.0 0.000990 371.88022 1041.47949
1088.0 0.000919 371.80893 1175.46069
1253.0 0.000798 371.73816 1334.73181
1426.0 0.000701 371.66800 1505.10657
1591.0 0.000629 371.59833 1664.14746
1748.0 0.000572 371.52917 1786.17688
1889.0 0.000529 371.46054 1853.84875
1864.0 0.000536 371.39246 1866.70532
1875.0 0.000533 371.32483 1837.77783
1790.0 0.000559 371.25775 1782.15857
1722.0 0.000581 371.19116 1709.92529
1561.0 0.000641 371.12509 1626.69873
1532.0 0.000653 371.05948 1537.43494
1389.0 0.000720 370.99438 1446.02039
1435.0 0.000697 370.92975 1353.65686
1314.0 0.000761 370.86554 1258.26587
1231.0 0.000812 370.80188 1158.21838
1085.0 0.000922 370.73862 1054.71729
1006.0 0.000994 370.67587 954.81525
865.0 0.001156 370.61353 865.94055
767.0 0.001304 370.55164 794.17303
710.0 0.001408 370.49014 744.08295
714.0 0.001401 370.42917 718.18817
686.0 0.001458 370.36856 717.20990
728.0 0.001374 370.30841 740.31061
737.0 0.001357 370.24863 785.68976
826.0 0.001211 370.18927 850.62537
901.0 0.001110 370.13034 930.64020
957.0 0.001045 370.07178 1018.69885
1063.0 0.000941 370.01367 1105.85510
1155.0 0.000866 369.95590 1183.90784
1211.0 0.000826 369.89853 1247.72632
1249.0 0.000801 369.84149 1294.95227
1255.0 0.000797 369.78485 1325.36511
1310.0 0.000763 369.72861 1341.00659
1235.0 0.000810 369.67267 1345.73474
1286.0 0.000778 369.61710 1345.67651
1210.0 0.000826 369.56186 1350.11694
1298.0 0.000770 369.50702 1368.93567
1389.0 0.000720 369.45248 1407.12341
1474.0 0.000678 369.39825 1461.26453
1538.0 0.000650 369.34433 1519.76892
1631.0 0.000613 369.29074 1567.33911
1685.0 0.000593 369.23749 1592.17896
1621.0 0.000617 369.18454 1589.08252
1628.0 0.000614 369.13187 1555.38098
1539.0 0.000650 369.07947 1487.65063
1472.0 0.000679 369.02740 1385.99097
1426.0 0.000701 368.97559 1259.30542
1165.0 0.000858 368.92407 1123.14832
1111.0 0.000900 368.87283 993.16339
915.0 0.001093 368.82181 879.84808
815.0 0.001227 368.77109 790.06824
743.0 0.001346 368.72058 724.13135
654.0 0.001529 368.67035 679.11932
684.0 0.001462 368.62036 648.92218
638.0 0.001567 368.57062 630.44470
623.0 0.001605 368.52106 617.55048
639.0 0.001565 368.47174 606.22327
590.0 0.001695 368.42267 593.34363
538.0 0.001859 368.37381 577.41187
595.0 0.001681 368.32513 558.54230
622.0 0.001608 368.27664 538.76910
534.0 0.001873 368.22842 520.71545
532.0 0.001880 368.18033 506.38449
518.0 0.001931 368.13242 497.19760
516.0 0.001938 368.08475 493.34268
511.0 0.001957 368.03717 494.86154
548.0 0.001825 367.98984 501.01526
542.0 0.001845 367.94260 511.47507
582.0 0.001718 367.89560 526.71326
593.0 0.001686 367.84866 548.73425
601.0 0.001664 367.80194 580.73688
654.0 0.001529 367.75534 626.06335
701.0 0.001427 367.70886 686.77869
781.0 0.001280 367.66254 762.41565
893.0 0.001120 367.61633 849.22449
1020.0 0.000980 367.57028 940.29547
1061.0 0.000943 367.52429 1024.39978
1153.0 0.000867 367.47845 1088.72388
1245.0 0.000803 367.43274 1121.56958
1132.0 0.000883 367.38708 1117.80713
1151.0 0.000869 367.34158 1083.00586
1003.0 0.000997 367.29608 1029.94019
994.0 0.001006 367.25076 973.31299
957.0 0.001045 367.20544 926.42908
954.0 0.001048 367.16025 900.61261
938.0 0.001066 367.11514 905.54102
1004.0 0.000996 367.07013 950.21460
1111.0 0.000900 367.02512 1044.06030
1263.0 0.000792 366.98019 1192.89868
1474.0 0.000678 366.93533 1394.94373
1690.0 0.000592 366.89050 1639.61609
1984.0 0.000504 366.84573 1904.96948
2194.0 0.000456 366.80103 2157.40796
2315.0 0.000432 366.75632 2357.21924
2377.0 0.000421 366.71167 2469.96606
2350.0 0.000426 366.66708 2479.38623
2367.0 0.000422 366.62247 2388.71167
2109.0 0.000474 366.57791 2214.77515
1986.0 0.000504 366.53333 1982.11951
1795.0 0.000557 366.48883 1721.27014
1492.0 0.000670 366.44431 1461.33203
1182.0 0.000846 366.39978 1223.46936
988.0 0.001012 366.35526 1019.70331
827.0 0.001209 366.31076 854.34406
766.0 0.001305 366.26627 726.19269
579.0 0.001727 366.22174 630.71539
552.0 0.001812 366.17719 562.00714
551.0 0.001815 366.13266 513.88690
489.0 0.002045 366.08807 480.91852
474.0 0.002110 366.04349 458.83994
458.0 0.002183 365.99890 444.10541
427.0 0.002342 365.95425 434.78879
406.0 0.002463 365.90961 429.13678
435.0 0.002299 365.86487 425.81909
440.0 0.002273 365.82016 425.67590
378.0 0.002646 365.77539 425.30649
429.0 0.002331 365.73059 425.54214
408.0 0.002451 365.68570 425.71689
420.0 0.002381 365.64081 426.32526
402.0 0.002488 365.59586 427.44009
440.0 0.002273 365.55084 429.67502
461.0 0.002169 365.50580 433.95276
440.0 0.002273 365.46069 439.99167
451.0 0.002217 365.41550 447.66043
423.0 0.002364 365.37024 457.46286
430.0 0.002326 365.32498 468.28012
456.0 0.002193 365.27957 478.88559
464.0 0.002155 365.23413 488.22214
484.0 0.002066 365.18866 497.15039
496.0 0.002016 365.14307 505.44339
514.0 0.001946 365.09741 513.04993
513.0 0.001949 365.05167 519.40015
506.0 0.001976 365.00583 523.56671
547.0 0.001828 364.95996 524.93835
572.0 0.001748 364.91397 523.58533
535.0 0.001869 364.86792 520.18475
512.0 0.001953 364.82181 515.67975
551.0 0.001815 364.77557 510.84500
518.0 0.001931 364.72925 506.32993
522.0 0.001916 364.68289 503.01712
453.0 0.002208 364.63638 501.91855
512.0 0.001953 364.58981 503.49753
540.0 0.001852 364.54312 507.56818
496.0 0.002016 364.49637 512.85291
466.0 0.002146 364.44955 517.61719
498.0 0.002008 364.40256 520.46021
533.0 0.001876 364.35556 521.15503
536.0 0.001866 364.30844 520.82471
532.0 0.001880 364.26120 521.43658
599.0 0.001669 364.21387 525.13171
554.0 0.001805 364.16644 534.19824
590.0 0.001695 364.11893 550.76294
578.0 0.001730 364.07132 577.15546
616.0 0.001623 364.02359 614.01837
664.0 0.001506 363.97577 660.40735
691.0 0.001447 363.92789 712.47394
710.0 0.001408 363.87985 763.57867
769.0 0.001300 363.83173 804.88708
828.0 0.001208 363.78351 827.60632
791.0 0.001264 363.73523 826.89447
852.0 0.001174 363.68683 805.12811
836.0 0.001196 363.63834 770.86035
746.0 0.001340 363.58978 734.99506
718.0 0.001393 363.54105 706.20844
694.0 0.001441 363.49228 690.43054
693.0 0.001443 363.44339 690.41345
725.0 0.001379 363.39441 703.07806
732.0 0.001366 363.34534 724.22852
764.0 0.001309 363.29620 747.37799
715.0 0.001399 363.24692 765.50110
694.0 0.001441 363.19760 772.77448
721.0 0.001387 363.14819 765.16711
699.0 0.001431 363.09866 742.29468
659.0 0.001517 363.04907 707.88489
653.0 0.001531 362.99936 666.22913
607.0 0.001647 362.94958 622.24933
602.0 0.001661 362.89972 579.43091
555.0 0.001802 362.84979 540.63495
514.0 0.001946 362.79980 509.03479
482.0 0.002075 362.74966 484.92447
446.0 0.002242 362.69952 467.82233
467.0 0.002141 362.64923 458.63956
448.0 0.002232 362.59894 456.73550
482.0 0.002075 362.54852 462.54773
496.0 0.002016 362.49808 477.57712
533.0 0.001876 362.44754 504.34558
568.0 0.001761 362.39691 546.73004
689.0 0.001451 362.34628 609.77753
729.0 0.001372 362.29553 699.24213
863.0 0.001159 362.24475 820.45117
946.0 0.001057 362.19391 976.53259
1131.0 0.000884 362.14301 1166.18298
1245.0 0.000803 362.09207 1382.12354
1446.0 0.000692 362.04105 1609.72705
1729.0 0.000578 361.99002 1829.22522
1932.0 0.000518 361.93893 2015.03406
2127.0 0.000470 361.88782 2138.08643
2329.0 0.000429 361.83664 2175.09009
2278.0 0.000439 361.78543 2121.91089
2103.0 0.000476 361.73416 1999.57214
1824.0 0.000548 361.68289 1841.78210
1607.0 0.000622 361.63156 1679.35681
1431.0 0.000699 361.58029 1532.38428
1268.0 0.000789 361.52890 1408.70972
1241.0 0.000806 361.47754 1304.46118
1132.0 0.000883 361.42615 1211.92114
1112.0 0.000899 361.37473 1123.24255
1064.0 0.000940 361.32333 1035.26538
904.0 0.001106 361.27191 946.95093
820.0 0.001220 361.22052 858.94226
780.0 0.001282 361.16907 774.00122
680.0 0.001471 361.11768 695.97583
595.0 0.001681 361.06625 628.45831
570.0 0.001754 361.01486 573.39087
528.0 0.001894 360.96347 531.35376
488.0 0.002049 360.91208 501.83987
423.0 0.002364 360.86078 482.87360
476.0 0.002101 360.80942 472.07034
435.0 0.002299 360.75812 467.33105
452.0 0.002212 360.70685 466.34879
490.0 0.002041 360.65561 467.04810
450.0 0.002222 360.60443 467.83072
449.0 0.002227 360.55325 468.15192
437.0 0.002288 360.50220 468.44461
459.0 0.002179 360.45114 469.99008
496.0 0.002016 360.40018 474.87527
433.0 0.002309 360.34921 483.69165
437.0 0.002288 360.29837 498.18967
511.0 0.001957 360.24756 519.30353
538.0 0.001859 360.19684 546.95349
560.0 0.001786 360.14618 579.81042
608.0 0.001645 360.09558 615.34314
667.0 0.001499 360.04510 649.94318
704.0 0.001420 359.99469 679.35864
747.0 0.001339 359.94440 699.58057
742.0 0.001348 359.89413 708.39960
755.0 0.001325 359.84402 706.44873
700.0 0.001429 359.79404 699.60675
734.0 0.001362 359.74408 696.15851
671.0 0.001490 359.69434 705.79120
722.0 0.001385 359.64465 736.79889
791.0 0.001264 359.59512 795.54358
920.0 0.001087 359.54565 885.91809
968.0 0.001033 359.49640 1006.52313
1062.0 0.000942 359.44720 1151.17822
1234.0 0.000810 359.39819 1308.04712
1430.0 0.000699 359.34930 1459.57751
1486.0 0.000673 359.30060 1584.41382
1689.0 0.000592 359.25204 1663.17358
1631.0 0.000613 359.20361 1686.81860
1617.0 0.000618 359.15536 1659.81445
1586.0 0.000631 359.10727 1595.31445
1372.0 0.000729 359.05936 1507.90198
1331.0 0.000751 359.01163 1411.01294
1325.0 0.000755 358.96402 1312.51233
1238.0 0.000808 358.91669 1215.57739
1172.0 0.000853 358.86948 1118.75769
1100.0 0.000909 358.82251 1021.59894
961.0 0.001041 358.77567 926.75891
871.0 0.001148 358.72913 838.65369
782.0 0.001279 358.68271 760.91779
719.0 0.001391 358.63654 695.90991
630.0 0.001587 358.59058 644.46851
664.0 0.001506 358.54483 607.17169
554.0 0.001805 358.49933 583.47089
552.0 0.001812 358.45404 573.19806
568.0 0.001761 358.40903 574.60614
548.0 0.001825 358.36417 587.30365
585.0 0.001709 358.31961 610.89972
618.0 0.001618 358.27530 645.40131
639.0 0.001565 358.23123 691.09216
724.0 0.001381 358.18744 748.25787
815.0 0.001227 358.14389 816.49860
901.0 0.001110 358.10062 893.84589
989.0 0.001011 358.05759 976.64954
1000.0 0.001000 358.01486 1059.01074
1058.0 0.000945 357.97241 1137.39160
1252.0 0.000799 357.93027 1210.00977
1322.0 0.000756 357.88837 1275.51917
1375.0 0.000727 357.84674 1331.33887
1434.0 0.000697 357.80548 1373.27698
1449.0 0.000690 357.76447 1403.85339
1450.0 0.000690 357.72375 1424.89368
1387.0 0.000721 357.68338 1441.43848
1414.0 0.000707 357.64334 1455.35962
1348.0 0.000742 357.60358 1463.41406
1410.0 0.000709 357.56415 1458.39087
1404.0 0.000712 357.52505 1433.39270
1401.0 0.000714 357.48630 1386.26343
1379.0 0.000725 357.44785 1323.44348
1209.0 0.000827 357.40976 1256.56604
1215.0 0.000823 357.37201 1199.61951
1150.0 0.000870 357.33456 1164.23499
1146.0 0.000873 357.29755 1155.89124
1170.0 0.000855 357.26080 1172.97656
1215.0 0.000823 357.22452 1207.82153
1187.0 0.000842 357.18851 1248.50623
1374.0 0.000728 357.15286 1279.75684
1446.0 0.000692 357.11765 1289.34521
1416.0 0.000706 357.08279 1271.76416
1342.0 0.000745 357.04831 1231.84766
1309.0 0.000764 357.01419 1182.59998
1217.0 0.000822 356.98044 1137.17065
1145.0 0.000873 356.94711 1106.31433
1066.0 0.000938 356.91415 1094.20386
1144.0 0.000874 356.88162 1098.05273
1080.0 0.000926 356.84946 1109.21326
1114.0 0.000898 356.81772 1115.42688
1119.0 0.000894 356.78638 1105.84033
1119.0 0.000894 356.75543 1076.71448
1011.0 0.000989 356.72491 1033.18237
988.0 0.001012 356.69479 985.07727
890.0 0.001124 356.66516 942.91803
874.0 0.001144 356.63586 914.91364
969.0 0.001032 356.60703 905.92596
939.0 0.001065 356.57861 916.76849
988.0 0.001012 356.55063 943.52795
1069.0 0.000935 356.52307 977.88647
1117.0 0.000895 356.49597 1008.71704
1090.0 0.000917 356.46933 1025.62952
1085.0 0.000922 356.44312 1021.56726
957.0 0.001045 356.41730 994.78058
929.0 0.001076 356.39197 947.74298
884.0 0.001131 356.36710 886.02148
847.0 0.001181 356.34268 816.91290
750.0 0.001333 356.31870 749.12872
678.0 0.001475 356.29520 690.80304
596.0 0.001678 356.27216 647.17303
598.0 0.001672 356.24954 621.93182
617.0 0.001621 356.22742 616.20715
622.0 0.001608 356.20575 628.91650
701.0 0.001427 356.18457 656.39526
692.0 0.001445 356.16385 695.24304
696.0 0.001437 356.14362 738.46619
785.0 0.001274 356.12384 779.02618
814.0 0.001229 356.10455 811.05103
911.0 0.001098 356.08572 830.62311
895.0 0.001117 356.06741 838.14233
884.0 0.001131 356.04953 838.89899
843.0 0.001186 356.03220 840.58087
865.0 0.001156 356.01532 852.19360
906.0 0.001104 355.99893 878.97791
905.0 0.001105 355.98300 922.47388
903.0 0.001107 355.96759 979.62567
995.0 0.001005 355.95270 1043.16968
1074.0 0.000931 355.93826 1103.45593
1145.0 0.000873 355.92435 1150.54419
1146.0 0.000873 355.91089 1176.60437
1222.0 0.000818 355.89792 1177.47668
1233.0 0.000811 355.88547 1154.58447
1158.0 0.000864 355.87350 1115.85767
1127.0 0.000887 355.86206 1073.05139
1108.0 0.000903 355.85110 1037.11487
1009.0 0.000991 355.84064 1014.97968
930.0 0.001075 355.83069 1008.14813
952.0 0.001050 355.82123 1013.01166
952.0 0.001050 355.81226 1022.03857
989.0 0.001011 355.80380 1026.55945
1056.0 0.000947 355.79584 1020.53351
1092.0 0.000916 355.78839 1003.97382
977.0 0.001024 355.78143 979.77130
1026.0 0.000975 355.77496 951.28607
1001.0 0.000999 355.76901 919.89490
1047.0 0.000955 355.76355 884.55804
940.0 0.001064 355.75861 844.30707
889.0 0.001125 355.75415 799.33661
829.0 0.001206 355.75021 752.97089
736.0 0.001359 355.74673 709.65314
736.0 0.001359 355.74377 674.90802
642.0 0.001558 355.74133 652.77704
633.0 0.001580 355.73935 647.58710
673.0 0.001486 355.73788 661.14307
635.0 0.001575 355.73694 695.37366
756.0 0.001323 355.73648 749.57196
856.0 0.001168 355.73648 821.41162
977.0 0.001024 355.73697 906.40039
972.0 0.001029 355.73798 998.35608
1110.0 0.000901 355.73950 1089.92249
1305.0 0.000766 355.74146 1173.24182
1192.0 0.000839 355.74393 1241.13391
1329.0 0.000752 355.74692 1288.05627
1232.0 0.000812 355.75037 1312.68945
1229.0 0.000814 355.75427 1316.46167
1162.0 0.000861 355.75867 1300.05273
1148.0 0.000871 355.76355 1261.30139
1129.0 0.000886 355.76892 1200.67090
1097.0 0.000912 355.77478 1122.47961
1026.0 0.000975 355.78110 1034.57153
931.0 0.001074 355.78787 944.58551
867.0 0.001153 355.79514 859.99200
739.0 0.001353 355.80286 785.37347
701.0 0.001427 355.81104 722.70490
666.0 0.001502 355.81970 672.69183
633.0 0.001580 355.82880 632.63745
655.0 0.001527 355.83838 599.83661
612.0 0.001634 355.84839 572.52649
576.0 0.001736 355.85886 550.72052
542.0 0.001845 355.86978 535.51654
540.0 0.001852 355.88116 528.61780
526.0 0.001901 355.89297 531.76917
542.0 0.001845 355.90524 546.32800
539.0 0.001855 355.91794 572.56018
620.0 0.001613 355.93106 610.27942
668.0 0.001497 355.94461 656.77332
665.0 0.001504 355.95862 708.20782
697.0 0.001435 355.97299 758.81403
774.0 0.001292 355.98785 802.21204
825.0 0.001212 356.00308 833.43134
812.0 0.001232 356.01877 848.56476
806.0 0.001241 356.03482 845.93378
799.0 0.001252 356.05133 826.35046
773.0 0.001294 356.06818 794.05768
756.0 0.001323 356.08548 755.71362
717.0 0.001395 356.10315 718.31281
649.0 0.001541 356.12122 686.01245
611.0 0.001637 356.13968 661.39484
674.0 0.001484 356.15851 644.26624
624.0 0.001603 356.17770 632.57135
602.0 0.001661 356.19730 623.77271
620.0 0.001613 356.21729 614.87946
649.0 0.001541 356.23758 603.87732
642.0 0.001558 356.25827 588.84161
627.0 0.001595 356.27930 569.45831
600.0 0.001667 356.30069 547.07104
532.0 0.001880 356.32245 523.59131
524.0 0.001908 356.34451 501.02341
473.0 0.002114 356.36694 480.58975
422.0 0.002370 356.38971 462.71149
442.0 0.002262 356.41278 447.59454
430.0 0.002326 356.43619 434.70880
419.0 0.002387 356.45990 424.11658
406.0 0.002463 356.48395 415.08408
399.0 0.002506 356.50827 408.51337
415.0 0.002410 356.53293 403.49231
413.0 0.002421 356.55786 400.21088
408.0 0.002451 356.58313 398.77747
398.0 0.002513 356.60864 399.46942
388.0 0.002577 356.63443 402.79303
393.0 0.002545 356.66049 409.53519
434.0 0.002304 356.68686 420.75458
430.0 0.002326 356.71350 437.40289
504.0 0.001984 356.74036 461.53946
502.0 0.001992 356.76749 493.73999
517.0 0.001934 356.79483 534.20221
562.0 0.001779 356.82248 581.90393
595.0 0.001681 356.85031 634.31451
593.0 0.001686 356.87839 687.24298
704.0 0.001420 356.90674 734.76648
699.0 0.001431 356.93527 771.00366
771.0 0.001297 356.96396 789.78632
811.0 0.001233 356.99295 788.89325
769.0 0.001300 357.02209 770.81860
784.0 0.001276 357.05142 741.84576
694.0 0.001441 357.08096 709.65674
720.0 0.001389 357.11063 681.64056
611.0 0.001637 357.14053 662.88849
616.0 0.001623 357.17059 657.12433
627.0 0.001595 357.20081 665.85699
706.0 0.001416 357.23120 689.03149
730.0 0.001370 357.26172 724.81421
797.0 0.001255 357.29239 771.19330
886.0 0.001129 357.32321 825.07782
962.0 0.001040 357.35416 882.99493
981.0 0.001019 357.38522 943.35834
1062.0 0.000942 357.41641 1003.65240
1044.0 0.000958 357.44769 1060.95410
1100.0 0.000909 357.47910 1110.77686
1074.0 0.000931 357.51062 1147.63525
1133.0 0.000883 357.54224 1168.49622
1195.0 0.000837 357.57388 1170.29224
1128.0 0.000887 357.60565 1151.00366
1131.0 0.000884 357.63745 1110.00916
1148.0 0.000871 357.66940 1048.68518
1005.0 0.000995 357.70135 971.76306
950.0 0.001053 357.73337 884.77032
830.0 0.001205 357.76541 795.69531
745.0 0.001342 357.79752 711.29504
687.0 0.001456 357.82965 636.36774
584.0 0.001712 357.86182 573.91138
561.0 0.001783 357.89395 524.80359
491.0 0.002037 357.92615 488.68683
522.0 0.001916 357.95834 464.39532
442.0 0.002262 357.99051 450.49457
472.0 0.002119 358.02271 445.55212
474.0 0.002110 358.05487 448.48236
458.0 0.002183 358.08701 459.24579
493.0 0.002028 358.11914 476.34140
486.0 0.002058 358.15121 500.22131
505.0 0.001980 358.18323 530.59619
489.0 0.002045 358.21524 566.75836
519.0 0.001927 358.24716 607.29291
569.0 0.001757 358.27902 650.20636
670.0 0.001493 358.31085 692.73523
679.0 0.001473 358.34256 732.57013
766.0 0.001305 358.37421 764.91565
817.0 0.001224 358.40573 785.52808
807.0 0.001239 358.43719 790.51270
828.0 0.001208 358.46857 779.27734
787.0 0.001271 358.49979 755.03912
738.0 0.001355 358.53091 723.35516
681.0 0.001468 358.56192 689.71362
658.0 0.001520 358.59277 658.43890
590.0 0.001695 358.62350 631.90131
555.0 0.001802 358.65408 611.08136
598.0 0.001672 358.68454 595.74359
595.0 0.001681 358.71481 585.43915
587.0 0.001704 358.74490 579.14795
602.0 0.001661 358.77484 576.36908
591.0 0.001692 358.80463 576.50189
619.0 0.001616 358.83420 580.53058
606.0 0.001650 358.86362 588.07361
590.0 0.001695 358.89279 598.74695
620.0 0.001613 358.92178 610.68542
613.0 0.001631 358.95056 620.92950
622.0 0.001608 358.97916 625.83777
641.0 0.001560 359.00751 622.24371
617.0 0.001621 359.03561 608.97321
578.0 0.001730 359.06348 587.42432
579.0 0.001727 359.09113 560.81714
550.0 0.001818 359.11853 532.80481
485.0 0.002062 359.14566 506.66122
454.0 0.002203 359.17255 484.98911
450.0 0.002222 359.19916 469.55804
439.0 0.002278 359.22549 461.44534
481.0 0.002079 359.25159 461.06256
451.0 0.002217 359.27734 468.23953
486.0 0.002058 359.30286 482.46323
494.0 0.002024 359.32803 502.90372
555.0 0.001802 359.35291 528.44965
554.0 0.001805 359.37753 557.72046
577.0 0.001733 359.40176 589.00647
620.0 0.001613 359.42575 620.65894
609.0 0.001642 359.44934 651.29462
687.0 0.001456 359.47266 680.66217
760.0 0.001316 359.49561 707.64203
772.0 0.001295 359.51825 730.48358
777.0 0.001287 359.54050 746.45770
775.0 0.001290 359.56241 752.86255
783.0 0.001277 359.58398 748.34839
777.0 0.001287 359.60516 733.31372
768.0 0.001302 359.62604 709.23633
688.0 0.001453 359.64645 678.23413
667.0 0.001499 359.66656 643.21497
673.0 0.001486 359.68622 608.00165
593.0 0.001686 359.70554 576.63599
568.0 0.001761 359.72443 552.64478
550.0 0.001818 359.74295 539.73584
551.0 0.001815 359.76108 539.52563
583.0 0.001715 359.77878 553.89398
593.0 0.001686 359.79602 583.45404
573.0 0.001745 359.81293 627.19751
699.0 0.001431 359.82938 683.39911
714.0 0.001401 359.84540 747.68048
816.0 0.001225 359.86099 813.77362
903.0 0.001107 359.87613 874.80939
941.0 0.001063 359.89084 922.27490
970.0 0.001031 359.90509 950.10919
959.0 0.001043 359.91895 956.50348
906.0 0.001104 359.93231 946.30432
856.0 0.001168 359.94522 929.20221
920.0 0.001087 359.95767 916.10449
986.0 0.001014 359.96967 916.26428
1001.0 0.000999 359.98117 935.66669
1104.0 0.000906 359.99225 976.17395
1148.0 0.000871 360.00281 1035.20911
1112.0 0.000899 360.01294 1106.05261
1126.0 0.000888 360.02255 1178.82605
1157.0 0.000864 360.03168 1242.14600
1191.0 0.000840 360.04034 1285.70276
1225.0 0.000816 360.04849 1303.60461
1067.0 0.000937 360.05612 1296.31091
1171.0 0.000854 360.06329 1269.22388
1121.0 0.000892 360.06995 1228.21704
1099.0 0.000910 360.07614 1179.06702
1073.0 0.000932 360.08176 1125.87866
1087.0 0.000920 360.08691 1070.41113
1074.0 0.000931 360.09155 1012.50031
993.0 0.001007 360.09567 951.38129
951.0 0.001052 360.09927 887.16791
909.0 0.001100 360.10233 821.25867
860.0 0.001163 360.10495 756.64453
769.0 0.001300 360.10696 695.49255
748.0 0.001337 360.10849 639.71997
579.0 0.001727 360.10944 590.56036
608.0 0.001645 360.10992 548.67810
575.0 0.001739 360.10986 514.21887
515.0 0.001942 360.10922 487.02853
483.0 0.002070 360.10809 466.45987
477.0 0.002096 360.10645 452.50870
476.0 0.002101 360.10422 442.90656
494.0 0.002024 360.10150 438.22610
460.0 0.002174 360.09818 437.83582
417.0 0.002398 360.09439 442.45129
478.0 0.002092 360.09003 453.07080
519.0 0.001927 360.08511 471.50339
477.0 0.002096 360.07965 499.95096
515.0 0.001942 360.07364 541.30731
601.0 0.001664 360.06711 598.41595
682.0 0.001466 360.06003 673.23254
721.0 0.001387 360.05237 766.93988
821.0 0.001218 360.04422 877.75006
940.0 0.001064 360.03546 1001.03680
1069.0 0.000935 360.02618 1128.78662
1148.0 0.000871 360.01639 1249.77466
1240.0 0.000806 360.00601 1350.45996
1430.0 0.000699 359.99512 1417.25134
1453.0 0.000688 359.98364 1439.32947
1467.0 0.000682 359.97162 1413.15320
1365.0 0.000733 359.95908 1343.29138
1343.0 0.000745 359.94598 1241.00146
1156.0 0.000865 359.93231 1120.65344
976.0 0.001025 359.91815 996.20166
885.0 0.001130 359.90344 878.62128
759.0 0.001318 359.88812 775.42017
685.0 0.001460 359.87234 690.37897
614.0 0.001629 359.85599 624.40796
588.0 0.001701 359.83908 576.19781
470.0 0.002128 359.82166 543.24188
551.0 0.001815 359.80368 522.53284
493.0 0.002028 359.78519 511.18140
482.0 0.002075 359.76614 506.67236
489.0 0.002045 359.74655 508.13266
545.0 0.001835 359.72647 514.30334
531.0 0.001883 359.70584 525.12231
528.0 0.001894 359.68469 540.40613
507.0 0.001972 359.66302 560.14362
550.0 0.001818 359.64078 583.33643
599.0 0.001669 359.61807 608.31860
575.0 0.001739 359.59485 632.64807
623.0 0.001605 359.57108 653.42865
679.0 0.001473 359.54681 667.50946
654.0 0.001529 359.52200 672.91772
706.0 0.001416 359.49673 669.50482
638.0 0.001567 359.47092 659.37689
640.0 0.001563 359.44464 646.43286
632.0 0.001582 359.41782 635.13495
569.0 0.001757 359.39053 629.80011
603.0 0.001658 359.36276 633.64349
682.0 0.001466 359.33447 648.36505
662.0 0.001511 359.30569 673.37946
738.0 0.001355 359.27643 707.78491
764.0 0.001309 359.24670 747.41083
811.0 0.001233 359.21649 787.93878
883.0 0.001133 359.18579 821.00671
842.0 0.001188 359.15463 841.04364
751.0 0.001332 359.12305 843.26312
787.0 0.001271 359.09097 826.97278
793.0 0.001261 359.05841 794.60767
728.0 0.001374 359.02542 751.58838
739.0 0.001353 358.99200 703.24878
670.0 0.001493 358.95810 653.99762
647.0 0.001546 358.92377 607.35413
571.0 0.001751 358.88901 565.43048
566.0 0.001767 358.85382 529.50079
532.0 0.001880 358.81818 500.56430
437.0 0.002288 358.78210 478.75705
453.0 0.002208 358.74567 464.07022
443.0 0.002257 358.70880 456.44464
470.0 0.002128 358.67148 455.75595
498.0 0.002008 358.63379 462.35684
447.0 0.002237 358.59567 476.69003
494.0 0.002024 358.55719 499.16943
515.0 0.001942 358.51834 529.89252
530.0 0.001887 358.47906 568.32617
555.0 0.001802 358.43942 613.03265
703.0 0.001422 358.39938 661.49225
728.0 0.001374 358.35904 710.05676
798.0 0.001253 358.31824 754.10114
837.0 0.001195 358.27716 788.63940
834.0 0.001199 358.23569 809.78656
882.0 0.001134 358.19388 816.40735
864.0 0.001157 358.15176 811.11792
778.0 0.001285 358.10925 799.03632
750.0 0.001333 358.06647 785.82025
761.0 0.001314 358.02332 777.00250
768.0 0.001302 357.97989 777.38379
746.0 0.001340 357.93610 791.53571
757.0 0.001321 357.89206 823.79987
829.0 0.001206 357.84772 878.20435
858.0 0.001166 357.80304 957.95367
925.0 0.001081 357.75812 1064.11731
1097.0 0.000912 357.71289 1195.30518
1318.0 0.000759 357.66739 1345.93640
1502.0 0.000666 357.62164 1504.80896
1710.0 0.000585 357.57559 1656.26318
1877.0 0.000533 357.52933 1781.17102
1955.0 0.000512 357.48282 1860.64270
1967.0 0.000508 357.43604 1882.06873
1857.0 0.000539 357.38901 1842.94653
1769.0 0.000565 357.34183 1751.62378
1631.0 0.000613 357.29434 1622.54114
1519.0 0.000658 357.24670 1471.90430
1262.0 0.000792 357.19879 1314.69739
1184.0 0.000845 357.15073 1163.36780
1004.0 0.000996 357.10245 1027.36914
901.0 0.001110 357.05399 912.89178
866.0 0.001155 357.00537 822.94324
766.0 0.001305 356.95654 757.81152
766.0 0.001305 356.90756 715.79626
693.0 0.001443 356.85843 693.57227
672.0 0.001488 356.80914 687.01678
703.0 0.001422 356.75964 691.45996
694.0 0.001441 356.71011 701.83783
739.0 0.001353 356.66040 713.26080
759.0 0.001318 356.61053 722.97424
752.0 0.001330 356.56061 728.30804
801.0 0.001248 356.51053 730.37177
694.0 0.001441 356.46036 729.67462
762.0 0.001312 356.41010 727.40729
794.0 0.001259 356.35974 724.06281
755.0 0.001325 356.30930 719.90692
747.0 0.001339 356.25879 715.26318
702.0 0.001425 356.20822 710.65820
691.0 0.001447 356.15759 707.14008
658.0 0.001520 356.10690 704.98010
656.0 0.001524 356.05615 704.78412
697.0 0.001435 356.00537 706.39008
657.0 0.001522 355.95459 708.02551
666.0 0.001502 355.90375 707.52618
699.0 0.001431 355.85291 703.57977
658.0 0.001520 355.80206 695.76990
668.0 0.001497 355.75119 685.48804
668.0 0.001497 355.70032 674.90973
700.0 0.001429 355.64948 666.30383
665.0 0.001504 355.59863 661.28601
623.0 0.001605 355.54785 660.96667
670.0 0.001493 355.49707 666.41205
652.0 0.001534 355.44638 678.96301
708.0 0.001412 355.39572 700.89520
711.0 0.001406 355.34506 736.04327
773.0 0.001294 355.29453 788.91547
834.0 0.001199 355.24405 863.36609
969.0 0.001032 355.19363 962.75067
988.0 0.001012 355.14328 1088.66040
1163.0 0.000860 355.09305 1240.09497
1327.0 0.000754 355.04291 1412.76416
1563.0 0.000640 354.99286 1598.05798
1722.0 0.000581 354.94296 1783.30981
1941.0 0.000515 354.89313 1952.17395
2143.0 0.000467 354.84344 2087.75562
2303.0 0.000434 354.79391 2177.57153
2307.0 0.000433 354.74451 2219.44336
2232.0 0.000448 354.69525 2222.12061
2202.0 0.000454 354.64612 2198.55615
2154.0 0.000464 354.59720 2161.86963
2041.0 0.000490 354.54840 2120.22070
1988.0 0.000503 354.49979 2077.95142
1943.0 0.000515 354.45139 2035.10913
1873.0 0.000534 354.40311 1987.05371
1917.0 0.000522 354.35504 1925.67175
1752.0 0.000571 354.30722 1843.37158
1660.0 0.000602 354.25955 1736.96924
1572.0 0.000636 354.21213 1609.15601
1463.0 0.000684 354.16489 1466.77405
1374.0 0.000728 354.11792 1318.27417
1228.0 0.000814 354.07117 1171.85571
1132.0 0.000883 354.02463 1034.52832
1004.0 0.000996 353.97833 912.01917
774.0 0.001292 353.93231 807.49139
776.0 0.001289 353.88654 723.00159
703.0 0.001422 353.84097 658.75726
622.0 0.001608 353.79575 612.92157
592.0 0.001689 353.75079 583.40704
612.0 0.001634 353.70609 567.37152
535.0 0.001869 353.66165 561.74023
535.0 0.001869 353.61752 563.22760
608.0 0.001645 353.57370 568.69116
626.0 0.001597 353.53015 574.95587
552.0 0.001812 353.48697 580.09167
578.0 0.001730 353.44406 582.23889
594.0 0.001684 353.40146 579.93933
567.0 0.001764 353.35919 573.10602
604.0 0.001656 353.31720 562.38129
547.0 0.001828 353.27560 549.15552
529.0 0.001890 353.23434 535.52264
518.0 0.001931 353.19339 523.61646
497.0 0.002012 353.15277 515.44977
517.0 0.001934 353.11255 512.73291
501.0 0.001996 353.07269 516.32275
496.0 0.002016 353.03314 526.37238
548.0 0.001825 352.99399 542.20105
553.0 0.001808 352.95520 562.29651
577.0 0.001733 352.91678 584.38306
592.0 0.001689 352.87875 605.57928
661.0 0.001513 352.84109 621.95343
636.0 0.001572 352.80380 633.66437
657.0 0.001522 352.76694 635.48901
647.0 0.001546 352.73047 629.91931
648.0 0.001543 352.69434 619.40894
629.0 0.001590 352.65866 606.90698
629.0 0.001590 352.62335 596.15271
606.0 0.001650 352.58850 589.88086
611.0 0.001637 352.55402 590.63556
645.0 0.001550 352.51996 599.35333
642.0 0.001558 352.48633 616.89642
678.0 0.001475 352.45309 642.95013
688.0 0.001453 352.42032 677.01666
705.0 0.001418 352.38791 716.62195
726.0 0.001377 352.35599 760.56305
804.0 0.001244 352.32446 806.86066
784.0 0.001276 352.29340 853.12317
785.0 0.001274 352.26273 896.80109
850.0 0.001176 352.23251 935.97797
912.0 0.001096 352.20279 970.68365
935.0 0.001070 352.17343 1002.90088
1034.0 0.000967 352.14456 1036.29614
1106.0 0.000904 352.11612 1075.16370
1073.0 0.000932 352.08813 1123.16785
1120.0 0.000893 352.06061 1182.19421
1208.0 0.000828 352.03351 1250.97693
1354.0 0.000739 352.00687 1324.99561
1414.0 0.000707 351.98068 1397.52222
1582.0 0.000632 351.95496 1460.61902
1599.0 0.000625 351.92969 1506.71643
1579.0 0.000633 351.90488 1529.17700
1626.0 0.000615 351.88049 1523.99536
1512.0 0.000661 351.85660 1491.74170
1505.0 0.000664 351.83313 1438.10913
1407.0 0.000711 351.81015 1372.66577
1370.0 0.000730 351.78760 1304.98157
1275.0 0.000784 351.76553 1243.11719
1167.0 0.000857 351.74393 1192.64233
1149.0 0.000870 351.72275 1156.02051
1174.0 0.000852 351.70209 1133.89063
1169.0 0.000855 351.68182 1124.85950
1169.0 0.000855 351.66205 1125.66504
1232.0 0.000812 351.64270 1131.87219
1210.0 0.000826 351.62387 1137.41931
1296.0 0.000772 351.60544 1137.35559
1150.0 0.000870 351.58746 1129.75391
1158.0 0.000864 351.56998 1115.62610
1101.0 0.000908 351.55292 1098.13550
1072.0 0.000933 351.53632 1080.71631
997.0 0.001003 351.52014 1065.52759
974.0 0.001027 351.50446 1053.20081
1047.0 0.000955 351.48920 1042.93176
984.0 0.001016 351.47437 1032.50525
1060.0 0.000943 351.45999 1018.63843
1018.0 0.000982 351.44608 996.98541
1042.0 0.000960 351.43256 967.10187
978.0 0.001022 351.41949 927.48566
930.0 0.001075 351.40686 879.81000
898.0 0.001114 351.39465 827.69244
746.0 0.001340 351.38290 775.59314
726.0 0.001377 351.37155 729.08923
707.0 0.001414 351.36063 692.57422
620.0 0.001613 351.35010 669.09125
659.0 0.001517 351.34003 660.94464
642.0 0.001558 351.33038 669.38593
661.0 0.001513 351.32111 694.42853
705.0 0.001418 351.31223 734.06567
766.0 0.001305 351.30374 785.23029
831.0 0.001203 351.29572 843.28931
1010.0 0.000990 351.28802 902.45325
1139.0 0.000878 351.28076 956.58801
1124.0 0.000890 351.27383 999.86438
1133.0 0.000883 351.26733 1028.38708
1033.0 0.000968 351.26120 1040.72266
953.0 0.001049 351.25543 1037.69348
975.0 0.001026 351.25000 1022.10291
927.0 0.001079 351.24500 998.06470
893.0 0.001120 351.24030 970.59436
903.0 0.001107 351.23599 943.72119
910.0 0.001099 351.23199 920.21881
915.0 0.001093 351.22836 901.08087
919.0 0.001088 351.22507 885.66199
903.0 0.001107 351.22211 872.50598
944.0 0.001059 351.21945 860.07990
901.0 0.001110 351.21710 848.11609
900.0 0.001111 351.21509 838.41895
812.0 0.001232 351.21341 834.26184
847.0 0.001181 351.21198 840.32739
840.0 0.001190 351.21088 862.13007
839.0 0.001192 351.21005 905.95367
900.0 0.001111 351.20953 978.18250
990.0 0.001010 351.20929 1084.18262
1090.0 0.000917 351.20929 1226.92041
1214.0 0.000824 351.20953 1405.77087
1410.0 0.000709 351.21005 1615.57727
1674.0 0.000597 351.21088 1846.11853
1926.0 0.000519 351.21185 2081.98535
2347.0 0.000426 351.21310 2303.21704
2615.0 0.000382 351.21460 2487.68433
2898.0 0.0003451 351.21631 2616.03906
2953.0 0.0003386 351.21820 2678.80957
2980.0 0.0003356 351.22028 2677.85132
2885.0 0.0003466 351.22260 2624.01904
2511.0 0.000398 351.22513 2531.21289
2372.0 0.000422 351.22778 2412.76392
2170.0 0.000461 351.23065 2280.11230
2076.0 0.000482 351.23364 2142.18384
1949.0 0.000513 351.23685 2004.96997
1839.0 0.000544 351.24014 1871.12231
1768.0 0.000566 351.24359 1740.44226
1715.0 0.000583 351.24722 1610.33887
1560.0 0.000641 351.25089 1480.15247
1417.0 0.000706 351.25476 1351.22388
1257.0 0.000796 351.25867 1226.70911
1130.0 0.000885 351.26273 1109.86267
933.0 0.001072 351.26685 1002.99298
888.0 0.001126 351.27103 907.16309
743.0 0.001346 351.27530 823.45740
757.0 0.001321 351.27960 751.98926
676.0 0.001479 351.28400 692.61792
661.0 0.001513 351.28842 645.13574
662.0 0.001511 351.29285 608.44922
622.0 0.001608 351.29733 581.53723
620.0 0.001613 351.30185 562.92029
577.0 0.001733 351.30634 551.81744
547.0 0.001828 351.31082 547.21368
550.0 0.001818 351.31528 549.06873
571.0 0.001751 351.31973 556.85999
567.0 0.001764 351.32413 570.92249
613.0 0.001631 351.32852 590.74469
663.0 0.001508 351.33279 618.49341
676.0 0.001479 351.33704 654.21356
644.0 0.001553 351.34119 698.06122
782.0 0.001279 351.34528 749.62360
812.0 0.001232 351.34927 807.43835
859.0 0.001164 351.35315 869.27686
890.0 0.001124 351.35690 932.58667
952.0 0.001050 351.36053 994.32886
960.0 0.001042 351.36404 1051.23230
1065.0 0.000939 351.36740 1098.84912
1090.0 0.000917 351.37057 1132.42957
1177.0 0.000850 351.37360 1147.77979
1209.0 0.000827 351.37646 1142.36841
1204.0 0.000831 351.37909 1117.05200
1226.0 0.000816 351.38156 1074.41614
1036.0 0.000965 351.38379 1019.27466
1000.0 0.001000 351.38583 957.95135
971.0 0.001030 351.38760 896.78528
865.0 0.001156 351.38913 841.42682
870.0 0.001149 351.39044 795.66809
747.0 0.001339 351.39145 761.69153
753.0 0.001328 351.39221 739.69080
764.0 0.001309 351.39267 729.02118
737.0 0.001357 351.39282 727.95282
772.0 0.001295 351.39267 733.84839
801.0 0.001248 351.39221 744.42596
756.0 0.001323 351.39142 756.63147
786.0 0.001272 351.39026 767.92499
779.0 0.001284 351.38879 774.39362
776.0 0.001289 351.38693 773.56787
693.0 0.001443 351.38467 763.84760
681.0 0.001468 351.38205 745.25653
661.0 0.001513 351.37906 719.82764
650.0 0.001538 351.37564 690.50885
615.0 0.001626 351.37177 660.52130
645.0 0.001550 351.36752 632.87677
594.0 0.001684 351.36282 610.19855
606.0 0.001650 351.35760 593.78198
589.0 0.001698 351.35202 584.38147
596.0 0.001678 351.34592 581.25360
587.0 0.001704 351.33936 583.53711
617.0 0.001621 351.33224 588.55151
608.0 0.001645 351.32468 593.38428
600.0 0.001667 351.31659 595.70728
598.0 0.001672 351.30792 593.14502
594.0 0.001684 351.29877 584.58575
553.0 0.001808 351.28909 570.26953
600.0 0.001667 351.27881 551.45380
539.0 0.001855 351.26794 529.81433
530.0 0.001887 351.25656 507.10522
523.0 0.001912 351.24451 484.95929
461.0 0.002169 351.23187 464.79233
404.0 0.002475 351.21866 447.18793
402.0 0.002488 351.20477 432.75873
417.0 0.002398 351.19031 421.62958
443.0 0.002257 351.17517 413.71478
403.0 0.002481 351.15939 408.67596
410.0 0.002439 351.14294 406.27753
394.0 0.002538 351.12579 406.14230
411.0 0.002433 351.10800 408.00174
430.0 0.002326 351.08948 411.67902
402.0 0.002488 351.07025 417.10553
449.0 0.002227 351.05032 424.33051
422.0 0.002370 351.02969 433.39752
434.0 0.002304 351.00827 444.45166
451.0 0.002217 350.98615 458.04147
506.0 0.001976 350.96326 473.31049
532.0 0.001880 350.93961 489.30923
482.0 0.002075 350.91516 508.95883
570.0 0.001754 350.88995 530.82593
541.0 0.001848 350.86395 554.63843
605.0 0.001653 350.83716 580.61584
612.0 0.001634 350.80951 607.54053
607.0 0.001647 350.78110 634.40204
625.0 0.001600 350.75180 658.69196
614.0 0.001629 350.72171 678.77722
591.0 0.001692 350.69073 691.14630
588.0 0.001701 350.65894 694.60297
595.0 0.001681 350.62628 688.89374
594.0 0.001684 350.59271 677.34259
588.0 0.001701 350.55829 663.05615
571.0 0.001751 350.52301 649.93976
632.0 0.001582 350.48676 641.43927
660.0 0.001515 350.44965 640.10956
593.0 0.001686 350.41162 647.29346
670.0 0.001493 350.37265 663.38782
717.0 0.001395 350.33276 687.22528
749.0 0.001335 350.29190 716.54205
810.0 0.001235 350.25018 748.11102
767.0 0.001304 350.20743 778.19415
869.0 0.001151 350.16376 803.33301
872.0 0.001147 350.11911 821.17780
886.0 0.001129 350.07346 830.37305
852.0 0.001174 350.02686 830.80310
873.0 0.001145 349.97925 822.94098
827.0 0.001209 349.93066 807.09039
821.0 0.001218 349.88104 783.96936
804.0 0.001244 349.83044 754.94464
775.0 0.001290 349.77884 722.51758
689.0 0.001451 349.72620 689.10876
694.0 0.001441 349.67252 657.34772
608.0 0.001645 349.61780 628.96509
609.0 0.001642 349.56207 605.48181
534.0 0.001873 349.50528 585.74603
523.0 0.001912 349.44748 570.30591
525.0 0.001905 349.38855 558.88605
546.0 0.001832 349.32861 550.61633
537.0 0.001862 349.26761 545.26117
505.0 0.001980 349.20551 542.75476
531.0 0.001883 349.14236 543.62006
518.0 0.001931 349.07813 548.34888
537.0 0.001862 349.01282 557.19733
568.0 0.001761 348.94638 570.80713
571.0 0.001751 348.87891 589.94751
640.0 0.001563 348.81030 614.50458
691.0 0.001447 348.74060 644.76642
734.0 0.001362 348.66980 681.38513
758.0 0.001319 348.59787 724.16522
815.0 0.001227 348.52487 772.91943
883.0 0.001133 348.45071 826.80365
951.0 0.001052 348.37549 884.24939
958.0 0.001044 348.29910 942.74695
938.0 0.001066 348.22159 998.93121
898.0 0.001114 348.14301 1048.29065
904.0 0.001106 348.06323 1086.12695
952.0 0.001050 347.98239 1108.21155
950.0 0.001053 347.90033 1112.42786
995.0 0.001005 347.81723 1099.27124
1054.0 0.000949 347.73291 1071.79822
1084.0 0.000923 347.64755 1034.37927
984.0 0.001016 347.56100 991.33350
1021.0 0.000979 347.47330 946.51617
925.0 0.001081 347.38452 902.56647
939.0 0.001065 347.29456 861.03864
826.0 0.001211 347.20346 822.59161
808.0 0.001238 347.11118 787.64587
790.0 0.001266 347.01782 756.76917
761.0 0.001314 346.92331 730.64746
757.0 0.001321 346.82764 709.97906
822.0 0.001217 346.73087 695.44910
769.0 0.001300 346.63287 687.72534
790.0 0.001266 346.53381 687.26831
787.0 0.001271 346.43359 694.37543
813.0 0.001230 346.33224 708.44879
828.0 0.001208 346.22974 728.53760
781.0 0.001280 346.12613 752.71454
791.0 0.001264 346.02136 778.36255
759.0 0.001318 345.91550 802.41254
738.0 0.001355 345.80847 820.99866
726.0 0.001377 345.70035 831.25568
727.0 0.001376 345.59109 831.86102
712.0 0.001404 345.48068 823.88531
760.0 0.001316 345.36923 810.73340
750.0 0.001333 345.25656 796.93164
767.0 0.001304 345.14288 786.98798
793.0 0.001261 345.02798 784.61273
791.0 0.001264 344.91208 792.23901
829.0 0.001206 344.79504 810.75403
890.0 0.001124 344.67691 839.32880
942.0 0.001062 344.55768 875.48157
956.0 0.001046 344.43735 915.25104
1011.0 0.000989 344.31598 953.70001
1059.0 0.000944 344.19345 985.68842
1182.0 0.000846 344.06995 1007.11523
1175.0 0.000851 343.94534 1016.29376
1168.0 0.000856 343.81961 1014.62726
1116.0 0.000896 343.69290 1005.44098
1071.0 0.000934 343.56506 993.01367
1016.0 0.000984 343.43625 980.66748
977.0 0.001024 343.30634 969.80035
923.0 0.001083 343.17545 960.38336
891.0 0.001122 343.04349 950.72809
884.0 0.001131 342.91052 937.55444
916.0 0.001092 342.77658 918.11786
928.0 0.001078 342.64157 889.98663
928.0 0.001078 342.50558 853.25745
854.0 0.001171 342.36859 810.93439
876.0 0.001142 342.23065 766.46204
746.0 0.001340 342.09171 723.85352
726.0 0.001377 341.95178 686.74200
717.0 0.001395 341.81091 658.13599
579.0 0.001727 341.66910 640.20898
583.0 0.001715 341.52637 634.22882
593.0 0.001686 341.38260 640.55267
608.0 0.001645 341.23804 658.71100
652.0 0.001534 341.09244 687.55804
667.0 0.001499 340.94598 725.46399
702.0 0.001425 340.79865 770.45502
793.0 0.001261 340.65042 820.68866
870.0 0.001149 340.50131 874.89612
941.0 0.001063 340.35132 932.47205
1013.0 0.000987 340.20047 994.07013
1127.0 0.000887 340.04874 1061.12451
1124.0 0.000890 339.89621 1134.97644
1238.0 0.000808 339.74283 1215.62598
1196.0 0.000836 339.58865 1301.84375
1258.0 0.000795 339.43362 1389.74487
1360.0 0.000735 339.27789 1473.39868
1491.0 0.000671 339.12131 1546.04907
1581.0 0.000633 338.96393 1600.57141
1617.0 0.000618 338.80588 1630.80273
1712.0 0.000584 338.64697 1633.17480
1735.0 0.000576 338.48740 1607.32593
1660.0 0.000602 338.32703 1556.10498
1549.0 0.000646 338.16605 1484.60413
1463.0 0.000684 338.00427 1399.65063
1293.0 0.000773 337.84186 1308.33276
1242.0 0.000805 337.67880 1216.86841
1107.0 0.000903 337.51501 1129.48389
1031.0 0.000970 337.35062 1048.31421
1008.0 0.000992 337.18555 973.70459
984.0 0.001016 337.01990 905.17542
907.0 0.001103 336.85361 842.35315
827.0 0.001209 336.68674 785.63934
822.0 0.001217 336.51932 735.92346
692.0 0.001445 336.35126 694.32599
653.0 0.001531 336.18268 662.02692
631.0 0.001585 336.01352 640.09918
580.0 0.001724 335.84390 629.75635
615.0 0.001626 335.67368 631.75659
640.0 0.001563 335.50305 646.57227
637.0 0.001570 335.33188 673.78839
659.0 0.001517 335.16028 712.53558
713.0 0.001403 334.98822 760.35602
768.0 0.001302 334.81570 815.04578
823.0 0.001215 334.64279 872.30829
875.0 0.001143 334.46939 927.46820
927.0 0.001079 334.29568 975.36554
1053.0 0.000950 334.12155 1011.38599
1011.0 0.000989 333.94708 1031.88464
1032.0 0.000969 333.77222 1034.52686
1071.0 0.000934 333.59711 1019.72949
970.0 0.001031 333.42166 989.74310
1022.0 0.000978 333.24582 948.63721
984.0 0.001016 333.06982 900.43909
876.0 0.001142 332.89346 849.24457
828.0 0.001208 332.71689 798.41840
780.0 0.001282 332.54004 750.54156
707.0 0.001414 332.36307 707.36945
670.0 0.001493 332.18582 669.86920
620.0 0.001613 332.00836 638.27631
586.0 0.001706 331.83081 612.34833
625.0 0.001600 331.65302 591.22687
603.0 0.001658 331.47516 573.74548
576.0 0.001736 331.29712 558.51910
543.0 0.001842 331.11908 544.32452
539.0 0.001855 330.94086 530.44659
531.0 0.001883 330.76260 516.52173
535.0 0.001869 330.58435 503.84375
544.0 0.001838 330.40594 493.01437
507.0 0.001972 330.22760 485.05640
483.0 0.002070 330.04922 480.91370
469.0 0.002132 329.87091 481.30484
474.0 0.002110 329.69257 486.71970
518.0 0.001931 329.51434 497.05829
466.0 0.002146 329.33609 511.86417
528.0 0.001894 329.15799 530.11542
538.0 0.001859 328.98001 550.27032
552.0 0.001812 328.80212 570.32678
560.0 0.001786 328.62439 587.93872
611.0 0.001637 328.44675 600.79651
617.0 0.001621 328.26941 606.56671
621.0 0.001610 328.09213 605.34918
632.0 0.001582 327.91513 597.06561
642.0 0.001558 327.73840 583.09735
616.0 0.001623 327.56180 565.44263
528.0 0.001894 327.38553 546.44257
570.0 0.001754 327.20947 528.17395
471.0 0.002123 327.03381 512.70642
502.0 0.001992 326.85837 501.86407
441.0 0.002268 326.68329 497.19171
479.0 0.002088 326.50854 499.58643
540.0 0.001852 326.33426 510.57581
506.0 0.001976 326.16028 530.65125
574.0 0.001742 325.98666 560.01245
559.0 0.001789 325.81357 598.85181
628.0 0.001592 325.64081 646.85919
643.0 0.001555 325.46857 702.83569
706.0 0.001416 325.29675 765.24872
785.0 0.001274 325.12546 831.77441
838.0 0.001193 324.95462 899.53442
929.0 0.001076 324.78436 965.20477
949.0 0.001054 324.61469 1025.07007
1004.0 0.000996 324.44547 1075.16809
1048.0 0.000954 324.27689 1111.62109
1101.0 0.000908 324.10886 1131.08594
1060.0 0.000943 323.94147 1131.24646
1072.0 0.000933 323.77463 1111.13367
992.0 0.001008 323.60852 1072.10205
1035.0 0.000966 323.44308 1017.16071
981.0 0.001019 323.27823 951.27722
963.0 0.001038 323.11417 879.91180
834.0 0.001199 322.95071 808.35577
791.0 0.001264 322.78806 741.07141
632.0 0.001582 322.62607 681.42194
633.0 0.001580 322.46494 631.43762
578.0 0.001730 322.30447 592.55005
544.0 0.001838 322.14490 564.65326
514.0 0.001946 321.98611 547.16083
524.0 0.001908 321.82809 538.50067
471.0 0.002123 321.67096 537.06244
509.0 0.001965 321.51462 540.93030
557.0 0.001795 321.35925 548.15656
571.0 0.001751 321.20468 557.14838
588.0 0.001701 321.05106 566.88452
618.0 0.001618 320.89828 576.51270
580.0 0.001724 320.74655 585.70032
617.0 0.001621 320.59570 593.93762
591.0 0.001692 320.44580 600.46362
625.0 0.001600 320.29694 604.28436
612.0 0.001634 320.14899 604.40906
628.0 0.001592 320.00211 600.21851
612.0 0.001634 319.85620 591.74237
635.0 0.001575 319.71136 579.32507
605.0 0.001653 319.56757 564.67383
599.0 0.001669 319.42484 548.67407
582.0 0.001718 319.28317 532.33698
514.0 0.001946 319.14258 516.59564
536.0 0.001866 319.00314 502.05408
500.0 0.002000 318.86478 488.99991
486.0 0.002058 318.72757 477.44122
472.0 0.002119 318.59143 467.21774
419.0 0.002387 318.45657 458.21329
447.0 0.002237 318.32285 450.34659
423.0 0.002364 318.19025 443.88049
414.0 0.002415 318.05893 439.18796
442.0 0.002262 317.92874 436.68573
452.0 0.002212 317.79980 436.75925
434.0 0.002304 317.67206 439.72107
438.0 0.002283 317.54562 445.79465
427.0 0.002342 317.42038 455.10092
473.0 0.002114 317.29648 467.52783
462.0 0.002165 317.17383 483.06131
465.0 0.002151 317.05243 501.77042
521.0 0.001919 316.93234 523.27197
565.0 0.001770 316.81357 547.71503
539.0 0.001855 316.69617 575.09357
529.0 0.001890 316.58002 605.39532
602.0 0.001661 316.46524 638.25201
653.0 0.001531 316.35187 672.94104
694.0 0.001441 316.23981 707.29016
711.0 0.001406 316.12912 739.70880
738.0 0.001355 316.01981 767.47638
792.0 0.001263 315.91190 788.53619
856.0 0.001168 315.80533 800.76349
824.0 0.001214 315.70023 803.73340
814.0 0.001229 315.59653 796.71295
800.0 0.001250 315.49426 780.32813
774.0 0.001292 315.39343 755.44482
764.0 0.001309 315.29404 723.74237
776.0 0.001289 315.19608 686.75330
718.0 0.001393 315.09955 646.66174
664.0 0.001506 315.00455 605.66150
586.0 0.001706 314.91095 565.72522
553.0 0.001808 314.81888 528.56073
540.0 0.001852 314.72821 495.36545
471.0 0.002123 314.63910 466.98416
497.0 0.002012 314.55148 443.79214
431.0 0.002320 314.46530 425.81091
429.0 0.002331 314.38071 412.81775
426.0 0.002347 314.29758 404.27673
386.0 0.002591 314.21597 399.64636
412.0 0.002427 314.13586 398.26422
421.0 0.002375 314.05731 399.45679
427.0 0.002342 313.98029 402.59277
400.0 0.002500 313.90475 407.07498
418.0 0.002392 313.83084 412.48978
382.0 0.002618 313.75839 418.52704
433.0 0.002309 313.68750 425.31287
431.0 0.002320 313.61813 433.23465
437.0 0.002288 313.55038 442.89709
426.0 0.002347 313.48413 455.22580
494.0 0.002024 313.41946 471.04877
492.0 0.002033 313.35635 491.01715
533.0 0.001876 313.29477 515.49933
528.0 0.001894 313.23477 544.49677
572.0 0.001748 313.17633 577.65491
589.0 0.001698 313.11948 614.02783
568.0 0.001761 313.06412 652.38342
632.0 0.001582 313.01041 691.08362
670.0 0.001493 312.95822 728.43213
708.0 0.001412 312.90759 762.81989
766.0 0.001305 312.85849 793.03680
833.0 0.001200 312.81104 818.10278
803.0 0.001245 312.76511 837.30902
877.0 0.001140 312.72073 849.76917
851.0 0.001175 312.67795 854.54205
847.0 0.001181 312.63669 850.97150
785.0 0.001274 312.59695 839.00085
869.0 0.001151 312.55887 819.21924
803.0 0.001245 312.52228 792.81342
822.0 0.001217 312.48724 761.32861
745.0 0.001342 312.45374 726.86499
685.0 0.001460 312.42184 691.76398
734.0 0.001362 312.39145 658.29529
652.0 0.001534 312.36258 628.41602
628.0 0.001592 312.33527 603.35046
547.0 0.001828 312.30948 583.55756
537.0 0.001862 312.28525 569.18414
522.0 0.001916 312.26248 559.37982
536.0 0.001866 312.24127 553.45496
587.0 0.001704 312.22159 550.24506
593.0 0.001686 312.20337 548.56677
562.0 0.001779 312.18671 548.40143
589.0 0.001698 312.17151 549.60419
601.0 0.001664 312.15781 552.47101
542.0 0.001845 312.14560 557.42566
508.0 0.001969 312.13486 564.86572
568.0 0.001761 312.12558 574.56628
607.0 0.001647 312.11777 585.98566
606.0 0.001650 312.11145 598.18268
575.0 0.001739 312.10654 609.75354
607.0 0.001647 312.10309 619.19818
671.0 0.001490 312.10107 625.18744
634.0 0.001577 312.10046 626.85205
647.0 0.001546 312.10129 623.95972
612.0 0.001634 312.10355 616.37933
639.0 0.001565 312.10718 604.46881
583.0 0.001715 312.11218 588.99847
548.0 0.001825 312.11859 570.80902
573.0 0.001745 312.12640 551.18005
587.0 0.001704 312.13556 531.50012
514.0 0.001946 312.14603 512.96283
475.0 0.002105 312.15790 496.65332
452.0 0.002212 312.17108 483.30759
494.0 0.002024 312.18555 472.61023
446.0 0.002242 312.20135 464.77069
502.0 0.001992 312.21848 459.14487
421.0 0.002375 312.23691 455.16486
473.0 0.002114 312.25656 452.25790
440.0 0.002273 312.27753 450.02798
473.0 0.002114 312.29971 447.84991
457.0 0.002188 312.32312 445.70691
447.0 0.002237 312.34778 443.53799
447.0 0.002237 312.37369 441.29605
484.0 0.002066 312.40079 438.97733
465.0 0.002151 312.42905 436.64456
441.0 0.002268 312.45853 434.71365
472.0 0.002119 312.48917 433.72577
451.0 0.002217 312.52090 434.50385
441.0 0.002268 312.55386 438.01019
456.0 0.002193 312.58786 445.33762
461.0 0.002169 312.62302 457.27451
491.0 0.002037 312.65927 474.68243
478.0 0.002092 312.69659 498.17776
471.0 0.002123 312.73495 528.05499
513.0 0.001949 312.77441 564.23364
568.0 0.001761 312.81491 606.19763
608.0 0.001645 312.85638 652.90656
639.0 0.001565 312.89890 702.91718
716.0 0.001397 312.94241 754.15186
787.0 0.001271 312.98691 804.18488
895.0 0.001117 313.03232 850.35767
936.0 0.001068 313.07870 890.44586
973.0 0.001028 313.12601 923.14337
954.0 0.001048 313.17426 948.47131
988.0 0.001012 313.22333 967.33209
1027.0 0.000974 313.27338 981.12305
996.0 0.001004 313.32425 991.50677
1038.0 0.000963 313.37592 999.00409
1091.0 0.000917 313.42847 1003.69360
1073.0 0.000932 313.48181 1005.08344
1000.0 0.001000 313.53598 1002.46008
1110.0 0.000901 313.59088 994.88000
1054.0 0.000949 313.64658 981.49030
945.0 0.001058 313.70303 962.02667
929.0 0.001076 313.76016 937.24207
901.0 0.001110 313.81805 908.33844
853.0 0.001172 313.87659 876.89252
816.0 0.001225 313.93582 844.51666
755.0 0.001325 313.99570 812.67828
773.0 0.001294 314.05627 782.56140
740.0 0.001351 314.11740 755.00439
735.0 0.001361 314.17911 730.58411
712.0 0.001404 314.24149 709.79547
702.0 0.001425 314.30435 693.15454
665.0 0.001504 314.36780 681.12598
655.0 0.001527 314.43179 673.98877
655.0 0.001527 314.49628 671.54169
704.0 0.001420 314.56122 673.33630
666.0 0.001502 314.62668 678.57153
723.0 0.001383 314.69260 686.23480
741.0 0.001350 314.75891 695.19794
722.0 0.001385 314.82565 704.49548
759.0 0.001318 314.89279 713.25684
734.0 0.001362 314.96033 720.89081
739.0 0.001353 315.02820 726.86298
727.0 0.001376 315.09644 730.60242
677.0 0.001477 315.16501 731.37927
681.0 0.001468 315.23383 728.43976
693.0 0.001443 315.30298 721.31348
650.0 0.001538 315.37238 710.05139
659.0 0.001517 315.44202 695.28253
642.0 0.001558 315.51187 677.87097
637.0 0.001570 315.58197 658.69781
656.0 0.001524 315.65225 638.29858
701.0 0.001427 315.72269 617.57501
652.0 0.001534 315.79327 596.95624
612.0 0.001634 315.86398 577.14441
585.0 0.001709 315.93484 558.99054
571.0 0.001751 316.00574 542.80481
532.0 0.001880 316.07681 529.17114
519.0 0.001927 316.14783 518.25342
539.0 0.001855 316.21893 509.73395
517.0 0.001934 316.29007 503.20306
499.0 0.002004 316.36118 498.14615
500.0 0.002000 316.43225 494.39621
502.0 0.001992 316.50333 491.51581
527.0 0.001898 316.57434 489.32571
517.0 0.001934 316.64526 487.75919
501.0 0.001996 316.71609 487.01239
480.0 0.002083 316.78683 487.47195
499.0 0.002004 316.85742 489.66678
525.0 0.001905 316.92786 494.07086
509.0 0.001965 316.99814 501.07407
500.0 0.002000 317.06824 510.89899
527.0 0.001898 317.13812 523.41479
531.0 0.001883 317.20779 538.41656
538.0 0.001859 317.27725 555.41754
555.0 0.001802 317.34641 573.56738
586.0 0.001706 317.41528 592.04950
542.0 0.001845 317.48392 610.04492
578.0 0.001730 317.55222 627.00989
632.0 0.001582 317.62018 642.91962
645.0 0.001550 317.68781 658.31628
686.0 0.001458 317.75510 674.23065
689.0 0.001451 317.82199 691.92993
726.0 0.001377 317.88846 712.47034
716.0 0.001397 317.95459 737.07275
707.0 0.001414 318.02020 766.51276
764.0 0.001309 318.08542 800.79193
806.0 0.001241 318.15018 840.16937
869.0 0.001151 318.21442 884.06714
914.0 0.001094 318.27820 931.46606
1040.0 0.000962 318.34143 980.19299
1048.0 0.000954 318.40421 1027.50464
1106.0 0.000904 318.46640 1069.79858
1072.0 0.000933 318.52805 1103.52417
1056.0 0.000947 318.58911 1125.24658
1109.0 0.000902 318.64957 1132.35120
1090.0 0.000917 318.70947 1123.70630
1056.0 0.000947 318.76874 1099.91345
1002.0 0.000998 318.82736 1062.57178
920.0 0.001087 318.88531 1014.81995
967.0 0.001034 318.94266 959.76337
908.0 0.001101 318.99930 900.78589
849.0 0.001178 319.05530 841.24670
816.0 0.001225 319.11050 784.17688
827.0 0.001209 319.16507 732.29315
777.0 0.001287 319.21887 686.78680
721.0 0.001387 319.27194 648.69794
652.0 0.001534 319.32425 618.16248
617.0 0.001621 319.37582 594.52905
608.0 0.001645 319.42657 576.71423
621.0 0.001610 319.47653 563.38513
569.0 0.001757 319.52573 553.22241
534.0 0.001873 319.57410 545.19507
589.0 0.001698 319.62158 538.70538
489.0 0.002045 319.66830 533.68195
535.0 0.001869 319.71411 529.97607
512.0 0.001953 319.75909 527.84882
552.0 0.001812 319.80319 527.37811
495.0 0.002020 319.84644 528.39001
520.0 0.001923 319.88876 530.64069
455.0 0.002198 319.93018 533.72449
536.0 0.001866 319.97070 536.98193
493.0 0.002028 320.01028 539.83698
537.0 0.001862 320.04892 541.39032
594.0 0.001684 320.08667 540.75861
567.0 0.001764 320.12341 537.74286
563.0 0.001776 320.15921 531.83270
526.0 0.001901 320.19406 523.01263
526.0 0.001901 320.22794 511.72012
514.0 0.001946 320.26080 498.60724
505.0 0.001980 320.29269 484.38440
470.0 0.002128 320.32361 469.66550
485.0 0.002062 320.35352 455.05121
465.0 0.002151 320.38239 440.97287
420.0 0.002381 320.41025 427.68710
424.0 0.002358 320.43710 416.05560
369.0 0.002710 320.46289 406.23535
370.0 0.002703 320.48767 398.39948
375.0 0.002667 320.51141 392.62616
411.0 0.002433 320.53409 388.87021
387.0 0.002584 320.55573 387.08893
341.0 0.002933 320.57629 387.11874
351.0 0.002849 320.59583 388.50839
376.0 0.002660 320.61429 390.88162
356.0 0.002809 320.63165 394.07953
406.0 0.002463 320.64798 397.54868
414.0 0.002415 320.66324 400.85544
378.0 0.002646 320.67737 403.62473
401.0 0.002494 320.69049 405.60654
417.0 0.002398 320.70245 406.68784
398.0 0.002513 320.71338 406.98438
418.0 0.002392 320.72318 406.51135
368.0 0.002717 320.73193 405.45804
397.0 0.002519 320.73956 403.91107
416.0 0.002404 320.74612 402.04526
424.0 0.002358 320.75159 400.16229
354.0 0.002825 320.75595 398.45209
416.0 0.002404 320.75922 397.24561
382.0 0.002618 320.76141 396.90823
431.0 0.002320 320.76248 397.74338
408.0 0.002451 320.76248 400.03024
401.0 0.002494 320.76135 404.00388
389.0 0.002571 320.75922 409.67776
409.0 0.002445 320.75592 416.85663
414.0 0.002415 320.75153 425.23712
406.0 0.002463 320.74609 434.29739
402.0 0.002488 320.73956 443.38959
418.0 0.002392 320.73193 451.74918
467.0 0.002141 320.72324 458.70126
421.0 0.002375 320.71347 463.44644
456.0 0.002193 320.70261 465.54825
439.0 0.002278 320.69070 464.95432
469.0 0.002132 320.67773 462.03989
475.0 0.002105 320.66370 457.37546
468.0 0.002137 320.64862 451.67294
435.0 0.002299 320.63248 445.69736
421.0 0.002375 320.61530 440.41385
451.0 0.002217 320.59705 435.40897
405.0 0.002469 320.57776 431.41699
426.0 0.002347 320.55746 428.60791
416.0 0.002404 320.53616 427.16238
430.0 0.002326 320.51379 427.07773
425.0 0.002353 320.49048 428.36624
458.0 0.002183 320.46609 431.06839
461.0 0.002169 320.44073 435.02502
430.0 0.002326 320.41440 440.34808
436.0 0.002294 320.38705 447.10919
435.0 0.002299 320.35873 455.45297
477.0 0.002096 320.32950 465.66150
485.0 0.002062 320.29922 477.99829
474.0 0.002110 320.26804 492.49203
520.0 0.001923 320.23590 509.64557
538.0 0.001859 320.20285 529.56696
564.0 0.001773 320.16882 552.41248
536.0 0.001866 320.13391 577.98627
606.0 0.001650 320.09811 605.78534
592.0 0.001689 320.06140 635.16113
640.0 0.001563 320.02377 665.21558
675.0 0.001481 319.98529 694.98022
702.0 0.001425 319.94598 723.55450
706.0 0.001416 319.90576 750.63879
725.0 0.001379 319.86469 776.38995
831.0 0.001203 319.82281 801.43433
831.0 0.001203 319.78012 826.61279
823.0 0.001215 319.73660 852.58228
852.0 0.001174 319.69229 879.68524
852.0 0.001174 319.64722 907.93304
875.0 0.001143 319.60129 936.73285
888.0 0.001126 319.55466 965.15167
1000.0 0.001000 319.50726 991.40442
1003.0 0.000997 319.45914 1014.01410
987.0 0.001013 319.41025 1030.77576
1029.0 0.000972 319.36072 1040.15271
1101.0 0.000908 319.31042 1041.09900
1093.0 0.000915 319.25943 1033.30713
1129.0 0.000886 319.20779 1017.37030
1137.0 0.000880 319.15552 994.13245
1090.0 0.000917 319.10257 964.58337
1005.0 0.000995 319.04895 930.12805
936.0 0.001068 318.99481 892.51514
868.0 0.001152 318.93997 853.86694
840.0 0.001190 318.88458 816.40033
793.0 0.001261 318.82864 781.98126
743.0 0.001346 318.77206 752.11407
690.0 0.001449 318.71500 727.58557
692.0 0.001445 318.65735 708.42957
658.0 0.001520 318.59924 694.41211
623.0 0.001605 318.54059 684.45721
630.0 0.001587 318.48145 677.56012
645.0 0.001550 318.42188 672.63538
703.0 0.001422 318.36182 668.80261
679.0 0.001473 318.30130 665.41492
666.0 0.001502 318.24036 662.02429
695.0 0.001439 318.17905 658.27759
684.0 0.001462 318.11731 653.96387
693.0 0.001443 318.05518 648.82928
734.0 0.001362 317.99274 642.81464
726.0 0.001377 317.92990 635.88770
762.0 0.001312 317.86673 628.13361
701.0 0.001427 317.80322 619.61768
673.0 0.001486 317.73947 610.32001
654.0 0.001529 317.67538 600.15253
607.0 0.001647 317.61105 588.74927
581.0 0.001721 317.54648 575.74878
566.0 0.001767 317.48166 560.89160
538.0 0.001859 317.41663 544.17944
523.0 0.001912 317.35138 525.93567
506.0 0.001976 317.28595 506.83450
475.0 0.002105 317.22034 487.62866
491.0 0.002037 317.15457 469.09412
434.0 0.002304 317.08868 451.91971
442.0 0.002262 317.02264 436.67035
420.0 0.002381 316.95651 423.78040
404.0 0.002475 316.89032 413.67938
415.0 0.002410 316.82401 406.29843
409.0 0.002445 316.75766 401.83044
447.0 0.002237 316.69128 400.30148
425.0 0.002353 316.62485 401.48883
384.0 0.002604 316.55844 405.30084
414.0 0.002415 316.49197 411.43292
398.0 0.002513 316.42560 419.67197
456.0 0.002193 316.35922 429.54236
469.0 0.002132 316.29294 440.78503
452.0 0.002212 316.22672 452.94348
472.0 0.002119 316.16055 465.61642
509.0 0.001965 316.09451 478.39841
510.0 0.001961 316.02856 490.95361
567.0 0.001764 315.96283 502.91544
557.0 0.001795 315.89716 513.89453
556.0 0.001799 315.83167 523.40961
504.0 0.001984 315.76642 531.02362
548.0 0.001825 315.70129 536.31805
514.0 0.001946 315.63641 538.99762
515.0 0.001942 315.57175 538.97491
515.0 0.001942 315.50732 536.42218
509.0 0.001965 315.44315 531.76941
504.0 0.001984 315.37930 525.60773
492.0 0.002033 315.31567 518.54535
537.0 0.001862 315.25235 511.08417
514.0 0.001946 315.18936 503.55347
496.0 0.002016 315.12671 496.11105
489.0 0.002045 315.06439 488.79523
509.0 0.001965 315.00241 481.61792
497.0 0.002012 314.94083 474.68909
528.0 0.001894 314.87961 468.03452
533.0 0.001876 314.81879 462.19296
547.0 0.001828 314.75836 457.38614
483.0 0.002070 314.69843 453.99326
473.0 0.002114 314.63889 452.15320
499.0 0.002004 314.57977 452.20386
440.0 0.002273 314.52118 454.34418
455.0 0.002198 314.46301 458.79147
450.0 0.002222 314.40536 465.82736
481.0 0.002079 314.34818 475.92422
474.0 0.002110 314.29156 489.62225
483.0 0.002070 314.23544 507.53317
494.0 0.002024 314.17984 530.28070
562.0 0.001779 314.12485 558.40216
544.0 0.001838 314.07034 592.32562
560.0 0.001786 314.01642 632.16510
595.0 0.001681 313.96310 677.65283
642.0 0.001558 313.91037 728.08917
714.0 0.001401 313.85818 782.22040
738.0 0.001355 313.80667 838.39929
718.0 0.001393 313.75580 894.39124
836.0 0.001196 313.70547 947.53864
928.0 0.001078 313.65585 995.01965
1002.0 0.000998 313.60687 1034.12402
1113.0 0.000898 313.55853 1062.70996
1090.0 0.000917 313.51083 1079.91028
1129.0 0.000886 313.46390 1086.30481
1112.0 0.000899 313.41754 1083.69238
1135.0 0.000881 313.37195 1074.45972
1122.0 0.000891 313.32706 1060.83972
1032.0 0.000969 313.28281 1044.59680
975.0 0.001026 313.23932 1027.03918
964.0 0.001037 313.19653 1008.37701
904.0 0.001106 313.15448 988.34631
942.0 0.001062 313.11316 966.36108
929.0 0.001076 313.07257 940.88135
1010.0 0.000990 313.03278 910.87415
999.0 0.001001 312.99368 875.89691
969.0 0.001032 312.95532 835.89795
901.0 0.001110 312.91776 791.96912
859.0 0.001164 312.88095 745.61853
791.0 0.001264 312.84491 698.50549
741.0 0.001350 312.80966 652.99231
633.0 0.001580 312.77518 610.41913
607.0 0.001647 312.74149 571.86487
567.0 0.001764 312.70856 538.63818
493.0 0.002028 312.67642 511.16193
512.0 0.001953 312.64511 489.69547
474.0 0.002110 312.61459 473.94409
473.0 0.002114 312.58484 464.08240
456.0 0.002193 312.55591 459.31149
456.0 0.002193 312.52774 458.91519
420.0 0.002381 312.50037 462.07544
479.0 0.002088 312.47385 467.89478
411.0 0.002433 312.44809 475.47357
436.0 0.002294 312.42316 483.96057
469.0 0.002132 312.39899 492.61703
442.0 0.002262 312.37567 500.97266
476.0 0.002101 312.35315 508.31628
495.0 0.002020 312.33139 514.84106
512.0 0.001953 312.31049 520.43195
509.0 0.001965 312.29031 525.19495
525.0 0.001905 312.27097 529.34222
520.0 0.001923 312.25244 532.78320
554.0 0.001805 312.23468 535.50531
557.0 0.001795 312.21771 537.32520
553.0 0.001808 312.20154 538.02368
543.0 0.001842 312.18616 537.45300
540.0 0.001852 312.17154 535.28314
560.0 0.001786 312.15768 531.23657
523.0 0.001912 312.14465 525.29742
496.0 0.002016 312.13232 517.56818
548.0 0.001825 312.12079 508.36682
544.0 0.001838 312.11002 498.00876
540.0 0.001852 312.10004 486.87207
475.0 0.002105 312.09076 475.37024
492.0 0.002033 312.08221 463.97202
491.0 0.002037 312.07446 453.13000
458.0 0.002183 312.06738 443.30008
454.0 0.002203 312.06104 434.85278
443.0 0.002257 312.05542 428.04776
446.0 0.002242 312.05051 423.02744
404.0 0.002475 312.04630 419.83090
411.0 0.002433 312.04279 418.51160
413.0 0.002421 312.03998 418.71094
411.0 0.002433 312.03781 420.37051
416.0 0.002404 312.03632 423.30914
434.0 0.002304 312.03552 427.39365
445.0 0.002247 312.03537 432.58307
456.0 0.002193 312.03583 438.98129
443.0 0.002257 312.03696 446.82761
447.0 0.002237 312.03870 456.37262
476.0 0.002101 312.04105 467.89209
461.0 0.002169 312.04401 481.53101
477.0 0.002096 312.04755 497.28601
487.0 0.002053 312.05167 514.95667
516.0 0.001938 312.05637 534.12085
491.0 0.002037 312.06165 554.11743
577.0 0.001733 312.06744 574.03979
604.0 0.001656 312.07379 592.77759
573.0 0.001745 312.08066 609.12042
590.0 0.001695 312.08804 621.92615
606.0 0.001650 312.09595 630.29309
609.0 0.001642 312.10431 633.68903
577.0 0.001733 312.11316 631.96582
597.0 0.001675 312.12250 625.32080
625.0 0.001600 312.13223 614.15485
575.0 0.001739 312.14243 599.13440
580.0 0.001724 312.15308 580.87109
593.0 0.001686 312.16412 560.39978
592.0 0.001689 312.17554 538.53180
572.0 0.001748 312.18735 516.15381
509.0 0.001965 312.19952 494.06091
476.0 0.002101 312.21204 473.06412
511.0 0.001957 312.22495 453.70306
491.0 0.002037 312.23813 436.46234
457.0 0.002188 312.25165 421.68695
461.0 0.002169 312.26547 409.57867
404.0 0.002475 312.27954 400.37537
402.0 0.002488 312.29385 394.15033
408.0 0.002451 312.30844 391.03812
387.0 0.002584 312.32330 390.96902
374.0 0.002674 312.33832 394.11334
389.0 0.002571 312.35358 400.47333
390.0 0.002564 312.36902 410.05206
411.0 0.002433 312.38461 422.91788
422.0 0.002370 312.40036 438.68665
421.0 0.002375 312.41626 457.21698
419.0 0.002387 312.43228 478.11877
468.0 0.002137 312.44839 500.72000
450.0 0.002222 312.46463 524.33282
507.0 0.001972 312.48093 548.01953
575.0 0.001739 312.49728 570.75562
560.0 0.001786 312.51364 591.35791
573.0 0.001745 312.53006 608.72070
609.0 0.001642 312.54651 621.81897
631.0 0.001585 312.56290 629.82434
632.0 0.001582 312.57928 632.23944
647.0 0.001546 312.59564 628.99597
621.0 0.001610 312.61194 620.53058
632.0 0.001582 312.62811 607.68146
631.0 0.001585 312.64426 591.47101
584.0 0.001712 312.66025 573.23004
572.0 0.001748 312.67612 554.28003
533.0 0.001876 312.69186 535.80463
519.0 0.001927 312.70746 518.72980
520.0 0.001923 312.72284 503.76779
499.0 0.002004 312.73804 491.41962
491.0 0.002037 312.75308 481.89066
466.0 0.002146 312.76782 475.32281
461.0 0.002169 312.78235 471.65680
441.0 0.002268 312.79666 470.77319
463.0 0.002160 312.81067 472.45966
468.0 0.002137 312.82434 476.57144
500.0 0.002000 312.83777 483.04544
551.0 0.001815 312.85083 491.95990
479.0 0.002088 312.86356 502.91873
459.0 0.002179 312.87595 516.96619
520.0 0.001923 312.88797 533.73541
503.0 0.001988 312.89960 553.05908
513.0 0.001949 312.91080 574.58160
558.0 0.001792 312.92160 597.71973
582.0 0.001718 312.93198 621.30676
569.0 0.001757 312.94186 644.08313
631.0 0.001585 312.95132 664.67932
631.0 0.001585 312.96030 681.42505
651.0 0.001536 312.96878 692.86237
711.0 0.001406 312.97675 697.91406
706.0 0.001416 312.98419 696.04504
770.0 0.001299 312.99112 687.54211
736.0 0.001359 312.99744 673.44373
740.0 0.001351 313.00323 654.62292
700.0 0.001429 313.00845 632.54218
632.0 0.001582 313.01306 608.69250
652.0 0.001534 313.01703 584.52338
566.0 0.001767 313.02045 561.35767
559.0 0.001789 313.02319 540.32721
530.0 0.001887 313.02527 522.34436
511.0 0.001957 313.02673 508.07483
456.0 0.002193 313.02750 497.92258
512.0 0.001953 313.02756 492.02304
478.0 0.002092 313.02698 490.25232
508.0 0.001969 313.02563 492.24973
512.0 0.001953 313.02356 497.49146
523.0 0.001912 313.02078 505.15378
527.0 0.001898 313.01730 514.39844
515.0 0.001942 313.01300 524.23718
542.0 0.001845 313.00797 533.60046
508.0 0.001969 313.00220 541.56732
536.0 0.001866 312.99561 547.15656
497.0 0.002012 312.98819 549.78961
519.0 0.001927 312.97998 549.32263
535.0 0.001869 312.97101 545.80786
516.0 0.001938 312.96118 539.61389
514.0 0.001946 312.95053 531.27496
480.0 0.002083 312.93906 521.35089
496.0 0.002016 312.92670 510.56497
469.0 0.002132 312.91348 499.52036
493.0 0.002028 312.89944 488.74338
528.0 0.001894 312.88452 478.76929
477.0 0.002096 312.86874 469.93985
495.0 0.002020 312.85205 462.46616
495.0 0.002020 312.83450 456.77072
456.0 0.002193 312.81604 453.02863
441.0 0.002268 312.79669 451.38358
439.0 0.002278 312.77643 451.85678
485.0 0.002062 312.75525 454.37466
467.0 0.002141 312.73315 458.69339
484.0 0.002066 312.71017 464.39813
460.0 0.002174 312.68625 471.06863
533.0 0.001876 312.66141 478.20975
551.0 0.001815 312.63562 485.09482
529.0 0.001890 312.60895 491.12399
537.0 0.001862 312.58130 495.56128
555.0 0.001802 312.55270 497.81274
595.0 0.001681 312.52322 497.45132
595.0 0.001681 312.49277 494.35687
550.0 0.001818 312.46140 488.64774
522.0 0.001916 312.42905 480.75043
542.0 0.001845 312.39581 471.16537
487.0 0.002053 312.36160 460.55615
458.0 0.002183 312.32645 449.43903
464.0 0.002155 312.29037 438.30615
425.0 0.002353 312.25336 427.61649
469.0 0.002132 312.21539 417.76602
462.0 0.002165 312.17648 409.08444
381.0 0.002625 312.13672 401.81531
413.0 0.002421 312.09595 396.14359
402.0 0.002488 312.05426 392.13910
398.0 0.002513 312.01169 389.79144
394.0 0.002538 311.96817 389.02304
367.0 0.002725 311.92374 389.69513
366.0 0.002732 311.87836 391.62460
405.0 0.002469 311.83215 394.47751
406.0 0.002463 311.78500 398.29514
373.0 0.002681 311.73694 402.78818
403.0 0.002481 311.68805 407.62320
393.0 0.002545 311.63821 412.94843
433.0 0.002309 311.58752 418.42010
440.0 0.002273 311.53598 424.29172
433.0 0.002309 311.48355 431.03241
446.0 0.002242 311.43027 438.28085
441.0 0.002268 311.37616 446.65405
473.0 0.002114 311.32120 456.48929
480.0 0.002083 311.26541 467.95160
446.0 0.002242 311.20880 481.20145
417.0 0.002398 311.15140 496.22543
487.0 0.002053 311.09317 512.91077
476.0 0.002101 311.03412 530.98383
479.0 0.002088 310.97437 549.99518
506.0 0.001976 310.91379 569.31036
558.0 0.001792 310.85245 588.21533
510.0 0.001961 310.79034 605.93665
543.0 0.001842 310.72757 621.75470
638.0 0.001567 310.66403 635.08795
592.0 0.001689 310.59976 645.55426
568.0 0.001761 310.53485 652.98895
622.0 0.001608 310.46921 657.45093
593.0 0.001686 310.40289 659.29816
618.0 0.001618 310.33591 659.12323
681.0 0.001468 310.26831 657.68585
644.0 0.001553 310.20004 655.64819
647.0 0.001546 310.13116 653.79846
601.0 0.001664 310.06171 652.72028
654.0 0.001529 309.99164 652.90747
639.0 0.001565 309.92099 654.61420
629.0 0.001590 309.84979 657.93347
683.0 0.001464 309.77805 662.67889
680.0 0.001471 309.70575 668.59344
716.0 0.001397 309.63300 675.05908
694.0 0.001441 309.55969 681.35101
643.0 0.001555 309.48590 686.58679
658.0 0.001520 309.41165 690.07697
704.0 0.001420 309.33698 691.31567
702.0 0.001425 309.26187 690.09680
686.0 0.001458 309.18634 686.57178
694.0 0.001441 309.11044 680.99915
721.0 0.001387 309.03412 673.87146
664.0 0.001506 308.95746 665.80133
705.0 0.001418 308.88046 657.25958
661.0 0.001513 308.80310 648.83582
680.0 0.001471 308.72546 641.00433
690.0 0.001449 308.64752 634.10834
636.0 0.001572 308.56934 628.34705
647.0 0.001546 308.49088 623.76099
624.0 0.001603 308.41217 620.34723
652.0 0.001534 308.33328 618.22089
614.0 0.001629 308.25418 616.71448
668.0 0.001497 308.17490 615.86658
671.0 0.001490 308.09543 615.45563
679.0 0.001473 308.01587 615.21820
617.0 0.001621 307.93613 614.91132
579.0 0.001727 307.85632 614.26788
615.0 0.001626 307.77643 613.08331
628.0 0.001592 307.69650 611.19403
607.0 0.001647 307.61649 608.51807
614.0 0.001629 307.53644 605.01044
652.0 0.001534 307.45645 600.60742
591.0 0.001692 307.37640 594.99835
631.0 0.001585 307.29642 588.44342
675.0 0.001481 307.21649 580.52582
648.0 0.001543 307.13660 571.18719
580.0 0.001724 307.05682 560.35962
589.0 0.001698 306.97717 548.37439
591.0 0.001692 306.89761 535.60236
544.0 0.001838 306.81821 522.61548
505.0 0.001980 306.73898 510.03497
520.0 0.001923 306.65991 498.42896
519.0 0.001927 306.58105 488.32358
510.0 0.001961 306.50241 480.07584
479.0 0.002088 306.42404 473.87204
485.0 0.002062 306.34592 469.81033
465.0 0.002151 306.26804 467.85495
470.0 0.002128 306.19052 467.82755
458.0 0.002183 306.11325 469.51230
445.0 0.002247 306.03632 472.65485
471.0 0.002123 305.95972 477.01953
480.0 0.002083 305.88354 482.38101
429.0 0.002331 305.80768 488.61697
465.0 0.002151 305.73224 495.60864
460.0 0.002174 305.65726 503.32272
493.0 0.002028 305.58264 511.67081
518.0 0.001931 305.50851 520.95184
474.0 0.002110 305.43481 531.10724
500.0 0.002000 305.36163 542.16089
522.0 0.001916 305.28891 554.04633
550.0 0.001818 305.21674 566.53656
522.0 0.001916 305.14508 579.39819
565.0 0.001770 305.07394 592.24402
612.0 0.001634 305.00339 604.35327
623.0 0.001605 304.93338 615.25543
615.0 0.001626 304.86398 624.44897
594.0 0.001684 304.79514 631.49976
593.0 0.001686 304.72693 636.28400
668.0 0.001497 304.65933 638.81366
608.0 0.001645 304.59238 638.93860
593.0 0.001686 304.52606 636.83118
642.0 0.001558 304.46042 632.43164
614.0 0.001629 304.39545 625.78717
623.0 0.001605 304.33115 617.00708
638.0 0.001567 304.26755 606.09210
601.0 0.001664 304.20465 593.34790
605.0 0.001653 304.14246 579.06897
540.0 0.001852 304.08096 563.61560
621.0 0.001610 304.02026 547.39679
554.0 0.001805 303.96030 530.85284
507.0 0.001972 303.90103 514.43640
494.0 0.002024 303.84256 498.48755
510.0 0.001961 303.78482 483.68933
502.0 0.001992 303.72787 470.36279
469.0 0.002132 303.67169 458.93622
417.0 0.002398 303.61633 449.83463
486.0 0.002058 303.56171 443.45801
431.0 0.002320 303.50790 440.18808
420.0 0.002381 303.45493 440.35257
409.0 0.002445 303.40271 444.29712
406.0 0.002463 303.35132 452.25482
456.0 0.002193 303.30072 464.40527
455.0 0.002198 303.25098 480.80527
474.0 0.002110 303.20203 501.37451
476.0 0.002101 303.15387 525.85956
526.0 0.001901 303.10660 553.80560
569.0 0.001757 303.06009 584.53125
609.0 0.001642 303.01440 617.13818
615.0 0.001626 302.96957 650.43298
687.0 0.001456 302.92554 683.07892
712.0 0.001404 302.88232 713.59058
739.0 0.001353 302.83997 740.46124
789.0 0.001267 302.79837 762.25775
812.0 0.001232 302.75760 777.85895
818.0 0.001222 302.71768 786.42474
816.0 0.001225 302.67853 787.51959
819.0 0.001221 302.64017 781.32361
875.0 0.001143 302.60260 768.31299
831.0 0.001203 302.56586 749.61414
829.0 0.001206 302.52988 726.71045
824.0 0.001214 302.49466 701.26776
760.0 0.001316 302.46024 674.99518
744.0 0.001344 302.42661 649.54382
724.0 0.001381 302.39371 626.18500
677.0 0.001477 302.36154 606.05457
596.0 0.001678 302.33014 589.90295
602.0 0.001661 302.29944 578.17389
556.0 0.001799 302.26947 570.96265
596.0 0.001678 302.24020 567.98285
532.0 0.001880 302.21167 568.77081
589.0 0.001698 302.18381 572.64014
559.0 0.001789 302.15659 578.44299
553.0 0.001808 302.13010 585.11890
572.0 0.001748 302.10419 591.42029
613.0 0.001631 302.07895 596.61041
626.0 0.001597 302.05432 599.65784
534.0 0.001873 302.03030 600.08466
597.0 0.001675 302.00687 597.77850
584.0 0.001712 301.98404 592.85541
608.0 0.001645 301.96176 585.75574
603.0 0.001658 301.94000 577.01178
559.0 0.001789 301.91876 567.37915
548.0 0.001825 301.89807 557.47369
560.0 0.001786 301.87787 547.90906
574.0 0.001742 301.85812 539.18890
505.0 0.001980 301.83884 531.68481
560.0 0.001786 301.82001 525.61707
530.0 0.001887 301.80157 521.03510
500.0 0.002000 301.78354 517.73254
524.0 0.001908 301.76590 515.63556
516.0 0.001938 301.74860 514.30426
509.0 0.001965 301.73163 513.23633
508.0 0.001969 301.71500 512.03198
497.0 0.002012 301.69861 510.32281
507.0 0.001972 301.68253 507.77399
582.0 0.001718 301.66672 504.38708
531.0 0.001883 301.65109 500.38931
519.0 0.001927 301.63568 496.14169
526.0 0.001901 301.62045 492.18442
550.0 0.001818 301.60538 489.08752
483.0 0.002070 301.59042 487.45172
473.0 0.002114 301.57559 487.90286
506.0 0.001976 301.56085 490.89136
486.0 0.002058 301.54614 496.75357
485.0 0.002062 301.53146 505.83545
499.0 0.002004 301.51682 518.15753
482.0 0.002075 301.50214 533.70093
494.0 0.002024 301.48743 552.24725
505.0 0.001980 301.47263 573.38733
466.0 0.002146 301.45776 596.48657
553.0 0.001808 301.44275 621.06573
564.0 0.001773 301.42758 646.38397
658.0 0.001520 301.41229 671.53235
640.0 0.001563 301.39676 695.83441
654.0 0.001529 301.38098 718.55048
697.0 0.001435 301.36499 738.96606
739.0 0.001353 301.34869 756.38495
786.0 0.001272 301.33209 769.58441
776.0 0.001289 301.31516 777.83990
802.0 0.001247 301.29788 780.29028
854.0 0.001171 301.28018 776.27722
855.0 0.001170 301.26208 765.58948
740.0 0.001351 301.24356 748.56354
777.0 0.001287 301.22455 726.04443
773.0 0.001294 301.20502 699.22961
741.0 0.001350 301.18500 669.47308
659.0 0.001517 301.16443 638.14148
597.0 0.001675 301.14328 606.41858
599.0 0.001669 301.12152 575.39935
567.0 0.001764 301.09915 545.99622
508.0 0.001969 301.07611 518.78510
534.0 0.001873 301.05240 494.21704
481.0 0.002079 301.02795 472.72226
459.0 0.002179 301.00284 454.29968
448.0 0.002232 300.97690 438.97382
472.0 0.002119 300.95020 426.68170
438.0 0.002283 300.92273 417.01248
442.0 0.002262 300.89438 409.87943
416.0 0.002404 300.86520 404.96155
411.0 0.002433 300.83517 401.96478
398.0 0.002513 300.80417 400.52679
361.0 0.002770 300.77228 400.41153
366.0 0.002732 300.73947 401.31552
408.0 0.002451 300.70566 403.04004
397.0 0.002519 300.67084 405.40195
392.0 0.002551 300.63501 408.34683
388.0 0.002577 300.59818 411.81754
426.0 0.002347 300.56024 415.72729
418.0 0.002392 300.52124 420.38956
434.0 0.002304 300.48117 425.82849
400.0 0.002500 300.43997 432.17499
407.0 0.002457 300.39761 439.59393
411.0 0.002433 300.35410 448.26968
435.0 0.002299 300.30945 458.37149
448.0 0.002232 300.26361 469.97800
450.0 0.002222 300.21652 483.29443
482.0 0.002075 300.16827 498.29633
458.0 0.002183 300.11871 514.84595
511.0 0.001957 300.06796 532.63086
538.0 0.001859 300.01590 551.33752
554.0 0.001805 299.96262 570.32617
540.0 0.001852 299.90796 588.95770
589.0 0.001698 299.85205 606.46454
591.0 0.001692 299.79486 622.08899
593.0 0.001686 299.73627 635.21942
621.0 0.001610 299.67636 645.31348
683.0 0.001464 299.61511 651.88434
645.0 0.001550 299.55252 654.68188
668.0 0.001497 299.48853 653.39673
702.0 0.001425 299.42319 648.01501
683.0 0.001464 299.35651 638.66486
643.0 0.001555 299.28839 625.63873
652.0 0.001534 299.21890 609.40118
652.0 0.001534 299.14801 590.54382
614.0 0.001629 299.07574 569.74396
631.0 0.001585 299.00204 547.72107
603.0 0.001658 298.92700 525.19110
556.0 0.001799 298.85049 502.83014
525.0 0.001905 298.77264 481.22351
505.0 0.001980 298.69339 460.88571
478.0 0.002092 298.61270 442.15088
426.0 0.002347 298.53064 425.24146
405.0 0.002469 298.44714 410.30627
440.0 0.002273 298.36234 397.54156
423.0 0.002364 298.27609 386.76169
400.0 0.002500 298.18848 378.19193
349.0 0.002865 298.09949 371.61105
338.0 0.002959 298.00919 366.90891
361.0 0.002770 297.91751 363.96356
375.0 0.002667 297.82446 362.70526
358.0 0.002793 297.73013 362.90631
351.0 0.002849 297.63443 364.53238
342.0 0.002924 297.53745 367.55682
384.0 0.002604 297.43915 371.65784
353.0 0.002833 297.33960 376.85715
392.0 0.002551 297.23880 383.05215
371.0 0.002695 297.13669 390.13449
385.0 0.002597 297.03342 398.00076
395.0 0.002532 296.92886 406.52753
370.0 0.002703 296.82318 415.61465
427.0 0.002342 296.71628 425.15454
418.0 0.002392 296.60822 435.03165
439.0 0.002278 296.49902 445.10950
428.0 0.002336 296.38873 455.22455
427.0 0.002342 296.27737 465.18506
456.0 0.002193 296.16489 474.78098
473.0 0.002114 296.05142 483.81024
464.0 0.002155 295.93689 492.10956
501.0 0.001996 295.82138 499.53455
497.0 0.002012 295.70493 506.05606
482.0 0.002075 295.58755 511.69699
492.0 0.002033 295.46921 516.50574
479.0 0.002088 295.35004 520.56763
490.0 0.002041 295.23004 523.96960
559.0 0.001789 295.10916 526.79211
507.0 0.001972 294.98755 529.10016
549.0 0.001821 294.86511 530.92419
532.0 0.001880 294.74207 532.23956
502.0 0.001992 294.61826 532.95935
547.0 0.001828 294.49380 532.94049
547.0 0.001828 294.36877 532.01453
546.0 0.001832 294.24310 530.03400
556.0 0.001799 294.11694 526.92078
518.0 0.001931 293.99020 522.76550
520.0 0.001923 293.86307 517.55951
503.0 0.001988 293.73544 511.33643
519.0 0.001927 293.60745 504.92834
513.0 0.001949 293.47910 498.41553
467.0 0.002141 293.35043 492.09637
522.0 0.001916 293.22147 486.37198
465.0 0.002151 293.09225 481.50839
511.0 0.001957 292.96289 477.66071
459.0 0.002179 292.83328 474.91467
424.0 0.002358 292.70361 473.28928
468.0 0.002137 292.57388 472.71970
467.0 0.002141 292.44409 473.09906
466.0 0.002146 292.31430 474.21869
470.0 0.002128 292.18460 475.84042
547.0 0.001828 292.05496 477.70444
491.0 0.002037 291.92542 479.54980
513.0 0.001949 291.79614 481.12863
491.0 0.002037 291.66699 482.24899
526.0 0.001901 291.53815 482.73666
542.0 0.001845 291.40958 482.55075
533.0 0.001876 291.28140 481.68698
530.0 0.001887 291.15359 480.26816
518.0 0.001931 291.02615 478.66907
518.0 0.001931 290.89929 477.16953
499.0 0.002004 290.77286 476.18011
525.0 0.001905 290.64700 476.08099
518.0 0.001931 290.52173 477.28976
519.0 0.001927 290.39713 480.18906
508.0 0.001969 290.27316 485.07257
577.0 0.001733 290.14996 492.16266
534.0 0.001873 290.02756 501.58670
560.0 0.001786 289.90585 513.54370
575.0 0.001739 289.78503 527.47571
536.0 0.001866 289.66507 543.30957
538.0 0.001859 289.54611 560.62665
550.0 0.001818 289.42801 578.79694
584.0 0.001712 289.31094 597.25861
542.0 0.001845 289.19489 615.12286
560.0 0.001786 289.07990 631.75629
563.0 0.001776 288.96603 646.37445
601.0 0.001664 288.85330 658.48730
607.0 0.001647 288.74173 667.66498
648.0 0.001543 288.63132 673.73480
628.0 0.001592 288.52219 676.68372
617.0 0.001621 288.41431 676.93787
670.0 0.001493 288.30771 675.05121
711.0 0.001406 288.20245 671.80872
685.0 0.001460 288.09857 667.73517
696.0 0.001437 287.99603 664.15021
702.0 0.001425 287.89487 661.36823
693.0 0.001443 287.79523 659.78278
699.0 0.001431 287.69696 659.61993
673.0 0.001486 287.60019 660.74554
646.0 0.001548 287.50491 662.90753
648.0 0.001543 287.41119 665.69458
637.0 0.001570 287.31900 668.54669
636.0 0.001572 287.22830 670.88550
648.0 0.001543 287.13928 672.14966
695.0 0.001439 287.05176 671.80334
672.0 0.001488 286.96585 669.50391
697.0 0.001435 286.88156 664.76398
735.0 0.001361 286.79892 657.42548
681.0 0.001468 286.71790 647.41864
678.0 0.001475 286.63852 634.79065
708.0 0.001412 286.56082 619.74615
685.0 0.001460 286.48471 602.57794
585.0 0.001709 286.41028 583.71936
589.0 0.001698 286.33752 563.65778
577.0 0.001733 286.26639 542.93677
544.0 0.001838 286.19693 522.10114
502.0 0.001992 286.12912 501.66003
483.0 0.002070 286.06299 482.14911
479.0 0.002088 285.99844 463.97614
432.0 0.002315 285.93555 447.48312
466.0 0.002146 285.87430 432.89539
452.0 0.002212 285.81461 420.37723
396.0 0.002525 285.75653 410.04581
391.0 0.002558 285.70004 401.79620
382.0 0.002618 285.64511 395.61755
353.0 0.002833 285.59174 391.38391
345.0 0.002899 285.53992 388.94058
385.0 0.002597 285.48953 388.10721
370.0 0.002703 285.44064 388.69699
397.0 0.002519 285.39319 390.52316
362.0 0.002762 285.34720 393.40100
376.0 0.002660 285.30258 397.14322
391.0 0.002558 285.25931 401.55930
393.0 0.002545 285.21738 406.42749
428.0 0.002336 285.17676 411.52423
386.0 0.002591 285.13739 416.50607
415.0 0.002410 285.09921 421.31500
410.0 0.002439 285.06226 425.71170
419.0 0.002387 285.02643 429.31943
400.0 0.002500 284.99167 432.14194
448.0 0.002232 284.95798 434.17657
419.0 0.002387 284.92532 435.43750
460.0 0.002174 284.89359 436.32498
419.0 0.002387 284.86276 436.98181
380.0 0.002632 284.83286 437.77957
425.0 0.002353 284.80368 438.95856
459.0 0.002179 284.77527 440.77081
419.0 0.002387 284.74756 443.37335
460.0 0.002174 284.72049 446.89371
427.0 0.002342 284.69400 451.37924
457.0 0.002188 284.66806 456.81461
426.0 0.002347 284.64255 463.14383
458.0 0.002183 284.61740 470.24301
447.0 0.002237 284.59268 478.08865
472.0 0.002119 284.56818 486.41901
450.0 0.002222 284.54385 495.16202
483.0 0.002070 284.51971 504.13919
491.0 0.002037 284.49567 513.11041
509.0 0.001965 284.47159 521.75977
470.0 0.002128 284.44745 529.69263
536.0 0.001866 284.42322 536.48193
513.0 0.001949 284.39877 541.61426
531.0 0.001883 284.37405 544.65869
563.0 0.001776 284.34897 545.23804
575.0 0.001739 284.32352 543.10144
586.0 0.001706 284.29755 538.16980
569.0 0.001757 284.27103 530.55493
547.0 0.001828 284.24393 520.55548
564.0 0.001773 284.21606 508.61478
592.0 0.001689 284.18744 495.26160
596.0 0.001678 284.15796 481.02939
563.0 0.001776 284.12762 466.48721
531.0 0.001883 284.09622 452.09372
502.0 0.001992 284.06378 438.24515
441.0 0.002268 284.03027 425.26816
444.0 0.002252 283.99548 413.40060
440.0 0.002273 283.95944 402.80859
405.0 0.002469 283.92209 393.57587
385.0 0.002597 283.88330 385.72479
350.0 0.002857 283.84305 379.18591
341.0 0.002933 283.80121 373.99109
345.0 0.002899 283.75781 370.08237
379.0 0.002639 283.71271 367.29132
367.0 0.002725 283.66586 365.61118
354.0 0.002825 283.61725 364.95715
377.0 0.002653 283.56674 365.21078
319.0 0.003135 283.51431 366.36481
367.0 0.002725 283.45993 368.25815
392.0 0.002551 283.40350 370.78232
346.0 0.002890 283.34497 373.76794
353.0 0.002833 283.28430 377.15030
408.0 0.002451 283.22150 380.48792
347.0 0.002882 283.15640 383.66513
345.0 0.002899 283.08902 386.42581
395.0 0.002532 283.01938 388.48874
376.0 0.002660 282.94730 389.77658
371.0 0.002695 282.87286 390.07559
381.0 0.002625 282.79596 389.28268
376.0 0.002660 282.71664 387.54089
378.0 0.002646 282.63480 384.93683
399.0 0.002506 282.55045 381.67453
399.0 0.002506 282.46356 378.01453
411.0 0.002433 282.37408 374.19763
390.0 0.002564 282.28201 370.51733
365.0 0.002740 282.18735 367.24396
373.0 0.002681 282.09012 364.64005
415.0 0.002410 281.99026 363.01648
379.0 0.002639 281.88779 362.62436
366.0 0.002732 281.78271 363.72375
368.0 0.002717 281.67502 366.56384
360.0 0.002778 281.56473 371.34164
352.0 0.002841 281.45184 378.37115
365.0 0.002740 281.33640 387.89746
396.0 0.002525 281.21838 399.80356
371.0 0.002695 281.09787 414.33316
423.0 0.002364 280.97482 431.56250
452.0 0.002212 280.84933 451.40451
450.0 0.002222 280.72141 473.87537
453.0 0.002208 280.59106 498.72128
460.0 0.002174 280.45840 525.63776
486.0 0.002058 280.32339 554.25256
523.0 0.001912 280.18619 584.08899
539.0 0.001855 280.04675 614.34729
579.0 0.001727 279.90521 644.45544
613.0 0.001631 279.76157 673.54974
702.0 0.001425 279.61600 700.76129
708.0 0.001412 279.46848 725.17566
770.0 0.001299 279.31906 745.89948
837.0 0.001195 279.16794 762.17334
814.0 0.001229 279.01508 773.39697
829.0 0.001206 278.86066 779.21716
808.0 0.001238 278.70468 779.54425
815.0 0.001227 278.54739 774.54047
762.0 0.001312 278.38870 764.57599
764.0 0.001309 278.22885 750.13007
774.0 0.001292 278.06796 732.05347
704.0 0.001420 277.90598 710.93762
753.0 0.001328 277.74316 687.58997
665.0 0.001504 277.57956 662.71631
712.0 0.001404 277.41534 636.92834
680.0 0.001471 277.25058 611.20416
656.0 0.001524 277.08545 585.98608
571.0 0.001751 276.92007 561.93384
610.0 0.001639 276.75446 539.49841
558.0 0.001792 276.58887 519.07117
555.0 0.001802 276.42337 500.92740
561.0 0.001783 276.25815 485.23550
507.0 0.001972 276.09326 472.01004
453.0 0.002208 275.92892 461.19901
523.0 0.001912 275.76520 452.64856
423.0 0.002364 275.60226 446.10895
432.0 0.002315 275.44031 441.32825
434.0 0.002304 275.27927 437.92062
397.0 0.002519 275.11951 435.63870
431.0 0.002320 274.96100 434.12173
438.0 0.002283 274.80402 433.04553
427.0 0.002342 274.64850 432.14288
432.0 0.002315 274.49475 431.23239
418.0 0.002392 274.34277 430.13681
466.0 0.002146 274.19284 429.00916
437.0 0.002288 274.04492 427.76425
424.0 0.002358 273.89911 426.40805
495.0 0.002020 273.75571 424.94873
445.0 0.002247 273.61459 423.45126
405.0 0.002469 273.47601 421.81631
437.0 0.002288 273.34003 420.06216
427.0 0.002342 273.20673 418.10068
431.0 0.002320 273.07617 415.88629
385.0 0.002597 272.94843 413.40494
438.0 0.002283 272.82361 410.68787
392.0 0.002551 272.70172 407.81824
397.0 0.002519 272.58286 404.92422
375.0 0.002667 272.46704 402.22440
384.0 0.002604 272.35431 399.79062
369.0 0.002710 272.24469 397.80835
394.0 0.002538 272.13818 396.44095
406.0 0.002463 272.03479 395.80112
411.0 0.002433 271.93445 395.98712
401.0 0.002494 271.83728 396.96967
376.0 0.002660 271.74304 398.81033
398.0 0.002513 271.65186 401.45615
384.0 0.002604 271.56354 404.84555
400.0 0.002500 271.47809 408.89090
420.0 0.002381 271.39536 413.49075
390.0 0.002564 271.31528 418.52155
391.0 0.002558 271.23773 423.84079
416.0 0.002404 271.16248 429.28830
436.0 0.002294 271.08945 434.69232
429.0 0.002331 271.01840 439.87537
464.0 0.002155 270.94925 444.63263
462.0 0.002165 270.88162 448.86841
480.0 0.002083 270.81540 452.47644
448.0 0.002232 270.75031 455.48648
460.0 0.002174 270.68600 457.73593
485.0 0.002062 270.62225 459.43546
494.0 0.002024 270.55872 460.72263
534.0 0.001873 270.49515 461.82294
479.0 0.002088 270.43106 462.96487
468.0 0.002137 270.36615 464.36163
473.0 0.002114 270.29999 466.19174
501.0 0.001996 270.23215 468.58319
448.0 0.002232 270.16223 471.59634
436.0 0.002294 270.08972 475.18716
472.0 0.002119 270.01419 479.30856
463.0 0.002160 269.93506 483.84534
461.0 0.002169 269.85187 488.57303
467.0 0.002141 269.76407 493.29123
478.0 0.002092 269.67105 497.77243
491.0 0.002037 269.57224 501.86731
519.0 0.001927 269.46710 505.47040
531.0 0.001883 269.35489 508.55719
536.0 0.001866 269.23499 511.06522
493.0 0.002028 269.10687 512.94818
530.0 0.001887 268.96967 514.27979
487.0 0.002053 268.82281 515.08655
510.0 0.001961 268.66556 515.04327
469.0 0.002132 268.49725 514.08002
466.0 0.002146 268.31711 512.38690
493.0 0.002028 268.12433 509.80643
468.0 0.002137 267.91840 506.32581
465.0 0.002151 267.69827 501.94037
459.0 0.002179 267.46338 496.63947
509.0 0.001965 267.21292 490.41910
481.0 0.002079 266.94629 483.27634
482.0 0.002075 266.66245 475.24200
425.0 0.002353 266.36096 466.38818
406.0 0.002463 266.04102 456.86670
453.0 0.002208 265.70169 446.80188
463.0 0.002160 265.34262 436.44586
437.0 0.002288 264.96286 425.93796
419.0 0.002387 264.56207 415.47549
433.0 0.002309 264.13931 405.29504
413.0 0.002421 263.69427 395.56174
395.0 0.002532 263.22623 386.54688
421.0 0.002375 262.73495 378.23318
401.0 0.002494 262.21985 370.87057
386.0 0.002591 261.68039 364.59534
367.0 0.002725 261.11661 359.52100
336.0 0.002976 260.52789 355.73181
328.0 0.003049 259.91455 353.28467
369.0 0.002710 259.27597 352.20660
333.0 0.003003 258.61279 352.63397
372.0 0.002688 257.92490 354.27328
335.0 0.002985 257.21222 357.23004
360.0 0.002778 256.47565 361.39188
352.0 0.002841 255.71524 366.68494
372.0 0.002688 254.93222 372.96445
356.0 0.002809 254.12675 380.02802
381.0 0.002625 253.30048 387.83432
388.0 0.002577 252.45396 396.38052
422.0 0.002370 251.58923 404.90594
412.0 0.002427 250.70746 413.44788
409.0 0.002445 249.81020 421.79041
444.0 0.002252 248.90018 429.71228
409.0 0.002445 247.97896 437.12311
444.0 0.002252 247.04984 443.62592
462.0 0.002165 246.11497 449.18762
478.0 0.002092 245.17830 453.57944
507.0 0.001972 244.24257 456.67221
489.0 0.002045 243.31235 458.34464
488.0 0.002049 242.39157 458.61292
473.0 0.002114 241.48447 457.38443
522.0 0.001916 240.59677 454.90137
477.0 0.002096 239.73335 451.45593
491.0 0.002037 238.90074 447.47025
478.0 0.002092 238.10480 443.33743
474.0 0.002110 237.35315 439.52563
484.0 0.002066 236.65292 436.48642
505.0 0.001980 236.01201 434.60703
482.0 0.002075 235.43967 434.21494
449.0 0.002227 234.94479 435.59467
438.0 0.002283 234.53781 438.83359
433.0 0.002309 234.22922 444.10922
446.0 0.002242 234.03073 451.40863
462.0 0.002165 233.95451 460.64404
469.0 0.002132 234.01384 471.66965
447.0 0.002237 234.22261 484.23291
448.0 0.002232 234.59596 497.98868
460.0 0.002174 235.14954 512.48059
506.0 0.001976 235.90063 526.99329
469.0 0.002132 236.86684 541.36676
475.0 0.002105 238.06775 554.81549
502.0 0.001992 239.52292 566.88263
526.0 0.001901 241.25493 576.99200
514.0 0.001946 243.28522 585.08350
570.0 0.001754 245.63849 590.88916
593.0 0.001686 248.34140 594.43457
595.0 0.001681 251.41884 595.85065
585.0 0.001709 254.90167 595.27667
639.0 0.001565 258.81741 592.89600
641.0 0.001560 263.20099 588.89197
636.0 0.001572 268.08240 583.58002
651.0 0.001536 273.49884 577.25909
580.0 0.001724 279.48975 570.26703
578.0 0.001730 286.09003 563.01050
569.0 0.001757 293.34601 556.01471
555.0 0.001802 301.29599 549.55084
548.0 0.001825 309.99149 544.10699
533.0 0.001876 319.47421 540.06323
458.0 . . .
loop_
_refln_index_h
_refln_index_k
_refln_index_l
_refln_observed_status
_refln_F_squared_meas
_refln_F_squared_calc
_refln_phase_calc
_refln_d_spacing
_gsas_i100_meas
0 0 2 o -0.004 9.288 180.00 8.86823 0.00
1 0 0 o 540.338 369.667 0.00 6.53134 0.88
0 1 1 o 158.517 135.082 0.00 6.38412 0.27
1 0 -2 o 3021.552 3302.546 180.00 6.33517 3.74
0 1 2 o 604.013 74.332 0.00 5.41752 1.22
1 1 -1 o 3222.964 3562.447 180.00 4.85888 4.66
1 1 0 o 715.231 858.825 180.00 4.72461 0.94
1 1 -2 o 2059.529 1891.610 180.00 4.64874 1.90
1 0 2 o 608.518 497.876 180.00 4.59323 0.52
0 1 3 o 224.513 202.114 0.00 4.47364 0.29
0 0 4 o 7617.361 7254.091 0.00 4.43411 4.62
1 0 -4 o 2656.886 2562.628 0.00 4.39285 1.75
1 1 1 o 97.389 72.176 0.00 4.31941 0.07
1 1 -3 o 208.733 78.879 180.00 4.20529 0.26
1 1 2 o 31.476 113.278 0.00 3.81370 0.00
0 1 4 o 73.438 132.745 0.00 3.72115 0.08
1 1 -4 o 2477.392 2584.179 180.00 3.69666 1.87
2 0 -2 o 1587.040 1422.652 180.00 3.45030 0.58
0 2 0 o 27513.516 28080.771 180.00 3.42138 10.12
0 2 1 o 27726.033 27720.604 180.00 3.35945 19.70
1 1 3 o 2500.676 2398.752 0.00 3.32835 1.83
2 0 0 o 48539.69 47435.62 0.00 3.26567 15.90
1 1 -5 o 1929.337 1852.368 180.00 3.22468 1.02
1 0 4 o 1171.587 1177.894 180.00 3.21437 0.36
0 2 2 o 11329.987 10749.862 180.00 3.19206 7.17
2 0 -4 o 190181.70 189191.47 180.00 3.16758 55.81
0 1 5 o 491.412 443.484 0.00 3.14927 0.37
1 0 -6 o 7096.208 6815.761 180.00 3.09854 2.18
2 1 -2 o 25425.674 24919.635 0.00 3.08082 14.17
1 2 -1 o 30806.877 31093.422 180.00 3.06530 17.51
2 1 -1 o 14533.685 14547.155 0.00 3.05619 8.09
1 2 0 o 31280.609 31207.549 0.00 3.03073 17.97
2 1 -3 o 45789.39 45168.67 180.00 3.01496 24.41
1 2 -2 o 4423.275 4230.327 0.00 3.01041 2.47
0 2 3 o 117300.72 118900.95 0.00 2.96127 64.11
0 0 6 o 368077.3 367268.0 180.00 2.95607 100.00
2 1 0 o 43186.20 44117.34 180.00 2.94724 22.97
1 2 1 o 502.969 513.383 0.00 2.91521 0.24
1 1 4 o 11750.839 12030.635 0.00 2.90936 5.61
1 2 -3 o 58091.11 58909.07 180.00 2.87935 29.98
2 1 -4 o 328.344 346.946 180.00 2.87454 0.16
1 1 -6 o 5309.344 5643.533 180.00 2.82264 2.54
2 0 2 o 123044.16 121593.47 0.00 2.78460 29.04
2 1 1 o 18131.703 18204.221 180.00 2.77837 8.84
1 2 2 o 13488.496 12974.351 0.00 2.74384 6.22
0 1 6 o 2000.490 1601.706 180.00 2.71368 0.89
0 2 4 o 1227.402 1109.327 0.00 2.70876 0.54
1 2 -4 o 21562.484 20690.506 180.00 2.69927 9.78
2 1 -5 o 4087.259 4133.787 0.00 2.68811 1.83
2 0 -6 o 20644.316 19458.510 180.00 2.66539 4.24
2 1 2 o 2290.290 2290.991 0.00 2.57922 0.92
1 1 5 o 42.851 82.575 0.00 2.56181 0.01
1 2 3 o 10400.646 11012.122 0.00 2.54542 4.23
1 2 -5 o 1510.098 1381.560 180.00 2.49815 0.56
1 1 -7 o 1483.131 1334.762 0.00 2.49054 0.55
2 1 -6 o 17329.240 17397.967 0.00 2.48363 6.12
0 2 5 o 4963.334 5189.090 180.00 2.46259 1.78
2 2 -2 o 606.079 592.732 0.00 2.42944 0.23
2 2 -1 o 9995.021 10102.011 180.00 2.41731 3.33
1 0 6 o 443.465 471.428 180.00 2.41400 0.12
2 2 -3 o 370.596 419.706 180.00 2.39675 0.16
0 1 7 o 5353.365 5230.654 0.00 2.37611 2.23
2 1 3 o 13756.536 13831.071 0.00 2.37385 4.40
2 2 0 o 7383.259 7589.997 180.00 2.36231 2.41
1 0 -8 o 5455.936 5432.894 0.00 2.34453 0.90
1 2 4 o 101.226 105.812 180.00 2.34267 0.04
2 2 -4 o 614.927 792.372 0.00 2.32437 0.16
1 2 -6 o 28559.053 28939.078 180.00 2.29667 9.17
2 0 4 o 4302.348 4354.510 0.00 2.29661 0.65
3 0 -2 o 11182.661 11254.789 0.00 2.29433 2.07
2 1 -7 o 12763.979 13024.527 180.00 2.28099 3.83
1 1 6 o 9750.507 9648.441 0.00 2.27649 3.03
2 2 1 o 1358.560 1344.058 180.00 2.27264 0.43
3 0 -4 o 215.519 230.650 0.00 2.26808 0.02
0 3 1 o 50.596 104.773 0.00 2.26229 0.06
0 2 6 o 27632.869 26885.525 0.00 2.23682 8.59
2 2 -5 o 25.751 28.821 0.00 2.22244 0.01
1 1 -8 o 3191.650 3141.758 180.00 2.21796 1.32
0 0 8 o 190.117 186.352 0.00 2.21706 0.04
0 3 2 o 11042.715 10878.268 180.00 2.20902 3.87
2 0 -8 o 259.444 410.487 180.00 2.19642 0.02
3 1 -3 o 5750.489 5654.827 180.00 2.18031 1.56
2 1 4 o 16834.912 16519.242 180.00 2.17726 4.73
3 0 0 o 22.946 22.490 180.00 2.17711 0.00
3 1 -2 o 8943.785 8659.568 0.00 2.17531 2.91
1 3 -1 o 4046.542 3843.971 180.00 2.16568 1.29
2 2 2 o 28921.510 27802.240 180.00 2.15971 8.30
1 3 0 o 5556.077 5332.973 180.00 2.15338 1.77
3 1 -4 o 4969.028 4798.073 180.00 2.15290 1.39
1 2 5 o 20110.654 19976.162 0.00 2.14946 5.38
1 3 -2 o 26.141 26.150 180.00 2.14606 0.00
3 1 -1 o 2378.884 2107.126 180.00 2.13857 0.62
0 3 3 o 402.681 291.756 180.00 2.12804 0.11
3 0 -6 o 20.211 12.141 180.00 2.11172 0.00
1 3 1 o 256.910 142.999 0.00 2.11075 0.10
0 1 8 o 402.175 298.663 180.00 2.10911 0.13
1 2 -7 o 4301.459 3906.974 0.00 2.10684 1.09
2 2 -6 o 7882.926 7741.524 0.00 2.10265 1.96
1 3 -3 o 3643.903 3460.089 0.00 2.09702 1.05
3 1 -5 o 22371.504 21280.699 0.00 2.09658 6.01
2 1 -8 o 9027.861 8484.380 180.00 2.09133 2.27
3 1 0 o 1069.044 1075.050 180.00 2.07464 0.19
1 3 2 o 5676.391 5637.299 180.00 2.04290 1.41
1 1 7 o 76.067 76.217 0.00 2.04165 0.04
0 2 7 o 16861.184 17212.814 0.00 2.03620 4.23
2 2 3 o 2558.632 2699.069 0.00 2.03477 0.71
0 3 4 o 5.926 12.599 0.00 2.02830 0.01
1 3 -4 o 2571.501 2971.829 0.00 2.02430 0.55
3 1 -6 o 2601.171 3163.477 0.00 2.01782 0.49
2 1 5 o 5824.014 6446.718 180.00 1.99680 1.40
1 1 -9 o 205.673 218.560 0.00 1.99324 0.07
3 1 1 o 5109.680 5189.811 180.00 1.99056 1.29
2 2 -7 o 27498.236 27691.264 0.00 1.97538 6.18
1 2 6 o 24600.924 24892.420 180.00 1.97246 6.02
3 0 2 o 1370.933 1379.660 0.00 1.97098 0.22
1 3 3 o 2184.747 2463.301 180.00 1.95693 0.54
1 3 -5 o 39.119 37.792 180.00 1.93520 0.02
1 2 -8 o 8252.658 8164.588 180.00 1.93401 1.84
3 1 -7 o 9.974 8.557 180.00 1.92426 0.00
2 1 -9 o 12308.555 12152.807 0.00 1.91939 2.58
0 3 5 o 1424.932 1410.005 0.00 1.91853 0.30
1 0 8 o 474.309 462.285 0.00 1.91794 0.07
3 2 -3 o 14144.553 13524.396 180.00 1.90890 3.01
2 2 4 o 5800.885 5676.110 180.00 1.90685 1.31
3 2 -2 o 12472.118 12314.741 180.00 1.90555 2.77
2 0 6 o 26560.965 26334.580 180.00 1.90467 3.05
2 3 -2 o 29838.621 29846.727 0.00 1.90273 7.09
2 3 -1 o 15318.618 15218.917 180.00 1.89689 3.33
3 1 2 o 24.465 24.760 0.00 1.89397 0.01
0 1 9 o 1025.031 1030.489 180.00 1.89374 0.23
3 0 -8 o 740.817 742.563 0.00 1.89141 0.04
3 2 -4 o 24772.572 24863.494 180.00 1.89043 5.27
2 3 -3 o 28054.650 27949.752 0.00 1.88691 5.89
3 2 -1 o 26807.566 26012.316 180.00 1.88070 5.90
1 0 -10 o 8461.210 8398.213 180.00 1.87278 0.97
2 3 0 o 20637.633 20076.996 180.00 1.86996 4.11
0 2 8 o 13910.381 13272.735 0.00 1.86057 2.90
1 3 4 o 3491.424 3321.134 180.00 1.86017 0.81
3 2 -5 o 16004.447 15574.526 0.00 1.85195 3.03
2 3 -4 o 21022.068 20753.262 180.00 1.85097 4.20
2 2 -8 o 104.608 108.015 180.00 1.84833 0.03
1 1 8 o 3078.100 3170.739 0.00 1.84677 0.68
1 3 -6 o 2242.701 2096.001 0.00 1.83689 0.52
3 2 0 o 10563.543 9984.130 0.00 1.83678 2.13
2 1 6 o 42061.07 41153.04 0.00 1.83491 8.93
2 0 -10 o 75450.48 76104.84 0.00 1.82806 7.29
2 3 1 o 8815.623 8019.796 0.00 1.82453 1.92
3 1 -8 o 885.185 750.766 180.00 1.82305 0.24
1 2 7 o 480.738 516.638 180.00 1.81376 0.09
1 1 -10 o 660.829 661.754 0.00 1.80635 0.10
0 3 6 o 3143.445 3138.802 0.00 1.80584 0.63
2 3 -5 o 2106.074 2087.292 180.00 1.79824 0.46
3 2 -6 o 9454.247 9701.854 180.00 1.79700 1.73
3 1 3 o 753.204 846.771 0.00 1.79164 0.14
2 2 5 o 13151.642 13206.357 0.00 1.78211 2.55
1 2 -9 o 67682.19 68854.66 0.00 1.77957 13.03
3 2 1 o 12687.334 12980.231 180.00 1.77767 2.21
0 0 10 o 8473.424 8375.650 180.00 1.77364 0.77
2 1 -10 o 154.774 137.056 0.00 1.76612 0.03
2 3 2 o 9545.214 8839.243 0.00 1.76452 1.76
1 3 5 o 85.232 94.872 0.00 1.75892 0.02
3 0 4 o 1502.415 2927.535 180.00 1.74266 0.20
1 3 -7 o 382.566 411.466 0.00 1.73534 0.09
2 3 -6 o 5516.670 5360.300 0.00 1.73299 0.89
3 2 -7 o 16062.412 15903.609 0.00 1.72997 2.90
2 2 -9 o 1979.898 1910.189 0.00 1.72642 0.39
4 0 -4 o 140808.91 136068.95 180.00 1.72515 12.20
3 1 -9 o 16234.070 16899.396 0.00 1.71988 2.75
0 1 10 o 391.722 361.719 180.00 1.71691 0.07
0 4 0 o 26653.400 25486.391 180.00 1.71069 2.36
4 0 -2 o 243.359 242.033 180.00 1.70791 0.02
3 2 2 o 25462.041 25288.740 0.00 1.70786 4.54
0 2 9 o 80938.96 80597.61 180.00 1.70769 14.43
0 4 1 o 2431.087 2431.893 0.00 1.70279 0.46
0 3 7 o 4557.961 4361.924 0.00 1.69522 0.72
2 3 3 o 43822.91 42384.59 180.00 1.69440 7.60
2 1 7 o 28843.066 29321.729 0.00 1.69134 5.25
1 1 9 o 7141.544 6835.810 180.00 1.68342 1.28
3 1 4 o 2946.609 2964.804 180.00 1.68876 0.63
0 4 2 o 29665.441 29928.852 0.00 1.67972 5.14
4 0 -6 o 10402.554 10595.618 0.00 1.67927 0.85
1 2 8 o 15989.557 15071.033 180.00 1.67300 2.72
4 1 -4 o 32694.199 30811.943 0.00 1.67281 5.26
4 1 -3 o 487.599 459.786 0.00 1.67227 0.08
3 0 -10 o 988.337 1073.546 0.00 1.66610 0.10
2 2 6 o 5032.808 5398.167 0.00 1.66417 0.85
1 4 -1 o 618.014 638.273 0.00 1.66043 0.10
2 3 -7 o 18554.803 19106.156 0.00 1.65964 3.03
4 1 -5 o 155.869 157.688 180.00 1.65865 0.02
1 3 6 o 554.693 556.312 0.00 1.65791 0.12
4 1 -2 o 5657.481 5580.300 0.00 1.65707 0.91
3 2 -8 o 5422.981 5302.709 0.00 1.65531 0.93
1 4 0 o 56184.77 55435.38 180.00 1.65487 9.55
1 4 -2 o 232.223 252.097 180.00 1.65154 0.03
1 1 -11 o 685.341 740.740 0.00 1.64932 0.08
0 4 3 o 10511.946 10875.564 0.00 1.64328 1.75
1 2 -10 o 17622.279 18285.385 0.00 1.64278 3.01
1 4 1 o 694.209 637.311 0.00 1.63528 0.12
1 3 -8 o 1132.578 1051.512 0.00 1.63488 0.16
4 0 0 o 17882.500 16741.934 180.00 1.63283 1.37
3 2 3 o 2952.901 2830.726 0.00 1.63169 0.47
4 1 -6 o 1566.053 1526.586 180.00 1.63087 0.22
2 1 -11 o 18094.430 17623.758 180.00 1.63058 3.04
1 4 -3 o 366.441 357.205 0.00 1.62887 0.05
4 1 -1 o 9380.521 9033.429 180.00 1.62838 1.39
3 3 -3 o 17710.979 17515.102 0.00 1.61963 2.84
3 1 -10 o 15291.479 15296.422 0.00 1.61881 2.31
2 3 4 o 19573.518 19618.492 180.00 1.61837 3.38
3 3 -2 o 14250.497 14225.269 0.00 1.61758 2.25
2 2 -10 o 6467.569 6358.348 180.00 1.61234 1.02
3 3 -4 o 9962.035 10084.684 0.00 1.60830 1.54
2 0 8 o 83547.93 86235.21 180.00 1.60718 6.67
1 4 2 o 33953.172 34938.793 180.00 1.60312 5.15
3 3 -1 o 1044.628 1084.979 0.00 1.60229 0.15
0 4 4 o 22517.979 22280.811 180.00 1.59603 3.51
1 4 -4 o 24191.664 23634.826 0.00 1.59408 3.69
4 1 -7 o 15999.313 16307.724 0.00 1.59148 2.28
0 3 8 o 5189.897 5239.545 0.00 1.58979 0.90
3 1 5 o 8629.948 8502.274 0.00 1.58888 1.31
4 1 0 o 2367.201 2296.786 0.00 1.58824 0.32
1 0 10 o 3460.118 3226.799 0.00 1.58604 0.26
3 3 -5 o 4079.300 3828.507 180.00 1.58440 0.62
4 0 -8 o 5322.394 5045.102 0.00 1.58379 0.38
2 3 -8 o 5556.056 5304.434 180.00 1.58214 0.95
3 2 -9 o 14659.310 15261.542 0.00 1.57693 2.07
3 3 0 o 3734.963 3784.694 180.00 1.57487 0.60
0 2 10 o 69.796 70.173 0.00 1.57464 0.01
0 1 11 o 1492.670 1388.241 180.00 1.56942 0.23
2 1 8 o 7610.200 7743.926 180.00 1.56461 1.15
1 4 3 o 613.219 687.959 180.00 1.56055 0.08
1 3 7 o 164.662 200.403 180.00 1.56029 0.04
2 2 7 o 762.966 782.745 0.00 1.55484 0.10
1 0 -12 o 7036.625 7244.385 0.00 1.55465 0.52
3 2 4 o 12560.684 12790.959 0.00 1.55284 1.86
3 3 -6 o 8695.106 8492.972 0.00 1.54958 1.26
1 4 -5 o 10.257 9.846 180.00 1.54947 0.00
2 0 -12 o 12857.396 12564.938 0.00 1.54927 0.90
1 2 9 o 10706.923 10440.425 180.00 1.54869 1.68
1 1 10 o 358.063 352.142 180.00 1.54508 0.04
4 1 -8 o 5300.969 5354.140 180.00 1.54300 0.74
0 4 5 o 3969.838 3916.426 0.00 1.54087 0.60
4 2 -4 o 5746.963 5649.356 0.00 1.54041 0.77
2 3 5 o 5573.194 5464.402 0.00 1.54000 0.81
4 2 -3 o 17974.080 17637.150 0.00 1.53999 2.41
4 1 1 o 1.351 1.119 180.00 1.53921 0.00
1 3 -9 o 1755.951 1736.136 180.00 1.53836 0.28
3 3 1 o 3921.176 3923.059 0.00 1.53713 0.58
2 4 -2 o 252.383 248.077 180.00 1.53265 0.04
3 0 6 o 588.626 570.466 0.00 1.53108 0.04
2 4 -1 o 6940.647 6640.704 180.00 1.52959 1.00
4 2 -5 o 5904.817 5622.369 180.00 1.52933 0.87
4 2 -2 o 13375.429 12741.482 0.00 1.52810 1.88
2 4 -3 o 1382.371 1307.966 180.00 1.52434 0.19
3 1 -11 o 11088.707 11030.003 180.00 1.52234 1.57
1 2 -11 o 0.028 0.019 0.00 1.52201 0.00
4 0 2 o 64404.99 62800.67 0.00 1.52013 4.41
1 1 -12 o 7710.630 7386.643 0.00 1.51602 1.02
2 4 0 o 1450.317 1393.668 0.00 1.51536 0.18
2 1 -12 o 20282.430 20663.299 180.00 1.51102 2.71
1 4 4 o 264.920 272.350 0.00 1.51014 0.04
4 2 -6 o 172.669 169.969 180.00 1.50748 0.04
2 2 -11 o 940.711 928.386 0.00 1.50725 0.12
3 3 -7 o 41.559 40.687 180.00 1.50598 0.00
4 2 -1 o 25852.723 25104.158 180.00 1.50551 3.53
2 4 -4 o 2035.785 1987.035 0.00 1.50521 0.25
2 3 -9 o 10747.047 10717.098 180.00 1.50364 1.42
3 2 -10 o 14437.664 14474.626 0.00 1.49793 1.95
1 4 -6 o 72764.44 73212.32 0.00 1.49761 10.04
3 1 6 o 2297.288 2350.394 0.00 1.49413 0.27
3 3 2 o 7959.891 8076.803 180.00 1.49133 1.08
0 3 9 o 2168.520 2202.849 0.00 1.49121 0.30
2 4 1 o 325.016 331.951 180.00 1.49088 0.05
4 1 -9 o 173.286 185.316 180.00 1.48811 0.02
4 1 2 o 13249.436 13130.013 180.00 1.48395 1.75
0 4 6 o 24459.139 24698.615 0.00 1.48063 3.27
0 0 12 o 103043.55 99888.41 0.00 1.47804 6.83
2 4 -5 o 476.981 481.612 180.00 1.47644 0.06
4 2 -7 o 22912.201 23331.816 0.00 1.47620 2.94
3 2 5 o 18003.473 18543.311 0.00 1.47412 2.53
4 2 0 o 776.307 791.296 0.00 1.47362 0.12
1 3 8 o 75.581 74.248 0.00 1.46795 0.01
3 0 -12 o 1580.716 1386.574 0.00 1.46428 0.10
2 3 6 o 22406.600 22780.623 0.00 1.46198 2.76
4 0 -10 o 90152.05 92624.71 0.00 1.46155 5.59
0 2 11 o 4507.624 4035.717 0.00 1.45855 0.59
2 4 2 o 105.365 97.136 180.00 1.45760 0.01
3 3 -8 o 15267.782 14837.724 180.00 1.45595 1.93
2 2 8 o 25329.252 25574.752 0.00 1.45468 3.36
1 4 5 o 96.408 97.129 180.00 1.45444 0.01
2 1 9 o 20495.961 20060.291 180.00 1.45282 2.58
1 3 -10 o 3817.586 3868.105 180.00 1.44741 0.44
0 1 12 o 2251.065 2457.671 0.00 1.44472 0.27
1 4 -7 o 4265.417 4767.477 180.00 1.44102 0.57
3 3 3 o 1028.372 1152.371 180.00 1.43980 0.13
2 4 -6 o 986.801 1086.466 180.00 1.43968 0.10
1 2 10 o 173.523 193.672 180.00 1.43895 0.02
4 2 -8 o 1936.218 2253.111 180.00 1.43727 0.24
4 2 1 o 2068.678 1948.675 0.00 1.43420 0.26
3 1 -12 o 1274.166 1146.959 180.00 1.43187 0.13
4 1 -10 o 38680.51 40177.83 180.00 1.42931 4.53
1 1 11 o 261.493 258.395 180.00 1.42673 0.03
2 3 -10 o 24304.434 23797.158 0.00 1.42646 2.91
4 1 3 o 2196.306 2044.525 180.00 1.42496 0.29
3 2 -11 o 3946.772 4293.447 180.00 1.42053 0.42
0 4 7 o 1510.297 1524.169 180.00 1.41780 0.21
2 4 3 o 1285.865 1271.013 0.00 1.41732 0.16
1 2 -12 o 9607.807 9561.928 0.00 1.41538 1.16
2 2 -12 o 9712.387 10370.896 180.00 1.41132 1.13
3 1 7 o 2870.141 2922.786 0.00 1.40563 0.38
2 1 -13 o 7606.754 7741.374 0.00 1.40551 0.88
3 3 -9 o 14004.419 13789.497 180.00 1.40176 1.64
1 1 -13 o 1256.693 1237.859 180.00 1.40172 0.15
0 3 10 o 2513.317 2471.219 180.00 1.40015 0.24
3 2 6 o 3921.384 3786.754 180.00 1.39752 0.48
2 4 -7 o 1594.573 1560.777 0.00 1.39679 0.18
1 4 6 o 21427.365 21217.504 0.00 1.39575 2.66
4 2 -9 o 6040.936 6084.820 180.00 1.39259 0.65
4 0 4 o 33.848 34.106 180.00 1.39230 0.00
4 2 2 o 3227.640 2899.405 180.00 1.38918 0.36
2 3 7 o 13030.913 12988.007 180.00 1.38618 1.65
3 3 4 o 8096.256 8093.687 180.00 1.38476 0.98
1 4 -8 o 44.357 44.064 0.00 1.38193 0.00
1 3 9 o 3582.620 3512.083 0.00 1.38181 0.44
2 0 10 o 20579.713 20160.391 180.00 1.38137 1.19
5 0 -4 o 1662.894 1620.790 180.00 1.38079 0.11
4 3 -4 o 4653.247 4398.089 0.00 1.37592 0.49
4 3 -3 o 1357.188 1268.722 180.00 1.37562 0.18
4 1 -11 o 10.484 11.029 180.00 1.36875 0.01
4 3 -5 o 2410.915 2439.622 0.00 1.36801 0.25
3 4 -3 o 245.316 236.257 180.00 1.37268 0.03
4 3 -2 o 1477.224 1487.921 180.00 1.36713 0.14
2 4 4 o 457.308 434.808 0.00 1.37192 0.06
3 4 -2 o 18575.504 17813.744 0.00 1.37143 2.03
5 0 -6 o 7795.876 7512.444 0.00 1.37118 0.38
3 4 -4 o 38080.13 38416.85 0.00 1.36576 4.46
0 5 1 o 0.090 0.226 180.00 1.36450 0.00
4 1 4 o 3089.693 3172.452 180.00 1.36434 0.35
2 2 9 o 711.643 741.148 180.00 1.36354 0.09
1 3 -11 o 1338.030 1397.536 180.00 1.36276 0.13
3 4 -1 o 5070.314 5412.904 0.00 1.36208 0.57
5 0 -2 o 7463.478 7354.872 0.00 1.35761 0.41
0 2 12 o 2671.362 2648.653 180.00 1.35684 0.29
0 4 8 o 16853.123 17206.205 180.00 1.35438 1.91
2 1 10 o 10278.829 10449.694 0.00 1.35405 1.13
5 1 -4 o 2.112 2.201 180.00 1.35350 0.00
5 1 -5 o 5031.946 5045.339 0.00 1.35288 0.51
0 5 2 o 3312.014 3309.496 180.00 1.35254 0.35
4 3 -6 o 6507.319 6482.301 180.00 1.35230 0.79
2 3 -11 o 904.176 898.331 0.00 1.35213 0.12
3 4 -5 o 0.902 0.859 180.00 1.35104 0.00
4 3 -1 o 10733.643 10582.346 0.00 1.35088 1.16
1 0 12 o 2346.766 2333.155 180.00 1.35007 0.12
2 4 -8 o 311.178 312.404 0.00 1.34963 0.04
3 0 8 o 649.245 656.313 0.00 1.34924 0.03
3 1 -13 o 1379.845 1442.221 0.00 1.34796 0.15
5 1 -3 o 4.027 5.885 0.00 1.34631 0.00
3 2 -12 o 7765.041 8173.860 0.00 1.34618 0.81
3 3 -10 o 2171.806 2285.881 180.00 1.34540 0.23
3 4 0 o 4943.725 5193.004 180.00 1.34512 0.52
5 1 -6 o 2245.090 2340.660 0.00 1.34446 0.20
4 2 -10 o 9581.466 10033.043 180.00 1.34405 1.02
1 5 -1 o 1135.449 1134.919 0.00 1.34241 0.14
1 2 11 o 17136.002 16839.688 180.00 1.34191 1.81
4 2 3 o 19120.143 18066.508 180.00 1.34043 2.02
1 5 0 o 699.003 649.010 0.00 1.33946 0.09
0 1 13 o 1150.228 1098.528 0.00 1.33801 0.10
1 5 -2 o 982.404 930.534 0.00 1.33770 0.11
2 0 -14 o 2460.023 2339.742 0.00 1.33697 0.11
1 4 7 o 2765.340 2530.035 180.00 1.33600 0.31
0 5 3 o 196.627 168.635 0.00 1.33330 0.02
4 0 -12 o 2674.110 2254.791 180.00 1.33270 0.15
5 1 -2 o 6.497 5.949 0.00 1.33166 0.00
5 0 -8 o 2787.550 2532.187 180.00 1.33076 0.14
4 3 -7 o 4383.588 4088.385 180.00 1.32959 0.44
3 4 -6 o 12711.645 11898.973 0.00 1.32926 1.31
1 5 1 o 1784.452 1693.665 180.00 1.32901 0.16
5 1 -7 o 458.577 430.725 0.00 1.32867 0.05
3 3 5 o 895.905 850.923 180.00 1.32807 0.09
4 3 0 o 58.856 51.652 0.00 1.32770 0.01
1 0 -14 o 7183.536 6788.356 180.00 1.32709 0.38
1 5 -3 o 107.813 104.547 180.00 1.32557 0.01
1 1 12 o 10967.404 10824.331 180.00 1.32454 1.15
3 2 7 o 4866.271 4830.572 0.00 1.32430 0.46
2 2 -13 o 23337.736 23190.406 180.00 1.32420 2.43
3 1 8 o 3379.849 3382.597 0.00 1.32375 0.33
2 4 5 o 18828.115 18940.859 0.00 1.32319 2.15
1 4 -9 o 2420.824 2436.183 180.00 1.32215 0.26
3 4 1 o 990.175 992.187 0.00 1.32137 0.11
1 2 -13 o 0.042 0.041 180.00 1.32103 0.00
0 3 11 o 414.993 458.285 180.00 1.31665 0.05
2 3 8 o 1414.712 1551.972 180.00 1.31380 0.15
2 1 -14 o 1416.498 1426.717 0.00 1.31216 0.15
1 5 2 o 1080.972 1049.266 180.00 1.31157 0.14
5 1 -1 o 1553.269 1490.471 180.00 1.31026 0.17
4 1 -12 o 1848.362 1829.649 180.00 1.30812 0.21
0 5 4 o 894.675 880.494 180.00 1.30768 0.07
1 5 -4 o 44.585 39.675 0.00 1.30661 0.01
5 1 -8 o 609.936 574.528 0.00 1.30629 0.06
5 0 0 o 1866.282 1777.803 180.00 1.30627 0.08
4 1 5 o 11725.767 11659.318 0.00 1.30376 1.22
1 1 -14 o 102.401 98.299 0.00 1.30282 0.03
1 3 10 o 11.419 11.238 0.00 1.30217 0.00
3 4 -7 o 227.368 227.943 180.00 1.30143 0.02
4 3 -8 o 3428.855 3487.422 0.00 1.30093 0.30
2 4 -9 o 6691.897 7016.092 0.00 1.29992 0.72
4 3 1 o 1643.011 1691.186 180.00 1.29865 0.17
4 2 -11 o 2749.517 2757.780 0.00 1.29333 0.32
3 0 -14 o 6239.961 6276.511 180.00 1.29319 0.28
3 4 2 o 29821.787 30267.377 180.00 1.29194 3.21
0 4 9 o 13467.531 13669.449 180.00 1.29186 1.46
4 2 4 o 12593.619 13158.322 180.00 1.28961 1.30
3 3 -11 o 4332.863 4574.552 0.00 1.28847 0.45
1 5 3 o 505.585 536.903 180.00 1.28796 0.05
1 3 -12 o 1019.925 1169.664 180.00 1.28463 0.12
5 1 0 o 426.783 457.857 180.00 1.28310 0.03
1 5 -5 o 1072.651 1101.045 0.00 1.28170 0.08
2 3 -12 o 85.506 87.011 180.00 1.28159 0.01
2 2 10 o 1736.759 1726.725 0.00 1.28091 0.17
5 2 -4 o 6505.864 6393.996 180.00 1.28044 0.62
5 2 -5 o 46.711 45.527 180.00 1.27991 0.01
5 1 -9 o 858.990 879.890 180.00 1.27831 0.11
0 5 5 o 1684.935 1743.245 180.00 1.27682 0.18
1 4 8 o 27030.254 27866.570 0.00 1.27665 2.63
3 2 -13 o 8175.521 8357.065 180.00 1.27575 0.83
5 2 -3 o 13358.369 13180.800 0.00 1.27435 1.28
5 2 -6 o 286.255 283.143 180.00 1.27277 0.03
2 4 6 o 1054.208 1044.039 180.00 1.27271 0.10
2 5 -2 o 13.904 14.308 0.00 1.27213 0.00
3 3 6 o 405.214 429.566 0.00 1.27123 0.06
3 1 -14 o 46.995 54.055 0.00 1.27070 0.01
2 5 -1 o 1429.209 1503.997 180.00 1.27038 0.14
3 4 -8 o 9840.415 10026.786 180.00 1.26873 0.93
4 3 -9 o 1109.925 1110.777 0.00 1.26752 0.12
2 5 -3 o 8038.134 8040.599 0.00 1.26737 0.78
0 2 13 o 4374.760 4376.121 180.00 1.26730 0.42
5 0 -10 o 6197.721 6205.691 0.00 1.26703 0.31
0 0 14 o 3686.368 3694.025 0.00 1.26689 0.18
2 1 11 o 674.475 678.010 0.00 1.26652 0.06
4 0 6 o 26200.111 26484.830 0.00 1.26552 1.27
4 3 2 o 12623.428 12724.936 180.00 1.26495 1.22
1 4 -10 o 2937.243 2859.357 180.00 1.26306 0.29
2 5 0 o 12955.139 12339.637 0.00 1.26220 1.23
5 2 -2 o 11287.219 10653.691 180.00 1.26190 1.11
5 2 -7 o 17138.941 16814.695 0.00 1.25936 1.64
1 5 4 o 1680.179 1650.993 180.00 1.25918 0.18
3 4 3 o 1674.216 1634.952 0.00 1.25800 0.18
2 5 -4 o 10199.396 9790.207 0.00 1.25631 0.99
1 2 12 o 4603.759 4446.686 0.00 1.25584 0.47
3 2 8 o 5968.596 5880.259 180.00 1.25517 0.59
1 5 -6 o 3046.283 2981.699 180.00 1.25188 0.32
5 1 1 o 9541.023 9298.272 180.00 1.25128 0.89
2 4 -10 o 4630.237 4627.099 180.00 1.24907 0.41
4 1 -13 o 4966.243 4953.477 180.00 1.24865 0.44
3 1 9 o 1003.273 998.296 0.00 1.24847 0.11
2 5 1 o 15194.932 15039.847 0.00 1.24795 1.49
5 1 -10 o 732.420 718.856 0.00 1.24586 0.07
0 1 14 o 29.050 28.387 180.00 1.24572 0.00
2 3 9 o 15100.396 14695.572 0.00 1.24550 1.42
2 2 -14 o 10.110 9.975 180.00 1.24527 0.00
4 1 6 o 405.244 383.666 180.00 1.24441 0.03
5 2 -1 o 10235.265 9255.210 180.00 1.24365 1.01
0 5 6 o 528.908 507.218 180.00 1.24192 0.05
4 2 -12 o 70.963 65.107 0.00 1.24181 0.01
0 3 12 o 2406.116 2375.277 180.00 1.24038 0.23
5 2 -8 o 1955.890 1934.333 0.00 1.24025 0.18
2 5 -5 o 15469.574 15606.773 180.00 1.23944 1.51
4 2 5 o 15648.771 16275.148 0.00 1.23808 1.53
1 2 -14 o 3569.711 3673.447 0.00 1.23728 0.33
5 0 2 o 56.130 52.875 0.00 1.23563 0.01
1 1 13 o 3348.021 3257.775 180.00 1.23552 0.37
3 4 -9 o 245.146 258.249 0.00 1.23239 0.03
3 3 -12 o 6021.368 6282.369 180.00 1.23222 0.54
0 4 10 o 9507.104 9931.332 0.00 1.23130 0.91
4 3 -10 o 32.305 32.636 180.00 1.23059 0.00
2 1 -15 o 2989.439 2948.164 180.00 1.22929 0.27
1 3 11 o 147.048 141.974 180.00 1.22895 0.02
2 5 2 o 4626.832 4390.118 180.00 1.22823 0.44
4 3 3 o 73.291 70.169 180.00 1.22781 0.01
1 5 5 o 818.172 826.439 180.00 1.22634 0.08
2 4 7 o 264.928 277.078 0.00 1.22176 0.02
3 4 4 o 11774.678 12253.506 180.00 1.22079 1.02
5 2 0 o 1821.057 1889.777 180.00 1.22035 0.18
1 4 9 o 636.356 638.676 0.00 1.21877 0.06
1 5 -7 o 972.900 962.717 180.00 1.21826 0.10
2 5 -6 o 6829.162 6668.943 180.00 1.21745 0.61
1 1 -15 o 238.595 234.279 0.00 1.21651 0.02
5 2 -9 o 12471.088 12194.068 180.00 1.21622 1.08
5 1 2 o 255.615 250.805 180.00 1.21596 0.02
3 3 7 o 358.612 346.266 180.00 1.21538 0.04
2 3 -13 o 10162.434 9811.194 180.00 1.21530 0.92
4 4 -4 o 7787.813 7356.272 0.00 1.21472 0.75
4 4 -3 o 1172.868 1101.347 180.00 1.21451 0.11
1 3 -13 o 0.192 0.013 0.00 1.21285 0.00
5 1 -11 o 2443.674 2615.719 180.00 1.21009 0.20
4 0 -14 o 47.640 49.963 180.00 1.20968 0.00
3 2 -14 o 212.627 233.613 180.00 1.20966 0.03
4 4 -5 o 35.841 38.860 180.00 1.20927 0.00
4 4 -2 o 11549.254 11869.824 180.00 1.20866 1.10
2 0 12 o 3165.770 3177.508 0.00 1.20700 0.16
2 2 11 o 2888.511 2842.779 180.00 1.20606 0.28
1 4 -11 o 623.104 609.251 180.00 1.20564 0.05
0 5 7 o 126.487 124.294 180.00 1.20413 0.01
2 5 3 o 7804.386 7755.622 180.00 1.20384 0.71
3 1 -15 o 4735.954 4681.210 180.00 1.19982 0.39
4 4 -6 o 9238.580 8733.328 180.00 1.19838 0.77
2 4 -11 o 248.384 235.726 0.00 1.19826 0.02
3 0 10 o 3378.389 3094.375 0.00 1.19739 0.18
4 4 -1 o 3369.398 3124.968 180.00 1.19739 0.30
3 4 -10 o 18736.270 18506.793 180.00 1.19356 1.72
5 2 1 o 55.684 55.026 180.00 1.19288 0.00
4 3 -11 o 1816.131 1816.703 180.00 1.19130 0.14
4 1 -14 o 1400.953 1407.367 0.00 1.19121 0.13
2 5 -7 o 153.613 154.353 0.00 1.19118 0.01
4 1 7 o 1267.946 1066.824 0.00 1.18714 0.12
4 2 -13 o 20560.920 21163.666 180.00 1.19060 1.83
4 2 6 o 186.864 155.477 180.00 1.18692 0.02
1 5 6 o 1746.118 1803.171 180.00 1.19054 0.17
3 2 9 o 7.802 8.055 0.00 1.19044 0.00
5 0 -12 o 14233.561 14517.540 180.00 1.18966 0.56
2 1 12 o 9862.524 9332.182 180.00 1.18865 0.93
4 3 4 o 1.251 0.156 180.00 1.18839 0.00
5 2 -10 o 2812.600 2573.969 0.00 1.18818 0.23
0 2 14 o 1385.040 1266.032 180.00 1.18806 0.11
4 4 -7 o 1468.474 1504.793 0.00 1.18248 0.12
1 5 -8 o 3763.287 3848.698 180.00 1.18193 0.34
2 3 10 o 16260.615 16531.619 0.00 1.18157 1.57
3 4 5 o 1345.699 1360.942 180.00 1.18141 0.11
5 3 -4 o 4601.233 4643.885 0.00 1.18121 0.44
4 4 0 o 10807.708 10884.310 0.00 1.18115 0.89
5 3 -5 o 2265.750 2274.019 180.00 1.18079 0.17
3 1 10 o 569.384 588.567 0.00 1.17947 0.07
1 2 13 o 3.615 3.792 180.00 1.17920 0.00
5 1 3 o 858.680 911.472 180.00 1.17824 0.09
3 3 -13 o 830.744 884.281 180.00 1.17752 0.08
5 3 -3 o 563.015 604.807 180.00 1.17642 0.06
3 5 -3 o 160.935 165.856 0.00 1.17613 0.01
2 5 4 o 4550.685 4817.189 0.00 1.17565 0.46
3 5 -2 o 1226.755 1279.325 180.00 1.17534 0.10
5 3 -6 o 2511.830 2624.957 180.00 1.17518 0.23
1 0 14 o 136.751 142.424 180.00 1.17430 0.01
2 2 -15 o 279.248 283.367 180.00 1.17378 0.03
0 4 11 o 748.418 751.440 180.00 1.17335 0.07
2 0 -16 o 31924.896 31783.977 180.00 1.17227 1.38
5 1 -12 o 167.368 166.857 180.00 1.17208 0.01
3 5 -4 o 92.189 91.651 180.00 1.17176 0.01
2 4 8 o 254.564 250.471 180.00 1.17133 0.02
0 3 13 o 2246.978 2209.140 180.00 1.17087 0.17
3 5 -1 o 3.133 3.147 180.00 1.16944 0.00
5 3 -2 o 14889.877 14735.567 0.00 1.16660 1.23
0 1 15 o 2057.740 2144.614 0.00 1.16516 0.19
5 3 -7 o 3068.016 3240.948 180.00 1.16460 0.26
0 5 8 o 256.942 268.978 0.00 1.16455 0.02
1 4 10 o 47.403 48.109 0.00 1.16307 0.00
1 2 -15 o 39240.01 39302.28 180.00 1.16264 3.45
3 5 -5 o 1832.025 1825.151 180.00 1.16243 0.19
4 4 -8 o 7974.097 7913.527 0.00 1.16219 0.75
5 2 2 o 4145.924 4116.670 0.00 1.16216 0.35
1 3 12 o 1248.662 1233.904 180.00 1.16181 0.13
2 5 -8 o 824.721 812.090 0.00 1.16153 0.09
3 3 8 o 4827.813 4765.842 0.00 1.16128 0.43
4 4 1 o 1275.329 1252.025 180.00 1.16056 0.11
3 5 0 o 8153.205 7822.198 0.00 1.15865 0.75
1 1 14 o 3550.376 3456.177 180.00 1.15738 0.32
5 2 -11 o 137.566 135.766 0.00 1.15703 0.01
1 0 -16 o 7537.214 7528.078 0.00 1.15679 0.35
2 1 -16 o 32.140 33.320 0.00 1.15543 0.00
5 0 4 o 15461.014 16176.670 180.00 1.15522 0.69
2 3 -14 o 3441.243 3574.700 0.00 1.15343 0.34
3 4 -11 o 182.340 190.448 0.00 1.15328 0.02
1 5 7 o -1.869 0.279 180.00 1.15280 0.01
5 3 -1 o 2587.017 2688.124 0.00 1.15214 0.23
3 0 -16 o 1090.801 1111.047 180.00 1.15089 0.05
4 3 -12 o 2771.858 2814.093 0.00 1.15068 0.25
1 4 -12 o 51356.82 51982.60 180.00 1.15052 4.45
6 0 -6 o 8.559 8.626 180.00 1.15010 0.00
5 3 -8 o 16175.164 16379.701 180.00 1.14944 1.30
3 5 -6 o 13960.003 14103.478 180.00 1.14846 1.23
2 4 -12 o 470.179 472.985 0.00 1.14834 0.03
4 0 8 o 34504.090 34739.230 180.00 1.14831 1.49
3 2 -15 o 6859.000 6858.944 180.00 1.14805 0.54
4 3 5 o 5518.980 5460.510 180.00 1.14771 0.45
6 0 -4 o 446.391 435.859 0.00 1.14717 0.01
1 3 -14 o 4243.678 4107.575 180.00 1.14707 0.35
2 5 5 o 2424.210 2351.831 0.00 1.14455 0.20
1 5 -9 o 3217.486 3158.575 0.00 1.14387 0.26
3 5 1 o 1779.755 1762.784 0.00 1.14337 0.19
3 4 6 o 85.764 84.603 0.00 1.14087 0.01
1 1 -16 o 1304.386 1272.747 180.00 1.14061 0.10
4 2 -14 o 929.445 895.917 0.00 1.14049 0.09
0 6 0 o 14015.783 13545.354 180.00 1.14046 0.62
5 1 4 o 390.828 375.511 180.00 1.13910 0.03
2 2 12 o 196.793 193.172 180.00 1.13825 0.02
4 4 -9 o 850.637 839.175 0.00 1.13818 0.07
0 6 1 o 2131.103 2109.758 0.00 1.13811 0.18
4 2 7 o 10330.531 10781.376 180.00 1.13692 0.90
4 1 -15 o 1235.829 1287.099 0.00 1.13634 0.11
4 4 2 o 4916.446 5113.037 180.00 1.13632 0.43
6 1 -5 o 0.065 0.059 0.00 1.13510 0.00
3 1 -16 o 13866.970 13717.390 180.00 1.13495 1.11
6 1 -6 o 17858.646 17332.770 180.00 1.13419 1.44
6 0 -8 o 32074.754 31075.939 0.00 1.13404 1.27
5 3 0 o 2846.628 2741.692 0.00 1.13354 0.25
5 1 -13 o 4446.693 4269.905 180.00 1.13279 0.37
4 1 8 o 3809.525 3651.292 0.00 1.13247 0.33
6 1 -4 o 17030.467 16341.906 0.00 1.13138 1.46
0 6 2 o 3944.992 3801.728 180.00 1.13115 0.36
3 5 -7 o 711.177 698.668 0.00 1.13037 0.06
5 3 -9 o 380.113 372.385 0.00 1.13023 0.04
3 2 10 o 4274.076 4208.251 180.00 1.13017 0.35
2 5 -9 o 7198.080 7076.236 180.00 1.12938 0.59
5 2 3 o 6322.552 6204.064 180.00 1.12910 0.51
6 1 -7 o 7542.840 7397.342 0.00 1.12869 0.61
6 0 -2 o 29453.443 28739.318 180.00 1.12567 1.18
1 6 -1 o 394.372 385.320 180.00 1.12520 0.04
3 3 -14 o 12023.850 11882.953 0.00 1.12496 1.00
3 5 2 o 1077.353 1074.456 0.00 1.12414 0.09
0 5 9 o 816.014 813.604 180.00 1.12409 0.07
5 2 -12 o 12.139 12.113 0.00 1.12367 0.00
1 6 0 o 1088.364 1080.395 0.00 1.12346 0.08
6 1 -3 o 9677.357 9597.352 0.00 1.12316 0.81
1 6 -2 o 762.848 773.909 180.00 1.12242 0.07
2 4 9 o 1437.431 1475.095 180.00 1.12216 0.12
2 3 11 o 1646.019 1697.920 180.00 1.12206 0.15
0 6 3 o 73240.66 73169.34 180.00 1.11982 6.15
2 1 13 o 12228.409 12028.824 180.00 1.11910 1.06
6 1 -8 o 9916.734 9762.781 180.00 1.11878 0.77
0 4 12 o 12423.119 12251.229 180.00 1.11841 1.03
0 2 15 o 26484.518 26183.330 0.00 1.11757 2.21
1 6 1 o 288.032 284.396 0.00 1.11727 0.03
3 1 11 o 5137.806 5056.605 180.00 1.11633 0.42
1 6 -3 o 848.244 803.912 0.00 1.11522 0.08
1 5 8 o 1915.305 1816.922 0.00 1.11402 0.18
3 4 -12 o 8236.518 8202.581 180.00 1.11242 0.62
5 3 1 o 2516.808 2477.785 0.00 1.11142 0.18
2 5 6 o 9559.532 9401.859 180.00 1.11140 0.73
4 4 -10 o 7062.477 6883.205 180.00 1.11122 0.59
6 1 -2 o 6555.963 6289.764 0.00 1.11074 0.53
1 2 14 o 7939.360 7613.076 0.00 1.11070 0.65
1 4 11 o 4.916 4.146 180.00 1.11000 0.00
4 3 -13 o 608.611 582.178 0.00 1.10958 0.04
3 3 9 o 64.794 60.881 0.00 1.10945 0.01
4 4 3 o 620.899 591.418 0.00 1.10917 0.05
2 2 -16 o 1595.613 1526.624 0.00 1.10898 0.14
3 5 -8 o 1739.739 1684.130 0.00 1.10875 0.14
0 0 16 o 3543.062 3466.704 0.00 1.10853 0.13
5 3 -10 o 5385.681 5479.075 180.00 1.10762 0.44
0 3 14 o 6140.593 6272.226 180.00 1.10752 0.53
5 0 -14 o 1206.584 1242.269 0.00 1.10725 0.05
1 6 2 o 1732.774 1786.172 0.00 1.10685 0.14
4 3 6 o 299.271 310.741 180.00 1.10660 0.04
1 5 -10 o 364.872 352.335 180.00 1.10496 0.04
6 1 -9 o 4354.451 4224.669 180.00 1.10482 0.36
0 6 4 o 3721.385 3602.599 0.00 1.10451 0.34
1 6 -4 o 746.151 730.292 180.00 1.10387 0.06
3 5 3 o 422.131 417.421 180.00 1.10157 0.03
6 0 -10 o 11.621 11.538 180.00 1.10125 0.00
1 3 13 o 50.905 49.489 0.00 1.10034 0.01
3 4 7 o 593.097 587.329 180.00 1.09998 0.05
2 4 -13 o 1776.665 1763.172 180.00 1.09992 0.15
5 1 5 o 384.498 397.376 0.00 1.09937 0.04
4 0 -16 o 24488.248 27544.674 180.00 1.09821 0.95
1 4 -13 o 0.560 0.683 180.00 1.09810 0.00
2 3 -15 o 1726.791 1683.992 0.00 1.09593 0.13
1 2 -16 o 1901.092 1838.283 180.00 1.09585 0.17
2 5 -10 o 10630.997 10212.790 180.00 1.09556 0.83
6 1 -1 o 3042.685 2930.719 180.00 1.09453 0.23
5 2 4 o 8709.024 8376.784 0.00 1.09451 0.70
0 1 16 o 257.433 250.713 0.00 1.09426 0.02
5 1 -14 o 2004.508 2088.213 180.00 1.09303 0.15
1 6 3 o 1507.721 1606.020 180.00 1.09255 0.15
4 2 -15 o 1013.982 1060.269 0.00 1.09206 0.07
6 2 -5 o 2485.750 2480.901 0.00 1.09096 0.18
3 2 -16 o 997.060 990.816 180.00 1.09083 0.08
6 2 -6 o 3772.356 3755.775 180.00 1.09016 0.31
2 1 -17 o 2753.058 2847.839 0.00 1.08934 0.24
5 2 -13 o 20422.217 21180.699 180.00 1.08891 1.56
1 6 -5 o 1349.762 1397.838 180.00 1.08872 0.11
4 2 8 o 1583.163 1630.312 0.00 1.08863 0.12
6 0 0 o 191.567 197.953 0.00 1.08856 0.01
1 1 15 o 4938.792 5005.439 0.00 1.08828 0.41
6 2 -4 o 0.481 0.027 180.00 1.08766 0.00
6 1 -10 o 9006.891 8455.627 180.00 1.08726 0.70
1 3 -15 o 52.350 46.201 0.00 1.08684 0.01
5 3 2 o 3263.493 2888.944 180.00 1.08645 0.30
0 6 5 o 1767.172 1587.761 0.00 1.08573 0.16
6 2 -7 o 1042.752 997.233 180.00 1.08526 0.06
4 1 -16 o 18360.621 18663.885 0.00 1.08434 1.37
3 5 -9 o 509.348 517.236 180.00 1.08425 0.03
0 5 10 o 1089.664 1100.932 0.00 1.08350 0.06
2 6 -2 o 5.668 5.321 0.00 1.08284 0.00
5 3 -11 o 1439.541 1355.761 0.00 1.08225 0.10
4 4 -11 o 609.753 560.255 180.00 1.08203 0.05
2 6 -1 o 26055.594 24042.424 0.00 1.08176 2.07
4 1 9 o 400.377 375.728 0.00 1.08068 0.03
6 2 -3 o 1229.086 1168.971 180.00 1.08035 0.10
2 6 -3 o 4218.035 4056.000 0.00 1.07990 0.34
4 4 4 o 15895.230 15288.937 0.00 1.07985 1.29
2 5 7 o 8270.862 8604.866 180.00 1.07699 0.65
2 2 13 o 105.325 107.349 180.00 1.07673 0.00
2 6 0 o 5284.633 5475.885 180.00 1.07669 0.44
6 2 -8 o 579.730 595.466 180.00 1.07645 0.04
3 5 4 o 130.515 133.385 0.00 1.07632 0.01
3 1 -17 o 8122.144 8243.125 0.00 1.07560 0.66
4 5 -4 o 89.861 89.747 180.00 1.07216 0.00
6 1 0 o 22773.816 22762.838 0.00 1.07504 1.75
4 5 -3 o 916.181 919.525 180.00 1.07202 0.06
1 5 9 o 2190.279 2183.148 0.00 1.07494 0.17
3 3 -15 o 6871.675 6840.946 0.00 1.07489 0.51
1 6 4 o 1367.603 1358.036 0.00 1.07481 0.11
2 4 10 o 677.787 670.327 180.00 1.07473 0.06
3 4 -13 o 108.969 112.449 180.00 1.07168 0.01
5 4 -4 o 15350.381 15099.098 0.00 1.07445 1.20
3 0 12 o 0.004 0.049 0.00 1.07146 0.00
3 2 11 o 6538.869 6395.828 180.00 1.07426 0.56
5 4 -5 o 171.441 168.201 180.00 1.07414 0.01
5 4 -3 o 526.869 551.897 180.00 1.07084 0.05
1 1 -17 o 0.896 0.191 0.00 1.07339 0.00
1 6 -6 o 2658.226 2738.158 180.00 1.07027 0.20
2 6 -4 o 12224.612 11855.836 0.00 1.07303 1.01
5 4 -6 o 10137.592 10304.486 180.00 1.06991 0.77
5 0 6 o 920.302 895.486 180.00 1.07266 0.04
2 0 14 o 27087.402 27084.734 0.00 1.06954 1.11
6 2 -2 o 4759.227 4710.203 0.00 1.06928 0.36
4 3 -14 o 3416.148 3338.930 180.00 1.06869 0.23
4 5 -5 o 1394.644 1349.543 180.00 1.06840 0.12
4 5 -2 o 2503.474 2424.132 0.00 1.06798 0.19
2 6 1 o 276.961 268.274 0.00 1.06780 0.02
2 3 12 o 6234.643 5986.094 180.00 1.06684 0.43
0 4 13 o 88.545 82.990 0.00 1.06665 0.01
6 1 -11 o 288.233 276.097 180.00 1.06664 0.02
1 5 -11 o 88.456 79.965 0.00 1.06590 0.02
4 3 7 o 0.693 0.670 180.00 1.06575 0.00
0 6 6 o 9477.051 9370.917 0.00 1.06402 0.76
6 2 -9 o 830.797 820.659 0.00 1.06400 0.07
5 4 -2 o 2145.745 2123.123 0.00 1.06343 0.16
2 6 -5 o 284.373 291.476 0.00 1.06246 0.02
5 4 -7 o 183.851 196.132 0.00 1.06191 0.02
4 5 -6 o 242.914 257.236 180.00 1.06087 0.02
2 5 -11 o 5167.963 5542.480 0.00 1.06079 0.41
3 3 10 o 1567.212 1669.649 0.00 1.06018 0.13
4 5 -1 o 6174.892 6538.123 0.00 1.06018 0.46
1 4 12 o 7888.038 8306.938 180.00 1.05979 0.68
5 1 6 o 552.046 591.656 180.00 1.05972 0.07
3 4 8 o 15476.843 16043.594 0.00 1.05939 1.27
5 3 3 o 614.063 635.471 0.00 1.05930 0.05
5 2 5 o 3736.554 3853.135 0.00 1.05913 0.33
3 1 12 o 855.230 871.625 180.00 1.05856 0.06
3 5 -10 o 34.135 34.736 0.00 1.05753 0.00
2 1 14 o 5599.309 5632.426 0.00 1.05671 0.44
6 0 -12 o 114.462 107.876 180.00 1.05586 0.01
2 6 2 o 8866.207 8349.784 180.00 1.05538 0.72
5 3 -12 o 735.037 680.835 0.00 1.05481 0.06
6 2 -1 o 1956.885 1858.119 0.00 1.05480 0.12
0 2 16 o 51.501 49.409 180.00 1.05456 0.00
1 6 5 o 565.437 542.370 180.00 1.05417 0.04
5 2 -14 o 2003.229 1997.768 180.00 1.05345 0.16
5 1 -15 o 241.141 240.452 0.00 1.05345 0.03
2 4 -14 o 740.248 740.116 180.00 1.05342 0.06
6 1 1 o 117.250 121.015 180.00 1.05282 0.01
5 4 -1 o 19.405 19.979 0.00 1.05243 0.00
4 4 -12 o 4245.051 4480.533 0.00 1.05132 0.30
5 4 -8 o 806.285 830.891 180.00 1.05037 0.06
2 2 -17 o 1128.233 1145.955 180.00 1.05015 0.08
4 5 -7 o 11137.757 11061.225 180.00 1.04980 0.82
0 3 15 o 1590.380 1574.777 180.00 1.04976 0.12
1 2 15 o 3883.441 3665.231 0.00 1.04920 0.35
4 4 5 o 2898.981 2731.272 0.00 1.04906 0.22
3 5 5 o 2229.662 2107.024 180.00 1.04905 0.16
1 6 -7 o 618.248 573.757 0.00 1.04903 0.06
4 5 0 o 114.425 101.285 180.00 1.04886 0.01
1 4 -14 o 42.148 40.435 180.00 1.04856 0.00
2 6 -6 o 4645.089 4231.426 0.00 1.04851 0.37
6 2 -10 o 12.846 12.542 180.00 1.04829 0.00
4 2 -16 o 2874.034 2832.868 0.00 1.04566 0.21
1 3 14 o 853.897 896.124 0.00 1.04405 0.07
4 0 10 o 677.254 709.237 180.00 1.04383 0.03
6 1 -12 o 6919.006 7235.568 0.00 1.04351 0.51
0 5 11 o 3487.377 3642.609 0.00 1.04339 0.28
2 3 -16 o 7453.841 7546.644 180.00 1.04263 0.53
4 2 9 o 7505.863 7527.847 0.00 1.04239 0.53
2 5 8 o 1529.719 1512.336 0.00 1.04197 0.12
2 0 -18 o 16566.014 16305.278 180.00 1.04180 0.65
6 0 2 o 2495.212 2446.030 180.00 1.04027 0.09
0 6 7 o 4290.129 4195.967 180.00 1.03997 0.33
2 6 3 o 2243.920 2192.839 180.00 1.03978 0.17
1 0 16 o 1745.364 1718.311 180.00 1.03854 0.06
5 4 0 o 8536.439 8384.191 0.00 1.03820 0.64
3 2 -17 o 1467.613 1439.954 0.00 1.03782 0.10
6 2 0 o 6580.376 6428.199 0.00 1.03732 0.52
1 5 10 o 22.313 21.566 180.00 1.03614 0.00
1 2 -17 o 360.237 345.026 0.00 1.03584 0.03
5 4 -9 o 39.918 38.289 180.00 1.03566 0.00
4 5 -8 o 3366.243 3222.952 180.00 1.03552 0.23
4 1 -17 o 131.711 127.894 180.00 1.03533 0.01
4 5 1 o 2824.686 2620.987 0.00 1.03437 0.23
3 0 -18 o 1140.350 1161.198 180.00 1.03285 0.04
4 1 10 o 1200.445 1214.723 0.00 1.03190 0.09
1 3 -16 o 1832.006 1836.913 0.00 1.03169 0.13
3 4 -14 o 2071.064 2068.265 0.00 1.03160 0.15
2 6 -7 o 15046.628 15021.090 180.00 1.03159 1.10
0 1 17 o 2689.032 2661.242 0.00 1.03140 0.21
1 6 6 o 1012.483 995.433 180.00 1.03117 0.07
5 3 4 o 8433.096 8188.152 180.00 1.03058 0.61
2 1 -18 o 16257.018 15878.963 0.00 1.02993 1.23
6 2 -11 o 3049.956 2998.422 180.00 1.02977 0.20
2 4 11 o 2879.969 2859.101 180.00 1.02936 0.23
3 5 -11 o 2567.939 2558.886 0.00 1.02920 0.22
4 3 -15 o 136.137 136.682 0.00 1.02853 0.01
6 1 2 o 7121.690 7149.628 180.00 1.02845 0.57
6 3 -5 o 805.274 799.137 0.00 1.02761 0.07
3 3 -16 o 502.448 498.360 0.00 1.02750 0.04
1 5 -12 o 2035.118 2013.374 0.00 1.02724 0.17
6 3 -6 o 2669.181 2641.181 180.00 1.02694 0.22
1 1 16 o 3999.094 3963.799 180.00 1.02679 0.36
5 3 -13 o 3195.818 3205.171 0.00 1.02590 0.23
5 0 -16 o 13808.060 13848.019 180.00 1.02588 0.51
2 5 -12 o 752.871 753.038 0.00 1.02568 0.05
4 3 8 o 2488.860 2488.462 0.00 1.02566 0.16
1 6 -8 o 30.179 30.042 0.00 1.02556 0.00
6 3 -4 o 2174.271 2108.873 0.00 1.02485 0.15
1 0 -18 o 9437.221 9099.490 180.00 1.02479 0.36
5 2 6 o 2553.721 2396.812 0.00 1.02354 0.20
6 3 -7 o 3570.815 3396.693 180.00 1.02285 0.25
3 2 12 o 646.422 619.295 0.00 1.02249 0.05
3 6 -3 o 489.038 487.299 180.00 1.02177 0.04
2 6 4 o 146.917 148.864 180.00 1.02145 0.01
3 1 -18 o 69.568 70.310 0.00 1.02128 0.00
3 6 -2 o 293.754 300.820 180.00 1.02125 0.02
5 4 1 o 112.412 114.615 0.00 1.02113 0.01
2 2 14 o 5643.787 5835.450 180.00 1.02082 0.43
5 1 7 o 3232.721 3340.155 0.00 1.02068 0.23
3 5 6 o 814.190 848.287 180.00 1.02035 0.07
4 4 -13 o 4379.339 4520.042 180.00 1.01970 0.34
3 4 9 o 1831.875 1887.764 180.00 1.01960 0.15
3 6 -4 o 2230.867 2272.692 180.00 1.01890 0.16
6 3 -3 o 3639.459 3709.505 180.00 1.01873 0.28
6 1 -13 o 3321.049 3371.027 180.00 1.01845 0.24
4 5 -9 o 124.583 125.824 0.00 1.01843 0.01
5 4 -10 o 17825.900 17996.994 180.00 1.01818 1.28
0 4 14 o 6903.635 6958.327 0.00 1.01810 0.52
5 2 -15 o 6050.946 6058.135 0.00 1.01788 0.41
4 4 6 o 7434.692 7289.822 180.00 1.01739 0.52
3 6 -1 o 30.629 30.337 180.00 1.01737 0.00
6 2 1 o 3026.589 2952.234 180.00 1.01732 0.22
4 5 2 o 184.745 181.325 0.00 1.01709 0.01
2 3 13 o 5673.043 5423.718 0.00 1.01569 0.45
6 3 -8 o 1367.501 1325.063 0.00 1.01546 0.10
5 1 -16 o 1432.728 1444.826 180.00 1.01454 0.11
0 6 8 o 1763.202 1773.452 0.00 1.01415 0.14
3 3 11 o 1570.355 1556.471 0.00 1.01362 0.11
1 1 -18 o 6563.988 6486.678 180.00 1.01348 0.46
3 6 -5 o 0.887 0.859 0.00 1.01275 0.00
1 4 13 o 1902.439 1932.432 0.00 1.01251 0.14
2 6 -8 o 13.447 13.630 0.00 1.01215 0.00
3 6 0 o 2184.420 2451.612 180.00 1.01024 0.18
6 3 -2 o 472.020 500.091 180.00 1.00943 0.04
2 4 -15 o 1146.273 1200.874 180.00 1.00907 0.09
6 2 -12 o 335.680 354.041 0.00 1.00891 0.03
2 5 9 o 6247.595 6734.572 0.00 1.00690 0.47
1 6 7 o 11.305 12.833 180.00 1.00636 0.00
3 1 13 o 875.855 902.179 180.00 1.00567 0.08
6 3 -9 o 1043.738 1055.508 0.00 1.00499 0.08
0 5 12 o 2558.311 2588.963 0.00 1.00419 0.19
3 6 -6 o 521.437 537.458 0.00 1.00347 0.04
6 0 -14 o 9587.538 9951.125 180.00 1.00259 0.32
6 1 3 o 9310.104 9688.459 180.00 1.00248 0.70
1 4 -15 o 48.808 51.528 180.00 1.00197 0.01
5 4 2 o 5931.718 6097.013 180.00 1.00166 0.46
4 2 -17 o 50.336 52.745 180.00 1.00151 0.01
5 3 5 o 3269.204 3238.673 180.00 1.00088 0.27
2 6 5 o 13509.779 13383.733 180.00 1.00086 0.99
2 1 15 o 8797.461 8583.702 0.00 1.00051 0.64
1 6 -9 o 2346.597 2277.083 180.00 1.00041 0.18
3 6 1 o 49.043 44.044 180.00 1.00007 0.01
3 5 -12 o 15905.643 15335.490 0.00 0.99984 1.19
4 0 -18 o 7.360 6.018 0.00 0.99983 0.00
4 5 -10 o 81.676 79.513 180.00 0.99897 0.01
4 2 10 o 6558.477 6406.639 0.00 0.99840 0.49
5 4 -11 o 623.167 607.581 0.00 0.99837 0.05
1 5 11 o 1218.730 1168.836 0.00 0.99809 0.09
0 2 17 o 2542.555 2410.298 180.00 0.99795 0.20
4 5 3 o 2843.119 2622.790 0.00 0.99748 0.21
6 3 -1 o 5909.271 5376.577 0.00 0.99722 0.43
0 3 16 o 34.380 33.255 0.00 0.99702 0.00
2 2 -18 o 1856.453 1695.669 0.00 0.99662 0.13
1 2 16 o 103.717 98.574 0.00 0.99377 0.01
5 3 -14 o 9496.681 8856.848 0.00 0.99609 0.66
2 3 -17 o 2696.910 2484.850 180.00 0.99329 0.23
5 0 8 o 1.913 0.085 180.00 0.99292 0.00
6 2 2 o 16.173 14.338 0.00 0.99528 0.00
3 4 -15 o 97.388 90.873 180.00 0.99258 0.01
1 3 15 o 2956.156 2814.770 180.00 0.99249 0.23
6 1 -14 o 8131.030 7869.022 0.00 0.99200 0.55
6 3 -10 o 1.084 0.713 0.00 0.99172 0.00
3 6 -7 o 42.031 38.306 180.00 0.99134 0.01
3 5 7 o 2535.786 2280.661 180.00 0.99078 0.22
2 5 -13 o 64.150 58.874 180.00 0.99074 0.00
2 6 -9 o 2246.080 2046.214 180.00 0.99067 0.16
4 3 -16 o 290.142 274.548 180.00 0.98949 0.03
1 5 -13 o 83.243 79.497 0.00 0.98941 0.01
4 1 -18 o 1659.072 1618.658 0.00 0.98933 0.13
3 2 -18 o 1597.515 1665.863 180.00 0.98877 0.11
5 2 7 o 841.102 911.345 0.00 0.98823 0.06
4 4 -14 o 1653.507 1827.943 180.00 0.98769 0.15
3 6 2 o 3364.963 3514.336 0.00 0.98712 0.24
0 6 9 o 30649.357 31959.990 0.00 0.98709 2.24
7 0 -6 o 2176.406 2225.132 180.00 0.98675 0.09
4 3 9 o 25.326 25.990 180.00 0.98672 0.00
2 4 12 o 278.094 273.255 0.00 0.98623 0.02
6 2 -13 o 150.215 149.107 0.00 0.98621 0.00
4 1 11 o 6045.372 5898.950 180.00 0.98611 0.45
6 0 4 o 18161.881 17059.188 0.00 0.98549 0.66
4 4 7 o 610.100 569.403 0.00 0.98537 0.05
0 0 18 o 33483.090 31211.258 180.00 0.98536 1.26
3 3 -17 o 1898.721 2037.809 180.00 0.98284 0.14
5 2 -16 o 1053.331 1121.727 180.00 0.98265 0.07
5 1 8 o 495.133 524.759 0.00 0.98263 0.03
6 3 0 o 3145.763 3366.197 0.00 0.98241 0.25
7 0 -8 o 43.446 46.496 0.00 0.98183 0.00
1 2 -18 o 2550.861 2577.531 180.00 0.98170 0.19
1 3 -17 o 2228.682 2158.360 0.00 0.98115 0.16
3 4 10 o 5795.012 5560.246 0.00 0.98096 0.39
5 4 3 o 2489.374 2303.120 0.00 0.98026 0.19
1 6 8 o 1047.537 974.249 180.00 0.98025 0.08
7 0 -4 o 592.938 563.882 0.00 0.97957 0.02
2 6 6 o 3247.515 3244.358 0.00 0.97847 0.25
4 5 -11 o 602.442 628.508 0.00 0.97761 0.05
5 4 -12 o 8363.895 8627.260 0.00 0.97670 0.60
5 1 -17 o 493.979 507.744 0.00 0.97667 0.03
3 6 -8 o 23.756 24.370 180.00 0.97665 0.00
7 1 -6 o 1165.689 1200.462 180.00 0.97665 0.09
2 1 -19 o 4437.207 4464.080 180.00 0.97632 0.32
0 7 1 o 1244.172 1220.905 0.00 0.97606 0.10
4 5 4 o 317.476 310.761 180.00 0.97600 0.02
6 3 -11 o 974.893 949.055 180.00 0.97599 0.08
7 1 -7 o 4035.382 3842.337 0.00 0.97573 0.28
6 1 4 o 180.438 167.290 180.00 0.97542 0.01
0 1 18 o 1345.080 1247.655 180.00 0.97530 0.09
7 1 -5 o 123.136 113.120 0.00 0.97462 0.01
3 2 13 o 85.709 83.939 180.00 0.97459 0.00
1 6 -10 o 1.632 1.615 0.00 0.97406 0.00
0 4 15 o 2176.737 2364.054 0.00 0.97269 0.17
2 5 10 o 4486.936 4740.489 180.00 0.97221 0.37
5 5 -4 o 2944.307 3055.880 180.00 0.97201 0.22
7 1 -8 o 3829.991 3934.850 0.00 0.97188 0.27
5 5 -5 o 900.180 917.844 180.00 0.97178 0.06
3 6 3 o 505.935 516.070 0.00 0.97174 0.04
1 1 17 o 25.311 25.844 180.00 0.97173 0.00
6 2 3 o 3174.402 3226.203 0.00 0.97169 0.24
0 7 2 o 9.462 9.578 0.00 0.97165 0.00
3 1 -19 o 1576.042 1586.997 180.00 0.97151 0.11
5 3 6 o 651.361 653.871 180.00 0.97068 0.05
3 5 -13 o 1835.065 1888.101 180.00 0.96995 0.12
2 2 15 o 88.322 91.409 0.00 0.96989 0.01
3 3 12 o 251.152 258.298 0.00 0.96979 0.01
7 1 -4 o 3005.462 3124.478 0.00 0.96968 0.20
5 5 -3 o 34.403 35.092 0.00 0.96933 0.00
5 5 -6 o 10.441 10.868 0.00 0.96864 0.00
2 3 14 o 7.450 7.645 180.00 0.96836 0.00
1 4 14 o 16782.957 16902.773 180.00 0.96815 1.18
1 7 -1 o 3230.602 3184.994 0.00 0.96787 0.24
2 6 -10 o 4350.692 4211.672 180.00 0.96760 0.33
2 4 -16 o 1820.722 1757.921 0.00 0.96701 0.11
1 7 0 o 99.413 95.930 180.00 0.96677 0.01
3 0 14 o 34.172 33.687 180.00 0.96670 0.00
0 5 13 o 132.914 129.765 0.00 0.96622 0.01
1 7 -2 o 80.519 77.821 180.00 0.96610 0.02
5 3 -15 o 227.173 227.218 180.00 0.96585 0.02
6 3 1 o 573.656 585.793 180.00 0.96537 0.05
7 0 -10 o 76.623 77.038 180.00 0.96534 0.00
7 1 -9 o 9949.034 10169.085 180.00 0.96520 0.68
6 1 -15 o 3061.857 3111.227 0.00 0.96464 0.24
0 7 3 o 2.165 2.170 180.00 0.96444 0.00
5 5 -2 o 3224.600 3096.500 180.00 0.96382 0.22
1 7 1 o 1427.821 1283.203 0.00 0.96282 0.09
5 5 -7 o 182.214 154.958 180.00 0.96269 0.01
6 2 -14 o 297.356 247.969 0.00 0.96213 0.02
7 1 -3 o 11376.539 9455.063 0.00 0.96198 0.81
1 7 -3 o 245.099 204.143 180.00 0.96150 0.02
1 5 12 o 1194.702 1009.858 0.00 0.96111 0.10
7 0 -2 o 614.312 558.823 0.00 0.96105 0.01
3 5 8 o 337.653 301.621 180.00 0.96081 0.02
3 6 -9 o 0.012 0.000 180.00 0.95978 0.00
1 1 -19 o 61.958 60.976 0.00 0.95978 0.00
4 2 -18 o 78.084 76.790 180.00 0.95969 0.01
0 6 10 o 1088.853 1114.694 180.00 0.95927 0.09
2 0 16 o 5031.701 5202.068 0.00 0.95897 0.16
1 4 -16 o 53.868 57.810 180.00 0.95826 0.00
6 3 -12 o 749.083 846.731 0.00 0.95818 0.07
5 4 4 o 3624.026 4097.262 180.00 0.95737 0.25
3 1 14 o 4143.898 4629.485 180.00 0.95719 0.27
4 2 11 o 8140.068 9043.830 180.00 0.95676 0.62
2 5 -14 o 1420.279 1556.578 180.00 0.95635 0.13
1 7 2 o 904.453 961.630 0.00 0.95612 0.07
7 1 -10 o 3181.645 3305.188 180.00 0.95587 0.20
4 4 -15 o 871.997 899.153 180.00 0.95573 0.06
5 5 -1 o 0.627 0.670 0.00 0.95562 0.00
6 4 -5 o 3381.096 3359.879 0.00 0.95499 0.25
3 4 -16 o 8346.042 8258.534 0.00 0.95490 0.62
4 5 -12 o 236.384 231.697 180.00 0.95478 0.02
2 6 7 o 1913.267 1883.069 180.00 0.95474 0.13
0 7 4 o 0.524 0.521 180.00 0.95461 0.00
6 4 -6 o 3004.603 2911.045 0.00 0.95445 0.23
3 6 4 o 1238.190 1192.796 0.00 0.95427 0.10
1 7 -4 o 806.458 773.389 180.00 0.95420 0.06
5 5 -8 o 2693.605 2590.492 0.00 0.95407 0.18
5 4 -13 o 70.086 65.116 180.00 0.95361 0.01
5 2 8 o 1576.859 1492.442 180.00 0.95357 0.12
4 4 8 o 2691.923 2538.264 0.00 0.95343 0.20
1 6 9 o 1.148 0.993 180.00 0.95331 0.00
4 5 5 o 3427.611 3225.921 180.00 0.95308 0.25
6 4 -4 o 2296.444 2185.676 180.00 0.95277 0.13
1 5 -14 o 1279.293 1204.475 0.00 0.95272 0.09
4 0 12 o 15174.857 14208.604 180.00 0.95233 0.53
4 3 -17 o 748.873 701.848 0.00 0.95183 0.04
7 1 -2 o 1291.265 1183.123 180.00 0.95171 0.10
4 6 -4 o 3860.280 3547.792 0.00 0.95137 0.28
4 6 -3 o 6321.187 5816.804 180.00 0.95127 0.46
6 4 -7 o 560.688 517.613 0.00 0.95116 0.04
2 1 16 o 3161.999 3262.600 180.00 0.94969 0.23
4 3 10 o 723.177 779.626 0.00 0.94916 0.06
5 0 -18 o 7149.146 7634.600 0.00 0.94910 0.22
0 3 17 o 271.128 292.681 180.00 0.94878 0.02
4 6 -5 o 40.431 42.918 180.00 0.94874 0.00
4 6 -2 o 767.765 833.073 0.00 0.94844 0.06
5 2 -17 o 246.412 262.569 180.00 0.94813 0.02
7 2 -6 o 1192.556 1277.003 0.00 0.94811 0.09
6 4 -3 o 322.815 344.120 0.00 0.94785 0.03
2 2 -19 o 5398.450 5656.818 0.00 0.94780 0.36
6 1 5 o 4102.101 4291.321 0.00 0.94773 0.29
2 3 -18 o 1141.577 1192.296 180.00 0.94763 0.09
7 2 -7 o 285.060 290.748 180.00 0.94726 0.02
6 2 4 o 3056.995 3074.287 180.00 0.94699 0.22
1 6 -11 o 1950.112 1961.271 0.00 0.94698 0.15
0 2 18 o 809.894 810.266 0.00 0.94687 0.06
1 7 3 o 2239.171 2238.878 0.00 0.94686 0.16
6 3 2 o 4170.055 4123.674 180.00 0.94648 0.28
4 1 -19 o 946.514 934.719 0.00 0.94625 0.06
7 2 -5 o 700.416 688.671 0.00 0.94625 0.06
5 1 9 o 1520.042 1511.613 0.00 0.94583 0.13
6 0 -16 o 168.651 168.806 180.00 0.94570 0.01
2 4 13 o 1.914 2.089 0.00 0.94540 0.00
6 4 -8 o 462.475 473.742 180.00 0.94521 0.03
1 3 16 o 125.121 128.786 180.00 0.94518 0.01
5 5 0 o -0.114 0.064 0.00 0.94492 0.00
1 7 -5 o 257.687 263.060 180.00 0.94436 0.01
7 1 -11 o 8.195 8.426 0.00 0.94412 0.00
7 2 -8 o 566.266 564.207 0.00 0.94374 0.03
3 4 11 o 27.610 27.311 180.00 0.94373 0.00
1 2 17 o 5035.152 4958.470 0.00 0.94361 0.33
4 6 -6 o 1036.990 1004.166 0.00 0.94345 0.07
3 2 -19 o 8157.372 7840.838 0.00 0.94340 0.61
2 6 -11 o 869.709 841.862 180.00 0.94340 0.05
3 6 -10 o 473.327 464.630 0.00 0.94110 0.03
4 1 12 o 10.936 10.926 0.00 0.94324 0.00
3 3 -18 o 10694.374 10541.086 0.00 0.94088 0.75
5 5 -9 o 330.998 314.376 180.00 0.94300 0.02
4 6 -1 o 20117.561 18703.467 0.00 0.94297 1.47
2 7 -2 o 5216.633 5166.381 180.00 0.94052 0.38
5 3 7 o 1624.811 1610.312 180.00 0.94041 0.11
6 4 -2 o 87.524 86.769 0.00 0.94035 0.01
0 7 5 o 1599.855 1449.883 180.00 0.94241 0.13
5 1 -18 o 171.286 167.856 180.00 0.94010 0.02
3 5 -14 o 714.115 703.920 180.00 0.93994 0.05
2 7 -1 o 1368.751 1344.279 0.00 0.93981 0.11
7 2 -4 o 95.208 91.665 180.00 0.94173 0.00
7 1 -1 o 743.882 723.026 180.00 0.93912 0.05
7 0 -12 o 2511.900 2415.181 0.00 0.93894 0.11
6 3 -13 o 1807.952 1752.219 0.00 0.93867 0.13
2 7 -3 o 6305.664 6115.766 180.00 0.93859 0.47
2 5 11 o 968.256 951.535 180.00 0.93824 0.07
7 2 -9 o -0.349 0.084 0.00 0.93762 0.00
6 2 -15 o 3.468 3.746 0.00 0.93711 0.00
6 1 -16 o 3915.250 4217.708 0.00 0.93680 0.27
6 4 -9 o 956.789 1030.603 0.00 0.93675 0.07
2 7 0 o 5614.875 5966.681 0.00 0.93648 0.40
2 0 -20 o 1265.316 1317.873 180.00 0.93639 0.03
4 6 -7 o 21525.469 21225.398 180.00 0.93564 1.57
5 3 -16 o 5507.893 5413.963 0.00 0.93560 0.39
1 7 4 o 452.444 422.673 0.00 0.93524 0.05
3 6 5 o 0.471 0.055 0.00 0.93511 0.00
4 6 0 o 704.897 667.654 180.00 0.93498 0.05
1 3 -18 o 344.773 323.959 0.00 0.93477 0.03
7 2 -3 o 3.628 3.211 0.00 0.93467 0.00
3 0 -20 o 815.166 781.974 0.00 0.93443 0.02
2 7 -4 o 1009.913 968.498 0.00 0.93407 0.07
5 4 5 o 206.714 208.233 180.00 0.93342 0.02
7 0 0 o 2856.851 2996.770 0.00 0.93305 0.12
1 2 -19 o 1018.805 1091.387 180.00 0.93265 0.07
1 7 -6 o 1382.971 1507.372 0.00 0.93224 0.10
5 5 1 o 1236.138 1344.726 0.00 0.93200 0.08
0 6 11 o 40.655 43.932 180.00 0.93110 0.00
4 5 -13 o 9088.501 9343.848 0.00 0.93091 0.63
3 5 9 o 365.745 372.624 0.00 0.93083 0.03
1 0 18 o 865.573 866.359 0.00 0.93067 0.03
2 7 1 o 1385.898 1379.548 180.00 0.93062 0.10
6 4 -1 o 416.268 406.385 180.00 0.93045 0.03
0 4 16 o 3860.269 3693.721 180.00 0.93029 0.29
3 2 14 o 3727.290 3561.065 0.00 0.93028 0.28
7 1 -12 o 1022.073 970.206 0.00 0.93022 0.07
2 6 8 o 3617.315 3386.653 0.00 0.93009 0.27
5 5 -10 o 5697.489 5186.336 0.00 0.92975 0.42
0 5 14 o 207.864 187.811 0.00 0.92969 0.02
5 4 -14 o 1.566 1.469 180.00 0.92953 0.00
4 5 6 o 15.456 11.465 0.00 0.92915 0.00
7 2 -10 o 614.743 566.528 0.00 0.92906 0.04
3 3 13 o 18.860 17.542 0.00 0.92863 0.00
6 0 6 o 435.040 431.426 0.00 0.92820 0.02
0 7 6 o 0.541 0.552 180.00 0.92811 0.00
2 1 -20 o 33.656 35.689 180.00 0.92774 0.00
2 4 -17 o 14.303 17.717 0.00 0.92725 0.00
2 7 -5 o 1654.112 1801.662 0.00 0.92707 0.12
1 4 15 o 575.718 631.010 180.00 0.92660 0.04
6 3 3 o 3865.016 4183.780 0.00 0.92612 0.29
6 4 -10 o 1204.941 1267.161 0.00 0.92598 0.06
1 6 10 o 766.510 817.308 180.00 0.92594 0.05
3 1 -20 o 998.700 1076.452 180.00 0.92583 0.08
4 6 -8 o 2224.187 2339.094 180.00 0.92549 0.18
1 5 13 o 783.492 829.154 0.00 0.92543 0.08
7 2 -2 o 970.221 998.992 180.00 0.92525 0.06
0 1 19 o 284.402 287.431 180.00 0.92493 0.01
4 6 1 o 973.056 978.251 180.00 0.92467 0.08
2 3 15 o 5996.771 6002.395 180.00 0.92457 0.42
7 1 0 o 607.393 606.559 0.00 0.92449 0.04
4 4 -16 o 4354.812 4310.386 0.00 0.92417 0.32
2 2 16 o 1801.715 1744.278 180.00 0.92338 0.13
2 5 -15 o 3619.413 3370.944 0.00 0.92280 0.26
2 7 2 o 1491.546 1347.359 180.00 0.92235 0.11
1 1 18 o 6244.099 5614.632 0.00 0.92218 0.44
4 4 9 o 464.159 403.634 180.00 0.92190 0.04
6 2 5 o 1440.737 1316.238 180.00 0.92158 0.08
1 7 5 o 1074.062 957.771 180.00 0.92155 0.08
3 6 -11 o 1119.750 1061.794 0.00 0.92097 0.07
4 2 -19 o 6928.649 6990.770 0.00 0.92023 0.51
5 2 9 o 1165.658 1190.196 0.00 0.91984 0.08
6 1 6 o 13388.634 13683.400 180.00 0.91978 0.96
1 0 -20 o 3270.861 3332.436 0.00 0.91958 0.12
1 6 -12 o 2018.651 2057.180 0.00 0.91956 0.15
3 4 -17 o 160.418 158.536 0.00 0.91874 0.01
5 0 10 o 3702.983 3636.958 0.00 0.91865 0.14
2 6 -12 o 984.796 959.511 180.00 0.91845 0.07
6 4 0 o 5560.458 5399.969 180.00 0.91839 0.42
7 2 -11 o 1879.083 1813.109 180.00 0.91826 0.14
1 7 -7 o 3507.152 3377.919 180.00 0.91811 0.26
6 3 -14 o 888.398 847.049 180.00 0.91784 0.06
2 7 -6 o 8777.805 8367.705 180.00 0.91776 0.65
4 2 12 o 1127.582 1074.111 0.00 0.91746 0.08
1 4 -17 o 80.421 77.870 0.00 0.91736 0.00
1 5 -15 o 3708.934 3547.947 180.00 0.91736 0.26
5 5 2 o 2688.125 2576.793 0.00 0.91713 0.22
4 3 -18 o 1621.330 1747.158 180.00 0.91572 0.12
3 6 6 o 2243.827 2437.781 0.00 0.91461 0.18
5 5 -11 o 325.967 353.297 0.00 0.91459 0.02
5 2 -18 o 13.215 16.844 0.00 0.91456 0.00
7 1 -13 o 4633.118 4992.533 180.00 0.91448 0.32
4 0 -20 o 21.080 22.328 0.00 0.91403 0.00
7 2 -1 o 43.940 46.831 0.00 0.91366 0.00
4 6 -9 o 2558.758 2717.692 0.00 0.91323 0.20
4 3 11 o 1606.172 1688.050 0.00 0.91317 0.11
6 4 -11 o 1128.699 1190.928 180.00 0.91313 0.08
3 1 15 o 2.492 2.641 0.00 0.91268 0.00
4 6 2 o 4761.315 4601.120 180.00 0.91226 0.36
0 7 7 o 1893.677 1762.491 180.00 0.91202 0.15
2 7 3 o 10947.342 10056.191 0.00 0.91189 0.85
6 2 -16 o 4.479 4.050 0.00 0.91152 0.00
1 1 -20 o 455.660 389.551 180.00 0.91138 0.05
5 1 10 o 366.798 357.428 0.00 0.91048 0.02
5 3 8 o 1105.909 1069.275 0.00 0.91040 0.11
3 5 -15 o 598.184 601.262 0.00 0.91014 0.04
6 1 -17 o 272.614 278.377 0.00 0.90884 0.02
5 4 6 o 5932.186 6046.478 180.00 0.90879 0.44
7 1 1 o 61.299 60.241 180.00 0.90814 0.00
3 4 12 o 415.013 408.151 0.00 0.90805 0.03
2 4 14 o 145.103 152.607 0.00 0.90688 0.01
4 5 -14 o 1398.704 1475.372 0.00 0.90636 0.09
2 7 -7 o 743.386 795.418 180.00 0.90635 0.06
1 7 6 o 998.139 1045.862 180.00 0.90607 0.08
4 1 -20 o 625.818 654.073 180.00 0.90598 0.05
5 3 -17 o 510.316 513.492 180.00 0.90565 0.03
7 3 -6 o 17651.742 17738.459 180.00 0.90564 1.24
7 2 -12 o 940.077 926.889 180.00 0.90546 0.08
2 3 -19 o 3479.277 3409.844 0.00 0.90537 0.25
2 5 12 o 9976.290 9660.688 0.00 0.90523 0.72
7 0 -14 o 452.043 424.341 180.00 0.90502 0.02
5 1 -19 o 1741.438 1649.667 0.00 0.90498 0.12
7 3 -7 o 1152.401 1088.109 180.00 0.90490 0.08
2 6 9 o 1149.715 1079.640 0.00 0.90489 0.09
5 4 -15 o 0.453 0.016 180.00 0.90482 0.00
6 3 4 o 987.268 912.526 0.00 0.90466 0.08
4 5 7 o 1740.128 1605.849 180.00 0.90457 0.14
0 3 18 o 2601.692 2409.031 0.00 0.90456 0.19
6 4 1 o 2105.298 1942.868 180.00 0.90442 0.15
1 7 -8 o 180.790 178.063 180.00 0.90225 0.01
7 3 -5 o 134.708 124.291 180.00 0.90402 0.01
7 3 -8 o 4049.627 4019.738 180.00 0.90183 0.31
1 3 17 o 992.240 990.889 0.00 0.90171 0.08
2 1 17 o 475.270 443.709 180.00 0.90354 0.04
3 3 -19 o 1191.055 1200.287 0.00 0.90153 0.09
3 2 -20 o 6.513 6.880 0.00 0.90141 0.00
2 2 -20 o 13.724 13.543 0.00 0.90317 0.00
4 1 13 o 781.329 743.921 180.00 0.90317 0.06
3 5 10 o 2.454 2.577 0.00 0.90116 0.00
0 6 12 o 6151.831 5886.207 180.00 0.90292 0.48
5 5 3 o 212.771 223.030 0.00 0.90061 0.03
0 2 19 o 1709.674 1752.954 0.00 0.90058 0.12
7 2 0 o 570.100 578.062 180.00 0.90017 0.04
7 3 -4 o 772.648 781.489 0.00 0.90008 0.06
3 6 -12 o 228.866 227.916 180.00 0.89976 0.02
3 7 -3 o 2565.241 2548.817 180.00 0.89966 0.18
2 7 4 o 5031.215 4964.676 0.00 0.89945 0.37
3 7 -2 o 878.916 861.741 180.00 0.89931 0.08
4 6 -10 o 1343.213 1321.953 180.00 0.89912 0.10
6 4 -12 o 404.197 405.580 180.00 0.89850 0.04
1 6 11 o 31.633 31.667 0.00 0.89848 0.00
4 6 3 o 7364.729 7519.918 0.00 0.89804 0.53
1 2 18 o 1711.321 1752.840 180.00 0.89803 0.14
7 0 2 o -0.009 0.179 0.00 0.89800 0.00
5 5 -12 o 14.478 15.095 180.00 0.89785 0.00
3 7 -4 o 280.394 290.142 0.00 0.89771 0.02
7 1 -14 o 7319.505 7612.251 180.00 0.89721 0.53
3 7 -1 o 969.786 996.801 0.00 0.89666 0.08
7 3 -9 o 7334.074 7442.922 0.00 0.89649 0.51
6 3 -15 o 95.575 94.224 180.00 0.89604 0.01
6 2 6 o 2354.638 2311.939 180.00 0.89582 0.17
0 5 15 o 417.139 415.503 0.00 0.89473 0.03
0 7 8 o 377.428 376.100 180.00 0.89445 0.03
7 3 -3 o 5121.885 5004.859 180.00 0.89391 0.36
3 7 -5 o 167.115 161.332 180.00 0.89349 0.01
4 4 -17 o 132.825 122.591 0.00 0.89326 0.01
3 6 7 o 357.998 323.619 0.00 0.89314 0.04
2 6 -13 o 7248.706 6773.552 0.00 0.89311 0.52
2 7 -8 o 5249.116 4876.121 0.00 0.89308 0.41
1 3 -19 o 43.379 41.965 180.00 0.89214 0.00
1 6 -13 o 1231.443 1189.005 180.00 0.89213 0.10
6 1 7 o 303.122 300.282 0.00 0.89190 0.03
3 7 0 o 38.394 38.470 0.00 0.89177 0.00
1 5 14 o 2403.529 2489.335 180.00 0.89119 0.20
4 4 10 o 14070.985 14525.500 180.00 0.89105 1.08
7 2 -13 o 336.871 345.945 0.00 0.89093 0.02
0 4 17 o 163.009 165.852 0.00 0.89073 0.01
7 1 2 o 2455.595 2452.173 180.00 0.89037 0.17
2 5 -16 o 9032.303 8986.910 0.00 0.89030 0.67
3 3 14 o 1462.950 1439.669 180.00 0.89006 0.11
2 4 -18 o 82.931 81.437 180.00 0.88978 0.00
