#------------------------------------------------------------------------------
#$Date: 2021-05-17 12:38:01 +0300 (Mon, 17 May 2021) $
#$Revision: 265279 $
#$URL: file:///home/coder/svn-repositories/cod/cif/1/56/26/1562614.cif $
#------------------------------------------------------------------------------
#
# This file is available in the Crystallography Open Database (COD),
# http://www.crystallography.net/
#
# All data on this site have been placed in the public domain by the
# contributors.
#
data_1562614
loop_
_publ_author_name
'Zibrov, Igor P.'
'Filonenko, Vladimir P.'
'Zakharov, Nikolai D.'
'Werner, Peter'
'Drobot, Dmitrii V.'
'Nikishina, Elena E.'
'Lebedeva, Elena N.'
_publ_section_title
;
 New high pressure rare earth tantalates RExTa2O5+1.5x (RE=La, Eu, Yb)
;
_journal_name_full               'Journal of Solid State Chemistry'
_journal_page_first              240
_journal_page_last               246
_journal_paper_doi               10.1016/j.jssc.2013.03.057
_journal_volume                  203
_journal_year                    2013
_chemical_formula_structural     'EU0.089 TA2 O5.134'
_chemical_formula_sum            'Eu0.13 O8 Ta3'
_chemical_formula_weight         691.23
_chemical_name_common            'Europium Tantalate'
_space_group_IT_number           72
_space_group_name_Hall           '-I 2 2c'
_space_group_name_H-M_alt        'I b a m'
_symmetry_cell_setting           orthorhombic
_symmetry_space_group_name_Hall  '-I 2 2c'
_symmetry_space_group_name_H-M   'I b a m'
_cell_angle_alpha                90.0
_cell_angle_beta                 90.0
_cell_angle_gamma                90.0
_cell_formula_units_Z            4
_cell_length_a                   10.41815(26)
_cell_length_b                   7.26845(14)
_cell_length_c                   6.98322(12)
_cell_measurement_temperature    298(2)
_cell_volume                     528.796(19)
_computing_structure_refinement  GSAS
_diffrn_ambient_temperature      298
_diffrn_detector                 'imaging plate'
_diffrn_measurement_device_type  'Imaging Plate Guinier Camera 670 (Huber)'
_diffrn_radiation_monochromator  'Primary, curved Ge (111)'
_diffrn_radiation_polarisn_ratio 0.8
_diffrn_radiation_probe          x-ray
_diffrn_radiation_type           'Cu K\a~1~'
_diffrn_radiation_wavelength     1.5406
_diffrn_source                   'sealed X-ray tube'
_diffrn_source_target            Cu
_exptl_absorpt_correction_T_max  1.00000
_exptl_absorpt_correction_T_min  1.00000
_exptl_absorpt_process_details
;   GSAS Absorption/surface roughness correction: function number 0
 No correction is applied.
;
_exptl_crystal_density_diffrn    8.682
_exptl_crystal_density_method    'not measured'
_pd_calc_method                  'Rietveld Refinement'
_pd_char_colour                  grey
_pd_instr_location               ' ?'
_pd_meas_2theta_range_inc        0.005
_pd_meas_2theta_range_max        100.495
_pd_meas_2theta_range_min        10.0
_pd_meas_number_of_points        18100
_pd_meas_scan_method             fixed
_pd_phase_name                   'from G:/gsas/MyWork/TAEU865.EXP'
_pd_prep_cool_rate               20
_pd_prep_pressure                0.1
_pd_prep_temperature             723
_pd_proc_2theta_range_inc        0.005
_pd_proc_2theta_range_max        100.50723
_pd_proc_2theta_range_min        10.01222
_pd_proc_info_datetime           2013-03-02T13:06:19
_pd_proc_info_excluded_regions   ' ?'
_pd_proc_ls_background_function
;   GSAS Background function number 1 with 30 terms.
 Shifted Chebyshev function of 1st kind
      1:    542.540     2:   -186.557     3:    92.9679     4:   -12.9156    
      5:   -15.9952     6:    9.50062     7:   -9.73858     8:   -7.11469    
      9:    9.77078    10:   -6.47415    11:   -6.46126    12:   -1.48928    
     13:   -2.65822    14:   -1.15851    15:    4.62817    16:    2.05286    
     17:   -2.01050    18:   -1.30417    19:    3.90302    20:   -3.10563    
     21:    1.09327    22:    1.02978    23:    3.31392    24:   0.208595    
     25:  -6.487630E-0226:   0.145905    27:  -0.860340    28:   -1.91249    
     29:    2.74681    30:   7.116350E-02
;
_pd_proc_ls_peak_cutoff          0.01000
_pd_proc_ls_profile_function
;
 CW Profile function number 2 with  18 terms
 Profile coefficients for Simpson's rule integration of pseudovoigt function
 C.J. Howard (1982). J. Appl. Cryst.,15,615-620.
 P. Thompson, D.E. Cox & J.B. Hastings (1987). J. Appl. Cryst.,20,79-83.
 #1(GU)   =    0.000 #2(GV)   =  387.065 #3(GW)   =  -76.765
 #4(LX)   =   11.093 #5(LY)   =    0.000 #6(trns) =   -2.354
 #7(asym) =   7.0327 #8(shft) =  -3.8576 #9(GP)   =    0.000
 #10(stec)=     0.00 #11(ptec)=    -2.94 #12(sfec)=     0.00
 #13(L11) =    0.000 #14(L22) =    0.000 #15(L33) =    0.000
 #16(L12) =    0.000 #17(L13) =    0.000 #18(L23) =    0.000
 Peak tails are ignored  where the intensity is below 0.0100 times the peak
   Aniso. broadening axis   0.0   0.0   1.0
;
_pd_proc_ls_prof_R_factor        0.0389
_pd_proc_ls_prof_wR_expected     0.0414
_pd_proc_ls_prof_wR_factor       0.0521
_pd_proc_number_of_points        18100
_pd_spec_mounting                'powder on Mylar film'
_pd_spec_mount_mode              transmission
_pd_spec_shape                   flat_sheet
_pd_spec_size_axial              8
_pd_spec_size_equat              0.1
_refine_ls_goodness_of_fit_all   1.26
_refine_ls_matrix_type           full
_refine_ls_number_parameters     46
_refine_ls_number_restraints     0
_refine_ls_R_Fsqd_factor         0.13801
_refine_ls_shift/su_max          0.04
_refine_ls_shift/su_mean         0.01
_cod_data_source_file            Eu0089Ta2O5134.cif
_cod_data_source_block           EU0.089TA2O5.134_publ
_cod_depositor_comments
;
The following automatic conversions were performed:

data item '_geom_angle_publ_flag' value 'N' was changed to 'n' in
accordance with the built-in table derived from the CIF Core
dictionary named 'cif_core.dic' version 2.4.5 last updated on
2014-11-21 (152 times).

data item '_geom_bond_publ_flag' value 'N' was changed to 'n' in
accordance with the built-in table derived from the CIF Core
dictionary named 'cif_core.dic' version 2.4.5 last updated on
2014-11-21 (55 times).

Automatic conversion script
Id: cif_fix_values 8369 2020-08-20 11:38:08Z andrius 
;
_cod_original_cell_volume        528.796(16)
_cod_database_code               1562614
loop_
_symmetry_equiv_pos_site_id
_symmetry_equiv_pos_as_xyz
1 +x,+y,+z
2 -x+1/2,+y+1/2,+z
3 +x+1/2,-y+1/2,+z
4 -x,-y,+z
-1 -x,-y,-z
-2 +x+1/2,-y+1/2,-z
-3 -x+1/2,+y+1/2,-z
-4 +x,+y,-z
101 +x+1/2,+y+1/2,+z+1/2
102 -x,+y,+z+1/2
103 +x,-y,+z+1/2
104 -x+1/2,-y+1/2,+z+1/2
-101 -x+1/2,-y+1/2,-z+1/2
-102 +x,-y,-z+1/2
-103 -x,+y,-z+1/2
-104 +x+1/2,+y+1/2,-z+1/2
loop_
_atom_site_type_symbol
_atom_site_label
_atom_site_fract_x
_atom_site_fract_y
_atom_site_fract_z
_atom_site_occupancy
_atom_site_thermal_displace_type
_atom_site_U_iso_or_equiv
_atom_site_symmetry_multiplicity
Ta TA1 0.23713(17) 0.2596(4) 0.0 1.0 Uiso 0.0359(5) 8
Ta TA2 0.0 0.0 0.25 1.0 Uiso 0.0359(5) 4
O O1 0.1313(7) 0.1739(11) 0.2874(16) 1.0 Uiso 0.025 16
O O2 0.1366(10) 0.5328(32) 0.0 1.0 Uiso 0.025 8
O O3 0.0936(12) 0.1226(16) 0.0 1.0 Uiso 0.025 8
Eu Eu 0.0 0.5 0.25 0.1342 Uiso 0.037 4
loop_
_atom_type_symbol
_atom_type_number_in_cell
_atom_type_scat_dispersion_real
_atom_type_scat_dispersion_imag
_atom_type_scat_Cromer_Mann_a1
_atom_type_scat_Cromer_Mann_a2
_atom_type_scat_Cromer_Mann_a3
_atom_type_scat_Cromer_Mann_a4
_atom_type_scat_Cromer_Mann_b1
_atom_type_scat_Cromer_Mann_b2
_atom_type_scat_Cromer_Mann_b3
_atom_type_scat_Cromer_Mann_b4
_atom_type_scat_Cromer_Mann_c
_atom_type_scat_source
Ta 12.0 -6.351 5.271 29.2024 1.77333 15.2293 9.37046 14.5135 0.29598 4.76492
63.3644 9.24354 International_Tables_Vol_C
O 32.0 0.047 0.032 3.04850 13.2771 2.28680 5.70110 1.54630 0.32390 0.86700
32.9089 0.25080 International_Tables_Vol_C
Eu 0.537 -7.718 11.276 24.6274 2.38790 19.0886 0.19420 13.7603 13.7546 2.92270
123.174 2.57450 International_Tables_Vol_C
loop_
_geom_angle_atom_site_label_1
_geom_angle_atom_site_label_2
_geom_angle_atom_site_label_3
_geom_angle
_geom_angle_site_symmetry_1
_geom_angle_site_symmetry_2
_geom_angle_site_symmetry_3
_geom_angle_publ_flag
O1 TA1 O1 91.2(5) 104_554 . -101_665 n
O1 TA1 O2 95.84(31) 104_554 . 1_555 n
O1 TA1 O2 76.7(4) 104_554 . 2_545 n
O1 TA1 O3 132.69(25) 104_554 . 1_555 n
O1 TA1 Eu 135.01(23) 104_554 . 1_555 n
O1 TA1 Eu 89.60(24) 104_554 . -1_565 n
O1 TA1 O2 95.84(31) -101_665 . 1_555 n
O1 TA1 O2 76.7(4) -101_665 . 2_545 n
O1 TA1 O3 132.69(25) -101_444 . 1_555 n
O1 TA1 Eu 89.60(24) -101_444 . 1_555 n
O1 TA1 Eu 135.01(23) -101_444 . -1_565 n
O2 TA1 O2 169.2(7) 1_555 . 2_545 n
O2 TA1 O3 95.9(6) 1_555 . 1_555 n
O2 TA1 Eu 39.44(23) 1_555 . 1_555 n
O2 TA1 Eu 39.44(23) 1_555 . -1_565 n
O2 TA1 O3 94.9(6) 2_545 . 1_555 n
O2 TA1 Eu 146.31(21) 2_545 . 1_555 n
O2 TA1 Eu 146.31(21) 2_545 . -1_565 n
O3 TA1 Eu 71.9(4) 1_555 . 1_555 n
O3 TA1 Eu 71.9(4) 1_555 . -1_565 n
Eu TA1 Eu 59.96(4) 1_555 . -1_565 n
O1 TA2 O1 164.0(7) 1_555 . 4_555 n
O1 TA2 O1 86.7(5) 1_555 . -102_665 n
O1 TA2 O1 95.5(5) 1_555 . -103_665 n
O1 TA2 O3 60.9(4) 1_555 . 1_555 n
O1 TA2 O3 135.1(4) 1_555 . 4_555 n
O1 TA2 O3 86.6(5) 1_555 . 102_334 n
O1 TA2 O3 80.7(4) 1_555 . 103_334 n
O1 TA2 O1 95.5(5) 4_555 . -102_665 n
O1 TA2 O1 86.7(5) 4_555 . -103_665 n
O1 TA2 O3 135.1(4) 4_555 . 1_555 n
O1 TA2 O3 60.9(4) 4_555 . 4_555 n
O1 TA2 O3 80.7(4) 4_555 . 102_334 n
O1 TA2 O3 86.6(5) 4_555 . 103_334 n
O1 TA2 O1 164.0(7) -102_665 . -103_665 n
O1 TA2 O3 80.7(4) -102_444 . 1_555 n
O1 TA2 O3 86.6(5) -102_444 . 4_555 n
O1 TA2 O3 135.1(4) -102_444 . 102_334 n
O1 TA2 O3 60.9(4) -102_444 . 103_334 n
O1 TA2 O3 86.6(5) -103_444 . 1_555 n
O1 TA2 O3 80.7(4) -103_444 . 4_555 n
O1 TA2 O3 60.9(4) -103_444 . 102_334 n
O1 TA2 O3 135.1(4) -103_444 . 103_334 n
O3 TA2 O3 74.2(4) 1_555 . 4_555 n
O3 TA2 O3 132.0(6) 1_555 . 102_334 n
O3 TA2 O3 127.1(6) 1_555 . 103_334 n
O3 TA2 O3 127.1(6) 4_555 . 102_334 n
O3 TA2 O3 132.0(6) 4_555 . 103_334 n
O3 TA2 O3 74.2(4) 102_334 . 103_334 n
TA1 O1 TA2 137.3(5) 104_555 . 1_555 n
TA1 O1 Eu 101.27(34) 104_555 . 1_555 n
TA2 O1 Eu 101.80(29) 1_555 . 1_555 n
TA1 O2 TA1 113.6(5) 1_555 . 2_555 n
TA1 O2 Eu 101.5(7) 1_555 . 1_555 n
TA1 O2 Eu 101.5(7) 1_555 . -1_565 n
TA1 O2 Eu 118.3(7) 2_555 . 1_555 n
TA1 O2 Eu 118.3(7) 2_555 . -1_565 n
Eu O2 Eu 100.8(4) 1_555 . -1_565 n
TA1 O3 TA2 126.62(25) 1_555 . 1_555 n
TA1 O3 TA2 126.62(25) 1_555 . -1_555 n
TA2 O3 TA2 105.8(4) 1_555 . -1_555 n
TA1 Eu TA1 120.04(4) 1_555 . 4_565 n
TA1 Eu TA1 119.98(8) 1_555 . 102_335 n
TA1 Eu TA1 89.99(6) 1_555 . 103_345 n
TA1 Eu O1 42.64(21) 1_555 . 1_555 n
TA1 Eu O1 146.16(21) 1_555 . 4_565 n
TA1 Eu O1 91.83(18) 1_555 . -102_675 n
TA1 Eu O1 82.71(16) 1_555 . -103_665 n
TA1 Eu O2 39.0(6) 1_555 . 1_555 n
TA1 Eu O2 90.38(34) 1_555 . 4_565 n
TA1 Eu O2 151.9(5) 1_555 . 102_555 n
TA1 Eu O2 83.57(34) 1_555 . 103_565 n
TA1 Eu Eu 60.018(18) 1_555 . -1_565 n
TA1 Eu Eu 119.982(18) 1_555 . -1_566 n
TA1 Eu TA1 89.99(6) 4_565 . 102_335 n
TA1 Eu TA1 119.98(8) 4_565 . 103_345 n
TA1 Eu O1 146.16(21) 4_565 . 1_555 n
TA1 Eu O1 42.64(21) 4_565 . 4_565 n
TA1 Eu O1 82.71(16) 4_565 . -102_675 n
TA1 Eu O1 91.83(18) 4_565 . -103_665 n
TA1 Eu O2 90.38(34) 4_565 . 1_555 n
TA1 Eu O2 39.0(6) 4_565 . 4_565 n
TA1 Eu O2 83.57(34) 4_565 . 102_555 n
TA1 Eu O2 151.9(5) 4_565 . 103_565 n
TA1 Eu Eu 60.018(18) 4_565 . -1_565 n
TA1 Eu Eu 119.982(18) 4_565 . -1_566 n
TA1 Eu TA1 120.04(4) 102_335 . 103_345 n
TA1 Eu O1 82.71(16) 102_555 . 1_555 n
TA1 Eu O1 91.83(18) 102_555 . 4_565 n
TA1 Eu O1 146.16(21) 102_555 . -102_675 n
TA1 Eu O1 42.64(21) 102_555 . -103_665 n
TA1 Eu O2 151.9(5) 102_555 . 1_555 n
TA1 Eu O2 83.57(34) 102_555 . 4_565 n
TA1 Eu O2 39.0(6) 102_555 . 102_555 n
TA1 Eu O2 90.38(34) 102_555 . 103_565 n
TA1 Eu Eu 119.982(18) 102_334 . -1_565 n
TA1 Eu Eu 60.018(18) 102_334 . -1_566 n
TA1 Eu O1 91.83(18) 103_565 . 1_555 n
TA1 Eu O1 82.71(16) 103_565 . 4_565 n
TA1 Eu O1 42.64(21) 103_565 . -102_675 n
TA1 Eu O1 146.16(21) 103_565 . -103_665 n
TA1 Eu O2 83.57(34) 103_565 . 1_555 n
TA1 Eu O2 151.9(5) 103_565 . 4_565 n
TA1 Eu O2 90.38(34) 103_565 . 102_555 n
TA1 Eu O2 39.0(6) 103_565 . 103_565 n
TA1 Eu Eu 119.982(18) 103_344 . -1_565 n
TA1 Eu Eu 60.018(18) 103_344 . -1_566 n
O1 Eu O1 169.1(5) 1_555 . 4_565 n
O1 Eu O1 120.33(29) 1_555 . -102_675 n
O1 Eu O1 60.86(31) 1_555 . -103_665 n
O1 Eu O2 81.4(5) 1_555 . 1_555 n
O1 Eu O2 107.2(6) 1_555 . 4_565 n
O1 Eu O2 109.3(6) 1_555 . 102_555 n
O1 Eu O2 61.5(6) 1_555 . 103_565 n
O1 Eu Eu 95.45(23) 1_555 . -1_565 n
O1 Eu Eu 84.55(23) 1_555 . -1_566 n
O1 Eu O1 60.86(31) 4_565 . -102_675 n
O1 Eu O1 120.33(29) 4_565 . -103_665 n
O1 Eu O2 107.2(6) 4_565 . 1_555 n
O1 Eu O2 81.4(5) 4_565 . 4_565 n
O1 Eu O2 61.5(6) 4_565 . 102_555 n
O1 Eu O2 109.3(6) 4_565 . 103_565 n
O1 Eu Eu 95.45(23) 4_565 . -1_565 n
O1 Eu Eu 84.55(23) 4_565 . -1_566 n
O1 Eu O1 169.1(5) -102_675 . -103_665 n
O1 Eu O2 61.5(6) -102_675 . 1_555 n
O1 Eu O2 109.3(6) -102_675 . 4_565 n
O1 Eu O2 107.2(6) -102_675 . 102_555 n
O1 Eu O2 81.4(5) -102_675 . 103_565 n
O1 Eu Eu 84.55(23) -102_454 . -1_565 n
O1 Eu Eu 95.45(23) -102_454 . -1_566 n
O1 Eu O2 109.3(6) -103_665 . 1_555 n
O1 Eu O2 61.5(6) -103_665 . 4_565 n
O1 Eu O2 81.4(5) -103_665 . 102_555 n
O1 Eu O2 107.2(6) -103_665 . 103_565 n
O1 Eu Eu 84.55(23) -103_444 . -1_565 n
O1 Eu Eu 95.45(23) -103_444 . -1_566 n
O2 Eu O2 79.2(4) 1_555 . 4_565 n
O2 Eu O2 167.9(12) 1_555 . 102_555 n
O2 Eu O2 102.1(4) 1_555 . 103_565 n
O2 Eu Eu 39.58(22) 1_555 . -1_565 n
O2 Eu Eu 140.42(22) 1_555 . -1_566 n
O2 Eu O2 102.1(4) 4_565 . 102_555 n
O2 Eu O2 167.9(12) 4_565 . 103_565 n
O2 Eu Eu 39.58(22) 4_565 . -1_565 n
O2 Eu Eu 140.42(22) 4_565 . -1_566 n
O2 Eu O2 79.2(4) 102_555 . 103_565 n
O2 Eu Eu 140.42(22) 102_334 . -1_565 n
O2 Eu Eu 39.58(22) 102_334 . -1_566 n
O2 Eu Eu 140.42(22) 103_344 . -1_565 n
O2 Eu Eu 39.58(22) 103_344 . -1_566 n
Eu Eu Eu 180.0 -1_565 . -1_566 n
loop_
_geom_bond_atom_site_label_1
_geom_bond_atom_site_label_2
_geom_bond_distance
_geom_bond_site_symmetry_1
_geom_bond_site_symmetry_2
_geom_bond_publ_flag
TA1 O1 2.373(10) . 1_555 n
TA1 O1 2.373(10) . -4_555 n
TA1 O1 2.078(9) . 104_554 n
TA1 O1 2.078(9) . -101_444 n
TA1 O2 2.245(22) . 1_555 n
TA1 O2 2.109(20) . 2_545 n
TA1 O3 1.796(11) . 1_555 n
TA1 Eu 3.4935(19) . 1_555 n
TA1 Eu 3.7561(19) . 2_545 n
TA1 Eu 3.4935(19) . -1_565 n
TA1 Eu 3.7561(19) . -2_555 n
TA2 O1 1.880(8) . 1_555 n
TA2 O1 1.880(8) . 4_555 n
TA2 O1 1.880(8) . -102_444 n
TA2 O1 1.880(8) . -103_444 n
TA2 O3 2.189(6) . 1_555 n
TA2 O3 2.189(6) . 4_555 n
TA2 O3 2.189(6) . 102_555 n
TA2 O3 2.189(6) . 103_555 n
TA2 Eu 3.63422(7) . 1_545 n
TA2 Eu 3.63422(7) . 1_555 n
O1 TA1 2.373(10) . 1_555 n
O1 TA1 2.078(9) . 104_555 n
O1 TA2 1.880(8) . 1_555 n
O1 O3 2.079(11) . 1_555 n
O1 Eu 2.749(8) . 1_555 n
O2 TA1 2.245(22) . 1_555 n
O2 TA1 2.109(20) . 2_555 n
O2 Eu 2.265(7) . 1_555 n
O2 Eu 2.265(7) . -1_565 n
O3 TA1 1.796(11) . 1_555 n
O3 TA2 2.189(6) . 1_555 n
O3 TA2 2.189(6) . -1_555 n
O3 O1 2.079(11) . 1_555 n
O3 O1 2.079(11) . -4_555 n
Eu TA1 3.4935(19) . 1_555 n
Eu TA1 3.7561(19) . 2_555 n
Eu TA1 3.7561(19) . 3_455 n
Eu TA1 3.4935(19) . 4_565 n
Eu TA1 3.7561(19) . 101_455 n
Eu TA1 3.4935(19) . 102_555 n
Eu TA1 3.4935(19) . 103_565 n
Eu TA1 3.7561(19) . 104_555 n
Eu TA2 3.63422(7) . 1_555 n
Eu TA2 3.63422(7) . 1_565 n
Eu O1 2.749(8) . 1_555 n
Eu O1 2.749(8) . 4_565 n
Eu O1 2.749(8) . -102_454 n
Eu O1 2.749(8) . -103_444 n
Eu O2 2.265(7) . 1_555 n
Eu O2 2.265(7) . 4_565 n
Eu O2 2.265(7) . 102_555 n
Eu O2 2.265(7) . 103_565 n
Eu Eu 3.49161(6) . -1_565 n
Eu Eu 3.49161(6) . -1_566 n
loop_
_pd_meas_counts_total
_pd_proc_ls_weight
_pd_proc_intensity_bkg_calc
_pd_calc_intensity_total
820.0 0.001220 832.19739 832.19855
838.0 0.001193 831.36267 831.36365
829.0 0.001206 830.54266 830.54382
825.0 0.001212 829.73779 829.73877
814.0 0.001229 828.94727 828.94836
816.0 0.001225 828.17169 828.17285
783.0 0.001277 827.40985 827.41119
752.0 0.001330 826.66223 826.66351
796.0 0.001256 825.92841 825.92981
813.0 0.001230 825.20837 825.20972
829.0 0.001206 824.50165 824.50323
824.0 0.001214 823.80829 823.80981
807.0 0.001239 823.12836 823.12958
823.0 0.001215 822.46088 822.46252
811.0 0.001233 821.80664 821.80804
781.0 0.001280 821.16431 821.16589
814.0 0.001229 820.53497 820.53644
819.0 0.001221 819.91742 819.91913
825.0 0.001212 819.31201 819.31366
810.0 0.001235 818.71875 818.72015
795.0 0.001258 818.13690 818.13831
800.0 0.001250 817.56665 817.56824
817.0 0.001224 817.00763 817.00940
838.0 0.001193 816.46014 816.46143
818.0 0.001222 815.92328 815.92493
845.0 0.001183 815.39758 815.39905
809.0 0.001236 814.88257 814.88385
805.0 0.001242 814.37805 814.37939
831.0 0.001203 813.88379 813.88544
833.0 0.001200 813.39996 813.40143
847.0 0.001181 812.92627 812.92780
853.0 0.001172 812.46234 812.46387
840.0 0.001190 812.00836 812.00970
851.0 0.001175 811.56403 811.56549
823.0 0.001215 811.12921 811.13080
800.0 0.001250 810.70392 810.70508
825.0 0.001212 810.28735 810.28882
833.0 0.001200 809.88000 809.88147
844.0 0.001185 809.48212 809.48334
794.0 0.001259 809.09253 809.09375
798.0 0.001253 808.71179 808.71307
787.0 0.001271 808.33948 808.34076
786.0 0.001272 807.97589 807.97681
815.0 0.001227 807.62036 807.62122
811.0 0.001233 807.27277 807.27399
812.0 0.001232 806.93347 806.93451
789.0 0.001267 806.60199 806.60303
776.0 0.001289 806.27832 806.27924
803.0 0.001245 805.96216 805.96313
812.0 0.001232 805.65387 805.65448
811.0 0.001233 805.35266 805.35333
781.0 0.001280 805.05872 805.05945
777.0 0.001287 804.77209 804.77271
819.0 0.001221 804.49237 804.49323
835.0 0.001198 804.21948 804.22052
818.0 0.001222 803.95404 803.95447
816.0 0.001225 803.69470 803.69531
828.0 0.001208 803.44196 803.44244
817.0 0.001224 803.19611 803.19641
812.0 0.001232 802.95630 802.95673
820.0 0.001220 802.72296 802.72321
819.0 0.001221 802.49567 802.49597
817.0 0.001224 802.27448 802.27484
823.0 0.001215 802.05927 802.05957
806.0 0.001241 801.84998 801.85010
802.0 0.001247 801.64624 801.64648
778.0 0.001285 801.44830 801.44818
745.0 0.001342 801.25604 801.25592
781.0 0.001280 801.06921 801.06915
800.0 0.001250 800.88745 800.88745
819.0 0.001221 800.71136 800.71094
834.0 0.001199 800.54004 800.53992
798.0 0.001253 800.37402 800.37390
800.0 0.001250 800.21320 800.21295
837.0 0.001195 800.05695 800.05670
800.0 0.001250 799.90576 799.90540
832.0 0.001202 799.75916 799.75879
835.0 0.001198 799.61725 799.61688
835.0 0.001198 799.47998 799.47949
821.0 0.001218 799.34705 799.34656
814.0 0.001229 799.21875 799.21796
815.0 0.001227 799.09467 799.09393
818.0 0.001222 798.97443 798.97412
812.0 0.001232 798.85895 798.85803
807.0 0.001239 798.74725 798.74628
815.0 0.001227 798.63947 798.63873
791.0 0.001264 798.53583 798.53479
783.0 0.001277 798.43567 798.43494
802.0 0.001247 798.33954 798.33862
830.0 0.001205 798.24713 798.24609
825.0 0.001212 798.15814 798.15710
830.0 0.001205 798.07288 798.07184
810.0 0.001235 797.99103 797.98975
797.0 0.001255 797.91260 797.91144
790.0 0.001266 797.83746 797.83643
784.0 0.001276 797.76563 797.76428
800.0 0.001250 797.69690 797.69574
798.0 0.001253 797.63159 797.63000
799.0 0.001252 797.56915 797.56775
782.0 0.001279 797.50958 797.50848
796.0 0.001256 797.45349 797.45184
799.0 0.001252 797.39966 797.39825
785.0 0.001274 797.34882 797.34717
810.0 0.001235 797.30072 797.29907
800.0 0.001250 797.25549 797.25385
809.0 0.001236 797.21252 797.21100
779.0 0.001284 797.17261 797.17078
782.0 0.001279 797.13489 797.13312
792.0 0.001263 797.09985 797.09802
792.0 0.001263 797.06683 797.06537
821.0 0.001218 797.03674 797.03467
797.0 0.001255 797.00824 797.00659
762.0 0.001312 796.98248 796.98083
756.0 0.001323 796.95874 796.95715
782.0 0.001279 796.93726 796.93555
774.0 0.001292 796.91791 796.91571
817.0 0.001224 796.90015 796.89844
830.0 0.001205 796.88477 796.88306
822.0 0.001217 796.87128 796.86938
808.0 0.001238 796.85956 796.85779
786.0 0.001272 796.84991 796.84796
789.0 0.001267 796.84180 796.83978
786.0 0.001272 796.83551 796.83356
820.0 0.001220 796.83069 796.82886
813.0 0.001230 796.82800 796.82605
814.0 0.001229 796.82666 796.82440
776.0 0.001289 796.82690 796.82477
743.0 0.001346 796.82855 796.82642
801.0 0.001248 796.83173 796.82941
827.0 0.001209 796.83643 796.83398
807.0 0.001239 796.84235 796.84015
797.0 0.001255 796.84973 796.84760
809.0 0.001236 796.85828 796.85638
797.0 0.001255 796.86829 796.86621
778.0 0.001285 796.87933 796.87732
787.0 0.001271 796.89185 796.88971
820.0 0.001220 796.90540 796.90320
821.0 0.001218 796.91986 796.91785
807.0 0.001239 796.93573 796.93341
815.0 0.001227 796.95251 796.95013
795.0 0.001258 796.97015 796.96802
804.0 0.001244 796.98895 796.98676
821.0 0.001218 797.00873 797.00641
797.0 0.001255 797.02942 797.02722
796.0 0.001256 797.05072 797.04865
797.0 0.001255 797.07318 797.07111
769.0 0.001300 797.09631 797.09399
760.0 0.001316 797.12024 797.11792
788.0 0.001269 797.14478 797.14252
790.0 0.001266 797.17023 797.16797
822.0 0.001217 797.19623 797.19415
830.0 0.001205 797.22314 797.22083
794.0 0.001259 797.25037 797.24829
813.0 0.001230 797.27826 797.27606
819.0 0.001221 797.30670 797.30463
812.0 0.001232 797.33594 797.33356
821.0 0.001218 797.36554 797.36334
799.0 0.001252 797.39557 797.39355
806.0 0.001241 797.42633 797.42383
797.0 0.001255 797.45715 797.45496
789.0 0.001267 797.48846 797.48615
797.0 0.001255 797.52032 797.51801
819.0 0.001221 797.55231 797.55023
834.0 0.001199 797.58484 797.58282
824.0 0.001214 797.61768 797.61548
817.0 0.001224 797.65088 797.64874
771.0 0.001297 797.68408 797.68219
753.0 0.001328 797.71777 797.71576
791.0 0.001264 797.75159 797.74963
811.0 0.001233 797.78571 797.78357
840.0 0.001190 797.81982 797.81763
808.0 0.001238 797.85437 797.85223
817.0 0.001224 797.88873 797.88678
835.0 0.001198 797.92352 797.92157
810.0 0.001235 797.95819 797.95636
784.0 0.001276 797.99310 797.99133
812.0 0.001232 798.02795 798.02600
811.0 0.001233 798.06305 798.06122
798.0 0.001253 798.09802 798.09607
783.0 0.001277 798.13306 798.13129
781.0 0.001280 798.16815 798.16638
808.0 0.001238 798.20319 798.20135
842.0 0.001188 798.23822 798.23645
821.0 0.001218 798.27289 798.27124
785.0 0.001274 798.30780 798.30615
796.0 0.001256 798.34271 798.34088
763.0 0.001311 798.37701 798.37561
742.0 0.001348 798.41187 798.41022
784.0 0.001276 798.44623 798.44446
797.0 0.001255 798.48059 798.47894
812.0 0.001232 798.51459 798.51312
816.0 0.001225 798.54846 798.54718
813.0 0.001230 798.58228 798.58087
805.0 0.001242 798.61584 798.61450
768.0 0.001302 798.64923 798.64789
774.0 0.001292 798.68237 798.68103
803.0 0.001245 798.71503 798.71399
803.0 0.001245 798.74811 798.74658
787.0 0.001271 798.78040 798.77917
807.0 0.001239 798.81244 798.81110
801.0 0.001248 798.84436 798.84320
795.0 0.001258 798.87604 798.87463
795.0 0.001258 798.90710 798.90613
777.0 0.001287 798.93823 798.93701
788.0 0.001269 798.96887 798.96783
793.0 0.001261 798.99921 798.99805
766.0 0.001305 799.02893 799.02808
731.0 0.001368 799.05853 799.05756
772.0 0.001295 799.08795 799.08698
782.0 0.001279 799.11664 799.11597
800.0 0.001250 799.14508 799.14429
793.0 0.001261 799.17340 799.17261
785.0 0.001274 799.20129 799.20056
818.0 0.001222 799.22858 799.22784
799.0 0.001252 799.25537 799.25470
785.0 0.001274 799.28204 799.28143
815.0 0.001227 799.30804 799.30762
814.0 0.001229 799.33374 799.33313
814.0 0.001229 799.35883 799.35828
781.0 0.001280 799.38385 799.38324
777.0 0.001287 799.40802 799.40778
756.0 0.001323 799.43207 799.43158
768.0 0.001302 799.45532 799.45514
774.0 0.001292 799.47864 799.47803
768.0 0.001302 799.50092 799.50061
782.0 0.001279 799.52289 799.52277
762.0 0.001312 799.54431 799.54431
723.0 0.001383 799.56555 799.56543
786.0 0.001272 799.58600 799.58606
783.0 0.001277 799.60608 799.60608
829.0 0.001206 799.62579 799.62573
827.0 0.001209 799.64484 799.64490
801.0 0.001248 799.66351 799.66345
811.0 0.001233 799.68121 799.68146
787.0 0.001271 799.69904 799.69946
770.0 0.001299 799.71600 799.71625
802.0 0.001247 799.73248 799.73273
802.0 0.001247 799.74847 799.74878
801.0 0.001248 799.76379 799.76422
812.0 0.001232 799.77875 799.77942
803.0 0.001245 799.79303 799.79358
790.0 0.001266 799.80731 799.80756
811.0 0.001233 799.82056 799.82080
806.0 0.001241 799.83313 799.83374
805.0 0.001242 799.84534 799.84583
793.0 0.001261 799.85706 799.85767
762.0 0.001312 799.86816 799.86884
761.0 0.001314 799.87872 799.87946
794.0 0.001259 799.88873 799.88959
801.0 0.001248 799.89825 799.89905
816.0 0.001225 799.90735 799.90790
791.0 0.001264 799.91559 799.91632
768.0 0.001302 799.92340 799.92444
790.0 0.001266 799.93060 799.93170
785.0 0.001274 799.93719 799.93835
778.0 0.001285 799.94348 799.94452
801.0 0.001248 799.94904 799.95020
788.0 0.001269 799.95410 799.95526
802.0 0.001247 799.95837 799.95978
789.0 0.001267 799.96259 799.96387
789.0 0.001267 799.96582 799.96710
790.0 0.001266 799.96857 799.96997
811.0 0.001233 799.97052 799.97217
811.0 0.001233 799.97266 799.97400
782.0 0.001279 799.97351 799.97516
797.0 0.001255 799.97406 799.97565
796.0 0.001256 799.97418 799.97571
779.0 0.001284 799.97345 799.97540
804.0 0.001244 799.97241 799.97400
808.0 0.001238 799.97070 799.97266
828.0 0.001208 799.96844 799.97021
788.0 0.001269 799.96582 799.96759
784.0 0.001276 799.96228 799.96448
807.0 0.001239 799.95850 799.96033
789.0 0.001267 799.95386 799.95593
792.0 0.001263 799.94891 799.95087
812.0 0.001232 799.94336 799.94556
824.0 0.001214 799.93732 799.93945
833.0 0.001200 799.93066 799.93274
814.0 0.001229 799.92365 799.92578
805.0 0.001242 799.91565 799.91803
794.0 0.001259 799.90753 799.90973
785.0 0.001274 799.89874 799.90106
790.0 0.001266 799.88922 799.89160
805.0 0.001242 799.87939 799.88196
809.0 0.001236 799.86896 799.87140
767.0 0.001304 799.85809 799.86041
749.0 0.001335 799.84656 799.84894
810.0 0.001235 799.83459 799.83704
840.0 0.001190 799.82190 799.82452
816.0 0.001225 799.80872 799.81122
807.0 0.001239 799.79517 799.79791
836.0 0.001196 799.78101 799.78375
841.0 0.001189 799.76642 799.76904
797.0 0.001255 799.75122 799.75403
778.0 0.001285 799.73560 799.73853
792.0 0.001263 799.71936 799.72223
807.0 0.001239 799.70264 799.70563
800.0 0.001250 799.68555 799.68835
801.0 0.001248 799.66785 799.67090
809.0 0.001236 799.64960 799.65277
818.0 0.001222 799.63092 799.63403
833.0 0.001200 799.61169 799.61499
827.0 0.001209 799.59186 799.59534
800.0 0.001250 799.57166 799.57520
793.0 0.001261 799.55139 799.55438
777.0 0.001287 799.53009 799.53333
756.0 0.001323 799.50854 799.51172
818.0 0.001222 799.48645 799.48950
833.0 0.001200 799.46381 799.46729
849.0 0.001178 799.44086 799.44409
824.0 0.001214 799.41724 799.42072
797.0 0.001255 799.39325 799.39667
796.0 0.001256 799.36884 799.37250
782.0 0.001279 799.34393 799.34741
789.0 0.001267 799.31873 799.32227
822.0 0.001217 799.29279 799.29633
806.0 0.001241 799.26660 799.27026
785.0 0.001274 799.23993 799.24353
762.0 0.001312 799.21277 799.21643
750.0 0.001333 799.18536 799.18884
794.0 0.001259 799.15710 799.16089
808.0 0.001238 799.12866 799.13257
824.0 0.001214 799.10004 799.10358
797.0 0.001255 799.07074 799.07440
820.0 0.001220 799.04095 799.04468
795.0 0.001258 799.01074 799.01459
768.0 0.001302 798.98022 798.98407
787.0 0.001271 798.94922 798.95325
786.0 0.001272 798.91779 798.92175
805.0 0.001242 798.88611 798.89008
831.0 0.001203 798.85400 798.85785
786.0 0.001272 798.82147 798.82544
779.0 0.001284 798.78839 798.79266
760.0 0.001316 798.75519 798.75940
762.0 0.001312 798.72137 798.72546
795.0 0.001258 798.68732 798.69128
809.0 0.001236 798.65295 798.65692
815.0 0.001227 798.61804 798.62207
803.0 0.001245 798.58264 798.58698
806.0 0.001241 798.54712 798.55127
792.0 0.001263 798.51129 798.51532
787.0 0.001271 798.47479 798.47913
804.0 0.001244 798.43811 798.44238
839.0 0.001192 798.40112 798.40540
836.0 0.001196 798.36365 798.36792
781.0 0.001280 798.32617 798.33020
765.0 0.001307 798.28809 798.29218
809.0 0.001236 798.24933 798.25385
798.0 0.001253 798.21088 798.21490
813.0 0.001230 798.17169 798.17584
814.0 0.001229 798.13232 798.13660
812.0 0.001232 798.09247 798.09674
803.0 0.001245 798.05237 798.05670
785.0 0.001274 798.01221 798.01624
758.0 0.001319 797.97131 797.97552
788.0 0.001269 797.93036 797.93475
789.0 0.001267 797.88922 797.89349
802.0 0.001247 797.84747 797.85193
817.0 0.001224 797.80579 797.80988
772.0 0.001295 797.76343 797.76788
796.0 0.001256 797.72107 797.72522
810.0 0.001235 797.67810 797.68262
804.0 0.001244 797.63538 797.63947
806.0 0.001241 797.59186 797.59631
806.0 0.001241 797.54822 797.55261
768.0 0.001302 797.50446 797.50848
753.0 0.001328 797.46039 797.46454
816.0 0.001225 797.41559 797.42004
797.0 0.001255 797.37109 797.37555
806.0 0.001241 797.32611 797.33044
805.0 0.001242 797.28101 797.28534
776.0 0.001289 797.23547 797.23981
780.0 0.001282 797.18964 797.19409
782.0 0.001279 797.14380 797.14825
796.0 0.001256 797.09760 797.10193
808.0 0.001238 797.05133 797.05536
790.0 0.001266 797.00446 797.00879
802.0 0.001247 796.95752 796.96191
794.0 0.001259 796.91040 796.91486
795.0 0.001258 796.86316 796.86749
782.0 0.001279 796.81567 796.81989
787.0 0.001271 796.76807 796.77216
836.0 0.001196 796.71991 796.72418
839.0 0.001192 796.67169 796.67596
849.0 0.001178 796.62323 796.62756
790.0 0.001266 796.57458 796.57874
754.0 0.001326 796.52582 796.52997
777.0 0.001287 796.47675 796.48108
779.0 0.001284 796.42767 796.43182
797.0 0.001255 796.37823 796.38239
783.0 0.001277 796.32867 796.33276
784.0 0.001276 796.27905 796.28308
798.0 0.001253 796.22888 796.23322
787.0 0.001271 796.17889 796.18292
788.0 0.001269 796.12854 796.13263
819.0 0.001221 796.07831 796.08228
816.0 0.001225 796.02734 796.03143
814.0 0.001229 795.97675 795.98083
811.0 0.001233 795.92560 795.92963
794.0 0.001259 795.87457 795.87854
819.0 0.001221 795.82330 795.82739
843.0 0.001186 795.77185 795.77588
840.0 0.001190 795.72046 795.72430
791.0 0.001264 795.66858 795.67242
796.0 0.001256 795.61670 795.62054
771.0 0.001297 795.56451 795.56854
760.0 0.001316 795.51251 795.51636
814.0 0.001229 795.46021 795.46399
801.0 0.001248 795.40759 795.41168
802.0 0.001247 795.35522 795.35913
817.0 0.001224 795.30273 795.30640
827.0 0.001209 795.24982 795.25360
856.0 0.001168 795.19678 795.20074
832.0 0.001202 795.14392 795.14764
797.0 0.001255 795.09088 795.09448
806.0 0.001241 795.03754 795.04102
813.0 0.001230 794.98444 794.98779
792.0 0.001263 794.93073 794.93427
793.0 0.001261 794.87720 794.88055
787.0 0.001271 794.82330 794.82697
794.0 0.001259 794.76971 794.77325
818.0 0.001222 794.71582 794.71942
817.0 0.001224 794.66193 794.66516
793.0 0.001261 794.60797 794.61108
811.0 0.001233 794.55377 794.55713
805.0 0.001242 794.49951 794.50281
773.0 0.001294 794.44531 794.44843
810.0 0.001235 794.39081 794.39386
841.0 0.001189 794.33636 794.33960
835.0 0.001198 794.28168 794.28491
791.0 0.001264 794.22736 794.23022
775.0 0.001290 794.17249 794.17566
784.0 0.001276 794.11780 794.12079
773.0 0.001294 794.06311 794.06610
750.0 0.001333 794.00824 794.01105
799.0 0.001252 793.95313 793.95612
801.0 0.001248 793.89832 793.90094
823.0 0.001215 793.84308 793.84613
802.0 0.001247 793.78815 793.79083
815.0 0.001227 793.73303 793.73553
812.0 0.001232 793.67780 793.68048
816.0 0.001225 793.62262 793.62512
809.0 0.001236 793.56720 793.56976
797.0 0.001255 793.51196 793.51459
829.0 0.001206 793.45654 793.45905
800.0 0.001250 793.40125 793.40375
771.0 0.001297 793.34570 793.34821
794.0 0.001259 793.29022 793.29254
785.0 0.001274 793.23474 793.23700
814.0 0.001229 793.17914 793.18146
799.0 0.001252 793.12360 793.12598
766.0 0.001305 793.06799 793.07013
787.0 0.001271 793.01233 793.01465
773.0 0.001294 792.95685 792.95880
789.0 0.001267 792.90118 792.90326
820.0 0.001220 792.84546 792.84753
795.0 0.001258 792.78979 792.79181
821.0 0.001218 792.73401 792.73584
807.0 0.001239 792.67828 792.68005
792.0 0.001263 792.62286 792.62457
767.0 0.001304 792.56677 792.56842
779.0 0.001284 792.51117 792.51270
785.0 0.001274 792.45557 792.45685
794.0 0.001259 792.39960 792.40106
784.0 0.001276 792.34381 792.34515
770.0 0.001299 792.28796 792.28943
788.0 0.001269 792.23230 792.23364
811.0 0.001233 792.17670 792.17780
818.0 0.001222 792.12073 792.12213
810.0 0.001235 792.06531 792.06628
790.0 0.001266 792.00946 792.01044
807.0 0.001239 791.95367 791.95490
807.0 0.001239 791.89783 791.89893
791.0 0.001264 791.84235 791.84308
786.0 0.001272 791.78668 791.78754
834.0 0.001199 791.73090 791.73181
818.0 0.001222 791.67517 791.67603
785.0 0.001274 791.61969 791.62012
759.0 0.001318 791.56378 791.56470
770.0 0.001299 791.50836 791.50885
818.0 0.001222 791.45288 791.45337
812.0 0.001232 791.39752 791.39752
794.0 0.001259 791.34167 791.34216
797.0 0.001255 791.28601 791.28625
788.0 0.001269 791.23083 791.23059
766.0 0.001305 791.17517 791.17529
754.0 0.001326 791.11969 791.11987
800.0 0.001250 791.06445 791.06439
815.0 0.001227 791.00909 791.00885
801.0 0.001248 790.95367 790.95361
797.0 0.001255 790.89850 790.89813
798.0 0.001253 790.84314 790.84283
802.0 0.001247 790.78802 790.78754
781.0 0.001280 790.73279 790.73248
769.0 0.001300 790.67755 790.67706
796.0 0.001256 790.62238 790.62177
793.0 0.001261 790.56757 790.56671
770.0 0.001299 790.51233 790.51147
755.0 0.001325 790.45721 790.45667
753.0 0.001328 790.40247 790.40167
766.0 0.001305 790.34760 790.34662
794.0 0.001259 790.29260 790.29163
783.0 0.001277 790.23779 790.23676
779.0 0.001284 790.18323 790.18201
807.0 0.001239 790.12842 790.12714
769.0 0.001300 790.07367 790.07227
750.0 0.001333 790.01904 790.01776
810.0 0.001235 789.96448 789.96301
814.0 0.001229 789.90997 789.90839
818.0 0.001222 789.85553 789.85376
795.0 0.001258 789.80115 789.79932
776.0 0.001289 789.74670 789.74506
772.0 0.001295 789.69220 789.69043
751.0 0.001332 789.63818 789.63611
758.0 0.001319 789.58380 789.58173
777.0 0.001287 789.52991 789.52753
789.0 0.001267 789.47571 789.47357
797.0 0.001255 789.42157 789.41943
804.0 0.001244 789.36774 789.36530
795.0 0.001258 789.31372 789.31134
800.0 0.001250 789.25989 789.25751
812.0 0.001232 789.20605 789.20343
814.0 0.001229 789.15222 789.14960
776.0 0.001289 789.09845 789.09583
759.0 0.001318 789.04510 789.04230
756.0 0.001323 788.99146 788.98853
727.0 0.001376 788.93787 788.93488
781.0 0.001280 788.88434 788.88153
783.0 0.001277 788.83124 788.82776
802.0 0.001247 788.77759 788.77441
768.0 0.001302 788.72443 788.72107
788.0 0.001269 788.67126 788.66779
823.0 0.001215 788.61810 788.61487
819.0 0.001221 788.56506 788.56152
778.0 0.001285 788.51202 788.50842
802.0 0.001247 788.45892 788.45544
799.0 0.001252 788.40613 788.40253
781.0 0.001280 788.35333 788.34949
761.0 0.001314 788.30084 788.29681
747.0 0.001339 788.24786 788.24396
760.0 0.001316 788.19513 788.19104
776.0 0.001289 788.14270 788.13843
763.0 0.001311 788.09009 788.08594
782.0 0.001279 788.03790 788.03345
805.0 0.001242 787.98547 787.98096
769.0 0.001300 787.93304 787.92871
758.0 0.001319 787.88098 787.87659
792.0 0.001263 787.82874 787.82410
803.0 0.001245 787.77679 787.77197
813.0 0.001230 787.72467 787.71979
787.0 0.001271 787.67249 787.66766
775.0 0.001290 787.62079 787.61572
791.0 0.001264 787.56897 787.56372
785.0 0.001274 787.51733 787.51190
794.0 0.001259 787.46545 787.46002
821.0 0.001218 787.41388 787.40826
824.0 0.001214 787.36237 787.35693
820.0 0.001220 787.31073 787.30518
782.0 0.001279 787.25940 787.25360
777.0 0.001287 787.20795 787.20227
786.0 0.001272 787.15668 787.15088
818.0 0.001222 787.10547 787.09961
812.0 0.001232 787.05426 787.04840
801.0 0.001248 787.00311 786.99713
796.0 0.001256 786.95197 786.94586
782.0 0.001279 786.90137 786.89496
772.0 0.001295 786.85040 786.84399
802.0 0.001247 786.79938 786.79315
810.0 0.001235 786.74878 786.74213
796.0 0.001256 786.69800 786.69141
775.0 0.001290 786.64734 786.64069
776.0 0.001289 786.59674 786.59003
773.0 0.001294 786.54620 786.53925
785.0 0.001274 786.49597 786.48883
785.0 0.001274 786.44537 786.43842
805.0 0.001242 786.39514 786.38800
803.0 0.001245 786.34503 786.33759
796.0 0.001256 786.29468 786.28748
760.0 0.001316 786.24457 786.23718
767.0 0.001304 786.19464 786.18701
790.0 0.001266 786.14453 786.13678
806.0 0.001241 786.09454 786.08685
796.0 0.001256 786.04480 786.03717
763.0 0.001311 785.99500 785.98718
775.0 0.001290 785.94519 785.93726
751.0 0.001332 785.89551 785.88757
740.0 0.001351 785.84595 785.83783
796.0 0.001256 785.79614 785.78821
795.0 0.001258 785.74689 785.73871
821.0 0.001218 785.69739 785.68915
798.0 0.001253 785.64801 785.63959
764.0 0.001309 785.59875 785.59009
760.0 0.001316 785.54932 785.54089
768.0 0.001302 785.50006 785.49139
767.0 0.001304 785.45117 785.44244
785.0 0.001274 785.40198 785.39301
831.0 0.001203 785.35309 785.34412
828.0 0.001208 785.30396 785.29504
790.0 0.001266 785.25519 785.24597
796.0 0.001256 785.20599 785.19684
807.0 0.001239 785.15747 785.14819
809.0 0.001236 785.10870 785.09949
831.0 0.001203 785.05994 785.05042
809.0 0.001236 785.01135 785.00195
801.0 0.001248 784.96271 784.95300
767.0 0.001304 784.91425 784.90454
740.0 0.001351 784.86572 784.85596
775.0 0.001290 784.81726 784.80719
803.0 0.001245 784.76898 784.75885
786.0 0.001272 784.72052 784.71063
758.0 0.001319 784.67236 784.66217
757.0 0.001321 784.62421 784.61395
790.0 0.001266 784.57605 784.56567
789.0 0.001267 784.52808 784.51733
770.0 0.001299 784.47986 784.46936
795.0 0.001258 784.43188 784.42120
819.0 0.001221 784.38373 784.37292
802.0 0.001247 784.33594 784.32532
800.0 0.001250 784.28796 784.27698
788.0 0.001269 784.24011 784.22906
779.0 0.001284 784.19238 784.18146
807.0 0.001239 784.14459 784.13361
823.0 0.001215 784.09680 784.08575
806.0 0.001241 784.04950 784.03809
784.0 0.001276 784.00171 783.99030
727.0 0.001376 783.95422 783.94257
719.0 0.001391 783.90668 783.89514
771.0 0.001297 783.85907 783.84753
790.0 0.001266 783.81183 783.79993
818.0 0.001222 783.76422 783.75250
812.0 0.001232 783.71692 783.70502
784.0 0.001276 783.66968 783.65771
786.0 0.001272 783.62250 783.61035
767.0 0.001304 783.57501 783.56305
772.0 0.001295 783.52795 783.51575
802.0 0.001247 783.48083 783.46857
785.0 0.001274 783.43372 783.42120
754.0 0.001326 783.38647 783.37408
751.0 0.001332 783.33954 783.32703
780.0 0.001282 783.29254 783.27991
775.0 0.001290 783.24542 783.23285
754.0 0.001326 783.19867 783.18591
754.0 0.001326 783.15173 783.13879
747.0 0.001339 783.10480 783.09186
781.0 0.001280 783.05786 783.04498
747.0 0.001339 783.01093 782.99805
743.0 0.001346 782.96423 782.95117
774.0 0.001292 782.91748 782.90430
783.0 0.001277 782.87085 782.85748
780.0 0.001282 782.82404 782.81073
779.0 0.001284 782.77747 782.76398
736.0 0.001359 782.73071 782.71722
752.0 0.001330 782.68427 782.67053
762.0 0.001312 782.63751 782.62384
776.0 0.001289 782.59100 782.57715
809.0 0.001236 782.54443 782.53064
789.0 0.001267 782.49792 782.48419
777.0 0.001287 782.45148 782.43738
763.0 0.001311 782.40515 782.39087
771.0 0.001297 782.35852 782.34436
792.0 0.001263 782.31219 782.29791
819.0 0.001221 782.26550 782.25140
814.0 0.001229 782.21936 782.20496
788.0 0.001269 782.17291 782.15863
796.0 0.001256 782.12659 782.11224
761.0 0.001314 782.08020 782.06561
708.0 0.001412 782.03406 782.01941
767.0 0.001304 781.98779 781.97278
785.0 0.001274 781.94153 781.92688
782.0 0.001279 781.89508 781.88007
795.0 0.001258 781.84906 781.83398
771.0 0.001297 781.80267 781.78760
772.0 0.001295 781.75659 781.74133
765.0 0.001307 781.71027 781.69525
753.0 0.001328 781.66412 781.64886
775.0 0.001290 781.61792 781.60266
772.0 0.001295 781.57159 781.55627
781.0 0.001280 781.52563 781.51001
789.0 0.001267 781.47937 781.46399
773.0 0.001294 781.43317 781.41772
791.0 0.001264 781.38721 781.37152
779.0 0.001284 781.34131 781.32532
776.0 0.001289 781.29504 781.27917
771.0 0.001297 781.24884 781.23303
785.0 0.001274 781.20282 781.18707
744.0 0.001344 781.15674 781.14050
712.0 0.001404 781.11072 781.09479
763.0 0.001311 781.06464 781.04840
786.0 0.001272 781.01855 781.00244
806.0 0.001241 780.97241 780.95618
802.0 0.001247 780.92639 780.90997
808.0 0.001238 780.88037 780.86389
819.0 0.001221 780.83441 780.81793
802.0 0.001247 780.78821 780.77179
781.0 0.001280 780.74225 780.72559
802.0 0.001247 780.69635 780.67969
806.0 0.001241 780.65015 780.63342
795.0 0.001258 780.60388 780.58728
752.0 0.001330 780.55774 780.54120
762.0 0.001312 780.51190 780.49506
794.0 0.001259 780.46582 780.44885
791.0 0.001264 780.41962 780.40271
790.0 0.001266 780.37354 780.35663
771.0 0.001297 780.32751 780.31049
785.0 0.001274 780.28156 780.26453
780.0 0.001282 780.23547 780.21832
743.0 0.001346 780.18951 780.17212
800.0 0.001250 780.14319 780.12592
807.0 0.001239 780.09723 780.07959
796.0 0.001256 780.05103 780.03375
768.0 0.001302 780.00500 779.98730
749.0 0.001335 779.95868 779.94122
789.0 0.001267 779.91278 779.89490
766.0 0.001305 779.86652 779.84906
777.0 0.001287 779.82031 779.80261
811.0 0.001233 779.77411 779.75635
804.0 0.001244 779.72803 779.71014
797.0 0.001255 779.68182 779.66376
775.0 0.001290 779.63574 779.61780
761.0 0.001314 779.58923 779.57147
775.0 0.001290 779.54303 779.52515
790.0 0.001266 779.49683 779.47882
813.0 0.001230 779.45062 779.43243
799.0 0.001252 779.40424 779.38641
815.0 0.001227 779.35797 779.33990
750.0 0.001333 779.31171 779.29340
731.0 0.001368 779.26544 779.24707
786.0 0.001272 779.21893 779.20074
792.0 0.001263 779.17242 779.15430
791.0 0.001264 779.12616 779.10803
771.0 0.001297 779.07977 779.06134
767.0 0.001304 779.03357 779.01495
789.0 0.001267 778.98694 778.96857
773.0 0.001294 778.94055 778.92200
749.0 0.001335 778.89404 778.87555
767.0 0.001304 778.84753 778.82898
787.0 0.001271 778.80103 778.78217
805.0 0.001242 778.75458 778.73553
819.0 0.001221 778.70776 778.68915
802.0 0.001247 778.66132 778.64240
781.0 0.001280 778.61475 778.59589
780.0 0.001282 778.56799 778.54950
773.0 0.001294 778.52142 778.50238
777.0 0.001287 778.47461 778.45563
794.0 0.001259 778.42792 778.40900
768.0 0.001302 778.38141 778.36230
735.0 0.001361 778.33447 778.31543
771.0 0.001297 778.28766 778.26874
770.0 0.001299 778.24078 778.22180
809.0 0.001236 778.19415 778.17493
799.0 0.001252 778.14728 778.12817
784.0 0.001276 778.10034 778.08099
772.0 0.001295 778.05341 778.03412
776.0 0.001289 778.00665 777.98718
772.0 0.001295 777.95966 777.94025
806.0 0.001241 777.91260 777.89307
834.0 0.001199 777.86554 777.84619
801.0 0.001248 777.81848 777.79889
764.0 0.001309 777.77118 777.75171
770.0 0.001299 777.72406 777.70465
778.0 0.001285 777.67700 777.65759
780.0 0.001282 777.62976 777.61029
779.0 0.001284 777.58252 777.56293
778.0 0.001285 777.53540 777.51575
812.0 0.001232 777.48798 777.46838
780.0 0.001282 777.44086 777.42102
757.0 0.001321 777.39362 777.37372
779.0 0.001284 777.34601 777.32642
779.0 0.001284 777.29865 777.27893
779.0 0.001284 777.25104 777.23145
773.0 0.001294 777.20374 777.18390
765.0 0.001307 777.15619 777.13654
785.0 0.001274 777.10852 777.08881
775.0 0.001290 777.06104 777.04132
759.0 0.001318 777.01337 776.99359
783.0 0.001277 776.96576 776.94586
759.0 0.001318 776.91803 776.89838
766.0 0.001305 776.87048 776.85059
779.0 0.001284 776.82263 776.80249
774.0 0.001292 776.77484 776.75476
793.0 0.001261 776.72705 776.70697
807.0 0.001239 776.67920 776.65924
780.0 0.001282 776.63129 776.61139
754.0 0.001326 776.58350 791.92041
760.0 0.001316 776.53564 792.05267
772.0 0.001295 776.48743 792.18854
753.0 0.001328 776.43951 792.32709
802.0 0.001247 776.39136 792.46930
818.0 0.001222 776.34308 792.61462
812.0 0.001232 776.29498 792.76355
790.0 0.001266 776.24689 792.91650
792.0 0.001263 776.19867 793.07251
793.0 0.001261 776.15027 793.23273
773.0 0.001294 776.10181 793.39673
767.0 0.001304 776.05377 793.56439
801.0 0.001248 776.00513 793.73633
797.0 0.001255 775.95685 793.91260
784.0 0.001276 775.90826 794.09290
754.0 0.001326 775.85974 794.27765
794.0 0.001259 775.81134 794.46698
811.0 0.001233 775.76270 794.66101
794.0 0.001259 775.71417 794.85968
804.0 0.001244 775.66559 795.06329
810.0 0.001235 775.61670 795.27173
841.0 0.001189 775.56799 795.48553
800.0 0.001250 775.51917 795.70459
791.0 0.001264 775.47052 795.92871
838.0 0.001193 775.42169 796.15912
827.0 0.001209 775.37274 796.39484
820.0 0.001220 775.32379 796.63654
804.0 0.001244 775.27490 796.88428
801.0 0.001248 775.22583 797.13837
822.0 0.001217 775.17688 797.39868
801.0 0.001248 775.12762 797.66583
808.0 0.001238 775.07843 797.93976
832.0 0.001202 775.02948 798.22058
813.0 0.001230 774.97992 798.50879
806.0 0.001241 774.93103 798.80426
791.0 0.001264 774.88159 799.10742
800.0 0.001250 774.83228 799.41852
797.0 0.001255 774.78284 799.73816
799.0 0.001252 774.73340 800.06549
792.0 0.001263 774.68408 800.40192
794.0 0.001259 774.63446 800.74689
801.0 0.001248 774.58490 801.10150
769.0 0.001300 774.53552 801.46515
743.0 0.001346 774.48584 801.83917
809.0 0.001236 774.43622 802.22290
817.0 0.001224 774.38641 802.61719
833.0 0.001200 774.33673 803.02228
833.0 0.001200 774.28711 803.43872
818.0 0.001222 774.23712 803.86658
860.0 0.001163 774.18732 804.30609
866.0 0.001155 774.13745 804.75830
834.0 0.001199 774.08771 805.22308
843.0 0.001186 774.03748 805.70087
848.0 0.001179 773.98761 806.19275
818.0 0.001222 773.93750 806.69849
813.0 0.001230 773.88763 807.21893
830.0 0.001205 773.83740 807.75507
844.0 0.001185 773.78705 808.30627
834.0 0.001199 773.73724 808.87421
834.0 0.001199 773.68689 809.45886
829.0 0.001206 773.63647 810.06122
849.0 0.001178 773.58649 810.68170
829.0 0.001206 773.53607 811.32141
800.0 0.001250 773.48547 811.98071
850.0 0.001176 773.43518 812.66064
887.0 0.001127 773.38470 813.36188
887.0 0.001127 773.33429 814.08527
846.0 0.001182 773.28369 814.83173
845.0 0.001183 773.23297 815.60260
869.0 0.001151 773.18256 816.39844
863.0 0.001159 773.13184 817.22101
834.0 0.001199 773.08124 818.07104
849.0 0.001178 773.03052 818.94971
860.0 0.001163 772.97986 819.85895
839.0 0.001192 772.92914 820.79987
848.0 0.001179 772.87811 821.77399
867.0 0.001153 772.82745 822.78339
863.0 0.001159 772.77631 823.83008
869.0 0.001151 772.72559 824.91595
858.0 0.001166 772.67468 826.04303
849.0 0.001178 772.62366 827.21411
854.0 0.001171 772.57257 828.43201
823.0 0.001215 772.52167 829.69977
821.0 0.001218 772.47064 831.02032
872.0 0.001147 772.41931 832.39752
886.0 0.001129 772.36841 833.83527
915.0 0.001093 772.31708 835.33807
928.0 0.001078 772.26605 836.91107
896.0 0.001116 772.21454 838.55902
918.0 0.001089 772.16327 840.28802
928.0 0.001078 772.11212 842.10468
913.0 0.001095 772.06073 844.01593
983.0 0.001017 772.00952 846.02936
977.0 0.001024 771.95813 848.15381
977.0 0.001024 771.90662 850.39795
935.0 0.001070 771.85504 852.77209
931.0 0.001074 771.80371 855.28687
926.0 0.001080 771.75220 857.95416
961.0 0.001041 771.70068 860.78638
976.0 0.001025 771.64905 863.79730
980.0 0.001020 771.59753 867.00122
968.0 0.001033 771.54596 870.41382
975.0 0.001026 771.49432 874.05121
963.0 0.001038 771.44263 877.93048
1035.0 0.000966 771.39087 882.07098
1012.0 0.000988 771.33923 886.49091
1034.0 0.000967 771.28766 891.21106
1062.0 0.000942 771.23566 896.25220
1017.0 0.000983 771.18396 901.63678
1020.0 0.000980 771.13208 907.38666
1043.0 0.000959 771.08026 913.52625
1035.0 0.000966 771.02838 920.07941
1067.0 0.000937 770.97638 927.07037
1091.0 0.000917 770.92456 934.52582
1071.0 0.000934 770.87274 942.47052
1058.0 0.000945 770.82074 950.93127
1076.0 0.000929 770.76868 959.93420
1067.0 0.000937 770.71667 969.50598
1098.0 0.000911 770.66461 979.67273
1090.0 0.000917 770.61255 990.46069
1077.0 0.000929 770.56061 1001.89478
1088.0 0.000919 770.50842 1013.99939
1085.0 0.000922 770.45642 1026.79700
1066.0 0.000938 770.40430 1040.30811
1134.0 0.000882 770.35229 1054.55017
1174.0 0.000852 770.30011 1069.53760
1180.0 0.000847 770.24774 1085.28015
1169.0 0.000855 770.19580 1101.78247
1161.0 0.000861 770.14337 1119.04370
1145.0 0.000873 770.09125 1137.05627
1151.0 0.000869 770.03900 1155.80640
1151.0 0.000869 769.98706 1175.27344
1219.0 0.000820 769.93463 1195.43164
1245.0 0.000803 769.88226 1216.24988
1266.0 0.000790 769.83002 1237.69604
1305.0 0.000766 769.77765 1259.73779
1286.0 0.000778 769.72540 1282.34680
1293.0 0.000773 769.67328 1305.50293
1339.0 0.000747 769.62079 1329.19568
1359.0 0.000736 769.56836 1353.42883
1349.0 0.000741 769.51617 1378.22070
1397.0 0.000716 769.46387 1403.60339
1323.0 0.000756 769.41144 1429.62354
1317.0 0.000759 769.35901 1456.33508
1370.0 0.000730 769.30676 1483.79785
1384.0 0.000723 769.25427 1512.06958
1405.0 0.000712 769.20203 1541.19861
1414.0 0.000707 769.14948 1571.22046
1414.0 0.000707 769.09705 1602.14697
1472.0 0.000679 769.04456 1633.96545
1499.0 0.000667 768.99237 1666.62854
1519.0 0.000658 768.93988 1700.05457
1585.0 0.000631 768.88733 1734.12231
1604.0 0.000623 768.83502 1768.67114
1618.0 0.000618 768.78278 1803.50183
1630.0 0.000613 768.73016 1838.38110
1641.0 0.000609 768.67780 1873.04663
1654.0 0.000605 768.62512 1907.21814
1674.0 0.000597 768.57275 1940.60962
1785.0 0.000560 768.52032 1972.94373
1838.0 0.000544 768.46796 2003.96851
1880.0 0.000532 768.41565 2033.47156
1872.0 0.000534 768.36316 2061.29590
1880.0 0.000532 768.31067 2087.34619
1981.0 0.000505 768.25830 2111.59546
2034.0 0.000492 768.20599 2134.08032
2065.0 0.000484 768.15344 2154.89160
2095.0 0.000477 768.10101 2174.16309
2224.0 0.000450 768.04865 2192.04980
2343.0 0.000427 767.99622 2208.71362
2331.0 0.000429 767.94397 2224.30200
2308.0 0.000433 767.89136 2238.93262
2425.0 0.000412 767.83923 2252.68384
2482.0 0.000403 767.78687 2265.58252
2563.0 0.000390 767.73444 2277.60522
2545.0 0.000393 767.68207 2288.67651
2590.0 0.000386 767.62970 2298.67188
2647.0 0.000378 767.57751 2307.42822
2694.0 0.000371 767.52521 2314.74561
2668.0 0.000375 767.47284 2320.39990
2671.0 0.000374 767.42059 2324.14648
2746.0 0.000364 767.36841 2325.72949
2764.0 0.000362 767.31610 2324.88623
2769.0 0.000361 767.26379 2321.35327
2793.0 0.000358 767.21167 2314.87622
2752.0 0.000363 767.15942 2305.21729
2691.0 0.000372 767.10730 2292.16650
2620.0 0.000382 767.05524 2275.55615
2517.0 0.000397 767.00269 2255.27368
2481.0 0.000403 766.95087 2231.27441
2411.0 0.000415 766.89856 2203.59253
2320.0 0.000431 766.84644 2172.34497
2252.0 0.000444 766.79456 2137.73071
2179.0 0.000459 766.74255 2100.02832
2118.0 0.000472 766.69037 2059.57935
2010.0 0.000498 766.63837 2016.77576
1948.0 0.000513 766.58643 1972.04431
1899.0 0.000527 766.53442 1925.82410
1765.0 0.000567 766.48242 1878.55530
1721.0 0.000581 766.43066 1830.66101
1629.0 0.000614 766.37872 1782.53918
1572.0 0.000636 766.32684 1734.55310
1440.0 0.000694 766.27521 1687.02759
1384.0 0.000723 766.22321 1640.24658
1379.0 0.000725 766.17139 1594.45471
1336.0 0.000749 766.11969 1549.85522
1296.0 0.000772 766.06805 1506.61768
1228.0 0.000814 766.01636 1464.87585
1170.0 0.000855 765.96466 1424.73462
1145.0 0.000873 765.91321 1386.27112
1083.0 0.000923 765.86145 1349.53918
1037.0 0.000964 765.81006 1314.57214
1071.0 0.000934 765.75867 1281.38293
1062.0 0.000942 765.70697 1249.97107
1007.0 0.000993 765.65546 1220.32019
968.0 0.001033 765.60413 1192.40210
963.0 0.001038 765.55273 1166.17957
959.0 0.001043 765.50153 1141.60498
941.0 0.001063 765.45020 1118.62463
936.0 0.001068 765.39893 1097.17786
940.0 0.001064 765.34760 1077.19995
894.0 0.001119 765.29651 1058.62195
847.0 0.001181 765.24524 1041.37280
829.0 0.001206 765.19421 1025.37939
879.0 0.001138 765.14313 1010.56836
897.0 0.001115 765.09210 996.86615
873.0 0.001145 765.04150 984.19983
876.0 0.001142 764.99011 972.49835
860.0 0.001163 764.93933 961.69189
854.0 0.001171 764.88855 951.71338
847.0 0.001181 764.83771 942.49927
841.0 0.001189 764.78711 933.98730
852.0 0.001174 764.73633 926.12036
841.0 0.001189 764.68579 918.84363
810.0 0.001235 764.63495 912.10614
808.0 0.001238 764.58466 905.86017
798.0 0.001253 764.53394 900.06232
808.0 0.001238 764.48346 894.67139
848.0 0.001179 764.43317 889.65039
810.0 0.001235 764.38281 884.96588
812.0 0.001232 764.33252 880.58606
831.0 0.001203 764.28241 876.48322
797.0 0.001255 764.23218 872.63177
796.0 0.001256 764.18219 869.00934
835.0 0.001198 764.13208 865.59442
822.0 0.001217 764.08209 862.36957
797.0 0.001255 764.03192 859.31726
808.0 0.001238 763.98212 856.42334
793.0 0.001261 763.93225 853.67426
803.0 0.001245 763.88251 851.05841
783.0 0.001277 763.83264 848.56500
773.0 0.001294 763.78308 846.18500
838.0 0.001193 763.73334 843.90942
847.0 0.001181 763.68384 841.73132
824.0 0.001214 763.63446 839.64331
788.0 0.001269 763.58496 837.64008
799.0 0.001252 763.53564 835.71570
804.0 0.001244 763.48633 833.86523
812.0 0.001232 763.43719 832.08459
790.0 0.001266 763.38812 830.36920
766.0 0.001305 763.33875 828.71582
761.0 0.001314 763.28986 827.12073
746.0 0.001340 763.24103 825.58154
748.0 0.001337 763.19214 824.09460
789.0 0.001267 763.14337 822.65759
798.0 0.001253 763.09454 821.26819
805.0 0.001242 763.04590 819.92426
798.0 0.001253 762.99725 818.62335
789.0 0.001267 762.94861 817.36359
766.0 0.001305 762.90021 816.14331
770.0 0.001299 762.85193 814.96075
769.0 0.001300 762.80365 813.81433
789.0 0.001267 762.75537 812.70215
789.0 0.001267 762.70703 811.62305
805.0 0.001242 762.65930 810.57574
779.0 0.001284 762.61115 809.55914
763.0 0.001311 762.56323 808.57129
787.0 0.001271 762.51532 807.61157
808.0 0.001238 762.46753 806.67896
796.0 0.001256 762.41980 805.77216
781.0 0.001280 762.37238 804.89038
786.0 0.001272 762.32465 804.03241
758.0 0.001319 762.27728 803.19763
761.0 0.001314 762.22980 802.38477
790.0 0.001266 762.18231 801.59351
789.0 0.001267 762.13519 800.82275
781.0 0.001280 762.08807 800.07196
801.0 0.001248 762.04108 799.34003
793.0 0.001261 761.99432 798.62677
788.0 0.001269 761.94733 797.93127
766.0 0.001305 761.90051 797.25281
742.0 0.001348 761.85376 796.59113
790.0 0.001266 761.80707 795.94556
788.0 0.001269 761.76062 795.31531
776.0 0.001289 761.71417 794.70001
763.0 0.001311 761.66791 794.09924
781.0 0.001280 761.62158 793.51233
776.0 0.001289 761.57550 792.93903
804.0 0.001244 761.52948 792.37885
822.0 0.001217 761.48358 791.83136
811.0 0.001233 761.43756 791.29590
799.0 0.001252 761.39172 790.77240
751.0 0.001332 761.34595 790.26056
729.0 0.001372 761.30023 789.75964
769.0 0.001300 761.25476 789.26947
784.0 0.001276 761.20929 788.78992
799.0 0.001252 761.16406 788.32031
794.0 0.001259 761.11884 787.86072
781.0 0.001280 761.07373 787.41058
775.0 0.001290 761.02856 786.96985
765.0 0.001307 760.98370 786.53772
756.0 0.001323 760.93890 786.11462
771.0 0.001297 760.89410 785.70007
795.0 0.001258 760.84949 785.29346
792.0 0.001263 760.80487 784.89490
771.0 0.001297 760.76050 784.50427
770.0 0.001299 760.71631 784.12085
768.0 0.001302 760.67200 783.74487
786.0 0.001272 760.62781 783.37622
773.0 0.001294 760.58380 783.01416
783.0 0.001277 760.53986 782.65906
772.0 0.001295 760.49622 782.31073
751.0 0.001332 760.45239 781.96838
745.0 0.001342 760.40869 781.63239
793.0 0.001261 760.36511 781.30225
805.0 0.001242 760.32190 780.97821
813.0 0.001230 760.27863 780.65985
787.0 0.001271 760.23523 780.34729
771.0 0.001297 760.19220 780.03973
783.0 0.001277 760.14941 779.73792
787.0 0.001271 760.10663 779.44092
784.0 0.001276 760.06372 779.14917
807.0 0.001239 760.02118 778.86206
815.0 0.001227 759.97864 778.58008
798.0 0.001253 759.93610 778.30237
765.0 0.001307 759.89380 778.02960
771.0 0.001297 759.85162 777.76086
790.0 0.001266 759.80963 777.49664
785.0 0.001274 759.76770 777.23706
769.0 0.001300 759.72583 776.98108
756.0 0.001323 759.68420 776.72955
765.0 0.001307 759.64240 776.48175
743.0 0.001346 759.60089 776.23755
726.0 0.001377 759.55975 775.99768
771.0 0.001297 759.51837 775.76080
789.0 0.001267 759.47705 775.52789
786.0 0.001272 759.43597 775.29834
766.0 0.001305 759.39526 775.07251
760.0 0.001316 759.35443 774.84961
774.0 0.001292 759.31378 774.63037
815.0 0.001227 759.27332 774.41431
785.0 0.001274 759.23273 774.20105
792.0 0.001263 759.19238 773.99097
807.0 0.001239 759.15222 773.78387
787.0 0.001271 759.11200 773.57990
755.0 0.001325 759.07227 773.37860
755.0 0.001325 759.03241 773.18018
784.0 0.001276 758.99280 772.98468
789.0 0.001267 758.95313 772.79175
786.0 0.001272 758.91364 772.60144
796.0 0.001256 758.87445 772.41376
818.0 0.001222 758.83508 772.22852
774.0 0.001292 758.79602 758.79785
751.0 0.001332 758.75690 758.75897
801.0 0.001248 758.71814 758.72015
806.0 0.001241 758.67963 758.68170
791.0 0.001264 758.64105 758.64325
792.0 0.001263 758.60260 758.60486
796.0 0.001256 758.56421 758.56659
780.0 0.001282 758.52588 758.52856
774.0 0.001292 758.48804 758.49066
747.0 0.001339 758.45007 758.45282
787.0 0.001271 758.41223 758.41510
798.0 0.001253 758.37451 758.37738
774.0 0.001292 758.33704 758.33984
766.0 0.001305 758.29944 758.30273
756.0 0.001323 758.26227 758.26550
771.0 0.001297 758.22516 758.22827
756.0 0.001323 758.18805 758.19147
751.0 0.001332 758.15125 758.15454
760.0 0.001316 758.11444 758.11804
765.0 0.001307 758.07782 758.08148
748.0 0.001337 758.04120 758.04504
732.0 0.001366 758.00500 758.00885
755.0 0.001325 757.96875 757.97272
749.0 0.001335 757.93256 757.93665
757.0 0.001321 757.89673 757.90063
779.0 0.001284 757.86078 757.86505
770.0 0.001299 757.82532 757.82953
763.0 0.001311 757.78961 757.79401
748.0 0.001337 757.75415 757.75867
728.0 0.001374 757.71893 757.72339
783.0 0.001277 757.68372 757.68835
802.0 0.001247 757.64856 757.65356
752.0 0.001330 757.61389 757.61859
733.0 0.001364 757.57910 757.58392
712.0 0.001404 757.54456 757.54956
728.0 0.001374 757.51007 757.51520
752.0 0.001330 757.47571 757.48090
745.0 0.001342 757.44171 757.44708
743.0 0.001346 757.40765 757.41284
768.0 0.001302 757.37372 757.37909
758.0 0.001319 757.33990 757.34570
723.0 0.001383 757.30621 757.31195
767.0 0.001304 757.27295 757.27856
779.0 0.001284 757.23956 757.24530
790.0 0.001266 757.20630 757.21210
746.0 0.001340 757.17334 757.17932
745.0 0.001342 757.14026 757.14642
772.0 0.001295 757.10748 757.11346
797.0 0.001255 757.07489 757.08105
761.0 0.001314 757.04254 757.04883
776.0 0.001289 757.01025 757.01648
775.0 0.001290 756.97784 756.98431
770.0 0.001299 756.94586 756.95245
759.0 0.001318 756.91382 756.92072
747.0 0.001339 756.88202 756.88898
792.0 0.001263 756.85059 756.85736
803.0 0.001245 756.81897 756.82599
803.0 0.001245 756.78760 756.79462
776.0 0.001289 756.75653 756.76361
781.0 0.001280 756.72552 756.73279
744.0 0.001344 756.69470 756.70172
746.0 0.001340 756.66364 756.67108
768.0 0.001302 756.63300 756.64056
762.0 0.001312 756.60266 756.61023
775.0 0.001290 756.57245 756.57990
745.0 0.001342 756.54218 756.54993
756.0 0.001323 756.51221 756.51996
765.0 0.001307 756.48236 756.49023
758.0 0.001319 756.45258 756.46069
770.0 0.001299 756.42303 756.43103
782.0 0.001279 756.39343 756.40161
801.0 0.001248 756.36432 756.37250
783.0 0.001277 756.33514 760.14587
779.0 0.001284 756.30615 760.16119
756.0 0.001323 756.27722 760.17761
776.0 0.001289 756.24829 760.19507
786.0 0.001272 756.21979 760.21332
814.0 0.001229 756.19141 760.23254
782.0 0.001279 756.16321 760.25275
777.0 0.001287 756.13495 760.27399
756.0 0.001323 756.10730 760.29633
731.0 0.001368 756.07947 760.31970
765.0 0.001307 756.05176 760.34442
781.0 0.001280 756.02411 760.36981
806.0 0.001241 755.99670 760.39697
769.0 0.001300 755.96942 760.42499
763.0 0.001311 755.94238 760.45392
790.0 0.001266 755.91547 760.48425
782.0 0.001279 755.88873 760.51593
764.0 0.001309 755.86212 760.54901
804.0 0.001244 755.83563 760.58319
797.0 0.001255 755.80914 760.61877
790.0 0.001266 755.78308 760.65564
803.0 0.001245 755.75714 760.69409
787.0 0.001271 755.73120 760.73389
804.0 0.001244 755.70544 760.77521
823.0 0.001215 755.67981 760.81824
806.0 0.001241 755.65454 760.86243
797.0 0.001255 755.62915 760.90851
783.0 0.001277 755.60382 760.95593
764.0 0.001309 755.57898 761.00507
746.0 0.001340 755.55420 761.05615
787.0 0.001271 755.52942 761.10870
814.0 0.001229 755.50494 761.16345
807.0 0.001239 755.48029 761.21985
788.0 0.001269 755.45624 761.27789
786.0 0.001272 755.43219 761.33807
805.0 0.001242 755.40814 761.40051
766.0 0.001305 755.38452 761.46460
754.0 0.001326 755.36078 761.53119
783.0 0.001277 755.33734 761.59967
790.0 0.001266 755.31409 761.67072
826.0 0.001211 755.29053 761.74353
794.0 0.001259 755.26764 761.81921
775.0 0.001290 755.24475 761.89697
786.0 0.001272 755.22198 761.97742
784.0 0.001276 755.19958 762.06067
773.0 0.001294 755.17712 762.14618
760.0 0.001316 755.15479 762.23462
792.0 0.001263 755.13263 762.32599
765.0 0.001307 755.11060 762.42029
732.0 0.001366 755.08875 762.51746
784.0 0.001276 755.06696 762.61786
819.0 0.001221 755.04547 762.72125
813.0 0.001230 755.02405 762.82806
784.0 0.001276 755.00287 762.93829
762.0 0.001312 754.98175 763.05206
775.0 0.001290 754.96094 763.16968
779.0 0.001284 754.93994 763.29083
790.0 0.001266 754.91931 763.41602
837.0 0.001195 754.89886 763.54498
871.0 0.001148 754.87854 763.67834
842.0 0.001188 754.85828 763.81610
799.0 0.001252 754.83826 763.95813
782.0 0.001279 754.81848 764.10510
757.0 0.001321 754.79865 764.25671
795.0 0.001258 754.77887 764.41315
800.0 0.001250 754.75964 764.57489
805.0 0.001242 754.74017 764.74188
818.0 0.001222 754.72113 764.91461
796.0 0.001256 754.70215 765.09326
757.0 0.001321 754.68317 765.27765
810.0 0.001235 754.66443 765.46844
814.0 0.001229 754.64587 765.66565
815.0 0.001227 754.62738 765.86969
781.0 0.001280 754.60931 766.08051
778.0 0.001285 754.59106 766.29907
777.0 0.001287 754.57300 766.52521
780.0 0.001282 754.55511 766.75922
757.0 0.001321 754.53754 767.00146
797.0 0.001255 754.52008 767.25238
813.0 0.001230 754.50238 767.51270
795.0 0.001258 754.48535 767.78241
782.0 0.001279 754.46832 768.06207
797.0 0.001255 754.45111 768.35217
788.0 0.001269 754.43445 768.65344
775.0 0.001290 754.41760 768.96594
781.0 0.001280 754.40137 769.29089
777.0 0.001287 754.38483 769.62866
780.0 0.001282 754.36859 769.97980
748.0 0.001337 754.35254 770.34546
734.0 0.001362 754.33661 770.72620
785.0 0.001274 754.32086 771.12323
790.0 0.001266 754.30499 771.53729
779.0 0.001284 754.28949 771.96967
787.0 0.001271 754.27393 772.42145
784.0 0.001276 754.25891 772.89471
813.0 0.001230 754.24390 773.39001
791.0 0.001264 754.22888 773.90924
766.0 0.001305 754.21405 774.45483
805.0 0.001242 754.19940 775.02856
817.0 0.001224 754.18488 775.63251
824.0 0.001214 754.17059 776.26910
814.0 0.001229 754.15619 776.94147
844.0 0.001185 754.14221 777.65247
829.0 0.001206 754.12805 778.40521
814.0 0.001229 754.11444 779.20386
794.0 0.001259 754.10077 780.05176
781.0 0.001280 754.08728 780.95374
803.0 0.001245 754.07385 781.91431
796.0 0.001256 754.06042 782.93805
794.0 0.001259 754.04749 784.03107
825.0 0.001212 754.03442 785.19897
844.0 0.001185 754.02167 786.44800
868.0 0.001152 754.00897 787.78510
855.0 0.001170 753.99646 789.21674
820.0 0.001220 753.98370 790.75098
871.0 0.001148 753.97156 792.39575
837.0 0.001195 753.95941 794.15863
825.0 0.001212 753.94733 796.04968
850.0 0.001176 753.93542 798.07660
851.0 0.001175 753.92389 800.24969
850.0 0.001176 753.91229 802.57861
826.0 0.001211 753.90057 805.07349
836.0 0.001196 753.88940 807.74445
839.0 0.001192 753.87811 810.60223
844.0 0.001185 753.86707 813.65753
829.0 0.001206 753.85626 816.92114
833.0 0.001200 753.84521 820.40326
855.0 0.001170 753.83459 824.11438
848.0 0.001179 753.82410 828.06433
826.0 0.001211 753.81366 832.26239
864.0 0.001157 753.80353 836.71613
876.0 0.001142 753.79340 841.43250
884.0 0.001131 753.78339 846.41626
866.0 0.001155 753.77350 851.66998
867.0 0.001153 753.76379 857.19434
887.0 0.001127 753.75415 862.98602
867.0 0.001153 753.74451 869.03992
877.0 0.001140 753.73499 875.34772
911.0 0.001098 753.72589 881.89886
936.0 0.001068 753.71680 888.68060
964.0 0.001037 753.70782 895.68054
968.0 0.001033 753.69910 902.88647
939.0 0.001065 753.69025 910.28931
925.0 0.001081 753.68164 917.88312
912.0 0.001096 753.67328 925.66870
918.0 0.001089 753.66492 933.65161
921.0 0.001086 753.65668 941.84381
931.0 0.001074 753.64856 950.26172
916.0 0.001092 753.64063 958.92480
905.0 0.001105 753.63269 967.85205
935.0 0.001070 753.62494 977.05994
942.0 0.001062 753.61749 986.55872
951.0 0.001052 753.60986 996.34930
961.0 0.001041 753.60272 1006.42004
967.0 0.001034 753.59528 1016.74377
993.0 0.001007 753.58807 1027.27881
994.0 0.001006 753.58118 1037.96533
972.0 0.001029 753.57440 1048.72668
1011.0 0.000989 753.56769 1059.47266
1013.0 0.000987 753.56097 1070.10156
988.0 0.001012 753.55444 1080.50635
1008.0 0.000992 753.54816 1090.58032
1008.0 0.000992 753.54187 1100.22461
1043.0 0.000959 753.53558 1109.35559
1072.0 0.000933 753.52954 1117.91174
1080.0 0.000926 753.52368 1125.85620
1077.0 0.000929 753.51794 1133.18030
1065.0 0.000939 753.51221 1139.89966
1062.0 0.000942 753.50677 1146.05090
1045.0 0.000957 753.50079 1151.68323
1078.0 0.000928 753.49573 1156.85059
1102.0 0.000907 753.49048 1161.60413
1101.0 0.000908 753.48523 1165.98242
1144.0 0.000874 753.48041 1170.00818
1128.0 0.000887 753.47528 1173.68372
1136.0 0.000880 753.47083 1176.98901
1157.0 0.000864 753.46600 1179.88464
1188.0 0.000842 753.46149 1182.31140
1199.0 0.000834 753.45709 1184.19604
1193.0 0.000838 753.45264 1185.45300
1166.0 0.000858 753.44849 1185.98828
1133.0 0.000883 753.44434 1185.70435
1154.0 0.000867 753.44025 1184.50244
1180.0 0.000847 753.43646 1182.28735
1183.0 0.000845 753.43262 1178.97229
1181.0 0.000847 753.42883 1174.48462
1162.0 0.000861 753.42517 1168.77185
1172.0 0.000853 753.42175 1161.80762
1154.0 0.000867 753.41833 1153.59705
1096.0 0.000912 753.41498 1144.17944
1067.0 0.000937 753.41193 1133.62915
1058.0 0.000945 753.40887 1122.05164
1068.0 0.000936 753.40594 1109.57922
1053.0 0.000950 753.40295 1096.36401
1013.0 0.000987 753.40027 1082.56897
987.0 0.001013 753.39758 1068.36023
953.0 0.001049 753.39490 1053.90088
951.0 0.001052 753.39276 1039.34229
970.0 0.001031 753.39001 1024.82324
958.0 0.001044 753.38776 1010.46594
944.0 0.001059 753.38568 996.37512
901.0 0.001110 753.38330 982.63782
883.0 0.001133 753.38153 969.32507
899.0 0.001112 753.37964 956.49237
884.0 0.001131 753.37787 944.18170
877.0 0.001140 753.37604 932.42328
873.0 0.001145 753.37445 921.23749
858.0 0.001166 753.37305 910.63470
822.0 0.001217 753.37158 900.61926
826.0 0.001211 753.37030 891.18799
844.0 0.001185 753.36896 882.33344
818.0 0.001222 753.36792 874.04279
829.0 0.001206 753.36670 866.30023
840.0 0.001190 753.36591 859.08691
834.0 0.001199 753.36481 852.38165
848.0 0.001179 753.36407 846.16144
819.0 0.001221 753.36328 840.40155
799.0 0.001252 753.36267 835.07709
821.0 0.001218 753.36230 830.16187
819.0 0.001221 753.36169 825.63031
827.0 0.001209 753.36157 821.45642
809.0 0.001236 753.36108 817.61475
807.0 0.001239 753.36084 814.08038
818.0 0.001222 753.36078 810.82971
825.0 0.001212 753.36078 807.83966
804.0 0.001244 753.36096 805.08862
788.0 0.001269 753.36115 802.55560
797.0 0.001255 753.36115 800.22198
775.0 0.001290 753.36151 798.06909
770.0 0.001299 753.36176 796.08044
835.0 0.001198 753.36224 794.24084
809.0 0.001236 753.36261 792.53613
799.0 0.001252 753.36334 790.95325
780.0 0.001282 753.36395 789.48083
752.0 0.001330 753.36493 788.10809
762.0 0.001312 753.36560 786.82568
768.0 0.001302 753.36652 785.62500
785.0 0.001274 753.36755 784.49823
819.0 0.001221 753.36847 783.43872
829.0 0.001206 753.36957 782.44049
827.0 0.001209 753.37091 781.49792
785.0 0.001274 753.37219 780.60645
786.0 0.001272 753.37347 779.76154
803.0 0.001245 753.37482 778.95959
792.0 0.001263 753.37628 778.19690
795.0 0.001258 753.37756 777.47070
786.0 0.001272 753.37952 776.77832
809.0 0.001236 753.38116 776.11749
768.0 0.001302 753.38300 775.48572
758.0 0.001319 753.38464 774.88123
792.0 0.001263 753.38654 774.30243
783.0 0.001277 753.38849 773.74731
780.0 0.001282 753.39063 773.21503
779.0 0.001284 753.39264 772.70410
754.0 0.001326 753.39465 772.21283
771.0 0.001297 753.39685 771.74060
767.0 0.001304 753.39917 771.28638
757.0 0.001321 753.40149 770.84918
807.0 0.001239 753.40381 770.42810
819.0 0.001221 753.40613 770.02264
809.0 0.001236 753.40881 769.63135
824.0 0.001214 753.41132 769.25446
808.0 0.001238 753.41370 768.89044
802.0 0.001247 753.41626 768.53912
793.0 0.001261 753.41901 768.20007
778.0 0.001285 753.42181 767.87250
768.0 0.001302 753.42444 767.55597
763.0 0.001311 753.42743 767.24982
763.0 0.001311 753.43024 766.95355
752.0 0.001330 753.43335 766.66736
780.0 0.001282 753.43640 766.39032
801.0 0.001248 753.43921 766.12183
797.0 0.001255 753.44232 765.86230
802.0 0.001247 753.44556 765.61078
810.0 0.001235 753.44897 765.36694
822.0 0.001217 753.45209 765.13068
791.0 0.001264 753.45532 764.90149
796.0 0.001256 753.45850 764.67926
800.0 0.001250 753.46228 764.46399
828.0 0.001208 753.46558 764.25452
791.0 0.001264 753.46899 764.05170
774.0 0.001292 753.47247 763.85461
771.0 0.001297 753.47607 763.66351
776.0 0.001289 753.47968 763.47748
773.0 0.001294 753.48328 763.29712
807.0 0.001239 753.48700 763.12128
777.0 0.001287 753.49078 762.95081
779.0 0.001284 753.49432 762.78534
753.0 0.001328 753.49823 762.62390
732.0 0.001366 753.50201 762.46680
765.0 0.001307 753.50598 762.31433
789.0 0.001267 753.50977 762.16608
790.0 0.001266 753.51379 762.02142
787.0 0.001271 753.51776 761.88062
805.0 0.001242 753.52161 761.74359
817.0 0.001224 753.52576 761.61017
784.0 0.001276 753.52972 761.48035
778.0 0.001285 753.53375 761.35358
798.0 0.001253 753.53772 761.23029
811.0 0.001233 753.54199 761.10999
803.0 0.001245 753.54633 760.99280
767.0 0.001304 753.55035 760.87842
753.0 0.001328 753.55463 760.76685
767.0 0.001304 753.55884 760.65814
806.0 0.001241 753.56305 760.55206
798.0 0.001253 753.56732 760.44873
784.0 0.001276 753.57172 760.34784
778.0 0.001285 753.57623 760.24915
768.0 0.001302 753.58038 760.15320
739.0 0.001353 753.58459 760.05933
802.0 0.001247 753.58929 759.96765
804.0 0.001244 753.59351 759.87823
797.0 0.001255 753.59802 759.79071
791.0 0.001264 753.60242 759.70532
786.0 0.001272 753.60693 759.62183
819.0 0.001221 753.61139 759.54022
799.0 0.001252 753.61597 759.46063
769.0 0.001300 753.62042 759.38257
786.0 0.001272 753.62482 759.30640
787.0 0.001271 753.62958 759.23224
784.0 0.001276 753.63409 759.15936
787.0 0.001271 753.63867 759.08838
789.0 0.001267 753.64313 759.01843
791.0 0.001264 753.64807 758.95044
802.0 0.001247 753.65253 758.88385
806.0 0.001241 753.65692 758.81860
792.0 0.001263 753.66156 758.75500
781.0 0.001280 753.66632 758.69244
759.0 0.001318 753.67090 758.63147
742.0 0.001348 753.67554 758.57166
785.0 0.001274 753.68011 758.51312
798.0 0.001253 753.68463 758.45593
795.0 0.001258 753.68945 758.39978
780.0 0.001282 753.69409 758.34485
783.0 0.001277 753.69873 758.29083
790.0 0.001266 753.70343 758.23822
779.0 0.001284 753.70801 758.18658
770.0 0.001299 753.71271 758.13586
820.0 0.001220 753.71735 758.08643
815.0 0.001227 753.72205 758.03760
775.0 0.001290 753.72662 757.99005
778.0 0.001285 753.73126 757.94324
778.0 0.001285 753.73596 757.89764
789.0 0.001267 753.74060 757.85272
795.0 0.001258 753.74518 757.80884
787.0 0.001271 753.74994 757.76563
776.0 0.001289 753.75427 757.72321
789.0 0.001267 753.75897 757.68176
750.0 0.001333 753.76349 757.64093
713.0 0.001403 753.76813 757.60120
763.0 0.001311 753.77277 757.56189
771.0 0.001297 753.77710 757.52350
783.0 0.001277 753.78180 757.48590
768.0 0.001302 753.78595 757.44873
758.0 0.001319 753.79071 757.41241
770.0 0.001299 753.79510 757.37683
767.0 0.001304 753.79974 757.34161
771.0 0.001297 753.80396 757.30719
803.0 0.001245 753.80872 757.27368
785.0 0.001274 753.81305 757.24042
774.0 0.001292 753.81757 757.20782
763.0 0.001311 753.82178 753.83789
781.0 0.001280 753.82629 753.84241
787.0 0.001271 753.83044 753.84692
785.0 0.001274 753.83490 753.85095
781.0 0.001280 753.83917 753.85535
791.0 0.001264 753.84351 753.85944
778.0 0.001285 753.84778 753.86377
788.0 0.001269 753.85205 753.86780
766.0 0.001305 753.85632 753.87219
821.0 0.001218 753.86035 753.87616
808.0 0.001238 753.86438 753.88031
776.0 0.001289 753.86884 753.88446
772.0 0.001295 753.87292 753.88843
764.0 0.001309 753.87665 753.89258
774.0 0.001292 753.88086 753.89661
767.0 0.001304 753.88483 753.90057
767.0 0.001304 753.88885 753.90460
798.0 0.001253 753.89264 753.90839
780.0 0.001282 753.89667 753.91235
779.0 0.001284 753.90045 753.91589
768.0 0.001302 753.90430 753.91998
796.0 0.001256 753.90820 753.92352
828.0 0.001208 753.91187 753.92731
829.0 0.001206 753.91571 753.93091
817.0 0.001224 753.91931 753.93463
805.0 0.001242 753.92303 753.93848
820.0 0.001220 753.92657 753.94183
752.0 0.001330 753.93005 753.94525
742.0 0.001348 753.93372 753.94891
782.0 0.001279 753.93726 753.95245
775.0 0.001290 753.94080 753.95569
781.0 0.001280 753.94409 753.95917
789.0 0.001267 753.94751 753.96234
762.0 0.001312 753.95068 753.96570
771.0 0.001297 753.95410 753.96899
741.0 0.001350 753.95728 753.97211
738.0 0.001355 753.96063 753.97522
774.0 0.001292 753.96381 753.97815
777.0 0.001287 753.96674 753.98132
771.0 0.001297 753.96979 753.98444
741.0 0.001350 753.97284 753.98718
750.0 0.001333 753.97571 753.99011
770.0 0.001299 753.97839 753.99304
804.0 0.001244 753.98151 753.99567
792.0 0.001263 753.98413 753.99854
768.0 0.001302 753.98676 754.00092
785.0 0.001274 753.98944 754.00378
761.0 0.001314 753.99219 754.00641
745.0 0.001342 753.99445 754.00903
800.0 0.001250 753.99707 754.01141
800.0 0.001250 753.99976 754.01373
816.0 0.001225 754.00201 754.01605
782.0 0.001279 754.00427 754.01825
765.0 0.001307 754.00659 754.02051
779.0 0.001284 754.00867 754.02264
771.0 0.001297 754.01111 754.02478
770.0 0.001299 754.01306 754.02692
786.0 0.001272 754.01508 754.02893
773.0 0.001294 754.01697 754.03076
760.0 0.001316 754.01886 754.03259
747.0 0.001339 754.02081 754.03442
753.0 0.001328 754.02277 754.03619
769.0 0.001300 754.02423 754.03784
782.0 0.001279 754.02582 754.03943
802.0 0.001247 754.02747 754.04089
777.0 0.001287 754.02905 754.04236
750.0 0.001333 754.03033 754.04382
730.0 0.001370 754.03162 754.04498
730.0 0.001370 754.03296 754.04633
771.0 0.001297 754.03406 754.04773
799.0 0.001252 754.03540 754.04846
775.0 0.001290 754.03638 754.04944
758.0 0.001319 754.03741 754.05060
750.0 0.001333 754.03833 754.05127
767.0 0.001304 754.03918 754.05212
758.0 0.001319 754.03998 754.05304
731.0 0.001368 754.04077 754.05353
746.0 0.001340 754.04144 754.05396
749.0 0.001335 754.04181 754.05469
753.0 0.001328 754.04242 754.05499
753.0 0.001328 754.04279 754.05548
765.0 0.001307 754.04327 754.05579
765.0 0.001307 754.04315 754.05585
785.0 0.001274 754.04358 754.05603
793.0 0.001261 754.04358 754.05591
786.0 0.001272 754.04364 754.05579
804.0 0.001244 754.04340 754.05585
762.0 0.001312 754.04321 754.05566
736.0 0.001359 754.04285 754.05518
773.0 0.001294 754.04279 754.05487
798.0 0.001253 754.04218 754.05432
794.0 0.001259 754.04169 754.05377
746.0 0.001340 754.04126 754.05316
733.0 0.001364 754.04041 754.05243
760.0 0.001316 754.03967 754.05139
741.0 0.001350 754.03864 754.05054
742.0 0.001348 754.03778 754.04968
782.0 0.001279 754.03674 754.04846
794.0 0.001259 754.03564 754.04749
766.0 0.001305 754.03442 754.04614
767.0 0.001304 754.03308 754.04468
769.0 0.001300 754.03168 754.04327
772.0 0.001295 754.03027 754.04175
818.0 0.001222 754.02869 754.04004
818.0 0.001222 754.02692 754.03839
792.0 0.001263 754.02496 754.03650
758.0 0.001319 754.02325 754.03473
725.0 0.001379 754.02118 754.03241
729.0 0.001372 754.01923 754.03027
763.0 0.001311 754.01709 754.02802
780.0 0.001282 754.01477 754.02594
771.0 0.001297 754.01239 754.02350
775.0 0.001290 754.00989 754.02087
792.0 0.001263 754.00720 754.01831
770.0 0.001299 754.00482 754.01563
770.0 0.001299 754.00183 754.01263
783.0 0.001277 753.99896 754.00983
786.0 0.001272 753.99609 754.00665
803.0 0.001245 753.99292 754.00354
774.0 0.001292 753.98969 754.00031
753.0 0.001328 753.98645 753.99701
765.0 0.001307 753.98303 753.99347
781.0 0.001280 753.97949 753.99005
811.0 0.001233 753.97595 753.98633
802.0 0.001247 753.97235 753.98267
783.0 0.001277 753.96838 753.97882
795.0 0.001258 753.96460 753.97479
775.0 0.001290 753.96033 753.97070
735.0 0.001361 753.95636 753.96649
778.0 0.001285 753.95215 753.96204
775.0 0.001290 753.94769 753.95758
793.0 0.001261 753.94318 753.95331
774.0 0.001292 753.93854 753.94867
764.0 0.001309 753.93402 753.94379
782.0 0.001279 753.92914 753.93903
742.0 0.001348 753.92419 753.93408
735.0 0.001361 753.91907 753.92902
790.0 0.001266 753.91400 753.92358
803.0 0.001245 753.90857 753.91821
787.0 0.001271 753.90320 753.91296
766.0 0.001305 753.89789 753.90717
748.0 0.001337 753.89221 753.90155
764.0 0.001309 753.88647 753.89587
778.0 0.001285 753.88068 753.88995
753.0 0.001328 753.87488 753.88367
761.0 0.001314 753.86853 753.87781
764.0 0.001309 753.86237 753.87170
723.0 0.001383 753.85608 753.86511
705.0 0.001418 753.84967 753.85870
763.0 0.001311 753.84302 753.85205
773.0 0.001294 753.83630 753.84534
769.0 0.001300 753.82959 753.83862
766.0 0.001305 753.82257 753.83142
752.0 0.001330 753.81549 753.82428
755.0 0.001325 753.80823 753.81702
741.0 0.001350 753.80127 753.80963
730.0 0.001370 753.79370 753.80219
741.0 0.001350 753.78595 753.79480
759.0 0.001318 753.77832 753.78668
756.0 0.001323 753.77081 753.77899
747.0 0.001339 753.76263 753.77100
745.0 0.001342 753.75470 753.76282
751.0 0.001332 753.74628 753.75464
765.0 0.001307 753.73798 753.74628
759.0 0.001318 753.72974 753.73773
755.0 0.001325 753.72101 753.72900
747.0 0.001339 753.71234 753.72015
726.0 0.001377 753.70337 753.71130
704.0 0.001420 753.69446 753.70239
737.0 0.001357 753.68542 753.69336
756.0 0.001323 753.67621 753.68396
776.0 0.001289 753.66669 753.67450
803.0 0.001245 753.65717 753.66504
773.0 0.001294 753.64758 753.65540
764.0 0.001309 753.63782 753.64563
742.0 0.001348 753.62799 753.63550
732.0 0.001366 753.61798 753.62555
757.0 0.001321 753.60773 753.61517
753.0 0.001328 753.59747 753.60480
764.0 0.001309 753.58710 753.59436
751.0 0.001332 753.57648 753.58368
730.0 0.001370 753.56567 753.57300
723.0 0.001383 753.55481 753.56195
745.0 0.001342 753.54388 753.55090
758.0 0.001319 753.53278 753.53973
759.0 0.001318 753.52142 753.52838
744.0 0.001344 753.51019 753.51691
711.0 0.001406 753.49854 753.50531
708.0 0.001412 753.48669 753.49371
736.0 0.001359 753.47498 753.48163
741.0 0.001350 753.46301 753.46954
747.0 0.001339 753.45087 753.45764
752.0 0.001330 753.43878 753.44519
721.0 0.001387 753.42633 753.43298
743.0 0.001346 753.41382 753.42010
722.0 0.001385 753.40100 753.40753
703.0 0.001422 753.38831 753.39459
732.0 0.001366 753.37524 753.38153
741.0 0.001350 753.36230 753.36847
753.0 0.001328 753.34888 753.35504
733.0 0.001364 753.33563 753.34174
717.0 0.001395 753.32214 753.32800
746.0 0.001340 753.30835 753.31427
760.0 0.001316 753.29437 753.30023
746.0 0.001340 753.28046 753.28638
739.0 0.001353 753.26642 753.27216
725.0 0.001379 753.25214 753.25781
698.0 0.001433 753.23749 753.24335
690.0 0.001449 753.22302 753.22864
733.0 0.001364 753.20844 753.21393
753.0 0.001328 753.19336 753.19897
751.0 0.001332 753.17834 753.18365
725.0 0.001379 753.16321 753.16870
720.0 0.001389 753.14789 753.15320
715.0 0.001399 753.13251 753.13782
693.0 0.001443 753.11664 753.12189
693.0 0.001443 753.10101 753.10602
749.0 0.001335 753.08502 753.09003
746.0 0.001340 753.06885 753.07422
725.0 0.001379 753.05267 753.05792
712.0 0.001404 753.03625 753.04132
703.0 0.001422 753.01959 753.02466
724.0 0.001381 753.00311 753.00793
726.0 0.001377 752.98639 752.99097
746.0 0.001340 752.96936 752.97394
751.0 0.001332 752.95197 752.95673
744.0 0.001344 752.93469 752.93945
702.0 0.001425 752.91730 752.92194
694.0 0.001441 752.89978 752.90405
722.0 0.001385 752.88208 752.88617
727.0 0.001376 752.86395 752.86829
754.0 0.001326 752.84576 752.85016
734.0 0.001362 752.82770 752.83197
728.0 0.001374 752.80920 752.81342
746.0 0.001340 752.79077 752.79504
726.0 0.001377 752.77197 752.77600
721.0 0.001387 752.75311 752.75708
760.0 0.001316 752.73413 752.73810
761.0 0.001314 752.71497 752.71869
752.0 0.001330 752.69556 752.69934
737.0 0.001357 752.67609 752.67987
735.0 0.001361 752.65637 752.66016
729.0 0.001372 752.63666 752.64020
737.0 0.001357 752.61652 752.62024
722.0 0.001385 752.59631 752.60004
727.0 0.001376 752.57581 752.57959
749.0 0.001335 752.55573 752.55902
710.0 0.001408 752.53510 752.53827
692.0 0.001445 752.51416 752.51764
730.0 0.001370 752.49310 752.49640
750.0 0.001333 752.47205 752.47540
746.0 0.001340 752.45081 752.45386
735.0 0.001361 752.42938 752.43243
715.0 0.001399 752.40771 752.41089
742.0 0.001348 752.38593 752.38916
737.0 0.001357 752.36401 752.36707
717.0 0.001395 752.34192 752.34479
734.0 0.001362 752.31940 752.32257
753.0 0.001328 752.29712 752.30011
737.0 0.001357 752.27472 752.27759
743.0 0.001346 752.25183 752.25464
756.0 0.001323 752.22894 752.23175
742.0 0.001348 752.20581 752.20844
740.0 0.001351 752.18268 752.18524
751.0 0.001332 752.15918 752.16174
733.0 0.001364 752.13562 752.13824
738.0 0.001355 752.11194 752.11432
722.0 0.001385 752.08820 752.09045
682.0 0.001466 752.06390 752.06647
723.0 0.001383 752.03955 752.04205
745.0 0.001342 752.01532 752.01746
760.0 0.001316 751.99066 751.99280
744.0 0.001344 751.96600 751.96808
726.0 0.001377 751.94122 751.94324
749.0 0.001335 751.91608 751.91791
730.0 0.001370 751.89081 751.89270
700.0 0.001429 751.86536 751.86731
744.0 0.001344 751.83978 751.84167
757.0 0.001321 751.81396 751.81580
739.0 0.001353 751.78815 751.78986
730.0 0.001370 751.76196 751.76361
712.0 0.001404 751.73590 751.73743
717.0 0.001395 751.70929 751.71088
724.0 0.001381 751.68274 751.68427
724.0 0.001381 751.65607 751.65747
701.0 0.001427 751.62921 751.63037
718.0 0.001393 751.60205 751.60327
699.0 0.001431 751.57458 751.57605
680.0 0.001471 751.54730 751.54840
736.0 0.001359 751.51965 751.52094
759.0 0.001318 751.49188 751.49298
774.0 0.001292 751.46405 751.46497
779.0 0.001284 751.43591 751.43689
751.0 0.001332 751.40747 751.40845
755.0 0.001325 751.37909 751.38013
722.0 0.001385 751.35052 751.35144
729.0 0.001372 751.32172 751.32245
764.0 0.001309 751.29279 751.29364
735.0 0.001361 751.26349 751.26447
718.0 0.001393 751.23438 751.23505
702.0 0.001425 751.20465 751.20532
714.0 0.001401 751.17529 751.17560
731.0 0.001368 751.14526 751.14587
750.0 0.001333 751.11505 751.11591
739.0 0.001353 751.08521 751.08569
728.0 0.001374 751.05469 751.05530
775.0 0.001290 751.02423 751.02466
719.0 0.001391 750.99353 750.99396
692.0 0.001445 750.96289 750.96313
736.0 0.001359 750.93158 750.93195
762.0 0.001312 750.90045 750.90076
765.0 0.001307 750.86914 750.86920
769.0 0.001300 750.83765 750.83789
736.0 0.001359 750.80609 750.80597
733.0 0.001364 750.77411 750.77411
715.0 0.001399 750.74207 750.74194
723.0 0.001383 750.70990 750.70966
757.0 0.001321 750.67737 750.67725
748.0 0.001337 750.64478 750.64459
725.0 0.001379 750.61194 750.61194
700.0 0.001429 750.57916 750.57886
703.0 0.001422 750.54596 750.54578
708.0 0.001412 750.51263 750.51245
720.0 0.001389 750.47931 750.47882
708.0 0.001412 750.44580 750.44519
698.0 0.001433 750.41187 750.41150
731.0 0.001368 750.37805 750.37738
716.0 0.001397 750.34393 750.34332
689.0 0.001451 750.30939 750.30884
723.0 0.001383 750.27502 750.27423
729.0 0.001372 750.24042 750.23987
728.0 0.001374 750.20581 750.20496
718.0 0.001393 750.17059 750.16980
719.0 0.001391 750.13556 750.13446
738.0 0.001355 750.10004 750.09906
716.0 0.001397 750.06458 750.06366
723.0 0.001383 750.02905 750.02795
755.0 0.001325 749.99323 749.99213
745.0 0.001342 749.95715 749.95605
752.0 0.001330 749.92072 749.91974
751.0 0.001332 749.88440 749.88336
713.0 0.001403 749.84784 749.84662
733.0 0.001364 749.81116 749.80988
752.0 0.001330 749.77429 749.77295
734.0 0.001362 749.73724 749.73590
719.0 0.001391 749.69983 749.69861
718.0 0.001393 749.66260 749.66119
688.0 0.001453 749.62488 749.62366
693.0 0.001443 749.58728 749.58575
713.0 0.001403 749.54913 749.54773
727.0 0.001376 749.51111 749.50970
746.0 0.001340 749.47284 749.47113
759.0 0.001318 749.43445 749.43292
741.0 0.001350 749.39581 749.39410
718.0 0.001393 749.35724 749.35516
711.0 0.001406 749.31799 749.31641
712.0 0.001404 749.27893 749.27710
752.0 0.001330 749.23969 749.23779
736.0 0.001359 749.20013 749.19812
738.0 0.001355 749.16028 749.15851
731.0 0.001368 749.12067 749.11859
730.0 0.001370 749.08044 749.07861
728.0 0.001374 749.04041 749.03827
737.0 0.001357 749.00018 748.99805
741.0 0.001350 748.95959 748.95746
736.0 0.001359 748.91901 748.91650
716.0 0.001397 748.87799 748.87579
666.0 0.001502 748.83698 748.83472
679.0 0.001473 748.79578 748.79340
736.0 0.001359 748.75446 748.75201
759.0 0.001318 748.71283 748.71045
764.0 0.001309 748.67120 748.66888
726.0 0.001377 748.62927 748.62695
722.0 0.001385 748.58716 748.58472
739.0 0.001353 748.54492 748.54230
720.0 0.001389 748.50269 748.49994
716.0 0.001397 748.45996 748.45740
747.0 0.001339 748.41711 748.41449
731.0 0.001368 748.37433 748.37177
730.0 0.001370 748.33112 748.32831
714.0 0.001401 748.28790 748.28510
701.0 0.001427 748.24463 748.24170
696.0 0.001437 748.20099 748.19812
705.0 0.001418 748.15710 748.15430
709.0 0.001410 748.11322 748.11029
709.0 0.001410 748.06915 748.06604
719.0 0.001391 748.02490 748.02173
687.0 0.001456 747.98053 747.97748
687.0 0.001456 747.93573 747.93280
724.0 0.001381 747.89105 747.88782
737.0 0.001357 747.84619 747.84283
744.0 0.001344 747.80084 747.79767
736.0 0.001359 747.75568 747.75232
723.0 0.001383 747.71014 747.70697
732.0 0.001366 747.66455 747.66125
705.0 0.001418 747.61884 747.61554
690.0 0.001449 747.57275 747.56940
726.0 0.001377 747.52667 747.52313
706.0 0.001416 747.48022 747.47693
704.0 0.001420 747.43384 747.43036
719.0 0.001391 747.38727 747.38391
706.0 0.001416 747.34045 747.33698
733.0 0.001364 747.29352 747.29004
741.0 0.001350 747.24628 747.24280
743.0 0.001346 747.19910 747.19550
751.0 0.001332 747.15167 747.14795
763.0 0.001311 747.10388 747.10034
722.0 0.001385 747.05603 747.05237
708.0 0.001412 747.00830 747.00452
750.0 0.001333 746.96014 746.95618
737.0 0.001357 746.91180 746.90802
760.0 0.001316 746.86316 746.85950
742.0 0.001348 746.81470 746.81091
745.0 0.001342 746.76599 746.76196
765.0 0.001307 746.71692 746.71289
736.0 0.001359 746.66772 746.66376
702.0 0.001425 746.61859 746.61444
742.0 0.001348 746.56909 746.56494
774.0 0.001292 746.51935 746.51532
740.0 0.001351 746.46967 746.46558
718.0 0.001393 746.41962 746.41565
711.0 0.001406 746.36963 746.36548
737.0 0.001357 746.31946 746.31506
736.0 0.001359 746.26874 746.26459
746.0 0.001340 746.21820 746.21399
750.0 0.001333 746.16772 746.16333
777.0 0.001287 746.11664 746.11243
714.0 0.001401 746.06549 746.06122
683.0 0.001464 746.01434 746.00995
722.0 0.001385 745.96289 745.95862
733.0 0.001364 745.91132 745.90680
725.0 0.001379 745.85956 745.85522
696.0 0.001437 745.80774 745.80322
689.0 0.001451 745.75574 745.75128
705.0 0.001418 745.70343 745.69897
695.0 0.001439 745.65112 745.64636
678.0 0.001475 745.59869 745.59399
711.0 0.001406 745.54584 745.54132
731.0 0.001368 745.49323 745.48846
727.0 0.001376 745.44012 745.43542
721.0 0.001387 745.38684 745.38214
697.0 0.001435 745.33362 745.32886
720.0 0.001389 745.28009 745.27539
740.0 0.001351 745.22656 745.22168
749.0 0.001335 745.17279 745.16791
725.0 0.001379 745.11877 745.11377
720.0 0.001389 745.06445 745.05963
723.0 0.001383 745.01019 745.00562
712.0 0.001404 744.95612 744.95111
726.0 0.001377 744.90149 744.89655
738.0 0.001355 744.84674 744.84161
744.0 0.001344 744.79169 744.78687
728.0 0.001374 744.73676 744.73181
725.0 0.001379 744.68146 744.67645
729.0 0.001372 744.62622 744.62115
723.0 0.001383 744.57062 744.56561
728.0 0.001374 744.51520 744.50995
772.0 0.001295 744.45929 744.45410
774.0 0.001292 744.40332 744.39819
750.0 0.001333 744.34711 744.34186
715.0 0.001399 744.29083 744.28571
712.0 0.001404 744.23438 744.22919
720.0 0.001389 744.17792 744.17261
736.0 0.001359 744.12128 744.11603
733.0 0.001364 744.06427 744.05908
708.0 0.001412 744.00739 744.00195
713.0 0.001403 743.95026 743.94476
684.0 0.001462 743.89264 743.88727
671.0 0.001490 743.83527 743.82996
730.0 0.001370 743.77753 743.77234
718.0 0.001393 743.71985 743.71454
742.0 0.001348 743.66180 743.65662
718.0 0.001393 743.60382 743.59863
699.0 0.001431 743.54572 743.53998
730.0 0.001370 743.48718 743.48181
739.0 0.001353 743.42877 743.42334
704.0 0.001420 743.37000 743.36469
723.0 0.001383 743.31122 743.30560
731.0 0.001368 743.25232 743.24670
738.0 0.001355 743.19299 743.18756
752.0 0.001330 743.13397 743.12848
741.0 0.001350 743.07452 743.06891
747.0 0.001339 743.01495 743.00940
761.0 0.001314 742.95551 742.94971
758.0 0.001319 742.89551 742.88989
756.0 0.001323 742.83557 742.82990
737.0 0.001357 742.77539 742.76965
710.0 0.001408 742.71515 742.70953
679.0 0.001473 742.65472 742.64917
701.0 0.001427 742.59418 742.58844
704.0 0.001420 742.53357 742.52759
724.0 0.001381 742.47272 742.46692
733.0 0.001364 742.41168 742.40619
730.0 0.001370 742.35046 742.34485
720.0 0.001389 742.28943 742.28357
688.0 0.001453 742.22803 742.22192
690.0 0.001449 742.16626 742.16064
710.0 0.001408 742.10480 742.09894
712.0 0.001404 742.04279 742.03705
713.0 0.001403 741.98102 741.97516
680.0 0.001471 741.91882 741.91296
689.0 0.001451 741.85663 741.85089
714.0 0.001401 741.79443 741.78833
729.0 0.001372 741.73193 741.72583
736.0 0.001359 741.66925 741.66315
719.0 0.001391 741.60626 741.60071
735.0 0.001361 741.54352 741.53766
725.0 0.001379 741.48035 741.47449
707.0 0.001414 741.41748 741.41101
727.0 0.001376 741.35394 741.34796
730.0 0.001370 741.29047 741.28455
740.0 0.001351 741.22693 741.22070
738.0 0.001355 741.16321 741.15710
730.0 0.001370 741.09930 741.09338
719.0 0.001391 741.03528 741.02917
708.0 0.001412 740.97119 740.96515
699.0 0.001431 740.90674 740.90082
731.0 0.001368 740.84265 740.83636
715.0 0.001399 740.77795 740.77216
706.0 0.001416 740.71326 740.70746
699.0 0.001431 740.64874 740.64246
711.0 0.001406 740.58386 740.57770
740.0 0.001351 740.51874 740.51276
764.0 0.001309 740.45349 740.44739
760.0 0.001316 740.38818 740.38208
728.0 0.001374 740.32294 740.31665
726.0 0.001377 740.25732 740.25104
709.0 0.001410 740.19177 740.18561
672.0 0.001488 740.12579 740.11957
718.0 0.001393 740.05988 740.05365
737.0 0.001357 739.99402 739.98767
742.0 0.001348 739.92767 739.92126
724.0 0.001381 739.86145 739.85516
700.0 0.001429 739.79492 739.78888
707.0 0.001414 739.72839 739.72211
718.0 0.001393 739.66174 739.65546
700.0 0.001429 739.59497 739.58856
723.0 0.001383 739.52795 739.52179
741.0 0.001350 739.46118 739.45483
727.0 0.001376 739.39392 739.38763
722.0 0.001385 739.32654 739.32025
736.0 0.001359 739.25891 739.25293
732.0 0.001366 739.19165 739.18530
744.0 0.001344 739.12402 739.11761
728.0 0.001374 739.05609 739.04980
719.0 0.001391 738.98822 738.98181
724.0 0.001381 738.92017 738.91412
688.0 0.001453 738.85223 738.84601
682.0 0.001466 738.78406 738.77765
733.0 0.001364 738.71570 738.70929
723.0 0.001383 738.64703 738.64075
719.0 0.001391 738.57861 738.57208
728.0 0.001374 738.50989 738.50348
710.0 0.001408 738.44086 738.43463
718.0 0.001393 738.37195 738.36560
701.0 0.001427 738.30304 738.29663
691.0 0.001447 738.23376 738.22760
729.0 0.001372 738.16455 738.15802
736.0 0.001359 738.09515 738.08875
725.0 0.001379 738.02539 738.01923
726.0 0.001377 737.95599 737.94983
729.0 0.001372 737.88647 737.88007
748.0 0.001337 737.81635 737.81024
753.0 0.001328 737.74646 737.74017
748.0 0.001337 737.67633 737.67017
714.0 0.001401 737.60626 737.59985
707.0 0.001414 737.53589 737.52966
691.0 0.001447 737.46539 737.45923
694.0 0.001441 737.39514 737.38873
717.0 0.001395 737.32452 737.31818
725.0 0.001379 737.25372 737.24750
739.0 0.001353 737.18292 737.17670
752.0 0.001330 737.11212 737.10571
742.0 0.001348 737.04108 737.03473
738.0 0.001355 736.96991 736.96332
729.0 0.001372 736.89856 736.89233
723.0 0.001383 736.82739 736.82092
755.0 0.001325 736.75598 736.74945
744.0 0.001344 736.68427 736.67792
725.0 0.001379 736.61285 736.60632
701.0 0.001427 736.54083 736.53442
717.0 0.001395 736.46906 736.46283
720.0 0.001389 736.39709 736.39063
751.0 0.001332 736.32520 736.31873
746.0 0.001340 736.25275 736.24658
726.0 0.001377 736.18060 736.17444
714.0 0.001401 736.10809 736.10193
687.0 0.001456 736.03571 736.02942
670.0 0.001493 735.96320 735.95691
721.0 0.001387 735.89044 735.88434
712.0 0.001404 735.81787 735.81140
723.0 0.001383 735.74487 735.73859
750.0 0.001333 735.67181 735.66559
747.0 0.001339 735.59906 735.59265
740.0 0.001351 735.52582 735.51965
732.0 0.001366 735.45251 735.44647
714.0 0.001401 735.37946 735.37292
751.0 0.001332 735.30573 735.29956
746.0 0.001340 735.23218 735.22607
724.0 0.001381 735.15869 735.15265
711.0 0.001406 735.08533 735.07886
721.0 0.001387 735.01141 735.00494
735.0 0.001361 734.93719 734.93121
755.0 0.001325 734.86328 734.85718
759.0 0.001318 734.78918 734.78308
735.0 0.001361 734.71521 734.70905
725.0 0.001379 734.64087 734.63470
707.0 0.001414 734.56659 734.56024
710.0 0.001408 734.49219 734.48596
727.0 0.001376 734.41766 734.41144
736.0 0.001359 734.34320 734.33679
762.0 0.001312 734.26843 734.26208
754.0 0.001326 734.19373 734.18738
718.0 0.001393 734.11853 734.11261
706.0 0.001416 734.04382 734.03760
692.0 0.001445 733.96869 733.96259
703.0 0.001422 733.89386 733.88763
733.0 0.001364 733.81866 733.81244
709.0 0.001410 733.74329 733.73718
711.0 0.001406 733.66785 733.66180
691.0 0.001447 733.59253 733.58630
717.0 0.001395 733.51703 733.51093
714.0 0.001401 733.44141 733.43536
732.0 0.001366 733.36560 733.35962
738.0 0.001355 733.29004 733.28381
753.0 0.001328 733.21393 733.20813
745.0 0.001342 733.13806 733.13220
720.0 0.001389 733.06195 733.05615
705.0 0.001418 732.98621 732.97998
730.0 0.001370 732.91016 732.90387
733.0 0.001364 732.83368 732.82782
738.0 0.001355 732.75739 732.75165
733.0 0.001364 732.68097 732.67517
723.0 0.001383 732.60480 732.59845
727.0 0.001376 732.52820 732.52191
742.0 0.001348 732.45142 732.44562
711.0 0.001406 732.37488 732.36884
739.0 0.001353 732.29803 732.29199
742.0 0.001348 732.22119 732.21533
737.0 0.001357 732.14429 732.13837
709.0 0.001410 732.06744 732.06165
723.0 0.001383 731.99042 731.98456
740.0 0.001351 731.91321 731.90741
765.0 0.001307 731.83600 731.83026
754.0 0.001326 731.75891 731.75299
745.0 0.001342 731.68152 731.67554
742.0 0.001348 731.60425 731.59851
691.0 0.001447 731.52692 731.52087
669.0 0.001495 731.44928 731.44336
755.0 0.001325 731.37158 731.36584
774.0 0.001292 731.29401 731.28839
788.0 0.001269 731.21625 731.21063
773.0 0.001294 731.13855 731.13263
731.0 0.001368 731.06061 731.05499
767.0 0.001304 730.98291 730.97699
765.0 0.001307 730.90485 730.89911
717.0 0.001395 730.82666 730.82117
750.0 0.001333 730.74866 730.74304
752.0 0.001330 730.67059 730.66492
771.0 0.001297 730.59253 730.58667
757.0 0.001321 730.51416 730.50842
744.0 0.001344 730.43585 730.43011
771.0 0.001297 730.35754 730.35199
767.0 0.001304 730.27875 730.27319
777.0 0.001287 730.20044 730.19476
769.0 0.001300 730.12183 730.11633
778.0 0.001285 730.04321 730.03760
757.0 0.001321 729.96472 729.95886
730.0 0.001370 729.88574 729.88019
783.0 0.001277 729.80707 729.80145
783.0 0.001277 729.72821 729.72272
773.0 0.001294 729.64935 729.64380
752.0 0.001330 729.57025 729.56464
755.0 0.001325 729.49121 729.48584
752.0 0.001330 729.41217 729.40674
743.0 0.001346 729.33295 729.32776
738.0 0.001355 729.25385 729.24878
768.0 0.001302 729.17480 729.16913
780.0 0.001282 729.09540 729.09027
803.0 0.001245 729.01617 729.01068
778.0 0.001285 728.93665 728.93146
760.0 0.001316 728.85730 728.85199
754.0 0.001326 728.77765 728.77252
757.0 0.001321 728.69836 728.69305
775.0 0.001290 728.61877 728.61359
786.0 0.001272 728.53900 728.53394
782.0 0.001279 728.45959 728.45435
741.0 0.001350 728.37976 728.37463
719.0 0.001391 728.29993 728.29510
759.0 0.001318 728.22034 728.21527
779.0 0.001284 728.14026 728.13544
807.0 0.001239 728.06055 728.05554
790.0 0.001266 727.98047 727.97559
773.0 0.001294 727.90057 727.89569
784.0 0.001276 727.82056 727.81567
765.0 0.001307 727.74060 727.73560
722.0 0.001385 727.66052 727.65552
771.0 0.001297 727.58044 727.57544
785.0 0.001274 727.50018 727.49536
779.0 0.001284 727.41980 727.41510
771.0 0.001297 727.33960 727.33502
802.0 0.001247 727.25940 727.25464
808.0 0.001238 727.17914 727.17419
812.0 0.001232 727.09863 727.09406
813.0 0.001230 727.01819 727.01343
799.0 0.001252 726.93768 726.93311
805.0 0.001242 726.85760 726.85272
778.0 0.001285 726.77692 726.77222
765.0 0.001307 726.69647 726.69171
822.0 0.001217 726.61572 726.61127
855.0 0.001170 726.53516 726.53058
817.0 0.001224 726.45447 726.44971
823.0 0.001215 726.37384 726.36908
804.0 0.001244 726.29333 726.28864
797.0 0.001255 726.21240 726.20776
809.0 0.001236 726.13153 726.12708
812.0 0.001232 726.05060 726.04645
853.0 0.001172 725.97003 725.96545
848.0 0.001179 725.88916 725.88458
854.0 0.001171 725.80823 725.80383
848.0 0.001179 725.72717 725.72284
845.0 0.001183 725.64618 725.64191
854.0 0.001171 725.56531 725.56097
869.0 0.001151 725.48431 725.47998
874.0 0.001144 725.40320 725.39905
897.0 0.001115 725.32214 725.31799
939.0 0.001065 725.24097 725.23682
898.0 0.001114 725.16003 725.15576
866.0 0.001155 725.07898 725.07458
930.0 0.001075 724.99780 724.99359
946.0 0.001057 724.91650 724.91248
942.0 0.001062 724.83533 724.83136
908.0 0.001101 724.75403 724.75006
886.0 0.001129 724.67285 724.66888
920.0 0.001087 724.59180 724.58759
938.0 0.001066 724.51038 724.50647
936.0 0.001068 724.42896 724.42511
974.0 0.001027 724.34778 724.34381
983.0 0.001017 724.26630 724.26251
943.0 0.001060 724.18506 724.18109
919.0 0.001088 724.10352 724.09979
927.0 0.001079 724.02234 724.01837
933.0 0.001072 723.94086 723.93701
947.0 0.001056 723.85925 723.85559
944.0 0.001059 723.77783 723.77429
881.0 0.001135 723.69641 723.69281
877.0 0.001140 723.61493 723.61127
871.0 0.001148 723.53351 723.52991
821.0 0.001218 723.45197 723.44818
855.0 0.001170 723.37048 723.36682
830.0 0.001205 723.28894 723.28540
812.0 0.001232 723.20740 723.20386
792.0 0.001263 723.12573 723.12225
799.0 0.001252 723.04443 723.04089
820.0 0.001220 722.96252 722.95911
817.0 0.001224 722.88110 722.87769
782.0 0.001279 722.79962 722.79608
833.0 0.001200 722.71771 722.71448
814.0 0.001229 722.63629 722.63300
800.0 0.001250 722.55457 722.55139
772.0 0.001295 722.47302 722.46979
757.0 0.001321 722.39148 722.38812
775.0 0.001290 722.30969 722.30634
763.0 0.001311 722.22815 722.22491
755.0 0.001325 722.14636 722.14325
749.0 0.001335 722.06476 722.06158
787.0 0.001271 721.98291 721.97986
745.0 0.001342 721.90131 721.89832
706.0 0.001416 721.81958 721.81665
749.0 0.001335 721.73804 721.73492
756.0 0.001323 721.65607 721.65356
757.0 0.001321 721.57458 721.57172
771.0 0.001297 721.49280 721.48993
747.0 0.001339 721.41138 721.40833
745.0 0.001342 721.32953 721.32666
747.0 0.001339 721.24780 721.24487
739.0 0.001353 721.16620 721.16339
759.0 0.001318 721.08453 721.08154
778.0 0.001285 721.00281 721.00000
772.0 0.001295 720.92090 720.91852
736.0 0.001359 720.83929 720.83655
742.0 0.001348 720.75769 720.75507
752.0 0.001330 720.67609 720.67340
767.0 0.001304 720.59430 720.59180
750.0 0.001333 720.51245 720.51001
745.0 0.001342 720.43103 720.42847
729.0 0.001372 720.34943 720.34668
697.0 0.001435 720.26764 720.26514
678.0 0.001475 720.18591 720.18347
738.0 0.001355 720.10425 720.10187
748.0 0.001337 720.02283 720.02039
730.0 0.001370 719.94098 719.93854
716.0 0.001397 719.85944 719.85712
728.0 0.001374 719.77765 719.77539
730.0 0.001370 719.69623 719.69403
707.0 0.001414 719.61462 719.61243
685.0 0.001460 719.53284 719.53076
750.0 0.001333 719.45135 719.44904
751.0 0.001332 719.36981 719.36755
731.0 0.001368 719.28815 719.28613
685.0 0.001460 719.20679 719.20447
686.0 0.001458 719.12531 719.12311
699.0 0.001431 719.04352 719.04150
715.0 0.001399 718.96204 718.96008
715.0 0.001399 718.88055 718.87860
721.0 0.001387 718.79907 718.79718
732.0 0.001366 718.71765 718.71594
707.0 0.001414 718.63611 718.63434
699.0 0.001431 718.55481 718.55280
722.0 0.001385 718.47333 718.47144
739.0 0.001353 718.39197 718.39008
743.0 0.001346 718.31055 718.30884
737.0 0.001357 718.22919 718.22742
723.0 0.001383 718.14771 718.14606
738.0 0.001355 718.06635 718.06470
721.0 0.001387 717.98511 717.98358
714.0 0.001401 717.90393 717.90210
739.0 0.001353 717.82245 717.82111
741.0 0.001350 717.74133 717.73969
730.0 0.001370 717.65979 717.65857
703.0 0.001422 717.57886 717.57727
730.0 0.001370 717.49750 717.49615
747.0 0.001339 717.41650 717.41486
739.0 0.001353 717.33527 717.33380
719.0 0.001391 717.25397 717.25275
705.0 0.001418 717.17303 717.17169
729.0 0.001372 717.09161 717.09070
698.0 0.001433 717.01056 717.00952
667.0 0.001499 716.92963 716.92841
716.0 0.001397 716.84863 716.84747
743.0 0.001346 716.76764 716.76654
753.0 0.001328 716.68677 716.68567
719.0 0.001391 716.60583 716.60474
709.0 0.001410 716.52484 716.52393
731.0 0.001368 716.44379 716.44299
723.0 0.001383 716.36310 716.36224
690.0 0.001449 716.28217 716.28125
710.0 0.001408 716.20135 716.20068
714.0 0.001401 716.12067 716.11975
711.0 0.001406 716.03992 716.03918
690.0 0.001449 715.95898 715.95844
693.0 0.001443 715.87860 715.87787
702.0 0.001425 715.79767 715.79706
711.0 0.001406 715.71722 715.71649
714.0 0.001401 715.63660 715.63599
706.0 0.001416 715.55591 715.55505
705.0 0.001418 715.47516 715.47485
677.0 0.001477 715.39478 715.39441
665.0 0.001504 715.31439 715.31396
713.0 0.001403 715.23389 715.23364
715.0 0.001399 715.15332 715.15314
730.0 0.001370 715.07300 715.07288
676.0 0.001479 714.99268 714.99255
679.0 0.001473 714.91254 714.91205
706.0 0.001416 714.83203 714.83179
694.0 0.001441 714.75201 714.75177
678.0 0.001475 714.67175 714.67151
711.0 0.001406 714.59143 714.59143
709.0 0.001410 714.51141 714.51123
711.0 0.001406 714.43121 714.43115
696.0 0.001437 714.35114 714.35107
693.0 0.001443 714.27112 714.27130
705.0 0.001418 714.19116 714.19116
717.0 0.001395 714.11133 714.11121
719.0 0.001391 714.03149 714.03149
711.0 0.001406 713.95129 713.95166
719.0 0.001391 713.87152 713.87177
689.0 0.001451 713.79181 713.79199
669.0 0.001495 713.71210 713.71240
733.0 0.001364 713.63239 713.63257
719.0 0.001391 713.55255 713.55292
711.0 0.001406 713.47296 713.47327
700.0 0.001429 713.39349 713.39386
667.0 0.001499 713.31390 713.31427
694.0 0.001441 713.23444 713.23499
704.0 0.001420 713.15497 713.15546
692.0 0.001445 713.07538 713.07587
706.0 0.001416 712.99609 712.99670
710.0 0.001408 712.91669 712.91724
713.0 0.001403 712.83746 712.83801
711.0 0.001406 712.75818 712.75885
693.0 0.001443 712.67914 712.67975
687.0 0.001456 712.59985 712.60071
698.0 0.001433 712.52057 712.52142
703.0 0.001422 712.44183 712.44250
690.0 0.001449 712.36261 712.36346
707.0 0.001414 712.28345 712.28455
702.0 0.001425 712.20477 712.20581
696.0 0.001437 712.12592 712.12659
711.0 0.001406 712.04712 712.04797
710.0 0.001408 711.96808 711.96948
690.0 0.001449 711.88940 711.89044
662.0 0.001511 711.81073 711.81189
673.0 0.001486 711.73224 711.73328
670.0 0.001493 711.65356 711.65448
671.0 0.001490 711.57507 711.57611
659.0 0.001517 711.49640 711.49780
696.0 0.001437 711.41809 711.41937
702.0 0.001425 711.33984 711.34100
709.0 0.001410 711.26135 711.26276
700.0 0.001429 711.18311 711.18457
692.0 0.001445 711.10480 711.10620
704.0 0.001420 711.02649 711.02820
706.0 0.001416 710.94855 710.94995
694.0 0.001441 710.87036 710.87207
672.0 0.001488 710.79242 710.79401
685.0 0.001460 710.71448 710.71600
677.0 0.001477 710.63647 710.63806
642.0 0.001558 710.55841 710.56018
682.0 0.001466 710.48077 710.48260
701.0 0.001427 710.40302 710.40491
687.0 0.001456 710.32526 710.32721
683.0 0.001464 710.24750 710.24945
693.0 0.001443 710.17017 710.17200
703.0 0.001422 710.09235 710.09442
706.0 0.001416 710.01489 710.01709
680.0 0.001471 709.93768 709.93945
699.0 0.001431 709.86011 709.86212
695.0 0.001439 709.78284 709.78491
706.0 0.001416 709.70557 709.70764
693.0 0.001443 709.62836 709.63068
704.0 0.001420 709.55121 709.55353
691.0 0.001447 709.47406 709.47638
687.0 0.001456 709.39728 709.39941
703.0 0.001422 709.32031 709.32239
702.0 0.001425 709.24341 709.24561
706.0 0.001416 709.16656 709.16882
679.0 0.001473 709.08960 709.09204
668.0 0.001497 709.01282 709.01538
706.0 0.001416 708.93622 708.93866
710.0 0.001408 708.85968 708.86206
700.0 0.001429 708.78314 708.78558
690.0 0.001449 708.70654 708.70911
664.0 0.001506 708.63019 708.63281
678.0 0.001475 708.55383 708.55664
660.0 0.001515 708.47766 708.48010
653.0 0.001531 708.40112 708.40363
704.0 0.001420 708.32501 708.32776
701.0 0.001427 708.24890 708.25153
712.0 0.001404 708.17267 708.17572
669.0 0.001495 708.09680 708.09985
656.0 0.001524 708.02075 708.02368
668.0 0.001497 707.94507 707.94818
682.0 0.001466 707.86920 707.87231
678.0 0.001475 707.79358 707.79657
670.0 0.001493 707.71771 707.72089
670.0 0.001493 707.64227 707.64532
643.0 0.001555 707.56665 707.56989
608.0 0.001645 707.49121 707.49414
661.0 0.001513 707.41571 707.41895
674.0 0.001484 707.34033 707.34363
685.0 0.001460 707.26526 707.26837
689.0 0.001451 707.18982 707.19336
676.0 0.001479 707.11487 707.11798
677.0 0.001477 707.03949 707.04315
663.0 0.001508 706.96466 706.96796
664.0 0.001506 706.88977 706.89313
669.0 0.001495 706.81482 706.81836
675.0 0.001481 706.73987 706.74335
689.0 0.001451 706.66504 706.66876
682.0 0.001466 706.59058 706.59406
677.0 0.001477 706.51593 706.51947
671.0 0.001490 706.44128 706.44489
679.0 0.001473 706.36676 706.37067
691.0 0.001447 706.29266 706.29608
681.0 0.001468 706.21814 706.22180
688.0 0.001453 706.14380 706.14752
667.0 0.001499 706.06958 706.07355
655.0 0.001527 705.99548 705.99945
695.0 0.001439 705.92139 705.92529
708.0 0.001412 705.84741 705.85126
699.0 0.001431 705.77350 705.77722
692.0 0.001445 705.69958 705.70367
685.0 0.001460 705.62604 705.62982
691.0 0.001447 705.55237 705.55615
669.0 0.001495 705.47852 705.48254
645.0 0.001550 705.40491 705.40912
688.0 0.001453 705.33118 705.33563
693.0 0.001443 705.25793 705.26221
699.0 0.001431 705.18475 705.18896
665.0 0.001504 705.11133 705.11560
665.0 0.001504 705.03809 705.04236
682.0 0.001466 704.96490 704.96936
675.0 0.001481 704.89203 704.89612
690.0 0.001449 704.81891 704.82324
662.0 0.001511 704.74591 704.75055
658.0 0.001520 704.67316 704.67767
644.0 0.001553 704.60052 704.60480
646.0 0.001548 704.52777 704.53235
685.0 0.001460 704.45496 704.45966
705.0 0.001418 704.38251 704.38690
690.0 0.001449 704.30988 704.31458
695.0 0.001439 704.23755 704.24231
692.0 0.001445 704.16534 704.16998
702.0 0.001425 704.09302 704.09778
691.0 0.001447 704.02063 704.02527
673.0 0.001486 703.94873 703.95367
695.0 0.001439 703.87659 703.88135
684.0 0.001462 703.80475 703.80945
660.0 0.001515 703.73273 703.73767
654.0 0.001529 703.66095 703.66589
649.0 0.001541 703.58893 703.59418
644.0 0.001553 703.51752 703.52258
665.0 0.001504 703.44611 703.45105
676.0 0.001479 703.37427 703.37964
686.0 0.001458 703.30286 703.30811
675.0 0.001481 703.23169 703.23669
639.0 0.001565 703.16040 703.16553
611.0 0.001637 703.08911 703.09430
661.0 0.001513 703.01801 703.02332
685.0 0.001460 702.94702 702.95233
673.0 0.001486 702.87598 702.88135
676.0 0.001479 702.80518 702.81049
673.0 0.001486 702.73431 702.73975
690.0 0.001449 702.66339 702.66907
688.0 0.001453 702.59296 702.59827
679.0 0.001473 702.52216 702.52789
700.0 0.001429 702.45154 702.45728
691.0 0.001447 702.38123 702.38672
680.0 0.001471 702.31091 702.31653
660.0 0.001515 702.24060 702.24615
662.0 0.001511 702.17035 702.17627
684.0 0.001462 702.10034 702.10608
671.0 0.001490 702.03040 702.03589
699.0 0.001431 701.96027 701.96606
694.0 0.001441 701.89044 701.89606
708.0 0.001412 701.82050 701.82654
673.0 0.001486 701.75079 701.75684
647.0 0.001546 701.68103 701.68713
692.0 0.001445 701.61163 701.61774
697.0 0.001435 701.54218 701.54816
695.0 0.001439 701.47266 701.47876
672.0 0.001488 701.40338 701.40955
658.0 0.001520 701.33405 701.34015
676.0 0.001479 701.26520 701.27112
670.0 0.001493 701.19586 701.20203
662.0 0.001511 701.12695 701.13293
696.0 0.001437 701.05798 701.06403
709.0 0.001410 700.98914 700.99524
683.0 0.001464 700.92035 700.92657
672.0 0.001488 700.85175 700.85791
715.0 0.001399 700.78302 700.78912
700.0 0.001429 700.71454 700.72058
699.0 0.001431 700.64612 700.65240
706.0 0.001416 700.57758 700.58405
691.0 0.001447 700.50922 700.51581
675.0 0.001481 700.44116 700.44745
662.0 0.001511 700.37329 700.37952
678.0 0.001475 700.30499 700.31152
731.0 0.001368 700.23700 700.24365
739.0 0.001353 700.16882 700.17548
721.0 0.001387 700.10114 700.10773
713.0 0.001403 700.03345 700.04016
717.0 0.001395 699.96582 699.97253
723.0 0.001383 699.89819 699.90503
715.0 0.001399 699.83081 699.83771
697.0 0.001435 699.76343 699.77008
729.0 0.001372 699.69598 699.70288
717.0 0.001395 699.62878 699.63556
703.0 0.001422 699.56165 699.56860
679.0 0.001473 699.49457 699.50140
693.0 0.001443 699.42767 699.43439
712.0 0.001404 699.36060 699.36755
732.0 0.001366 699.29376 699.30054
732.0 0.001366 699.22717 699.23401
694.0 0.001441 699.16028 699.16718
704.0 0.001420 699.09381 699.10083
695.0 0.001439 699.02722 699.03430
661.0 0.001513 698.96075 698.96796
688.0 0.001453 698.89447 698.90155
702.0 0.001425 698.82813 698.83539
721.0 0.001387 698.76202 698.76935
688.0 0.001453 698.69592 698.70319
707.0 0.001414 698.62976 698.63721
717.0 0.001395 698.56415 698.57123
714.0 0.001401 698.49829 698.50555
713.0 0.001403 698.43237 698.43964
742.0 0.001348 698.36676 698.37402
702.0 0.001425 698.30115 698.30847
681.0 0.001468 698.23553 698.24292
682.0 0.001466 698.17010 698.17773
697.0 0.001435 698.10474 698.11218
703.0 0.001422 698.03967 698.04694
708.0 0.001412 697.97437 697.98187
691.0 0.001447 697.90906 697.91669
682.0 0.001466 697.84399 697.85175
690.0 0.001449 697.77917 697.78656
678.0 0.001475 697.71429 697.72192
639.0 0.001565 697.64941 697.65710
666.0 0.001502 697.58490 697.59253
682.0 0.001466 697.52026 697.52789
686.0 0.001458 697.45557 697.46344
695.0 0.001439 697.39130 697.39899
679.0 0.001473 697.32684 697.33459
686.0 0.001458 697.26251 697.27014
669.0 0.001495 697.19830 697.20599
672.0 0.001488 697.13422 697.14197
734.0 0.001362 697.06995 697.07788
731.0 0.001368 697.00610 697.01398
718.0 0.001393 696.94226 696.95020
678.0 0.001475 696.87854 696.88647
685.0 0.001460 696.81488 696.82275
701.0 0.001427 696.75104 696.75916
715.0 0.001399 696.68744 696.69556
698.0 0.001433 696.62402 696.63202
695.0 0.001439 696.56061 696.56860
701.0 0.001427 696.49738 696.50519
666.0 0.001502 696.43427 696.44238
639.0 0.001565 696.37079 696.37891
694.0 0.001441 696.30817 696.31610
710.0 0.001408 696.24493 696.25293
720.0 0.001389 696.18182 696.19025
727.0 0.001376 696.11914 696.12732
725.0 0.001379 696.05646 696.06464
730.0 0.001370 695.99377 696.00201
695.0 0.001439 695.93115 695.93958
710.0 0.001408 695.86871 695.87708
713.0 0.001403 695.80615 695.81470
711.0 0.001406 695.74390 695.75220
710.0 0.001408 695.68152 695.69000
691.0 0.001447 695.61945 695.62775
692.0 0.001445 695.55725 695.56580
691.0 0.001447 695.49530 695.50403
719.0 0.001391 695.43347 695.44183
712.0 0.001404 695.37158 695.38007
676.0 0.001479 695.30975 695.31842
677.0 0.001477 695.24811 695.25677
640.0 0.001563 695.18658 695.19525
646.0 0.001548 695.12500 695.13367
693.0 0.001443 695.06366 695.07233
695.0 0.001439 695.00220 695.01080
693.0 0.001443 694.94104 694.94958
694.0 0.001441 694.87976 694.88837
685.0 0.001460 694.81879 694.82751
689.0 0.001451 694.75763 694.76648
674.0 0.001484 694.69653 696.46051
654.0 0.001529 694.63574 696.41956
695.0 0.001439 694.57495 696.37927
704.0 0.001420 694.51422 696.33911
713.0 0.001403 694.45355 696.29938
699.0 0.001431 694.39288 696.26050
692.0 0.001445 694.33258 696.22162
692.0 0.001445 694.27216 696.18347
726.0 0.001377 694.21179 696.14587
725.0 0.001379 694.15143 696.10864
714.0 0.001401 694.09149 696.07172
702.0 0.001425 694.03125 696.03534
666.0 0.001502 693.97125 695.99982
657.0 0.001522 693.91132 695.96460
692.0 0.001445 693.85150 695.92993
684.0 0.001462 693.79169 695.89557
697.0 0.001435 693.73230 695.86218
698.0 0.001433 693.67255 695.82922
701.0 0.001427 693.61292 695.79669
709.0 0.001410 693.55347 695.76459
687.0 0.001456 693.49414 695.73358
671.0 0.001490 693.43488 695.70294
706.0 0.001416 693.37567 695.67297
723.0 0.001383 693.31653 695.64368
721.0 0.001387 693.25751 695.61511
729.0 0.001372 693.19830 695.58704
718.0 0.001393 693.13965 695.55957
725.0 0.001379 693.08069 695.53326
724.0 0.001381 693.02185 695.50732
724.0 0.001381 692.96344 695.48230
713.0 0.001403 692.90466 695.45789
720.0 0.001389 692.84613 695.43414
706.0 0.001416 692.78778 695.41156
692.0 0.001445 692.72943 695.38934
753.0 0.001328 692.67114 695.36859
744.0 0.001344 692.61292 695.34833
763.0 0.001311 692.55475 695.32910
786.0 0.001272 692.49670 695.31042
773.0 0.001294 692.43860 695.29315
782.0 0.001279 692.38104 695.27673
735.0 0.001361 692.32312 695.26117
710.0 0.001408 692.26514 695.24658
766.0 0.001305 692.20764 695.23309
794.0 0.001259 692.14996 695.22089
812.0 0.001232 692.09235 695.20935
798.0 0.001253 692.03503 695.19922
799.0 0.001252 691.97772 695.19031
797.0 0.001255 691.92041 695.18219
820.0 0.001220 691.86310 695.17572
812.0 0.001232 691.80579 695.17047
792.0 0.001263 691.74896 695.16632
813.0 0.001230 691.69189 695.16376
768.0 0.001302 691.63507 695.16229
752.0 0.001330 691.57819 695.16272
810.0 0.001235 691.52142 695.16406
807.0 0.001239 691.46472 695.16736
814.0 0.001229 691.40790 695.17194
787.0 0.001271 691.35144 695.17834
778.0 0.001285 691.29474 695.18646
800.0 0.001250 691.23865 696.48199
774.0 0.001292 691.18219 696.51233
773.0 0.001294 691.12598 696.54517
804.0 0.001244 691.06976 696.58038
814.0 0.001229 691.01373 696.61792
810.0 0.001235 690.95776 696.65796
787.0 0.001271 690.90161 696.70062
778.0 0.001285 690.84583 696.74573
775.0 0.001290 690.79004 696.79407
781.0 0.001280 690.73431 696.84467
804.0 0.001244 690.67853 696.89862
807.0 0.001239 690.62305 696.95551
792.0 0.001263 690.56763 697.01550
801.0 0.001248 690.51208 697.07904
761.0 0.001314 690.45654 697.14600
785.0 0.001274 690.40125 697.21643
773.0 0.001294 690.34613 697.29034
772.0 0.001295 690.29089 697.36816
773.0 0.001294 690.23584 697.45007
772.0 0.001295 690.18066 697.53607
766.0 0.001305 690.12567 697.62640
726.0 0.001377 690.07086 697.72101
723.0 0.001383 690.01587 697.82025
761.0 0.001314 689.96124 697.92450
782.0 0.001279 689.90643 698.03351
752.0 0.001330 689.85175 698.14813
735.0 0.001361 689.79724 698.26794
744.0 0.001344 689.74274 698.39337
744.0 0.001344 689.68848 698.52502
749.0 0.001335 689.63416 698.66241
736.0 0.001359 689.57965 698.80676
730.0 0.001370 689.52539 698.95752
746.0 0.001340 689.47137 699.11536
703.0 0.001422 689.41724 699.28076
691.0 0.001447 689.36310 699.45386
725.0 0.001379 689.30927 699.63489
716.0 0.001397 689.25549 699.82440
707.0 0.001414 689.20154 700.02277
709.0 0.001410 689.14789 700.23065
695.0 0.001439 689.09430 700.44824
701.0 0.001427 689.04065 700.67621
676.0 0.001479 688.98712 700.91486
655.0 0.001527 688.93372 701.16455
700.0 0.001429 688.88037 701.42657
717.0 0.001395 688.82690 701.70117
703.0 0.001422 688.77350 701.98883
720.0 0.001389 688.72034 702.29095
730.0 0.001370 688.66711 702.60742
714.0 0.001401 688.61407 702.93988
719.0 0.001391 688.56091 703.28894
707.0 0.001414 688.50806 703.65527
678.0 0.001475 688.45520 704.04059
696.0 0.001437 688.40216 704.44586
692.0 0.001445 688.34955 704.87213
670.0 0.001493 688.29694 705.32074
727.0 0.001376 688.24432 705.79395
726.0 0.001377 688.19159 706.29279
734.0 0.001362 688.13898 706.81927
719.0 0.001391 688.08679 707.37585
706.0 0.001416 688.03424 707.96423
733.0 0.001364 687.98187 708.58734
719.0 0.001391 687.92963 709.24792
711.0 0.001406 687.87750 709.94904
750.0 0.001333 687.82532 710.69434
739.0 0.001353 687.77295 711.48755
748.0 0.001337 687.72107 712.33289
728.0 0.001374 687.66925 713.23547
713.0 0.001403 687.61725 714.19989
736.0 0.001359 687.56537 715.23242
743.0 0.001346 687.51361 716.33948
760.0 0.001316 687.46185 717.52808
741.0 0.001350 687.41016 718.80609
737.0 0.001357 687.35846 720.18152
711.0 0.001406 687.30701 721.66443
688.0 0.001453 687.25543 723.26465
726.0 0.001377 687.20398 724.99298
736.0 0.001359 687.15265 726.86169
720.0 0.001389 687.10120 728.88324
708.0 0.001412 687.05011 731.07190
713.0 0.001403 686.99896 733.44208
738.0 0.001355 686.94775 736.00940
740.0 0.001351 686.89661 738.79041
748.0 0.001337 686.84558 741.80243
774.0 0.001292 686.79468 745.06287
764.0 0.001309 686.74353 748.58960
751.0 0.001332 686.69269 752.40015
740.0 0.001351 686.64197 756.51184
758.0 0.001319 686.59131 760.93976
774.0 0.001292 686.54053 765.69843
795.0 0.001258 686.48981 770.79791
797.0 0.001255 686.43921 776.24597
791.0 0.001264 686.38873 782.04486
803.0 0.001245 686.33820 788.19385
793.0 0.001261 686.28778 794.68695
780.0 0.001282 686.23749 801.51587
825.0 0.001212 686.18713 808.67090
811.0 0.001233 686.13684 816.14386
805.0 0.001242 686.08673 823.92999
802.0 0.001247 686.03644 832.03064
817.0 0.001224 685.98627 840.45306
839.0 0.001192 685.93622 849.20996
831.0 0.001203 685.88623 858.31366
838.0 0.001193 685.83636 867.77173
854.0 0.001171 685.78644 877.58026
878.0 0.001139 685.73657 887.71613
870.0 0.001149 685.68658 898.13196
869.0 0.001151 685.63684 908.75598
880.0 0.001136 685.58722 919.48969
915.0 0.001093 685.53772 930.21729
934.0 0.001071 685.48792 940.81329
923.0 0.001083 685.43842 951.15552
904.0 0.001106 685.38873 961.13739
921.0 0.001086 685.33929 970.67981
907.0 0.001103 685.28992 979.73572
896.0 0.001116 685.24048 988.28827
945.0 0.001058 685.19135 996.34485
948.0 0.001055 685.14215 1003.92554
957.0 0.001045 685.09265 1011.04919
957.0 0.001045 685.04358 1017.72198
948.0 0.001055 684.99438 1023.92834
953.0 0.001049 684.94537 1029.62451
938.0 0.001066 684.89630 1034.73840
931.0 0.001074 684.84735 1039.17004
965.0 0.001036 684.79852 1042.79590
946.0 0.001057 684.74927 1045.47729
948.0 0.001055 684.70050 1047.07324
941.0 0.001063 684.65179 1047.45215
929.0 0.001076 684.60303 1046.51160
929.0 0.001076 684.55420 1044.19324
938.0 0.001066 684.50555 1040.49670
949.0 0.001054 684.45691 1035.48804
960.0 0.001042 684.40808 1029.29590
957.0 0.001045 684.35968 1022.10352
938.0 0.001066 684.31122 1014.12805
917.0 0.001091 684.26263 1005.59705
940.0 0.001064 684.21436 996.72607
938.0 0.001066 684.16602 987.69849
958.0 0.001044 684.11768 978.65125
961.0 0.001041 684.06952 969.67023
948.0 0.001055 684.02100 960.79156
991.0 0.001009 683.97284 952.00720
966.0 0.001035 683.92462 943.27466
899.0 0.001112 683.87640 934.52905
946.0 0.001057 683.82837 925.69385
914.0 0.001094 683.78040 916.69403
884.0 0.001131 683.73230 907.46698
850.0 0.001176 683.68451 897.97675
840.0 0.001190 683.63611 888.22009
826.0 0.001211 683.58832 878.23029
814.0 0.001229 683.54053 868.07556
812.0 0.001232 683.49268 857.84967
795.0 0.001258 683.44482 847.66119
815.0 0.001227 683.39728 837.62140
774.0 0.001292 683.34943 827.83319
743.0 0.001346 683.30182 818.38470
787.0 0.001271 683.25409 809.34521
802.0 0.001247 683.20630 800.76465
800.0 0.001250 683.15887 792.67438
772.0 0.001295 683.11133 785.09045
766.0 0.001305 683.06396 778.01581
775.0 0.001290 683.01636 771.44373
783.0 0.001277 682.96887 765.35986
753.0 0.001328 682.92163 759.74438
760.0 0.001316 682.87421 754.57428
753.0 0.001328 682.82678 749.82410
740.0 0.001351 682.77960 745.46649
723.0 0.001383 682.73218 741.47437
707.0 0.001414 682.68512 737.82025
696.0 0.001437 682.63788 734.47729
703.0 0.001422 682.59070 731.41882
714.0 0.001401 682.54358 728.62042
721.0 0.001387 682.49652 726.05798
715.0 0.001399 682.44934 723.70929
681.0 0.001468 682.40216 721.55377
672.0 0.001488 682.35535 719.57196
726.0 0.001377 682.30811 717.74646
737.0 0.001357 682.26147 716.06085
754.0 0.001326 682.21423 714.50140
732.0 0.001366 682.16730 713.05450
718.0 0.001393 682.12048 711.70868
713.0 0.001403 682.07373 710.45337
672.0 0.001488 682.02698 709.27985
650.0 0.001538 681.98016 708.17999
694.0 0.001441 681.93341 707.14655
726.0 0.001377 681.88660 708.26251
710.0 0.001408 681.83984 707.37445
691.0 0.001447 681.79315 706.53687
701.0 0.001427 681.74658 705.74561
713.0 0.001403 681.69995 704.99689
720.0 0.001389 681.65350 704.28735
713.0 0.001403 681.60675 703.61401
717.0 0.001395 681.56036 702.97467
725.0 0.001379 681.51367 702.36664
714.0 0.001401 681.46722 701.78778
705.0 0.001418 681.42072 701.23657
728.0 0.001374 681.37427 700.71106
716.0 0.001397 681.32776 700.20984
748.0 0.001337 681.28131 699.73132
752.0 0.001330 681.23480 699.27411
720.0 0.001389 681.18878 698.83771
728.0 0.001374 681.14233 698.42059
702.0 0.001425 681.09601 698.02142
684.0 0.001462 681.04980 697.63983
723.0 0.001383 681.00342 697.27478
743.0 0.001346 680.95715 696.92535
750.0 0.001333 680.91083 696.59113
717.0 0.001395 680.86475 696.27124
697.0 0.001435 680.81860 695.96472
716.0 0.001397 680.77234 695.67139
740.0 0.001351 680.72595 695.39105
747.0 0.001339 680.67987 695.12250
715.0 0.001399 680.63397 694.86560
710.0 0.001408 680.58765 694.61993
674.0 0.001484 680.54187 694.38531
660.0 0.001515 680.49554 694.16101
707.0 0.001414 680.44958 693.94641
725.0 0.001379 680.40344 693.74200
730.0 0.001370 680.35754 693.54706
715.0 0.001399 680.31146 693.36121
707.0 0.001414 680.26538 693.18433
706.0 0.001416 680.21948 693.01636
685.0 0.001460 680.17358 692.85687
669.0 0.001495 680.12769 692.70593
701.0 0.001427 680.08197 692.56299
694.0 0.001441 680.03577 692.42828
683.0 0.001464 679.99005 692.30157
653.0 0.001531 679.94403 692.18256
686.0 0.001458 679.89825 692.07153
715.0 0.001399 679.85248 691.96802
697.0 0.001435 679.80634 691.87219
697.0 0.001435 679.76080 691.78394
674.0 0.001484 679.71484 691.70343
674.0 0.001484 679.66907 691.63043
659.0 0.001517 679.62329 691.56494
645.0 0.001550 679.57770 691.50696
697.0 0.001435 679.53180 691.45679
694.0 0.001441 679.48590 691.41425
689.0 0.001451 679.44006 691.37952
686.0 0.001458 679.39465 691.35278
687.0 0.001456 679.34875 691.33380
690.0 0.001449 679.30292 691.32324
682.0 0.001466 679.25726 691.32086
659.0 0.001517 679.21167 691.32684
674.0 0.001484 679.16608 691.34155
680.0 0.001471 679.12006 691.36517
667.0 0.001499 679.07446 691.39795
671.0 0.001490 679.02887 691.44006
655.0 0.001527 678.98322 691.49207
657.0 0.001522 678.93774 691.55396
671.0 0.001490 678.89191 691.62646
675.0 0.001481 678.84613 691.70984
670.0 0.001493 678.80078 691.80408
692.0 0.001445 678.75507 691.91040
666.0 0.001502 678.70929 692.02924
660.0 0.001515 678.66364 692.16064
726.0 0.001377 678.61810 692.30585
713.0 0.001403 678.57245 692.46497
696.0 0.001437 678.52679 692.63959
668.0 0.001497 678.48114 692.82977
652.0 0.001534 678.43579 693.03705
685.0 0.001460 678.38995 693.26257
703.0 0.001422 678.34448 693.50720
684.0 0.001462 678.29877 693.77277
700.0 0.001429 678.25336 694.06073
694.0 0.001441 678.20758 694.37311
706.0 0.001416 678.16193 694.71143
676.0 0.001479 678.11639 695.07867
692.0 0.001445 678.07080 695.47748
701.0 0.001427 678.02527 695.91077
751.0 0.001332 677.97974 696.38263
748.0 0.001337 677.93396 696.89673
749.0 0.001335 677.88849 697.45801
728.0 0.001374 677.84290 698.07184
693.0 0.001443 677.79724 698.74432
687.0 0.001456 677.75171 699.48230
719.0 0.001391 677.70612 700.29364
711.0 0.001406 677.66052 701.18719
717.0 0.001395 677.61469 702.17261
699.0 0.001431 677.56927 703.26074
710.0 0.001408 677.52350 704.46326
749.0 0.001335 677.47791 705.79315
739.0 0.001353 677.43250 707.26544
738.0 0.001355 677.38666 708.89484
750.0 0.001333 677.34100 710.69843
738.0 0.001355 677.29547 712.69385
755.0 0.001325 677.25000 714.89972
762.0 0.001312 677.20422 717.33704
758.0 0.001319 677.15839 720.02527
758.0 0.001319 677.11285 722.98669
753.0 0.001328 677.06726 726.24329
745.0 0.001342 677.02161 729.81555
741.0 0.001350 676.97583 733.72504
744.0 0.001344 676.93005 737.99072
737.0 0.001357 676.88452 742.62915
715.0 0.001399 676.83862 747.65344
747.0 0.001339 676.79303 753.07159
755.0 0.001325 676.74744 758.88556
792.0 0.001263 676.70160 765.09137
778.0 0.001285 676.65576 771.67865
753.0 0.001328 676.61023 778.63110
804.0 0.001244 676.56439 785.92969
778.0 0.001285 676.51855 793.55573
786.0 0.001272 676.47278 798.95648
854.0 0.001171 676.42700 807.22711
882.0 0.001134 676.38123 815.79761
859.0 0.001164 676.33539 824.66980
833.0 0.001200 676.28949 833.84235
832.0 0.001202 676.24365 843.30457
863.0 0.001159 676.19800 853.02527
891.0 0.001122 676.15204 862.94806
855.0 0.001170 676.10608 872.98401
838.0 0.001193 676.06018 883.01123
869.0 0.001151 676.01440 892.88336
869.0 0.001151 675.96851 902.43774
834.0 0.001199 675.92249 911.51471
910.0 0.001099 675.87628 919.97479
939.0 0.001065 675.83069 927.71265
944.0 0.001059 675.78473 934.66852
936.0 0.001068 675.73853 940.82275
935.0 0.001070 675.69269 946.18683
936.0 0.001068 675.64648 950.78259
915.0 0.001093 675.60065 954.62427
924.0 0.001082 675.55426 957.70178
970.0 0.001031 675.50830 959.97211
940.0 0.001064 675.46216 961.35779
929.0 0.001076 675.41620 961.75244
893.0 0.001120 675.37000 961.03259
886.0 0.001129 675.32391 959.06940
859.0 0.001164 675.27759 955.74591
857.0 0.001167 675.23163 950.97443
853.0 0.001172 675.18530 944.71283
850.0 0.001176 675.13892 936.97949
851.0 0.001175 675.09277 927.86151
823.0 0.001215 675.04633 917.51166
780.0 0.001282 675.00018 906.13910
830.0 0.001205 674.95398 893.98907
817.0 0.001224 674.90753 881.32233
810.0 0.001235 674.86127 868.39435
803.0 0.001245 674.81488 855.43738
793.0 0.001261 674.76855 842.65381
815.0 0.001227 674.72217 830.20868
775.0 0.001290 674.67560 818.23126
750.0 0.001333 674.62939 806.81677
772.0 0.001295 674.58258 796.03174
767.0 0.001304 674.53619 785.91760
757.0 0.001321 674.48944 776.49579
728.0 0.001374 674.44293 767.77203
721.0 0.001387 674.39648 759.73785
739.0 0.001353 674.34991 752.37592
769.0 0.001300 674.30328 745.65948
741.0 0.001350 674.25665 739.55774
729.0 0.001372 674.20972 734.03448
747.0 0.001339 674.16333 729.05078
705.0 0.001418 674.11633 724.56561
674.0 0.001484 674.06970 720.53845
731.0 0.001368 674.02295 716.92780
719.0 0.001391 673.97595 713.69397
708.0 0.001412 673.92920 710.79932
692.0 0.001445 673.88239 708.20667
673.0 0.001486 673.83527 705.88287
686.0 0.001458 673.78833 703.79669
669.0 0.001495 673.74127 701.91974
675.0 0.001481 673.69440 700.22656
710.0 0.001408 673.64728 698.69391
711.0 0.001406 673.60046 697.30188
698.0 0.001433 673.55328 696.03271
674.0 0.001484 673.50604 694.87091
667.0 0.001499 673.45911 693.80304
670.0 0.001493 673.41199 692.81775
673.0 0.001486 673.36475 691.90472
681.0 0.001468 673.31757 691.05560
684.0 0.001462 673.27008 690.26318
687.0 0.001456 673.22284 689.52130
668.0 0.001497 673.17535 688.82483
661.0 0.001513 673.12823 688.16858
711.0 0.001406 673.08075 687.54956
709.0 0.001410 673.03314 686.96381
724.0 0.001381 672.98578 686.40857
695.0 0.001439 672.93842 685.88135
671.0 0.001490 672.89087 685.37982
708.0 0.001412 672.84332 684.90192
700.0 0.001429 672.79565 684.44604
662.0 0.001511 672.74780 684.01080
711.0 0.001406 672.70050 683.59454
701.0 0.001427 672.65253 683.19604
695.0 0.001439 672.60480 682.81451
675.0 0.001481 672.55725 682.44812
669.0 0.001495 672.50916 682.09656
690.0 0.001449 672.46143 681.75854
698.0 0.001433 672.41357 681.43384
685.0 0.001460 672.36548 681.12073
668.0 0.001497 672.31775 680.81940
690.0 0.001449 672.26965 680.52869
634.0 0.001577 672.22150 680.24823
615.0 0.001626 672.17340 679.97754
676.0 0.001479 672.12537 679.71570
688.0 0.001453 672.07727 679.46246
677.0 0.001477 672.02899 679.21747
672.0 0.001488 671.98083 678.98029
663.0 0.001508 671.93237 678.75024
675.0 0.001481 671.88403 678.52716
666.0 0.001502 671.83582 678.31079
652.0 0.001534 671.78754 678.10059
694.0 0.001441 671.73889 677.89612
685.0 0.001460 671.69049 677.69769
705.0 0.001418 671.64203 677.50446
675.0 0.001481 671.59344 677.31635
658.0 0.001520 671.54486 677.13300
662.0 0.001511 671.49634 676.95435
658.0 0.001520 671.44745 676.78040
656.0 0.001524 671.39880 676.61023
662.0 0.001511 671.35016 676.44446
671.0 0.001490 671.30127 676.28235
639.0 0.001565 671.25226 676.12396
615.0 0.001626 671.20349 675.96918
675.0 0.001481 671.15436 675.81781
695.0 0.001439 671.10541 675.66968
701.0 0.001427 671.05640 675.52454
685.0 0.001460 671.00739 675.38239
666.0 0.001502 670.95825 675.24304
667.0 0.001499 670.90906 675.10638
646.0 0.001548 670.85999 674.97241
626.0 0.001597 670.81067 674.84094
695.0 0.001439 670.76135 674.71198
719.0 0.001391 670.71204 674.58514
697.0 0.001435 670.66278 674.46027
663.0 0.001508 670.61322 674.33807
660.0 0.001515 670.56360 674.21759
670.0 0.001493 670.51398 674.09900
673.0 0.001486 670.46460 673.98230
673.0 0.001486 670.41498 673.86761
673.0 0.001486 670.36517 673.75446
683.0 0.001464 670.31567 673.64331
639.0 0.001565 670.26593 673.53357
609.0 0.001642 670.21594 673.42548
663.0 0.001508 670.16589 673.31891
682.0 0.001466 670.11615 673.21344
684.0 0.001462 670.06616 673.10974
662.0 0.001511 670.01617 673.00714
640.0 0.001563 669.96613 672.90601
673.0 0.001486 669.91608 672.80603
664.0 0.001506 669.86572 672.70728
634.0 0.001577 669.81555 672.60962
683.0 0.001464 669.76532 672.51331
675.0 0.001481 669.71503 672.41791
667.0 0.001499 669.66449 672.32361
639.0 0.001565 669.61420 672.23022
628.0 0.001592 669.56354 672.13800
655.0 0.001527 669.51300 672.04669
668.0 0.001497 669.46234 671.95624
673.0 0.001486 669.41180 671.86658
667.0 0.001499 669.36127 671.77789
662.0 0.001511 669.31049 671.68994
653.0 0.001531 669.25970 671.60284
618.0 0.001618 669.20886 671.51666
659.0 0.001517 669.15790 671.43091
678.0 0.001475 669.10699 671.34601
673.0 0.001486 669.05603 671.26196
649.0 0.001541 669.00488 671.17847
642.0 0.001558 668.95374 671.09552
656.0 0.001524 668.90247 671.01312
628.0 0.001592 668.85150 670.93164
615.0 0.001626 668.80017 670.85083
669.0 0.001495 668.74872 670.77026
679.0 0.001473 668.69751 670.69067
668.0 0.001497 668.64594 670.61108
660.0 0.001515 668.59448 668.59845
666.0 0.001502 668.54285 668.54718
695.0 0.001439 668.49127 668.49548
695.0 0.001439 668.43988 668.44366
683.0 0.001464 668.38788 668.39191
675.0 0.001481 668.33606 668.34021
684.0 0.001462 668.28424 668.28815
644.0 0.001553 668.23248 668.23639
622.0 0.001608 668.18036 668.18445
669.0 0.001495 668.12817 668.13232
681.0 0.001468 668.07629 668.08020
694.0 0.001441 668.02411 668.02808
682.0 0.001466 667.97192 667.97577
677.0 0.001477 667.91962 667.92352
707.0 0.001414 667.86737 667.87140
688.0 0.001453 667.81506 667.81885
658.0 0.001520 667.76251 667.76630
686.0 0.001458 667.71002 667.71375
699.0 0.001431 667.65765 667.66107
677.0 0.001477 667.60492 667.60852
663.0 0.001508 667.55212 667.55597
655.0 0.001527 667.49945 667.50311
654.0 0.001529 667.44666 667.45032
682.0 0.001466 667.39374 667.39734
705.0 0.001418 667.34100 667.34436
670.0 0.001493 667.28802 667.29156
692.0 0.001445 667.23505 667.23846
654.0 0.001529 667.18182 667.18518
618.0 0.001618 667.12878 667.13220
659.0 0.001517 667.07544 667.07861
648.0 0.001543 667.02216 667.02545
640.0 0.001563 666.96875 666.97229
645.0 0.001550 666.91528 666.91852
637.0 0.001570 666.86212 666.86505
666.0 0.001502 666.80841 666.81158
674.0 0.001484 666.75482 666.75806
638.0 0.001567 666.70105 666.70428
679.0 0.001473 666.64716 666.65057
661.0 0.001513 666.59363 666.59656
673.0 0.001486 666.53973 666.54297
642.0 0.001558 666.48578 666.48877
655.0 0.001527 666.43188 666.43481
679.0 0.001473 666.37775 666.38068
667.0 0.001499 666.32336 666.32678
670.0 0.001493 666.26959 666.27234
648.0 0.001543 666.21521 666.21820
653.0 0.001531 666.16071 666.16376
614.0 0.001629 666.10663 666.10938
614.0 0.001629 666.05212 666.05505
703.0 0.001422 665.99768 666.00031
692.0 0.001445 665.94305 665.94586
672.0 0.001488 665.88843 665.89111
659.0 0.001517 665.83380 665.83618
665.0 0.001504 665.77899 665.78149
663.0 0.001508 665.72406 665.72681
653.0 0.001531 665.66925 665.67163
621.0 0.001610 665.61407 665.61682
656.0 0.001524 665.55927 665.56171
678.0 0.001475 665.50421 665.50659
663.0 0.001508 665.44910 665.45111
661.0 0.001513 665.39362 665.39642
635.0 0.001575 665.33838 665.34088
647.0 0.001546 665.28296 665.28546
668.0 0.001497 665.22778 665.22998
661.0 0.001513 665.17218 665.17444
659.0 0.001517 665.11658 665.11890
656.0 0.001524 665.06097 665.06323
622.0 0.001608 665.00513 665.00739
625.0 0.001600 664.94965 664.95135
673.0 0.001486 664.89343 664.89557
673.0 0.001486 664.83752 664.83984
674.0 0.001484 664.78149 664.78387
655.0 0.001527 664.72559 664.72772
652.0 0.001534 664.66937 664.67139
660.0 0.001515 664.61322 664.61517
649.0 0.001541 664.55707 664.55902
639.0 0.001565 664.50055 664.50256
669.0 0.001495 664.44421 664.44611
665.0 0.001504 664.38776 664.38959
652.0 0.001534 664.33112 664.33295
628.0 0.001592 664.27454 664.27637
643.0 0.001555 664.21802 664.21960
663.0 0.001508 664.16113 664.16278
664.0 0.001506 664.10431 664.10583
661.0 0.001513 664.04742 664.04913
652.0 0.001534 663.99030 663.99219
644.0 0.001553 663.93341 663.93494
622.0 0.001608 663.87634 663.87793
588.0 0.001701 663.81897 663.82056
644.0 0.001553 663.76172 663.76337
667.0 0.001499 663.70453 663.70587
668.0 0.001497 663.64703 663.64856
631.0 0.001585 663.58966 663.59088
634.0 0.001577 663.53223 663.53339
669.0 0.001495 663.47449 663.47565
641.0 0.001560 663.41669 663.41815
616.0 0.001623 663.35889 663.36017
639.0 0.001565 663.30103 663.30237
643.0 0.001555 663.24335 663.24451
643.0 0.001555 663.18536 663.18634
628.0 0.001592 663.12726 663.12823
619.0 0.001616 663.06897 663.07013
632.0 0.001582 663.01093 663.01190
642.0 0.001558 662.95258 662.95367
634.0 0.001577 662.89417 662.89502
618.0 0.001618 662.83582 662.83655
644.0 0.001553 662.77716 662.77814
614.0 0.001629 662.71863 662.71967
579.0 0.001727 662.66003 662.66095
609.0 0.001642 662.60132 662.60217
604.0 0.001656 662.54254 662.54321
627.0 0.001595 662.48370 662.48438
608.0 0.001645 662.42474 662.42535
607.0 0.001647 662.36560 662.36627
631.0 0.001585 662.30658 662.30719
632.0 0.001582 662.24750 662.24811
617.0 0.001621 662.18817 662.18878
654.0 0.001529 662.12866 662.12946
654.0 0.001529 662.06952 662.06982
644.0 0.001553 662.01025 662.01056
617.0 0.001621 661.95044 661.95099
624.0 0.001603 661.89081 661.89136
622.0 0.001608 661.83124 661.83148
638.0 0.001567 661.77155 661.77167
626.0 0.001597 661.71161 661.71191
626.0 0.001597 661.65149 661.65192
645.0 0.001550 661.59161 661.59192
612.0 0.001634 661.53137 661.53180
584.0 0.001712 661.47150 661.47168
631.0 0.001585 661.41113 661.41119
646.0 0.001548 661.35083 661.35101
648.0 0.001543 661.29034 661.29034
636.0 0.001572 661.22998 661.23016
617.0 0.001621 661.16943 661.16962
644.0 0.001553 661.10870 661.10870
613.0 0.001631 661.04791 661.04810
581.0 0.001721 660.98724 660.98724
625.0 0.001600 660.92645 660.92639
646.0 0.001548 660.86560 660.86548
667.0 0.001499 660.80469 660.80432
629.0 0.001590 660.74359 660.74335
625.0 0.001600 660.68237 660.68225
638.0 0.001567 660.62109 660.62085
638.0 0.001567 660.55975 660.55969
616.0 0.001623 660.49841 660.49799
628.0 0.001592 660.43695 660.43665
640.0 0.001563 660.37549 660.37500
603.0 0.001658 660.31366 660.31335
581.0 0.001721 660.25195 660.25171
618.0 0.001618 660.19025 660.18988
634.0 0.001577 660.12842 660.12781
645.0 0.001550 660.06653 660.06610
642.0 0.001558 660.00470 660.00397
613.0 0.001631 659.94250 659.94177
625.0 0.001600 659.88037 659.87964
631.0 0.001585 659.81799 659.81744
618.0 0.001618 659.75574 659.75488
667.0 0.001499 659.69330 659.69244
670.0 0.001493 659.63062 659.63000
667.0 0.001499 659.56824 659.56744
642.0 0.001558 659.50537 659.50488
642.0 0.001558 659.44281 659.44208
648.0 0.001543 659.38013 659.37915
652.0 0.001534 659.31714 659.31622
656.0 0.001524 659.25415 659.25317
640.0 0.001563 659.19122 659.19043
653.0 0.001531 659.12799 659.12708
618.0 0.001618 659.06488 659.06372
594.0 0.001684 659.00159 659.00049
648.0 0.001543 658.93817 658.93719
662.0 0.001511 658.87488 658.87360
647.0 0.001546 658.81152 658.81024
643.0 0.001555 658.74774 658.74652
639.0 0.001565 658.68396 658.68298
641.0 0.001560 658.62036 658.61920
635.0 0.001575 658.55652 658.55536
623.0 0.001605 658.49243 658.49127
665.0 0.001504 658.42859 658.42719
660.0 0.001515 658.36450 658.36316
644.0 0.001553 658.30023 658.29901
631.0 0.001585 658.23621 658.23468
633.0 0.001580 658.17175 658.17029
630.0 0.001587 658.10748 658.10596
637.0 0.001570 658.04303 658.04169
655.0 0.001527 657.97845 657.97687
656.0 0.001524 657.91394 657.91223
673.0 0.001486 657.84918 657.84753
659.0 0.001517 657.78448 657.78278
607.0 0.001647 657.71954 657.71783
648.0 0.001543 657.65442 657.65295
676.0 0.001479 657.58966 657.58783
698.0 0.001433 657.52466 657.52289
688.0 0.001453 657.45917 657.45758
676.0 0.001479 657.39392 657.39227
674.0 0.001484 657.32861 657.32690
647.0 0.001546 657.26331 657.26135
632.0 0.001582 657.19775 657.19574
670.0 0.001493 657.13208 657.13019
675.0 0.001481 657.06659 657.06439
681.0 0.001468 657.00085 656.99878
666.0 0.001502 656.93506 656.93286
661.0 0.001513 656.86896 656.86694
691.0 0.001447 656.80298 656.80084
701.0 0.001427 656.73688 656.73480
683.0 0.001464 656.67096 656.66876
674.0 0.001484 656.60468 656.60254
683.0 0.001464 656.53845 656.53632
671.0 0.001490 656.47192 656.46960
664.0 0.001506 656.40552 656.40332
717.0 0.001395 656.33881 656.33636
695.0 0.001439 656.27234 656.27002
689.0 0.001451 656.20557 656.20313
690.0 0.001449 656.13873 656.13635
670.0 0.001493 656.07196 656.06952
685.0 0.001460 656.00494 656.00244
670.0 0.001493 655.93793 655.93549
686.0 0.001458 655.87091 655.86853
718.0 0.001393 655.80359 655.80103
720.0 0.001389 655.73639 655.73389
704.0 0.001420 655.66919 655.66644
674.0 0.001484 655.60162 655.59906
663.0 0.001508 655.53394 655.53137
674.0 0.001484 655.46643 655.46375
670.0 0.001493 655.39886 655.39594
669.0 0.001495 655.33105 655.32831
652.0 0.001534 655.26318 655.26056
671.0 0.001490 655.19513 655.19244
654.0 0.001529 655.12732 655.12451
614.0 0.001629 655.05914 655.05640
656.0 0.001524 654.99115 654.98816
657.0 0.001522 654.92279 654.92010
677.0 0.001477 654.85461 654.85150
655.0 0.001527 654.78601 654.78333
639.0 0.001565 654.71783 654.71460
667.0 0.001499 654.64911 654.64618
650.0 0.001538 654.58032 654.57739
638.0 0.001567 654.51178 654.50873
667.0 0.001499 654.44305 654.43964
652.0 0.001534 654.37390 654.37085
670.0 0.001493 654.30505 654.30206
657.0 0.001522 654.23602 654.23285
677.0 0.001477 654.16705 654.16357
666.0 0.001502 654.09790 654.09448
659.0 0.001517 654.02838 654.02515
651.0 0.001536 653.95898 653.95575
655.0 0.001527 653.88959 653.88623
672.0 0.001488 653.82013 653.81683
650.0 0.001538 653.75043 653.74701
610.0 0.001639 653.68079 653.67749
666.0 0.001502 653.61133 653.60760
663.0 0.001508 653.54102 653.53778
658.0 0.001520 653.47150 653.46783
634.0 0.001577 653.40125 653.39771
633.0 0.001580 653.33118 653.32776
654.0 0.001529 653.26105 653.25757
643.0 0.001555 653.19080 653.18732
635.0 0.001575 653.12042 653.11688
674.0 0.001484 653.05005 653.04651
667.0 0.001499 652.97955 652.97601
655.0 0.001527 652.90918 652.90546
644.0 0.001553 652.83856 652.83484
639.0 0.001565 652.76764 652.76404
648.0 0.001543 652.69684 652.69318
652.0 0.001534 652.62604 652.62244
653.0 0.001531 652.55518 652.55133
671.0 0.001490 652.48407 652.48041
670.0 0.001493 652.41290 652.40912
636.0 0.001572 652.34174 652.33783
609.0 0.001642 652.27051 652.26654
661.0 0.001513 652.19910 652.19537
685.0 0.001460 652.12762 652.12384
680.0 0.001471 652.05615 652.05237
683.0 0.001464 651.98462 651.98041
661.0 0.001513 651.91290 654.31189
700.0 0.001429 651.84106 654.26721
685.0 0.001460 651.76941 654.22278
655.0 0.001527 651.69751 654.17889
690.0 0.001449 651.62543 654.13525
691.0 0.001447 651.55353 654.09204
687.0 0.001456 651.48132 654.04919
667.0 0.001499 651.40894 654.00690
665.0 0.001504 651.33679 653.96490
670.0 0.001493 651.26434 653.92352
709.0 0.001410 651.19202 653.88245
699.0 0.001431 651.11938 653.84204
682.0 0.001466 651.04675 653.80206
677.0 0.001477 650.97412 653.76245
673.0 0.001486 650.90143 653.72339
680.0 0.001471 650.82861 653.68506
723.0 0.001383 650.75562 653.64716
737.0 0.001357 650.68262 653.60986
739.0 0.001353 650.60962 653.57324
725.0 0.001379 650.53644 653.53693
683.0 0.001464 650.46307 653.50134
688.0 0.001453 650.38983 653.46637
683.0 0.001464 650.31647 653.43243
670.0 0.001493 650.24304 653.39868
677.0 0.001477 650.16937 653.36578
674.0 0.001484 650.09583 653.33374
665.0 0.001504 650.02209 653.30225
669.0 0.001495 649.94836 653.27179
666.0 0.001502 649.87439 653.24182
674.0 0.001484 649.80048 653.21277
685.0 0.001460 649.72656 653.18451
682.0 0.001466 649.65265 653.15717
680.0 0.001471 649.57831 653.13062
705.0 0.001418 649.50409 653.10510
652.0 0.001534 649.42981 653.08020
625.0 0.001600 649.35535 653.05658
658.0 0.001520 649.28101 653.03375
677.0 0.001477 649.20618 653.01190
689.0 0.001451 649.13171 652.99127
675.0 0.001481 649.05707 652.97186
656.0 0.001524 648.98230 652.95313
695.0 0.001439 648.90741 652.93573
661.0 0.001513 648.83240 652.91956
636.0 0.001572 648.75769 652.90460
694.0 0.001441 648.68237 652.89069
691.0 0.001447 648.60742 652.87842
686.0 0.001458 648.53217 652.86737
664.0 0.001506 648.45691 652.85767
645.0 0.001550 648.38141 652.84937
652.0 0.001534 648.30597 652.84253
654.0 0.001529 648.23035 652.83722
651.0 0.001536 648.15485 652.83337
653.0 0.001531 648.07916 652.83136
664.0 0.001506 648.00336 652.83069
653.0 0.001531 647.92755 652.83215
622.0 0.001608 647.85156 652.83514
664.0 0.001506 647.77551 652.83966
653.0 0.001531 647.69952 652.84650
676.0 0.001479 647.62354 652.85522
668.0 0.001497 647.54742 652.86609
671.0 0.001490 647.47101 652.87872
683.0 0.001464 647.39471 652.89404
663.0 0.001508 647.31836 652.91107
650.0 0.001538 647.24200 652.93097
685.0 0.001460 647.16528 652.95282
680.0 0.001471 647.08862 652.97742
678.0 0.001475 647.01172 653.00476
673.0 0.001486 646.93512 653.03442
665.0 0.001504 646.85822 653.06720
677.0 0.001477 646.78149 653.10272
675.0 0.001481 646.70428 653.14099
665.0 0.001504 646.62720 653.18280
657.0 0.001522 646.55029 653.22766
661.0 0.001513 646.47284 653.27594
647.0 0.001546 646.39557 653.32764
629.0 0.001590 646.31830 653.38281
693.0 0.001443 646.24084 653.44189
709.0 0.001410 646.16321 653.50513
687.0 0.001456 646.08563 653.57208
670.0 0.001493 646.00793 653.64331
658.0 0.001520 645.93030 653.71924
678.0 0.001475 645.85254 653.79944
654.0 0.001529 645.77454 653.88440
616.0 0.001623 645.69659 653.97437
686.0 0.001458 645.61877 654.06946
684.0 0.001462 645.54053 654.17023
677.0 0.001477 645.46240 654.27655
638.0 0.001567 645.38422 654.38855
635.0 0.001575 645.30585 654.50702
646.0 0.001548 645.22760 654.63171
641.0 0.001560 645.14923 654.76306
643.0 0.001555 645.07050 654.90149
647.0 0.001546 644.99194 655.04736
658.0 0.001520 644.91357 655.20068
643.0 0.001555 644.83453 655.36249
611.0 0.001637 644.75598 655.53271
661.0 0.001513 644.67676 655.71167
663.0 0.001508 644.59802 655.89996
682.0 0.001466 644.51917 656.09869
659.0 0.001517 644.43994 656.30756
641.0 0.001560 644.36078 656.52747
646.0 0.001548 644.28156 656.75891
635.0 0.001575 644.20233 657.06586
634.0 0.001577 644.12299 657.32385
676.0 0.001479 644.04370 657.59570
684.0 0.001462 643.96405 657.88239
686.0 0.001458 643.88470 658.18494
664.0 0.001506 643.80493 658.50507
664.0 0.001506 643.72528 658.84314
677.0 0.001477 643.64551 659.20129
684.0 0.001462 643.56555 659.58026
689.0 0.001451 643.48584 659.98254
684.0 0.001462 643.40576 660.40930
656.0 0.001524 643.32587 660.86340
653.0 0.001531 643.24573 661.34625
638.0 0.001567 643.16565 661.86090
671.0 0.001490 643.08533 662.41003
671.0 0.001490 643.00507 662.99677
674.0 0.001484 642.92487 663.62506
669.0 0.001495 642.84418 664.29755
661.0 0.001513 642.76385 665.01898
677.0 0.001477 642.68329 665.79388
678.0 0.001475 642.60260 666.62708
651.0 0.001536 642.52191 667.52405
680.0 0.001471 642.44135 668.49005
685.0 0.001460 642.36035 669.53156
699.0 0.001431 642.27960 670.65582
678.0 0.001475 642.19867 671.86920
692.0 0.001445 642.11743 673.17975
681.0 0.001468 642.03656 674.59595
685.0 0.001460 641.95532 676.12616
671.0 0.001490 641.87408 677.77985
672.0 0.001488 641.79279 679.56659
693.0 0.001443 641.71143 681.49701
679.0 0.001473 641.63007 683.58167
655.0 0.001527 641.54871 685.83191
697.0 0.001435 641.46710 688.25940
720.0 0.001389 641.38538 690.87628
740.0 0.001351 641.30383 693.69495
725.0 0.001379 641.22229 696.72809
701.0 0.001427 641.14026 699.98871
717.0 0.001395 641.05853 703.48987
701.0 0.001427 640.97656 707.24438
733.0 0.001364 640.89471 711.26495
772.0 0.001295 640.81256 715.56354
744.0 0.001344 640.73053 720.15173
743.0 0.001346 640.64844 725.03955
748.0 0.001337 640.56604 730.23615
761.0 0.001314 640.48383 735.74768
785.0 0.001274 640.40143 741.57904
794.0 0.001259 640.31903 747.73083
789.0 0.001267 640.23669 754.20227
770.0 0.001299 640.15405 760.98615
779.0 0.001284 640.07159 768.07312
773.0 0.001294 639.98865 775.44855
760.0 0.001316 639.90613 783.09418
809.0 0.001236 639.82343 790.98798
825.0 0.001212 639.74036 799.10516
832.0 0.001202 639.65765 807.41974
846.0 0.001182 639.57452 815.90497
846.0 0.001182 639.49164 824.53638
843.0 0.001186 639.40857 833.29095
840.0 0.001190 639.32556 842.14972
848.0 0.001179 639.24225 851.09680
890.0 0.001124 639.15900 860.11975
904.0 0.001106 639.07562 869.20538
891.0 0.001122 638.99213 878.34155
910.0 0.001099 638.90887 887.51007
902.0 0.001109 638.82550 896.68573
944.0 0.001059 638.74188 905.83209
957.0 0.001045 638.65833 914.89935
964.0 0.001037 638.57458 923.82043
988.0 0.001012 638.49103 932.51093
990.0 0.001010 638.40698 940.86768
961.0 0.001041 638.32336 948.77002
940.0 0.001064 638.23950 956.08197
963.0 0.001038 638.15552 962.65771
954.0 0.001048 638.07166 968.34589
953.0 0.001049 637.98755 972.99860
947.0 0.001056 637.90326 976.47839
933.0 0.001072 637.81921 978.66803
930.0 0.001075 637.73505 979.47571
923.0 0.001083 637.65082 978.84491
905.0 0.001105 637.56647 976.75427
949.0 0.001054 637.48193 973.22058
963.0 0.001038 637.39752 968.29657
973.0 0.001028 637.31305 962.06726
951.0 0.001052 637.22839 954.64282
928.0 0.001078 637.14392 946.15448
929.0 0.001076 637.05920 936.74591
908.0 0.001101 636.97443 926.56732
900.0 0.001111 636.88947 915.77185
888.0 0.001126 636.80475 904.50787
888.0 0.001126 636.71997 892.91693
860.0 0.001163 636.63501 881.13086
818.0 0.001222 636.54987 869.26917
830.0 0.001205 636.46503 857.43884
831.0 0.001203 636.38000 845.73328
826.0 0.001211 636.29474 834.23279
834.0 0.001199 636.20972 823.00470
811.0 0.001233 636.12439 812.10394
829.0 0.001206 636.03912 801.57574
813.0 0.001230 635.95386 791.45490
773.0 0.001294 635.86841 781.76654
811.0 0.001233 635.78278 772.52985
820.0 0.001220 635.69727 763.75586
816.0 0.001225 635.61157 755.44971
798.0 0.001253 635.52612 747.61206
800.0 0.001250 635.44049 740.23883
798.0 0.001253 635.35480 733.32172
798.0 0.001253 635.26892 726.85028
793.0 0.001261 635.18311 720.81036
798.0 0.001253 635.09717 715.18665
793.0 0.001261 635.01129 709.96088
750.0 0.001333 634.92548 705.11469
738.0 0.001355 634.83954 700.62848
776.0 0.001289 634.75336 696.48132
774.0 0.001292 634.66711 692.65302
767.0 0.001304 634.58093 689.12292
788.0 0.001269 634.49493 685.87042
782.0 0.001279 634.40851 682.87567
796.0 0.001256 634.32251 680.11914
787.0 0.001271 634.23602 677.58240
785.0 0.001274 634.14972 675.24762
800.0 0.001250 634.06299 673.09784
785.0 0.001274 633.97668 671.11713
775.0 0.001290 633.88995 669.29126
789.0 0.001267 633.80353 667.60577
802.0 0.001247 633.71698 666.04858
820.0 0.001220 633.63019 664.60791
810.0 0.001235 633.54333 663.27332
821.0 0.001218 633.45660 662.03479
808.0 0.001238 633.36975 660.88403
825.0 0.001212 633.28290 659.81293
780.0 0.001282 633.19604 658.81500
752.0 0.001330 633.10913 657.88348
788.0 0.001269 633.02203 657.01337
767.0 0.001304 632.93500 656.19946
763.0 0.001311 632.84796 655.43732
760.0 0.001316 632.76086 654.72351
723.0 0.001383 632.67352 654.05469
735.0 0.001361 632.58649 653.42810
713.0 0.001403 632.49908 652.84106
683.0 0.001464 632.41193 652.29144
703.0 0.001422 632.32446 651.77722
725.0 0.001379 632.23712 651.29706
693.0 0.001443 632.14966 650.84949
664.0 0.001506 632.06207 650.43286
640.0 0.001563 631.97479 650.04645
664.0 0.001506 631.88702 649.68933
703.0 0.001422 631.79944 649.36029
694.0 0.001441 631.71185 649.05847
657.0 0.001522 631.62427 648.78308
667.0 0.001499 631.53632 648.53320
620.0 0.001613 631.44861 648.30792
604.0 0.001656 631.36090 648.10577
635.0 0.001575 631.27295 647.92651
641.0 0.001560 631.18518 647.76813
670.0 0.001493 631.09692 647.62982
655.0 0.001527 631.00909 647.51001
660.0 0.001515 630.92133 647.40759
658.0 0.001520 630.83307 647.32086
652.0 0.001534 630.74512 647.24860
641.0 0.001560 630.65668 647.19012
673.0 0.001486 630.56860 647.14349
685.0 0.001460 630.48047 647.10815
679.0 0.001473 630.39221 647.08319
654.0 0.001529 630.30389 647.06787
648.0 0.001543 630.21558 647.06079
642.0 0.001558 630.12732 647.06158
648.0 0.001543 630.03876 647.06860
650.0 0.001538 629.95032 647.08032
653.0 0.001531 629.86188 647.09448
664.0 0.001506 629.77356 647.10864
645.0 0.001550 629.68481 654.53046
623.0 0.001605 629.59637 654.64246
675.0 0.001481 629.50751 654.74591
667.0 0.001499 629.41882 654.83588
683.0 0.001464 629.33020 654.90802
686.0 0.001458 629.24139 654.95703
679.0 0.001473 629.15259 654.97815
689.0 0.001451 629.06390 654.96698
650.0 0.001538 628.97516 654.92065
640.0 0.001563 628.88611 654.83557
675.0 0.001481 628.79718 654.71100
681.0 0.001468 628.70837 654.54645
674.0 0.001484 628.61932 654.34283
648.0 0.001543 628.53027 654.10236
631.0 0.001585 628.44116 653.82837
663.0 0.001508 628.35223 653.52441
664.0 0.001506 628.26300 653.19501
668.0 0.001497 628.17389 652.84509
648.0 0.001543 628.08472 652.47931
642.0 0.001558 627.99567 652.10278
618.0 0.001618 627.90631 651.72021
602.0 0.001661 627.81708 651.33606
649.0 0.001541 627.72772 650.95453
632.0 0.001582 627.63831 650.57928
633.0 0.001580 627.54901 650.21381
620.0 0.001613 627.45953 673.71246
627.0 0.001595 627.37006 673.64111
638.0 0.001567 627.28070 673.59155
624.0 0.001603 627.19110 673.56561
612.0 0.001634 627.10162 673.56458
653.0 0.001531 627.01202 673.58990
657.0 0.001522 626.92236 673.64294
645.0 0.001550 626.83276 673.72375
616.0 0.001623 626.74292 673.83331
606.0 0.001650 626.65350 673.97198
605.0 0.001653 626.56378 674.14001
626.0 0.001597 626.47394 674.33759
648.0 0.001543 626.38416 674.56451
629.0 0.001590 626.29431 674.82104
630.0 0.001587 626.20453 675.10675
613.0 0.001631 626.11487 675.42169
588.0 0.001701 626.02496 675.76550
639.0 0.001565 625.93518 676.13818
648.0 0.001543 625.84521 676.53906
644.0 0.001553 625.75513 676.96875
635.0 0.001575 625.66528 677.42633
636.0 0.001572 625.57520 677.91205
641.0 0.001560 625.48511 678.42584
624.0 0.001603 625.39490 678.96741
615.0 0.001626 625.30505 679.53699
625.0 0.001600 625.21484 680.13470
615.0 0.001626 625.12457 680.76056
619.0 0.001616 625.03455 681.41504
631.0 0.001585 624.94421 682.09845
624.0 0.001603 624.85406 682.81116
621.0 0.001610 624.76373 683.55353
628.0 0.001592 624.67334 684.32660
675.0 0.001481 624.58319 685.13074
658.0 0.001520 624.49298 685.96704
663.0 0.001508 624.40253 686.83636
618.0 0.001618 624.31238 687.73999
603.0 0.001658 624.22174 688.67914
641.0 0.001560 624.13147 689.65503
641.0 0.001560 624.04095 690.66925
637.0 0.001570 623.95038 691.72382
657.0 0.001522 623.86005 692.82025
661.0 0.001513 623.76935 693.96118
670.0 0.001493 623.67896 695.14880
643.0 0.001555 623.58832 696.38599
636.0 0.001572 623.49774 697.67596
660.0 0.001515 623.40723 699.02167
660.0 0.001515 623.31671 700.42755
661.0 0.001513 623.22614 701.89752
647.0 0.001546 623.13550 703.43677
649.0 0.001541 623.04456 705.05060
659.0 0.001517 622.95392 706.74506
669.0 0.001495 622.86322 708.52722
670.0 0.001493 622.77271 710.40454
660.0 0.001515 622.68188 712.38574
682.0 0.001466 622.59106 714.48029
671.0 0.001490 622.50018 716.69916
636.0 0.001572 622.40955 719.05353
673.0 0.001486 622.31854 721.55676
712.0 0.001404 622.22772 724.22321
734.0 0.001362 622.13690 727.06830
716.0 0.001397 622.04602 730.10968
716.0 0.001397 621.95508 733.36609
713.0 0.001403 621.86414 736.85754
704.0 0.001420 621.77325 738.30768
697.0 0.001435 621.68207 742.36224
747.0 0.001339 621.59119 746.72290
755.0 0.001325 621.50043 751.41669
763.0 0.001311 621.40948 756.47266
756.0 0.001323 621.31830 761.92102
759.0 0.001318 621.22729 767.79456
742.0 0.001348 621.13635 774.12701
757.0 0.001321 621.04529 780.95380
798.0 0.001253 620.95404 788.31116
792.0 0.001263 620.86304 796.23792
809.0 0.001236 620.77173 804.77356
799.0 0.001252 620.68066 813.95740
790.0 0.001266 620.58948 823.83075
831.0 0.001203 620.49860 834.43469
838.0 0.001193 620.40723 845.81079
865.0 0.001156 620.31604 857.99792
875.0 0.001143 620.22498 871.03644
863.0 0.001159 620.13373 884.96283
881.0 0.001135 620.04242 899.81091
871.0 0.001148 619.95123 915.61017
882.0 0.001134 619.85999 932.38428
908.0 0.001101 619.76874 950.15076
949.0 0.001054 619.67743 968.91797
964.0 0.001037 619.58624 988.68445
948.0 0.001055 619.49469 1009.43713
983.0 0.001017 619.40363 1031.15125
1027.0 0.000974 619.31219 1053.78857
1051.0 0.000951 619.22101 1077.29968
1067.0 0.000937 619.12958 1101.62354
1072.0 0.000933 619.03821 1126.69092
1116.0 0.000896 618.94690 1152.42786
1111.0 0.000900 618.85559 1178.75818
1103.0 0.000907 618.76416 1205.60803
1182.0 0.000846 618.67261 1232.90771
1233.0 0.000811 618.58130 1260.59351
1259.0 0.000794 618.48987 1288.60583
1300.0 0.000769 618.39850 1316.88635
1343.0 0.000745 618.30701 1345.37183
1401.0 0.000714 618.21558 1373.98572
1410.0 0.000709 618.12421 1402.63306
1470.0 0.000680 618.03247 1431.18909
1496.0 0.000668 617.94122 1459.49243
1572.0 0.000636 617.84967 1487.34131
1575.0 0.000635 617.75842 1514.48853
1568.0 0.000638 617.66669 1540.64148
1619.0 0.000618 617.57513 1565.46887
1680.0 0.000595 617.48389 1588.60681
1704.0 0.000587 617.39227 1609.67395
1698.0 0.000589 617.30078 1628.28943
1768.0 0.000566 617.20911 1644.09399
1767.0 0.000566 617.11774 1656.77527
1712.0 0.000584 617.02625 1666.08801
1713.0 0.000584 616.93457 1671.87512
1764.0 0.000567 616.84296 1674.08032
1767.0 0.000566 616.75165 1672.75232
1792.0 0.000558 616.66016 1668.04504
1771.0 0.000565 616.56836 1660.20715
1785.0 0.000560 616.47687 1649.56689
1786.0 0.000560 616.38519 1636.51697
1741.0 0.000574 616.29364 1621.49512
1659.0 0.000603 616.20203 1604.96704
1668.0 0.000600 616.11060 1587.31262
1667.0 0.000600 616.01898 1569.20654
1675.0 0.000597 615.92743 1551.01501
1599.0 0.000625 615.83575 1533.18384
1576.0 0.000635 615.74432 1516.13379
1553.0 0.000644 615.65247 1500.25671
1551.0 0.000645 615.56134 1485.91357
1536.0 0.000651 615.46954 1473.43506
1551.0 0.000645 615.37787 1463.12183
1580.0 0.000633 615.28619 1455.24622
1633.0 0.000612 615.19464 1450.05408
1614.0 0.000620 615.10303 1447.76697
1675.0 0.000597 615.01129 1448.58423
1654.0 0.000605 614.91968 1452.68335
1661.0 0.000602 614.82819 1460.22473
1647.0 0.000607 614.73676 1471.34961
1689.0 0.000592 614.64508 1486.18335
1716.0 0.000583 614.55334 1504.83411
1749.0 0.000572 614.46179 1527.39563
1781.0 0.000561 614.37018 1553.94409
1856.0 0.000539 614.27856 1584.54004
1868.0 0.000535 614.18701 1619.22559
1899.0 0.000527 614.09546 1658.02429
1963.0 0.000509 614.00372 1700.93811
2034.0 0.000492 613.91205 1747.94531
2064.0 0.000484 613.82043 1798.99829
2103.0 0.000476 613.72882 1854.02002
2120.0 0.000472 613.63727 1912.90210
2150.0 0.000465 613.54559 1975.50183
2221.0 0.000450 613.45392 2041.64172
2220.0 0.000450 613.36273 2111.10767
2291.0 0.000436 613.27094 2183.65234
2370.0 0.000422 613.17920 2258.99609
2447.0 0.000409 613.08783 2336.83618
2507.0 0.000399 612.99615 2416.84863
2557.0 0.000391 612.90460 2498.70117
2603.0 0.000384 612.81299 2582.05762
2769.0 0.000361 612.72131 2666.58740
2800.0 0.000357 612.62982 2751.96875
2816.0 0.000355 612.53827 2837.88892
2918.0 0.0003427 612.44653 2924.03955
2933.0 0.0003409 612.35516 3010.10571
3013.0 0.0003319 612.26355 3095.75269
3098.0 0.0003228 612.17206 3180.60645
3116.0 0.0003209 612.08051 3264.23242
3166.0 0.0003159 611.98895 3346.11938
3269.0 0.0003059 611.89740 3425.65771
3356.0 0.0002980 611.80603 3502.13208
3429.0 0.0002916 611.71454 3574.71484
3461.0 0.0002889 611.62286 3642.47437
3480.0 0.0002874 611.53156 3704.39160
3512.0 0.0002847 611.43988 3759.38550
3639.0 0.0002748 611.34851 3806.35693
3685.0 0.0002714 611.25696 3844.23511
3712.0 0.0002694 611.16553 3872.03223
3726.0 0.0002684 611.07391 3888.89844
3732.0 0.0002680 610.98260 3894.17603
3778.0 0.0002647 610.89117 3887.43677
3734.0 0.0002678 610.79980 3868.51294
3712.0 0.0002694 610.70819 3837.50610
3737.0 0.0002676 610.61682 3794.78174
3743.0 0.0002672 610.52545 3740.94678
3716.0 0.0002691 610.43396 3676.81567
3665.0 0.0002729 610.34259 3603.36938
3629.0 0.0002756 610.25122 3521.70703
3586.0 0.0002789 610.15979 3433.00269
3519.0 0.0002842 610.06836 3338.45996
3415.0 0.0002928 609.97723 3239.27734
3313.0 0.0003018 609.88586 3136.61279
3268.0 0.0003060 609.79437 3031.56323
3154.0 0.0003171 609.70319 2925.14502
3086.0 0.0003240 609.61176 2818.28271
3077.0 0.0003250 609.52045 2711.80200
2949.0 0.0003391 609.42920 2606.42993
2840.0 0.000352 609.33789 2502.79639
2727.0 0.000367 609.24670 2401.43701
2602.0 0.000384 609.15521 2302.80054
2524.0 0.000396 609.06396 2207.25610
2420.0 0.000413 608.97314 2115.09888
2345.0 0.000426 608.88159 2026.55835
2215.0 0.000451 608.79034 1941.80396
2150.0 0.000465 608.69910 1860.95349
2057.0 0.000486 608.60791 1784.07751
1947.0 0.000514 608.51691 1711.20435
1884.0 0.000531 608.42566 1642.32727
1823.0 0.000549 608.33441 1605.69641
1753.0 0.000570 608.24353 1545.07239
1653.0 0.000605 608.15222 1488.25598
1599.0 0.000625 608.06110 1435.13672
1555.0 0.000643 607.97009 1385.58740
1437.0 0.000696 607.87903 1339.46765
1380.0 0.000725 607.78790 1296.62537
1405.0 0.000712 607.69690 1256.90222
1358.0 0.000736 607.60596 1220.13330
1259.0 0.000794 607.51471 1186.15149
1273.0 0.000786 607.42365 1154.78748
1245.0 0.000803 607.33289 1125.87427
1209.0 0.000827 607.24182 1099.24634
1141.0 0.000876 607.15094 1074.74231
1097.0 0.000912 607.06000 1052.20569
1084.0 0.000923 606.96899 1031.48669
1047.0 0.000955 606.87805 1012.44135
1031.0 0.000970 606.78711 994.93414
1016.0 0.000984 606.69641 978.83698
1008.0 0.000992 606.60541 964.02911
993.0 0.001007 606.51459 950.39899
972.0 0.001029 606.42377 937.84259
931.0 0.001074 606.33307 926.26385
933.0 0.001072 606.24225 915.57568
932.0 0.001073 606.15131 905.69696
912.0 0.001096 606.06073 896.55481
887.0 0.001127 605.96985 888.08252
910.0 0.001099 605.87915 880.22046
928.0 0.001078 605.78845 872.91412
898.0 0.001114 605.69769 866.11517
885.0 0.001130 605.60724 859.78015
881.0 0.001135 605.51642 853.87000
859.0 0.001164 605.42590 848.35059
858.0 0.001166 605.33527 843.19037
855.0 0.001170 605.24457 838.36249
854.0 0.001171 605.15393 833.84253
866.0 0.001155 605.06342 829.60883
825.0 0.001212 604.97296 825.64252
841.0 0.001189 604.88232 821.92657
851.0 0.001175 604.79187 818.44659
822.0 0.001217 604.70154 815.18835
821.0 0.001218 604.61115 812.14130
837.0 0.001195 604.52057 809.29456
832.0 0.001202 604.43024 806.63934
839.0 0.001192 604.33978 804.16718
784.0 0.001276 604.24933 801.87122
766.0 0.001305 604.15918 792.75488
808.0 0.001238 604.06891 790.89008
798.0 0.001253 603.97839 789.18311
797.0 0.001255 603.88818 787.62982
791.0 0.001264 603.79791 786.22662
774.0 0.001292 603.70764 784.97107
803.0 0.001245 603.61761 783.86011
790.0 0.001266 603.52734 782.89209
781.0 0.001280 603.43695 782.06531
789.0 0.001267 603.34680 781.37897
785.0 0.001274 603.25677 780.83234
765.0 0.001307 603.16656 780.42554
737.0 0.001357 603.07660 780.15833
732.0 0.001366 602.98669 780.03192
765.0 0.001307 602.89648 780.04761
781.0 0.001280 602.80670 780.20734
776.0 0.001289 602.71661 780.51337
753.0 0.001328 602.62646 780.96918
774.0 0.001292 602.53662 781.57825
747.0 0.001339 602.44678 782.34583
726.0 0.001377 602.35693 783.27661
751.0 0.001332 602.26703 784.37811
769.0 0.001300 602.17731 785.65717
793.0 0.001261 602.08740 787.12299
793.0 0.001261 601.99762 788.78613
788.0 0.001269 601.90771 790.65759
790.0 0.001266 601.81812 792.75140
769.0 0.001300 601.72845 795.08307
773.0 0.001294 601.63855 797.66968
819.0 0.001221 601.54895 800.53198
811.0 0.001233 601.45941 803.69165
794.0 0.001259 601.36981 807.17450
780.0 0.001282 601.28021 811.00952
815.0 0.001227 601.19061 815.22821
841.0 0.001189 601.10089 819.86646
860.0 0.001163 601.01141 824.96405
845.0 0.001183 600.92212 830.56488
857.0 0.001167 600.83228 836.71808
882.0 0.001134 600.74316 843.47705
848.0 0.001179 600.65375 850.90057
856.0 0.001168 600.56445 859.05273
889.0 0.001125 600.47504 868.00336
901.0 0.001110 600.38599 877.82831
947.0 0.001056 600.29657 888.60925
929.0 0.001076 600.20715 900.43396
929.0 0.001076 600.11798 913.39673
939.0 0.001065 600.02875 927.59753
967.0 0.001034 599.93945 943.14343
988.0 0.001012 599.85034 960.14642
1067.0 0.000937 599.76135 978.72552
1080.0 0.000926 599.67224 999.00464
1085.0 0.000922 599.58325 1021.11292
1113.0 0.000898 599.49408 1045.18481
1200.0 0.000833 599.40497 1071.35828
1195.0 0.000837 599.31604 1099.77454
1222.0 0.000818 599.22693 1130.57739
1246.0 0.000803 599.13837 1163.91064
1264.0 0.000791 599.04944 1199.91846
1300.0 0.000769 598.96057 1238.74194
1323.0 0.000756 598.87164 1280.51782
1349.0 0.000741 598.78296 1325.37524
1444.0 0.000693 598.69415 1373.43359
1496.0 0.000668 598.60547 1424.79663
1535.0 0.000651 598.51672 1479.55249
1550.0 0.000645 598.42798 1537.76563
1588.0 0.000630 598.33948 1599.47375
1645.0 0.000608 598.25079 1664.68188
1663.0 0.000601 598.16229 1733.35986
1715.0 0.000583 598.07379 1805.43555
1801.0 0.000555 597.98505 1880.79211
1912.0 0.000523 597.89661 1959.26807
2004.0 0.000499 597.80811 2040.65491
2102.0 0.000476 597.71991 2124.70166
2187.0 0.000457 597.63123 2211.11914
2267.0 0.000441 597.54315 2299.58789
2325.0 0.000430 597.45465 2389.76563
2409.0 0.000415 597.36652 2481.29907
2455.0 0.000407 597.27814 2573.82788
2548.0 0.000392 597.18982 2666.99243
2682.0 0.000373 597.10181 2760.43115
2781.0 0.000360 597.01355 2853.77393
2919.0 0.0003426 596.92554 2946.63257
3050.0 0.0003279 596.83728 3038.58032
3072.0 0.0003255 596.74902 3129.13501
3147.0 0.0003178 596.66107 3217.73608
3338.0 0.0002996 596.57318 3303.72803
3415.0 0.0002928 596.48523 3386.34448
3542.0 0.0002823 596.39722 3464.70435
3636.0 0.0002750 596.30927 3537.81519
3796.0 0.0002634 596.22156 3604.58838
3782.0 0.0002644 596.13373 3663.86865
3835.0 0.0002608 596.04578 3714.47778
3912.0 0.0002556 595.95831 3755.26465
3998.0 0.0002501 595.87024 3785.16821
4092.0 0.0002444 595.78253 3803.27881
4090.0 0.0002445 595.69482 3808.89746
4110.0 0.0002433 595.60730 3801.58301
4049.0 0.0002470 595.51971 3781.18140
4060.0 0.0002463 595.43213 3747.83936
3971.0 0.0002518 595.34460 3701.99146
3882.0 0.0002576 595.25720 3644.33594
3873.0 0.0002582 595.16949 3575.79395
3787.0 0.0002641 595.08234 3497.45972
3667.0 0.0002727 594.99475 3410.54858
3535.0 0.0002829 594.90723 3316.34863
3444.0 0.0002904 594.82001 3216.17261
3302.0 0.0003028 594.73279 3088.34863
3154.0 0.0003171 594.64551 2980.31592
3008.0 0.0003324 594.55841 2870.03296
2895.0 0.0003454 594.47119 2758.59033
2794.0 0.000358 594.38416 2646.98047
2605.0 0.000384 594.29700 2536.08887
2469.0 0.000405 594.20984 2426.69629
2309.0 0.000433 594.12274 2319.47949
2204.0 0.000454 594.03577 2215.01514
2144.0 0.000466 593.94879 2113.78687
2046.0 0.000489 593.86188 2016.19055
1899.0 0.000527 593.77502 1922.54150
1825.0 0.000548 593.68811 1833.08130
1720.0 0.000581 593.60138 1747.98389
1630.0 0.000613 593.51465 1667.36316
1540.0 0.000649 593.42786 1591.27698
1455.0 0.000687 593.34100 1519.73499
1412.0 0.000708 593.25458 1452.70239
1347.0 0.000742 593.16779 1390.10632
1293.0 0.000773 593.08124 1331.84082
1253.0 0.000798 592.99469 1277.77271
1232.0 0.000812 592.90802 1227.74414
1136.0 0.000880 592.82166 1181.57910
1138.0 0.000879 592.73541 1139.08716
1105.0 0.000905 592.64868 1100.06714
1047.0 0.000955 592.56250 1064.31140
999.0 0.001001 592.47607 1031.60864
1005.0 0.000995 592.38971 1001.74689
968.0 0.001033 592.30347 974.51715
953.0 0.001049 592.21729 949.71405
924.0 0.001082 592.13110 927.13940
897.0 0.001115 592.04504 906.60278
912.0 0.001096 591.95892 887.92310
871.0 0.001148 591.87292 870.92896
812.0 0.001232 591.78680 855.46051
817.0 0.001224 591.70068 841.36853
814.0 0.001229 591.61475 828.51538
806.0 0.001241 591.52887 816.77429
799.0 0.001252 591.44293 806.02979
794.0 0.001259 591.35712 796.17682
759.0 0.001318 591.27124 787.12054
730.0 0.001370 591.18561 778.77557
719.0 0.001391 591.09973 771.06561
741.0 0.001350 591.01422 763.92212
748.0 0.001337 590.92865 757.28467
733.0 0.001364 590.84302 751.09979
730.0 0.001370 590.75745 745.32007
707.0 0.001414 590.67188 739.90363
690.0 0.001449 590.58618 734.81409
688.0 0.001453 590.50092 730.01898
658.0 0.001520 590.41559 725.49023
630.0 0.001587 590.33002 721.20306
644.0 0.001553 590.24481 717.13568
626.0 0.001597 590.15948 713.26941
621.0 0.001610 590.07434 709.58691
670.0 0.001493 589.98901 706.07391
662.0 0.001511 589.90375 702.71771
651.0 0.001536 589.81879 699.50665
646.0 0.001548 589.73370 696.43030
621.0 0.001610 589.64850 693.47974
623.0 0.001605 589.56354 690.64691
614.0 0.001629 589.47852 687.92426
601.0 0.001664 589.39343 685.30573
639.0 0.001565 589.30896 682.78497
656.0 0.001524 589.22388 680.35669
631.0 0.001585 589.13940 678.01587
611.0 0.001637 589.05450 675.75745
621.0 0.001610 588.96954 673.57819
616.0 0.001623 588.88483 671.47369
647.0 0.001546 588.80035 669.44031
648.0 0.001543 588.71588 667.47461
641.0 0.001560 588.63123 665.57355
650.0 0.001538 588.54657 663.73389
594.0 0.001684 588.46204 661.95337
578.0 0.001730 588.37769 660.22894
599.0 0.001669 588.29340 658.55853
603.0 0.001658 588.20898 656.93970
603.0 0.001658 588.12463 655.36981
585.0 0.001709 588.04034 653.84741
591.0 0.001692 587.95605 652.37012
620.0 0.001613 587.87201 650.93646
613.0 0.001631 587.78778 649.54413
591.0 0.001692 587.70374 648.19183
606.0 0.001650 587.61945 646.87787
617.0 0.001621 587.53552 645.60077
607.0 0.001647 587.45148 644.35919
573.0 0.001745 587.36755 643.15137
573.0 0.001745 587.28369 641.97644
594.0 0.001684 587.19971 640.83319
614.0 0.001629 587.11597 639.71991
616.0 0.001623 587.03217 638.63605
605.0 0.001653 586.94867 637.58014
596.0 0.001678 586.86481 636.55121
571.0 0.001751 586.78113 635.54852
562.0 0.001779 586.69757 634.57086
611.0 0.001637 586.61395 633.61725
633.0 0.001580 586.53046 632.68726
631.0 0.001585 586.44696 631.77972
616.0 0.001623 586.36353 630.89410
609.0 0.001642 586.28021 630.02942
607.0 0.001647 586.19666 629.18488
580.0 0.001724 586.11340 628.36005
556.0 0.001799 586.03003 627.55444
595.0 0.001681 585.94708 626.76685
609.0 0.001642 585.86365 625.99701
625.0 0.001600 585.78058 625.24414
605.0 0.001653 585.69745 624.50800
605.0 0.001653 585.61444 623.78796
625.0 0.001600 585.53131 623.08325
611.0 0.001637 585.44830 622.39368
609.0 0.001642 585.36548 621.71881
600.0 0.001667 585.28259 621.05792
605.0 0.001653 585.19958 620.41052
575.0 0.001739 585.11682 619.77625
537.0 0.001862 585.03424 619.15515
577.0 0.001733 584.95142 618.54645
585.0 0.001709 584.86884 617.94971
594.0 0.001684 584.78607 617.36450
583.0 0.001715 584.70349 616.79083
570.0 0.001754 584.62109 616.22809
581.0 0.001721 584.53851 615.67621
578.0 0.001730 584.45612 615.13434
575.0 0.001739 584.37347 614.60303
604.0 0.001656 584.29114 614.08136
613.0 0.001631 584.20874 613.56915
589.0 0.001698 584.12671 613.06616
601.0 0.001664 584.04437 612.57208
602.0 0.001661 583.96210 612.08685
601.0 0.001664 583.87982 611.61011
611.0 0.001637 583.79773 611.14160
624.0 0.001603 583.71594 583.71240
622.0 0.001608 583.63373 583.63019
633.0 0.001580 583.55164 583.54852
584.0 0.001712 583.46967 583.46649
567.0 0.001764 583.38770 583.38464
624.0 0.001603 583.30591 583.30261
633.0 0.001580 583.22400 583.22089
625.0 0.001600 583.14221 583.13940
602.0 0.001661 583.06055 583.05743
607.0 0.001647 582.97906 582.97565
615.0 0.001626 582.89716 582.89392
607.0 0.001647 582.81573 582.81250
600.0 0.001667 582.73401 582.73083
643.0 0.001555 582.65259 582.64960
647.0 0.001546 582.57123 582.56781
640.0 0.001563 582.48969 582.48645
618.0 0.001618 582.40839 582.40521
622.0 0.001608 582.32672 582.32379
620.0 0.001613 582.24561 582.24268
626.0 0.001597 582.16437 582.16138
627.0 0.001595 582.08313 582.08014
633.0 0.001580 582.00195 581.99896
626.0 0.001597 581.92084 581.91797
576.0 0.001736 581.83960 581.83673
578.0 0.001730 581.75854 581.75568
605.0 0.001653 581.67767 581.67468
614.0 0.001629 581.59674 581.59387
615.0 0.001626 581.51581 581.51282
607.0 0.001647 581.43488 581.43195
596.0 0.001678 581.35406 581.35120
607.0 0.001647 581.27325 581.27045
595.0 0.001681 581.19257 581.18976
600.0 0.001667 581.11188 581.10907
618.0 0.001618 581.03131 581.02832
606.0 0.001650 580.95062 580.94788
561.0 0.001783 580.86987 580.86731
556.0 0.001799 580.78955 580.78680
565.0 0.001770 580.70905 580.70636
570.0 0.001754 580.62860 580.62585
579.0 0.001727 580.54822 580.54565
591.0 0.001692 580.46777 580.46497
584.0 0.001712 580.38745 580.38489
586.0 0.001706 580.30737 580.30469
541.0 0.001848 580.22687 580.22418
513.0 0.001949 580.14667 580.14417
560.0 0.001786 580.06677 580.06421
565.0 0.001770 579.98645 579.98395
572.0 0.001748 579.90649 579.90411
570.0 0.001754 579.82654 579.82385
563.0 0.001776 579.74664 579.74408
570.0 0.001754 579.66644 579.66412
570.0 0.001754 579.58661 579.58411
565.0 0.001770 579.50696 579.50446
592.0 0.001689 579.42706 579.42456
585.0 0.001709 579.34735 579.34491
566.0 0.001767 579.26746 579.26520
557.0 0.001795 579.18805 579.18549
555.0 0.001802 579.10828 579.10583
567.0 0.001764 579.02869 579.02606
563.0 0.001776 578.94928 578.94678
555.0 0.001802 578.86975 578.86731
573.0 0.001745 578.79022 578.78790
563.0 0.001776 578.71075 578.70856
533.0 0.001876 578.63147 578.62903
527.0 0.001898 578.55212 578.54980
568.0 0.001761 578.47296 578.47064
558.0 0.001792 578.39368 578.39148
565.0 0.001770 578.31445 578.31226
560.0 0.001786 578.23517 578.23285
565.0 0.001770 578.15619 578.15405
567.0 0.001764 578.07721 578.07483
546.0 0.001832 577.99817 577.99597
544.0 0.001838 577.91925 577.91687
576.0 0.001736 577.84009 577.83807
579.0 0.001727 577.76147 577.75916
558.0 0.001792 577.68243 577.68018
552.0 0.001812 577.60382 577.60162
567.0 0.001764 577.52472 577.52289
580.0 0.001724 577.44623 577.44409
599.0 0.001669 577.36749 577.36554
592.0 0.001689 577.28870 577.28668
601.0 0.001664 577.21021 577.20813
582.0 0.001718 577.13159 577.12964
530.0 0.001887 577.05310 577.05103
504.0 0.001984 576.97473 576.97260
546.0 0.001832 576.89630 576.89423
573.0 0.001745 576.81793 576.81598
569.0 0.001757 576.73950 576.73755
561.0 0.001783 576.66113 576.65918
541.0 0.001848 576.58313 576.58099
556.0 0.001799 576.50482 576.50281
546.0 0.001832 576.42651 576.42487
524.0 0.001908 576.34827 576.34668
560.0 0.001786 576.27039 576.26831
554.0 0.001805 576.19232 576.19037
567.0 0.001764 576.11432 576.11255
571.0 0.001751 576.03638 576.03448
561.0 0.001783 575.95844 575.95660
567.0 0.001764 575.88049 575.87872
590.0 0.001695 575.80280 575.80090
563.0 0.001776 575.72479 575.72308
556.0 0.001799 575.64709 575.64539
550.0 0.001818 575.56934 575.56763
528.0 0.001894 575.49188 575.48999
533.0 0.001876 575.41425 575.41254
566.0 0.001767 575.33679 575.33478
581.0 0.001721 575.25885 575.25720
580.0 0.001724 575.18164 575.17975
570.0 0.001754 575.10400 575.10223
554.0 0.001805 575.02655 575.02484
559.0 0.001789 574.94916 574.94745
542.0 0.001845 574.87207 574.87024
548.0 0.001825 574.79449 574.79309
567.0 0.001764 574.71735 574.71582
576.0 0.001736 574.64001 574.63843
555.0 0.001802 574.56274 574.56122
535.0 0.001869 574.48560 574.48425
534.0 0.001873 574.40863 574.40723
550.0 0.001818 574.33167 574.33002
560.0 0.001786 574.25476 574.25305
557.0 0.001795 574.17767 574.17621
545.0 0.001835 574.10077 574.09937
566.0 0.001767 574.02350 574.02240
539.0 0.001855 573.94690 573.94537
526.0 0.001901 573.87030 573.86877
570.0 0.001754 573.79340 573.79193
573.0 0.001745 573.71674 573.71533
585.0 0.001709 573.64001 573.63849
568.0 0.001761 573.56323 573.56177
543.0 0.001842 573.48676 573.48560
536.0 0.001866 573.41022 573.40887
548.0 0.001825 573.33374 573.33228
552.0 0.001812 573.25720 573.25580
575.0 0.001739 573.18091 573.17932
572.0 0.001748 573.10419 573.10297
554.0 0.001805 573.02808 573.02661
536.0 0.001866 572.95160 572.95050
538.0 0.001859 572.87537 572.87396
540.0 0.001852 572.79919 572.79785
557.0 0.001795 572.72296 572.72174
547.0 0.001828 572.64673 572.64551
541.0 0.001848 572.57062 572.56952
557.0 0.001795 572.49457 572.49329
547.0 0.001828 572.41852 572.41736
527.0 0.001898 572.34259 572.34119
567.0 0.001764 572.26648 572.26526
553.0 0.001808 572.19037 572.18945
544.0 0.001838 572.11469 572.11359
546.0 0.001832 572.03882 572.03766
546.0 0.001832 571.96295 571.96179
546.0 0.001832 571.88739 571.88599
534.0 0.001873 571.81128 571.81030
535.0 0.001869 571.73566 571.73456
549.0 0.001821 571.66016 571.65906
543.0 0.001842 571.58453 571.58362
536.0 0.001866 571.50897 571.50775
530.0 0.001887 571.43347 571.43250
531.0 0.001883 571.35803 571.35706
541.0 0.001848 571.28253 571.28125
544.0 0.001838 571.20709 571.20605
551.0 0.001815 571.13165 571.13074
549.0 0.001821 571.05627 571.05536
546.0 0.001832 570.98102 570.98010
507.0 0.001972 570.90576 570.90479
495.0 0.002020 570.83057 570.82953
550.0 0.001818 570.75519 570.75439
568.0 0.001761 570.68024 570.67926
591.0 0.001692 570.60522 570.60413
564.0 0.001773 570.52985 570.52899
548.0 0.001825 570.45490 570.45410
537.0 0.001862 570.37994 570.37897
521.0 0.001919 570.30511 570.30414
527.0 0.001898 570.23010 570.22913
569.0 0.001757 570.15503 570.15430
579.0 0.001727 570.08032 570.07959
546.0 0.001832 570.00531 570.00458
523.0 0.001912 569.93060 569.92993
517.0 0.001934 569.85608 569.85522
528.0 0.001894 569.78125 569.78046
544.0 0.001838 569.70660 569.70581
531.0 0.001883 569.63196 569.63123
535.0 0.001869 569.55743 569.55670
538.0 0.001859 569.48291 569.48206
497.0 0.002012 569.40820 569.40753
489.0 0.002045 569.33380 569.33319
543.0 0.001842 569.25958 569.25879
554.0 0.001805 569.18494 569.18420
549.0 0.001821 569.11060 569.10968
542.0 0.001845 569.03619 569.03552
534.0 0.001873 568.96210 568.96136
549.0 0.001821 568.88770 568.88690
523.0 0.001912 568.81354 568.81262
508.0 0.001969 568.73932 568.73865
552.0 0.001812 568.66522 568.66455
574.0 0.001742 568.59106 568.59033
572.0 0.001748 568.51697 568.51624
554.0 0.001805 568.44281 568.44220
539.0 0.001855 568.36896 568.36829
563.0 0.001776 568.29480 568.29425
561.0 0.001783 568.22107 568.22034
552.0 0.001812 568.14697 568.14642
553.0 0.001808 568.07306 568.07245
553.0 0.001808 567.99939 567.99884
517.0 0.001934 567.92542 567.92493
506.0 0.001976 567.85175 567.85114
557.0 0.001795 567.77795 567.77753
552.0 0.001812 567.70435 567.70386
549.0 0.001821 567.63062 567.63019
540.0 0.001852 567.55688 567.55664
537.0 0.001862 567.48334 567.48291
551.0 0.001815 567.40991 567.40942
534.0 0.001873 567.33630 567.33588
515.0 0.001942 567.26276 567.26239
562.0 0.001779 567.18945 567.18884
571.0 0.001751 567.11621 567.11566
565.0 0.001770 567.04260 567.04236
567.0 0.001764 566.96942 566.96893
561.0 0.001783 566.89600 566.89575
560.0 0.001786 566.82263 566.82214
567.0 0.001764 566.74939 566.74921
545.0 0.001835 566.67621 566.67584
533.0 0.001876 566.60321 566.60266
534.0 0.001873 566.52991 566.52954
534.0 0.001873 566.45691 566.45636
523.0 0.001912 566.38373 566.38348
565.0 0.001770 566.31067 566.31018
568.0 0.001761 566.23755 566.23743
562.0 0.001779 566.16461 566.16431
552.0 0.001812 566.09161 566.09137
548.0 0.001825 566.01874 566.01843
553.0 0.001808 565.94592 565.94543
533.0 0.001876 565.87305 565.87262
530.0 0.001887 565.80011 565.79987
549.0 0.001821 565.72729 565.72717
562.0 0.001779 565.65460 565.65417
579.0 0.001727 565.58197 565.58185
549.0 0.001821 565.50916 565.50916
548.0 0.001825 565.43640 565.43628
551.0 0.001815 565.36383 565.36371
585.0 0.001709 565.29150 565.29114
593.0 0.001686 565.21863 565.21863
589.0 0.001698 565.14630 565.14618
596.0 0.001678 565.07379 565.07367
565.0 0.001770 565.00134 565.00116
546.0 0.001832 564.92896 564.92847
569.0 0.001757 564.85645 564.85620
570.0 0.001754 564.78400 564.78394
589.0 0.001698 564.71185 564.71161
580.0 0.001724 564.63965 564.63922
571.0 0.001751 564.56720 564.56696
572.0 0.001748 564.49475 564.49481
559.0 0.001789 564.42273 564.42236
565.0 0.001770 564.35040 564.35028
588.0 0.001701 564.27838 564.27826
597.0 0.001675 564.20605 564.20605
598.0 0.001672 564.13409 564.13385
594.0 0.001684 564.06195 564.06189
598.0 0.001672 563.98999 563.98993
617.0 0.001621 563.91803 563.91779
626.0 0.001597 563.84619 563.84613
628.0 0.001592 563.77399 563.77417
636.0 0.001572 563.70215 563.70215
627.0 0.001595 563.63007 563.63019
596.0 0.001678 563.55847 563.55823
591.0 0.001692 563.48651 563.48651
634.0 0.001577 563.41473 563.41467
637.0 0.001570 563.34290 563.34308
649.0 0.001541 563.27124 563.27142
658.0 0.001520 563.19946 563.19952
641.0 0.001560 563.12775 563.12799
668.0 0.001497 563.05609 563.05609
660.0 0.001515 562.98468 562.98450
645.0 0.001550 562.91296 562.91290
671.0 0.001490 562.84143 562.84131
667.0 0.001499 562.76978 562.76996
660.0 0.001515 562.69836 562.69843
654.0 0.001529 562.62671 562.62689
663.0 0.001508 562.55536 562.55536
677.0 0.001477 562.48407 562.48407
675.0 0.001481 562.41235 562.41266
669.0 0.001495 562.34113 562.34113
673.0 0.001486 562.26984 562.26996
660.0 0.001515 562.19861 562.19861
616.0 0.001623 562.12701 562.12732
595.0 0.001681 562.05591 562.05597
638.0 0.001567 561.98462 561.98480
638.0 0.001567 561.91345 561.91364
637.0 0.001570 561.84222 561.84241
623.0 0.001605 561.77112 561.77124
622.0 0.001608 561.69983 561.70013
633.0 0.001580 561.62872 561.62903
592.0 0.001689 561.55774 561.55811
575.0 0.001739 561.48669 561.48706
621.0 0.001610 561.41565 561.41589
630.0 0.001587 561.34467 561.34485
602.0 0.001661 561.27362 561.27393
586.0 0.001706 561.20288 561.20294
575.0 0.001739 561.13196 561.13220
588.0 0.001701 561.06104 561.06116
585.0 0.001709 560.98999 560.99036
566.0 0.001767 560.91919 560.91949
557.0 0.001795 560.84845 560.84863
573.0 0.001745 560.77753 560.77808
558.0 0.001792 560.70685 560.70691
529.0 0.001890 560.63611 560.63641
562.0 0.001779 560.56525 560.56555
586.0 0.001706 560.49475 560.49493
572.0 0.001748 560.42401 560.42426
553.0 0.001808 560.35333 560.35352
543.0 0.001842 560.28259 560.28308
546.0 0.001832 560.21210 560.21234
549.0 0.001821 560.14130 560.14203
539.0 0.001855 560.07080 560.07135
548.0 0.001825 560.00049 560.00079
543.0 0.001842 559.93011 559.93011
548.0 0.001825 559.85950 559.85974
542.0 0.001845 559.78888 559.78937
530.0 0.001887 559.71857 559.71881
551.0 0.001815 559.64825 559.64862
551.0 0.001815 559.57782 559.57813
541.0 0.001848 559.50745 559.50787
530.0 0.001887 559.43707 559.43750
543.0 0.001842 559.36670 559.36719
512.0 0.001953 559.29651 559.29675
503.0 0.001988 559.22626 559.22668
555.0 0.001802 559.15601 559.15643
556.0 0.001799 559.08600 559.08600
558.0 0.001792 559.01550 559.01587
548.0 0.001825 558.94531 558.94580
548.0 0.001825 558.87543 558.87567
570.0 0.001754 558.80493 558.80560
535.0 0.001869 558.73499 558.73547
525.0 0.001905 558.66504 558.66528
562.0 0.001779 558.59473 558.59528
563.0 0.001776 558.52466 558.52521
557.0 0.001795 558.45459 558.45526
545.0 0.001835 558.38458 558.38501
523.0 0.001912 558.31464 558.31519
523.0 0.001912 558.24469 558.24530
524.0 0.001908 558.17499 558.17523
547.0 0.001828 558.10498 558.10541
535.0 0.001869 558.03510 558.03552
557.0 0.001795 557.96521 557.96545
518.0 0.001931 557.89539 557.89575
493.0 0.002028 557.82544 557.82581
531.0 0.001883 557.75555 557.75598
541.0 0.001848 557.68579 557.68634
555.0 0.001802 557.61597 557.61639
536.0 0.001866 557.54639 557.54669
534.0 0.001873 557.47668 557.47705
568.0 0.001761 557.40692 557.40735
551.0 0.001815 557.33710 557.33759
541.0 0.001848 557.26740 557.26776
551.0 0.001815 557.19763 557.19824
540.0 0.001852 557.12817 557.12866
539.0 0.001855 557.05847 557.05896
518.0 0.001931 556.98889 556.98950
528.0 0.001894 556.91949 556.91974
531.0 0.001883 556.84967 556.85040
526.0 0.001901 556.78003 556.78076
546.0 0.001832 556.71057 556.71124
534.0 0.001873 556.64124 556.64166
530.0 0.001887 556.57178 556.57220
496.0 0.002016 556.50220 556.50275
502.0 0.001992 556.43292 556.43341
544.0 0.001838 556.36316 556.36371
545.0 0.001835 556.29382 556.29437
540.0 0.001852 556.22455 556.22510
533.0 0.001876 556.15515 556.15558
509.0 0.001965 556.08569 556.08618
512.0 0.001953 556.01648 556.01697
515.0 0.001942 555.94714 555.94775
516.0 0.001938 555.87775 555.87836
552.0 0.001812 555.80859 555.80896
544.0 0.001838 555.73932 555.73962
525.0 0.001905 555.66986 555.67035
506.0 0.001976 555.60059 555.60126
522.0 0.001916 555.53143 555.53204
522.0 0.001916 555.46234 555.46271
536.0 0.001866 555.39307 555.39349
532.0 0.001880 555.32349 555.32428
520.0 0.001923 555.25476 555.25537
528.0 0.001894 555.18542 555.18597
501.0 0.001996 555.11627 555.11688
487.0 0.002053 555.04724 555.04761
526.0 0.001901 554.97815 554.97870
557.0 0.001795 554.90912 554.90955
565.0 0.001770 554.83997 554.84045
545.0 0.001835 554.77087 554.77142
525.0 0.001905 554.70184 554.70245
526.0 0.001901 554.63293 554.63348
521.0 0.001919 554.56384 554.56427
512.0 0.001953 554.49481 554.49554
545.0 0.001835 554.42596 554.42645
558.0 0.001792 554.35706 554.35736
536.0 0.001866 554.28790 554.28857
512.0 0.001953 554.21912 554.21960
505.0 0.001980 554.15015 554.15057
520.0 0.001923 554.08124 554.08167
547.0 0.001828 554.01233 558.43927
533.0 0.001876 553.94354 558.41931
520.0 0.001923 553.87457 558.40039
524.0 0.001908 553.80579 558.38220
484.0 0.002066 553.73682 558.36493
472.0 0.002119 553.66815 558.34851
525.0 0.001905 553.59918 558.33307
530.0 0.001887 553.53046 558.31836
545.0 0.001835 553.46167 558.30493
555.0 0.001802 553.39282 558.29236
528.0 0.001894 553.32410 558.28064
530.0 0.001887 553.25537 558.27008
520.0 0.001923 553.18652 558.26056
500.0 0.002000 553.11810 558.25189
543.0 0.001842 553.04907 558.24445
539.0 0.001855 552.98047 558.23816
541.0 0.001848 552.91187 558.23291
550.0 0.001818 552.84320 558.22888
549.0 0.001821 552.77454 558.22607
552.0 0.001812 552.70581 558.22455
544.0 0.001838 552.63708 558.22400
542.0 0.001845 552.56854 558.22504
527.0 0.001898 552.49982 558.22723
532.0 0.001880 552.43146 558.23090
499.0 0.002004 552.36267 558.23547
496.0 0.002016 552.29395 558.24207
535.0 0.001869 552.22552 558.24988
538.0 0.001859 552.15686 558.25903
541.0 0.001848 552.08856 558.26996
520.0 0.001923 552.01990 558.28223
515.0 0.001942 551.95135 558.29626
532.0 0.001880 551.88287 558.31189
529.0 0.001890 551.81445 558.32904
525.0 0.001905 551.74585 558.34821
545.0 0.001835 551.67731 558.36890
559.0 0.001789 551.60883 558.39148
548.0 0.001825 551.54047 558.41620
538.0 0.001859 551.47205 558.44232
531.0 0.001883 551.40356 558.47076
546.0 0.001832 551.33502 558.50116
556.0 0.001799 551.26660 558.53381
579.0 0.001727 551.19824 558.56830
557.0 0.001795 551.12964 558.60522
549.0 0.001821 551.06146 558.64417
539.0 0.001855 550.99304 558.68585
521.0 0.001919 550.92444 558.72955
568.0 0.001761 550.85632 558.77588
572.0 0.001748 550.78796 558.82458
573.0 0.001745 550.71948 558.87604
575.0 0.001739 550.65125 558.93011
561.0 0.001783 550.58289 558.98712
565.0 0.001770 550.51453 559.04694
545.0 0.001835 550.44598 559.10950
542.0 0.001845 550.37769 559.17511
571.0 0.001751 550.30963 559.24408
570.0 0.001754 550.24127 559.31622
549.0 0.001821 550.17297 559.39124
528.0 0.001894 550.10480 559.47034
542.0 0.001845 550.03632 559.55261
551.0 0.001815 549.96814 559.63831
567.0 0.001764 549.89978 559.72803
575.0 0.001739 549.83136 559.82166
569.0 0.001757 549.76331 559.91925
563.0 0.001776 549.69513 560.02075
522.0 0.001916 549.62683 560.12671
517.0 0.001934 549.55859 560.23712
560.0 0.001786 549.49036 560.35193
558.0 0.001792 549.42212 560.47168
568.0 0.001761 549.35400 560.59625
551.0 0.001815 549.28583 560.72565
551.0 0.001815 549.21759 560.86017
545.0 0.001835 549.14929 561.00043
537.0 0.001862 549.08105 561.14642
543.0 0.001842 549.01294 561.29803
595.0 0.001681 548.94458 561.45532
603.0 0.001658 548.87659 561.61926
566.0 0.001767 548.80835 561.78961
552.0 0.001812 548.74023 561.96643
548.0 0.001825 548.67200 562.15027
558.0 0.001792 548.60406 562.34167
570.0 0.001754 548.53577 562.54053
564.0 0.001773 548.46765 562.74719
557.0 0.001795 548.39966 562.96179
578.0 0.001730 548.33142 563.18475
539.0 0.001855 548.26324 563.41687
516.0 0.001938 548.19525 563.65845
574.0 0.001742 548.12701 563.90948
588.0 0.001701 548.05908 564.17059
601.0 0.001664 547.99072 564.44244
589.0 0.001698 547.92267 564.72522
580.0 0.001724 547.85455 565.01971
584.0 0.001712 547.78668 565.32654
583.0 0.001715 547.71851 565.64618
563.0 0.001776 547.65045 565.97961
596.0 0.001678 547.58221 566.32727
589.0 0.001698 547.51416 566.69037
574.0 0.001742 547.44611 567.06958
581.0 0.001721 547.37799 567.46600
576.0 0.001736 547.31006 567.88043
577.0 0.001733 547.24170 568.31470
581.0 0.001721 547.17383 568.76990
611.0 0.001637 547.10559 569.24701
602.0 0.001661 547.03766 569.74811
609.0 0.001642 546.96942 570.27527
575.0 0.001739 546.90161 570.83008
542.0 0.001845 546.83350 571.41461
600.0 0.001667 546.76532 572.03156
626.0 0.001597 546.69739 572.68347
656.0 0.001524 546.62939 573.37329
638.0 0.001567 546.56128 574.10431
610.0 0.001639 546.49316 574.87976
610.0 0.001639 546.42511 575.70410
607.0 0.001647 546.35712 576.58124
579.0 0.001727 546.28918 577.51550
626.0 0.001597 546.22119 578.51251
637.0 0.001570 546.15308 579.57788
625.0 0.001600 546.08508 580.71747
619.0 0.001616 546.01697 581.93781
622.0 0.001608 545.94904 583.24591
626.0 0.001597 545.88092 584.64966
653.0 0.001531 545.81287 586.15778
656.0 0.001524 545.74481 587.77850
634.0 0.001577 545.67682 589.52222
649.0 0.001541 545.60876 591.39838
634.0 0.001577 545.54077 593.41852
635.0 0.001575 545.47253 595.59399
654.0 0.001529 545.40466 597.93713
654.0 0.001529 545.33679 600.46118
675.0 0.001481 545.26843 603.17932
693.0 0.001443 545.20068 606.10632
680.0 0.001471 545.13257 609.25659
720.0 0.001389 545.06445 612.64594
720.0 0.001389 544.99640 616.28986
717.0 0.001395 544.92853 620.20520
731.0 0.001368 544.86029 624.40826
737.0 0.001357 544.79224 628.91650
716.0 0.001397 544.72430 633.74646
714.0 0.001401 544.65643 638.91553
721.0 0.001387 544.58838 644.44067
736.0 0.001359 544.52026 650.33850
759.0 0.001318 544.45239 656.62476
760.0 0.001316 544.38428 663.31519
755.0 0.001325 544.31592 670.42444
771.0 0.001297 544.24817 677.96570
738.0 0.001355 544.18011 685.95099
734.0 0.001362 544.11206 694.39008
774.0 0.001292 544.04401 703.29126
813.0 0.001230 543.97607 712.66040
842.0 0.001188 543.90784 722.50049
844.0 0.001185 543.83984 732.81122
850.0 0.001176 543.77191 743.58960
852.0 0.001174 543.70386 754.82800
851.0 0.001175 543.63562 766.51489
850.0 0.001176 543.56769 778.63422
890.0 0.001124 543.49969 791.16565
905.0 0.001105 543.43146 804.08289
895.0 0.001117 543.36346 817.35504
880.0 0.001136 543.29541 830.94556
877.0 0.001140 543.22754 844.81299
890.0 0.001124 543.15924 858.91040
937.0 0.001067 543.09119 873.18616
943.0 0.001060 543.02313 887.58368
937.0 0.001067 542.95502 902.04309
945.0 0.001058 542.88678 916.49945
960.0 0.001042 542.81897 930.88580
982.0 0.001018 542.75079 945.13110
984.0 0.001016 542.68274 959.16223
1036.0 0.000965 542.61432 972.90240
1068.0 0.000936 542.54657 986.27246
1058.0 0.000945 542.47858 999.18958
1042.0 0.000960 542.41028 1011.56702
1066.0 0.000938 542.34210 1023.31482
1090.0 0.000917 542.27429 1034.33801
1100.0 0.000909 542.20599 1044.53918
1127.0 0.000887 542.13794 1053.81726
1116.0 0.000896 542.06970 1062.07056
1087.0 0.000920 542.00171 1069.19788
1137.0 0.000880 541.93365 1075.10168
1150.0 0.000870 541.86542 1079.69141
1163.0 0.000860 541.79724 1082.88733
1140.0 0.000877 541.72900 1084.62305
1134.0 0.000882 541.66101 1084.85022
1088.0 0.000919 541.59271 1083.54028
1102.0 0.000907 541.52448 1080.68726
1084.0 0.000923 541.45636 1076.30798
1057.0 0.000946 541.38831 1070.44202
1071.0 0.000934 541.32013 1063.15149
1087.0 0.000920 541.25208 1054.51697
1099.0 0.000910 541.18365 1044.63733
1088.0 0.000919 541.11554 1033.62329
1062.0 0.000942 541.04767 1021.59607
1046.0 0.000956 540.97931 1008.68329
1048.0 0.000954 540.91095 995.01465
1047.0 0.000955 540.84283 980.71948
1045.0 0.000957 540.77466 965.92438
1034.0 0.000967 540.70624 950.75085
1002.0 0.000998 540.63794 935.31305
972.0 0.001029 540.56989 919.71832
973.0 0.001028 540.50140 904.06451
959.0 0.001043 540.43341 888.44122
947.0 0.001056 540.36511 872.92871
953.0 0.001049 540.29700 857.59863
931.0 0.001074 540.22852 842.51422
926.0 0.001080 540.16022 827.73053
871.0 0.001148 540.09222 813.29547
847.0 0.001181 540.02393 799.24939
865.0 0.001156 539.95563 785.62634
891.0 0.001122 539.88727 772.45367
876.0 0.001142 539.81891 759.75446
812.0 0.001232 539.75073 747.54510
782.0 0.001279 539.68237 735.83850
782.0 0.001279 539.61414 724.64246
771.0 0.001297 539.54559 713.96069
758.0 0.001319 539.47748 703.79407
783.0 0.001277 539.40894 694.13959
792.0 0.001263 539.34088 684.99194
752.0 0.001330 539.27240 676.34210
731.0 0.001368 539.20404 668.17987
712.0 0.001404 539.13574 660.49261
693.0 0.001443 539.06720 653.26569
697.0 0.001435 538.99884 646.48370
677.0 0.001477 538.93042 640.12952
652.0 0.001534 538.86230 634.18530
658.0 0.001520 538.79388 628.63269
633.0 0.001580 538.72516 623.45215
582.0 0.001718 538.65686 618.62463
622.0 0.001608 538.58844 614.13074
613.0 0.001631 538.51996 609.95123
630.0 0.001587 538.45160 606.06665
613.0 0.001631 538.38306 602.45874
600.0 0.001667 538.31458 599.10840
613.0 0.001631 538.24622 595.99884
606.0 0.001650 538.17780 593.11273
602.0 0.001661 538.10931 590.43353
612.0 0.001634 538.04071 587.94543
610.0 0.001639 537.97235 585.63416
626.0 0.001597 537.90393 583.48553
610.0 0.001639 537.83533 581.48688
592.0 0.001689 537.76678 579.62512
581.0 0.001721 537.69830 577.88934
593.0 0.001686 537.62964 576.26868
597.0 0.001675 537.56110 574.75342
569.0 0.001757 537.49261 573.33459
564.0 0.001773 537.42413 572.00366
551.0 0.001815 537.35553 570.75299
557.0 0.001795 537.28687 579.18427
584.0 0.001712 537.21844 578.18005
594.0 0.001684 537.14984 577.23920
596.0 0.001678 537.08105 576.35541
577.0 0.001733 537.01239 575.52509
574.0 0.001742 536.94385 574.74316
572.0 0.001748 536.87537 574.00623
566.0 0.001767 536.80658 573.31042
543.0 0.001842 536.73798 572.65247
572.0 0.001748 536.66949 572.03033
610.0 0.001639 536.60083 571.44128
582.0 0.001718 536.53217 570.88293
558.0 0.001792 536.46332 570.35278
563.0 0.001776 536.39465 569.84955
572.0 0.001748 536.32593 569.37152
568.0 0.001761 536.25708 568.91730
565.0 0.001770 536.18848 568.48547
559.0 0.001789 536.11969 568.07477
565.0 0.001770 536.05109 567.68420
534.0 0.001873 535.98218 567.31293
536.0 0.001866 535.91357 566.96002
585.0 0.001709 535.84479 566.62476
589.0 0.001698 535.77600 566.30615
581.0 0.001721 535.70715 566.00415
596.0 0.001678 535.63855 565.71759
577.0 0.001733 535.56952 565.44635
586.0 0.001706 535.50085 565.18933
562.0 0.001779 535.43195 564.94672
554.0 0.001805 535.36304 564.71790
563.0 0.001776 535.29425 564.50250
557.0 0.001795 535.22552 564.30017
552.0 0.001812 535.15649 564.11072
549.0 0.001821 535.08771 563.93365
545.0 0.001835 535.01868 563.76880
543.0 0.001842 534.94983 563.61603
571.0 0.001751 534.88092 563.47528
577.0 0.001733 534.81183 563.34570
554.0 0.001805 534.74323 563.22784
558.0 0.001792 534.67419 563.12115
540.0 0.001852 534.60522 563.02582
535.0 0.001869 534.53638 562.94147
567.0 0.001764 534.46716 562.86780
577.0 0.001733 534.39819 562.80524
551.0 0.001815 534.32928 562.75317
535.0 0.001869 534.26019 562.71185
533.0 0.001876 534.19116 562.68134
561.0 0.001783 534.12238 562.66150
550.0 0.001818 534.05322 562.65204
538.0 0.001859 533.98438 562.65308
563.0 0.001776 533.91534 562.66486
551.0 0.001815 533.84607 562.68713
562.0 0.001779 533.77704 562.72034
555.0 0.001802 533.70801 562.76398
544.0 0.001838 533.63898 562.81830
564.0 0.001773 533.56964 562.88361
574.0 0.001742 533.50073 562.95947
553.0 0.001808 533.43152 563.04663
545.0 0.001835 533.36249 563.14471
550.0 0.001818 533.29321 563.25397
526.0 0.001901 533.22406 563.37457
522.0 0.001916 533.15485 563.50702
541.0 0.001848 533.08582 563.65076
551.0 0.001815 533.01672 563.80646
553.0 0.001808 532.94727 563.97388
554.0 0.001805 532.87823 564.15393
546.0 0.001832 532.80896 564.34631
542.0 0.001845 532.73975 564.55151
527.0 0.001898 532.67053 564.76935
530.0 0.001887 532.60126 565.00037
557.0 0.001795 532.53198 565.24512
566.0 0.001767 532.46271 565.50372
554.0 0.001805 532.39343 565.77643
534.0 0.001873 532.32416 566.06354
522.0 0.001916 532.25470 566.36572
521.0 0.001919 532.18536 566.68298
530.0 0.001887 532.11609 567.01624
544.0 0.001838 532.04669 567.36536
538.0 0.001859 531.97754 567.73132
536.0 0.001866 531.90814 568.11432
513.0 0.001949 531.83862 568.51483
501.0 0.001996 531.76923 568.93365
564.0 0.001773 531.69989 569.37128
583.0 0.001715 531.63055 569.82843
576.0 0.001736 531.56104 570.30591
569.0 0.001757 531.49158 570.80414
548.0 0.001825 531.42224 571.32404
562.0 0.001779 531.35272 571.86652
550.0 0.001818 531.28333 572.43274
538.0 0.001859 531.21381 573.02307
568.0 0.001761 531.14441 573.63892
567.0 0.001764 531.07477 574.28168
567.0 0.001764 531.00543 574.95209
539.0 0.001855 530.93585 575.65210
548.0 0.001825 530.86646 576.38275
562.0 0.001779 530.79669 577.14581
566.0 0.001767 530.72723 577.94312
549.0 0.001821 530.65753 578.77686
557.0 0.001795 530.58801 579.64844
572.0 0.001748 530.51837 580.56152
533.0 0.001876 530.44897 581.51782
508.0 0.001969 530.37927 582.52063
553.0 0.001808 530.30957 583.57330
564.0 0.001773 530.23993 584.67957
580.0 0.001724 530.17041 585.84338
610.0 0.001639 530.10059 587.06952
585.0 0.001709 530.03119 588.36316
580.0 0.001724 529.96149 589.72961
561.0 0.001783 529.89185 591.17578
560.0 0.001786 529.82196 592.70831
586.0 0.001706 529.75226 594.33527
618.0 0.001618 529.68243 596.06555
614.0 0.001629 529.61267 597.90912
586.0 0.001706 529.54297 599.87610
576.0 0.001736 529.47345 601.97943
583.0 0.001715 529.40344 604.23169
589.0 0.001698 529.33362 606.64777
600.0 0.001667 529.26404 604.88556
582.0 0.001718 529.19403 607.72638
595.0 0.001681 529.12427 610.78363
607.0 0.001647 529.05444 614.07855
600.0 0.001667 528.98480 617.63428
617.0 0.001621 528.91467 621.47595
619.0 0.001616 528.84485 625.63080
626.0 0.001597 528.77509 630.12830
621.0 0.001610 528.70520 635.00006
621.0 0.001610 528.63531 640.28021
635.0 0.001575 528.56543 646.00500
622.0 0.001608 528.49548 652.21338
619.0 0.001616 528.42566 658.94580
671.0 0.001490 528.35553 666.24597
675.0 0.001481 528.28577 674.15973
656.0 0.001524 528.21570 682.73425
662.0 0.001511 528.14594 692.01904
668.0 0.001497 528.07587 702.06586
678.0 0.001475 528.00586 712.92743
690.0 0.001449 527.93579 724.65784
710.0 0.001408 527.86560 737.31189
709.0 0.001410 527.79590 750.94598
731.0 0.001368 527.72577 765.61438
719.0 0.001391 527.65552 781.37286
710.0 0.001408 527.58557 798.27533
772.0 0.001295 527.51550 816.37396
831.0 0.001203 527.44550 835.71820
857.0 0.001167 527.37518 856.35522
847.0 0.001181 527.30524 878.32690
868.0 0.001152 527.23517 901.67157
885.0 0.001130 527.16486 926.41974
882.0 0.001134 527.09497 952.59644
912.0 0.001096 527.02478 980.21844
967.0 0.001034 526.95465 1009.29236
999.0 0.001001 526.88440 1039.81555
1024.0 0.000977 526.81439 1071.77307
1040.0 0.000962 526.74402 1105.13733
1063.0 0.000941 526.67389 1139.86755
1099.0 0.000910 526.60376 1175.90747
1164.0 0.000859 526.53339 1213.18481
1194.0 0.000838 526.46326 1251.61157
1218.0 0.000821 526.39307 1291.08179
1284.0 0.000779 526.32269 1331.47278
1297.0 0.000771 526.25244 1372.64478
1325.0 0.000755 526.18225 1414.44104
1376.0 0.000727 526.11200 1456.68970
1404.0 0.000712 526.04156 1499.20288
1433.0 0.000698 525.97131 1541.78088
1519.0 0.000658 525.90100 1584.21155
1570.0 0.000637 525.83057 1626.27222
1625.0 0.000615 525.76038 1667.73059
1662.0 0.000602 525.69000 1708.34692
1686.0 0.000593 525.61969 1747.87207
1787.0 0.000560 525.54938 1786.04883
1843.0 0.000543 525.47913 1822.61279
1865.0 0.000536 525.40869 1857.29004
1954.0 0.000512 525.33820 1889.79773
1998.0 0.000501 525.26776 1919.84668
1996.0 0.000501 525.19733 1947.14294
2038.0 0.000491 525.12701 1971.39075
2052.0 0.000487 525.05652 1992.29993
2043.0 0.000489 524.98596 2009.59302
2093.0 0.000478 524.91553 2023.01331
2146.0 0.000466 524.84503 2032.33582
2116.0 0.000473 524.77484 2037.37720
2112.0 0.000473 524.70422 2038.00476
2085.0 0.000480 524.63348 2034.14380
2030.0 0.000493 524.56329 2025.78479
1976.0 0.000506 524.49274 2012.98462
2006.0 0.000499 524.42230 1995.86511
1961.0 0.000510 524.35162 1974.61121
1926.0 0.000519 524.28113 1949.46387
1875.0 0.000533 524.21063 1920.71143
1905.0 0.000525 524.14020 1888.67944
1836.0 0.000545 524.06958 1853.72095
1818.0 0.000550 523.99896 1816.20618
1722.0 0.000581 523.92828 1776.51172
1644.0 0.000608 523.85779 1735.01392
1594.0 0.000627 523.78717 1692.07947
1551.0 0.000645 523.71655 1648.06177
1527.0 0.000655 523.64587 1603.29395
1425.0 0.000702 523.57513 1558.08850
1385.0 0.000722 523.50470 1512.73389
1302.0 0.000768 523.43384 1467.49414
1231.0 0.000812 523.36334 1422.60779
1237.0 0.000808 523.29266 1378.28918
1216.0 0.000822 523.22217 1334.72827
1170.0 0.000855 523.15137 1292.09241
1116.0 0.000896 523.08063 1250.52661
1082.0 0.000924 523.01001 1210.15479
1054.0 0.000949 522.93933 1171.08203
1000.0 0.001000 522.86871 1133.39368
954.0 0.001048 522.79773 1097.15930
955.0 0.001047 522.72699 1062.43042
931.0 0.001074 522.65637 1029.24512
894.0 0.001119 522.58557 997.62622
848.0 0.001179 522.51471 967.58508
838.0 0.001193 522.44415 939.12030
849.0 0.001178 522.37317 912.21997
853.0 0.001172 522.30249 886.86292
788.0 0.001269 522.23181 863.01935
768.0 0.001302 522.16083 840.65210
798.0 0.001253 522.09021 819.71710
751.0 0.001332 522.01917 800.16547
716.0 0.001397 521.94855 781.94324
726.0 0.001377 521.87781 764.99396
719.0 0.001391 521.80682 749.25684
729.0 0.001372 521.73615 734.67065
708.0 0.001412 521.66516 721.17255
667.0 0.001499 521.59424 708.69922
680.0 0.001471 521.52338 697.18701
676.0 0.001479 521.45251 686.57416
656.0 0.001524 521.38177 676.79944
683.0 0.001464 521.31067 667.80280
662.0 0.001511 521.23987 659.52771
653.0 0.001531 521.16913 651.91809
632.0 0.001582 521.09796 644.92157
625.0 0.001600 521.02710 638.48828
621.0 0.001610 520.95630 632.57104
634.0 0.001577 520.88531 627.12524
612.0 0.001634 520.81445 622.10956
601.0 0.001664 520.74359 617.48547
603.0 0.001658 520.67261 613.21729
572.0 0.001748 520.60175 609.27216
541.0 0.001848 520.53088 605.61926
596.0 0.001678 520.45984 602.23138
597.0 0.001675 520.38879 599.08295
598.0 0.001672 520.31781 596.15106
590.0 0.001695 520.24677 593.41553
570.0 0.001754 520.17596 590.85651
569.0 0.001757 520.10480 588.45758
553.0 0.001808 520.03387 586.20331
549.0 0.001821 519.96265 584.08032
577.0 0.001733 519.89197 582.07605
571.0 0.001751 519.82068 580.17969
556.0 0.001799 519.74969 578.38147
556.0 0.001799 519.67877 576.67310
580.0 0.001724 519.60779 575.04620
567.0 0.001764 519.53656 573.49402
567.0 0.001764 519.46545 572.01093
570.0 0.001754 519.39465 570.59100
557.0 0.001795 519.32367 569.22986
587.0 0.001704 519.25262 567.92267
545.0 0.001835 519.18146 566.66577
523.0 0.001912 519.11041 565.45587
559.0 0.001789 519.03943 564.28949
562.0 0.001779 518.96820 563.16455
558.0 0.001792 518.89716 562.07776
549.0 0.001821 518.82611 561.02747
524.0 0.001908 518.75507 560.01099
532.0 0.001880 518.68390 559.02740
533.0 0.001876 518.61261 558.07434
539.0 0.001855 518.54169 557.15027
556.0 0.001799 518.47070 556.25403
555.0 0.001802 518.39972 555.38428
546.0 0.001832 518.32843 554.53955
541.0 0.001848 518.25739 553.71893
534.0 0.001873 518.18628 552.92126
550.0 0.001818 518.11511 552.14575
561.0 0.001783 518.04382 551.39117
566.0 0.001767 517.97284 550.65680
573.0 0.001745 517.90192 549.94220
564.0 0.001773 517.83051 549.24585
539.0 0.001855 517.75946 548.56750
526.0 0.001901 517.68842 547.90668
584.0 0.001712 517.61719 547.26221
584.0 0.001712 517.54596 546.63391
578.0 0.001730 517.47479 546.02051
565.0 0.001770 517.40363 545.42249
585.0 0.001709 517.33252 544.83850
623.0 0.001605 517.26135 544.26843
603.0 0.001658 517.19031 543.71179
592.0 0.001689 517.11908 543.16772
637.0 0.001570 517.04803 542.63611
636.0 0.001572 516.97656 542.11627
612.0 0.001634 516.90558 541.60809
603.0 0.001658 516.83441 541.11139
605.0 0.001653 516.76324 540.62512
621.0 0.001610 516.69208 540.14941
636.0 0.001572 516.62097 539.68396
657.0 0.001522 516.54968 539.22827
651.0 0.001536 516.47864 538.78168
635.0 0.001575 516.40747 538.34467
611.0 0.001637 516.33630 537.91608
612.0 0.001634 516.26508 537.49622
646.0 0.001548 516.19391 537.08466
658.0 0.001520 516.12268 536.68127
673.0 0.001486 516.05157 536.28564
648.0 0.001543 515.98022 535.89752
646.0 0.001548 515.90936 535.51648
646.0 0.001548 515.83807 535.14288
615.0 0.001626 515.76685 534.77606
612.0 0.001634 515.69568 534.41602
629.0 0.001590 515.62457 534.06226
628.0 0.001592 515.55334 533.71484
606.0 0.001650 515.48199 533.37360
590.0 0.001695 515.41095 533.03827
564.0 0.001773 515.33990 532.70874
561.0 0.001783 515.26855 532.38470
557.0 0.001795 515.19739 532.06610
573.0 0.001745 515.12628 531.75317
558.0 0.001792 515.05518 531.44495
565.0 0.001770 514.98376 531.14172
525.0 0.001905 514.91272 530.84357
523.0 0.001912 514.84149 530.54999
561.0 0.001783 514.77039 530.26105
544.0 0.001838 514.69922 529.97662
554.0 0.001805 514.62817 529.69647
553.0 0.001808 514.55688 529.42065
541.0 0.001848 514.48566 529.14874
553.0 0.001808 514.41443 528.88086
535.0 0.001869 514.34344 528.61713
527.0 0.001898 514.27234 528.35699
547.0 0.001828 514.20105 528.10059
544.0 0.001838 514.12988 527.84790
532.0 0.001880 514.05884 527.59869
518.0 0.001931 513.98761 527.35284
522.0 0.001916 513.91644 527.11041
529.0 0.001890 513.84540 526.87128
539.0 0.001855 513.77411 526.63519
548.0 0.001825 513.70313 526.40228
543.0 0.001842 513.63208 526.17249
529.0 0.001890 513.56097 525.94531
481.0 0.002079 513.48969 525.72119
471.0 0.002123 513.41840 525.49988
509.0 0.001965 513.34741 525.28131
537.0 0.001862 513.27637 525.06549
528.0 0.001894 513.20514 524.85223
514.0 0.001946 513.13403 524.64130
507.0 0.001972 513.06317 524.43317
523.0 0.001912 512.99194 524.22729
505.0 0.001980 512.92096 524.02399
497.0 0.002012 512.84967 523.82269
530.0 0.001887 512.77875 523.62390
534.0 0.001873 512.70758 523.42706
511.0 0.001957 512.63647 523.23279
519.0 0.001927 512.56549 523.04028
508.0 0.001969 512.49445 522.85004
503.0 0.001988 512.42340 522.66180
509.0 0.001965 512.35242 522.47528
526.0 0.001901 512.28125 522.29120
517.0 0.001934 512.21014 522.10846
514.0 0.001946 512.13898 521.92804
474.0 0.002110 512.06818 521.74902
460.0 0.002174 511.99719 521.57196
495.0 0.002020 511.92615 511.92035
510.0 0.001961 511.85516 511.84937
511.0 0.001957 511.78406 511.77838
512.0 0.001953 511.71295 511.70728
506.0 0.001976 511.64221 511.63635
517.0 0.001934 511.57117 511.56531
485.0 0.002062 511.50021 511.49442
475.0 0.002105 511.42926 511.42343
509.0 0.001965 511.35812 511.35233
521.0 0.001919 511.28714 511.28159
505.0 0.001980 511.21634 511.21054
490.0 0.002041 511.14536 511.13940
503.0 0.001988 511.07446 511.06860
505.0 0.001980 511.00354 510.99753
514.0 0.001946 510.93253 510.92673
512.0 0.001953 510.86160 510.85571
499.0 0.002004 510.79080 510.78479
514.0 0.001946 510.71997 510.71402
476.0 0.002101 510.64890 510.64313
466.0 0.002146 510.57797 510.57230
494.0 0.002024 510.50729 510.50137
502.0 0.001992 510.43643 510.43036
511.0 0.001957 510.36557 510.35962
497.0 0.002012 510.29486 510.28879
495.0 0.002020 510.22397 510.21783
493.0 0.002028 510.15311 510.14703
490.0 0.002041 510.08221 510.07626
483.0 0.002070 510.01147 510.00543
506.0 0.001976 509.94070 509.93460
507.0 0.001972 509.87006 509.86380
510.0 0.001961 509.79919 509.79303
509.0 0.001965 509.72845 509.72235
518.0 0.001931 509.65762 509.65152
511.0 0.001957 509.58698 509.58075
524.0 0.001908 509.51617 509.51007
543.0 0.001842 509.44543 509.43939
532.0 0.001880 509.37479 509.36871
533.0 0.001876 509.30408 509.29791
496.0 0.002016 509.23352 509.22720
508.0 0.001969 509.16275 509.15652
534.0 0.001873 509.09204 509.08597
533.0 0.001876 509.02148 509.01526
556.0 0.001799 508.95081 508.94446
530.0 0.001887 508.88025 508.87396
514.0 0.001946 508.80975 508.80344
512.0 0.001953 508.73898 508.73267
501.0 0.001996 508.66840 508.66205
489.0 0.002045 508.59781 508.59155
539.0 0.001855 508.52737 508.52094
551.0 0.001815 508.45670 508.45038
534.0 0.001873 508.38623 508.37985
521.0 0.001919 508.31583 508.30936
538.0 0.001859 508.24530 508.23877
541.0 0.001848 508.17480 508.16833
536.0 0.001866 508.10425 508.09784
536.0 0.001866 508.03381 508.02747
534.0 0.001873 507.96338 507.95697
547.0 0.001828 507.89294 507.88644
513.0 0.001949 507.82248 507.81595
501.0 0.001996 507.75217 507.74557
536.0 0.001866 507.68170 507.67526
545.0 0.001835 507.61148 507.60483
544.0 0.001838 507.54120 507.53467
536.0 0.001866 507.47073 507.46417
533.0 0.001876 507.40033 507.39377
539.0 0.001855 507.32993 507.32355
527.0 0.001898 507.25977 507.25320
505.0 0.001980 507.18942 507.18283
532.0 0.001880 507.11923 507.11261
550.0 0.001818 507.04901 507.04242
526.0 0.001901 506.97870 506.97211
542.0 0.001845 506.90857 506.90186
548.0 0.001825 506.83835 506.83170
541.0 0.001848 506.76816 506.76144
547.0 0.001828 506.69809 506.69128
549.0 0.001821 506.62787 506.62119
538.0 0.001859 506.55783 506.55109
551.0 0.001815 506.48770 506.48105
507.0 0.001972 506.41754 506.41064
485.0 0.002062 506.34747 506.34061
516.0 0.001938 506.27737 506.27060
524.0 0.001908 506.20743 506.20059
523.0 0.001912 506.13724 506.13049
533.0 0.001876 506.06729 506.06042
526.0 0.001901 505.99731 505.99048
537.0 0.001862 505.92734 505.92053
528.0 0.001894 505.85742 505.85062
511.0 0.001957 505.78751 505.78073
546.0 0.001832 505.71756 505.71069
531.0 0.001883 505.64767 505.64087
518.0 0.001931 505.57779 505.57095
495.0 0.002020 505.50806 505.50116
505.0 0.001980 505.43826 505.43124
517.0 0.001934 505.36847 505.36145
527.0 0.001898 505.29865 505.29166
522.0 0.001916 505.22879 505.22189
522.0 0.001916 505.15897 505.15213
521.0 0.001919 505.08932 505.08243
479.0 0.002088 505.01974 505.01270
462.0 0.002165 504.95004 504.94296
493.0 0.002028 504.88031 504.87320
498.0 0.002008 504.81076 504.80356
510.0 0.001961 504.74115 504.73404
509.0 0.001965 504.67133 504.66434
491.0 0.002037 504.60199 504.59479
513.0 0.001949 504.53241 504.52527
499.0 0.002004 504.46271 504.45563
493.0 0.002028 504.39331 504.38611
521.0 0.001919 504.32379 504.31665
525.0 0.001905 504.25424 504.24722
509.0 0.001965 504.18488 504.17780
497.0 0.002012 504.11542 504.10834
484.0 0.002066 504.04605 504.03891
493.0 0.002028 503.97672 503.96951
507.0 0.001972 503.90735 503.90024
511.0 0.001957 503.83807 503.83087
502.0 0.001992 503.76886 503.76160
510.0 0.001961 503.69949 503.69217
474.0 0.002110 503.63022 503.62292
463.0 0.002160 503.56100 503.55368
507.0 0.001972 503.49194 503.48462
503.0 0.001988 503.42261 503.41522
514.0 0.001946 503.35345 503.34607
504.0 0.001984 503.28439 503.27698
495.0 0.002020 503.21524 503.20795
507.0 0.001972 503.14615 503.60461
504.0 0.001984 503.07718 503.54077
491.0 0.002037 503.00809 503.47708
516.0 0.001938 502.93909 503.41318
513.0 0.001949 502.87009 503.34964
500.0 0.002000 502.80118 503.28616
495.0 0.002020 502.73224 503.22293
510.0 0.001961 502.66327 503.15955
515.0 0.001942 502.59448 503.09659
525.0 0.001905 502.52563 503.26706
522.0 0.001916 502.45682 503.20700
517.0 0.001934 502.38797 503.14667
517.0 0.001934 502.31934 503.08679
496.0 0.002016 502.25061 503.02710
462.0 0.002165 502.18179 502.96753
511.0 0.001957 502.11316 502.90808
506.0 0.001976 502.04459 502.84906
519.0 0.001927 501.97592 502.78986
523.0 0.001912 501.90732 502.73129
514.0 0.001946 501.83881 502.67279
524.0 0.001908 501.77026 502.61429
514.0 0.001946 501.70181 502.55627
505.0 0.001980 501.63324 502.49826
521.0 0.001919 501.56488 502.44061
524.0 0.001908 501.49643 502.38309
532.0 0.001880 501.42807 502.32587
525.0 0.001905 501.35971 502.26880
512.0 0.001953 501.29135 502.21201
517.0 0.001934 501.22308 502.15555
519.0 0.001927 501.15488 502.09924
511.0 0.001957 501.08667 502.04337
497.0 0.002012 501.01852 501.98773
511.0 0.001957 500.95032 501.93231
496.0 0.002016 500.88211 501.87714
475.0 0.002105 500.81406 501.82224
515.0 0.001942 500.74591 501.76743
519.0 0.001927 500.67783 501.71326
512.0 0.001953 500.60992 501.65927
499.0 0.002004 500.54184 501.60565
493.0 0.002028 500.47409 501.55237
491.0 0.002037 500.40613 501.49918
498.0 0.002008 500.33826 501.44659
473.0 0.002114 500.27029 501.39417
497.0 0.002012 500.20251 501.34229
514.0 0.001946 500.13486 501.29080
512.0 0.001953 500.06717 501.23950
487.0 0.002053 499.99933 501.18872
474.0 0.002110 499.93158 501.13812
505.0 0.001980 499.86392 501.08813
514.0 0.001946 499.79642 501.03857
496.0 0.002016 499.72882 500.98944
488.0 0.002049 499.66132 500.94064
496.0 0.002016 499.59387 500.89227
473.0 0.002114 499.52625 500.84442
446.0 0.002242 499.45892 500.79721
482.0 0.002075 499.39157 500.75024
482.0 0.002075 499.32397 500.70395
493.0 0.002028 499.25674 500.65808
487.0 0.002053 499.18942 500.61264
478.0 0.002092 499.12225 500.56805
481.0 0.002079 499.05493 500.52380
502.0 0.001992 498.98773 500.48019
491.0 0.002037 498.92062 500.43729
502.0 0.001992 498.85361 500.39502
510.0 0.001961 498.78641 500.35318
493.0 0.002028 498.71936 500.31204
486.0 0.002058 498.65247 500.27161
493.0 0.002028 498.58545 500.23203
497.0 0.002012 498.51852 500.19296
504.0 0.001984 498.45166 500.15475
508.0 0.001969 498.38486 500.11719
502.0 0.001992 498.31805 500.08063
515.0 0.001942 498.25128 500.04468
465.0 0.002151 498.18454 500.00986
457.0 0.002188 498.11777 499.97562
503.0 0.001988 498.05109 499.94241
503.0 0.001988 497.98453 499.91013
518.0 0.001931 497.91809 499.87891
516.0 0.001938 497.85147 499.84869
513.0 0.001949 497.78482 499.81937
525.0 0.001905 497.71857 499.79123
506.0 0.001976 497.65219 499.76413
498.0 0.002008 497.58575 499.73853
524.0 0.001908 497.51929 499.71396
528.0 0.001894 497.45306 499.69058
508.0 0.001969 497.38678 499.66876
511.0 0.001957 497.32068 499.64828
510.0 0.001961 497.25439 499.62921
526.0 0.001901 497.18839 499.61169
541.0 0.001848 497.12216 499.59576
537.0 0.001862 497.05615 499.58173
519.0 0.001927 496.99011 499.56937
515.0 0.001942 496.92416 499.55884
484.0 0.002066 496.85831 499.55042
481.0 0.002079 496.79236 499.54416
525.0 0.001905 496.72659 499.53998
526.0 0.001901 496.66077 499.53833
523.0 0.001912 496.59500 499.53925
514.0 0.001946 496.52933 499.54297
513.0 0.001949 496.46371 499.54956
526.0 0.001901 496.39804 499.55939
516.0 0.001938 496.33255 499.57260
513.0 0.001949 496.26700 499.58932
536.0 0.001866 496.20145 499.61029
552.0 0.001812 496.13608 500.39343
553.0 0.001808 496.07080 500.43149
535.0 0.001869 496.00513 500.47470
531.0 0.001883 495.93991 500.52328
543.0 0.001842 495.87463 500.57813
542.0 0.001845 495.80942 500.63965
544.0 0.001838 495.74414 500.70816
537.0 0.001862 495.67926 500.78436
545.0 0.001835 495.61417 500.86917
515.0 0.001942 495.54904 500.96298
496.0 0.002016 495.48413 501.06705
542.0 0.001845 495.41901 501.18167
555.0 0.001802 495.35434 501.30826
561.0 0.001783 495.28937 501.44754
553.0 0.001808 495.22461 501.60074
545.0 0.001835 495.15997 501.76929
547.0 0.001828 495.09515 501.95392
531.0 0.001883 495.03043 502.15656
529.0 0.001890 494.96579 502.37817
560.0 0.001786 494.90149 502.62079
553.0 0.001808 494.83685 502.88559
543.0 0.001842 494.77240 503.17456
524.0 0.001908 494.70798 503.48962
538.0 0.001859 494.64349 503.83224
529.0 0.001890 494.57935 504.20471
530.0 0.001887 494.51501 504.60898
543.0 0.001842 494.45081 505.04755
534.0 0.001873 494.38669 505.52209
554.0 0.001805 494.32248 506.03506
526.0 0.001901 494.25830 506.58871
497.0 0.002012 494.19452 507.18564
529.0 0.001890 494.13046 507.82779
533.0 0.001876 494.06659 508.51758
539.0 0.001855 494.00269 509.25763
521.0 0.001919 493.93890 510.05020
518.0 0.001931 493.87509 510.89697
532.0 0.001880 493.81134 511.80066
526.0 0.001901 493.74771 512.76282
513.0 0.001949 493.68420 513.78583
537.0 0.001862 493.62042 514.87097
552.0 0.001812 493.55713 516.02026
533.0 0.001876 493.49359 517.23462
540.0 0.001852 493.43015 518.51489
534.0 0.001873 493.36688 519.86237
537.0 0.001862 493.30353 521.27692
549.0 0.001821 493.24033 522.75891
546.0 0.001832 493.17703 524.30768
529.0 0.001890 493.11395 525.92279
545.0 0.001835 493.05099 527.60266
524.0 0.001908 492.98788 529.34534
502.0 0.001992 492.92480 531.14844
540.0 0.001852 492.86200 533.00928
537.0 0.001862 492.79901 534.92389
528.0 0.001894 492.73636 536.88849
520.0 0.001923 492.67355 538.89777
498.0 0.002008 492.61081 540.94635
527.0 0.001898 492.54822 543.02789
523.0 0.001912 492.48560 545.13574
513.0 0.001949 492.42303 547.26221
537.0 0.001862 492.36066 549.39893
538.0 0.001859 492.29813 551.53729
514.0 0.001946 492.23578 553.66797
505.0 0.001980 492.17352 555.78125
513.0 0.001949 492.11124 557.86621
537.0 0.001862 492.04904 560.51154
537.0 0.001862 491.98694 562.51422
527.0 0.001898 491.92487 564.45477
537.0 0.001862 491.86276 566.32166
553.0 0.001808 491.80075 568.10254
518.0 0.001931 491.73889 569.78479
502.0 0.001992 491.67703 571.35608
544.0 0.001838 491.61526 572.80402
566.0 0.001767 491.55347 574.11658
569.0 0.001757 491.49182 575.28253
543.0 0.001842 491.43015 576.29065
531.0 0.001883 491.36865 577.13123
547.0 0.001828 491.30704 577.79620
516.0 0.001938 491.24564 578.27850
513.0 0.001949 491.18436 578.57269
552.0 0.001812 491.12292 578.67505
550.0 0.001818 491.06174 578.58459
529.0 0.001890 491.00049 578.30157
519.0 0.001927 490.93930 577.82800
522.0 0.001916 490.87827 577.16864
517.0 0.001934 490.81732 576.32935
524.0 0.001908 490.75626 575.31793
522.0 0.001916 490.69537 574.14319
521.0 0.001919 490.63443 572.81561
536.0 0.001866 490.57376 571.34662
516.0 0.001938 490.51303 569.74835
502.0 0.001992 490.45242 568.03351
535.0 0.001869 490.39172 566.21539
529.0 0.001890 490.33133 564.30756
537.0 0.001862 490.27075 562.32349
537.0 0.001862 490.21036 560.27649
520.0 0.001923 490.14984 558.17981
534.0 0.001873 490.08966 556.04645
526.0 0.001901 490.02945 553.88855
502.0 0.001992 489.96930 551.71808
536.0 0.001866 489.90906 549.54572
556.0 0.001799 489.84912 547.38214
531.0 0.001883 489.78928 545.23694
507.0 0.001972 489.72922 543.11896
523.0 0.001912 489.66946 541.03638
544.0 0.001838 489.60959 538.99670
542.0 0.001845 489.54996 537.00610
538.0 0.001859 489.49023 535.07117
543.0 0.001842 489.43076 533.19659
544.0 0.001838 489.37119 531.38733
511.0 0.001957 489.31174 529.64734
489.0 0.002045 489.25220 527.97998
539.0 0.001855 489.19290 526.38849
531.0 0.001883 489.13370 524.87543
522.0 0.001916 489.07455 523.44250
502.0 0.001992 489.01529 522.09167
498.0 0.002008 488.95639 520.82471
517.0 0.001934 488.89725 519.64240
507.0 0.001972 488.83832 518.54602
493.0 0.002028 488.77954 517.53577
520.0 0.001923 488.72086 516.61279
539.0 0.001855 488.66199 515.77734
522.0 0.001916 488.60330 515.03009
530.0 0.001887 488.54480 514.37109
523.0 0.001912 488.48608 513.80072
525.0 0.001905 488.42780 513.31958
530.0 0.001887 488.36942 512.92798
521.0 0.001919 488.31097 512.62628
500.0 0.002000 488.25272 512.41534
500.0 0.002000 488.19473 512.29547
478.0 0.002092 488.13651 512.26746
473.0 0.002114 488.07846 512.33246
529.0 0.001890 488.02051 512.49097
559.0 0.001789 487.96249 512.74451
556.0 0.001799 487.90469 513.09387
520.0 0.001923 487.84689 513.54071
508.0 0.001969 487.78925 514.08594
517.0 0.001934 487.73163 514.73083
505.0 0.001980 487.67404 515.47729
510.0 0.001961 487.61649 516.32611
536.0 0.001866 487.55908 517.27911
547.0 0.001828 487.50165 518.33704
537.0 0.001862 487.44455 519.50134
525.0 0.001905 487.38730 520.77301
525.0 0.001905 487.33020 522.15228
547.0 0.001828 487.27301 523.64001
556.0 0.001799 487.21603 525.23615
553.0 0.001808 487.15912 526.94043
535.0 0.001869 487.10223 528.75220
552.0 0.001812 487.04547 530.67017
520.0 0.001923 486.98883 532.69257
510.0 0.001961 486.93219 534.81689
556.0 0.001799 486.87567 537.04047
569.0 0.001757 486.81912 539.35901
572.0 0.001748 486.76263 541.76819
553.0 0.001808 486.70636 544.26221
558.0 0.001792 486.65015 546.83502
587.0 0.001704 486.59393 549.47955
581.0 0.001721 486.53775 552.18719
575.0 0.001739 486.48172 554.94910
603.0 0.001658 486.42551 557.75500
601.0 0.001664 486.36990 560.59363
594.0 0.001684 486.31396 563.45325
588.0 0.001701 486.25824 566.32129
609.0 0.001642 486.20242 569.18323
628.0 0.001592 486.14697 572.02533
625.0 0.001600 486.09146 574.83252
619.0 0.001616 486.03592 577.58881
597.0 0.001675 485.98059 580.27802
600.0 0.001667 485.92529 582.88361
594.0 0.001684 485.87012 585.38885
577.0 0.001733 485.81479 587.77661
642.0 0.001558 485.75980 590.02911
651.0 0.001536 485.70471 592.12976
660.0 0.001515 485.64990 594.06067
644.0 0.001553 485.59500 595.80554
629.0 0.001590 485.54016 597.34821
648.0 0.001543 485.48560 598.67316
638.0 0.001567 485.43088 599.76691
640.0 0.001563 485.37640 600.61682
714.0 0.001401 485.32196 601.21344
710.0 0.001408 485.26758 601.54913
715.0 0.001399 485.21329 601.61938
684.0 0.001462 485.15906 601.42316
702.0 0.001425 485.10486 600.96265
705.0 0.001418 485.05072 600.24347
688.0 0.001453 484.99683 599.27502
674.0 0.001484 484.94281 598.06970
670.0 0.001493 484.88910 596.64301
678.0 0.001475 484.83530 595.01282
662.0 0.001511 484.78168 593.19897
651.0 0.001536 484.72803 591.22321
682.0 0.001466 484.67453 589.10828
692.0 0.001445 484.62112 586.87720
677.0 0.001477 484.56772 584.55377
667.0 0.001499 484.51425 582.16077
647.0 0.001546 484.46118 579.72083
669.0 0.001495 484.40805 577.25653
669.0 0.001495 484.35495 574.78796
647.0 0.001546 484.30212 572.33521
664.0 0.001506 484.24908 569.91650
660.0 0.001515 484.19629 567.54938
657.0 0.001522 484.14383 565.24963
675.0 0.001481 484.09094 563.03186
675.0 0.001481 484.03851 560.90900
680.0 0.001471 483.98602 558.89313
691.0 0.001447 483.93365 556.99493
668.0 0.001497 483.88135 555.22339
641.0 0.001560 483.82904 553.58679
634.0 0.001577 483.77698 552.09174
602.0 0.001661 483.72485 550.74384
593.0 0.001686 483.67291 549.54736
621.0 0.001610 483.62109 548.50580
608.0 0.001645 483.56915 547.62079
601.0 0.001664 483.51746 546.89349
590.0 0.001695 483.46582 546.32349
599.0 0.001669 483.41425 545.90973
605.0 0.001653 483.36276 545.64954
583.0 0.001715 483.31146 545.53918
576.0 0.001736 483.26004 545.57465
604.0 0.001656 483.20883 545.75024
598.0 0.001672 483.15768 546.05927
570.0 0.001754 483.10654 546.49451
561.0 0.001783 483.05563 547.04755
549.0 0.001821 483.00482 547.70905
568.0 0.001761 482.95395 548.46906
560.0 0.001786 482.90311 549.31689
553.0 0.001808 482.85257 550.24060
563.0 0.001776 482.80206 551.22864
563.0 0.001776 482.75153 552.26788
524.0 0.001908 482.70120 553.34540
518.0 0.001931 482.65079 554.44769
544.0 0.001838 482.60056 556.88977
548.0 0.001825 482.55048 558.01331
547.0 0.001828 482.50046 559.11938
544.0 0.001838 482.45050 560.19287
548.0 0.001825 482.40076 561.21967
567.0 0.001764 482.35083 562.18500
559.0 0.001789 482.30121 563.07501
557.0 0.001795 482.25162 563.87524
569.0 0.001757 482.20209 564.57214
571.0 0.001751 482.15274 565.15295
571.0 0.001751 482.10330 565.60547
563.0 0.001776 482.05402 565.91858
559.0 0.001789 482.00485 566.08264
566.0 0.001767 481.95581 566.08966
570.0 0.001754 481.90683 565.93304
568.0 0.001761 481.85788 565.60864
557.0 0.001795 481.80908 565.11456
576.0 0.001736 481.76041 564.45038
545.0 0.001835 481.71167 563.61896
528.0 0.001894 481.66318 562.62451
568.0 0.001761 481.61478 561.47388
566.0 0.001767 481.56638 560.17560
574.0 0.001742 481.51801 558.73926
548.0 0.001825 481.46985 557.17615
525.0 0.001905 481.42169 555.49896
537.0 0.001862 481.37372 553.71985
524.0 0.001908 481.32581 551.39233
514.0 0.001946 481.27795 549.45465
540.0 0.001852 481.23026 547.45490
547.0 0.001828 481.18265 545.40588
534.0 0.001873 481.13489 543.31964
522.0 0.001916 481.08740 541.20795
533.0 0.001876 481.04013 539.08221
526.0 0.001901 480.99283 536.95184
526.0 0.001901 480.94556 534.82684
523.0 0.001912 480.89847 532.71564
532.0 0.001880 480.85144 530.39575
529.0 0.001890 480.80444 528.33752
505.0 0.001980 480.75763 526.31476
481.0 0.002079 480.71094 524.33264
507.0 0.001972 480.66428 522.39636
509.0 0.001965 480.61771 520.51019
517.0 0.001934 480.57129 518.67786
522.0 0.001916 480.52484 516.90234
521.0 0.001919 480.47861 515.18652
519.0 0.001927 480.43243 513.53217
499.0 0.002004 480.38635 511.94095
494.0 0.002024 480.34015 510.41406
511.0 0.001957 480.29425 508.95206
521.0 0.001919 480.24838 507.55518
517.0 0.001934 480.20279 506.22339
513.0 0.001949 480.15704 504.95645
505.0 0.001980 480.11157 503.75342
504.0 0.001984 480.06616 502.61331
525.0 0.001905 480.02081 501.53500
518.0 0.001931 479.97546 500.51700
514.0 0.001946 479.93030 499.55762
505.0 0.001980 479.88522 498.65515
471.0 0.002123 479.84021 497.80740
464.0 0.002155 479.79541 497.01291
504.0 0.001984 479.75055 496.26889
498.0 0.002008 479.70578 495.57352
514.0 0.001946 479.66116 494.92441
502.0 0.001992 479.61673 494.31931
512.0 0.001953 479.57227 493.75638
513.0 0.001949 479.52802 493.23285
512.0 0.001953 479.48376 492.74695
487.0 0.002053 479.43964 492.29645
511.0 0.001957 479.39557 491.87903
503.0 0.001988 479.35159 491.49289
491.0 0.002037 479.30774 491.13608
481.0 0.002079 479.26395 490.80661
477.0 0.002096 479.22034 490.50287
484.0 0.002066 479.17682 490.22308
496.0 0.002016 479.13342 489.96585
483.0 0.002070 479.08990 489.72934
489.0 0.002045 479.04666 489.51218
485.0 0.002062 479.00360 489.31326
462.0 0.002165 478.96063 489.13147
435.0 0.002299 478.91748 488.96539
473.0 0.002114 478.87460 488.81418
485.0 0.002062 478.83182 488.67700
497.0 0.002012 478.78906 488.55261
487.0 0.002053 478.74652 488.44083
494.0 0.002024 478.70404 488.34058
497.0 0.002012 478.66153 488.25128
485.0 0.002062 478.61914 488.17258
477.0 0.002096 478.57724 488.10379
495.0 0.002020 478.53500 488.04486
487.0 0.002053 478.49298 487.99509
472.0 0.002119 478.45105 487.95441
468.0 0.002137 478.40927 487.92267
474.0 0.002110 478.36752 487.89975
498.0 0.002008 478.32584 487.88550
503.0 0.001988 478.28433 487.87988
495.0 0.002020 478.24304 487.88324
486.0 0.002058 478.20175 487.89523
500.0 0.002000 478.16043 487.91635
463.0 0.002160 478.11929 487.94684
433.0 0.002309 478.07825 487.98700
479.0 0.002088 478.03732 488.03729
481.0 0.002079 477.99652 488.09808
492.0 0.002033 477.95581 488.16998
480.0 0.002083 477.91510 488.25357
477.0 0.002096 477.87463 488.34988
486.0 0.002058 477.83423 488.45938
484.0 0.002066 477.79376 488.58322
460.0 0.002174 477.75357 488.72244
497.0 0.002012 477.71335 488.87830
513.0 0.001949 477.67343 489.05194
511.0 0.001957 477.63348 489.24503
495.0 0.002020 477.59366 489.45886
488.0 0.002049 477.55386 489.69559
491.0 0.002037 477.51440 489.95694
496.0 0.002016 477.47473 490.24506
506.0 0.001976 477.43539 490.56235
505.0 0.001980 477.39612 490.91098
491.0 0.002037 477.35681 491.29395
476.0 0.002101 477.31775 491.71417
451.0 0.002217 477.27866 492.17453
485.0 0.002062 477.23978 492.67847
496.0 0.002016 477.20084 493.22952
490.0 0.002041 477.16214 493.83142
495.0 0.002020 477.12360 494.48825
485.0 0.002062 477.08502 495.20389
484.0 0.002066 477.04663 495.98315
472.0 0.002119 477.00836 496.83041
483.0 0.002070 476.97021 497.75061
507.0 0.001972 476.93195 498.74844
494.0 0.002024 476.89401 499.82907
491.0 0.002037 476.85599 500.24976
465.0 0.002151 476.81827 501.51999
461.0 0.002169 476.78055 502.88904
475.0 0.002105 476.74292 504.36200
491.0 0.002037 476.70544 505.94482
501.0 0.001996 476.66812 507.64233
492.0 0.002033 476.63086 509.46011
495.0 0.002020 476.59369 511.40317
470.0 0.002128 476.55649 513.47656
447.0 0.002237 476.51956 515.68463
510.0 0.001961 476.48264 518.03174
522.0 0.001916 476.44586 520.52197
526.0 0.001901 476.40915 523.15851
513.0 0.001949 476.37259 525.94421
495.0 0.002020 476.33615 528.88147
501.0 0.001996 476.29987 531.97144
503.0 0.001988 476.26352 535.21533
489.0 0.002045 476.22739 538.61224
514.0 0.001946 476.19125 542.16180
515.0 0.001942 476.15540 545.86115
515.0 0.001942 476.11960 549.70746
515.0 0.001942 476.08365 553.69611
515.0 0.001942 476.04819 557.82104
518.0 0.001931 476.01266 562.07538
525.0 0.001905 475.97729 566.45050
531.0 0.001883 475.94189 570.93640
540.0 0.001852 475.90665 575.52100
541.0 0.001848 475.87146 580.19189
498.0 0.002008 475.83649 584.93378
497.0 0.002012 475.80164 589.73059
536.0 0.001866 475.76688 594.56427
536.0 0.001866 475.73203 599.41547
546.0 0.001832 475.69742 604.26343
541.0 0.001848 475.66302 609.08575
547.0 0.001828 475.62866 613.85883
552.0 0.001812 475.59433 618.55798
536.0 0.001866 475.56021 623.15759
529.0 0.001890 475.52609 627.63098
578.0 0.001730 475.49216 631.95099
588.0 0.001701 475.45819 636.08942
576.0 0.001736 475.42453 640.01807
554.0 0.001805 475.39090 643.70862
542.0 0.001845 475.35733 647.13251
551.0 0.001815 475.32394 650.26184
581.0 0.001721 475.29056 653.06921
591.0 0.001692 475.25735 655.52808
576.0 0.001736 475.22421 657.61414
573.0 0.001745 475.19125 659.30457
541.0 0.001848 475.15826 660.57935
541.0 0.001848 475.12552 661.42218
600.0 0.001667 475.09277 661.82068
619.0 0.001616 475.06030 661.76605
597.0 0.001675 475.02774 661.25562
570.0 0.001754 474.99542 660.29053
541.0 0.001848 474.96307 658.87793
569.0 0.001757 474.93103 657.03009
579.0 0.001727 474.89899 654.76367
577.0 0.001733 474.86691 652.09967
597.0 0.001675 474.83514 649.06335
579.0 0.001727 474.80341 645.68298
569.0 0.001757 474.77182 641.98889
557.0 0.001795 474.74030 638.01355
550.0 0.001818 474.70877 633.79016
549.0 0.001821 474.67749 629.35217
554.0 0.001805 474.64615 624.73303
556.0 0.001799 474.61526 619.37122
546.0 0.001832 474.58423 614.49316
545.0 0.001835 474.55338 609.52802
508.0 0.001969 474.52246 604.50439
493.0 0.002028 474.49197 599.44910
519.0 0.001927 474.46130 594.38647
516.0 0.001938 474.43082 589.34003
532.0 0.001880 474.40057 584.33038
517.0 0.001934 474.37027 579.37646
494.0 0.002024 474.34015 574.49591
517.0 0.001934 474.31021 569.70380
512.0 0.001953 474.28036 565.01367
506.0 0.001976 474.25037 560.43781
540.0 0.001852 474.22086 555.98651
531.0 0.001883 474.19122 551.66864
515.0 0.001942 474.16165 547.49133
504.0 0.001984 474.13226 543.46094
500.0 0.002000 474.10300 539.58215
506.0 0.001976 474.07397 535.85840
519.0 0.001927 474.04489 532.29218
509.0 0.001965 474.01587 528.88458
504.0 0.001984 473.98709 525.63605
506.0 0.001976 473.95834 522.54590
485.0 0.002062 473.92975 519.61279
462.0 0.002165 473.90118 516.83429
496.0 0.002016 473.87283 514.20758
510.0 0.001961 473.84457 511.72916
524.0 0.001908 473.81644 509.39523
500.0 0.002000 473.78827 507.20108
497.0 0.002012 473.76028 505.14191
505.0 0.001980 473.73254 503.21265
481.0 0.002079 473.70465 501.40775
466.0 0.002146 473.67709 499.72177
486.0 0.002058 473.64941 498.14914
483.0 0.002070 473.62210 496.68359
486.0 0.002058 473.59479 495.31967
474.0 0.002110 473.56763 494.05170
479.0 0.002088 473.54050 492.87387
493.0 0.002028 473.51340 491.78055
508.0 0.001969 473.48663 490.76627
506.0 0.001976 473.45993 489.82584
495.0 0.002020 473.43317 488.95407
489.0 0.002045 473.40665 488.14621
462.0 0.002165 473.38013 487.39731
444.0 0.002252 473.35394 486.70303
502.0 0.001992 473.32761 486.05933
504.0 0.001984 473.30157 485.46198
491.0 0.002037 473.27536 484.90729
473.0 0.002114 473.24957 484.39178
459.0 0.002179 473.22388 483.91220
460.0 0.002174 473.19815 483.46558
450.0 0.002222 473.17258 483.04898
455.0 0.002198 473.14706 482.65967
497.0 0.002012 473.12180 482.29538
498.0 0.002008 473.09653 481.95410
487.0 0.002053 473.07132 481.63342
480.0 0.002083 473.04639 481.33173
480.0 0.002083 473.02142 481.04755
493.0 0.002028 472.99664 480.77887
506.0 0.001976 472.97189 480.52469
500.0 0.002000 472.94748 480.28360
478.0 0.002092 472.92288 480.05444
484.0 0.002066 472.89847 479.83621
452.0 0.002212 472.87418 479.62817
435.0 0.002299 472.85025 479.42923
485.0 0.002062 472.82608 479.23871
479.0 0.002088 472.80212 479.05606
481.0 0.002079 472.77832 478.88049
480.0 0.002083 472.75467 478.71164
475.0 0.002105 472.73096 478.54895
484.0 0.002066 472.70752 478.39188
466.0 0.002146 472.68414 478.24023
458.0 0.002183 472.66083 478.09348
494.0 0.002024 472.63770 477.95148
492.0 0.002033 472.61465 477.81372
490.0 0.002041 472.59177 477.68008
491.0 0.002037 472.56894 477.55038
480.0 0.002083 472.54623 477.42429
483.0 0.002070 472.52353 477.30176
500.0 0.002000 472.50110 477.18256
495.0 0.002020 472.47861 477.06625
482.0 0.002075 472.45636 476.95316
490.0 0.002041 472.43420 476.84277
455.0 0.002198 472.41217 476.73523
438.0 0.002283 472.39011 476.63022
477.0 0.002096 472.36835 476.52777
486.0 0.002058 472.34665 476.42770
495.0 0.002020 472.32507 476.32999
485.0 0.002062 472.30338 476.23425
474.0 0.002110 472.28210 476.14087
469.0 0.002132 472.26071 476.04959
463.0 0.002160 472.23959 475.96024
458.0 0.002183 472.21854 475.87268
484.0 0.002066 472.19748 475.78702
508.0 0.001969 472.17664 475.70337
493.0 0.002028 472.15591 475.62122
482.0 0.002075 472.13531 475.54080
477.0 0.002096 472.11472 475.46210
478.0 0.002092 472.09439 475.38486
483.0 0.002070 472.07397 475.30914
487.0 0.002053 472.05386 475.23499
480.0 0.002083 472.03378 475.16211
473.0 0.002114 472.01373 475.09073
456.0 0.002193 471.99399 475.02066
447.0 0.002237 471.97412 474.95193
492.0 0.002033 471.95450 474.88464
497.0 0.002012 471.93494 474.81827
499.0 0.002004 471.91562 474.75336
498.0 0.002008 471.89624 474.68954
478.0 0.002092 471.87695 474.62680
476.0 0.002101 471.85791 474.56516
459.0 0.002179 471.83896 474.50461
459.0 0.002179 471.82013 474.44522
493.0 0.002028 471.80136 474.38663
486.0 0.002058 471.78250 474.32916
477.0 0.002096 471.76404 474.27264
465.0 0.002151 471.74570 474.21704
468.0 0.002137 471.72736 474.16257
485.0 0.002062 471.70911 474.10883
483.0 0.002070 471.69104 474.05585
483.0 0.002070 471.67291 474.00385
481.0 0.002079 471.65515 473.95270
491.0 0.002037 471.63733 473.90228
468.0 0.002137 471.61960 473.85263
428.0 0.002336 471.60202 473.80386
470.0 0.002128 471.58459 473.75574
480.0 0.002083 471.56732 473.70847
496.0 0.002016 471.55002 473.66177
479.0 0.002088 471.53290 473.61603
466.0 0.002146 471.51593 473.57071
478.0 0.002092 471.49896 473.52625
465.0 0.002151 471.48218 473.48230
461.0 0.002169 471.46542 473.43893
491.0 0.002037 471.44891 473.39639
501.0 0.001996 471.43256 473.35437
488.0 0.002049 471.41605 473.31305
472.0 0.002119 471.39987 473.27222
464.0 0.002155 471.38358 473.23196
456.0 0.002193 471.36771 473.19226
475.0 0.002105 471.35181 473.15314
493.0 0.002028 471.33588 473.11459
476.0 0.002101 471.32028 473.07654
461.0 0.002169 471.30460 473.03909
437.0 0.002288 471.28918 473.00208
436.0 0.002294 471.27380 472.96558
470.0 0.002128 471.25854 472.92957
482.0 0.002075 471.24350 472.89407
482.0 0.002075 471.22827 472.85892
475.0 0.002105 471.21329 472.82449
467.0 0.002141 471.19858 472.79034
486.0 0.002058 471.18372 472.75659
466.0 0.002146 471.16913 472.72336
449.0 0.002227 471.15475 472.69064
492.0 0.002033 471.14026 472.65833
493.0 0.002028 471.12604 472.62650
476.0 0.002101 471.11185 472.59476
484.0 0.002066 471.09775 472.56366
478.0 0.002092 471.08386 472.53299
485.0 0.002062 471.06992 472.50262
492.0 0.002033 471.05621 472.47275
492.0 0.002033 471.04254 472.44308
471.0 0.002123 471.02902 472.41388
481.0 0.002079 471.01559 472.38504
459.0 0.002179 471.00232 472.35663
436.0 0.002294 470.98917 472.32843
469.0 0.002132 470.97601 472.30069
487.0 0.002053 470.96292 470.95697
494.0 0.002024 470.95016 470.94397
488.0 0.002049 470.93735 470.93124
478.0 0.002092 470.92462 470.91855
479.0 0.002088 470.91217 470.90588
472.0 0.002119 470.89975 470.89365
457.0 0.002188 470.88736 470.88141
474.0 0.002110 470.87512 470.86917
475.0 0.002105 470.86295 470.85696
469.0 0.002132 470.85101 470.84506
471.0 0.002123 470.83899 470.83310
456.0 0.002193 470.82727 470.82135
455.0 0.002198 470.81549 470.80954
477.0 0.002096 470.80399 470.79803
500.0 0.002000 470.79251 470.78659
479.0 0.002088 470.78119 470.77524
477.0 0.002096 470.76981 470.76401
468.0 0.002137 470.75876 470.75275
442.0 0.002262 470.74774 470.74182
481.0 0.002079 470.73669 470.73093
494.0 0.002024 470.72592 470.72015
495.0 0.002020 470.71518 470.70941
486.0 0.002058 470.70453 470.69879
473.0 0.002114 470.69400 470.68826
484.0 0.002066 470.68359 470.67792
488.0 0.002049 470.67325 470.66754
482.0 0.002075 470.66312 470.65738
525.0 0.001905 470.65308 470.64728
515.0 0.001942 470.64319 470.63745
499.0 0.002004 470.63315 470.62753
487.0 0.002053 470.62347 470.61792
485.0 0.002062 470.61377 470.60809
477.0 0.002096 470.60431 470.59854
482.0 0.002075 470.59485 470.58911
492.0 0.002033 470.58545 470.57983
504.0 0.001984 470.57629 470.57059
495.0 0.002020 470.56708 470.56149
447.0 0.002237 470.55801 470.55258
425.0 0.002353 470.54922 470.54352
480.0 0.002083 470.54019 470.53482
482.0 0.002075 470.53156 470.52606
477.0 0.002096 470.52298 470.51755
478.0 0.002092 470.51443 470.50894
458.0 0.002183 470.50610 470.50058
457.0 0.002188 470.49777 470.49234
461.0 0.002169 470.48975 470.48422
453.0 0.002208 470.48166 470.47626
486.0 0.002058 470.47366 470.46820
489.0 0.002045 470.46576 470.46042
488.0 0.002049 470.45801 470.45264
473.0 0.002114 470.45041 470.44507
460.0 0.002174 470.44281 470.43747
472.0 0.002119 470.43539 470.42996
492.0 0.002033 470.42807 470.42279
484.0 0.002066 470.42078 470.41556
467.0 0.002141 470.41364 470.40842
489.0 0.002045 470.40659 470.40143
458.0 0.002183 470.39975 470.39453
443.0 0.002257 470.39288 470.38770
485.0 0.002062 470.38620 470.38098
494.0 0.002024 470.37970 470.37439
500.0 0.002000 470.37314 470.36792
491.0 0.002037 470.36667 470.36148
477.0 0.002096 470.36038 470.35535
491.0 0.002037 470.35425 470.34915
504.0 0.001984 470.34818 470.34311
487.0 0.002053 470.34219 470.33701
514.0 0.001946 470.33627 470.33127
514.0 0.001946 470.33057 470.32544
500.0 0.002000 470.32492 470.31985
482.0 0.002075 470.31927 470.31424
482.0 0.002075 470.31381 470.30881
495.0 0.002020 470.30844 470.30350
494.0 0.002024 470.30319 470.29828
490.0 0.002041 470.29810 470.29309
492.0 0.002033 470.29309 470.28802
506.0 0.001976 470.28809 470.28308
476.0 0.002101 470.28323 470.27829
464.0 0.002155 470.27853 470.27362
514.0 0.001946 470.27390 470.26892
504.0 0.001984 470.26932 470.26450
506.0 0.001976 470.26489 470.26001
495.0 0.002020 470.26059 470.25571
494.0 0.002024 470.25635 470.25153
511.0 0.001957 470.25226 470.24741
492.0 0.002033 470.24814 470.24347
484.0 0.002066 470.24414 470.23944
510.0 0.001961 470.24054 470.23566
520.0 0.001923 470.23679 470.23193
503.0 0.001988 470.23303 470.22824
488.0 0.002049 470.22958 470.22482
491.0 0.002037 470.22614 470.22150
499.0 0.002004 470.22293 470.21808
500.0 0.002000 470.21951 470.21500
493.0 0.002028 470.21655 470.21188
478.0 0.002092 470.21362 470.20883
479.0 0.002088 470.21051 470.20596
454.0 0.002203 470.20770 470.20316
451.0 0.002217 470.20502 470.20047
496.0 0.002016 470.20251 470.19788
501.0 0.001996 470.19998 470.19543
509.0 0.001965 470.19754 470.19308
505.0 0.001980 470.19522 470.19073
480.0 0.002083 470.19318 470.18863
486.0 0.002058 470.19104 470.18655
477.0 0.002096 470.18890 470.18457
462.0 0.002165 470.18701 470.18259
492.0 0.002033 470.18518 470.18076
512.0 0.001953 470.18353 470.17911
496.0 0.002016 470.18182 470.17755
474.0 0.002110 470.18042 470.17596
473.0 0.002114 470.17899 470.17465
479.0 0.002088 470.17773 470.17331
492.0 0.002033 470.17661 470.17206
479.0 0.002088 470.17538 470.17105
476.0 0.002101 470.17435 470.17010
483.0 0.002070 470.17340 470.16919
445.0 0.002247 470.17264 470.16843
426.0 0.002347 470.17194 470.16769
466.0 0.002146 470.17130 470.16699
482.0 0.002075 470.17072 470.16647
489.0 0.002045 470.17038 470.16614
477.0 0.002096 470.17004 470.16580
473.0 0.002114 470.16983 470.16565
468.0 0.002137 470.16959 470.16556
463.0 0.002160 470.16965 470.16550
457.0 0.002188 470.16959 470.16562
482.0 0.002075 470.16992 470.16574
489.0 0.002045 470.17010 470.16611
479.0 0.002088 470.17047 470.16644
457.0 0.002188 470.17096 470.16693
470.0 0.002128 470.17145 470.16745
473.0 0.002114 470.17206 470.16818
491.0 0.002037 470.17285 470.16888
485.0 0.002062 470.17386 470.16971
487.0 0.002053 470.17480 470.17068
485.0 0.002062 470.17575 470.17184
450.0 0.002222 470.17697 470.17291
440.0 0.002273 470.17801 470.17410
481.0 0.002079 470.17944 470.17560
503.0 0.001988 470.18088 470.17691
509.0 0.001965 470.18222 470.17850
484.0 0.002066 470.18393 470.18002
484.0 0.002066 470.18561 470.18176
493.0 0.002028 470.18741 470.18372
472.0 0.002119 470.18924 470.18552
469.0 0.002132 470.19135 470.18756
500.0 0.002000 470.19342 470.18961
497.0 0.002012 470.19568 470.19177
492.0 0.002033 470.19778 470.19412
474.0 0.002110 470.20023 470.19662
480.0 0.002083 470.20261 470.19894
490.0 0.002041 470.20538 470.20163
506.0 0.001976 470.20786 470.20432
492.0 0.002033 470.21063 470.20700
501.0 0.001996 470.21350 470.20972
505.0 0.001980 470.21643 470.21277
467.0 0.002141 470.21945 470.21579
433.0 0.002309 470.22263 470.21896
488.0 0.002049 470.22574 470.22226
494.0 0.002024 470.22903 470.22552
493.0 0.002028 470.23251 470.22891
499.0 0.002004 470.23587 470.23257
476.0 0.002101 470.23959 470.23611
493.0 0.002028 470.24316 470.23975
481.0 0.002079 470.24698 470.24350
474.0 0.002110 470.25085 470.24744
506.0 0.001976 470.25479 470.25137
507.0 0.001972 470.25876 470.25537
503.0 0.001988 470.26303 470.25955
502.0 0.001992 470.26718 470.26379
505.0 0.001980 470.27151 470.26822
507.0 0.001972 470.27606 470.27261
500.0 0.002000 470.28043 470.27710
527.0 0.001898 470.28488 470.28174
512.0 0.001953 470.28986 470.28647
519.0 0.001927 470.29456 470.29123
472.0 0.002119 470.29926 470.29611
449.0 0.002227 470.30423 470.30099
488.0 0.002049 470.30930 470.30615
485.0 0.002062 470.31458 470.31128
489.0 0.002045 470.31970 470.31656
495.0 0.002020 470.32498 470.32184
508.0 0.001969 470.33038 470.32727
507.0 0.001972 470.33588 470.33270
489.0 0.002045 470.34149 470.33844
476.0 0.002101 470.34720 470.34402
504.0 0.001984 470.35294 470.34988
500.0 0.002000 470.35880 470.35568
495.0 0.002020 470.36472 470.36157
485.0 0.002062 470.37073 470.36761
480.0 0.002083 470.37677 470.37384
484.0 0.002066 470.38303 470.38000
509.0 0.001965 470.38934 470.38638
524.0 0.001908 470.39575 470.39273
509.0 0.001965 470.40219 470.39923
491.0 0.002037 470.40872 470.40579
469.0 0.002132 470.41537 470.41245
456.0 0.002193 470.42215 470.41928
498.0 0.002008 470.42896 470.42599
497.0 0.002012 470.43582 470.43298
496.0 0.002016 470.44296 470.43991
482.0 0.002075 470.44983 470.44714
473.0 0.002114 470.45703 470.45428
479.0 0.002088 470.46439 470.46152
466.0 0.002146 470.47156 470.46884
451.0 0.002217 470.47913 470.47635
487.0 0.002053 470.48657 470.48383
500.0 0.002000 470.49408 470.49149
480.0 0.002083 470.50183 470.49905
468.0 0.002137 470.50967 470.50687
470.0 0.002128 470.51746 470.51477
474.0 0.002110 470.52539 470.52274
484.0 0.002066 470.53336 470.53076
479.0 0.002088 470.54144 470.53882
465.0 0.002151 470.54974 470.54700
467.0 0.002141 470.55798 470.55536
448.0 0.002232 470.56628 470.56375
432.0 0.002315 470.57480 470.57230
476.0 0.002101 470.58319 470.58072
491.0 0.002037 470.59192 470.58936
497.0 0.002012 470.60046 470.59805
480.0 0.002083 470.60931 470.60681
471.0 0.002123 470.61807 470.61566
475.0 0.002105 470.62708 470.62451
467.0 0.002141 470.63620 470.63367
462.0 0.002165 470.64529 470.64276
495.0 0.002020 470.65442 470.65204
491.0 0.002037 470.66360 471.17322
487.0 0.002053 470.67307 471.18835
465.0 0.002151 470.68243 471.20349
471.0 0.002123 470.69189 471.21866
484.0 0.002066 470.70160 471.23416
486.0 0.002058 470.71124 471.24979
482.0 0.002075 470.72098 471.26572
475.0 0.002105 470.73087 471.28171
479.0 0.002088 470.74060 471.29794
441.0 0.002268 470.75085 471.31436
429.0 0.002331 470.76077 471.33090
469.0 0.002132 470.77103 471.34778
481.0 0.002079 470.78119 471.36475
478.0 0.002092 470.79153 471.38177
467.0 0.002141 470.80191 471.39914
467.0 0.002141 470.81244 471.41675
466.0 0.002146 470.82297 471.43445
451.0 0.002217 470.83359 471.45245
447.0 0.002237 470.84430 471.47073
465.0 0.002151 470.85513 471.48914
473.0 0.002114 470.86600 471.50772
476.0 0.002101 470.87695 471.52652
459.0 0.002179 470.88794 471.54553
456.0 0.002193 470.89902 471.56485
458.0 0.002183 470.91019 471.58438
474.0 0.002110 470.92151 471.60422
472.0 0.002119 470.93292 471.62418
471.0 0.002123 470.94434 471.64441
492.0 0.002033 470.95575 471.66483
456.0 0.002193 470.96738 471.68549
434.0 0.002304 470.97894 471.70648
480.0 0.002083 470.99066 471.72763
497.0 0.002012 471.00256 471.74918
490.0 0.002041 471.01434 471.77094
482.0 0.002075 471.02631 471.79300
471.0 0.002123 471.03830 471.81519
472.0 0.002119 471.05051 471.83771
458.0 0.002183 471.06274 471.86075
445.0 0.002247 471.07492 471.88379
480.0 0.002083 471.08722 471.90720
481.0 0.002079 471.09961 471.93106
467.0 0.002141 471.11206 471.95499
475.0 0.002105 471.12473 471.97940
478.0 0.002092 471.13724 472.00409
482.0 0.002075 471.15002 472.02921
483.0 0.002070 471.16284 472.05438
480.0 0.002083 471.17557 472.08017
475.0 0.002105 471.18860 472.10617
480.0 0.002083 471.20154 472.13248
447.0 0.002237 471.21463 472.15933
433.0 0.002309 471.22778 472.18646
462.0 0.002165 471.24106 472.21396
473.0 0.002114 471.25421 472.24176
492.0 0.002033 471.26761 472.27011
480.0 0.002083 471.28094 472.29871
462.0 0.002165 471.29459 472.32782
475.0 0.002105 471.30807 472.35745
455.0 0.002198 471.32159 472.38742
450.0 0.002222 471.33539 472.41788
467.0 0.002141 471.34927 472.44873
495.0 0.002020 471.36304 472.48010
490.0 0.002041 471.37692 472.51187
471.0 0.002123 471.39099 472.54425
466.0 0.002146 471.40509 472.57715
469.0 0.002132 471.41925 472.61060
468.0 0.002137 471.43344 472.64450
470.0 0.002128 471.44775 472.67892
471.0 0.002123 471.46191 472.71405
503.0 0.001988 471.47647 472.74969
478.0 0.002092 471.49091 472.78598
462.0 0.002165 471.50546 472.82294
491.0 0.002037 471.52005 472.86057
490.0 0.002041 471.53473 472.89880
487.0 0.002053 471.54956 472.93771
467.0 0.002141 471.56436 472.97754
464.0 0.002155 471.57928 473.01797
481.0 0.002079 471.59424 473.05920
470.0 0.002128 471.60938 473.10129
447.0 0.002237 471.62439 473.14426
486.0 0.002058 471.63950 473.18808
483.0 0.002070 471.65466 473.23282
473.0 0.002114 471.67014 473.27850
464.0 0.002155 471.68539 473.32532
460.0 0.002174 471.70090 473.37323
464.0 0.002155 471.71640 473.42224
477.0 0.002096 471.73178 473.47235
479.0 0.002088 471.74744 473.52380
470.0 0.002128 471.76321 473.57669
488.0 0.002049 471.77902 473.63098
471.0 0.002123 471.79477 473.68668
449.0 0.002227 471.81055 473.74405
494.0 0.002024 471.82666 473.80331
489.0 0.002045 471.84259 474.00348
492.0 0.002033 471.85873 474.06796
481.0 0.002079 471.87485 474.13446
467.0 0.002141 471.89105 474.20334
463.0 0.002160 471.90735 474.27481
448.0 0.002232 471.92371 474.34879
451.0 0.002217 471.94003 474.42554
483.0 0.002070 471.95654 474.50546
495.0 0.002020 471.97308 474.58871
479.0 0.002088 471.98962 474.67560
466.0 0.002146 472.00623 474.76624
464.0 0.002155 472.02289 474.86115
478.0 0.002092 472.03976 474.96054
477.0 0.002096 472.05664 475.06479
479.0 0.002088 472.07343 475.17444
471.0 0.002123 472.09042 475.28983
472.0 0.002119 472.10736 475.41138
453.0 0.002208 472.12436 475.53952
441.0 0.002268 472.14154 475.67505
483.0 0.002070 472.15875 475.81818
490.0 0.002041 472.17599 475.96973
493.0 0.002028 472.19348 476.13040
486.0 0.002058 472.21072 476.30066
478.0 0.002092 472.22818 476.48145
484.0 0.002066 472.24561 476.67361
480.0 0.002083 472.26321 476.87769
462.0 0.002165 472.28082 477.09454
509.0 0.001965 472.29849 477.32516
515.0 0.001942 472.31622 477.57071
493.0 0.002028 472.33386 477.83170
478.0 0.002092 472.35175 478.10953
474.0 0.002110 472.36975 478.40503
484.0 0.002066 472.38763 478.71912
498.0 0.002008 472.40567 479.05325
491.0 0.002037 472.42371 479.92822
477.0 0.002096 472.44183 480.31107
486.0 0.002058 472.45999 480.71704
453.0 0.002208 472.47821 481.14758
429.0 0.002331 472.49658 481.60361
479.0 0.002088 472.51480 482.08646
495.0 0.002020 472.53329 482.59711
508.0 0.001969 472.55176 483.13654
499.0 0.002004 472.57031 483.70599
480.0 0.002083 472.58871 484.30615
494.0 0.002024 472.60742 484.93842
480.0 0.002083 472.62604 485.60312
475.0 0.002105 472.64487 486.30164
495.0 0.002020 472.66357 487.03412
497.0 0.002012 472.68237 487.80157
494.0 0.002024 472.70142 488.60413
472.0 0.002119 472.72034 489.44220
468.0 0.002137 472.73932 490.31628
469.0 0.002132 472.75824 491.22610
474.0 0.002110 472.77747 492.17166
494.0 0.002024 472.79663 493.15259
490.0 0.002041 472.81586 494.16855
502.0 0.001992 472.83499 495.21860
463.0 0.002160 472.85431 496.30176
439.0 0.002278 472.87369 497.41714
479.0 0.002088 472.89304 498.56317
478.0 0.002092 472.91245 499.73798
489.0 0.002045 472.93195 500.93994
478.0 0.002092 472.95163 502.16650
480.0 0.002083 472.97122 503.41525
488.0 0.002049 472.99081 504.68326
489.0 0.002045 473.01062 505.96747
479.0 0.002088 473.03030 507.26425
504.0 0.001984 473.05023 508.56989
495.0 0.002020 473.06995 509.88016
480.0 0.002083 473.08987 511.19064
467.0 0.002141 473.10995 512.49664
467.0 0.002141 473.12997 513.79285
473.0 0.002114 473.14990 515.07410
487.0 0.002053 473.16998 516.33459
495.0 0.002020 473.19022 517.56854
484.0 0.002066 473.21036 518.77002
488.0 0.002049 473.23062 519.93243
466.0 0.002146 473.25095 521.04950
448.0 0.002232 473.27121 522.11493
482.0 0.002075 473.29150 523.12183
490.0 0.002041 473.31201 524.06415
488.0 0.002049 473.33246 524.93530
487.0 0.002053 473.35300 525.72919
487.0 0.002053 473.37363 526.43976
495.0 0.002020 473.39429 527.06177
475.0 0.002105 473.41476 527.59009
477.0 0.002096 473.43549 528.02026
498.0 0.002008 473.45627 528.34869
501.0 0.001996 473.47702 528.57233
496.0 0.002016 473.49780 528.68921
482.0 0.002075 473.51871 528.69818
479.0 0.002088 473.53976 528.59924
479.0 0.002088 473.56061 528.39325
509.0 0.001965 473.58173 528.08240
499.0 0.002004 473.60272 527.66937
480.0 0.002083 473.62381 527.15839
492.0 0.002033 473.64490 526.55383
482.0 0.002075 473.66605 525.86169
468.0 0.002137 473.68732 525.08783
493.0 0.002028 473.70859 524.23865
490.0 0.002041 473.72986 523.32147
499.0 0.002004 473.75116 522.34326
492.0 0.002033 473.77255 521.31165
482.0 0.002075 473.79401 520.23358
493.0 0.002028 473.81546 519.11639
495.0 0.002020 473.83694 517.96741
496.0 0.002016 473.85852 516.79333
524.0 0.001908 473.88004 515.60034
504.0 0.001984 473.90176 514.39520
492.0 0.002033 473.92334 513.18347
483.0 0.002070 473.94510 511.97064
479.0 0.002088 473.96683 510.76224
490.0 0.002041 473.98865 509.56262
498.0 0.002008 474.01050 508.37653
508.0 0.001969 474.03232 507.20776
486.0 0.002058 474.05417 506.06033
489.0 0.002045 474.07605 504.93762
445.0 0.002247 474.09805 503.84247
429.0 0.002331 474.12003 502.77808
475.0 0.002105 474.14212 501.74673
480.0 0.002083 474.16403 500.75067
487.0 0.002053 474.18622 499.79208
479.0 0.002088 474.20828 498.87262
484.0 0.002066 474.23062 497.99399
482.0 0.002075 474.25290 497.15717
478.0 0.002092 474.27518 496.36346
493.0 0.002028 474.29739 495.61395
499.0 0.002004 474.31970 494.90918
501.0 0.001996 474.34201 494.24982
497.0 0.002012 474.36447 493.63647
500.0 0.002000 474.38687 493.06921
497.0 0.002012 474.40933 492.54831
503.0 0.001988 474.43179 492.07385
503.0 0.001988 474.45432 491.64581
509.0 0.001965 474.47687 491.26407
493.0 0.002028 474.49951 490.92838
503.0 0.001988 474.52216 490.63824
471.0 0.002123 474.54483 490.39380
470.0 0.002128 474.56754 490.19437
509.0 0.001965 474.59024 490.03955
506.0 0.001976 474.61304 489.92883
505.0 0.001980 474.63574 489.86197
490.0 0.002041 474.65851 489.83829
476.0 0.002101 474.68143 489.85712
483.0 0.002070 474.70438 489.91818
475.0 0.002105 474.72723 490.02090
463.0 0.002160 474.75015 490.16479
502.0 0.001992 474.77304 490.34955
522.0 0.001916 474.79620 490.57425
507.0 0.001972 474.81909 490.83865
486.0 0.002058 474.84225 491.14233
481.0 0.002079 474.86526 491.48489
512.0 0.001953 474.88840 491.86594
508.0 0.001969 474.91147 492.28476
506.0 0.001976 474.93463 492.74130
492.0 0.002033 474.95789 493.23492
497.0 0.002012 474.98099 493.76550
471.0 0.002123 475.00446 494.33261
448.0 0.002232 475.02765 494.93552
499.0 0.002004 475.05090 495.57404
498.0 0.002008 475.07437 496.24786
493.0 0.002028 475.09772 496.95642
502.0 0.001992 475.12115 497.69928
486.0 0.002058 475.14450 498.47577
501.0 0.001996 475.16791 499.28543
485.0 0.002062 475.19144 500.12793
482.0 0.002075 475.21490 501.00229
504.0 0.001984 475.23843 501.90778
516.0 0.001938 475.26199 502.84399
509.0 0.001965 475.28543 503.80963
500.0 0.002000 475.30923 504.80432
495.0 0.002020 475.33289 505.82672
527.0 0.001898 475.35638 506.87601
536.0 0.001866 475.38004 507.95108
516.0 0.001938 475.40369 509.05081
500.0 0.002000 475.42740 510.17401
516.0 0.001938 475.45114 511.31964
489.0 0.002045 475.47501 512.48639
480.0 0.002083 475.49872 513.67310
526.0 0.001901 475.52252 514.87842
529.0 0.001890 475.54626 516.10114
530.0 0.001887 475.57007 517.34027
515.0 0.001942 475.59393 518.59430
497.0 0.002012 475.61786 519.86243
524.0 0.001908 475.64182 521.14307
519.0 0.001927 475.66574 522.43518
523.0 0.001912 475.68967 523.73737
551.0 0.001815 475.71359 525.04846
544.0 0.001838 475.73758 526.36664
526.0 0.001901 475.76166 527.69031
513.0 0.001949 475.78568 529.01758
525.0 0.001905 475.80969 530.34601
523.0 0.001912 475.83377 531.67297
529.0 0.001890 475.85788 532.99573
529.0 0.001890 475.88190 534.31067
537.0 0.001862 475.90610 535.61389
566.0 0.001767 475.93015 536.90137
527.0 0.001898 475.95435 538.16815
511.0 0.001957 475.97849 539.40900
527.0 0.001898 476.00269 540.61847
538.0 0.001859 476.02686 541.79010
538.0 0.001859 476.05106 542.91772
535.0 0.001869 476.07532 543.99457
525.0 0.001905 476.09958 545.01331
526.0 0.001901 476.12384 545.96680
515.0 0.001942 476.14813 546.84778
511.0 0.001957 476.17249 547.64874
536.0 0.001866 476.19678 548.36200
536.0 0.001866 476.22110 548.98065
551.0 0.001815 476.24554 549.49738
548.0 0.001825 476.26981 549.90588
538.0 0.001859 476.29416 550.20001
540.0 0.001852 476.31860 550.37463
553.0 0.001808 476.34296 550.42511
554.0 0.001805 476.36737 550.34808
548.0 0.001825 476.39188 550.14087
548.0 0.001825 476.41626 549.80261
520.0 0.001923 476.44080 549.33319
499.0 0.002004 476.46515 548.73389
537.0 0.001862 476.48972 548.00763
543.0 0.001842 476.51422 547.15802
556.0 0.001799 476.53860 546.19037
538.0 0.001859 476.56308 545.11078
529.0 0.001890 476.58762 543.92621
532.0 0.001880 476.61221 542.64459
521.0 0.001919 476.63675 541.27435
513.0 0.001949 476.66135 539.82440
531.0 0.001883 476.68585 538.30365
544.0 0.001838 476.71045 536.72156
530.0 0.001887 476.73505 535.08704
521.0 0.001919 476.75961 533.40955
523.0 0.001912 476.78424 531.69745
521.0 0.001919 476.80893 529.95947
522.0 0.001916 476.83353 528.20355
535.0 0.001869 476.85812 526.43744
527.0 0.001898 476.88269 524.66846
519.0 0.001927 476.90732 522.90277
477.0 0.002096 476.93198 521.14734
477.0 0.002096 476.95679 519.40735
510.0 0.001961 476.98135 517.68823
513.0 0.001949 477.00604 515.99487
505.0 0.001980 477.03070 514.33148
506.0 0.001976 477.05545 512.70215
506.0 0.001976 477.08008 511.10999
509.0 0.001965 477.10483 509.55807
490.0 0.002041 477.12958 508.04938
462.0 0.002165 477.15433 506.58578
488.0 0.002049 477.17902 505.16931
524.0 0.001908 477.20367 504.34879
508.0 0.001969 477.22842 503.03662
490.0 0.002041 477.25308 501.77533
484.0 0.002066 477.27789 500.56555
480.0 0.002083 477.30264 499.40720
501.0 0.001996 477.32736 498.30066
508.0 0.001969 477.35211 497.24567
493.0 0.002028 477.37686 496.24161
491.0 0.002037 477.40170 495.28815
465.0 0.002151 477.42630 494.38409
452.0 0.002212 477.45111 493.52866
496.0 0.002016 477.47592 492.72086
500.0 0.002000 477.50064 491.95920
521.0 0.001919 477.52542 491.24222
502.0 0.001992 477.55017 490.56870
479.0 0.002088 477.57492 489.93695
493.0 0.002028 477.59970 489.34543
495.0 0.002020 477.62448 488.79221
489.0 0.002045 477.64923 488.27588
501.0 0.001996 477.67398 487.79468
514.0 0.001946 477.69879 487.34677
502.0 0.001992 477.72354 486.93045
495.0 0.002020 477.74835 486.03351
512.0 0.001953 477.77301 485.68097
519.0 0.001927 477.79776 485.35489
509.0 0.001965 477.82260 485.05377
492.0 0.002033 477.84744 484.77594
490.0 0.002041 477.87222 484.52017
519.0 0.001927 477.89694 484.28461
477.0 0.002096 477.92157 484.06830
453.0 0.002208 477.94638 483.86954
483.0 0.002070 477.97116 483.68729
488.0 0.002049 477.99597 483.52026
495.0 0.002020 478.02060 483.36761
485.0 0.002062 478.04541 483.22803
477.0 0.002096 478.07019 483.10046
487.0 0.002053 478.09497 482.98410
498.0 0.002008 478.11963 482.87799
475.0 0.002105 478.14426 482.78149
491.0 0.002037 478.16910 482.69382
497.0 0.002012 478.19379 482.61420
494.0 0.002024 478.21848 482.54175
487.0 0.002053 478.24313 482.47638
481.0 0.002079 478.26797 482.41733
497.0 0.002012 478.29269 482.36414
514.0 0.001946 478.31738 482.31607
511.0 0.001957 478.34204 482.27319
499.0 0.002004 478.36664 482.23471
502.0 0.001992 478.39133 482.20062
471.0 0.002123 478.41608 482.17035
449.0 0.002227 478.44064 482.14371
472.0 0.002119 478.46530 482.12054
488.0 0.002049 478.49002 482.10043
496.0 0.002016 478.51474 482.08344
481.0 0.002079 478.53934 482.06903
477.0 0.002096 478.56387 482.05728
496.0 0.002016 478.58859 482.04803
482.0 0.002075 478.61313 482.04111
465.0 0.002151 478.63773 482.03638
510.0 0.001961 478.66220 482.03372
504.0 0.001984 478.68683 482.03311
494.0 0.002024 478.71136 482.03448
477.0 0.002096 478.73602 482.03754
482.0 0.002075 478.76053 482.04251
498.0 0.002008 478.78500 482.04913
500.0 0.002000 478.80951 482.05746
496.0 0.002016 478.83411 482.06747
489.0 0.002045 478.85858 482.07901
486.0 0.002058 478.88312 482.09216
470.0 0.002128 478.90750 482.10684
449.0 0.002227 478.93204 482.12289
494.0 0.002024 478.95648 482.14072
504.0 0.001984 478.98087 482.15973
505.0 0.001980 479.00531 482.18045
514.0 0.001946 479.02966 482.20251
487.0 0.002053 479.05423 482.22610
500.0 0.002000 479.07855 482.25122
489.0 0.002045 479.10291 482.27771
478.0 0.002092 479.12729 482.30582
490.0 0.002041 479.15158 482.33533
496.0 0.002016 479.17593 482.36633
484.0 0.002066 479.20032 482.39899
469.0 0.002132 479.22455 482.43326
464.0 0.002155 479.24881 482.46893
478.0 0.002092 479.27313 482.50659
495.0 0.002020 479.29742 482.54581
495.0 0.002020 479.32159 482.58673
503.0 0.001988 479.34586 482.62961
495.0 0.002020 479.37009 482.67444
476.0 0.002101 479.39435 482.72128
461.0 0.002169 479.41843 482.77017
497.0 0.002012 479.44254 482.82129
494.0 0.002024 479.46671 482.87485
500.0 0.002000 479.49091 482.93082
496.0 0.002016 479.51495 482.98938
489.0 0.002045 479.53897 483.05072
502.0 0.001992 479.56311 483.11517
487.0 0.002053 479.58716 483.18298
471.0 0.002123 479.61124 483.25412
506.0 0.001976 479.63528 483.32886
510.0 0.001961 479.65918 483.40784
493.0 0.002028 479.68314 483.49109
484.0 0.002066 479.70721 483.57913
506.0 0.001976 479.73117 483.67218
509.0 0.001965 479.75500 483.77090
501.0 0.001996 479.77893 483.87561
508.0 0.001969 479.80276 483.98688
505.0 0.001980 479.82672 484.10544
515.0 0.001942 479.85052 484.23160
476.0 0.002101 479.87436 484.36630
451.0 0.002217 479.89822 484.51028
501.0 0.001996 479.92197 484.66412
514.0 0.001946 479.94571 484.82886
506.0 0.001976 479.96939 485.00549
490.0 0.002041 479.99301 485.05673
480.0 0.002083 480.01672 485.26141
477.0 0.002096 480.04034 485.48117
462.0 0.002165 480.06409 485.71707
459.0 0.002179 480.08771 485.97052
504.0 0.001984 480.11127 486.24286
510.0 0.001961 480.13489 486.53555
502.0 0.001992 480.15845 486.84995
498.0 0.002008 480.18198 487.18771
472.0 0.002119 480.20538 487.55051
483.0 0.002070 480.22894 487.94000
502.0 0.001992 480.25235 488.35806
508.0 0.001969 480.27576 488.80627
490.0 0.002041 480.29922 489.28662
489.0 0.002045 480.32257 490.04999
457.0 0.002188 480.34601 490.60254
437.0 0.002288 480.36926 491.19290
479.0 0.002088 480.39252 491.82318
504.0 0.001984 480.41586 492.49500
507.0 0.001972 480.43906 493.21060
493.0 0.002028 480.46228 493.97150
485.0 0.002062 480.48553 494.77966
498.0 0.002008 480.50858 495.63666
495.0 0.002020 480.53189 496.54416
477.0 0.002096 480.55481 497.50351
509.0 0.001965 480.57800 498.51617
489.0 0.002045 480.60104 499.58313
492.0 0.002033 480.62402 500.70578
485.0 0.002062 480.64703 501.88434
499.0 0.002004 480.67004 503.11966
492.0 0.002033 480.69293 504.41190
517.0 0.001934 480.71585 505.76099
516.0 0.001938 480.73868 507.16699
509.0 0.001965 480.76160 508.62875
517.0 0.001934 480.78436 509.62708
490.0 0.002041 480.80725 511.20328
471.0 0.002123 480.82996 512.83124
499.0 0.002004 480.85269 514.50897
507.0 0.001972 480.87543 516.23370
516.0 0.001938 480.89813 518.00269
525.0 0.001905 480.92075 519.81213
523.0 0.001912 480.94336 521.65820
522.0 0.001916 480.96582 523.53662
523.0 0.001912 480.98856 525.44202
522.0 0.001916 481.01096 527.36926
546.0 0.001832 481.03345 529.31238
533.0 0.001876 481.05594 531.26477
516.0 0.001938 481.07837 533.21973
517.0 0.001934 481.10068 535.16949
529.0 0.001890 481.12308 537.10657
540.0 0.001852 481.14536 539.02234
577.0 0.001733 481.16766 540.90802
566.0 0.001767 481.18985 542.75488
561.0 0.001783 481.21216 544.55328
549.0 0.001821 481.23431 546.29352
510.0 0.001961 481.25653 547.96600
513.0 0.001949 481.27853 549.56055
566.0 0.001767 481.30063 551.06726
576.0 0.001736 481.32272 552.47644
573.0 0.001745 481.34485 553.77826
566.0 0.001767 481.36673 554.96344
562.0 0.001779 481.38867 556.02295
576.0 0.001736 481.41058 556.94824
563.0 0.001776 481.43240 557.73218
566.0 0.001767 481.45425 558.36755
590.0 0.001695 481.47610 558.84875
595.0 0.001681 481.49783 559.17139
589.0 0.001698 481.51956 559.33228
571.0 0.001751 481.54120 559.32922
576.0 0.001736 481.56290 559.16241
572.0 0.001748 481.58453 558.83258
572.0 0.001748 481.60611 558.34271
571.0 0.001751 481.62769 557.69696
568.0 0.001761 481.64917 556.90076
558.0 0.001792 481.67062 555.96112
524.0 0.001908 481.69202 554.88599
517.0 0.001934 481.71338 553.68402
555.0 0.001802 481.73483 552.36499
558.0 0.001792 481.75601 550.93915
556.0 0.001799 481.77740 549.41687
539.0 0.001855 481.79855 547.80920
542.0 0.001845 481.81976 546.12665
533.0 0.001876 481.84091 544.37994
520.0 0.001923 481.86203 542.57990
506.0 0.001976 481.88312 540.73621
525.0 0.001905 481.90411 538.85901
538.0 0.001859 481.92517 536.95758
526.0 0.001901 481.94608 535.04077
506.0 0.001976 481.96695 533.11676
518.0 0.001931 481.98788 531.19360
521.0 0.001919 482.00867 529.27856
525.0 0.001905 482.02948 528.21417
519.0 0.001927 482.05029 526.34210
510.0 0.001961 482.07095 524.49683
532.0 0.001880 482.09161 522.68341
484.0 0.002066 482.11234 520.90649
463.0 0.002160 482.13284 519.17004
496.0 0.002016 482.15332 517.47797
506.0 0.001976 482.17374 515.83344
522.0 0.001916 482.19421 514.23889
519.0 0.001927 482.21463 512.69696
501.0 0.001996 482.23508 511.20929
504.0 0.001984 482.25534 509.77737
483.0 0.002070 482.27563 508.40244
472.0 0.002119 482.29584 507.08527
517.0 0.001934 482.31610 505.82599
512.0 0.001953 482.33621 504.62494
492.0 0.002033 482.35626 503.48181
489.0 0.002045 482.37637 502.39621
487.0 0.002053 482.39633 501.36746
489.0 0.002045 482.41641 500.39435
496.0 0.002016 482.43622 499.47614
497.0 0.002012 482.45605 498.61127
488.0 0.002049 482.47589 497.79849
494.0 0.002024 482.49579 497.03607
465.0 0.002151 482.51544 496.32211
458.0 0.002183 482.53510 495.65509
497.0 0.002012 482.55469 495.03314
498.0 0.002008 482.57443 494.45428
497.0 0.002012 482.59393 493.91644
484.0 0.002066 482.61328 493.41791
493.0 0.002028 482.63287 492.95642
492.0 0.002033 482.65219 492.53040
480.0 0.002083 482.67172 492.13754
477.0 0.002096 482.69098 491.77597
496.0 0.002016 482.71024 491.44412
494.0 0.002024 482.72946 491.13983
494.0 0.002024 482.74857 490.86179
495.0 0.002020 482.76770 490.60788
504.0 0.001984 482.78680 490.37662
506.0 0.001976 482.80582 490.16663
514.0 0.001946 482.82477 489.97617
496.0 0.002016 482.84366 489.80414
483.0 0.002070 482.86264 489.64890
490.0 0.002041 482.88138 489.50943
466.0 0.002146 482.90018 489.38474
444.0 0.002252 482.91891 489.27332
492.0 0.002033 482.93762 489.17447
493.0 0.002028 482.95630 489.08722
491.0 0.002037 482.97482 489.01059
491.0 0.002037 482.99332 488.94415
476.0 0.002101 483.01172 488.88672
503.0 0.001988 483.03015 488.83792
480.0 0.002083 483.04858 488.79709
475.0 0.002105 483.06686 488.76376
521.0 0.001919 483.08517 488.73752
532.0 0.001880 483.10339 488.71771
509.0 0.001965 483.12155 488.70404
486.0 0.002058 483.13962 488.69647
481.0 0.002079 483.15784 488.69431
510.0 0.001961 483.17581 488.69745
523.0 0.001912 483.19376 488.70581
503.0 0.001988 483.21161 488.71924
491.0 0.002037 483.22940 488.73755
497.0 0.002012 483.24716 488.76071
470.0 0.002128 483.26498 488.78867
444.0 0.002252 483.28275 488.82117
492.0 0.002033 483.30026 488.85883
502.0 0.001992 483.31784 488.90115
492.0 0.002033 483.33533 488.94830
486.0 0.002058 483.35297 489.00067
471.0 0.002123 483.37036 489.05817
488.0 0.002049 483.38776 489.12112
499.0 0.002004 483.40506 489.18958
489.0 0.002045 483.42224 489.26382
528.0 0.001894 483.43951 489.34424
528.0 0.001894 483.45670 489.43109
512.0 0.001953 483.47375 489.52451
500.0 0.002000 483.49088 489.62500
501.0 0.001996 483.50778 489.73303
506.0 0.001976 483.52472 489.84885
492.0 0.002033 483.54153 489.97308
498.0 0.002008 483.55850 490.10605
495.0 0.002020 483.57510 490.24820
508.0 0.001969 483.59192 490.40012
485.0 0.002062 483.60852 490.56256
464.0 0.002155 483.62509 490.73584
506.0 0.001976 483.64160 490.92062
500.0 0.002000 483.65817 491.11777
498.0 0.002008 483.67453 491.32764
488.0 0.002049 483.69095 491.55093
482.0 0.002075 483.70724 491.78851
496.0 0.002016 483.72348 492.04092
483.0 0.002070 483.73972 492.30893
467.0 0.002141 483.75577 492.59348
492.0 0.002033 483.77191 492.89468
496.0 0.002016 483.78793 493.21384
492.0 0.002033 483.80383 493.55157
482.0 0.002075 483.81973 493.90842
491.0 0.002037 483.83557 494.28510
504.0 0.001984 483.85144 494.68256
523.0 0.001912 483.86710 495.10114
507.0 0.001972 483.88281 495.54141
493.0 0.002028 483.89832 496.00433
503.0 0.001988 483.91397 496.49017
466.0 0.002146 483.92950 496.99942
449.0 0.002227 483.94482 497.53265
493.0 0.002028 483.96021 498.09003
492.0 0.002033 483.97552 498.67203
518.0 0.001931 483.99081 499.27881
503.0 0.001988 484.00601 499.91049
498.0 0.002008 484.02112 500.56705
505.0 0.001980 484.03613 501.24866
484.0 0.002066 484.05112 501.95480
487.0 0.002053 484.06613 502.68524
538.0 0.001859 484.08112 503.43985
534.0 0.001873 484.09583 504.21783
520.0 0.001923 484.11057 505.01871
493.0 0.002028 484.12534 505.84149
498.0 0.002008 484.14001 506.68506
499.0 0.002004 484.15448 507.54868
506.0 0.001976 484.16901 508.43091
509.0 0.001965 484.18353 509.33029
525.0 0.001905 484.19794 510.24496
530.0 0.001887 484.21225 511.17340
493.0 0.002028 484.22641 512.11353
476.0 0.002101 484.24063 513.06335
512.0 0.001953 484.25488 514.02014
524.0 0.001908 484.26901 514.98163
557.0 0.001795 484.28293 515.94501
545.0 0.001835 484.29684 516.90753
533.0 0.001876 484.31070 517.86578
542.0 0.001845 484.32458 518.81677
520.0 0.001923 484.33847 519.75726
499.0 0.002004 484.35214 520.68353
539.0 0.001855 484.36569 521.59216
533.0 0.001876 484.37927 522.47900
525.0 0.001905 484.39279 523.34094
507.0 0.001972 484.40628 524.17371
515.0 0.001942 484.41962 524.97363
524.0 0.001908 484.43295 525.73737
536.0 0.001866 484.44623 526.46088
551.0 0.001815 484.45938 527.14081
534.0 0.001873 484.47253 527.77441
543.0 0.001842 484.48550 528.35828
504.0 0.001984 484.49866 528.88995
481.0 0.002079 484.51157 529.36749
518.0 0.001931 484.52451 529.78912
532.0 0.001880 484.53717 530.15350
525.0 0.001905 484.54980 530.46027
526.0 0.001901 484.56256 530.70959
515.0 0.001942 484.57523 530.90192
526.0 0.001901 484.58765 531.03912
512.0 0.001953 484.60019 531.12299
511.0 0.001957 484.61261 531.15649
542.0 0.001845 484.62488 531.14288
544.0 0.001838 484.63712 531.08643
522.0 0.001916 484.64938 530.99170
517.0 0.001934 484.66159 530.31525
544.0 0.001838 484.67358 530.16534
534.0 0.001873 484.68561 529.99365
537.0 0.001862 484.69754 529.80615
551.0 0.001815 484.70941 529.60919
539.0 0.001855 484.72122 529.40924
533.0 0.001876 484.73288 529.21283
507.0 0.001972 484.74457 529.02643
486.0 0.002058 484.75620 528.85675
540.0 0.001852 484.76764 528.70996
546.0 0.001832 484.77927 528.59259
547.0 0.001828 484.79059 528.51050
547.0 0.001828 484.80182 528.46973
529.0 0.001890 484.81323 528.47620
544.0 0.001838 484.82434 528.53528
529.0 0.001890 484.83545 528.65234
541.0 0.001848 484.84647 528.83234
575.0 0.001739 484.85754 529.08026
586.0 0.001706 484.86847 529.40045
569.0 0.001757 484.87933 529.79730
556.0 0.001799 484.89005 530.27454
543.0 0.001842 484.90076 530.83606
560.0 0.001786 484.91135 531.48499
577.0 0.001733 484.92206 532.22424
568.0 0.001761 484.93253 533.05682
562.0 0.001779 484.94293 533.98438
582.0 0.001718 484.95328 535.00928
557.0 0.001795 484.96350 536.13263
549.0 0.001821 484.97391 537.35559
589.0 0.001698 484.98395 538.67883
591.0 0.001692 484.99405 540.10248
604.0 0.001656 485.00400 541.62616
581.0 0.001721 485.01392 543.24896
598.0 0.001672 485.02390 544.96979
588.0 0.001701 485.03369 546.78656
562.0 0.001779 485.04333 548.69708
578.0 0.001730 485.05298 550.69843
611.0 0.001637 485.06262 552.78711
616.0 0.001623 485.07217 554.95898
627.0 0.001595 485.08163 557.20923
603.0 0.001658 485.09094 559.53296
606.0 0.001650 485.10031 561.92389
602.0 0.001661 485.10950 564.37555
606.0 0.001650 485.11865 566.88110
607.0 0.001647 485.12766 569.43237
593.0 0.001686 485.13681 572.95514
608.0 0.001645 485.14581 575.58197
597.0 0.001675 485.15460 578.22736
566.0 0.001767 485.16336 580.88074
648.0 0.001543 485.17212 583.53119
670.0 0.001493 485.18079 586.16693
646.0 0.001548 485.18939 588.77582
634.0 0.001577 485.19778 591.34503
622.0 0.001608 485.20633 593.86133
620.0 0.001613 485.21484 596.31134
588.0 0.001701 485.22302 598.68073
596.0 0.001678 485.23120 600.95569
654.0 0.001529 485.23935 603.12183
678.0 0.001475 485.24744 605.16498
665.0 0.001504 485.25558 607.07104
631.0 0.001585 485.26343 608.82611
630.0 0.001587 485.27118 610.41718
650.0 0.001538 485.27899 611.83160
637.0 0.001570 485.28671 613.05737
651.0 0.001536 485.29446 614.08417
655.0 0.001527 485.30200 614.90247
649.0 0.001541 485.30942 615.50433
617.0 0.001621 485.31683 615.88354
600.0 0.001667 485.32422 616.03540
619.0 0.001616 485.33148 615.95734
643.0 0.001555 485.33865 615.64880
636.0 0.001572 485.34592 615.11096
627.0 0.001595 485.35294 614.34747
617.0 0.001621 485.35992 613.36316
633.0 0.001580 485.36685 612.16547
626.0 0.001597 485.37357 610.76324
620.0 0.001613 485.38034 609.16650
634.0 0.001577 485.38702 607.38690
626.0 0.001597 485.39359 605.43707
618.0 0.001618 485.40018 603.33051
618.0 0.001618 485.40662 601.08105
620.0 0.001613 485.41296 598.70294
622.0 0.001608 485.41919 596.21082
617.0 0.001621 485.42548 593.61896
625.0 0.001600 485.43170 590.94165
618.0 0.001618 485.43774 588.19269
598.0 0.001672 485.44373 585.38556
577.0 0.001733 485.44977 582.53308
546.0 0.001832 485.45560 579.64740
593.0 0.001686 485.46130 576.74005
601.0 0.001664 485.46707 573.82233
590.0 0.001695 485.47266 570.90405
595.0 0.001681 485.47833 567.99475
612.0 0.001634 485.48367 565.10358
605.0 0.001653 485.48907 562.23804
580.0 0.001724 485.49445 559.40607
559.0 0.001789 485.49973 556.61450
625.0 0.001600 485.50485 553.86914
600.0 0.001667 485.50995 551.17584
578.0 0.001730 485.51505 548.53943
536.0 0.001866 485.51996 545.96417
549.0 0.001821 485.52484 543.45422
540.0 0.001852 485.52954 541.01288
567.0 0.001764 485.53415 538.64282
567.0 0.001764 485.53903 536.34625
551.0 0.001815 485.54346 534.12537
547.0 0.001828 485.54800 531.98151
526.0 0.001901 485.55240 529.91583
517.0 0.001934 485.55679 527.92908
555.0 0.001802 485.56100 526.02155
555.0 0.001802 485.56525 524.19299
556.0 0.001799 485.56931 522.44354
535.0 0.001869 485.57321 520.77209
533.0 0.001876 485.57733 519.17810
537.0 0.001862 485.58118 517.66046
504.0 0.001984 485.58490 516.21777
489.0 0.002045 485.58862 514.84857
506.0 0.001976 485.59222 513.55103
531.0 0.001883 485.59586 512.32336
523.0 0.001912 485.59937 511.16357
496.0 0.002016 485.60278 510.06995
502.0 0.001992 485.60602 509.03992
516.0 0.001938 485.60931 508.07132
519.0 0.001927 485.61252 507.16196
513.0 0.001949 485.61566 506.30942
501.0 0.001996 485.61865 505.51166
504.0 0.001984 485.62164 504.76608
484.0 0.002066 485.62445 504.07065
465.0 0.002151 485.62732 503.42276
506.0 0.001976 485.62994 502.82053
501.0 0.001996 485.63260 502.26157
501.0 0.001996 485.63519 501.74390
487.0 0.002053 485.63766 501.26553
472.0 0.002119 485.64005 500.82437
483.0 0.002070 485.64243 500.41873
484.0 0.002066 485.64462 500.04681
491.0 0.002037 485.64676 499.70682
518.0 0.001931 485.64886 499.39746
523.0 0.001912 485.65094 499.11703
509.0 0.001965 485.65283 498.86447
480.0 0.002083 485.65475 498.63831
486.0 0.002058 485.65646 498.43784
492.0 0.002033 485.65814 498.26166
493.0 0.002028 485.65976 498.10916
497.0 0.002012 485.66135 497.97971
510.0 0.001961 485.66287 497.87262
522.0 0.001916 485.66418 497.78732
485.0 0.002062 485.66550 497.72375
458.0 0.002183 485.66666 497.68158
508.0 0.001969 485.66791 497.66068
516.0 0.001938 485.66891 497.66113
533.0 0.001876 485.66986 497.68314
509.0 0.001965 485.67081 497.72714
488.0 0.002049 485.67163 497.79330
495.0 0.002020 485.67236 497.88242
488.0 0.002049 485.67316 497.99506
475.0 0.002105 485.67371 498.13226
499.0 0.002004 485.67407 498.29471
520.0 0.001923 485.67468 498.48361
511.0 0.001957 485.67502 498.69995
485.0 0.002062 485.67535 498.94528
476.0 0.002101 485.67545 499.22095
479.0 0.002088 485.67560 499.52841
479.0 0.002088 485.67560 499.86932
494.0 0.002024 485.67557 500.24524
486.0 0.002058 485.67545 500.65845
500.0 0.002000 485.67532 501.11038
482.0 0.002075 485.67496 501.60297
455.0 0.002198 485.67465 502.13873
494.0 0.002024 485.67426 502.71939
488.0 0.002049 485.67368 503.34720
489.0 0.002045 485.67307 504.02423
486.0 0.002058 485.67245 504.75272
501.0 0.001996 485.67181 505.53485
511.0 0.001957 485.67090 506.37289
496.0 0.002016 485.66992 507.26889
486.0 0.002058 485.66898 508.22491
526.0 0.001901 485.66797 509.24316
529.0 0.001890 485.66672 510.32544
534.0 0.001873 485.66553 511.47345
506.0 0.001976 485.66425 512.68915
498.0 0.002008 485.66293 513.97382
507.0 0.001972 485.66141 515.32892
515.0 0.001942 485.65982 516.75568
520.0 0.001923 485.65814 518.25494
512.0 0.001953 485.65659 519.82727
525.0 0.001905 485.65472 521.47321
493.0 0.002028 485.65283 523.19263
476.0 0.002101 485.65091 524.98553
519.0 0.001927 485.64883 526.85132
559.0 0.001789 485.64682 528.78870
562.0 0.001779 485.64462 530.79657
536.0 0.001866 485.64236 532.88068
524.0 0.001908 485.64005 535.02362
527.0 0.001898 485.63754 537.23022
522.0 0.001916 485.63513 539.49725
521.0 0.001919 485.63254 541.82111
546.0 0.001832 485.62982 544.19757
563.0 0.001776 485.62714 546.62164
553.0 0.001808 485.62442 549.08813
536.0 0.001866 485.62137 551.59131
537.0 0.001862 485.61841 554.12445
552.0 0.001812 485.61533 556.68073
554.0 0.001805 485.61224 559.25232
555.0 0.001802 485.60892 561.83112
569.0 0.001757 485.60571 564.40833
583.0 0.001715 485.60239 566.97449
566.0 0.001767 485.59888 569.51953
555.0 0.001802 485.59531 572.03351
597.0 0.001675 485.59174 574.50482
599.0 0.001669 485.58798 576.92267
617.0 0.001621 485.58420 579.27496
617.0 0.001621 485.58041 581.54968
577.0 0.001733 485.57648 583.73450
590.0 0.001695 485.57242 585.81708
582.0 0.001718 485.56836 587.78491
575.0 0.001739 485.56418 589.62543
621.0 0.001610 485.55997 591.32666
641.0 0.001560 485.55557 592.63025
638.0 0.001567 485.55112 594.02020
620.0 0.001613 485.54660 595.23712
601.0 0.001664 485.54214 596.27161
612.0 0.001634 485.53741 597.11487
626.0 0.001597 485.53268 597.75989
622.0 0.001608 485.52777 598.20038
619.0 0.001616 485.52289 598.43219
617.0 0.001621 485.51807 598.45264
580.0 0.001724 485.51288 598.26062
565.0 0.001770 485.50775 597.85736
596.0 0.001678 485.50253 597.24487
613.0 0.001631 485.49725 596.42822
621.0 0.001610 485.49188 595.41321
613.0 0.001631 485.48639 594.20758
587.0 0.001704 485.48093 592.82043
608.0 0.001645 485.47537 591.26202
587.0 0.001704 485.46960 589.54340
580.0 0.001724 485.46381 587.67682
617.0 0.001621 485.45792 585.67511
611.0 0.001637 485.45200 583.55084
593.0 0.001686 485.44604 581.31757
565.0 0.001770 485.43994 578.98828
553.0 0.001808 485.43369 576.57605
568.0 0.001761 485.42749 574.09387
576.0 0.001736 485.42120 571.55408
560.0 0.001786 485.41479 568.96875
553.0 0.001808 485.40829 566.34900
553.0 0.001808 485.40167 563.70624
536.0 0.001866 485.39505 561.05035
506.0 0.001976 485.38828 558.39111
549.0 0.001821 485.38141 555.73761
550.0 0.001818 485.37457 553.09845
539.0 0.001855 485.36765 550.48114
541.0 0.001848 485.36053 547.89294
548.0 0.001825 485.35349 545.34045
555.0 0.001802 485.34622 542.82971
546.0 0.001832 485.33887 540.36609
527.0 0.001898 485.33148 537.95435
550.0 0.001818 485.32413 535.59882
548.0 0.001825 485.31653 533.30322
535.0 0.001869 485.30893 531.07086
531.0 0.001883 485.30127 528.90460
514.0 0.001946 485.29358 526.80646
522.0 0.001916 485.28571 524.77844
519.0 0.001927 485.27783 522.82202
535.0 0.001869 485.26974 520.93817
514.0 0.001946 485.26169 519.12756
523.0 0.001912 485.25357 517.39014
497.0 0.002012 485.24533 515.72626
477.0 0.002096 485.23697 514.13531
505.0 0.001980 485.22849 512.61658
515.0 0.001942 485.22012 511.16922
513.0 0.001949 485.21152 509.79205
504.0 0.001984 485.20288 508.48355
494.0 0.002024 485.19415 507.24234
516.0 0.001938 485.18539 506.06638
509.0 0.001965 485.17661 504.95401
493.0 0.002028 485.16754 503.90308
513.0 0.001949 485.15851 502.91144
532.0 0.001880 485.14948 501.97696
513.0 0.001949 485.14029 501.09732
524.0 0.001908 485.13092 500.27011
515.0 0.001942 485.12167 499.49313
505.0 0.001980 485.11209 498.76385
502.0 0.001992 485.10272 498.08017
504.0 0.001984 485.09317 497.43951
513.0 0.001949 485.08344 496.83963
514.0 0.001946 485.07370 496.27844
478.0 0.002092 485.06400 495.75357
464.0 0.002155 485.05392 495.26279
495.0 0.002020 485.04401 494.80420
499.0 0.002004 485.03400 494.37555
505.0 0.001980 485.02380 493.97522
513.0 0.001949 485.01358 493.60107
523.0 0.001912 485.00342 493.25134
537.0 0.001862 484.99301 492.09326
520.0 0.001923 484.98257 491.79483
492.0 0.002033 484.97198 491.51617
530.0 0.001887 484.96143 491.25543
524.0 0.001908 484.95071 491.01169
506.0 0.001976 484.93997 490.78345
504.0 0.001984 484.92920 490.56964
524.0 0.001908 484.91821 490.36908
531.0 0.001883 484.90729 490.18066
545.0 0.001835 484.89615 490.00366
548.0 0.001825 484.88504 489.83704
529.0 0.001890 484.87384 489.68015
538.0 0.001859 484.86240 489.53204
537.0 0.001862 484.85117 489.39206
488.0 0.002049 484.83966 489.25961
537.0 0.001862 484.82809 489.13412
549.0 0.001821 484.81650 489.01529
550.0 0.001818 484.80493 488.90225
547.0 0.001828 484.79306 488.79468
542.0 0.001845 484.78125 488.69226
561.0 0.001783 484.76926 488.59470
543.0 0.001842 484.75735 488.50156
519.0 0.001927 484.74518 488.41245
548.0 0.001825 484.73312 488.32736
544.0 0.001838 484.72086 488.24576
519.0 0.001927 484.70862 488.16772
516.0 0.001938 484.69620 488.09274
515.0 0.001942 484.68381 488.02097
525.0 0.001905 484.67126 487.95212
528.0 0.001894 484.65857 487.88593
518.0 0.001931 484.64587 487.82242
506.0 0.001976 484.63309 487.76138
512.0 0.001953 484.62027 487.70276
485.0 0.002062 484.60739 487.64661
470.0 0.002128 484.59430 487.59256
530.0 0.001887 484.58133 487.54071
535.0 0.001869 484.56818 487.49094
517.0 0.001934 484.55481 487.44324
496.0 0.002016 484.54163 487.39749
482.0 0.002075 484.52826 487.35364
496.0 0.002016 484.51477 487.31165
486.0 0.002058 484.50131 487.27148
480.0 0.002083 484.48761 487.23303
524.0 0.001908 484.47397 487.19617
536.0 0.001866 484.46021 487.16098
518.0 0.001931 484.44635 487.12744
518.0 0.001931 484.43253 487.09534
495.0 0.002020 484.41846 487.06470
496.0 0.002016 484.40436 487.03555
512.0 0.001953 484.39026 487.00754
521.0 0.001919 484.37622 486.98077
509.0 0.001965 484.36179 486.95544
511.0 0.001957 484.34744 486.93100
479.0 0.002088 484.33304 486.90778
455.0 0.002198 484.31848 486.88535
488.0 0.002049 484.30380 486.86383
496.0 0.002016 484.28922 486.84314
484.0 0.002066 484.27454 486.82309
484.0 0.002066 484.25964 486.80368
477.0 0.002096 484.24481 486.78461
504.0 0.001984 484.22977 486.76602
492.0 0.002033 484.21484 486.74774
489.0 0.002045 484.19958 486.72961
515.0 0.001942 484.18442 486.71121
504.0 0.001984 484.16919 486.69308
498.0 0.002008 484.15390 486.67453
493.0 0.002028 484.13843 486.65564
491.0 0.002037 484.12302 486.63641
482.0 0.002075 484.10742 486.61649
504.0 0.001984 484.09183 486.59583
506.0 0.001976 484.07608 486.57437
514.0 0.001946 484.06030 486.55185
507.0 0.001972 484.04453 486.52826
470.0 0.002128 484.02856 486.50348
442.0 0.002262 484.01257 486.47760
488.0 0.002049 483.99649 486.45013
515.0 0.001942 483.98032 486.42123
510.0 0.001961 483.96408 486.39093
508.0 0.001969 483.94788 486.35898
506.0 0.001976 483.93137 486.32535
514.0 0.001946 483.91501 486.29007
499.0 0.002004 483.89853 486.25308
498.0 0.002008 483.88187 486.21460
525.0 0.001905 483.86523 486.17441
514.0 0.001946 483.84845 486.13266
501.0 0.001996 483.83170 486.08936
488.0 0.002049 483.81482 486.04471
488.0 0.002049 483.79785 485.99872
493.0 0.002028 483.78073 485.95139
506.0 0.001976 483.76376 485.90280
507.0 0.001972 483.74664 485.85315
491.0 0.002037 483.72934 485.80258
488.0 0.002049 483.71191 485.75119
462.0 0.002165 483.69470 485.69904
456.0 0.002193 483.67728 485.64618
501.0 0.001996 483.65976 485.59293
503.0 0.001988 483.64206 485.53928
507.0 0.001972 483.62448 485.48532
489.0 0.002045 483.60663 485.43106
471.0 0.002123 483.58884 485.37668
478.0 0.002092 483.57098 485.32248
463.0 0.002160 483.55292 485.26822
458.0 0.002183 483.53497 485.21411
492.0 0.002033 483.51697 485.16019
510.0 0.001961 483.49875 485.10663
483.0 0.002070 483.48047 485.05344
470.0 0.002128 483.46216 485.00067
467.0 0.002141 483.44385 484.94839
483.0 0.002070 483.42529 484.89655
486.0 0.002058 483.40683 484.84534
496.0 0.002016 483.38815 484.79477
476.0 0.002101 483.36963 484.74472
488.0 0.002049 483.35086 483.75986
459.0 0.002179 483.33197 483.72131
445.0 0.002247 483.31320 483.68335
481.0 0.002079 483.29419 483.64587
476.0 0.002101 483.27518 483.60904
479.0 0.002088 483.25616 483.57266
468.0 0.002137 483.23688 483.53705
454.0 0.002203 483.21765 483.50204
470.0 0.002128 483.19836 483.46750
482.0 0.002075 483.17905 483.43372
451.0 0.002217 483.15955 483.40033
484.0 0.002066 483.14011 483.36777
500.0 0.002000 483.12057 483.33563
477.0 0.002096 483.10086 483.30411
462.0 0.002165 483.08124 483.27322
476.0 0.002101 483.06143 483.24268
476.0 0.002101 483.04150 483.21280
470.0 0.002128 483.02155 483.18353
469.0 0.002132 483.00165 483.15451
476.0 0.002101 482.98151 483.12607
497.0 0.002012 482.96146 483.09805
461.0 0.002169 482.94122 483.07047
436.0 0.002294 482.92102 483.04330
462.0 0.002165 482.90067 483.01654
461.0 0.002169 482.88028 482.99002
462.0 0.002165 482.85980 482.96384
467.0 0.002141 482.83923 482.93799
458.0 0.002183 482.81873 482.91254
459.0 0.002179 482.79794 482.88727
448.0 0.002232 482.77728 482.86221
446.0 0.002242 482.75659 482.83752
468.0 0.002137 482.73572 482.81296
488.0 0.002049 482.71460 482.78848
474.0 0.002110 482.69366 482.76425
456.0 0.002193 482.67264 482.74033
454.0 0.002203 482.65152 482.71637
458.0 0.002183 482.63031 482.69250
479.0 0.002088 482.60904 482.66891
483.0 0.002070 482.58768 482.64536
487.0 0.002053 482.56625 482.62192
480.0 0.002083 482.54480 482.59845
460.0 0.002174 482.52328 482.57513
439.0 0.002278 482.50168 482.55176
470.0 0.002128 482.48001 482.52866
465.0 0.002151 482.45828 482.50549
477.0 0.002096 482.43652 482.48218
474.0 0.002110 482.41470 482.45911
465.0 0.002151 482.39267 482.43594
474.0 0.002110 482.37070 482.41287
461.0 0.002169 482.34860 482.38977
445.0 0.002247 482.32654 482.36652
480.0 0.002083 482.30426 482.34348
478.0 0.002092 482.28204 482.32031
463.0 0.002160 482.25980 482.29715
453.0 0.002208 482.23737 482.27383
463.0 0.002160 482.21490 482.25058
494.0 0.002024 482.19244 482.22751
491.0 0.002037 482.16986 482.20419
482.0 0.002075 482.14725 482.18082
467.0 0.002141 482.12448 482.15747
478.0 0.002092 482.10172 482.13403
457.0 0.002188 482.07892 482.11072
442.0 0.002262 482.05606 482.08719
482.0 0.002075 482.03308 482.06363
498.0 0.002008 482.01007 482.04010
497.0 0.002012 481.98694 482.01651
460.0 0.002174 481.96390 481.99295
453.0 0.002208 481.94061 481.96936
489.0 0.002045 481.91739 481.94547
461.0 0.002169 481.89404 481.92166
462.0 0.002165 481.87067 481.89789
497.0 0.002012 481.84720 481.87405
484.0 0.002066 481.82370 481.85004
469.0 0.002132 481.80005 481.82599
463.0 0.002160 481.77646 481.80212
468.0 0.002137 481.75262 481.77789
480.0 0.002083 481.72885 481.75378
492.0 0.002033 481.70505 481.72958
486.0 0.002058 481.68106 481.70538
481.0 0.002079 481.65723 481.68109
486.0 0.002058 481.63321 481.65680
465.0 0.002151 481.60925 481.63232
453.0 0.002208 481.58493 481.60788
505.0 0.001980 481.56079 481.58350
505.0 0.001980 481.53653 481.55890
500.0 0.002000 481.51221 481.53424
500.0 0.002000 481.48779 481.50946
492.0 0.002033 481.46341 481.48483
511.0 0.001957 481.43881 481.46008
501.0 0.001996 481.41437 481.43530
497.0 0.002012 481.38971 481.41031
527.0 0.001898 481.36502 481.38528
531.0 0.001883 481.34015 481.36041
517.0 0.001934 481.31543 481.33530
532.0 0.001880 481.29062 481.31024
520.0 0.001923 481.26563 481.28510
525.0 0.001905 481.24072 481.25989
552.0 0.001812 481.21558 481.23462
541.0 0.001848 481.19061 481.20935
521.0 0.001919 481.16531 481.18387
541.0 0.001848 481.14017 481.15848
511.0 0.001957 481.11490 481.13306
507.0 0.001972 481.08957 481.10748
547.0 0.001828 481.06424 481.08191
542.0 0.001845 481.03873 481.05624
533.0 0.001876 481.01324 481.03061
502.0 0.001992 480.98764 481.00482
501.0 0.001996 480.96198 480.97900
538.0 0.001859 480.93631 480.95313
530.0 0.001887 480.91052 480.92731
519.0 0.001927 480.88477 480.90131
536.0 0.001866 480.85889 480.87518
542.0 0.001845 480.83307 480.84915
515.0 0.001942 480.80704 480.82297
502.0 0.001992 480.78101 480.79678
499.0 0.002004 480.75497 480.77054
499.0 0.002004 480.72891 480.74426
515.0 0.001942 480.70267 480.71793
513.0 0.001949 480.67636 480.69150
493.0 0.002028 480.65012 480.66513
490.0 0.002041 480.62363 480.63858
474.0 0.002110 480.59732 480.61197
452.0 0.002212 480.57080 480.58533
487.0 0.002053 480.54428 480.55878
492.0 0.002033 480.51764 480.53201
504.0 0.001984 480.49106 480.50534
497.0 0.002012 480.46439 480.47836
490.0 0.002041 480.43756 480.45148
493.0 0.002028 480.41074 480.42459
477.0 0.002096 480.38391 480.39761
455.0 0.002198 480.35706 480.37054
492.0 0.002033 480.33002 480.34341
502.0 0.001992 480.30298 480.31628
496.0 0.002016 480.27594 480.28915
484.0 0.002066 480.24878 480.26181
487.0 0.002053 480.22168 480.23459
511.0 0.001957 480.19440 480.20724
501.0 0.001996 480.16690 480.17984
485.0 0.002062 480.13968 480.15234
474.0 0.002110 480.11227 480.12485
473.0 0.002114 480.08493 480.09732
458.0 0.002183 480.05728 480.06967
447.0 0.002237 480.02972 480.04202
484.0 0.002066 480.00214 480.01425
477.0 0.002096 479.97449 479.98651
488.0 0.002049 479.94684 479.95877
500.0 0.002000 479.91904 479.93091
495.0 0.002020 479.89111 479.90308
490.0 0.002041 479.86328 479.86737
469.0 0.002132 479.83539 479.83936
466.0 0.002146 479.80737 479.81134
502.0 0.001992 479.77939 479.78348
505.0 0.001980 479.75125 479.75528
488.0 0.002049 479.72324 479.72717
478.0 0.002092 479.69492 479.69894
469.0 0.002132 479.66675 479.67072
478.0 0.002092 479.63840 479.64243
475.0 0.002105 479.61008 479.61407
475.0 0.002105 479.58170 479.58566
471.0 0.002123 479.55328 479.55725
480.0 0.002083 479.52475 479.52878
454.0 0.002203 479.49622 479.50021
450.0 0.002222 479.46768 479.47165
482.0 0.002075 479.43900 479.44290
486.0 0.002058 479.41022 479.41425
485.0 0.002062 479.38153 479.38556
473.0 0.002114 479.35284 479.35669
469.0 0.002132 479.32401 479.32788
476.0 0.002101 479.29514 479.29898
472.0 0.002119 479.26614 479.27002
465.0 0.002151 479.23715 479.24109
486.0 0.002058 479.20810 479.21204
493.0 0.002028 479.17908 479.18289
478.0 0.002092 479.14993 479.15378
475.0 0.002105 479.12079 479.12451
472.0 0.002119 479.09164 479.09534
480.0 0.002083 479.06229 479.06604
486.0 0.002058 479.03290 479.03687
480.0 0.002083 479.00357 479.00742
470.0 0.002128 478.97415 478.97794
471.0 0.002123 478.94467 478.94846
464.0 0.002155 478.91519 478.91898
446.0 0.002242 478.88559 478.88943
485.0 0.002062 478.85599 478.85983
478.0 0.002092 478.82639 478.83011
479.0 0.002088 478.79666 478.80032
476.0 0.002101 478.76691 478.77066
468.0 0.002137 478.73715 478.74078
473.0 0.002114 478.70731 478.71103
457.0 0.002188 478.67746 478.68106
444.0 0.002252 478.64743 478.65109
469.0 0.002132 478.61755 478.62128
481.0 0.002079 478.58749 478.59116
469.0 0.002132 478.55753 478.56110
475.0 0.002105 478.52734 478.53091
460.0 0.002174 478.49716 478.50092
468.0 0.002137 478.46698 478.47061
475.0 0.002105 478.43677 478.44043
475.0 0.002105 478.40649 478.41010
456.0 0.002193 478.37619 478.37973
456.0 0.002193 478.34573 478.34937
430.0 0.002326 478.31525 478.31894
413.0 0.002421 478.28491 478.28842
454.0 0.002203 478.25446 478.25800
461.0 0.002169 478.22375 478.22751
467.0 0.002141 478.19324 478.19678
473.0 0.002114 478.16260 478.16617
462.0 0.002165 478.13193 478.13547
461.0 0.002169 478.10123 478.10471
455.0 0.002198 478.07040 478.07401
454.0 0.002203 478.03970 478.04318
474.0 0.002110 478.00885 478.01233
472.0 0.002119 477.97803 477.98141
458.0 0.002183 477.94702 477.95053
440.0 0.002273 477.91599 477.91946
443.0 0.002257 477.88495 477.88852
460.0 0.002174 477.85394 477.85736
471.0 0.002123 477.82288 477.82623
462.0 0.002165 477.79172 477.79523
460.0 0.002174 477.76047 477.76392
460.0 0.002174 477.72937 477.73276
432.0 0.002315 477.69806 477.70135
420.0 0.002381 477.66669 477.67010
455.0 0.002198 477.63541 477.63876
468.0 0.002137 477.60397 477.60739
473.0 0.002114 477.57266 477.57593
458.0 0.002183 477.54111 477.54440
443.0 0.002257 477.50967 477.51306
460.0 0.002174 477.47803 477.48138
451.0 0.002217 477.44647 477.44980
445.0 0.002247 477.41495 477.41815
475.0 0.002105 477.38315 477.38660
478.0 0.002092 477.35153 477.35480
456.0 0.002193 477.31970 477.32309
450.0 0.002222 477.28796 477.29132
456.0 0.002193 477.25620 477.25955
462.0 0.002165 477.22433 477.22769
465.0 0.002151 477.19250 477.19571
447.0 0.002237 477.16052 477.16379
448.0 0.002232 477.12848 477.13177
449.0 0.002227 477.09656 477.09973
446.0 0.002242 477.06448 477.06772
412.0 0.002427 477.03247 477.03568
436.0 0.002294 477.00024 477.00339
456.0 0.002193 476.96811 476.97128
466.0 0.002146 476.93585 476.93921
459.0 0.002179 476.90366 476.90698
449.0 0.002227 476.87143 476.87466
466.0 0.002146 476.83920 476.84222
446.0 0.002242 476.80676 476.81003
460.0 0.002174 476.77454 476.77765
485.0 0.002062 476.74203 476.74518
487.0 0.002053 476.70959 476.71277
472.0 0.002119 476.67712 476.68024
460.0 0.002174 476.64453 476.64780
456.0 0.002193 476.61206 476.61508
463.0 0.002160 476.57947 476.58255
475.0 0.002105 476.54691 476.54999
460.0 0.002174 476.51422 476.51730
461.0 0.002169 476.48148 476.48453
490.0 0.002041 476.44879 476.45184
448.0 0.002232 476.41599 476.41898
432.0 0.002315 476.38321 476.38635
455.0 0.002198 476.35043 476.35349
465.0 0.002151 476.31760 476.32065
476.0 0.002101 476.28464 476.28763
476.0 0.002101 476.25174 476.25467
474.0 0.002110 476.21869 476.22180
473.0 0.002114 476.18573 476.18878
466.0 0.002146 476.15274 476.15579
472.0 0.002119 476.11972 476.12271
487.0 0.002053 476.08658 476.08957
484.0 0.002066 476.05341 476.05649
474.0 0.002110 476.02036 476.02335
468.0 0.002137 475.98715 475.99017
474.0 0.002110 475.95392 475.95682
487.0 0.002053 475.92059 475.92355
497.0 0.002012 475.88727 475.89035
517.0 0.001934 475.85403 475.85696
516.0 0.001938 475.82080 475.82361
499.0 0.002004 475.78729 475.79028
460.0 0.002174 475.75397 475.75693
446.0 0.002242 475.72052 475.72339
491.0 0.002037 475.68707 475.68994
493.0 0.002028 475.65359 475.65637
501.0 0.001996 475.62009 475.62286
490.0 0.002041 475.58646 475.58942
477.0 0.002096 475.55292 475.55566
499.0 0.002004 475.51926 475.52203
491.0 0.002037 475.48569 475.48846
484.0 0.002066 475.45203 475.45480
518.0 0.001931 475.41833 475.42111
513.0 0.001949 475.38455 475.38724
502.0 0.001992 475.35080 475.35358
487.0 0.002053 475.31699 475.31976
483.0 0.002070 475.28320 475.28595
494.0 0.002024 475.24936 475.25204
497.0 0.002012 475.21542 475.21820
484.0 0.002066 475.18155 475.18427
504.0 0.001984 475.14761 475.15039
485.0 0.002062 475.11365 475.11636
457.0 0.002188 475.07968 475.08243
442.0 0.002262 475.04568 475.04843
482.0 0.002075 475.01160 475.01434
507.0 0.001972 474.97748 474.98019
511.0 0.001957 474.94345 474.94617
510.0 0.001961 474.90939 474.91199
491.0 0.002037 474.87515 474.87787
479.0 0.002088 474.84100 474.84372
469.0 0.002132 474.80685 474.80951
466.0 0.002146 474.77258 474.77518
487.0 0.002053 474.73840 474.74097
497.0 0.002012 474.70410 474.70676
479.0 0.002088 474.66968 474.67236
463.0 0.002160 474.63553 474.63800
479.0 0.002088 474.60104 474.60370
481.0 0.002079 474.56671 474.56927
482.0 0.002075 474.53235 474.53485
479.0 0.002088 474.49780 474.50049
461.0 0.002169 474.46341 474.46600
458.0 0.002183 474.42899 474.43152
434.0 0.002304 474.39453 474.39703
428.0 0.002336 474.35992 474.36258
461.0 0.002169 474.32547 474.32800
479.0 0.002088 474.29083 474.29340
482.0 0.002075 474.25623 474.25876
461.0 0.002169 474.22165 474.22415
453.0 0.002208 474.18695 474.18958
466.0 0.002146 474.15244 474.15485
502.0 0.001992 474.11768 474.12018
467.0 0.002141 474.08301 474.08551
489.0 0.002045 474.04831 474.05075
478.0 0.002092 474.01349 474.01593
462.0 0.002165 473.97876 473.98114
461.0 0.002169 473.94385 473.94632
452.0 0.002212 473.90906 473.91150
460.0 0.002174 473.87421 473.87671
470.0 0.002128 473.83942 473.84180
466.0 0.002146 473.80457 473.80688
448.0 0.002232 473.76965 473.77203
465.0 0.002151 473.73468 473.73703
451.0 0.002217 473.69980 473.70215
431.0 0.002320 473.66479 473.66708
457.0 0.002188 473.62985 473.63214
463.0 0.002160 473.59479 473.59726
469.0 0.002132 473.55975 473.56223
479.0 0.002088 473.52484 475.10043
464.0 0.002155 473.48965 475.07913
482.0 0.002075 473.45465 475.05804
462.0 0.002165 473.41946 475.03699
447.0 0.002237 473.38443 475.01620
465.0 0.002151 473.34924 474.99561
476.0 0.002101 473.31415 474.97513
457.0 0.002188 473.27899 474.95480
448.0 0.002232 473.24368 474.93460
442.0 0.002262 473.20859 474.91476
462.0 0.002165 473.17325 474.89499
474.0 0.002110 473.13797 474.87552
479.0 0.002088 473.10284 474.85617
474.0 0.002110 473.06744 474.83701
481.0 0.002079 473.03223 474.81808
446.0 0.002242 472.99695 474.79929
425.0 0.002353 472.96152 474.78098
463.0 0.002160 472.92618 474.76254
460.0 0.002174 472.89084 474.74442
478.0 0.002092 472.85547 474.72665
477.0 0.002096 472.82010 474.70901
469.0 0.002132 472.78458 474.69174
474.0 0.002110 472.74918 474.67465
457.0 0.002188 472.71381 474.65768
452.0 0.002212 472.67834 474.64108
477.0 0.002096 472.64282 474.62469
480.0 0.002083 472.60736 474.60861
466.0 0.002146 472.57193 474.59274
467.0 0.002141 472.53641 474.57715
467.0 0.002141 472.50076 474.56186
466.0 0.002146 472.46515 474.54681
487.0 0.002053 472.42960 474.53210
483.0 0.002070 472.39413 474.51770
471.0 0.002123 472.35840 474.50363
472.0 0.002119 472.32291 474.48990
436.0 0.002294 472.28720 474.47644
429.0 0.002331 472.25168 474.46320
474.0 0.002110 472.21597 474.45032
478.0 0.002092 472.18021 474.43799
476.0 0.002101 472.14459 474.42575
455.0 0.002198 472.10883 474.41403
462.0 0.002165 472.07324 474.40265
470.0 0.002128 472.03751 474.39163
465.0 0.002151 472.00174 474.38092
457.0 0.002188 471.96597 474.37067
489.0 0.002045 471.93030 474.36078
484.0 0.002066 471.89450 474.35126
470.0 0.002128 471.85873 474.34232
457.0 0.002188 471.82294 474.33368
446.0 0.002242 471.78711 474.32532
444.0 0.002252 471.75143 474.31763
473.0 0.002114 471.71548 474.31036
482.0 0.002075 471.67972 474.30350
475.0 0.002105 471.64392 474.29706
471.0 0.002123 471.60797 474.29114
441.0 0.002268 471.57217 474.28580
461.0 0.002169 471.53625 474.28091
501.0 0.001996 471.50037 474.27649
494.0 0.002024 471.46448 474.27277
493.0 0.002028 471.42862 474.26944
494.0 0.002024 471.39273 474.26682
489.0 0.002045 471.35675 474.26450
489.0 0.002045 471.32074 474.26288
476.0 0.002101 471.28494 474.26193
474.0 0.002110 471.24896 474.26163
533.0 0.001876 471.21292 474.26184
525.0 0.001905 471.17697 474.26273
491.0 0.002037 471.14111 474.26428
470.0 0.002128 471.10507 474.26651
480.0 0.002083 471.06912 474.26926
495.0 0.002020 471.03308 474.27301
510.0 0.001961 470.99698 474.27731
507.0 0.001972 470.96109 474.28235
488.0 0.002049 470.92496 474.28830
484.0 0.002066 470.88901 474.29492
453.0 0.002208 470.85294 474.30219
443.0 0.002257 470.81693 474.31042
475.0 0.002105 470.78094 474.31958
472.0 0.002119 470.74478 474.32944
485.0 0.002062 470.70874 474.34036
479.0 0.002088 470.67261 474.35208
475.0 0.002105 470.63663 474.36472
490.0 0.002041 470.60059 474.37827
475.0 0.002105 470.56448 474.39297
461.0 0.002169 470.52829 474.40857
500.0 0.002000 470.49228 474.42520
511.0 0.001957 470.45618 486.00186
486.0 0.002058 470.42004 486.14615
462.0 0.002165 470.38388 486.29382
458.0 0.002183 470.34775 486.44470
463.0 0.002160 470.31171 486.59875
469.0 0.002132 470.27560 486.75641
473.0 0.002114 470.23941 486.91733
467.0 0.002141 470.20331 487.08203
475.0 0.002105 470.16711 487.25015
447.0 0.002237 470.13101 487.42233
441.0 0.002268 470.09485 487.59814
481.0 0.002079 470.05869 487.77802
504.0 0.001984 470.02271 487.96188
487.0 0.002053 469.98642 488.14990
487.0 0.002053 469.95032 488.34216
475.0 0.002105 469.91409 488.53882
493.0 0.002028 469.87799 488.74008
483.0 0.002070 469.84174 488.94574
490.0 0.002041 469.80554 489.15637
518.0 0.001931 469.76944 489.37183
511.0 0.001957 469.73325 489.59247
492.0 0.002033 469.69714 489.81812
487.0 0.002053 469.66098 490.04913
493.0 0.002028 469.62479 490.28571
494.0 0.002024 469.58859 490.52798
515.0 0.001942 469.55246 490.77618
499.0 0.002004 469.51624 491.03036
483.0 0.002070 469.47998 491.29080
491.0 0.002037 469.44388 491.55792
456.0 0.002193 469.40765 491.83157
442.0 0.002262 469.37152 492.11227
488.0 0.002049 469.33536 492.40027
494.0 0.002024 469.29916 492.69565
498.0 0.002008 469.26300 492.99902
486.0 0.002058 469.22668 493.31049
477.0 0.002096 469.19061 493.63037
486.0 0.002058 469.15448 493.95914
468.0 0.002137 469.11826 494.29715
459.0 0.002179 469.08203 494.64456
483.0 0.002070 469.04587 495.00238
488.0 0.002049 469.00974 495.37061
474.0 0.002110 468.97351 495.75012
473.0 0.002114 468.93732 496.14102
482.0 0.002075 468.90121 496.54428
494.0 0.002024 468.86493 496.96039
510.0 0.001961 468.82889 497.39011
510.0 0.001961 468.79263 497.83417
506.0 0.001976 468.75650 498.29324
495.0 0.002020 468.72043 498.76834
467.0 0.002141 468.68423 499.26028
453.0 0.002208 468.64801 499.76993
497.0 0.002012 468.61185 500.29880
510.0 0.001961 468.57574 500.84747
498.0 0.002008 468.53970 501.41742
512.0 0.001953 468.50348 502.01001
530.0 0.001887 468.46729 502.62674
524.0 0.001908 468.43112 503.26871
504.0 0.001984 468.39502 503.93762
482.0 0.002075 468.35895 504.63538
520.0 0.001923 468.32291 505.36389
514.0 0.001946 468.28656 506.12463
512.0 0.001953 468.25058 506.91998
502.0 0.001992 468.21448 507.75201
514.0 0.001946 468.17841 508.62302
525.0 0.001905 468.14227 509.53543
526.0 0.001901 468.10614 510.49182
517.0 0.001934 468.07007 511.49509
501.0 0.001996 468.03397 512.54779
516.0 0.001938 467.99796 513.65332
496.0 0.002016 467.96185 514.81433
491.0 0.002037 467.92575 516.03461
536.0 0.001866 467.88968 517.31750
547.0 0.001828 467.85370 518.66687
549.0 0.001821 467.81769 520.08606
537.0 0.001862 467.78162 521.57935
513.0 0.001949 467.74548 523.15082
520.0 0.001923 467.70953 524.80487
515.0 0.001942 467.67355 526.54590
503.0 0.001988 467.63748 528.37848
527.0 0.001898 467.60147 530.30737
535.0 0.001869 467.56552 532.33777
549.0 0.001821 467.52939 534.47424
551.0 0.001815 467.49359 536.72278
547.0 0.001828 467.45761 539.08832
549.0 0.001821 467.42160 541.57642
555.0 0.001802 467.38568 544.19287
568.0 0.001761 467.34973 546.94360
561.0 0.001783 467.31381 549.83453
559.0 0.001789 467.27786 552.87152
530.0 0.001887 467.24194 556.06110
516.0 0.001938 467.20596 559.40948
565.0 0.001770 467.17014 562.92340
584.0 0.001712 467.13416 566.60907
593.0 0.001686 467.09827 570.47351
589.0 0.001698 467.06247 574.52313
588.0 0.001701 467.02658 578.76544
615.0 0.001626 466.99075 583.20734
614.0 0.001629 466.95471 587.85559
618.0 0.001618 466.91895 592.71808
643.0 0.001555 466.88315 597.80164
648.0 0.001543 466.84744 603.11407
650.0 0.001538 466.81152 608.66302
634.0 0.001577 466.77582 614.45599
628.0 0.001592 466.74008 620.50079
645.0 0.001550 466.70428 626.80524
661.0 0.001513 466.66849 633.37775
670.0 0.001493 466.63275 640.22571
650.0 0.001538 466.59705 647.35760
711.0 0.001406 466.56128 654.78156
699.0 0.001431 466.52567 662.50568
667.0 0.001499 466.48987 670.53815
709.0 0.001410 466.45422 678.88708
723.0 0.001383 466.41858 687.56085
716.0 0.001397 466.38287 696.56726
706.0 0.001416 466.34726 705.91412
719.0 0.001391 466.31146 715.60938
721.0 0.001387 466.27594 725.66046
720.0 0.001389 466.24039 736.07446
731.0 0.001368 466.20471 746.85858
755.0 0.001325 466.16904 758.01892
769.0 0.001300 466.13358 769.56183
753.0 0.001328 466.09802 781.49268
768.0 0.001302 466.06250 793.81641
788.0 0.001269 466.02689 806.53772
836.0 0.001196 465.99133 819.65991
838.0 0.001193 465.95596 833.18610
842.0 0.001188 465.92047 847.11841
843.0 0.001186 465.88501 861.45844
836.0 0.001196 465.84949 876.20691
821.0 0.001218 465.81396 891.36395
810.0 0.001235 465.77863 906.92853
871.0 0.001148 465.74316 922.89966
893.0 0.001120 465.70782 939.27478
920.0 0.001087 465.67236 956.05145
912.0 0.001096 465.63702 973.22656
908.0 0.001101 465.60168 990.79639
924.0 0.001082 465.56635 1008.75720
972.0 0.001029 465.53091 1027.10388
977.0 0.001024 465.49564 1045.83215
1042.0 0.000960 465.46039 1064.93665
1021.0 0.000979 465.42511 1084.41187
1009.0 0.000991 465.38986 1104.25195
1013.0 0.000987 465.35464 1124.44971
1039.0 0.000962 465.31946 1144.99817
1064.0 0.000940 465.28424 1165.88867
1103.0 0.000907 465.24899 1187.11182
1102.0 0.000907 465.21371 1208.65540
1116.0 0.000896 465.17871 1230.50659
1158.0 0.000864 465.14346 1252.64990
1184.0 0.000845 465.10843 1275.06641
1189.0 0.000841 465.07330 1297.73450
1262.0 0.000792 465.03821 1320.62903
1286.0 0.000778 465.00311 1343.72083
1289.0 0.000776 464.96805 1366.97644
1337.0 0.000748 464.93301 1390.35742
1341.0 0.000746 464.89810 1413.82056
1362.0 0.000734 464.86298 1437.31750
1389.0 0.000720 464.82803 1460.79419
1436.0 0.000696 464.79312 1484.19116
1456.0 0.000687 464.75815 1507.44336
1453.0 0.000688 464.72321 1530.47961
1436.0 0.000696 464.68832 1553.22363
1437.0 0.000696 464.65347 1575.59314
1454.0 0.000688 464.61862 1597.50146
1540.0 0.000649 464.58362 1618.85583
1579.0 0.000633 464.54883 1639.55994
1610.0 0.000621 464.51413 1659.51331
1596.0 0.000627 464.47940 1678.61230
1634.0 0.000612 464.44449 1696.75049
1649.0 0.000606 464.40982 1713.82019
1656.0 0.000604 464.37509 1729.71399
1724.0 0.000580 464.34036 1744.32373
1728.0 0.000579 464.30569 1757.54480
1681.0 0.000595 464.27103 1769.27539
1701.0 0.000588 464.23639 1779.41882
1705.0 0.000587 464.20190 1787.88513
1742.0 0.000574 464.16711 1794.59216
1733.0 0.000577 464.13260 1799.46790
1676.0 0.000597 464.09796 1802.45056
1691.0 0.000591 464.06348 1803.49170
1691.0 0.000591 464.02902 1802.55579
1682.0 0.000595 463.99454 1799.62244
1656.0 0.000604 463.95996 1794.68506
1690.0 0.000592 463.92551 1787.75403
1670.0 0.000599 463.89120 1778.85352
1662.0 0.000602 463.85669 1768.02368
1670.0 0.000599 463.82233 1755.31836
1655.0 0.000604 463.78793 1740.80493
1603.0 0.000624 463.75372 1724.56262
1589.0 0.000629 463.71933 1706.68103
1509.0 0.000663 463.68503 1687.25891
1525.0 0.000656 463.65076 1666.40210
1503.0 0.000665 463.61649 1644.22205
1489.0 0.000672 463.58234 1620.83435
1460.0 0.000685 463.54803 1596.35669
1445.0 0.000692 463.51401 1570.90796
1407.0 0.000711 463.47983 1544.60657
1369.0 0.000730 463.44562 1517.56946
1353.0 0.000739 463.41156 1489.91150
1336.0 0.000749 463.37738 1461.74402
1310.0 0.000763 463.34344 1433.17432
1285.0 0.000778 463.30930 1404.30627
1240.0 0.000806 463.27536 1375.23840
1216.0 0.000822 463.24133 1346.06445
1188.0 0.000842 463.20740 1316.87292
1200.0 0.000833 463.17343 1287.74744
1168.0 0.000856 463.13943 1258.76611
1102.0 0.000907 463.10562 1230.00195
1097.0 0.000912 463.07172 1201.52271
1050.0 0.000952 463.03790 1173.39111
984.0 0.001016 463.00415 1145.66467
979.0 0.001021 462.97037 1118.39587
978.0 0.001022 462.93649 1091.63306
971.0 0.001030 462.90292 1065.41882
941.0 0.001063 462.86902 1039.79163
925.0 0.001081 462.83539 1014.78558
895.0 0.001117 462.80176 990.43060
861.0 0.001161 462.76816 966.75183
824.0 0.001214 462.73453 943.77081
845.0 0.001183 462.70093 921.50519
827.0 0.001209 462.66745 899.96863
784.0 0.001276 462.63385 879.17157
771.0 0.001297 462.60031 859.12079
752.0 0.001330 462.56693 839.82001
764.0 0.001309 462.53342 821.26978
747.0 0.001339 462.50009 803.46796
719.0 0.001391 462.46658 786.40961
728.0 0.001374 462.43323 770.08740
709.0 0.001410 462.39993 754.49182
680.0 0.001471 462.36664 739.61133
651.0 0.001536 462.33334 725.43225
664.0 0.001506 462.29999 711.93915
667.0 0.001499 462.26685 699.11566
690.0 0.001449 462.23364 686.94354
668.0 0.001497 462.20050 675.40387
637.0 0.001570 462.16730 664.47650
668.0 0.001497 462.13422 654.14050
645.0 0.001550 462.10123 644.37439
627.0 0.001595 462.06808 635.15643
634.0 0.001577 462.03506 626.46429
620.0 0.001613 462.00204 618.27533
608.0 0.001645 461.96906 610.56763
587.0 0.001704 461.93616 603.31842
566.0 0.001767 461.90320 596.50555
572.0 0.001748 461.87033 590.10718
591.0 0.001692 461.83731 584.10187
578.0 0.001730 461.80463 578.46832
586.0 0.001706 461.77185 573.18597
564.0 0.001773 461.73911 568.23505
556.0 0.001799 461.70627 563.59589
547.0 0.001828 461.67349 559.24976
574.0 0.001742 461.64087 555.17883
563.0 0.001776 461.60834 551.36560
550.0 0.001818 461.57565 547.79382
529.0 0.001890 461.54300 544.44739
511.0 0.001957 461.51059 541.31128
524.0 0.001908 461.47797 538.37134
522.0 0.001916 461.44550 535.61401
526.0 0.001901 461.41296 533.02649
548.0 0.001825 461.38043 530.59668
530.0 0.001887 461.34808 528.31342
532.0 0.001880 461.31580 526.16602
514.0 0.001946 461.28329 524.14441
516.0 0.001938 461.25113 522.23956
520.0 0.001923 461.21875 520.44244
552.0 0.001812 461.18643 518.74512
534.0 0.001873 461.15427 517.14032
516.0 0.001938 461.12207 515.62091
533.0 0.001876 461.08994 514.18030
515.0 0.001942 461.05780 512.81268
486.0 0.002058 461.02579 511.51279
514.0 0.001946 460.99359 510.27496
509.0 0.001965 460.96158 509.09518
500.0 0.002000 460.92966 507.96881
500.0 0.002000 460.89774 506.89197
492.0 0.002033 460.86578 505.86108
490.0 0.002041 460.83383 504.87268
476.0 0.002101 460.80194 503.92398
474.0 0.002110 460.77014 503.01208
494.0 0.002024 460.73825 502.13446
510.0 0.001961 460.70642 501.28888
487.0 0.002053 460.67474 500.47302
478.0 0.002092 460.64301 499.68512
481.0 0.002079 460.61148 498.92325
490.0 0.002041 460.57980 498.18604
514.0 0.001946 460.54810 497.47180
498.0 0.002008 460.51648 496.77911
495.0 0.002020 460.48502 496.10696
513.0 0.001949 460.45355 495.45432
490.0 0.002041 460.42209 494.81989
474.0 0.002110 460.39056 494.20273
510.0 0.001961 460.35922 493.60208
513.0 0.001949 460.32776 493.01715
523.0 0.001912 460.29648 492.44714
506.0 0.001976 460.26520 491.89133
482.0 0.002075 460.23392 491.34918
495.0 0.002020 460.20270 490.81995
477.0 0.002096 460.17139 490.30341
482.0 0.002075 460.14026 489.79883
514.0 0.001946 460.10916 489.30576
504.0 0.001984 460.07800 488.82364
500.0 0.002000 460.04697 488.35229
488.0 0.002049 460.01599 487.89136
491.0 0.002037 459.98492 487.44022
490.0 0.002041 459.95389 486.99869
502.0 0.001992 459.92319 486.56650
512.0 0.001953 459.89218 486.14331
507.0 0.001972 459.86124 485.72867
492.0 0.002033 459.83044 485.32263
481.0 0.002079 459.79968 484.92465
460.0 0.002174 459.76892 484.53464
482.0 0.002075 459.73813 484.15228
494.0 0.002024 459.70752 483.77737
495.0 0.002020 459.67685 483.40973
486.0 0.002058 459.64630 483.04898
489.0 0.002045 459.61563 482.69519
519.0 0.001927 459.58521 482.34808
502.0 0.001992 459.55466 482.00745
494.0 0.002024 459.52414 481.67303
521.0 0.001919 459.49377 481.34473
531.0 0.001883 459.46335 481.02243
512.0 0.001953 459.43292 480.70596
495.0 0.002020 459.40262 480.39508
497.0 0.002012 459.37238 480.08978
503.0 0.001988 459.34219 479.78983
516.0 0.001938 459.31201 479.49503
497.0 0.002012 459.28171 479.20538
491.0 0.002037 459.25165 478.92053
497.0 0.002012 459.22156 478.66470
476.0 0.002101 459.19138 478.38980
464.0 0.002155 459.16129 478.11942
494.0 0.002024 459.13141 477.85364
498.0 0.002008 459.10144 477.59222
493.0 0.002028 459.07150 477.33514
489.0 0.002045 459.04160 477.08221
489.0 0.002045 459.01178 476.83328
491.0 0.002037 458.98203 476.58844
460.0 0.002174 458.95221 476.34747
449.0 0.002227 458.92249 476.11032
494.0 0.002024 458.89279 475.87689
496.0 0.002016 458.86307 475.64697
499.0 0.002004 458.83356 475.42075
481.0 0.002079 458.80392 475.19794
464.0 0.002155 458.77438 474.97852
469.0 0.002132 458.74487 474.76242
462.0 0.002165 458.71542 474.54956
465.0 0.002151 458.68594 474.33975
478.0 0.002092 458.65665 474.13327
494.0 0.002024 458.62720 473.92960
462.0 0.002165 458.59799 473.72903
440.0 0.002273 458.56870 473.53137
463.0 0.002160 458.53940 473.33646
476.0 0.002101 458.51035 473.14441
476.0 0.002101 458.48105 472.95502
485.0 0.002062 458.45184 472.76819
470.0 0.002128 458.42285 472.58423
472.0 0.002119 458.39380 472.40274
455.0 0.002198 458.36481 472.22360
446.0 0.002242 458.33582 472.04694
470.0 0.002128 458.30698 471.87268
469.0 0.002132 458.27805 471.70084
446.0 0.002242 458.24915 471.53125
451.0 0.002217 458.22034 471.36386
460.0 0.002174 458.19162 471.19867
466.0 0.002146 458.16290 471.03568
488.0 0.002049 458.13412 470.87494
485.0 0.002062 458.10547 458.13919
479.0 0.002088 458.07690 458.11096
482.0 0.002075 458.04837 458.08273
451.0 0.002217 458.01978 458.05457
427.0 0.002342 457.99130 458.02643
462.0 0.002165 457.96286 457.99844
468.0 0.002137 457.93445 457.97034
470.0 0.002128 457.90601 457.94238
465.0 0.002151 457.87775 457.91449
450.0 0.002222 457.84943 457.88644
467.0 0.002141 457.82101 457.85867
472.0 0.002119 457.79294 457.83084
490.0 0.002041 457.76480 457.80316
492.0 0.002033 457.73669 457.77548
491.0 0.002037 457.70856 457.74777
478.0 0.002092 457.68054 457.72018
459.0 0.002179 457.65250 457.69250
452.0 0.002212 457.62445 457.66513
454.0 0.002203 457.59662 457.63763
466.0 0.002146 457.56873 457.61017
469.0 0.002132 457.54083 457.58292
461.0 0.002169 457.51306 457.55551
464.0 0.002155 457.48517 457.52829
443.0 0.002257 457.45746 457.50098
435.0 0.002299 457.42987 457.47391
451.0 0.002217 457.40222 457.44681
472.0 0.002119 457.37460 457.41968
490.0 0.002041 457.34711 457.39270
478.0 0.002092 457.31943 457.36569
464.0 0.002155 457.29196 457.33881
459.0 0.002179 457.26462 457.31195
432.0 0.002315 457.23715 457.28506
447.0 0.002237 457.20975 457.25833
477.0 0.002096 457.18256 457.23166
476.0 0.002101 457.15527 459.90485
454.0 0.002203 457.12799 459.90765
455.0 0.002198 457.10077 459.91098
473.0 0.002114 457.07364 459.91479
469.0 0.002132 457.04654 459.91919
474.0 0.002110 457.01947 459.92416
458.0 0.002183 456.99240 459.92966
447.0 0.002237 456.96542 459.93576
451.0 0.002217 456.93839 459.94247
429.0 0.002331 456.91168 459.94992
411.0 0.002433 456.88467 459.95770
450.0 0.002222 456.85791 459.96634
455.0 0.002198 456.83124 459.97565
473.0 0.002114 456.80450 459.98544
473.0 0.002114 456.77765 459.99609
463.0 0.002160 456.75107 460.00732
474.0 0.002110 456.72440 460.09351
454.0 0.002203 456.69788 460.10684
445.0 0.002247 456.67142 460.12091
470.0 0.002128 456.64496 460.13586
473.0 0.002114 456.61844 460.15143
465.0 0.002151 456.59204 460.16794
452.0 0.002212 456.56580 460.18524
462.0 0.002165 456.53943 460.20331
482.0 0.002075 456.51309 460.22223
478.0 0.002092 456.48688 460.24213
478.0 0.002092 456.46069 460.26285
480.0 0.002083 456.43463 460.28458
475.0 0.002105 456.40851 460.30710
435.0 0.002299 456.38251 460.33069
427.0 0.002342 456.35651 460.35522
457.0 0.002188 456.33054 460.63785
462.0 0.002165 456.30444 460.66678
464.0 0.002155 456.27856 460.69662
448.0 0.002232 456.25275 460.72775
459.0 0.002179 456.22702 460.75992
469.0 0.002132 456.20126 460.79330
457.0 0.002188 456.17554 460.82800
459.0 0.002179 456.14993 460.86383
486.0 0.002058 456.12427 460.90091
479.0 0.002088 456.09869 460.93930
463.0 0.002160 456.07309 460.97910
456.0 0.002193 456.04767 461.02020
461.0 0.002169 456.02213 461.06277
448.0 0.002232 455.99673 461.10663
469.0 0.002132 455.97141 461.15213
488.0 0.002049 455.94611 461.19919
476.0 0.002101 455.92078 461.24774
480.0 0.002083 455.89566 461.29797
448.0 0.002232 455.87039 461.34998
433.0 0.002309 455.84525 461.40356
472.0 0.002119 455.82013 461.45889
483.0 0.002070 455.79507 461.51620
489.0 0.002045 455.77002 461.57526
479.0 0.002088 455.74503 462.38608
472.0 0.002119 455.72006 462.45737
481.0 0.002079 455.69525 462.53082
463.0 0.002160 455.67035 462.60660
455.0 0.002198 455.64554 462.68469
486.0 0.002058 455.62088 462.76541
489.0 0.002045 455.59607 462.84854
486.0 0.002058 455.57144 462.93439
474.0 0.002110 455.54678 463.02304
473.0 0.002114 455.52216 463.11462
479.0 0.002088 455.49774 463.20923
477.0 0.002096 455.47318 463.30688
464.0 0.002155 455.44876 463.40799
459.0 0.002179 455.42438 463.51242
469.0 0.002132 455.40002 463.62045
438.0 0.002283 455.37570 463.73224
435.0 0.002299 455.35135 463.84808
465.0 0.002151 455.32712 463.96814
480.0 0.002083 455.30289 464.09262
485.0 0.002062 455.27890 464.22180
491.0 0.002037 455.25464 464.35593
483.0 0.002070 455.23059 464.49524
481.0 0.002079 455.20673 464.64032
470.0 0.002128 455.18271 464.79123
470.0 0.002128 455.15878 464.94858
482.0 0.002075 455.13492 465.11255
483.0 0.002070 455.11111 465.28391
466.0 0.002146 455.08728 465.46298
460.0 0.002174 455.06357 465.65039
472.0 0.002119 455.03979 465.84665
473.0 0.002114 455.01611 466.05264
487.0 0.002053 454.99255 466.26886
480.0 0.002083 454.96896 466.49631
473.0 0.002114 454.94550 466.73560
473.0 0.002114 454.92197 466.98810
460.0 0.002174 454.89853 467.25433
449.0 0.002227 454.87518 467.53589
486.0 0.002058 454.85175 467.83386
479.0 0.002088 454.82843 468.14941
479.0 0.002088 454.80524 468.48413
476.0 0.002101 454.78210 468.83942
475.0 0.002105 454.75894 469.21722
485.0 0.002062 454.73584 469.61932
482.0 0.002075 454.71259 470.04745
467.0 0.002141 454.68970 470.50397
511.0 0.001957 454.66669 470.99127
516.0 0.001938 454.64374 471.51135
501.0 0.001996 454.62079 472.06705
506.0 0.001976 454.59793 472.66129
495.0 0.002020 454.57523 473.29700
498.0 0.002008 454.55240 473.97739
511.0 0.001957 454.52963 474.70566
506.0 0.001976 454.50699 475.48557
507.0 0.001972 454.48428 476.32089
510.0 0.001961 454.46176 477.21539
482.0 0.002075 454.43921 478.17352
486.0 0.002058 454.41681 479.19962
515.0 0.001942 454.39426 480.29800
519.0 0.001927 454.37189 481.47406
533.0 0.001876 454.34955 482.73215
528.0 0.001894 454.32724 484.07791
537.0 0.001862 454.30499 485.51654
543.0 0.001842 454.28271 487.05359
530.0 0.001887 454.26050 488.69470
520.0 0.001923 454.23840 490.44580
533.0 0.001876 454.21622 492.31262
553.0 0.001808 454.19427 494.30142
545.0 0.001835 454.17224 496.41809
547.0 0.001828 454.15030 498.66895
561.0 0.001783 454.12839 502.10394
564.0 0.001773 454.10651 504.65244
569.0 0.001757 454.08463 507.35339
571.0 0.001751 454.06290 510.21289
555.0 0.001802 454.04120 513.23663
580.0 0.001724 454.01950 516.42999
553.0 0.001808 453.99786 520.13922
539.0 0.001855 453.97626 523.69098
580.0 0.001724 453.95462 527.42761
584.0 0.001712 453.93320 531.35358
599.0 0.001669 453.91165 535.47266
573.0 0.001745 453.89029 539.78809
567.0 0.001764 453.86899 544.30292
599.0 0.001669 453.84756 549.01929
597.0 0.001675 453.82629 553.93878
601.0 0.001664 453.80496 559.06201
649.0 0.001541 453.78391 564.38947
653.0 0.001531 453.76270 569.91980
637.0 0.001570 453.74161 575.65167
621.0 0.001610 453.72052 581.58246
625.0 0.001600 453.69952 587.70862
644.0 0.001553 453.67853 594.02539
654.0 0.001529 453.65762 600.52753
643.0 0.001555 453.63666 607.20813
673.0 0.001486 453.61588 614.05902
700.0 0.001429 453.59518 621.07178
675.0 0.001481 453.57434 628.23584
671.0 0.001490 453.55374 635.53998
723.0 0.001383 453.53299 642.97150
717.0 0.001395 453.51239 650.51691
752.0 0.001330 453.49173 658.41296
748.0 0.001337 453.47134 666.14124
729.0 0.001372 453.45084 673.93408
750.0 0.001333 453.43036 681.77277
749.0 0.001335 453.41010 689.63739
757.0 0.001321 453.38965 697.50616
811.0 0.001233 453.36935 705.35681
835.0 0.001198 453.34906 713.16577
798.0 0.001253 453.32892 720.90778
834.0 0.001199 453.30872 728.55743
842.0 0.001188 453.28857 736.08771
849.0 0.001178 453.26846 743.47083
853.0 0.001172 453.24847 750.67834
884.0 0.001131 453.22858 757.68134
866.0 0.001155 453.20862 764.45020
875.0 0.001143 453.18872 770.95520
845.0 0.001183 453.16885 777.16681
842.0 0.001188 453.14899 783.05597
915.0 0.001093 453.12930 788.59387
942.0 0.001062 453.10959 793.75269
957.0 0.001045 453.08984 798.50629
940.0 0.001064 453.07025 802.82983
906.0 0.001104 453.05066 806.70081
917.0 0.001091 453.03119 810.09888
925.0 0.001081 453.01169 813.00684
941.0 0.001063 452.99219 815.41022
949.0 0.001054 452.97287 817.29858
918.0 0.001089 452.95340 818.66492
909.0 0.001100 452.93405 819.50543
891.0 0.001122 452.91489 819.82172
912.0 0.001096 452.89557 819.61804
921.0 0.001086 452.87640 818.90387
939.0 0.001065 452.85730 817.69165
928.0 0.001078 452.83813 815.99744
904.0 0.001106 452.81918 813.84161
884.0 0.001131 452.80020 811.24646
825.0 0.001212 452.78122 808.23761
784.0 0.001276 452.76233 804.84253
835.0 0.001198 452.74347 801.09045
846.0 0.001182 452.72458 797.01251
850.0 0.001176 452.70581 792.64008
827.0 0.001209 452.68707 788.00555
826.0 0.001211 452.66833 783.14111
804.0 0.001244 452.64966 778.07904
821.0 0.001218 452.63110 772.85095
788.0 0.001269 452.61264 767.48798
822.0 0.001217 452.59399 762.02002
811.0 0.001233 452.57559 756.47632
758.0 0.001319 452.55713 750.88422
757.0 0.001321 452.53879 745.27008
744.0 0.001344 452.52045 739.65900
727.0 0.001376 452.50214 734.07416
738.0 0.001355 452.48386 728.53705
730.0 0.001370 452.46579 723.06799
706.0 0.001416 452.44763 717.68549
688.0 0.001453 452.42944 712.40576
670.0 0.001493 452.41135 707.24445
650.0 0.001538 452.39331 702.21460
698.0 0.001433 452.37537 697.32788
695.0 0.001439 452.35736 692.59473
680.0 0.001471 452.33951 688.02325
690.0 0.001449 452.32169 683.62000
688.0 0.001453 452.30386 679.39050
695.0 0.001439 452.28610 675.33832
690.0 0.001449 452.26843 671.46527
652.0 0.001534 452.25067 667.77203
682.0 0.001466 452.23303 664.25800
668.0 0.001497 452.21548 660.92120
631.0 0.001585 452.19788 657.75800
652.0 0.001534 452.18048 654.76367
658.0 0.001520 452.16290 651.93317
656.0 0.001524 452.14557 649.25940
657.0 0.001522 452.12830 646.73523
642.0 0.001558 452.11087 644.35236
657.0 0.001522 452.09354 642.10181
653.0 0.001531 452.07626 639.97485
627.0 0.001595 452.05920 637.96143
619.0 0.001616 452.04208 636.05231
644.0 0.001553 452.02493 634.23761
630.0 0.001587 452.00778 632.50757
628.0 0.001592 451.99075 630.85266
626.0 0.001597 451.97382 629.26440
630.0 0.001587 451.95688 627.73370
636.0 0.001572 451.94000 626.25293
629.0 0.001590 451.92325 624.81464
629.0 0.001590 451.90631 623.41235
638.0 0.001567 451.88968 622.03986
638.0 0.001567 451.87292 620.69214
622.0 0.001608 451.85623 619.36505
619.0 0.001616 451.83957 618.05499
606.0 0.001650 451.82303 616.75891
596.0 0.001678 451.80646 615.47473
604.0 0.001656 451.78992 614.20093
615.0 0.001626 451.77344 612.93646
621.0 0.001610 451.75714 611.68109
611.0 0.001637 451.74078 610.43506
589.0 0.001698 451.72433 609.19843
570.0 0.001754 451.70807 607.97260
614.0 0.001629 451.69186 606.75873
614.0 0.001629 451.67566 605.55817
623.0 0.001605 451.65945 604.37311
614.0 0.001629 451.64331 603.20581
611.0 0.001637 451.62735 602.05859
626.0 0.001597 451.61127 600.93390
602.0 0.001661 451.59528 600.09784
590.0 0.001695 451.57935 599.03040
594.0 0.001684 451.56339 597.99500
595.0 0.001681 451.54758 596.99451
596.0 0.001678 451.53180 596.03314
574.0 0.001742 451.51599 595.11371
574.0 0.001742 451.50021 594.23999
582.0 0.001718 451.48453 593.41534
603.0 0.001658 451.46890 592.64343
619.0 0.001616 451.45322 591.92731
603.0 0.001658 451.43768 591.26996
603.0 0.001658 451.42227 590.67450
562.0 0.001779 451.40674 590.14301
538.0 0.001859 451.39133 589.67810
582.0 0.001718 451.37582 589.28125
591.0 0.001692 451.36047 588.95380
599.0 0.001669 451.34525 588.69672
579.0 0.001727 451.33002 588.51044
569.0 0.001757 451.31473 588.39453
579.0 0.001727 451.29953 588.34827
568.0 0.001761 451.28445 588.37048
568.0 0.001761 451.26935 588.45917
608.0 0.001645 451.25433 588.61194
607.0 0.001647 451.23923 588.82538
581.0 0.001721 451.22424 589.09607
573.0 0.001745 451.20932 589.41943
577.0 0.001733 451.19437 589.79077
587.0 0.001704 451.17963 590.20471
598.0 0.001672 451.16479 590.65521
595.0 0.001681 451.15009 591.13586
591.0 0.001692 451.13544 591.63953
615.0 0.001626 451.12067 592.15924
586.0 0.001706 451.10593 592.68701
569.0 0.001757 451.09134 593.21472
603.0 0.001658 451.07687 593.73444
626.0 0.001597 451.06244 594.23761
626.0 0.001597 451.04779 594.71570
605.0 0.001653 451.03345 595.16016
593.0 0.001686 451.01907 595.56299
602.0 0.001661 451.00470 595.91577
602.0 0.001661 450.99045 596.21118
564.0 0.001773 450.97607 596.44153
594.0 0.001684 450.96188 596.60040
581.0 0.001721 450.94754 596.68201
567.0 0.001764 450.93347 596.68073
570.0 0.001754 450.91937 596.59271
569.0 0.001757 450.90536 596.41461
590.0 0.001695 450.89127 596.14417
591.0 0.001692 450.87735 595.77985
580.0 0.001724 450.86337 595.32227
577.0 0.001733 450.84949 594.77179
605.0 0.001653 450.83560 594.13080
572.0 0.001748 450.82184 593.40247
577.0 0.001733 450.80804 592.59070
593.0 0.001686 450.79425 591.70013
593.0 0.001686 450.78067 590.73669
600.0 0.001667 450.76682 589.70642
594.0 0.001684 450.75323 588.61591
593.0 0.001686 450.73969 587.47266
591.0 0.001692 450.72610 586.28357
573.0 0.001745 450.71268 585.05640
580.0 0.001724 450.69907 583.79889
612.0 0.001634 450.68576 582.51801
612.0 0.001634 450.67242 581.22150
586.0 0.001706 450.65900 579.91632
573.0 0.001745 450.64566 578.60919
576.0 0.001736 450.63251 577.30695
587.0 0.001704 450.61920 576.01526
594.0 0.001684 450.60605 574.73975
604.0 0.001656 450.59280 573.48590
591.0 0.001692 450.57980 572.25793
581.0 0.001721 450.56665 571.06049
550.0 0.001818 450.55371 569.89691
539.0 0.001855 450.54071 568.77039
577.0 0.001733 450.52768 567.68317
575.0 0.001739 450.51492 566.63763
580.0 0.001724 450.50201 565.63538
570.0 0.001754 450.48914 564.67712
547.0 0.001828 450.47638 563.76294
565.0 0.001770 450.46365 562.89331
564.0 0.001773 450.45087 562.06744
565.0 0.001770 450.43826 561.28418
596.0 0.001678 450.42563 560.54211
615.0 0.001626 450.41299 559.83887
578.0 0.001730 450.40045 559.17255
561.0 0.001783 450.38794 558.54004
548.0 0.001825 450.37543 557.93842
543.0 0.001842 450.36298 557.36389
560.0 0.001786 450.35071 556.81329
556.0 0.001799 450.33832 556.28253
559.0 0.001789 450.32578 555.76746
554.0 0.001805 450.31357 555.26422
521.0 0.001919 450.30130 554.76868
505.0 0.001980 450.28909 554.27655
533.0 0.001876 450.27692 553.78430
538.0 0.001859 450.26471 553.28760
548.0 0.001825 450.25269 552.78296
521.0 0.001919 450.24051 552.26697
519.0 0.001927 450.22858 551.73657
525.0 0.001905 450.21667 551.18878
529.0 0.001890 450.20459 550.62109
526.0 0.001901 450.19278 550.03113
544.0 0.001838 450.18094 549.41718
550.0 0.001818 450.16904 548.77753
544.0 0.001838 450.15729 548.11102
536.0 0.001866 450.14545 547.41608
517.0 0.001934 450.13370 546.69244
521.0 0.001919 450.12207 545.93927
534.0 0.001873 450.11050 545.15656
535.0 0.001869 450.09888 544.34338
544.0 0.001838 450.08722 543.50037
546.0 0.001832 450.07578 542.62708
516.0 0.001938 450.06424 541.72418
493.0 0.002028 450.05276 540.79144
530.0 0.001887 450.04132 539.82953
542.0 0.001845 450.02988 538.83905
548.0 0.001825 450.01859 537.82043
522.0 0.001916 450.00729 536.77490
509.0 0.001965 449.99600 535.70276
525.0 0.001905 449.98471 534.60577
512.0 0.001953 449.97360 533.48480
501.0 0.001996 449.96243 532.34174
531.0 0.001883 449.95126 531.17798
534.0 0.001873 449.94025 527.74976
514.0 0.001946 449.92914 526.57275
494.0 0.002024 449.91818 525.38116
486.0 0.002058 449.90710 524.17792
493.0 0.002028 449.89609 522.96533
516.0 0.001938 449.88531 521.74658
510.0 0.001961 449.87427 520.52460
513.0 0.001949 449.86353 519.54901
512.0 0.001953 449.85272 518.33276
494.0 0.002024 449.84186 517.12292
480.0 0.002083 449.83118 515.92285
513.0 0.001949 449.82059 514.73572
523.0 0.001912 449.80975 513.56439
522.0 0.001916 449.79916 512.41235
518.0 0.001931 449.78857 511.28201
499.0 0.002004 449.77802 510.17639
505.0 0.001980 449.76755 509.09830
494.0 0.002024 449.75705 508.04962
481.0 0.002079 449.74652 507.03271
485.0 0.002062 449.73596 506.04956
495.0 0.002020 449.72583 505.10184
485.0 0.002062 449.71545 504.19107
500.0 0.002000 449.70520 503.31824
481.0 0.002079 449.69473 502.48459
481.0 0.002079 449.68454 501.69061
492.0 0.002033 449.67435 500.93683
506.0 0.001976 449.66418 500.22357
507.0 0.001972 449.65405 499.55075
494.0 0.002024 449.64392 498.91806
461.0 0.002169 449.63373 498.32529
433.0 0.002309 449.62384 497.77121
474.0 0.002110 449.61380 497.25537
478.0 0.002092 449.60373 496.77634
498.0 0.002008 449.59393 496.33286
494.0 0.002024 449.58395 495.92343
468.0 0.002137 449.57416 495.54593
475.0 0.002105 449.56424 495.19882
475.0 0.002105 449.55441 494.87997
464.0 0.002155 449.54471 494.58676
495.0 0.002020 449.53503 494.31702
491.0 0.002037 449.52530 494.06796
490.0 0.002041 449.51559 493.83688
468.0 0.002137 449.50595 493.62091
468.0 0.002137 449.49637 493.41733
475.0 0.002105 449.48679 493.22266
486.0 0.002058 449.47733 493.03412
494.0 0.002024 449.46777 492.84872
476.0 0.002101 449.45834 492.66302
489.0 0.002045 449.44891 492.47391
451.0 0.002217 449.43939 492.27844
439.0 0.002278 449.43008 492.07382
456.0 0.002193 449.42081 491.85663
459.0 0.002179 449.41147 491.62491
481.0 0.002079 449.40216 491.37537
475.0 0.002105 449.39291 491.10617
470.0 0.002128 449.38370 490.81503
465.0 0.002151 449.37460 490.50024
464.0 0.002155 449.36542 490.16019
459.0 0.002179 449.35632 489.79376
474.0 0.002110 449.34717 489.39999
477.0 0.002096 449.33820 488.97827
468.0 0.002137 449.32916 488.52844
467.0 0.002141 449.32016 488.05054
462.0 0.002165 449.31116 487.54495
455.0 0.002198 449.30231 487.01227
470.0 0.002128 449.29343 486.45361
468.0 0.002137 449.28458 485.86990
471.0 0.002123 449.27576 485.26260
478.0 0.002092 449.26697 484.63321
446.0 0.002242 449.25830 483.98349
425.0 0.002353 449.24942 483.31528
464.0 0.002155 449.24075 482.63046
462.0 0.002165 449.23209 481.93082
469.0 0.002132 449.22336 481.21854
459.0 0.002179 449.21481 480.49530
460.0 0.002174 449.20627 479.76370
483.0 0.002070 449.19778 479.02496
481.0 0.002079 449.18921 478.28146
454.0 0.002203 449.18073 477.53494
481.0 0.002079 449.17233 476.78741
478.0 0.002092 449.16394 476.04028
470.0 0.002128 449.15549 475.29538
457.0 0.002188 449.14713 474.55438
452.0 0.002212 449.13892 473.81848
465.0 0.002151 449.13049 473.08963
485.0 0.002062 449.12228 472.36884
471.0 0.002123 449.11401 471.65744
478.0 0.002092 449.10580 470.95679
474.0 0.002110 449.09772 470.19373
450.0 0.002222 449.08945 469.51813
442.0 0.002262 449.08133 468.85632
474.0 0.002110 449.07321 468.20889
483.0 0.002070 449.06519 467.57715
490.0 0.002041 449.05716 466.96143
495.0 0.002020 449.04910 466.36258
497.0 0.002012 449.04120 465.78094
499.0 0.002004 449.03333 465.83701
462.0 0.002165 449.02539 465.29831
460.0 0.002174 449.01736 464.77850
471.0 0.002123 449.00952 464.27774
487.0 0.002053 449.00177 463.79623
474.0 0.002110 448.99402 463.33456
458.0 0.002183 448.98630 462.89255
466.0 0.002146 448.97845 461.80634
466.0 0.002146 448.97073 461.40942
483.0 0.002070 448.96310 459.99399
491.0 0.002037 448.95547 459.64816
477.0 0.002096 448.94791 459.32193
479.0 0.002088 448.94022 459.01535
448.0 0.002232 448.93265 458.72842
434.0 0.002304 448.92514 458.46091
476.0 0.002101 448.91760 458.21274
482.0 0.002075 448.91013 457.98370
478.0 0.002092 448.90259 457.77393
466.0 0.002146 448.89520 457.58298
457.0 0.002188 448.88785 457.41098
475.0 0.002105 448.88040 457.25760
456.0 0.002193 448.87302 457.12268
462.0 0.002165 448.86584 457.00623
472.0 0.002119 448.85849 456.90811
475.0 0.002105 448.85138 456.82809
474.0 0.002110 448.84402 456.76620
468.0 0.002137 448.83682 456.72232
461.0 0.002169 448.82962 456.69629
464.0 0.002155 448.82248 456.68823
480.0 0.002083 448.81534 456.69781
464.0 0.002155 448.80826 456.72534
453.0 0.002208 448.80115 456.77057
453.0 0.002208 448.79422 456.83362
432.0 0.002315 448.78714 456.91443
425.0 0.002353 448.78015 457.01300
450.0 0.002222 448.77310 457.12933
475.0 0.002105 448.76627 457.26364
486.0 0.002058 448.75928 457.41562
480.0 0.002083 448.75244 457.58560
471.0 0.002123 448.74554 457.77335
459.0 0.002179 448.73874 457.97900
450.0 0.002222 448.73190 458.20288
452.0 0.002212 448.72519 458.44437
492.0 0.002033 448.71820 458.70386
487.0 0.002053 448.71164 458.98111
477.0 0.002096 448.70496 459.27621
492.0 0.002033 448.69824 459.58890
479.0 0.002088 448.69162 459.91910
472.0 0.002119 448.68494 460.26691
479.0 0.002088 448.67831 460.63147
474.0 0.002110 448.67175 461.01291
476.0 0.002101 448.66525 461.41125
486.0 0.002058 448.65866 461.82556
451.0 0.002217 448.65219 462.25565
438.0 0.002283 448.64572 462.70111
478.0 0.002092 448.63922 463.16144
491.0 0.002037 448.63284 463.63580
497.0 0.002012 448.62643 464.12354
496.0 0.002016 448.62006 464.62421
479.0 0.002088 448.61377 465.13687
498.0 0.002008 448.60730 465.66037
478.0 0.002092 448.60101 466.19409
461.0 0.002169 448.59479 466.73672
483.0 0.002070 448.58856 467.28735
494.0 0.002024 448.58228 467.84473
470.0 0.002128 448.57608 468.40744
473.0 0.002114 448.56985 468.97415
481.0 0.002079 448.56372 469.54355
490.0 0.002041 448.55762 470.11386
487.0 0.002053 448.55136 470.68381
509.0 0.001965 448.54532 471.25134
486.0 0.002058 448.53928 471.81482
491.0 0.002037 448.53326 472.37247
465.0 0.002151 448.52725 472.92239
439.0 0.002278 448.52115 473.46246
464.0 0.002155 448.51526 473.99100
475.0 0.002105 448.50934 474.50543
468.0 0.002137 448.50333 475.00418
479.0 0.002088 448.49753 475.48474
469.0 0.002132 448.49164 475.94522
475.0 0.002105 448.48578 476.38348
454.0 0.002203 448.48004 476.79755
457.0 0.002188 448.47418 477.18539
508.0 0.001969 448.46829 477.54526
495.0 0.002020 448.46252 477.87509
485.0 0.002062 448.45670 478.17340
477.0 0.002096 448.45096 478.43890
472.0 0.002119 448.44534 478.66998
484.0 0.002066 448.43964 478.86591
489.0 0.002045 448.43402 479.02560
479.0 0.002088 448.42841 479.14871
494.0 0.002024 448.42279 479.23495
496.0 0.002016 448.41711 479.28433
464.0 0.002155 448.41147 479.29712
466.0 0.002146 448.40604 479.27402
480.0 0.002083 448.40045 479.21603
481.0 0.002079 448.39499 479.12430
489.0 0.002045 448.38947 479.00049
488.0 0.002049 448.38394 478.84598
467.0 0.002141 448.37866 478.66330
480.0 0.002083 448.37320 478.45465
473.0 0.002114 448.36774 478.22217
460.0 0.002174 448.36243 477.96860
494.0 0.002024 448.35706 477.69678
489.0 0.002045 448.35181 477.06949
483.0 0.002070 448.34637 476.77261
484.0 0.002066 448.34106 476.46603
478.0 0.002092 448.33578 476.15311
476.0 0.002101 448.33066 475.83688
478.0 0.002092 448.32532 475.52017
472.0 0.002119 448.32007 475.20633
468.0 0.002137 448.31485 474.89832
494.0 0.002024 448.30975 474.59921
452.0 0.002212 448.30457 474.31198
436.0 0.002294 448.29941 474.03949
467.0 0.002141 448.29419 473.78482
479.0 0.002088 448.28918 473.55063
494.0 0.002024 448.28415 473.33978
486.0 0.002058 448.27905 473.15500
470.0 0.002128 448.27402 472.99884
464.0 0.002155 448.26904 472.87381
464.0 0.002155 448.26404 472.78232
454.0 0.002203 448.25900 472.72696
479.0 0.002088 448.25409 472.70959
503.0 0.001988 448.24915 472.73267
488.0 0.002049 448.24408 472.79803
471.0 0.002123 448.23929 472.90784
475.0 0.002105 448.23444 473.06369
471.0 0.002123 448.22958 473.26721
487.0 0.002053 448.22470 473.26904
484.0 0.002066 448.21994 473.57462
483.0 0.002070 448.21503 473.93179
492.0 0.002033 448.21030 474.34195
458.0 0.002183 448.20544 474.80579
435.0 0.002299 448.20071 475.32401
470.0 0.002128 448.19601 475.89700
473.0 0.002114 448.19119 476.52539
491.0 0.002037 448.18649 477.20898
478.0 0.002092 448.18195 477.94803
469.0 0.002132 448.17712 478.74194
474.0 0.002110 448.17255 479.59033
471.0 0.002123 448.16794 480.49237
468.0 0.002137 448.16333 481.44705
506.0 0.001976 448.15872 482.19266
530.0 0.001887 448.15417 483.25183
507.0 0.001972 448.14954 484.59760
478.0 0.002092 448.14499 485.75412
467.0 0.002141 448.14041 486.95502
479.0 0.002088 448.13593 488.19794
493.0 0.002028 448.13144 489.47998
506.0 0.001976 448.12701 490.79825
495.0 0.002020 448.12250 492.14960
505.0 0.001980 448.11813 493.53070
486.0 0.002058 448.11371 494.93777
494.0 0.002024 448.10922 496.36697
519.0 0.001927 448.10486 497.81409
531.0 0.001883 448.10043 499.27444
536.0 0.001866 448.09610 500.74380
544.0 0.001838 448.09177 502.21701
539.0 0.001855 448.08749 503.68884
536.0 0.001866 448.08310 505.15411
517.0 0.001934 448.07874 506.60699
540.0 0.001852 448.07468 508.04208
574.0 0.001742 448.07031 509.45328
574.0 0.001742 448.06601 510.83450
557.0 0.001795 448.06183 512.17938
526.0 0.001901 448.05753 513.48175
539.0 0.001855 448.05334 514.73541
545.0 0.001835 448.04922 515.93365
558.0 0.001792 448.04501 517.07031
550.0 0.001818 448.04089 518.13898
554.0 0.001805 448.03671 519.13354
553.0 0.001808 448.03259 520.04828
533.0 0.001876 448.02850 520.87726
516.0 0.001938 448.02432 521.61523
554.0 0.001805 448.02023 522.25745
577.0 0.001733 448.01617 522.79944
564.0 0.001773 448.01218 523.23718
554.0 0.001805 448.00809 523.56744
553.0 0.001808 448.00403 523.78772
556.0 0.001799 448.00009 523.89624
552.0 0.001812 447.99609 523.89160
554.0 0.001805 447.99210 523.77362
564.0 0.001773 447.98801 523.54279
543.0 0.001842 447.98413 523.20020
551.0 0.001815 447.98026 522.74792
542.0 0.001845 447.97629 522.18823
535.0 0.001869 447.97232 521.52466
540.0 0.001852 447.96844 520.76141
546.0 0.001832 447.96457 519.90265
537.0 0.001862 447.96066 518.95331
523.0 0.001912 447.95691 517.91870
520.0 0.001923 447.95297 516.80438
492.0 0.002033 447.94916 515.61621
498.0 0.002008 447.94534 514.36035
524.0 0.001908 447.94147 513.04272
522.0 0.001916 447.93777 511.66965
514.0 0.001946 447.93396 510.24716
505.0 0.001980 447.93018 508.78143
490.0 0.002041 447.92645 507.27829
487.0 0.002053 447.92270 505.74384
489.0 0.002045 447.91891 504.68713
486.0 0.002058 447.91525 503.11090
526.0 0.001901 447.91150 501.51974
517.0 0.001934 447.90790 499.91843
494.0 0.002024 447.90405 498.31207
495.0 0.002020 447.90039 496.70529
491.0 0.002037 447.89685 495.10229
506.0 0.001976 447.89322 493.50726
501.0 0.001996 447.88950 491.92404
496.0 0.002016 447.88586 490.35623
506.0 0.001976 447.88235 488.80734
496.0 0.002016 447.87869 487.28024
446.0 0.002242 447.87515 485.77777
433.0 0.002309 447.87152 484.30286
468.0 0.002137 447.86804 482.85745
480.0 0.002083 447.86450 481.44418
490.0 0.002041 447.86096 480.06470
482.0 0.002075 447.85739 478.72076
478.0 0.002092 447.85379 477.41379
465.0 0.002151 447.85043 476.14508
458.0 0.002183 447.84686 474.91586
455.0 0.002198 447.84332 473.72668
478.0 0.002092 447.83997 472.57846
480.0 0.002083 447.83643 471.47168
462.0 0.002165 447.83298 470.40659
456.0 0.002193 447.82956 469.38345
464.0 0.002155 447.82605 468.40210
469.0 0.002132 447.82266 467.46249
467.0 0.002141 447.81937 466.56458
464.0 0.002155 447.81589 465.70761
454.0 0.002203 447.81244 464.89142
482.0 0.002075 447.80908 464.11526
451.0 0.002217 447.80579 463.37866
424.0 0.002358 447.80237 462.68051
462.0 0.002165 447.79901 462.02032
466.0 0.002146 447.79572 461.39703
453.0 0.002208 447.79233 460.80988
461.0 0.002169 447.78900 460.25763
453.0 0.002208 447.78580 459.73981
436.0 0.002294 447.78244 459.25488
438.0 0.002283 447.77905 458.80209
439.0 0.002278 447.77582 458.38043
457.0 0.002188 447.77258 457.98886
469.0 0.002132 447.76941 457.62631
455.0 0.002198 447.76608 457.29196
449.0 0.002227 447.76282 456.98474
452.0 0.002212 447.75958 456.70380
441.0 0.002268 447.75635 456.44797
453.0 0.002208 447.75320 456.21683
450.0 0.002222 447.74985 456.00943
436.0 0.002294 447.74667 455.82468
435.0 0.002299 447.74356 455.66254
408.0 0.002451 447.74030 455.52170
410.0 0.002439 447.73724 455.40167
443.0 0.002257 447.73401 455.30219
445.0 0.002247 447.73087 455.22247
440.0 0.002273 447.72772 455.16211
450.0 0.002222 447.72458 455.12079
434.0 0.002304 447.72144 455.09808
439.0 0.002278 447.71823 455.09357
434.0 0.002304 447.71518 455.10724
439.0 0.002278 447.71198 455.13864
450.0 0.002222 447.70895 455.18771
445.0 0.002247 447.70575 455.25421
437.0 0.002288 447.70276 455.33823
445.0 0.002247 447.69965 455.43948
454.0 0.002203 447.69650 455.55807
452.0 0.002212 447.69348 455.69391
463.0 0.002160 447.69043 455.84705
457.0 0.002188 447.68735 456.01752
457.0 0.002188 447.68436 456.20532
446.0 0.002242 447.68134 456.16489
423.0 0.002364 447.67825 456.39011
415.0 0.002410 447.67517 456.63248
456.0 0.002193 447.67227 456.89273
465.0 0.002151 447.66919 457.17020
461.0 0.002169 447.66614 457.46515
441.0 0.002268 447.66315 457.77765
425.0 0.002353 447.66019 458.10767
424.0 0.002358 447.65729 458.45474
429.0 0.002331 447.65427 458.81931
426.0 0.002347 447.65121 459.20078
441.0 0.002268 447.64819 459.59915
475.0 0.002105 447.64539 460.01416
464.0 0.002155 447.64236 460.44540
453.0 0.002208 447.63940 460.89267
451.0 0.002217 447.63641 461.35547
456.0 0.002193 447.63361 461.83344
469.0 0.002132 447.63062 462.32584
460.0 0.002174 447.62762 462.83197
453.0 0.002208 447.62479 463.35129
461.0 0.002169 447.62186 463.88297
430.0 0.002326 447.61899 464.42624
421.0 0.002375 447.61600 464.97995
449.0 0.002227 447.61316 465.54343
441.0 0.002268 447.61023 466.11508
453.0 0.002208 447.60736 466.69421
456.0 0.002193 447.60443 467.27924
444.0 0.002252 447.60159 467.86899
453.0 0.002208 447.59866 468.46176
476.0 0.002101 447.59592 469.05630
457.0 0.002188 447.59299 469.65085
472.0 0.002119 447.59009 470.24374
475.0 0.002105 447.58722 470.83316
471.0 0.002123 447.58447 471.41736
467.0 0.002141 447.58154 471.99423
457.0 0.002188 447.57877 472.56201
462.0 0.002165 447.57593 473.11853
472.0 0.002119 447.57306 473.66159
464.0 0.002155 447.57016 474.18924
462.0 0.002165 447.56744 474.69919
470.0 0.002128 447.56467 475.18951
440.0 0.002273 447.56183 475.65765
423.0 0.002364 447.55893 476.10168
453.0 0.002208 447.55618 476.51956
462.0 0.002165 447.55341 476.90897
469.0 0.002132 447.55057 477.26813
465.0 0.002151 447.54782 477.59518
466.0 0.002146 447.54498 477.88846
470.0 0.002128 447.54221 478.14630
458.0 0.002183 447.53940 478.36755
461.0 0.002169 447.53659 478.55096
469.0 0.002132 447.53378 478.69547
462.0 0.002165 447.53110 478.80084
435.0 0.002299 447.52832 478.86639
438.0 0.002283 447.52548 478.89212
464.0 0.002155 447.52271 478.87811
477.0 0.002096 447.52005 478.82513
483.0 0.002070 447.51733 478.73383
469.0 0.002132 447.51459 478.60513
457.0 0.002188 447.51178 478.44058
472.0 0.002119 447.50900 478.24146
440.0 0.002273 447.50620 478.00992
427.0 0.002342 447.50348 477.74747
462.0 0.002165 447.50082 477.45676
484.0 0.002066 447.49805 477.13959
475.0 0.002105 447.49524 476.79877
464.0 0.002155 447.49249 476.43661
459.0 0.002179 447.48984 476.05579
466.0 0.002146 447.48697 475.65897
449.0 0.002227 447.48428 475.24866
450.0 0.002222 447.48166 474.82785
467.0 0.002141 447.47888 474.39877
466.0 0.002146 447.47610 473.96445
453.0 0.002208 447.47333 473.52731
454.0 0.002203 447.47064 473.09018
461.0 0.002169 447.46796 472.65543
467.0 0.002141 447.46521 472.22565
470.0 0.002128 447.46252 471.80331
469.0 0.002132 447.45987 471.39075
469.0 0.002132 447.45712 470.99042
471.0 0.002123 447.45447 470.60434
442.0 0.002262 447.45175 470.23499
428.0 0.002336 447.44897 469.88452
459.0 0.002179 447.44635 469.55499
460.0 0.002174 447.44363 469.24823
462.0 0.002165 447.44086 468.96649
462.0 0.002165 447.43820 468.71133
472.0 0.002119 447.43549 468.48462
468.0 0.002137 447.43289 468.28836
470.0 0.002128 447.42999 467.50235
463.0 0.002160 447.42734 467.37796
492.0 0.002033 447.42468 467.28845
492.0 0.002033 447.42200 467.23547
472.0 0.002119 447.41928 467.22000
456.0 0.002193 447.41653 467.24338
444.0 0.002252 447.41379 467.30682
454.0 0.002203 447.41113 467.41135
487.0 0.002053 447.40842 467.55807
476.0 0.002101 447.40585 467.74762
468.0 0.002137 447.40295 467.98105
471.0 0.002123 447.40036 468.25894
443.0 0.002257 447.39771 468.58191
434.0 0.002304 447.39499 468.95044
484.0 0.002066 447.39233 469.36481
488.0 0.002049 447.38965 469.82523
517.0 0.001934 447.38693 470.33228
496.0 0.002016 447.38431 470.88562
488.0 0.002049 447.38153 471.48532
504.0 0.001984 447.37885 472.13104
493.0 0.002028 447.37616 472.82242
475.0 0.002105 447.37354 473.55933
509.0 0.001965 447.37076 474.34094
499.0 0.002004 447.36798 475.16644
484.0 0.002066 447.36533 476.03506
479.0 0.002088 447.36270 476.94592
481.0 0.002079 447.35999 477.89774
484.0 0.002066 447.35727 478.88934
498.0 0.002008 447.35461 479.91913
490.0 0.002041 447.35184 480.98553
508.0 0.001969 447.34918 482.08694
501.0 0.001996 447.34650 483.22122
478.0 0.002092 447.34378 484.38660
463.0 0.002160 447.34103 485.58066
500.0 0.002000 447.33826 486.80093
515.0 0.001942 447.33563 488.04514
531.0 0.001883 447.33295 489.31027
537.0 0.001862 447.33023 490.59357
521.0 0.001919 447.32758 491.89191
540.0 0.001852 447.32480 493.20197
527.0 0.001898 447.32214 494.52032
524.0 0.001908 447.31931 495.84341
534.0 0.001873 447.31665 497.16736
531.0 0.001883 447.31384 498.48840
527.0 0.001898 447.31125 499.80225
517.0 0.001934 447.30853 501.10437
513.0 0.001949 447.30579 502.39075
516.0 0.001938 447.30292 503.65637
533.0 0.001876 447.30035 504.89682
547.0 0.001828 447.29764 506.10693
530.0 0.001887 447.29477 507.28207
528.0 0.001894 447.29205 508.41678
497.0 0.002012 447.28931 509.50626
494.0 0.002024 447.28662 510.54526
536.0 0.001866 447.28384 511.52899
525.0 0.001905 447.28116 512.45209
515.0 0.001942 447.27829 513.30981
517.0 0.001934 447.27554 514.09760
525.0 0.001905 447.27289 514.81091
545.0 0.001835 447.27008 515.44543
529.0 0.001890 447.26736 515.99738
521.0 0.001919 447.26456 516.46320
545.0 0.001835 447.26187 516.84003
543.0 0.001842 447.25916 517.12531
533.0 0.001876 447.25632 517.49524
516.0 0.001938 447.25345 517.59338
513.0 0.001949 447.25070 517.59583
503.0 0.001988 447.24792 517.50208
505.0 0.001980 447.24518 517.31256
522.0 0.001916 447.24234 517.02869
502.0 0.001992 447.23944 516.65143
512.0 0.001953 447.23682 516.18353
480.0 0.002083 447.23404 515.62744
459.0 0.002179 447.23120 514.98621
498.0 0.002008 447.22839 514.26349
510.0 0.001961 447.22559 513.46350
513.0 0.001949 447.22284 512.59015
491.0 0.002037 447.21994 511.64819
473.0 0.002114 447.21729 510.64227
485.0 0.002062 447.21442 509.57733
465.0 0.002151 447.21158 508.45831
461.0 0.002169 447.20889 507.29016
488.0 0.002049 447.20599 506.07788
481.0 0.002079 447.20309 504.82645
460.0 0.002174 447.20016 503.54077
445.0 0.002247 447.19751 502.22537
455.0 0.002198 447.19458 500.88513
456.0 0.002193 447.19177 499.52435
487.0 0.002053 447.18890 498.14734
467.0 0.002141 447.18600 496.75842
458.0 0.002183 447.18323 495.36145
470.0 0.002128 447.18036 493.95993
445.0 0.002247 447.17734 492.55780
436.0 0.002294 447.17453 491.15823
465.0 0.002151 447.17169 489.76459
466.0 0.002146 447.16891 488.37943
482.0 0.002075 447.16586 487.00601
472.0 0.002119 447.16299 485.64661
454.0 0.002203 447.16022 484.30380
461.0 0.002169 447.15723 482.97983
445.0 0.002247 447.15448 481.67664
437.0 0.002288 447.15137 480.39603
462.0 0.002165 447.14853 479.14011
467.0 0.002141 447.14563 477.90982
464.0 0.002155 447.14267 476.70697
451.0 0.002217 447.13974 475.53241
445.0 0.002247 447.13687 474.38757
447.0 0.002237 447.13394 473.27313
455.0 0.002198 447.13095 472.19000
456.0 0.002193 447.12805 471.13846
452.0 0.002212 447.12515 470.11942
459.0 0.002179 447.12219 469.13293
424.0 0.002358 447.11914 468.17929
414.0 0.002415 447.11618 467.25864
450.0 0.002222 447.11322 466.37106
467.0 0.002141 447.11029 465.51630
468.0 0.002137 447.10727 464.69424
453.0 0.002208 447.10434 463.90454
453.0 0.002208 447.10129 463.14688
449.0 0.002227 447.09827 462.42090
433.0 0.002309 447.09537 461.72598
437.0 0.002288 447.09235 461.06146
459.0 0.002179 447.08932 460.42676
459.0 0.002179 447.08627 459.82129
441.0 0.002268 447.08331 459.24420
431.0 0.002320 447.08029 458.69485
447.0 0.002237 447.07724 458.17227
438.0 0.002283 447.07413 457.67569
442.0 0.002262 447.07111 457.20428
456.0 0.002193 447.06812 456.75714
446.0 0.002242 447.06506 456.33316
454.0 0.002203 447.06195 455.93198
421.0 0.002375 447.05890 455.55222
403.0 0.002481 447.05585 455.19321
427.0 0.002342 447.05286 454.85397
437.0 0.002288 447.04968 454.53360
457.0 0.002188 447.04651 454.23129
445.0 0.002247 447.04349 453.94626
437.0 0.002288 447.04041 453.67767
442.0 0.002262 447.03723 453.42441
418.0 0.002392 447.03409 453.18607
412.0 0.002427 447.03098 452.96149
439.0 0.002278 447.02786 452.75024
440.0 0.002273 447.02472 452.55151
450.0 0.002222 447.02158 452.36456
439.0 0.002278 447.01849 451.95206
433.0 0.002309 447.01532 451.78900
428.0 0.002336 447.01224 451.63599
439.0 0.002278 447.00894 451.49200
427.0 0.002342 447.00586 451.35678
432.0 0.002315 447.00266 451.22964
438.0 0.002283 446.99942 451.11011
411.0 0.002433 446.99637 450.99753
412.0 0.002427 446.99313 450.89178
442.0 0.002262 446.98987 450.79227
441.0 0.002268 446.98672 450.69846
443.0 0.002257 446.98343 450.61029
445.0 0.002247 446.98022 450.52716
437.0 0.002288 446.97696 450.44879
435.0 0.002299 446.97375 450.37476
427.0 0.002342 446.97055 450.30496
426.0 0.002347 446.96725 450.23920
434.0 0.002304 446.96396 450.17697
453.0 0.002208 446.96078 450.11804
444.0 0.002252 446.95746 450.06247
430.0 0.002326 446.95413 450.00980
433.0 0.002309 446.95084 449.96002
431.0 0.002320 446.94745 449.91278
444.0 0.002252 446.94418 449.86798
444.0 0.002252 446.94092 449.82562
443.0 0.002257 446.93759 449.78552
448.0 0.002232 446.93439 449.74744
430.0 0.002326 446.93094 449.71130
419.0 0.002387 446.92764 449.67719
454.0 0.002203 446.92426 449.64487
458.0 0.002183 446.92099 449.61420
454.0 0.002203 446.91760 449.58514
447.0 0.002237 446.91415 449.55768
435.0 0.002299 446.91092 449.53189
440.0 0.002273 446.90750 449.50748
433.0 0.002309 446.90408 449.48453
432.0 0.002315 446.90067 449.46313
461.0 0.002169 446.89731 449.44318
457.0 0.002188 446.89389 449.42444
439.0 0.002278 446.89047 449.40729
442.0 0.002262 446.88690 449.39130
426.0 0.002347 446.88361 449.37698
443.0 0.002257 446.88007 449.36392
461.0 0.002169 446.87665 449.35236
457.0 0.002188 446.87329 449.34210
452.0 0.002212 446.86969 449.33337
438.0 0.002283 446.86627 449.32632
411.0 0.002433 446.86279 449.32077
413.0 0.002421 446.85934 449.31665
432.0 0.002315 446.85574 449.31439
447.0 0.002237 446.85229 449.31384
451.0 0.002217 446.84882 449.31503
455.0 0.002198 446.84531 449.31821
467.0 0.002141 446.84180 449.32349
457.0 0.002188 446.83810 449.33066
445.0 0.002247 446.83463 449.34012
445.0 0.002247 446.83118 449.35184
450.0 0.002222 446.82755 449.36600
454.0 0.002203 446.82394 449.38297
443.0 0.002257 446.82037 449.40244
442.0 0.002262 446.81674 449.42484
445.0 0.002247 446.81326 449.45032
440.0 0.002273 446.80969 449.47897
454.0 0.002203 446.80606 449.51117
458.0 0.002183 446.80243 449.54688
449.0 0.002227 446.79877 449.58652
456.0 0.002193 446.79514 449.63016
439.0 0.002278 446.79153 449.67807
421.0 0.002375 446.78784 449.73047
453.0 0.002208 446.78421 449.78772
452.0 0.002212 446.78061 449.85007
443.0 0.002257 446.77686 449.91766
428.0 0.002336 446.77322 449.99081
442.0 0.002262 446.76947 450.07004
451.0 0.002217 446.76581 450.15536
431.0 0.002320 446.76205 450.24713
429.0 0.002331 446.75842 450.41464
458.0 0.002183 446.75467 450.52118
462.0 0.002165 446.75085 450.63525
444.0 0.002252 446.74716 450.75711
431.0 0.002320 446.74338 450.88712
439.0 0.002278 446.73956 451.02557
448.0 0.002232 446.73584 451.17276
460.0 0.002174 446.73209 451.32941
462.0 0.002165 446.72833 451.49539
466.0 0.002146 446.72455 451.67108
492.0 0.002033 446.72073 451.85709
446.0 0.002242 446.71695 452.05350
430.0 0.002326 446.71310 452.26059
457.0 0.002188 446.70929 452.47876
453.0 0.002208 446.70532 452.70828
459.0 0.002179 446.70157 452.94934
465.0 0.002151 446.69766 453.20227
451.0 0.002217 446.69394 453.46716
450.0 0.002222 446.68994 453.74408
447.0 0.002237 446.68600 454.03342
437.0 0.002288 446.68219 454.33545
468.0 0.002137 446.67841 454.64972
483.0 0.002070 446.67441 454.97684
484.0 0.002066 446.67056 455.31650
483.0 0.002070 446.66656 455.66870
468.0 0.002137 446.66260 456.03372
455.0 0.002198 446.65872 456.41089
469.0 0.002132 446.65466 456.80032
483.0 0.002070 446.65070 457.20203
478.0 0.002092 446.64682 457.61560
469.0 0.002132 446.64273 458.04050
449.0 0.002227 446.63892 458.47662
438.0 0.002283 446.63486 458.92349
468.0 0.002137 446.63080 459.38046
469.0 0.002132 446.62686 459.84717
469.0 0.002132 446.62283 460.32294
464.0 0.002155 446.61871 460.80707
476.0 0.002101 446.61469 461.29895
476.0 0.002101 446.61069 461.79770
466.0 0.002146 446.60663 462.30222
456.0 0.002193 446.60254 462.81192
473.0 0.002114 446.59848 463.32544
478.0 0.002092 446.59436 463.84213
478.0 0.002092 446.59024 464.36047
467.0 0.002141 446.58618 464.87939
474.0 0.002110 446.58206 465.39752
480.0 0.002083 446.57788 465.91360
501.0 0.001996 446.57379 466.42624
506.0 0.001976 446.56976 466.93381
488.0 0.002049 446.56558 467.43481
494.0 0.002024 446.56134 467.92755
481.0 0.002079 446.55713 468.41052
454.0 0.002203 446.55304 468.88196
489.0 0.002045 446.54877 469.33987
498.0 0.002008 446.54462 469.78265
492.0 0.002033 446.54037 470.20856
489.0 0.002045 446.53604 470.61563
485.0 0.002062 446.53198 471.00198
486.0 0.002058 446.52765 471.36594
476.0 0.002101 446.52344 471.70572
473.0 0.002114 446.51920 472.01950
500.0 0.002000 446.51505 472.30566
538.0 0.001859 446.51065 472.56256
515.0 0.001942 446.50644 472.78900
497.0 0.002012 446.50201 472.98328
500.0 0.002000 446.49780 473.14462
492.0 0.002033 446.49353 473.27185
503.0 0.001988 446.48917 473.36407
489.0 0.002045 446.48483 473.42084
496.0 0.002016 446.48056 473.44162
500.0 0.002000 446.47614 473.42630
472.0 0.002119 446.47186 472.87411
466.0 0.002146 446.46738 472.79135
486.0 0.002058 446.46304 472.67325
500.0 0.002000 446.45862 472.52057
502.0 0.001992 446.45416 472.33401
485.0 0.002062 446.44992 472.11496
469.0 0.002132 446.44537 471.86447
502.0 0.001992 446.44098 471.58414
493.0 0.002028 446.43665 471.27527
482.0 0.002075 446.43219 470.93976
500.0 0.002000 446.42770 470.57913
492.0 0.002033 446.42319 470.19528
489.0 0.002045 446.41879 469.78989
469.0 0.002132 446.41425 469.36517
480.0 0.002083 446.40979 468.92273
490.0 0.002041 446.40527 468.46445
507.0 0.001972 446.40073 467.99237
501.0 0.001996 446.39630 467.50809
490.0 0.002041 446.39182 467.01349
496.0 0.002016 446.38721 466.51035
464.0 0.002155 446.38263 466.00027
448.0 0.002232 446.37802 465.48502
466.0 0.002146 446.37354 464.96609
479.0 0.002088 446.36896 464.44485
495.0 0.002020 446.36432 463.92303
488.0 0.002049 446.35980 463.40170
482.0 0.002075 446.35513 462.88239
480.0 0.002083 446.35056 462.84045
472.0 0.002119 446.34592 462.33276
472.0 0.002119 446.34134 461.83060
480.0 0.002083 446.33661 461.33487
496.0 0.002016 446.33203 460.84668
487.0 0.002053 446.32745 460.36682
469.0 0.002132 446.32263 459.89621
475.0 0.002105 446.31799 459.43573
480.0 0.002083 446.31329 458.98578
488.0 0.002049 446.30853 458.54718
485.0 0.002062 446.30392 458.12064
475.0 0.002105 446.29913 457.70654
483.0 0.002070 446.29443 457.30545
459.0 0.002179 446.28973 456.91776
441.0 0.002268 446.28491 456.54373
469.0 0.002132 446.28015 456.18378
471.0 0.002123 446.27548 455.83820
472.0 0.002119 446.27072 455.50723
465.0 0.002151 446.26581 455.19110
456.0 0.002193 446.26108 454.88971
458.0 0.002183 446.25626 454.60333
445.0 0.002247 446.25137 454.33203
447.0 0.002237 446.24664 454.07571
467.0 0.002141 446.24188 453.83447
468.0 0.002137 446.23694 453.60800
446.0 0.002242 446.23206 453.39664
437.0 0.002288 446.22720 453.19989
439.0 0.002278 446.22235 453.01776
458.0 0.002183 446.21759 452.85004
468.0 0.002137 446.21249 452.69647
465.0 0.002151 446.20764 452.55704
476.0 0.002101 446.20273 452.43127
495.0 0.002020 446.19778 452.31912
452.0 0.002212 446.19287 452.21997
439.0 0.002278 446.18793 452.13394
460.0 0.002174 446.18307 452.06052
466.0 0.002146 446.17807 451.99924
472.0 0.002119 446.17310 451.94998
482.0 0.002075 446.16800 451.91241
471.0 0.002123 446.16309 451.88583
469.0 0.002132 446.15823 451.87018
463.0 0.002160 446.15323 451.86493
457.0 0.002188 446.14810 451.86987
480.0 0.002083 446.14322 451.88446
482.0 0.002075 446.13812 451.90814
473.0 0.002114 446.13306 451.94070
468.0 0.002137 446.12799 451.98169
457.0 0.002188 446.12299 452.03064
470.0 0.002128 446.11780 452.08701
486.0 0.002058 446.11288 452.15054
479.0 0.002088 446.10767 452.22058
472.0 0.002119 446.10260 452.29672
478.0 0.002092 446.09753 452.37857
457.0 0.002188 446.09238 452.46552
438.0 0.002283 446.08722 452.55704
474.0 0.002110 446.08200 452.65277
481.0 0.002079 446.07697 452.75232
480.0 0.002083 446.07181 452.85486
471.0 0.002123 446.06665 452.95999
464.0 0.002155 446.06149 453.06702
466.0 0.002146 446.05627 453.17569
477.0 0.002096 446.05103 453.28552
473.0 0.002114 446.04587 453.39572
494.0 0.002024 446.04074 453.50555
505.0 0.001980 446.03540 453.61472
498.0 0.002008 446.03018 453.72256
507.0 0.001972 446.02496 453.82864
491.0 0.002037 446.01978 453.93228
519.0 0.001927 446.01450 454.03278
517.0 0.001934 446.00919 454.12949
512.0 0.001953 446.00397 454.22220
522.0 0.001916 445.99869 454.31018
534.0 0.001873 445.99338 454.39285
493.0 0.002028 445.98810 454.46964
497.0 0.002012 445.98273 454.54001
541.0 0.001848 445.97745 454.60355
558.0 0.001792 445.97211 454.65994
547.0 0.001828 445.96680 454.70871
547.0 0.001828 445.96133 454.74927
544.0 0.001838 445.95609 454.78171
553.0 0.001808 445.95062 454.80527
537.0 0.001862 445.94537 454.82019
541.0 0.001848 445.93991 454.82614
564.0 0.001773 445.93457 454.82300
566.0 0.001767 445.92914 454.81104
550.0 0.001818 445.92374 454.78973
543.0 0.001842 445.91827 454.75964
541.0 0.001848 445.91278 454.72083
542.0 0.001845 445.90738 454.67349
564.0 0.001773 445.90195 454.66714
560.0 0.001786 445.89658 454.60403
551.0 0.001815 445.89102 454.53333
558.0 0.001792 445.88550 454.45538
533.0 0.001876 445.88010 454.37079
524.0 0.001908 445.87451 454.27988
546.0 0.001832 445.86911 454.37988
530.0 0.001887 445.86359 454.27997
535.0 0.001869 445.85806 454.17535
529.0 0.001890 445.85242 454.06631
517.0 0.001934 445.84695 453.95377
512.0 0.001953 445.84131 453.83771
501.0 0.001996 445.83572 453.71899
497.0 0.002012 445.83029 453.59814
500.0 0.002000 445.82477 453.47549
507.0 0.001972 445.81909 453.35147
498.0 0.002008 445.81351 453.22668
509.0 0.001965 445.80783 453.10168
496.0 0.002016 445.80240 454.89078
509.0 0.001965 445.79669 454.78299
500.0 0.002000 445.79105 454.67636
486.0 0.002058 445.78546 454.57117
488.0 0.002049 445.77975 454.46799
483.0 0.002070 445.77426 454.36713
453.0 0.002208 445.76852 454.26865
440.0 0.002273 445.76276 454.17340
463.0 0.002160 445.75711 454.08133
466.0 0.002146 445.75146 453.99313
481.0 0.002079 445.74570 453.90851
483.0 0.002070 445.74002 453.82831
458.0 0.002183 445.73431 453.75250
472.0 0.002119 445.72855 453.68161
466.0 0.002146 445.72293 453.61563
484.0 0.002066 445.71707 453.55493
487.0 0.002053 445.71130 453.49985
490.0 0.002041 445.70563 453.45065
462.0 0.002165 445.69989 453.40726
473.0 0.002114 445.69403 453.37030
463.0 0.002160 445.68829 453.33969
467.0 0.002141 445.68246 453.31589
470.0 0.002128 445.67670 453.29910
476.0 0.002101 445.67096 453.28940
467.0 0.002141 445.66504 453.28720
496.0 0.002016 445.65927 453.29257
439.0 0.002278 445.65344 453.30594
422.0 0.002370 445.64749 453.32751
464.0 0.002155 445.64175 453.35739
467.0 0.002141 445.63586 453.39594
461.0 0.002169 445.62991 453.44345
449.0 0.002227 445.62408 453.50034
434.0 0.002304 445.61832 453.56674
441.0 0.002268 445.61234 453.64301
439.0 0.002278 445.60651 453.72946
425.0 0.002353 445.60049 453.82645
453.0 0.002208 445.59470 453.93442
459.0 0.002179 445.58878 454.05365
443.0 0.002257 445.58276 454.18454
440.0 0.002273 445.57687 454.32751
444.0 0.002252 445.57092 454.48309
432.0 0.002315 445.56500 454.65158
438.0 0.002283 445.55902 454.83347
441.0 0.002268 445.55301 455.02930
443.0 0.002257 445.54700 455.23962
440.0 0.002273 445.54095 455.46484
419.0 0.002387 445.53497 455.70532
416.0 0.002404 445.52902 455.96204
436.0 0.002294 445.52301 456.23526
452.0 0.002212 445.51700 456.52557
459.0 0.002179 445.51093 456.83359
457.0 0.002188 445.50494 457.15985
459.0 0.002179 445.49887 457.50504
458.0 0.002183 445.49283 457.86978
445.0 0.002247 445.48679 458.25446
443.0 0.002257 445.48068 458.65985
453.0 0.002208 445.47461 459.08649
459.0 0.002179 445.46851 459.53494
454.0 0.002203 445.46249 460.00565
452.0 0.002212 445.45639 460.49939
453.0 0.002208 445.45023 461.01663
461.0 0.002169 445.44412 461.55780
466.0 0.002146 445.43808 462.12347
466.0 0.002146 445.43195 462.71399
451.0 0.002217 445.42575 463.32986
454.0 0.002203 445.41968 463.97159
428.0 0.002336 445.41348 464.63928
433.0 0.002309 445.40735 465.33325
459.0 0.002179 445.40112 466.05365
454.0 0.002203 445.39493 466.80115
469.0 0.002132 445.38876 467.57535
470.0 0.002128 445.38257 468.37653
459.0 0.002179 445.37643 469.20477
469.0 0.002132 445.37021 470.05978
455.0 0.002198 445.36395 470.94159
451.0 0.002217 445.35779 471.84982
485.0 0.002062 445.35150 472.78439
488.0 0.002049 445.34528 473.74475
480.0 0.002083 445.33905 474.73035
484.0 0.002066 445.33289 475.74084
488.0 0.002049 445.32660 476.77530
474.0 0.002110 445.32037 477.83313
466.0 0.002146 445.31412 478.91339
468.0 0.002137 445.30777 480.01511
464.0 0.002155 445.30151 481.13730
467.0 0.002141 445.29523 482.27872
433.0 0.002309 445.28891 483.43805
421.0 0.002375 445.28253 484.61371
464.0 0.002155 445.27628 485.80447
471.0 0.002123 445.27002 487.00870
476.0 0.002101 445.26370 488.04523
466.0 0.002146 445.25732 489.27219
452.0 0.002212 445.25098 490.50665
453.0 0.002208 445.24466 491.74680
443.0 0.002257 445.23822 492.99017
442.0 0.002262 445.23196 494.23441
488.0 0.002049 445.22556 495.47720
482.0 0.002075 445.21921 496.71555
469.0 0.002132 445.21283 497.94708
448.0 0.002232 445.20648 499.16901
473.0 0.002114 445.20004 502.23013
470.0 0.002128 445.19366 503.43982
474.0 0.002110 445.18716 504.63095
480.0 0.002083 445.18088 505.80054
481.0 0.002079 445.17444 506.94519
480.0 0.002083 445.16800 508.06183
448.0 0.002232 445.16150 509.14728
447.0 0.002237 445.15518 510.19858
473.0 0.002114 445.14862 511.21216
486.0 0.002058 445.14218 512.18561
481.0 0.002079 445.13577 513.11572
482.0 0.002075 445.12927 514.00006
486.0 0.002058 445.12271 514.83612
472.0 0.002119 445.11642 515.62177
475.0 0.002105 445.10986 516.35510
477.0 0.002096 445.10336 517.03448
501.0 0.001996 445.09686 517.65894
500.0 0.002000 445.09039 518.22748
467.0 0.002141 445.08389 518.73975
460.0 0.002174 445.07733 519.19598
464.0 0.002155 445.07086 519.59650
479.0 0.002088 445.06421 519.94226
479.0 0.002088 445.05774 520.23462
492.0 0.002033 445.05127 520.47540
507.0 0.001972 445.04462 520.66675
502.0 0.001992 445.03809 520.81140
457.0 0.002188 445.03159 520.91199
441.0 0.002268 445.02499 520.97211
458.0 0.002183 445.01843 520.99487
474.0 0.002110 445.01190 520.98425
479.0 0.002088 445.00531 520.94427
484.0 0.002066 444.99872 520.87878
489.0 0.002045 444.99207 520.79236
497.0 0.002012 444.98547 520.68878
485.0 0.002062 444.97882 520.57306
487.0 0.002053 444.97232 520.44916
496.0 0.002016 444.96567 520.32159
495.0 0.002020 444.95908 520.19458
496.0 0.002016 444.95242 520.07245
496.0 0.002016 444.94577 519.95953
506.0 0.001976 444.93915 519.85986
505.0 0.001980 444.93256 519.77747
520.0 0.001923 444.92584 519.71637
511.0 0.001957 444.91919 519.68030
506.0 0.001976 444.91260 519.67303
509.0 0.001965 444.90588 519.69818
479.0 0.002088 444.89920 519.75903
473.0 0.002114 444.89240 519.85919
515.0 0.001942 444.88580 520.00189
517.0 0.001934 444.87921 520.19012
523.0 0.001912 444.87250 520.42682
530.0 0.001887 444.86572 520.71490
504.0 0.001984 444.85898 521.05750
510.0 0.001961 444.85239 521.45667
494.0 0.002024 444.84570 521.91522
522.0 0.001916 444.83890 522.43579
552.0 0.001812 444.83218 522.95154
553.0 0.001808 444.82556 523.60333
528.0 0.001894 444.81870 524.32379
532.0 0.001880 444.81198 525.11462
544.0 0.001838 444.80524 525.97827
546.0 0.001832 444.79843 526.91675
559.0 0.001789 444.79166 527.93152
564.0 0.001773 444.78491 529.02460
553.0 0.001808 444.77823 530.19794
564.0 0.001773 444.77145 531.45306
524.0 0.001908 444.76465 532.79187
523.0 0.001912 444.75787 534.21582
553.0 0.001808 444.75107 535.72687
569.0 0.001757 444.74438 537.32629
582.0 0.001718 444.73755 539.01569
588.0 0.001701 444.73074 540.79651
575.0 0.001739 444.72394 542.67017
584.0 0.001712 444.71713 544.63800
574.0 0.001742 444.71033 546.70117
568.0 0.001761 444.70346 548.86047
585.0 0.001709 444.69666 551.11707
587.0 0.001704 444.68985 553.47137
564.0 0.001773 444.68292 555.92377
563.0 0.001776 444.67624 558.47461
583.0 0.001715 444.66928 561.12378
607.0 0.001647 444.66248 563.87061
624.0 0.001603 444.65561 566.71448
613.0 0.001631 444.64877 569.65442
587.0 0.001704 444.64188 572.68866
592.0 0.001689 444.63507 575.81537
571.0 0.001751 444.62820 579.03223
583.0 0.001715 444.62131 582.33655
633.0 0.001580 444.61444 585.72473
619.0 0.001616 444.60764 589.19336
611.0 0.001637 444.60068 592.73804
610.0 0.001639 444.59375 596.35406
611.0 0.001637 444.58682 600.03607
608.0 0.001645 444.57999 603.77850
598.0 0.001672 444.57309 607.57483
604.0 0.001656 444.56631 611.41815
646.0 0.001548 444.55930 615.30145
651.0 0.001536 444.55237 619.21643
625.0 0.001600 444.54559 623.15466
626.0 0.001597 444.53857 627.10706
627.0 0.001595 444.53165 631.06415
629.0 0.001590 444.52463 635.01581
632.0 0.001582 444.51779 638.95166
633.0 0.001580 444.51089 642.85999
625.0 0.001600 444.50385 646.72961
634.0 0.001577 444.49704 650.54828
641.0 0.001560 444.48999 654.30353
593.0 0.001686 444.48315 657.98236
651.0 0.001536 444.47614 661.57153
687.0 0.001456 444.46921 665.05743
688.0 0.001453 444.46219 668.42639
664.0 0.001506 444.45532 671.66431
661.0 0.001513 444.44827 674.75751
672.0 0.001488 444.44135 677.69183
656.0 0.001524 444.43439 680.45361
641.0 0.001560 444.42746 683.02954
656.0 0.001524 444.42050 685.40656
645.0 0.001550 444.41336 687.57202
636.0 0.001572 444.40649 689.51434
636.0 0.001572 444.39948 691.22284
629.0 0.001590 444.39252 692.68781
640.0 0.001563 444.38559 693.90057
641.0 0.001560 444.37848 694.85352
652.0 0.001534 444.37152 695.54114
642.0 0.001558 444.36444 695.95917
660.0 0.001515 444.35745 696.10468
617.0 0.001621 444.35052 699.72711
599.0 0.001669 444.34348 699.35931
614.0 0.001629 444.33643 698.72180
625.0 0.001600 444.32941 697.81842
632.0 0.001582 444.32245 696.65552
638.0 0.001567 444.31531 695.24036
638.0 0.001567 444.30829 693.58179
633.0 0.001580 444.30127 691.69043
639.0 0.001565 444.29422 689.57733
627.0 0.001595 444.28720 687.25537
640.0 0.001563 444.28009 684.73816
642.0 0.001558 444.27307 682.04022
633.0 0.001580 444.26605 679.17627
632.0 0.001582 444.25909 676.16211
634.0 0.001577 444.25198 673.01318
616.0 0.001623 444.24493 669.74603
642.0 0.001558 444.23785 666.37646
651.0 0.001536 444.23087 662.92078
659.0 0.001517 444.22382 659.39532
654.0 0.001529 444.21671 655.81549
627.0 0.001595 444.20956 652.19751
605.0 0.001653 444.20248 648.55621
624.0 0.001603 444.19543 644.90686
620.0 0.001613 444.18845 641.26422
611.0 0.001637 444.18140 637.64240
618.0 0.001618 444.17422 634.05518
633.0 0.001580 444.16718 630.51575
633.0 0.001580 444.16016 627.03735
592.0 0.001689 444.15302 623.63214
598.0 0.001672 444.14606 620.31213
613.0 0.001631 444.13879 617.08868
617.0 0.001621 444.13184 613.97302
606.0 0.001650 444.12479 610.97522
609.0 0.001642 444.11758 608.10553
593.0 0.001686 444.11047 605.37323
602.0 0.001661 444.10345 602.78754
603.0 0.001658 444.09637 600.35675
595.0 0.001681 444.08920 598.08868
578.0 0.001730 444.08206 595.99121
582.0 0.001718 444.07498 594.07080
573.0 0.001745 444.06790 592.33392
583.0 0.001715 444.06079 590.78662
631.0 0.001585 444.05365 589.43408
630.0 0.001587 444.04651 588.28119
616.0 0.001623 444.03940 587.33179
600.0 0.001667 444.03232 586.58997
589.0 0.001698 444.02521 586.05859
599.0 0.001669 444.01797 585.74011
589.0 0.001698 444.01099 585.63660
572.0 0.001748 444.00397 585.74945
602.0 0.001661 443.99673 586.07916
604.0 0.001656 443.98959 586.62610
590.0 0.001695 443.98251 587.38983
565.0 0.001770 443.97540 588.36914
566.0 0.001767 443.96823 589.56250
573.0 0.001745 443.96109 590.96753
590.0 0.001695 443.95389 592.58154
617.0 0.001621 443.94678 594.40088
616.0 0.001623 443.93976 596.42145
590.0 0.001695 443.93256 598.63861
567.0 0.001764 443.92535 601.04675
568.0 0.001761 443.91824 603.64032
589.0 0.001698 443.91104 606.41235
589.0 0.001698 443.90402 609.35596
609.0 0.001642 443.89682 612.46307
609.0 0.001642 443.88965 615.72552
609.0 0.001642 443.88254 619.13428
611.0 0.001637 443.87543 622.67950
610.0 0.001639 443.86826 626.35114
589.0 0.001698 443.86118 630.13837
612.0 0.001634 443.85403 634.02954
632.0 0.001582 443.84683 638.01294
625.0 0.001600 443.83963 642.07581
605.0 0.001653 443.83249 646.20514
590.0 0.001695 443.82538 650.38715
601.0 0.001664 443.81821 654.60742
651.0 0.001536 443.81110 658.85132
629.0 0.001590 443.80396 663.10327
616.0 0.001623 443.79675 667.34753
648.0 0.001543 443.78958 671.56787
593.0 0.001686 443.78238 675.74731
584.0 0.001712 443.77530 679.86877
633.0 0.001580 443.76813 683.91486
637.0 0.001570 443.76105 687.86780
642.0 0.001558 443.75378 691.70959
645.0 0.001550 443.74667 695.42206
644.0 0.001553 443.73959 698.98706
658.0 0.001520 443.73230 702.38684
645.0 0.001550 443.72522 705.60376
640.0 0.001563 443.71808 708.62000
677.0 0.001477 443.71091 711.41925
693.0 0.001443 443.70377 713.98511
701.0 0.001427 443.69659 716.30243
681.0 0.001468 443.68942 718.35712
674.0 0.001484 443.68228 720.13599
683.0 0.001464 443.67508 721.62750
704.0 0.001420 443.66791 722.82190
701.0 0.001427 443.66080 723.71051
684.0 0.001462 443.65366 724.28693
707.0 0.001414 443.64642 724.54651
662.0 0.001511 443.63931 724.48639
660.0 0.001515 443.63211 724.10614
699.0 0.001431 443.62497 723.40692
707.0 0.001414 443.61780 722.39191
718.0 0.001393 443.61063 721.06671
702.0 0.001425 443.60342 719.43817
699.0 0.001431 443.59625 717.51526
709.0 0.001410 443.58914 715.30774
683.0 0.001464 443.58200 712.82825
680.0 0.001471 443.57480 710.08917
715.0 0.001399 443.56766 707.10474
705.0 0.001418 443.56049 703.89020
698.0 0.001433 443.55331 700.46106
689.0 0.001451 443.54620 696.83362
662.0 0.001511 443.53903 693.02460
663.0 0.001508 443.53186 689.05090
669.0 0.001495 443.52475 684.92950
667.0 0.001499 443.51758 680.67743
655.0 0.001527 443.51047 676.31134
649.0 0.001541 443.50327 671.37720
632.0 0.001582 443.49612 666.83752
615.0 0.001626 443.48895 662.23297
648.0 0.001543 443.48172 657.57947
646.0 0.001548 443.47461 652.89233
650.0 0.001538 443.46750 648.18604
631.0 0.001585 443.46042 643.47522
631.0 0.001585 443.45313 638.77350
657.0 0.001522 443.44604 634.09454
633.0 0.001580 443.43893 629.45099
629.0 0.001590 443.43176 624.85547
651.0 0.001536 443.42453 620.31970
644.0 0.001553 443.41745 615.85529
628.0 0.001592 443.41025 611.47290
633.0 0.001580 443.40314 607.18359
607.0 0.001647 443.39600 602.99713
601.0 0.001664 443.38885 598.92310
611.0 0.001637 443.38168 594.97083
600.0 0.001667 443.37451 591.14917
610.0 0.001639 443.36743 587.46661
612.0 0.001634 443.36026 583.93127
558.0 0.001792 443.35318 580.55084
545.0 0.001835 443.34592 577.33258
595.0 0.001681 443.33878 574.28375
607.0 0.001647 443.33170 571.41089
610.0 0.001639 443.32458 568.72076
575.0 0.001739 443.31735 566.21936
560.0 0.001786 443.31030 563.91296
566.0 0.001767 443.30304 561.80664
553.0 0.001808 443.29602 559.90625
550.0 0.001818 443.28891 558.21716
583.0 0.001715 443.28177 556.74420
620.0 0.001613 443.27460 555.49231
605.0 0.001653 443.26755 554.46606
579.0 0.001727 443.26035 553.67023
578.0 0.001730 443.25320 553.10889
592.0 0.001689 443.24612 552.78638
587.0 0.001704 443.23901 552.70685
595.0 0.001681 443.23181 552.87408
591.0 0.001692 443.22470 553.29181
602.0 0.001661 443.21759 553.96375
567.0 0.001764 443.21048 554.89343
556.0 0.001799 443.20343 556.08405
583.0 0.001715 443.19626 557.53864
578.0 0.001730 443.18921 559.26044
592.0 0.001689 443.18207 561.25214
589.0 0.001698 443.17499 563.51630
583.0 0.001715 443.16788 566.05530
594.0 0.001684 443.16074 568.87134
591.0 0.001692 443.15369 571.96625
586.0 0.001706 443.14645 575.34161
621.0 0.001610 443.13943 578.99841
622.0 0.001608 443.13235 582.93799
622.0 0.001608 443.12531 587.16077
633.0 0.001580 443.11810 591.66675
633.0 0.001580 443.11102 596.93518
645.0 0.001550 443.10397 602.01154
665.0 0.001504 443.09686 607.36877
690.0 0.001449 443.08981 613.00537
672.0 0.001488 443.08261 618.91846
665.0 0.001504 443.07559 625.10535
638.0 0.001567 443.06851 631.56232
627.0 0.001595 443.06140 638.28510
671.0 0.001490 443.05450 645.26855
700.0 0.001429 443.04724 652.50677
691.0 0.001447 443.04028 659.99335
708.0 0.001412 443.03311 667.72052
718.0 0.001393 443.02600 675.68042
709.0 0.001410 443.01898 683.86359
724.0 0.001381 443.01202 692.25995
708.0 0.001412 443.00482 700.85876
724.0 0.001381 442.99774 709.64783
747.0 0.001339 442.99075 718.61432
721.0 0.001387 442.98373 727.74402
734.0 0.001362 442.97653 737.02228
751.0 0.001332 442.96964 746.43286
766.0 0.001305 442.96249 755.95862
798.0 0.001253 442.95544 765.58148
802.0 0.001247 442.94843 775.28186
810.0 0.001235 442.94144 785.03967
827.0 0.001209 442.93427 794.83331
842.0 0.001188 442.92731 804.64008
824.0 0.001214 442.92029 814.43604
860.0 0.001163 442.91324 824.19684
865.0 0.001156 442.90622 833.89587
889.0 0.001125 442.89911 843.50684
869.0 0.001151 442.89212 853.00134
872.0 0.001147 442.88519 862.35040
878.0 0.001139 442.87811 871.52405
841.0 0.001189 442.87106 880.35059
843.0 0.001186 442.86398 889.08240
862.0 0.001160 442.85703 897.54517
875.0 0.001143 442.85007 905.70630
897.0 0.001115 442.84296 913.53375
884.0 0.001131 442.83591 920.99457
899.0 0.001112 442.82889 928.05670
935.0 0.001070 442.82196 934.68823
974.0 0.001027 442.81494 940.85852
948.0 0.001055 442.80804 946.53711
923.0 0.001083 442.80099 951.69604
942.0 0.001062 442.79391 956.30817
908.0 0.001101 442.78696 960.34937
888.0 0.001126 442.78003 963.79712
906.0 0.001104 442.77298 966.63208
914.0 0.001094 442.76602 968.83789
937.0 0.001067 442.75897 970.40131
939.0 0.001065 442.75208 969.39941
919.0 0.001088 442.74503 969.66937
932.0 0.001073 442.73810 969.27869
948.0 0.001055 442.73111 968.22906
915.0 0.001093 442.72424 966.52588
931.0 0.001074 442.71722 964.17798
918.0 0.001089 442.71036 961.19794
930.0 0.001075 442.70331 957.60175
907.0 0.001103 442.69641 953.40839
909.0 0.001100 442.68936 948.63953
910.0 0.001099 442.68246 943.31952
921.0 0.001086 442.67554 937.47491
930.0 0.001075 442.66858 931.13379
910.0 0.001099 442.66165 924.32587
915.0 0.001093 442.65466 917.08228
890.0 0.001124 442.64761 909.43457
851.0 0.001175 442.64081 901.41510
863.0 0.001159 442.63382 893.05597
868.0 0.001152 442.62698 884.38989
859.0 0.001164 442.61996 875.44891
867.0 0.001153 442.61307 866.26514
862.0 0.001160 442.60608 856.86914
865.0 0.001156 442.59921 847.29169
832.0 0.001202 442.59232 837.56244
799.0 0.001252 442.58542 827.70990
820.0 0.001220 442.57846 817.76147
825.0 0.001212 442.57159 807.74402
806.0 0.001241 442.56479 797.68292
787.0 0.001271 442.55789 787.60248
776.0 0.001289 442.55081 777.52582
754.0 0.001326 442.54410 767.47491
774.0 0.001292 442.53714 757.47046
771.0 0.001297 442.53027 747.53223
758.0 0.001319 442.52338 737.67853
759.0 0.001318 442.51654 727.92706
724.0 0.001381 442.50967 718.29346
698.0 0.001433 442.50278 708.79309
701.0 0.001427 442.49600 699.43976
702.0 0.001425 442.48907 690.24640
728.0 0.001374 442.48212 681.22449
704.0 0.001420 442.47534 672.38489
667.0 0.001499 442.46848 663.73718
661.0 0.001513 442.46170 655.29028
650.0 0.001538 442.45468 647.05139
637.0 0.001570 442.44800 639.02753
650.0 0.001538 442.44107 631.22437
671.0 0.001490 442.43417 623.64685
642.0 0.001558 442.42734 616.29889
612.0 0.001634 442.42056 609.18390
611.0 0.001637 442.41373 602.30396
627.0 0.001595 442.40695 595.66101
658.0 0.001520 442.40015 589.25592
638.0 0.001567 442.39328 583.08887
639.0 0.001565 442.38651 577.15936
644.0 0.001553 442.37961 571.46661
593.0 0.001686 442.37283 566.00891
565.0 0.001770 442.36609 560.78430
595.0 0.001681 442.35910 555.79041
589.0 0.001698 442.35251 551.02393
575.0 0.001739 442.34564 546.48151
568.0 0.001761 442.33893 542.15973
541.0 0.001848 442.33206 538.05408
544.0 0.001838 442.32520 534.16046
542.0 0.001845 442.31854 530.47418
549.0 0.001821 442.31171 526.99054
556.0 0.001799 442.30490 523.70459
574.0 0.001742 442.29828 520.61096
562.0 0.001779 442.29153 517.70441
549.0 0.001821 442.28470 514.97974
536.0 0.001866 442.27786 512.43134
547.0 0.001828 442.27109 510.05389
560.0 0.001786 442.26447 507.84180
531.0 0.001883 442.25769 505.78970
533.0 0.001876 442.25089 503.89194
532.0 0.001880 442.24414 502.14319
508.0 0.001969 442.23737 500.53787
498.0 0.002008 442.23068 499.07077
514.0 0.001946 442.22388 497.73666
509.0 0.001965 442.21722 496.53024
518.0 0.001931 442.21048 495.44659
509.0 0.001965 442.20377 494.48041
505.0 0.001980 442.19711 493.62689
499.0 0.002004 442.19040 492.88120
499.0 0.002004 442.18365 492.23880
517.0 0.001934 442.17700 491.69473
513.0 0.001949 442.17026 491.24466
514.0 0.001946 442.16357 490.88406
500.0 0.002000 442.15686 490.60849
493.0 0.002028 442.15015 490.41391
496.0 0.002016 442.14343 490.29593
507.0 0.001972 442.13669 490.25058
515.0 0.001942 442.13010 490.27371
522.0 0.001916 442.12341 490.36136
514.0 0.001946 442.11673 490.50964
523.0 0.001912 442.11002 490.71466
497.0 0.002012 442.10336 490.97266
475.0 0.002105 442.09674 491.27988
517.0 0.001934 442.09003 491.63239
521.0 0.001919 442.08344 492.02667
530.0 0.001887 442.07675 492.45886
529.0 0.001890 442.07019 491.07346
531.0 0.001883 442.06335 491.58661
556.0 0.001799 442.05679 492.12640
536.0 0.001866 442.05020 492.68936
521.0 0.001919 442.04352 493.27151
540.0 0.001852 442.03687 493.86945
562.0 0.001779 442.03024 494.47919
542.0 0.001845 442.02359 495.09717
522.0 0.001916 442.01703 495.71939
517.0 0.001934 442.01035 496.34247
523.0 0.001912 442.00375 496.96228
541.0 0.001848 441.99707 497.57501
544.0 0.001838 441.99054 498.17700
536.0 0.001866 441.98404 498.76428
545.0 0.001835 441.97736 499.33334
507.0 0.001972 441.97076 504.39203
496.0 0.002016 441.96411 504.96097
544.0 0.001838 441.95758 505.50101
566.0 0.001767 441.95099 506.00851
561.0 0.001783 441.94449 506.47995
553.0 0.001808 441.93784 506.91205
541.0 0.001848 441.93121 507.30124
554.0 0.001805 441.92480 507.64484
534.0 0.001873 441.91812 507.93982
522.0 0.001916 441.91156 508.18365
552.0 0.001812 441.90494 508.37393
552.0 0.001812 441.89835 508.50867
535.0 0.001869 441.89191 508.58624
543.0 0.001842 441.88525 508.60526
533.0 0.001876 441.87878 508.56479
539.0 0.001855 441.87234 508.46417
546.0 0.001832 441.86563 508.30301
550.0 0.001818 441.85913 508.08188
531.0 0.001883 441.85260 507.80090
547.0 0.001828 441.84622 507.46109
513.0 0.001949 441.83960 507.06390
495.0 0.002020 441.83310 506.61072
527.0 0.001898 441.82651 506.10345
525.0 0.001905 441.82007 505.54428
536.0 0.001866 441.81351 504.93558
537.0 0.001862 441.80698 504.27994
533.0 0.001876 441.80051 503.58023
533.0 0.001876 441.79398 502.83932
514.0 0.001946 441.78751 502.05997
487.0 0.002053 441.78098 501.24579
501.0 0.001996 441.77451 500.39954
506.0 0.001976 441.76804 499.52463
486.0 0.002058 441.76151 498.62402
479.0 0.002088 441.75500 497.70102
473.0 0.002114 441.74860 496.75854
474.0 0.002110 441.74216 495.79984
475.0 0.002105 441.73563 494.82782
486.0 0.002058 441.72925 493.84549
497.0 0.002012 441.72275 492.85541
487.0 0.002053 441.71628 491.86060
458.0 0.002183 441.70981 490.86371
446.0 0.002242 441.70343 489.86697
492.0 0.002033 441.69693 488.87299
492.0 0.002033 441.69049 487.88403
481.0 0.002079 441.68393 486.90231
486.0 0.002058 441.67761 485.93002
474.0 0.002110 441.67114 484.96909
468.0 0.002137 441.66479 484.02106
455.0 0.002198 441.65826 483.08826
439.0 0.002278 441.65176 482.17175
467.0 0.002141 441.64542 481.27350
478.0 0.002092 441.63895 480.39474
481.0 0.002079 441.63260 479.53693
478.0 0.002092 441.62613 478.70126
451.0 0.002217 441.61981 477.88873
455.0 0.002198 441.61337 477.10056
470.0 0.002128 441.60699 476.33734
472.0 0.002119 441.60059 475.60025
459.0 0.002179 441.59418 474.89017
477.0 0.002096 441.58777 474.20749
447.0 0.002237 441.58142 473.55276
443.0 0.002257 441.57507 472.92676
463.0 0.002160 441.56863 472.32983
467.0 0.002141 441.56226 471.76251
483.0 0.002070 441.55588 471.22507
462.0 0.002165 441.54941 470.71771
458.0 0.002183 441.54312 470.24094
470.0 0.002128 441.53674 469.79483
455.0 0.002198 441.53033 469.37964
456.0 0.002193 441.52396 468.99567
464.0 0.002155 441.51761 468.64294
463.0 0.002160 441.51129 468.32178
454.0 0.002203 441.50494 468.03241
446.0 0.002242 441.49869 467.77475
439.0 0.002278 441.49225 467.54947
453.0 0.002208 441.48593 467.35645
466.0 0.002146 441.47952 467.19632
474.0 0.002110 441.47318 467.06921
473.0 0.002114 441.46692 466.97543
464.0 0.002155 441.46045 466.91586
446.0 0.002242 441.45419 466.89069
441.0 0.002268 441.44791 466.90060
477.0 0.002096 441.44159 466.94653
466.0 0.002146 441.43521 467.02902
464.0 0.002155 441.42896 467.14923
454.0 0.002203 441.42264 467.30820
451.0 0.002217 441.41629 467.50696
456.0 0.002193 441.41000 467.74683
440.0 0.002273 441.40366 468.02936
434.0 0.002304 441.39734 468.35620
452.0 0.002212 441.39111 468.72885
459.0 0.002179 441.38477 469.14944
454.0 0.002203 441.37851 469.62009
464.0 0.002155 441.37216 470.14288
475.0 0.002105 441.36597 470.72031
493.0 0.002028 441.35965 471.35501
478.0 0.002092 441.35333 472.04950
473.0 0.002114 441.34711 472.80716
467.0 0.002141 441.34079 473.63104
481.0 0.002079 441.33450 474.52438
447.0 0.002237 441.32831 475.49081
445.0 0.002247 441.32193 476.53412
470.0 0.002128 441.31577 477.65811
471.0 0.002123 441.30945 478.86691
487.0 0.002053 441.30319 481.98264
493.0 0.002028 441.29694 483.38986
498.0 0.002008 441.29062 484.89554
489.0 0.002045 441.28448 486.50443
466.0 0.002146 441.27814 488.22128
456.0 0.002193 441.27188 490.05148
487.0 0.002053 441.26572 491.99982
490.0 0.002041 441.25946 494.07175
494.0 0.002024 441.25317 492.52206
488.0 0.002049 441.24695 494.88950
474.0 0.002110 441.24072 497.39636
471.0 0.002123 441.23441 500.04822
483.0 0.002070 441.22821 502.85040
488.0 0.002049 441.22202 505.80856
472.0 0.002119 441.21576 508.92804
476.0 0.002101 441.20950 512.21387
457.0 0.002188 441.20325 515.67175
449.0 0.002227 441.19711 519.30627
475.0 0.002105 441.19080 523.12268
505.0 0.001980 441.18460 527.12543
520.0 0.001923 441.17841 531.31879
508.0 0.001969 441.17221 535.70703
511.0 0.001957 441.16605 540.29382
519.0 0.001927 441.15982 545.08258
510.0 0.001961 441.15363 550.07617
518.0 0.001931 441.14734 555.27722
523.0 0.001912 441.14114 560.68774
527.0 0.001898 441.13495 566.30902
511.0 0.001957 441.12875 572.14240
515.0 0.001942 441.12253 578.18768
526.0 0.001901 441.11636 584.44470
538.0 0.001859 441.11014 590.91241
567.0 0.001764 441.10400 597.58917
559.0 0.001789 441.09778 604.47229
574.0 0.001742 441.09161 611.55853
586.0 0.001706 441.08545 618.84369
555.0 0.001802 441.07925 626.32275
548.0 0.001825 441.07309 633.98993
596.0 0.001678 441.06680 641.83832
638.0 0.001567 441.06067 649.86035
651.0 0.001536 441.05453 658.04724
617.0 0.001621 441.04837 666.38934
628.0 0.001592 441.04227 674.87604
654.0 0.001529 441.03589 683.49567
631.0 0.001585 441.02979 692.23590
654.0 0.001529 441.02368 701.08258
669.0 0.001495 441.01752 710.02112
692.0 0.001445 441.01126 719.03595
681.0 0.001468 441.00510 728.10999
685.0 0.001460 440.99899 737.22571
707.0 0.001414 440.99283 746.36395
726.0 0.001377 440.98663 755.50494
752.0 0.001330 440.98047 764.62793
775.0 0.001290 440.97430 773.71088
778.0 0.001285 440.96829 782.73065
799.0 0.001252 440.96198 791.66376
790.0 0.001266 440.95590 800.48517
832.0 0.001202 440.94977 809.17004
875.0 0.001143 440.94354 817.69122
894.0 0.001119 440.93744 826.02185
888.0 0.001126 440.93121 834.13483
922.0 0.001085 440.92511 842.00171
919.0 0.001088 440.91898 849.59418
937.0 0.001067 440.91281 856.88354
965.0 0.001036 440.90665 863.84143
948.0 0.001055 440.90045 870.43945
997.0 0.001003 440.89435 876.64941
1022.0 0.000978 440.88812 882.44421
1010.0 0.000990 440.88193 887.79779
1034.0 0.000967 440.87585 892.68463
1047.0 0.000955 440.86978 897.08136
1047.0 0.000955 440.86359 900.96637
1060.0 0.000943 440.85745 904.31952
1067.0 0.000937 440.85150 907.12372
1058.0 0.000945 440.84518 909.36420
1059.0 0.000944 440.83905 911.02881
1025.0 0.000976 440.83295 912.10846
1017.0 0.000983 440.82687 912.59760
1052.0 0.000951 440.82074 912.49347
1063.0 0.000941 440.81445 911.79700
1067.0 0.000937 440.80832 910.51190
1061.0 0.000943 440.80225 908.64557
1038.0 0.000963 440.79608 906.20807
1012.0 0.000988 440.79001 903.21301
983.0 0.001017 440.78384 899.67633
976.0 0.001025 440.77774 895.61652
1028.0 0.000973 440.77161 891.05444
1010.0 0.000990 440.76544 886.01288
968.0 0.001033 440.75931 880.51636
1009.0 0.000991 440.75305 874.59076
1027.0 0.000974 440.74713 868.26300
981.0 0.001019 440.74091 861.56110
949.0 0.001054 440.73477 854.03741
956.0 0.001046 440.72873 846.67773
926.0 0.001080 440.72250 839.02936
902.0 0.001109 440.71649 831.12128
850.0 0.001176 440.71021 822.98236
826.0 0.001211 440.70413 814.64038
810.0 0.001235 440.69797 806.12274
815.0 0.001227 440.69183 797.45648
825.0 0.001212 440.68576 788.66791
769.0 0.001300 440.67960 779.78210
773.0 0.001294 440.67337 770.82361
757.0 0.001321 440.66724 761.81580
720.0 0.001389 440.66116 752.78162
714.0 0.001401 440.65506 743.74243
728.0 0.001374 440.64883 734.71899
736.0 0.001359 440.64279 725.73071
727.0 0.001376 440.63660 716.79633
699.0 0.001431 440.63052 707.93323
667.0 0.001499 440.62445 699.15814
647.0 0.001546 440.61816 690.48645
662.0 0.001511 440.61206 681.93262
664.0 0.001506 440.60602 673.51001
627.0 0.001595 440.59982 665.23120
626.0 0.001597 440.59366 657.10760
602.0 0.001661 440.58752 649.14984
581.0 0.001721 440.58139 641.36719
611.0 0.001637 440.57520 633.76868
609.0 0.001642 440.56900 626.36157
608.0 0.001645 440.56296 619.15308
591.0 0.001692 440.55679 612.14880
575.0 0.001739 440.55066 605.35394
577.0 0.001733 440.54449 598.77289
548.0 0.001825 440.53836 592.40912
553.0 0.001808 440.53214 586.26538
565.0 0.001770 440.52612 580.34381
566.0 0.001767 440.51987 574.64581
545.0 0.001835 440.51364 569.17236
536.0 0.001866 440.50754 563.92340
527.0 0.001898 440.50137 558.89880
509.0 0.001965 440.49527 554.09760
535.0 0.001869 440.48911 549.51825
545.0 0.001835 440.48294 545.15961
533.0 0.001876 440.47678 541.01904
521.0 0.001919 440.47058 537.09424
522.0 0.001916 440.46445 533.38245
496.0 0.002016 440.45828 529.88055
510.0 0.001961 440.45209 526.58527
519.0 0.001927 440.44598 523.49335
528.0 0.001894 440.43973 520.60089
524.0 0.001908 440.43356 517.90442
504.0 0.001984 440.42740 515.39996
509.0 0.001965 440.42114 513.08350
499.0 0.002004 440.41513 510.95132
487.0 0.002053 440.40887 508.99942
504.0 0.001984 440.40271 507.22394
525.0 0.001905 440.39648 505.62115
513.0 0.001949 440.39026 504.18698
486.0 0.002058 440.38412 502.91772
489.0 0.002045 440.37802 501.81009
493.0 0.002028 440.37183 500.86029
504.0 0.001984 440.36551 500.06509
512.0 0.001953 440.35928 499.42111
502.0 0.001992 440.35315 498.92523
491.0 0.002037 440.34702 498.57465
478.0 0.002092 440.34073 498.36624
466.0 0.002146 440.33450 498.29742
495.0 0.002020 440.32837 498.36581
512.0 0.001953 440.32205 498.56866
517.0 0.001934 440.31589 498.90396
519.0 0.001927 440.30969 499.36938
535.0 0.001869 440.30350 499.96298
540.0 0.001852 440.29733 500.68274
525.0 0.001905 440.29099 501.52670
506.0 0.001976 440.28473 502.49329
521.0 0.001919 440.27844 503.58075
527.0 0.001898 440.27228 504.78735
518.0 0.001931 440.26605 506.11151
511.0 0.001957 440.25983 507.55179
525.0 0.001905 440.25363 509.10635
513.0 0.001949 440.24719 510.77377
513.0 0.001949 440.24106 512.55231
512.0 0.001953 440.23477 514.44067
518.0 0.001931 440.22855 516.43658
531.0 0.001883 440.22229 518.53857
484.0 0.002066 440.21603 520.74463
471.0 0.002123 440.20975 523.05280
504.0 0.001984 440.20343 525.46100
546.0 0.001832 440.19711 527.96667
540.0 0.001852 440.19095 530.56757
525.0 0.001905 440.18463 533.26105
519.0 0.001927 440.17844 536.04419
542.0 0.001845 440.17206 538.91406
530.0 0.001887 440.16574 541.86707
529.0 0.001890 440.15955 544.89996
538.0 0.001859 440.15320 548.00891
542.0 0.001845 440.14685 551.19012
539.0 0.001855 440.14050 554.43866
544.0 0.001838 440.13419 557.75043
546.0 0.001832 440.12793 561.12030
529.0 0.001890 440.12164 564.54327
541.0 0.001848 440.11530 568.01349
536.0 0.001866 440.10898 571.52509
537.0 0.001862 440.10269 575.07208
544.0 0.001838 440.09625 578.64771
519.0 0.001927 440.08997 582.24530
511.0 0.001957 440.08362 585.85712
552.0 0.001812 440.07727 589.47583
550.0 0.001818 440.07092 593.09344
556.0 0.001799 440.06458 596.70123
544.0 0.001838 440.05811 600.29089
565.0 0.001770 440.05167 603.85278
576.0 0.001736 440.04541 607.37775
571.0 0.001751 440.03909 610.85596
558.0 0.001792 440.03271 614.27716
582.0 0.001718 440.02618 617.63098
593.0 0.001686 440.01999 620.90662
574.0 0.001742 440.01358 624.09332
563.0 0.001776 440.00708 627.17963
560.0 0.001786 440.00067 630.15448
581.0 0.001721 439.99426 633.00659
597.0 0.001675 439.98779 635.72449
597.0 0.001675 439.98135 638.29694
593.0 0.001686 439.97504 640.71313
595.0 0.001681 439.96860 642.96179
549.0 0.001821 439.96219 645.03278
540.0 0.001852 439.95566 646.91608
574.0 0.001742 439.94934 648.60242
594.0 0.001684 439.94272 650.08282
598.0 0.001672 439.93622 651.34973
598.0 0.001672 439.92990 652.39606
577.0 0.001733 439.92337 653.21582
600.0 0.001667 439.91690 653.80420
574.0 0.001742 439.91043 654.15765
569.0 0.001757 439.90393 654.27350
589.0 0.001698 439.89740 654.15070
605.0 0.001653 439.89090 653.78931
605.0 0.001653 439.88440 653.19067
601.0 0.001664 439.87793 652.35730
605.0 0.001653 439.87137 651.29333
599.0 0.001669 439.86487 650.00342
601.0 0.001664 439.85834 648.49371
601.0 0.001664 439.85178 646.77136
595.0 0.001681 439.84525 644.84448
614.0 0.001629 439.83871 642.72168
566.0 0.001767 439.83206 640.41248
569.0 0.001757 439.82562 637.92682
615.0 0.001626 439.81894 635.27515
592.0 0.001689 439.81247 632.46851
577.0 0.001733 439.80582 629.51776
584.0 0.001712 439.79922 626.43414
579.0 0.001727 439.79266 623.22900
577.0 0.001733 439.78604 619.91357
555.0 0.001802 439.77954 616.49890
538.0 0.001859 439.77286 612.99615
551.0 0.001815 439.76624 609.41571
554.0 0.001805 439.75961 605.76874
544.0 0.001838 439.75305 602.06488
541.0 0.001848 439.74628 598.31403
551.0 0.001815 439.73972 594.52618
575.0 0.001739 439.73306 590.71002
575.0 0.001739 439.72641 586.87469
568.0 0.001761 439.71967 583.02844
560.0 0.001786 439.71295 579.17932
552.0 0.001812 439.70636 575.33490
498.0 0.002008 439.69946 571.50269
517.0 0.001934 439.69296 567.68909
542.0 0.001845 439.68616 559.36566
538.0 0.001859 439.67938 555.65668
544.0 0.001838 439.67273 551.98401
531.0 0.001883 439.66599 548.35266
528.0 0.001894 439.65927 544.76807
525.0 0.001905 439.65244 541.23444
516.0 0.001938 439.64578 537.75610
523.0 0.001912 439.63901 534.33679
536.0 0.001866 439.63229 530.98004
559.0 0.001789 439.62549 527.68921
537.0 0.001862 439.61868 524.46710
525.0 0.001905 439.61188 521.31604
530.0 0.001887 439.60501 518.23846
526.0 0.001901 439.59836 515.23621
523.0 0.001912 439.59143 512.31097
513.0 0.001949 439.58453 509.46393
513.0 0.001949 439.57770 506.69626
508.0 0.001969 439.57089 504.00882
469.0 0.002132 439.56409 501.40210
455.0 0.002198 439.55719 498.87646
490.0 0.002041 439.55026 496.43185
527.0 0.001898 439.54340 494.06842
517.0 0.001934 439.53653 491.78564
496.0 0.002016 439.52960 489.58310
490.0 0.002041 439.52271 487.45987
502.0 0.001992 439.51572 485.41537
486.0 0.002058 439.50882 483.44846
477.0 0.002096 439.50189 481.55789
493.0 0.002028 439.49493 479.74255
502.0 0.001992 439.48788 478.00082
487.0 0.002053 439.48108 476.33121
477.0 0.002096 439.47406 474.73233
480.0 0.002083 439.46701 473.20224
487.0 0.002053 439.46008 471.73923
482.0 0.002075 439.45303 470.34149
482.0 0.002075 439.44595 469.00705
482.0 0.002075 439.43909 467.73401
491.0 0.002037 439.43198 466.52051
441.0 0.002268 439.42493 465.36435
435.0 0.002299 439.41800 464.26364
471.0 0.002123 439.41083 463.21628
472.0 0.002119 439.40375 462.22043
482.0 0.002075 439.39661 461.27414
474.0 0.002110 439.38965 460.37512
465.0 0.002151 439.38251 459.52161
476.0 0.002101 439.37537 458.71167
449.0 0.002227 439.36826 457.94324
443.0 0.002257 439.36111 457.21454
456.0 0.002193 439.35400 456.52377
465.0 0.002151 439.34695 456.00278
458.0 0.002183 439.33978 455.38361
460.0 0.002174 439.33249 454.79706
460.0 0.002174 439.32535 454.24146
453.0 0.002208 439.31812 453.71545
466.0 0.002146 439.31094 453.21707
460.0 0.002174 439.30365 452.74527
451.0 0.002217 439.29642 452.29825
463.0 0.002160 439.28925 451.87482
432.0 0.002315 439.28207 451.47379
417.0 0.002398 439.27475 451.09354
442.0 0.002262 439.26752 450.73315
454.0 0.002203 439.26019 450.39151
460.0 0.002174 439.25278 450.06723
449.0 0.002227 439.24561 449.75943
448.0 0.002232 439.23828 449.46722
447.0 0.002237 439.23096 449.18967
442.0 0.002262 439.22360 448.92548
442.0 0.002262 439.21628 448.67435
457.0 0.002188 439.20883 448.43512
465.0 0.002151 439.20148 448.20728
445.0 0.002247 439.19415 447.99002
431.0 0.002320 439.18668 447.78259
439.0 0.002278 439.17932 447.58450
451.0 0.002217 439.17188 447.39511
459.0 0.002179 439.16440 447.21387
448.0 0.002232 439.15695 447.04028
435.0 0.002299 439.14960 446.87384
441.0 0.002268 439.14206 446.71411
404.0 0.002475 439.13455 446.56064
397.0 0.002519 439.12701 446.41309
444.0 0.002252 439.11960 446.27106
443.0 0.002257 439.11209 446.13431
445.0 0.002247 439.10449 446.00244
442.0 0.002262 439.09698 445.87494
443.0 0.002257 439.08954 445.75186
443.0 0.002257 439.08179 445.63297
432.0 0.002315 439.07425 445.51773
447.0 0.002237 439.06671 445.40625
456.0 0.002193 439.05911 445.29800
464.0 0.002155 439.05145 445.19299
449.0 0.002227 439.04388 445.09122
439.0 0.002278 439.03619 444.99216
430.0 0.002326 439.02850 444.89575
434.0 0.002304 439.02084 444.80203
444.0 0.002252 439.01328 444.71075
456.0 0.002193 439.00540 444.62180
453.0 0.002208 438.99786 444.53510
446.0 0.002242 438.99005 444.45044
415.0 0.002410 438.98227 444.36777
404.0 0.002475 438.97452 444.28723
429.0 0.002331 438.96674 444.20837
443.0 0.002257 438.95905 444.13141
446.0 0.002242 438.95126 444.05603
437.0 0.002288 438.94336 443.98236
438.0 0.002283 438.93558 443.91028
437.0 0.002288 438.92770 443.83966
441.0 0.002268 438.91989 443.77054
437.0 0.002288 438.91202 443.70267
449.0 0.002227 438.90414 443.63632
464.0 0.002155 438.89627 443.57120
461.0 0.002169 438.88840 443.50748
446.0 0.002242 438.88037 443.44495
448.0 0.002232 438.87244 443.38361
444.0 0.002252 438.86459 443.32336
458.0 0.002183 438.85654 443.26422
439.0 0.002278 438.84860 443.20618
442.0 0.002262 438.84061 443.14938
458.0 0.002183 438.83255 443.09348
418.0 0.002392 438.82458 443.03864
408.0 0.002451 438.81659 442.98477
451.0 0.002217 438.80859 442.93179
467.0 0.002141 438.80045 442.87985
462.0 0.002165 438.79233 442.82877
460.0 0.002174 438.78424 442.77863
473.0 0.002114 438.77612 442.72925
485.0 0.002062 438.76807 442.68088
448.0 0.002232 438.75983 443.50543
431.0 0.002320 438.75171 443.46628
447.0 0.002237 438.74350 443.42795
455.0 0.002198 438.73532 443.39056
455.0 0.002198 438.72717 443.35397
458.0 0.002183 438.71893 443.31839
462.0 0.002165 438.71075 443.28360
462.0 0.002165 438.70245 443.24960
461.0 0.002169 438.69409 443.21640
459.0 0.002179 438.68588 443.18427
446.0 0.002242 438.67752 443.15277
443.0 0.002257 438.66922 443.12210
426.0 0.002347 438.66107 443.09216
415.0 0.002410 438.65265 443.06299
453.0 0.002208 438.64429 443.03467
452.0 0.002212 438.63589 443.00726
458.0 0.002183 438.62747 442.98050
454.0 0.002203 438.61902 442.95459
435.0 0.002299 438.61075 442.92941
438.0 0.002283 438.60217 442.90503
437.0 0.002288 438.59372 442.88138
423.0 0.002364 438.58521 442.85840
448.0 0.002232 438.57678 442.83636
455.0 0.002198 438.56827 442.81506
436.0 0.002294 438.55978 442.79443
425.0 0.002353 438.55124 442.77475
441.0 0.002268 438.54260 442.75583
456.0 0.002193 438.53406 442.73767
486.0 0.002058 438.52539 442.72018
476.0 0.002101 438.51688 442.70370
478.0 0.002092 438.50836 442.68784
467.0 0.002141 438.49963 442.67300
421.0 0.002375 438.49088 442.65891
411.0 0.002433 438.48227 442.64575
438.0 0.002283 438.47354 442.63327
443.0 0.002257 438.46490 442.62201
449.0 0.002227 438.45618 442.61136
442.0 0.002262 438.44733 442.60168
440.0 0.002273 438.43857 442.59302
434.0 0.002304 438.42990 442.58539
422.0 0.002370 438.42108 442.57870
417.0 0.002398 438.41220 442.57318
451.0 0.002217 438.40332 442.56866
449.0 0.002227 438.39450 442.56528
428.0 0.002336 438.38565 442.56296
421.0 0.002375 438.37683 442.56198
428.0 0.002336 438.36789 442.56216
428.0 0.002336 438.35895 442.56363
440.0 0.002273 438.35004 442.56644
432.0 0.002315 438.34097 442.57053
431.0 0.002320 438.33200 442.57620
433.0 0.002309 438.32300 442.58334
405.0 0.002469 438.31400 442.59210
391.0 0.002558 438.30490 442.60245
427.0 0.002342 438.29593 442.61456
430.0 0.002326 438.28687 442.62836
444.0 0.002252 438.27783 442.64413
443.0 0.002257 438.26852 442.66180
432.0 0.002315 438.25949 442.68146
450.0 0.002222 438.25024 442.70337
439.0 0.002278 438.24124 442.72745
426.0 0.002347 438.23206 442.75381
441.0 0.002268 438.22272 442.78278
444.0 0.002252 438.21350 442.81409
430.0 0.002326 438.20425 442.84818
423.0 0.002364 438.19498 442.88486
422.0 0.002370 438.18576 442.92444
433.0 0.002309 438.17639 441.15402
456.0 0.002193 438.16711 441.21539
443.0 0.002257 438.15775 441.27966
438.0 0.002283 438.14847 441.34732
425.0 0.002353 438.13910 441.41827
394.0 0.002538 438.12967 441.49277
400.0 0.002500 438.12030 441.57080
424.0 0.002358 438.11075 441.65268
427.0 0.002342 438.10138 441.73834
441.0 0.002268 438.09189 441.82828
437.0 0.002288 438.08234 441.92227
431.0 0.002320 438.07294 442.02069
438.0 0.002283 438.06320 442.12363
431.0 0.002320 438.05371 442.23120
418.0 0.002392 438.04419 442.34360
445.0 0.002247 438.03448 442.46100
474.0 0.002110 438.02496 442.58340
457.0 0.002188 438.01529 442.71106
435.0 0.002299 438.00571 442.84418
432.0 0.002315 437.99591 442.98285
441.0 0.002268 437.98630 443.12711
450.0 0.002222 437.97650 443.27707
460.0 0.002174 437.96683 443.43295
449.0 0.002227 437.95697 443.59482
450.0 0.002222 437.94727 443.76279
432.0 0.002315 437.93735 443.93698
430.0 0.002326 437.92764 444.11758
457.0 0.002188 437.91769 444.30435
465.0 0.002151 437.90790 444.49771
478.0 0.002092 437.89801 444.69760
457.0 0.002188 437.88812 444.90396
449.0 0.002227 437.87814 445.11679
444.0 0.002252 437.86813 445.33636
433.0 0.002309 437.85812 445.56265
439.0 0.002278 437.84818 445.79550
463.0 0.002160 437.83817 446.03494
457.0 0.002188 437.82813 446.28101
443.0 0.002257 437.81812 446.53363
452.0 0.002212 437.80798 446.91281
443.0 0.002257 437.79782 447.17947
444.0 0.002252 437.78778 447.45255
447.0 0.002237 437.77762 447.73187
436.0 0.002294 437.76749 448.19003
446.0 0.002242 437.75732 448.48328
454.0 0.002203 437.74698 448.78244
421.0 0.002375 437.73672 449.08752
410.0 0.002439 437.72647 449.39838
448.0 0.002232 437.71622 449.71469
450.0 0.002222 437.70599 450.03641
445.0 0.002247 437.69568 450.36334
449.0 0.002227 437.68524 450.69534
448.0 0.002232 437.67496 451.03207
449.0 0.002227 437.66458 451.37344
443.0 0.002257 437.65402 451.71936
437.0 0.002288 437.64365 452.06934
468.0 0.002137 437.63318 452.42328
477.0 0.002096 437.62262 452.78107
456.0 0.002193 437.61221 453.14224
459.0 0.002179 437.60159 453.50684
452.0 0.002212 437.59106 453.87442
459.0 0.002179 437.58051 454.24493
458.0 0.002183 437.56985 454.61801
450.0 0.002222 437.55923 454.99368
457.0 0.002188 437.54861 455.37158
453.0 0.002208 437.53793 455.75165
416.0 0.002404 437.52725 456.13348
399.0 0.002506 437.51660 456.51740
435.0 0.002299 437.50580 456.90295
444.0 0.002252 437.49506 457.29028
457.0 0.002188 437.48428 457.67929
450.0 0.002222 437.47342 458.07031
436.0 0.002294 437.46271 458.46301
452.0 0.002212 437.45175 458.85779
443.0 0.002257 437.44092 459.25500
456.0 0.002193 437.42999 459.65491
471.0 0.002123 437.41910 460.05786
463.0 0.002160 437.40808 460.46436
474.0 0.002110 437.39719 460.87524
458.0 0.002183 437.38605 461.29095
439.0 0.002278 437.37500 461.71252
446.0 0.002242 437.36411 462.14078
460.0 0.002174 437.35297 462.57693
453.0 0.002208 437.34174 463.02203
450.0 0.002222 437.33069 463.47739
460.0 0.002174 437.31964 463.94443
440.0 0.002273 437.30847 464.42490
429.0 0.002331 437.29724 464.92010
456.0 0.002193 437.28601 465.43198
471.0 0.002123 437.27475 465.96228
481.0 0.002079 437.26349 466.51282
483.0 0.002070 437.25223 467.08572
469.0 0.002132 437.24084 467.68283
467.0 0.002141 437.22955 468.30627
456.0 0.002193 437.21820 468.95807
457.0 0.002188 437.20679 469.64044
483.0 0.002070 437.19537 470.35547
495.0 0.002020 437.18396 471.10507
481.0 0.002079 437.17239 471.89148
467.0 0.002141 437.16095 472.71643
481.0 0.002079 437.14941 473.58221
480.0 0.002083 437.13794 474.49026
493.0 0.002028 437.12628 475.44287
487.0 0.002053 437.11472 476.44131
479.0 0.002088 437.10315 477.48740
484.0 0.002066 437.09146 478.58252
451.0 0.002217 437.07974 479.72809
453.0 0.002208 437.06818 480.92508
490.0 0.002041 437.05634 482.17471
505.0 0.001980 437.04462 483.47775
507.0 0.001972 437.03278 484.83499
517.0 0.001934 437.02112 486.24670
514.0 0.001946 437.00916 487.71344
523.0 0.001912 436.99734 489.23535
515.0 0.001942 436.98544 490.81210
510.0 0.001961 436.97357 492.44351
532.0 0.001880 436.96176 494.12891
529.0 0.001890 436.94977 495.86774
538.0 0.001859 436.93774 497.65878
537.0 0.001862 436.92566 499.50104
528.0 0.001894 436.91376 501.39267
540.0 0.001852 436.90155 503.33221
554.0 0.001805 436.88953 505.31747
550.0 0.001818 436.87738 507.34628
537.0 0.001862 436.86533 509.41605
529.0 0.001890 436.85315 511.52383
504.0 0.001984 436.84094 513.66687
496.0 0.002016 436.82867 515.84155
540.0 0.001852 436.81644 518.04431
565.0 0.001770 436.80417 520.27136
582.0 0.001718 436.79187 522.51855
581.0 0.001721 436.77951 524.78119
591.0 0.001692 436.76721 527.05481
575.0 0.001739 436.75482 529.33441
564.0 0.001773 436.74240 531.61462
563.0 0.001776 436.72998 533.89026
604.0 0.001656 436.71762 536.15533
617.0 0.001621 436.70502 538.40387
601.0 0.001664 436.69257 540.62976
593.0 0.001686 436.67987 542.82648
604.0 0.001656 436.66745 544.98773
587.0 0.001704 436.65482 547.10608
603.0 0.001658 436.64209 549.17523
623.0 0.001605 436.62958 551.18762
632.0 0.001582 436.61685 553.30664
626.0 0.001597 436.60410 555.18585
592.0 0.001689 436.59143 556.98663
595.0 0.001681 436.57867 558.70190
616.0 0.001623 436.56592 560.32452
622.0 0.001608 436.55307 561.84723
653.0 0.001531 436.54013 563.26337
648.0 0.001543 436.52731 564.56616
626.0 0.001597 436.51447 565.74945
624.0 0.001603 436.50140 566.80750
605.0 0.001653 436.48859 567.73468
593.0 0.001686 436.47552 568.52612
644.0 0.001553 436.46252 569.17780
658.0 0.001520 436.44946 569.68542
636.0 0.001572 436.43646 570.04675
626.0 0.001597 436.42331 570.25934
625.0 0.001600 436.41022 570.32184
627.0 0.001595 436.39703 570.27808
644.0 0.001553 436.38388 570.03949
651.0 0.001536 436.37070 569.65118
629.0 0.001590 436.35742 569.11523
653.0 0.001531 436.34418 568.43384
615.0 0.001626 436.33084 567.61060
588.0 0.001701 436.31757 566.64935
611.0 0.001637 436.30423 565.55475
609.0 0.001642 436.29080 564.33191
622.0 0.001608 436.27740 562.98663
622.0 0.001608 436.26392 561.52484
630.0 0.001587 436.25052 559.95306
620.0 0.001613 436.23700 558.27832
615.0 0.001626 436.22351 556.50714
605.0 0.001653 436.20990 554.64722
601.0 0.001664 436.19632 552.70581
620.0 0.001613 436.18265 550.68970
592.0 0.001689 436.16919 548.60669
572.0 0.001748 436.15543 546.46405
573.0 0.001745 436.14172 544.26923
572.0 0.001748 436.12802 542.02899
574.0 0.001742 436.11420 539.75079
581.0 0.001721 436.10043 537.44116
579.0 0.001727 436.08664 535.10712
595.0 0.001681 436.07281 532.75464
537.0 0.001862 436.05893 530.39044
535.0 0.001869 436.04501 528.02081
569.0 0.001757 436.03107 525.65125
567.0 0.001764 436.01712 523.28729
566.0 0.001767 436.00311 520.93488
551.0 0.001815 435.98926 518.59851
554.0 0.001805 435.97510 516.28357
554.0 0.001805 435.96100 513.99451
531.0 0.001883 435.94687 511.73581
521.0 0.001919 435.93268 509.51157
538.0 0.001859 435.91861 507.32568
549.0 0.001821 435.90430 505.18201
534.0 0.001873 435.89008 503.08389
515.0 0.001942 435.87585 501.03430
514.0 0.001946 435.86154 499.03625
512.0 0.001953 435.84720 497.09259
524.0 0.001908 435.83292 495.20572
522.0 0.001916 435.81848 493.37769
519.0 0.001927 435.80414 491.61050
513.0 0.001949 435.78976 489.90576
479.0 0.002088 435.77524 488.26526
464.0 0.002155 435.76068 486.69006
489.0 0.002045 435.74609 485.18137
498.0 0.002008 435.73160 483.73981
512.0 0.001953 435.71701 482.36615
496.0 0.002016 435.70236 481.06085
491.0 0.002037 435.68765 479.82404
502.0 0.001992 435.67303 478.65588
491.0 0.002037 435.65839 477.55621
483.0 0.002070 435.64362 476.52469
493.0 0.002028 435.62878 475.56082
506.0 0.001976 435.61395 474.66388
486.0 0.002058 435.59915 473.83334
479.0 0.002088 435.58426 473.06784
498.0 0.002008 435.56952 472.36673
495.0 0.002020 435.55450 471.72876
487.0 0.002053 435.53952 471.15237
482.0 0.002075 435.52451 470.63620
488.0 0.002049 435.50952 470.17874
483.0 0.002070 435.49457 469.77826
459.0 0.002179 435.47940 469.43317
460.0 0.002174 435.46426 469.14154
494.0 0.002024 435.44913 468.90149
491.0 0.002037 435.43396 468.71085
499.0 0.002004 435.41870 468.56775
499.0 0.002004 435.40344 468.47003
478.0 0.002092 435.38834 468.41531
487.0 0.002053 435.37296 468.40179
480.0 0.002083 435.35770 468.42676
488.0 0.002049 435.34235 468.48807
508.0 0.001969 435.32690 468.58322
515.0 0.001942 435.31143 468.71002
497.0 0.002012 435.29593 468.86578
495.0 0.002020 435.28052 469.04807
477.0 0.002096 435.26501 469.25443
489.0 0.002045 435.24948 469.48236
504.0 0.001984 435.23386 469.72934
495.0 0.002020 435.21829 469.99258
495.0 0.002020 435.20261 470.26962
498.0 0.002008 435.18695 470.55795
459.0 0.002179 435.17123 470.85486
459.0 0.002179 435.15555 471.15775
484.0 0.002066 435.13968 471.46381
485.0 0.002062 435.12390 471.77087
493.0 0.002028 435.10800 472.07599
518.0 0.001931 435.09229 472.42563
507.0 0.001972 435.07635 472.71979
487.0 0.002053 435.06049 473.00464
483.0 0.002070 435.04437 473.27759
490.0 0.002041 435.02856 473.53625
509.0 0.001965 435.01242 473.77838
513.0 0.001949 434.99646 474.00180
486.0 0.002058 434.98035 474.20428
470.0 0.002128 434.96423 474.38397
475.0 0.002105 434.94806 474.53873
490.0 0.002041 434.93192 474.66724
496.0 0.002016 434.91562 474.76767
483.0 0.002070 434.89941 474.83887
494.0 0.002024 434.88309 474.87936
511.0 0.001957 434.86685 474.88818
478.0 0.002092 434.85043 474.86484
466.0 0.002146 434.83417 474.80869
487.0 0.002053 434.81772 474.71912
485.0 0.002062 434.80127 474.59601
497.0 0.002012 434.78482 474.43958
490.0 0.002041 434.76828 474.25024
480.0 0.002083 434.75180 474.02817
498.0 0.002008 434.73526 473.77429
504.0 0.001984 434.71860 473.48923
502.0 0.001992 434.70190 473.17404
524.0 0.001908 434.68530 472.83026
529.0 0.001890 434.66867 472.45871
507.0 0.001972 434.65186 472.06119
490.0 0.002041 434.63516 471.63916
493.0 0.002028 434.61835 471.19418
493.0 0.002028 434.60150 470.72800
502.0 0.001992 434.58463 470.24246
490.0 0.002041 434.56781 469.73923
496.0 0.002016 434.55090 469.22031
494.0 0.002024 434.53384 468.68744
466.0 0.002146 434.51685 468.14249
465.0 0.002151 434.49982 467.58743
510.0 0.001961 434.48288 467.02380
497.0 0.002012 434.46576 466.45377
491.0 0.002037 434.44867 465.87912
479.0 0.002088 434.43146 465.30118
473.0 0.002114 434.41431 464.72198
485.0 0.002062 434.39713 464.14319
468.0 0.002137 434.37985 463.56638
467.0 0.002141 434.36249 462.99323
484.0 0.002066 434.34521 462.42499
490.0 0.002041 434.32785 461.86325
472.0 0.002119 434.31055 461.30966
465.0 0.002151 434.29315 460.76511
456.0 0.002193 434.27560 460.23135
462.0 0.002165 434.25827 459.70941
500.0 0.002000 434.24063 459.20029
488.0 0.002049 434.22311 458.70547
472.0 0.002119 434.20560 458.22580
483.0 0.002070 434.18787 457.76224
443.0 0.002257 434.17023 457.31601
447.0 0.002237 434.15262 456.88754
483.0 0.002070 434.13492 456.34442
481.0 0.002079 434.11722 455.95554
489.0 0.002045 434.09940 455.58685
479.0 0.002088 434.08160 455.23926
464.0 0.002155 434.06372 454.91290
474.0 0.002110 434.04593 454.60855
463.0 0.002160 434.02808 454.32654
441.0 0.002268 434.01007 454.06732
473.0 0.002114 433.99200 453.83127
485.0 0.002062 433.97403 453.61844
461.0 0.002169 433.95605 453.42908
465.0 0.002151 433.93790 453.26349
447.0 0.002237 433.91980 453.12152
445.0 0.002247 433.90182 453.00317
460.0 0.002174 433.88361 452.90851
457.0 0.002188 433.86533 452.83743
447.0 0.002237 433.84717 452.78973
449.0 0.002227 433.82883 452.76498
433.0 0.002309 433.81058 452.76315
430.0 0.002326 433.79221 452.78378
454.0 0.002203 433.77393 452.82639
464.0 0.002155 433.75546 452.89069
468.0 0.002137 433.73694 452.97586
472.0 0.002119 433.71854 453.08163
475.0 0.002105 433.70004 453.20712
467.0 0.002141 433.68146 453.35165
449.0 0.002227 433.66296 453.51483
446.0 0.002242 433.64438 453.69543
475.0 0.002105 433.62561 454.04196
475.0 0.002105 433.60699 454.25650
453.0 0.002208 433.58832 454.48615
440.0 0.002273 433.56949 454.72971
438.0 0.002283 433.55087 454.98605
448.0 0.002232 433.53201 455.25439
451.0 0.002217 433.51315 455.53348
458.0 0.002183 433.49435 455.82211
451.0 0.002217 433.47546 456.11908
449.0 0.002227 433.45645 456.42319
433.0 0.002309 433.43747 456.73315
422.0 0.002370 433.41852 457.04758
441.0 0.002268 433.39954 457.36508
453.0 0.002208 433.38043 457.68448
464.0 0.002155 433.36133 458.00415
446.0 0.002242 433.34210 458.32275
447.0 0.002237 433.32294 458.63879
444.0 0.002252 433.30383 458.95068
430.0 0.002326 433.28461 459.25702
419.0 0.002387 433.26535 459.55655
449.0 0.002227 433.24597 459.84723
457.0 0.002188 433.22668 460.12811
443.0 0.002257 433.20737 460.39737
436.0 0.002294 433.18787 460.65375
440.0 0.002273 433.16849 460.89560
447.0 0.002237 433.14890 461.12192
452.0 0.002212 433.12952 461.33115
456.0 0.002193 433.11008 461.52209
447.0 0.002237 433.09042 461.69351
452.0 0.002212 433.07080 461.84457
428.0 0.002336 433.05115 461.97406
422.0 0.002370 433.03140 462.08124
454.0 0.002203 433.01181 462.16525
457.0 0.002188 432.99210 462.22549
443.0 0.002257 432.97235 462.26132
442.0 0.002262 432.95248 462.27258
433.0 0.002309 432.93259 462.25873
451.0 0.002217 432.91278 462.21967
446.0 0.002242 432.89288 462.15540
438.0 0.002283 432.87296 462.06595
456.0 0.002193 432.85300 461.95154
469.0 0.002132 432.83298 461.81250
457.0 0.002188 432.81296 461.64917
448.0 0.002232 432.79288 461.46216
457.0 0.002188 432.77286 461.25201
452.0 0.002212 432.75259 461.01941
465.0 0.002151 432.73242 460.76501
448.0 0.002232 432.71219 460.48978
439.0 0.002278 432.69199 460.19443
451.0 0.002217 432.67184 459.88013
422.0 0.002370 432.65140 458.67273
411.0 0.002433 432.63123 458.33063
438.0 0.002283 432.61081 457.97238
453.0 0.002208 432.59036 457.59915
455.0 0.002198 432.56985 457.21204
447.0 0.002237 432.54950 456.81204
437.0 0.002288 432.52893 456.40033
452.0 0.002212 432.50845 455.97821
434.0 0.002304 432.48782 455.54660
424.0 0.002358 432.46725 455.10675
446.0 0.002242 432.44666 454.65979
459.0 0.002179 432.42584 454.20700
459.0 0.002179 432.40527 453.74936
456.0 0.002193 432.38452 453.28784
459.0 0.002179 432.36374 452.82376
451.0 0.002217 432.34296 452.35822
443.0 0.002257 432.32214 451.89188
442.0 0.002262 432.30127 451.42618
460.0 0.002174 432.28033 450.96179
458.0 0.002183 432.25949 450.49976
413.0 0.002421 432.23840 450.04092
396.0 0.002525 432.21738 449.58624
422.0 0.002370 432.19641 449.13638
432.0 0.002315 432.17532 448.69232
461.0 0.002169 432.15417 448.25458
450.0 0.002222 432.13312 447.82388
443.0 0.002257 432.11200 447.40112
430.0 0.002326 432.09076 446.98657
425.0 0.002353 432.06949 446.58115
421.0 0.002375 432.04828 446.18512
441.0 0.002268 432.02695 445.88928
448.0 0.002232 432.00555 445.51437
446.0 0.002242 431.98422 445.15018
439.0 0.002278 431.96286 444.79733
429.0 0.002331 431.94138 444.45563
442.0 0.002262 431.91986 444.12589
446.0 0.002242 431.89841 443.80795
446.0 0.002242 431.87683 443.50232
441.0 0.002268 431.85538 443.20908
438.0 0.002283 431.83377 442.92801
414.0 0.002415 431.81213 442.65964
403.0 0.002481 431.79044 442.40381
435.0 0.002299 431.76877 442.16061
441.0 0.002268 431.74704 441.92990
453.0 0.002208 431.72522 441.71185
448.0 0.002232 431.70355 441.50613
443.0 0.002257 431.68176 441.31274
442.0 0.002262 431.65973 441.13159
417.0 0.002398 431.63797 440.96255
436.0 0.002294 431.61609 440.80527
446.0 0.002242 431.59406 440.65964
448.0 0.002232 431.57208 440.52527
427.0 0.002342 431.55008 440.40207
421.0 0.002375 431.52808 440.28973
431.0 0.002320 431.50583 440.18802
443.0 0.002257 431.48373 440.09634
444.0 0.002252 431.46170 440.01456
449.0 0.002227 431.43951 439.94244
455.0 0.002198 431.41718 439.87918
470.0 0.002128 431.39499 439.82495
415.0 0.002410 431.37274 439.77896
416.0 0.002404 431.35034 439.74075
442.0 0.002262 431.32800 439.71030
450.0 0.002222 431.30560 439.68677
462.0 0.002165 431.28320 439.66992
441.0 0.002268 431.26077 439.65915
431.0 0.002320 431.23831 439.65427
453.0 0.002208 431.21579 439.65463
442.0 0.002262 431.19318 439.65973
435.0 0.002299 431.17075 439.66925
465.0 0.002151 431.14813 439.68250
485.0 0.002062 431.12543 439.69925
476.0 0.002101 431.10272 439.71881
457.0 0.002188 431.08008 439.74091
453.0 0.002208 431.05734 439.76498
444.0 0.002252 431.03461 439.79059
447.0 0.002237 431.01178 439.81711
462.0 0.002165 430.98895 439.84451
441.0 0.002268 430.96606 439.87186
450.0 0.002222 430.94318 439.89911
433.0 0.002309 430.92023 439.92575
426.0 0.002347 430.89728 439.95142
461.0 0.002169 430.87430 439.97571
483.0 0.002070 430.85129 439.99838
473.0 0.002114 430.82819 440.01892
467.0 0.002141 430.80505 440.03748
445.0 0.002247 430.78201 440.05353
460.0 0.002174 430.75888 440.06686
434.0 0.002304 430.73569 440.07751
441.0 0.002268 430.71243 440.08505
459.0 0.002179 430.68924 440.08984
465.0 0.002151 430.66595 440.09164
448.0 0.002232 430.64270 440.09024
446.0 0.002242 430.61932 440.08636
455.0 0.002198 430.59592 440.07947
450.0 0.002222 430.57263 440.07013
449.0 0.002227 430.54910 440.05838
455.0 0.002198 430.52557 440.04453
452.0 0.002212 430.50211 440.02884
474.0 0.002110 430.47858 440.01163
414.0 0.002415 430.45502 439.99350
408.0 0.002451 430.43140 439.97443
445.0 0.002247 430.40793 439.95523
458.0 0.002183 430.38422 439.93594
458.0 0.002183 430.36044 439.79761
445.0 0.002247 430.33673 439.78110
445.0 0.002247 430.31305 439.76596
437.0 0.002288 430.28928 439.75302
420.0 0.002381 430.26544 439.74237
426.0 0.002347 430.24170 439.56299
448.0 0.002232 430.21771 439.56024
465.0 0.002151 430.19379 439.56146
443.0 0.002257 430.16992 439.56711
427.0 0.002342 430.14594 439.57745
434.0 0.002304 430.12186 439.59317
432.0 0.002315 430.09793 439.61462
435.0 0.002299 430.07385 439.64224
442.0 0.002262 430.04974 439.67621
439.0 0.002278 430.02570 439.71725
458.0 0.002183 430.00140 439.76550
417.0 0.002398 429.97723 439.82138
403.0 0.002481 429.95306 439.88504
438.0 0.002283 429.92883 439.95691
459.0 0.002179 429.90460 440.03714
451.0 0.002217 429.88025 440.12598
452.0 0.002212 429.85593 440.22372
438.0 0.002283 429.83160 440.33026
441.0 0.002268 429.80713 440.44604
430.0 0.002326 429.78271 440.57089
422.0 0.002370 429.75824 440.70505
455.0 0.002198 429.73373 440.84845
456.0 0.002193 429.70923 441.00101
436.0 0.002294 429.68478 441.16284
434.0 0.002304 429.66016 441.33377
445.0 0.002247 429.63556 441.51352
447.0 0.002237 429.61099 441.70224
453.0 0.002208 429.58627 441.89951
453.0 0.002208 429.56158 442.10504
458.0 0.002183 429.53693 442.31879
452.0 0.002212 429.51212 442.54019
427.0 0.002342 429.48734 442.76910
413.0 0.002421 429.46246 443.00473
436.0 0.002294 429.43756 443.24704
437.0 0.002288 429.41278 443.49545
443.0 0.002257 429.38779 443.74942
448.0 0.002232 429.36298 444.00824
444.0 0.002252 429.33795 444.27155
439.0 0.002278 429.31296 444.53842
422.0 0.002370 429.28793 444.80856
418.0 0.002392 429.26291 445.08109
431.0 0.002320 429.23782 445.35498
447.0 0.002237 429.21271 445.63004
435.0 0.002299 429.18756 445.90488
432.0 0.002315 429.16245 446.17902
434.0 0.002304 429.13721 446.45142
439.0 0.002278 429.11203 446.72131
445.0 0.002247 429.08679 446.98785
446.0 0.002242 429.06146 447.24966
443.0 0.002257 429.03616 447.50613
437.0 0.002288 429.01080 447.75638
419.0 0.002387 428.98541 447.99921
420.0 0.002381 428.95999 448.23343
452.0 0.002212 428.93460 448.45856
449.0 0.002227 428.90915 448.67331
445.0 0.002247 428.88367 448.87677
438.0 0.002283 428.85812 449.06802
439.0 0.002278 428.83255 449.24612
443.0 0.002257 428.80704 449.41025
440.0 0.002273 428.78143 449.55966
421.0 0.002375 428.75574 449.69351
440.0 0.002273 428.73016 449.81107
436.0 0.002294 428.70441 449.91187
436.0 0.002294 428.67874 449.99530
436.0 0.002294 428.65305 450.06082
432.0 0.002315 428.62729 450.10846
434.0 0.002304 428.60141 450.13763
453.0 0.002208 428.57559 450.14825
456.0 0.002193 428.54971 450.14050
456.0 0.002193 428.52393 450.11435
448.0 0.002232 428.49808 450.07007
416.0 0.002404 428.47211 450.00793
400.0 0.002500 428.44614 449.92841
426.0 0.002347 428.42010 449.83212
433.0 0.002309 428.39404 449.71945
444.0 0.002252 428.36807 449.59134
456.0 0.002193 428.34207 449.44855
446.0 0.002242 428.31589 449.29178
444.0 0.002252 428.28979 449.12207
421.0 0.002375 428.26364 448.94022
416.0 0.002404 428.23740 448.74747
449.0 0.002227 428.21118 448.54471
463.0 0.002160 428.18497 448.33298
452.0 0.002212 428.15863 448.11343
445.0 0.002247 428.13248 447.88712
447.0 0.002237 428.10611 447.65512
453.0 0.002208 428.07977 447.41833
459.0 0.002179 428.05341 447.17798
439.0 0.002278 428.02695 446.93494
441.0 0.002268 428.00055 446.69043
438.0 0.002283 427.97415 446.44507
403.0 0.002481 427.94760 446.20010
397.0 0.002519 427.92108 445.95636
430.0 0.002326 427.89453 445.71472
443.0 0.002257 427.86801 445.47598
451.0 0.002217 427.84149 445.24075
431.0 0.002320 427.81473 445.01001
433.0 0.002309 427.78812 444.78445
447.0 0.002237 427.76144 444.56433
431.0 0.002320 427.73474 444.35065
419.0 0.002387 427.70810 443.97375
437.0 0.002288 427.68140 443.77563
446.0 0.002242 427.65460 443.58536
431.0 0.002320 427.62790 443.40320
425.0 0.002353 427.60104 443.22955
419.0 0.002387 427.57422 443.06461
425.0 0.002353 427.54727 442.90863
430.0 0.002326 427.52032 442.76193
434.0 0.002304 427.49344 442.62457
438.0 0.002283 427.46655 442.49646
434.0 0.002304 427.43961 442.37790
406.0 0.002463 427.41263 442.26871
400.0 0.002500 427.38556 442.16879
432.0 0.002315 427.35849 442.07806
442.0 0.002262 427.33151 441.99649
448.0 0.002232 427.30438 441.92349
448.0 0.002232 427.27722 441.85922
439.0 0.002278 427.25012 441.80298
447.0 0.002237 427.22290 441.70987
445.0 0.002247 427.19571 441.66928
437.0 0.002288 427.16852 441.63586
448.0 0.002232 427.14127 441.60876
450.0 0.002222 427.11395 441.58765
429.0 0.002331 427.08682 441.57211
434.0 0.002304 427.05939 441.56104
433.0 0.002309 427.03204 441.55426
430.0 0.002326 427.00470 441.55081
445.0 0.002247 426.97729 441.55011
447.0 0.002237 426.94986 441.55145
440.0 0.002273 426.92245 441.55417
445.0 0.002247 426.89505 441.55719
426.0 0.002347 426.86758 441.55988
412.0 0.002427 426.84003 441.56158
445.0 0.002247 426.81247 441.56134
453.0 0.002208 426.78497 441.55838
459.0 0.002179 426.75735 441.55185
446.0 0.002242 426.72977 441.54102
440.0 0.002273 426.70224 441.52521
450.0 0.002222 426.67450 441.50363
445.0 0.002247 426.64685 441.47552
430.0 0.002326 426.61914 441.65695
436.0 0.002294 426.59134 441.61569
462.0 0.002165 426.56366 441.56616
452.0 0.002212 426.53589 441.50781
441.0 0.002268 426.50809 441.44006
437.0 0.002288 426.48029 441.36267
447.0 0.002237 426.45251 441.27512
454.0 0.002203 426.42462 441.17737
453.0 0.002208 426.39679 441.06931
443.0 0.002257 426.36884 440.95038
442.0 0.002262 426.34094 440.82098
409.0 0.002445 426.31305 440.68100
408.0 0.002451 426.28510 440.53061
438.0 0.002283 426.25711 440.36975
448.0 0.002232 426.22903 440.19897
455.0 0.002198 426.20105 440.01843
455.0 0.002198 426.17297 439.82843
452.0 0.002212 426.14493 439.62939
459.0 0.002179 426.11679 439.42163
450.0 0.002222 426.08875 439.20578
442.0 0.002262 426.06042 438.98215
453.0 0.002208 426.03244 438.75140
450.0 0.002222 426.00424 438.51395
429.0 0.002331 425.97601 438.27029
435.0 0.002299 425.94781 438.02127
439.0 0.002278 425.91959 437.76706
435.0 0.002299 425.89127 437.50845
445.0 0.002247 425.86295 437.24576
433.0 0.002309 425.83463 436.97974
439.0 0.002278 425.80634 436.71078
443.0 0.002257 425.77802 436.43967
407.0 0.002457 425.74963 436.16641
392.0 0.002551 425.72128 435.89215
425.0 0.002353 425.69293 435.61685
431.0 0.002320 425.66449 435.34119
450.0 0.002222 425.63596 435.06555
434.0 0.002304 425.60757 434.79041
436.0 0.002294 425.57901 434.51627
438.0 0.002283 425.55051 434.24347
425.0 0.002353 425.52194 433.97229
437.0 0.002288 425.49347 433.70319
463.0 0.002160 425.46484 433.43640
466.0 0.002146 425.43613 433.17236
452.0 0.002212 425.40765 432.91132
433.0 0.002309 425.37897 432.65359
416.0 0.002404 425.35034 432.39948
424.0 0.002358 425.32175 432.14902
437.0 0.002288 425.29303 431.90277
438.0 0.002283 425.26434 431.66068
429.0 0.002331 425.23557 431.42303
442.0 0.002262 425.20691 431.18979
411.0 0.002433 425.17810 430.96155
407.0 0.002457 425.14932 430.73801
429.0 0.002331 425.12057 430.51944
432.0 0.002315 425.09164 430.30597
433.0 0.002309 425.06290 430.09760
427.0 0.002342 425.03397 429.89453
429.0 0.002331 425.00519 429.69678
415.0 0.002410 424.97635 429.50415
418.0 0.002392 424.94720 429.31689
433.0 0.002309 424.91830 429.13507
433.0 0.002309 424.88940 428.95856
432.0 0.002315 424.86047 428.78714
424.0 0.002358 424.83154 428.62097
420.0 0.002381 424.80255 428.46021
419.0 0.002387 424.77341 428.30429
418.0 0.002392 424.74435 428.15366
436.0 0.002294 424.71536 428.00797
440.0 0.002273 424.68634 427.81812
433.0 0.002309 424.65720 427.68265
431.0 0.002320 424.62805 427.55179
402.0 0.002488 424.59900 427.42566
390.0 0.002564 424.56989 427.30402
424.0 0.002358 424.54074 427.18665
424.0 0.002358 424.51151 427.07370
448.0 0.002232 424.48236 426.96490
441.0 0.002268 424.45316 426.86008
419.0 0.002387 424.42392 426.75922
420.0 0.002381 424.39471 426.66220
407.0 0.002457 424.36545 426.56879
415.0 0.002410 424.33621 426.47903
435.0 0.002299 424.30688 426.39249
434.0 0.002304 424.27768 426.30942
421.0 0.002375 424.24832 426.22943
420.0 0.002381 424.21902 426.15256
423.0 0.002364 424.18958 426.07855
416.0 0.002404 424.16028 426.00745
426.0 0.002347 424.13089 425.93893
422.0 0.002370 424.10150 425.87317
434.0 0.002304 424.07214 425.80981
436.0 0.002294 424.04269 425.74881
396.0 0.002525 424.01331 425.69016
383.0 0.002611 423.98373 425.63358
418.0 0.002392 423.95432 425.57928
419.0 0.002387 423.92484 425.52676
419.0 0.002387 423.89529 425.47623
406.0 0.002463 423.86575 425.42767
409.0 0.002445 423.83624 425.38080
417.0 0.002398 423.80676 425.33569
400.0 0.002500 423.77710 425.29211
402.0 0.002488 423.74753 425.25031
416.0 0.002404 423.71796 425.20975
427.0 0.002342 423.68842 425.17099
433.0 0.002309 423.65887 425.13333
418.0 0.002392 423.62918 425.09726
406.0 0.002463 423.59949 425.06250
411.0 0.002433 423.56982 425.02893
416.0 0.002404 423.54016 424.99680
407.0 0.002457 423.51053 424.96594
408.0 0.002451 423.48083 424.93637
421.0 0.002375 423.45111 424.90802
404.0 0.002475 423.42145 424.88101
398.0 0.002513 423.39160 424.85507
417.0 0.002398 423.36191 424.83066
428.0 0.002336 423.33224 424.80722
434.0 0.002304 423.30234 424.78522
429.0 0.002331 423.27255 424.76453
421.0 0.002375 423.24271 424.74521
429.0 0.002331 423.21304 424.73120
405.0 0.002469 423.18323 424.71472
404.0 0.002475 423.15335 424.69955
420.0 0.002381 423.12354 424.68613
427.0 0.002342 423.09363 424.67416
422.0 0.002370 423.06372 424.66391
417.0 0.002398 423.03400 424.65518
408.0 0.002451 423.00409 424.64835
407.0 0.002457 422.97415 424.64328
425.0 0.002353 422.94415 424.64029
417.0 0.002398 422.91434 424.63919
425.0 0.002353 422.88437 424.64014
440.0 0.002273 422.85449 424.64365
407.0 0.002457 422.82446 424.64917
383.0 0.002611 422.79449 424.65729
424.0 0.002358 422.76450 424.66812
436.0 0.002294 422.73453 424.68143
434.0 0.002304 422.70447 424.69763
438.0 0.002283 422.67450 424.71695
424.0 0.002358 422.64453 424.73923
426.0 0.002347 422.61444 424.76508
419.0 0.002387 422.58450 424.79416
414.0 0.002415 422.55438 424.82687
428.0 0.002336 422.52426 424.86331
433.0 0.002309 422.49417 424.90372
415.0 0.002410 422.46414 425.05453
415.0 0.002410 422.43402 425.10422
429.0 0.002331 422.40393 425.15851
433.0 0.002309 422.37378 425.21756
457.0 0.002188 422.34375 425.28143
442.0 0.002262 422.31354 425.35043
423.0 0.002364 422.28348 425.42474
434.0 0.002304 422.25333 425.50458
410.0 0.002439 422.22327 425.59000
402.0 0.002488 422.19305 425.68137
431.0 0.002320 422.16287 425.62936
453.0 0.002208 422.13269 425.73447
461.0 0.002169 422.10254 425.84586
455.0 0.002198 422.07217 425.96408
445.0 0.002247 422.04208 426.08905
441.0 0.002268 422.01190 426.22119
433.0 0.002309 421.98163 426.36060
435.0 0.002299 421.95145 426.50732
447.0 0.002237 421.92114 426.66153
464.0 0.002155 421.89090 426.82367
456.0 0.002193 421.86066 426.99362
436.0 0.002294 421.83038 427.17166
432.0 0.002315 421.80023 427.35791
438.0 0.002283 421.76993 427.55240
449.0 0.002227 421.73953 427.75516
452.0 0.002212 421.70935 427.96649
445.0 0.002247 421.67911 428.18637
430.0 0.002326 421.64877 428.41492
410.0 0.002439 421.61838 428.65198
408.0 0.002451 421.58810 428.89771
452.0 0.002212 421.55777 429.15204
452.0 0.002212 421.52756 429.41531
444.0 0.002252 421.49713 429.68686
438.0 0.002283 421.46686 429.96698
434.0 0.002304 421.43649 430.25562
443.0 0.002257 421.40622 430.55252
432.0 0.002315 421.37573 430.85748
424.0 0.002358 421.34549 431.17044
432.0 0.002315 421.31509 431.49118
449.0 0.002227 421.28470 431.81946
441.0 0.002268 421.25430 432.15506
432.0 0.002315 421.22397 432.49750
420.0 0.002381 421.19360 432.97305
430.0 0.002326 421.16315 433.32962
441.0 0.002268 421.13275 433.69211
434.0 0.002304 421.10239 434.06021
433.0 0.002309 421.07202 434.43338
444.0 0.002252 421.04153 434.81094
414.0 0.002415 421.01120 435.19266
414.0 0.002415 420.98077 435.57785
441.0 0.002268 420.95023 435.96588
445.0 0.002247 420.91989 436.35638
456.0 0.002193 420.88947 436.74832
462.0 0.002165 420.85907 437.14124
459.0 0.002179 420.82855 437.53427
450.0 0.002222 420.79816 437.92673
430.0 0.002326 420.76773 438.31793
416.0 0.002404 420.73727 438.70682
439.0 0.002278 420.70685 439.09241
440.0 0.002273 420.67639 439.47412
428.0 0.002336 420.64603 439.85089
435.0 0.002299 420.61548 440.22174
433.0 0.002309 420.58505 440.58563
427.0 0.002342 420.55453 440.94156
432.0 0.002315 420.52414 441.28848
435.0 0.002299 420.49371 441.62524
432.0 0.002315 420.46307 441.95114
441.0 0.002268 420.43274 442.26443
410.0 0.002439 420.40225 442.56473
402.0 0.002488 420.37180 442.85031
439.0 0.002278 420.34122 443.12051
445.0 0.002247 420.31079 443.37415
443.0 0.002257 420.28033 443.61008
439.0 0.002278 420.24988 443.82742
422.0 0.002370 420.21939 444.02505
436.0 0.002294 420.18884 444.20215
432.0 0.002315 420.15845 444.35797
445.0 0.002247 420.12793 444.49155
463.0 0.002160 420.09747 444.60236
452.0 0.002212 420.06702 444.68964
435.0 0.002299 420.03647 444.75281
429.0 0.002331 420.00598 444.79187
427.0 0.002342 419.97556 444.80609
429.0 0.002331 419.94513 444.79532
456.0 0.002193 419.91464 444.75980
447.0 0.002237 419.88419 444.69931
440.0 0.002273 419.85361 444.61386
435.0 0.002299 419.82315 444.50427
417.0 0.002398 419.79257 444.37045
405.0 0.002469 419.76224 444.12277
436.0 0.002294 419.73163 443.94333
436.0 0.002294 419.70123 443.74158
451.0 0.002217 419.67075 443.51834
445.0 0.002247 419.64023 443.27432
429.0 0.002331 419.60974 443.01065
438.0 0.002283 419.57935 442.72815
426.0 0.002347 419.54889 442.42798
420.0 0.002381 419.51828 442.11111
452.0 0.002212 419.48792 441.77863
447.0 0.002237 419.45743 441.43146
444.0 0.002252 419.42694 441.07095
437.0 0.002288 419.39648 440.69818
432.0 0.002315 419.36603 440.31418
435.0 0.002299 419.33572 439.92010
434.0 0.002304 419.30515 439.51715
422.0 0.002370 419.27466 439.10587
421.0 0.002375 419.24426 438.68805
438.0 0.002283 419.21387 438.26443
400.0 0.002500 419.18326 437.83572
388.0 0.002577 419.15298 437.40326
422.0 0.002370 419.12250 436.96780
425.0 0.002353 419.09201 436.53036
440.0 0.002273 419.06158 436.09171
448.0 0.002232 419.03119 435.65265
428.0 0.002336 419.00073 435.21423
429.0 0.002331 418.97034 434.77692
417.0 0.002398 418.93991 434.34155
419.0 0.002387 418.90952 433.90912
439.0 0.002278 418.87909 433.47974
449.0 0.002227 418.84879 433.05472
437.0 0.002288 418.81839 432.63403
426.0 0.002347 418.78799 432.21878
413.0 0.002421 418.75748 431.80902
430.0 0.002326 418.72708 431.40555
438.0 0.002283 418.69672 431.00879
418.0 0.002392 418.66638 430.61914
420.0 0.002381 418.63608 430.23721
434.0 0.002304 418.60556 429.86307
394.0 0.002538 418.57529 429.49744
405.0 0.002469 418.54498 429.14041
439.0 0.002278 418.51465 428.79239
429.0 0.002331 418.48431 428.45352
422.0 0.002370 418.45395 428.12424
417.0 0.002398 418.42358 427.80466
416.0 0.002404 418.39334 427.49493
417.0 0.002398 418.36298 427.19547
415.0 0.002410 418.33267 426.90619
409.0 0.002445 418.30249 426.62738
433.0 0.002309 418.27209 426.35907
425.0 0.002353 418.24176 426.10153
424.0 0.002358 418.21161 425.85471
424.0 0.002358 418.18121 425.61862
409.0 0.002445 418.15097 425.39340
410.0 0.002439 418.12076 425.17917
429.0 0.002331 418.09048 424.97583
430.0 0.002326 418.06015 424.78342
425.0 0.002353 418.03006 424.60196
440.0 0.002273 417.99985 424.43140
398.0 0.002513 417.96957 424.27179
391.0 0.002558 417.93930 424.12305
427.0 0.002342 417.90909 423.98523
431.0 0.002320 417.87891 423.85818
430.0 0.002326 417.84879 423.74194
421.0 0.002375 417.81860 423.63641
417.0 0.002398 417.78836 423.54160
425.0 0.002353 417.75827 423.45712
406.0 0.002463 417.72803 423.38348
404.0 0.002475 417.69797 423.32013
424.0 0.002358 417.66779 423.26727
439.0 0.002278 417.63782 423.22473
427.0 0.002342 417.60757 423.19232
415.0 0.002410 417.57739 423.17010
412.0 0.002427 417.54736 423.15802
421.0 0.002375 417.51730 423.15573
428.0 0.002336 417.48724 423.16360
424.0 0.002358 417.45721 423.18127
417.0 0.002398 417.42703 423.20850
426.0 0.002347 417.39706 423.24557
407.0 0.002457 417.36707 423.29205
385.0 0.002597 417.33701 423.34818
412.0 0.002427 417.30704 423.41345
414.0 0.002415 417.27698 423.48831
427.0 0.002342 417.24701 423.57217
420.0 0.002381 417.21698 423.66519
420.0 0.002381 417.18704 423.76703
422.0 0.002370 417.15714 423.87802
401.0 0.002494 417.12723 423.99756
410.0 0.002439 417.09717 424.12589
448.0 0.002232 417.06741 424.26266
439.0 0.002278 417.03748 424.40796
413.0 0.002421 417.00754 424.56131
423.0 0.002364 416.97763 424.72305
427.0 0.002342 416.94775 424.89282
428.0 0.002336 416.91782 425.07025
433.0 0.002309 416.88815 425.25549
443.0 0.002257 416.85831 425.44821
435.0 0.002299 416.82837 425.64838
439.0 0.002278 416.79858 425.85556
412.0 0.002427 416.76880 426.06970
421.0 0.002375 416.73904 426.29077
439.0 0.002278 416.70926 426.51828
440.0 0.002273 416.67953 426.75226
449.0 0.002227 416.64975 426.99207
428.0 0.002336 416.62012 427.23795
426.0 0.002347 416.59027 427.48935
427.0 0.002342 416.56070 427.74585
429.0 0.002331 416.53104 428.00760
430.0 0.002326 416.50137 428.27411
445.0 0.002247 416.47171 428.54480
449.0 0.002227 416.44189 428.81946
426.0 0.002347 416.41238 429.09802
421.0 0.002375 416.38278 429.37982
418.0 0.002392 416.35309 429.66449
425.0 0.002353 416.32358 429.95175
441.0 0.002268 416.29407 430.24130
439.0 0.002278 416.26440 430.53232
437.0 0.002288 416.23492 430.82480
444.0 0.002252 416.20541 431.11786
413.0 0.002421 416.17590 431.41119
409.0 0.002445 416.14642 431.70441
450.0 0.002222 416.11700 431.99695
455.0 0.002198 416.08755 432.28830
455.0 0.002198 416.05804 432.57782
438.0 0.002283 416.02856 432.86520
426.0 0.002347 415.99924 433.14969
437.0 0.002288 415.96991 433.43088
427.0 0.002342 415.94043 433.70813
428.0 0.002336 415.91110 433.98111
451.0 0.002217 415.88187 434.24918
456.0 0.002193 415.85248 434.51190
446.0 0.002242 415.82315 434.76865
431.0 0.002320 415.79385 435.01920
434.0 0.002304 415.76465 435.26294
442.0 0.002262 415.73529 435.49966
447.0 0.002237 415.70602 435.73032
448.0 0.002232 415.67688 435.95181
430.0 0.002326 415.64764 436.16507
441.0 0.002268 415.61850 436.37003
416.0 0.002404 415.58929 436.56641
398.0 0.002513 415.56018 436.75415
423.0 0.002364 415.53113 436.93292
439.0 0.002278 415.50186 437.10278
443.0 0.002257 415.47293 437.26361
433.0 0.002309 415.44382 437.41531
438.0 0.002283 415.41467 437.55777
466.0 0.002146 415.38565 437.69122
443.0 0.002257 415.35666 437.81549
441.0 0.002268 415.32770 437.93082
452.0 0.002212 415.29877 438.03690
447.0 0.002237 415.26965 438.13394
437.0 0.002288 415.24081 438.22198
439.0 0.002278 415.21194 438.30096
433.0 0.002309 415.18307 438.37082
433.0 0.002309 415.15405 438.43173
451.0 0.002217 415.12534 438.48346
450.0 0.002222 415.09644 438.52600
438.0 0.002283 415.06766 438.55942
440.0 0.002273 415.03876 438.58328
408.0 0.002451 415.01007 438.59790
414.0 0.002415 414.98120 438.60257
448.0 0.002232 414.95258 438.59756
451.0 0.002217 414.92383 438.58243
454.0 0.002203 414.89517 438.55695
446.0 0.002242 414.86658 438.52109
441.0 0.002268 414.83792 438.47421
436.0 0.002294 414.80933 438.41626
427.0 0.002342 414.78064 438.34711
436.0 0.002294 414.75211 438.26617
453.0 0.002208 414.72348 438.17322
453.0 0.002208 414.69489 438.06830
440.0 0.002273 414.66644 437.95062
438.0 0.002283 414.63794 437.82047
426.0 0.002347 414.60947 437.67734
428.0 0.002336 414.58099 437.52106
457.0 0.002188 414.55264 437.35162
474.0 0.002110 414.52426 437.16891
460.0 0.002174 414.49582 436.97287
451.0 0.002217 414.46741 436.76373
418.0 0.002392 414.43912 436.54114
424.0 0.002358 414.41083 436.30560
448.0 0.002232 414.38254 436.05710
448.0 0.002232 414.35431 435.79599
461.0 0.002169 414.32596 435.52274
448.0 0.002232 414.29785 435.23740
432.0 0.002315 414.26959 434.94049
434.0 0.002304 414.24146 434.63266
438.0 0.002283 414.21335 434.45682
435.0 0.002299 414.18533 434.12973
438.0 0.002283 414.15710 433.79346
438.0 0.002283 414.12897 433.44849
432.0 0.002315 414.10098 433.09540
443.0 0.002257 414.07294 432.73514
430.0 0.002326 414.04498 432.36801
426.0 0.002347 414.01706 431.99500
440.0 0.002273 413.98907 431.61676
423.0 0.002364 413.96109 431.23401
423.0 0.002364 413.93323 430.84714
432.0 0.002315 413.90536 430.45724
408.0 0.002451 413.87750 430.06473
408.0 0.002451 413.84976 429.67044
440.0 0.002273 413.82196 429.27478
444.0 0.002252 413.79416 428.87857
446.0 0.002242 413.76639 428.48221
435.0 0.002299 413.73874 428.41550
422.0 0.002370 413.71106 428.02359
430.0 0.002326 413.68338 427.63333
416.0 0.002404 413.65570 427.24533
404.0 0.002475 413.62808 426.85974
436.0 0.002294 413.60059 426.47736
447.0 0.002237 413.57294 426.09842
423.0 0.002364 413.54553 425.72345
408.0 0.002451 413.51801 425.35260
411.0 0.002433 413.49048 424.98627
424.0 0.002358 413.46298 424.62515
435.0 0.002299 413.43570 424.26923
428.0 0.002336 413.40814 423.91861
419.0 0.002387 413.38083 423.57391
424.0 0.002358 413.35361 423.23526
402.0 0.002488 413.32626 422.90274
399.0 0.002506 413.29898 422.35968
420.0 0.002381 413.27173 422.04196
428.0 0.002336 413.24454 421.73099
436.0 0.002294 413.21732 421.44485
431.0 0.002320 413.19016 421.14777
429.0 0.002331 413.16309 420.85806
437.0 0.002288 413.13593 420.57523
424.0 0.002358 413.10886 420.29962
425.0 0.002353 413.08173 420.03119
443.0 0.002257 413.05484 419.77008
448.0 0.002232 413.02777 419.51624
421.0 0.002375 413.00082 419.26968
426.0 0.002347 412.97391 419.03021
426.0 0.002347 412.94696 418.79800
434.0 0.002304 412.92020 418.57306
434.0 0.002304 412.89328 418.35501
426.0 0.002347 412.86655 418.14423
427.0 0.002342 412.83966 417.94019
424.0 0.002358 412.81308 417.74292
396.0 0.002525 412.78619 417.55264
389.0 0.002571 412.75964 417.36884
426.0 0.002347 412.73288 417.19147
429.0 0.002331 412.70624 417.02063
422.0 0.002370 412.67972 416.85596
421.0 0.002375 412.65317 416.69742
413.0 0.002421 412.62653 416.54489
420.0 0.002381 412.60013 416.39822
416.0 0.002404 412.57361 416.25705
415.0 0.002410 412.54715 416.12161
434.0 0.002304 412.52075 415.99146
430.0 0.002326 412.49442 415.86655
415.0 0.002410 412.46808 415.74664
403.0 0.002481 412.44177 415.63162
414.0 0.002415 412.41547 415.52142
425.0 0.002353 412.38922 415.41568
438.0 0.002283 412.36304 415.31448
427.0 0.002342 412.33685 415.21741
415.0 0.002410 412.31070 415.12451
434.0 0.002304 412.28461 415.15341
399.0 0.002506 412.25845 415.06943
381.0 0.002625 412.23248 414.98889
406.0 0.002463 412.20639 414.91190
424.0 0.002358 412.18042 414.83841
433.0 0.002309 412.15439 414.76807
426.0 0.002347 412.12857 414.70096
420.0 0.002381 412.10269 414.63672
420.0 0.002381 412.07687 414.57556
412.0 0.002427 412.05096 414.51694
408.0 0.002451 412.02524 414.46097
421.0 0.002375 411.99945 414.40756
433.0 0.002309 411.97375 414.35648
410.0 0.002439 411.94809 414.30789
416.0 0.002404 411.92242 414.26144
416.0 0.002404 411.89676 414.21707
413.0 0.002421 411.87115 414.17471
432.0 0.002315 411.84567 414.13443
451.0 0.002217 411.82022 414.09598
441.0 0.002268 411.79471 414.05923
430.0 0.002326 411.76926 414.02448
385.0 0.002597 411.74390 413.99112
375.0 0.002667 411.71851 413.95956
403.0 0.002481 411.69321 413.92941
404.0 0.002475 411.66785 413.90097
420.0 0.002381 411.64249 413.87378
410.0 0.002439 411.61740 413.84805
422.0 0.002370 411.59213 413.82385
434.0 0.002304 411.56702 413.80109
410.0 0.002439 411.54196 413.77957
406.0 0.002463 411.51672 413.75931
427.0 0.002342 411.49173 413.74036
431.0 0.002320 411.46667 413.72284
417.0 0.002398 411.44177 413.70651
411.0 0.002433 411.41675 413.69156
408.0 0.002451 411.39191 413.67783
416.0 0.002404 411.36703 413.66528
441.0 0.002268 411.34229 413.65421
428.0 0.002336 411.31738 413.64441
418.0 0.002392 411.29263 413.63593
434.0 0.002304 411.26773 413.62891
395.0 0.002532 411.24326 413.62317
382.0 0.002618 411.21863 413.61896
410.0 0.002439 411.19391 413.61633
424.0 0.002358 411.16949 413.61520
435.0 0.002299 411.14490 413.61560
432.0 0.002315 411.12039 413.61765
422.0 0.002370 411.09586 413.62140
416.0 0.002404 411.07150 413.62704
403.0 0.002481 411.04700 413.63455
400.0 0.002500 411.02277 413.64392
420.0 0.002381 410.99841 413.65552
429.0 0.002331 410.97418 413.66928
425.0 0.002353 410.95001 413.68521
414.0 0.002415 410.92578 413.70361
403.0 0.002481 410.90161 413.72452
409.0 0.002445 410.87744 413.74789
423.0 0.002364 410.85339 413.77435
409.0 0.002445 410.82935 413.80356
415.0 0.002410 410.80527 413.83591
433.0 0.002309 410.78131 413.87158
398.0 0.002513 410.75748 413.91077
386.0 0.002591 410.73364 413.95367
416.0 0.002404 410.70972 414.00021
416.0 0.002404 410.68591 414.05096
434.0 0.002304 410.66217 414.10596
432.0 0.002315 410.63843 414.16553
415.0 0.002410 410.61475 414.22977
426.0 0.002347 410.59119 414.29907
409.0 0.002445 410.56747 414.37387
404.0 0.002475 410.54404 414.45401
413.0 0.002421 410.52048 414.54025
421.0 0.002375 410.49689 414.63248
418.0 0.002392 410.47345 414.73120
423.0 0.002364 410.45010 414.83679
423.0 0.002364 410.42685 414.94943
423.0 0.002364 410.40347 415.06952
436.0 0.002294 410.38007 415.19760
429.0 0.002331 410.35699 415.33392
413.0 0.002421 410.33371 415.47882
418.0 0.002392 410.31061 415.62866
379.0 0.002639 410.28748 415.79193
385.0 0.002597 410.26440 415.96500
419.0 0.002387 410.24136 416.14828
417.0 0.002398 410.21832 416.34216
419.0 0.002387 410.19547 416.54709
414.0 0.002415 410.17239 416.76315
415.0 0.002410 410.14963 416.99146
418.0 0.002392 410.12686 417.23196
413.0 0.002421 410.10394 417.48523
408.0 0.002451 410.08130 417.75186
438.0 0.002283 410.05859 418.03177
440.0 0.002273 410.03598 418.32596
430.0 0.002326 410.01331 418.63443
412.0 0.002427 409.99072 418.95804
412.0 0.002427 409.96823 419.29678
418.0 0.002392 409.94565 419.65128
438.0 0.002283 409.92325 420.02191
438.0 0.002283 409.90088 420.40897
430.0 0.002326 409.87860 420.81284
419.0 0.002387 409.85614 421.23404
394.0 0.002538 409.83395 421.67270
408.0 0.002451 409.81174 422.12915
447.0 0.002237 409.78955 422.60367
449.0 0.002227 409.76746 423.09662
439.0 0.002278 409.74536 423.50177
439.0 0.002278 409.72330 424.03302
438.0 0.002283 409.70123 424.58301
446.0 0.002242 409.67920 425.15240
432.0 0.002315 409.65732 425.74081
424.0 0.002358 409.63541 426.34851
432.0 0.002315 409.61356 426.97522
429.0 0.002331 409.59177 427.62146
425.0 0.002353 409.57001 428.28665
425.0 0.002353 409.54834 428.97092
412.0 0.002427 409.52664 429.67407
419.0 0.002387 409.50519 430.39575
438.0 0.002283 409.48349 431.13580
439.0 0.002278 409.46194 431.89389
442.0 0.002262 409.44046 432.66959
443.0 0.002257 409.41913 433.81485
405.0 0.002469 409.39771 434.62747
407.0 0.002457 409.37631 435.45612
448.0 0.002232 409.35507 436.30042
450.0 0.002222 409.33374 437.15924
448.0 0.002232 409.31256 438.03226
442.0 0.002262 409.29138 438.91830
444.0 0.002252 409.27023 439.81668
436.0 0.002294 409.24915 440.72635
433.0 0.002309 409.22830 441.64633
431.0 0.002320 409.20715 442.57541
460.0 0.002174 409.18622 443.51251
469.0 0.002132 409.16534 444.45624
468.0 0.002137 409.14447 445.40543
439.0 0.002278 409.12366 446.35846
436.0 0.002294 409.10294 447.31421
452.0 0.002212 409.08215 448.27090
472.0 0.002119 409.06158 449.22708
461.0 0.002169 409.04086 450.18097
448.0 0.002232 409.02039 451.13110
457.0 0.002188 408.99982 452.07556
414.0 0.002415 408.97934 453.01251
405.0 0.002469 408.95883 453.94037
444.0 0.002252 408.93851 454.85696
437.0 0.002288 408.91812 455.76059
456.0 0.002193 408.89792 456.64935
447.0 0.002237 408.87766 457.52127
449.0 0.002227 408.85742 458.24774
452.0 0.002212 408.83719 459.08102
444.0 0.002252 408.81720 459.89151
434.0 0.002304 408.79718 460.67752
456.0 0.002193 408.77719 461.43704
456.0 0.002193 408.75714 462.16806
447.0 0.002237 408.73724 462.86902
439.0 0.002278 408.71735 463.53793
437.0 0.002288 408.69754 464.17346
432.0 0.002315 408.67776 464.77365
452.0 0.002212 408.65802 465.33707
464.0 0.002155 408.63840 465.86215
462.0 0.002165 408.61874 466.34796
460.0 0.002174 408.59924 466.79291
440.0 0.002273 408.57965 467.19580
433.0 0.002309 408.56015 467.55588
456.0 0.002193 408.54065 467.87216
452.0 0.002212 408.52133 468.14386
472.0 0.002119 408.50192 468.37039
495.0 0.002020 408.48264 468.55127
464.0 0.002155 408.46338 468.68622
469.0 0.002132 408.44431 468.77518
456.0 0.002193 408.42505 468.81790
464.0 0.002155 408.40594 468.81476
484.0 0.002066 408.38693 468.76611
495.0 0.002020 408.36786 468.67233
460.0 0.002174 408.34897 468.53391
439.0 0.002278 408.33008 468.35214
439.0 0.002278 408.31131 468.12747
448.0 0.002232 408.29239 467.86127
452.0 0.002212 408.27365 467.55490
438.0 0.002283 408.25491 467.21237
444.0 0.002252 408.23627 466.82944
461.0 0.002169 408.21762 466.41077
429.0 0.002331 408.19904 465.95782
413.0 0.002421 408.18063 465.47232
444.0 0.002252 408.16220 464.95618
449.0 0.002227 408.14371 464.41147
460.0 0.002174 408.12540 463.83997
457.0 0.002188 408.10699 463.24326
446.0 0.002242 408.08887 462.62372
464.0 0.002155 408.07056 461.98297
459.0 0.002179 408.05234 461.32309
442.0 0.002262 408.03430 460.64612
473.0 0.002114 408.01624 459.95343
466.0 0.002146 407.99832 459.24738
440.0 0.002273 407.98022 458.52921
432.0 0.002315 407.96228 457.80084
436.0 0.002294 407.94446 457.06403
446.0 0.002242 407.92676 456.32034
468.0 0.002137 407.90887 455.57111
464.0 0.002155 407.89130 454.81772
445.0 0.002247 407.87354 454.06174
454.0 0.002203 407.85593 453.30411
413.0 0.002421 407.83832 452.54651
414.0 0.002415 407.82086 451.78946
435.0 0.002299 407.80344 451.03448
439.0 0.002278 407.78595 450.28207
452.0 0.002212 407.76868 449.58936
440.0 0.002273 407.75125 448.84564
442.0 0.002262 407.73404 448.10690
439.0 0.002278 407.71683 447.37393
433.0 0.002309 407.69965 446.64709
421.0 0.002375 407.68256 445.92709
436.0 0.002294 407.66550 445.21417
446.0 0.002242 407.64853 444.50870
439.0 0.002278 407.63165 443.81107
434.0 0.002304 407.61469 443.12115
454.0 0.002203 407.59778 442.43951
459.0 0.002179 407.58105 441.76593
454.0 0.002203 407.56430 441.10080
448.0 0.002232 407.54770 440.44403
432.0 0.002315 407.53101 439.79572
451.0 0.002217 407.51440 439.15561
406.0 0.002463 407.49786 438.52402
391.0 0.002558 407.48141 437.90079
425.0 0.002353 407.46497 437.28580
434.0 0.002304 407.44858 436.67917
442.0 0.002262 407.43222 436.08069
440.0 0.002273 407.41602 435.49045
447.0 0.002237 407.39972 434.90857
442.0 0.002262 407.38361 434.33490
421.0 0.002375 407.36752 433.76950
406.0 0.002463 407.35135 433.21234
429.0 0.002331 407.33542 432.66360
446.0 0.002242 407.31937 432.12341
426.0 0.002347 407.30350 431.59161
416.0 0.002404 407.28763 431.06863
411.0 0.002433 407.27182 430.55435
433.0 0.002309 407.25601 430.04904
460.0 0.002174 407.24033 429.55286
449.0 0.002227 407.22473 429.06610
434.0 0.002304 407.20920 428.58878
429.0 0.002331 407.19357 428.12112
412.0 0.002427 407.17807 427.66339
402.0 0.002488 407.16266 427.21582
433.0 0.002309 407.14725 426.77853
438.0 0.002283 407.13205 426.35184
435.0 0.002299 407.11667 425.93591
425.0 0.002353 407.10144 425.53098
415.0 0.002410 407.08630 425.13724
421.0 0.002375 407.07120 424.75516
421.0 0.002375 407.05612 424.38455
407.0 0.002457 407.04105 424.02597
441.0 0.002268 407.02609 423.67938
450.0 0.002222 407.01117 423.34531
430.0 0.002326 406.99640 423.02377
424.0 0.002358 406.98157 422.71500
425.0 0.002353 406.96680 422.41943
419.0 0.002387 406.95212 422.13699
430.0 0.002326 406.93750 421.86810
442.0 0.002262 406.92288 421.61279
435.0 0.002299 406.90833 421.37164
441.0 0.002268 406.89389 421.14462
416.0 0.002404 406.87943 420.93201
391.0 0.002558 406.86505 420.73401
428.0 0.002336 406.85074 420.55109
439.0 0.002278 406.83655 420.38309
446.0 0.002242 406.82227 420.23053
427.0 0.002342 406.80807 420.09363
417.0 0.002398 406.79401 419.97250
426.0 0.002347 406.78000 419.86743
420.0 0.002381 406.76596 419.77872
407.0 0.002457 406.75198 419.70642
429.0 0.002331 406.73813 419.65121
427.0 0.002342 406.72430 419.61264
415.0 0.002410 406.71051 419.59143
412.0 0.002427 406.69681 419.58755
415.0 0.002410 406.68311 419.60147
425.0 0.002353 406.66949 419.63303
443.0 0.002257 406.65591 419.68262
431.0 0.002320 406.64243 419.75021
429.0 0.002331 406.62897 419.83624
423.0 0.002364 406.61545 419.94086
393.0 0.002545 406.60214 420.06387
377.0 0.002653 406.58902 420.20572
412.0 0.002427 406.57578 420.36633
430.0 0.002326 406.56250 420.54562
441.0 0.002268 406.54938 420.74399
429.0 0.002331 406.53625 420.96121
419.0 0.002387 406.52325 421.19736
425.0 0.002353 406.51028 421.45242
414.0 0.002415 406.49731 421.72617
404.0 0.002475 406.48453 422.01886
446.0 0.002242 406.47165 422.32999
449.0 0.002227 406.45898 422.65967
433.0 0.002309 406.44626 423.00772
415.0 0.002410 406.43365 423.37375
420.0 0.002381 406.42102 423.75766
415.0 0.002410 406.40848 424.15912
434.0 0.002304 406.39603 424.57761
437.0 0.002288 406.38361 425.01300
438.0 0.002283 406.37125 425.46487
429.0 0.002331 406.35892 425.93271
394.0 0.002538 406.34659 426.41586
384.0 0.002604 406.33450 426.91418
426.0 0.002347 406.32227 427.42664
432.0 0.002315 406.31021 427.95282
438.0 0.002283 406.29816 428.49203
426.0 0.002347 406.28619 429.15347
421.0 0.002375 406.27426 429.71756
432.0 0.002315 406.26242 430.29239
422.0 0.002370 406.25070 430.87711
428.0 0.002336 406.23880 431.47079
445.0 0.002247 406.22705 432.07245
452.0 0.002212 406.21542 432.68109
434.0 0.002304 406.20386 433.29568
427.0 0.002342 406.19232 433.91507
423.0 0.002364 406.18088 434.53839
429.0 0.002331 406.16940 435.16412
432.0 0.002315 406.15802 435.79102
433.0 0.002309 406.14667 436.41797
446.0 0.002242 406.13538 437.04343
441.0 0.002268 406.12421 437.66623
412.0 0.002427 406.11310 438.28473
399.0 0.002506 406.10190 438.89767
414.0 0.002415 406.09091 439.50333
429.0 0.002331 406.07993 440.10034
435.0 0.002299 406.06900 440.68704
435.0 0.002299 406.05804 441.26184
434.0 0.002304 406.04724 441.82306
446.0 0.002242 406.03653 442.36908
446.0 0.002242 406.02585 442.89648
446.0 0.002242 406.01511 443.40710
450.0 0.002222 406.00455 443.89746
461.0 0.002169 405.99399 444.36584
443.0 0.002257 405.98355 444.81082
439.0 0.002278 405.97302 445.23068
434.0 0.002304 405.96252 445.62381
433.0 0.002309 405.95236 445.98874
449.0 0.002227 405.94205 446.32416
440.0 0.002273 405.93188 446.62878
441.0 0.002268 405.92166 446.90097
439.0 0.002278 405.91159 447.14001
404.0 0.002475 405.90155 447.34470
401.0 0.002494 405.89154 447.51401
433.0 0.002309 405.88165 447.64777
455.0 0.002198 405.87152 447.74496
443.0 0.002257 405.86176 447.80527
435.0 0.002299 405.85202 447.82828
434.0 0.002304 405.84232 447.81448
440.0 0.002273 405.83264 447.76334
428.0 0.002336 405.82309 447.67545
414.0 0.002415 405.81351 447.55127
438.0 0.002283 405.80405 447.39136
453.0 0.002208 405.79449 447.19635
440.0 0.002273 405.78510 446.96735
428.0 0.002336 405.77579 446.70526
417.0 0.002398 405.76648 446.41141
417.0 0.002398 405.75735 446.08698
441.0 0.002268 405.74811 445.73325
448.0 0.002232 405.73898 445.35193
440.0 0.002273 405.72992 444.94418
435.0 0.002299 405.72092 444.51181
409.0 0.002445 405.71194 444.05649
413.0 0.002421 405.70316 443.57983
442.0 0.002262 405.69427 443.31708
439.0 0.002278 405.68549 442.80478
457.0 0.002188 405.67679 442.27606
442.0 0.002262 405.66815 441.73282
425.0 0.002353 405.65948 441.17661
416.0 0.002404 405.65088 440.60913
429.0 0.002331 405.64249 440.03174
426.0 0.002347 405.63400 439.44629
452.0 0.002212 405.62561 438.85406
456.0 0.002193 405.61725 438.25674
434.0 0.002304 405.60901 437.65558
421.0 0.002375 405.60068 437.05206
420.0 0.002381 405.59256 436.44754
433.0 0.002309 405.58447 435.84293
434.0 0.002304 405.57639 435.24002
439.0 0.002278 405.56839 434.63962
425.0 0.002353 405.56046 434.04282
421.0 0.002375 405.55249 433.45065
393.0 0.002545 405.54474 432.72195
398.0 0.002513 405.53687 432.14331
432.0 0.002315 405.52924 431.57193
440.0 0.002273 405.52151 431.00909
437.0 0.002288 405.51392 430.45505
433.0 0.002309 405.50629 429.91055
416.0 0.002404 405.49872 429.37643
427.0 0.002342 405.49127 428.85315
433.0 0.002309 405.48401 428.34128
427.0 0.002342 405.47662 427.84103
447.0 0.002237 405.46924 427.35318
455.0 0.002198 405.46213 426.87784
445.0 0.002247 405.45486 426.41537
425.0 0.002353 405.44785 425.96594
436.0 0.002294 405.44073 425.52972
432.0 0.002315 405.43365 425.10709
438.0 0.002283 405.42670 424.69781
439.0 0.002278 405.41989 423.97299
435.0 0.002299 405.41299 423.59344
430.0 0.002326 405.40628 423.22754
398.0 0.002513 405.39948 422.87491
403.0 0.002481 405.39282 422.53537
432.0 0.002315 405.38611 422.20905
446.0 0.002242 405.37958 421.89545
451.0 0.002217 405.37302 421.59430
459.0 0.002179 405.36658 421.30542
448.0 0.002232 405.36011 421.02863
450.0 0.002222 405.35376 420.76337
419.0 0.002387 405.34744 420.50940
409.0 0.002445 405.34131 420.26630
426.0 0.002347 405.33508 420.03354
430.0 0.002326 405.32895 419.81073
416.0 0.002404 405.32285 419.59738
416.0 0.002404 405.31680 419.39319
418.0 0.002392 405.31082 419.19733
437.0 0.002288 405.30487 418.99179
455.0 0.002198 405.29913 418.81177
441.0 0.002268 405.29333 418.63867
431.0 0.002320 405.28751 418.47217
431.0 0.002320 405.28183 418.31161
400.0 0.002500 405.27615 418.15643
391.0 0.002558 405.27057 418.00644
417.0 0.002398 405.26508 417.86090
429.0 0.002331 405.25946 417.71942
431.0 0.002320 405.25409 417.58151
424.0 0.002358 405.24881 417.44690
422.0 0.002370 405.24344 417.31497
417.0 0.002398 405.23813 417.18558
409.0 0.002445 405.23291 417.05844
412.0 0.002427 405.22791 416.93295
431.0 0.002320 405.22275 416.80905
441.0 0.002268 405.21774 417.07462
433.0 0.002309 405.21271 416.95612
413.0 0.002421 405.20767 416.83847
413.0 0.002421 405.20285 416.72195
416.0 0.002404 405.19800 416.60602
429.0 0.002331 405.19324 416.49100
436.0 0.002294 405.18845 416.37677
426.0 0.002347 405.18381 416.26324
420.0 0.002381 405.17920 416.15070
393.0 0.002545 405.17465 416.03915
402.0 0.002488 405.17017 415.92856
430.0 0.002326 405.16574 415.81918
431.0 0.002320 405.16132 415.71115
437.0 0.002288 405.15695 415.60458
437.0 0.002288 405.15271 415.49994
421.0 0.002375 405.14844 415.39694
418.0 0.002392 405.14426 415.29636
407.0 0.002457 405.14011 415.19797
403.0 0.002481 405.13605 415.10226
424.0 0.002358 405.13202 415.00949
435.0 0.002299 405.12808 414.91983
428.0 0.002336 405.12424 414.83350
419.0 0.002387 405.12027 414.75095
416.0 0.002404 405.11652 414.67230
418.0 0.002392 405.11270 414.59778
430.0 0.002326 405.10898 414.52777
421.0 0.002375 405.10535 414.46249
406.0 0.002463 405.10162 414.40225
412.0 0.002427 405.09827 414.34741
394.0 0.002538 405.09464 414.29791
384.0 0.002604 405.09122 414.25433
419.0 0.002387 405.08783 414.21649
426.0 0.002347 405.08456 414.18533
438.0 0.002283 405.08121 414.16052
431.0 0.002320 405.07797 414.14255
420.0 0.002381 405.07492 414.13144
420.0 0.002381 405.07175 414.12762
407.0 0.002457 405.06866 414.13116
410.0 0.002439 405.06567 414.14221
424.0 0.002358 405.06271 414.16116
431.0 0.002320 405.05984 414.18802
415.0 0.002410 405.05695 414.22299
420.0 0.002381 405.05411 414.26614
410.0 0.002439 405.05127 414.31778
411.0 0.002433 405.04865 414.37784
429.0 0.002331 405.04599 414.44669
425.0 0.002353 405.04340 414.52423
415.0 0.002410 405.04086 414.61050
402.0 0.002488 405.03827 414.70554
385.0 0.002597 405.03601 414.80975
390.0 0.002564 405.03354 414.92279
418.0 0.002392 405.03128 415.04495
426.0 0.002347 405.02896 415.17590
429.0 0.002331 405.02667 415.31601
430.0 0.002326 405.02451 415.46497
428.0 0.002336 405.02240 415.62296
427.0 0.002342 405.02036 415.78973
418.0 0.002392 405.01834 415.96539
420.0 0.002381 405.01639 416.14981
438.0 0.002283 405.01443 416.34262
443.0 0.002257 405.01254 416.54413
441.0 0.002268 405.01068 416.75381
442.0 0.002262 405.00900 416.97192
425.0 0.002353 405.00711 417.19797
431.0 0.002320 405.00555 417.43185
443.0 0.002257 405.00394 417.67352
430.0 0.002326 405.00241 417.92258
425.0 0.002353 405.00089 418.17911
428.0 0.002336 404.99951 418.44250
392.0 0.002551 404.99799 418.71252
386.0 0.002591 404.99667 418.90933
429.0 0.002331 404.99536 419.19284
435.0 0.002299 404.99411 419.48227
433.0 0.002309 404.99295 419.77725
447.0 0.002237 404.99179 420.07773
439.0 0.002278 404.99066 420.38312
465.0 0.002151 404.98956 420.69308
450.0 0.002222 404.98859 421.00751
434.0 0.002304 404.98767 421.32584
434.0 0.002304 404.98676 421.64771
439.0 0.002278 404.98599 421.97281
432.0 0.002315 404.98511 422.30072
426.0 0.002347 404.98438 422.63120
430.0 0.002326 404.98370 422.96359
431.0 0.002320 404.98303 423.29776
438.0 0.002283 404.98236 423.63303
441.0 0.002268 404.98184 423.96924
442.0 0.002262 404.98141 424.30594
435.0 0.002299 404.98087 424.64264
403.0 0.002481 404.98047 424.97919
393.0 0.002545 404.98019 425.31516
427.0 0.002342 404.97977 425.65009
422.0 0.002370 404.97964 425.98355
430.0 0.002326 404.97940 426.31580
431.0 0.002320 404.97934 426.64606
427.0 0.002342 404.97919 426.97433
424.0 0.002358 404.97910 427.30026
416.0 0.002404 404.97910 427.62378
416.0 0.002404 404.97913 427.94495
437.0 0.002288 404.97931 428.26340
451.0 0.002217 404.97940 428.57916
444.0 0.002252 404.97968 428.89236
434.0 0.002304 404.97989 429.20291
443.0 0.002257 404.98019 429.51093
445.0 0.002247 404.98050 429.81638
450.0 0.002222 404.98080 430.11975
458.0 0.002183 404.98126 430.42068
452.0 0.002212 404.98175 430.71973
446.0 0.002242 404.98233 431.01706
414.0 0.002415 404.98294 431.31259
412.0 0.002427 404.98352 431.60699
451.0 0.002217 404.98428 431.89996
452.0 0.002212 404.98499 432.19202
466.0 0.002146 404.98581 432.48334
448.0 0.002232 404.98657 432.77402
423.0 0.002364 404.98746 433.06421
429.0 0.002331 404.98843 433.35403
418.0 0.002392 404.98929 433.64371
430.0 0.002326 404.99045 433.93335
456.0 0.002193 404.99139 434.22284
475.0 0.002105 404.99249 434.51196
464.0 0.002155 404.99374 434.80099
451.0 0.002217 404.99487 435.08984
448.0 0.002232 404.99619 435.37823
457.0 0.002188 404.99753 435.66592
473.0 0.002114 404.99881 435.95288
458.0 0.002183 405.00027 436.23856
467.0 0.002141 405.00162 436.52283
448.0 0.002232 405.00314 436.80508
427.0 0.002342 405.00464 437.08508
414.0 0.002415 405.00629 437.36224
447.0 0.002237 405.00790 437.63608
460.0 0.002174 405.00967 437.90588
468.0 0.002137 405.01123 438.17084
456.0 0.002193 405.01306 438.43054
457.0 0.002188 405.01477 438.68420
459.0 0.002179 405.01675 438.93088
457.0 0.002188 405.01868 439.17007
469.0 0.002132 405.02060 439.40054
472.0 0.002119 405.02264 439.62146
469.0 0.002132 405.02472 439.47952
458.0 0.002183 405.02676 439.68188
452.0 0.002212 405.02887 439.87195
457.0 0.002188 405.03107 440.04865
458.0 0.002183 405.03333 440.21124
461.0 0.002169 405.03568 440.35864
469.0 0.002132 405.03790 440.48993
470.0 0.002128 405.04031 440.60419
476.0 0.002101 405.04263 440.70062
442.0 0.002262 405.04520 440.77841
438.0 0.002283 405.04761 440.83682
493.0 0.002028 405.05020 440.87491
486.0 0.002058 405.05283 440.89243
484.0 0.002066 405.05551 440.88855
494.0 0.002024 405.05811 440.86307
481.0 0.002079 405.06088 440.81540
484.0 0.002066 405.06372 440.74570
480.0 0.002083 405.06647 440.65353
478.0 0.002092 405.06940 440.53894
484.0 0.002066 405.07224 440.40219
478.0 0.002092 405.07523 440.24347
472.0 0.002119 405.07813 440.06332
469.0 0.002132 405.08124 439.87555
471.0 0.002123 405.08429 439.65378
479.0 0.002088 405.08749 439.41226
483.0 0.002070 405.09061 439.15167
472.0 0.002119 405.09381 438.87296
466.0 0.002146 405.09708 438.57718
458.0 0.002183 405.10043 438.26535
428.0 0.002336 405.10379 437.93842
427.0 0.002342 405.10718 437.59781
453.0 0.002208 405.11057 437.24460
468.0 0.002137 405.11404 436.88031
469.0 0.002132 405.11755 436.50586
464.0 0.002155 405.12106 436.12265
453.0 0.002208 405.12469 435.73224
462.0 0.002165 405.12830 435.33591
461.0 0.002169 405.13205 434.93488
453.0 0.002208 405.13568 434.53076
456.0 0.002193 405.13950 434.12466
461.0 0.002169 405.14337 433.71808
441.0 0.002268 405.14719 433.31235
436.0 0.002294 405.15121 432.90863
457.0 0.002188 405.15515 432.50842
462.0 0.002165 405.15912 432.11288
460.0 0.002174 405.16315 431.72339
461.0 0.002169 405.16727 431.34103
441.0 0.002268 405.17123 430.96716
432.0 0.002315 405.17548 430.60294
408.0 0.002451 405.17966 430.24945
399.0 0.002506 405.18393 429.90796
427.0 0.002342 405.18817 429.57938
436.0 0.002294 405.19247 429.26480
445.0 0.002247 405.19696 428.96555
440.0 0.002273 405.20123 428.68231
436.0 0.002294 405.20578 428.41620
443.0 0.002257 405.21021 428.16800
435.0 0.002299 405.21469 427.93588
432.0 0.002315 405.21924 427.72650
445.0 0.002247 405.22388 427.53772
466.0 0.002146 405.22852 427.37030
460.0 0.002174 405.23325 427.22510
448.0 0.002232 405.23792 427.10260
434.0 0.002304 405.24268 427.00357
418.0 0.002392 405.24753 426.92889
438.0 0.002283 405.25241 426.87872
438.0 0.002283 405.25720 426.85382
426.0 0.002347 405.26215 426.85464
432.0 0.002315 405.26718 426.88159
407.0 0.002457 405.27225 426.93509
396.0 0.002525 405.27722 427.01538
425.0 0.002353 405.28226 427.12286
438.0 0.002283 405.28741 427.25769
436.0 0.002294 405.29257 427.42020
435.0 0.002299 405.29779 427.61038
433.0 0.002309 405.30307 427.82846
435.0 0.002299 405.30838 428.07428
435.0 0.002299 405.31369 428.34793
415.0 0.002410 405.31900 428.64935
440.0 0.002273 405.32440 428.97842
445.0 0.002247 405.32986 429.33472
436.0 0.002294 405.33536 429.71832
426.0 0.002347 405.34067 430.12888
419.0 0.002387 405.34634 430.56592
434.0 0.002304 405.35187 431.02902
447.0 0.002237 405.35757 431.46210
455.0 0.002198 405.36325 431.97638
437.0 0.002288 405.36893 432.51529
431.0 0.002320 405.37466 433.07800
399.0 0.002506 405.38040 433.66382
398.0 0.002513 405.38629 434.27213
434.0 0.002304 405.39215 434.90198
454.0 0.002203 405.39789 435.55258
460.0 0.002174 405.40387 436.22284
445.0 0.002247 405.40982 436.91208
437.0 0.002288 405.41595 437.61893
434.0 0.002304 405.42191 438.34250
425.0 0.002353 405.42804 439.08142
427.0 0.002342 405.43405 439.83466
438.0 0.002283 405.44025 440.60080
446.0 0.002242 405.44644 441.37848
427.0 0.002342 405.45261 442.16641
426.0 0.002347 405.45883 442.96298
433.0 0.002309 405.46509 443.76688
448.0 0.002232 405.47147 444.57635
455.0 0.002198 405.47800 445.38986
432.0 0.002315 405.48425 446.20551
426.0 0.002347 405.49066 447.02182
442.0 0.002262 405.49716 447.83701
414.0 0.002415 405.50372 448.64896
416.0 0.002404 405.51016 449.45578
437.0 0.002288 405.51675 450.25586
439.0 0.002278 405.52338 451.04675
443.0 0.002257 405.52994 451.82672
430.0 0.002326 405.53668 452.59341
433.0 0.002309 405.54340 453.34500
442.0 0.002262 405.55014 454.07910
435.0 0.002299 405.55695 454.79382
429.0 0.002331 405.56372 455.48645
432.0 0.002315 405.57053 456.15524
443.0 0.002257 405.57739 456.79794
443.0 0.002257 405.58429 457.41220
446.0 0.002242 405.59122 457.99612
446.0 0.002242 405.59833 458.54739
439.0 0.002278 405.60522 459.06418
451.0 0.002217 405.61224 459.54428
465.0 0.002151 405.61938 459.98596
453.0 0.002208 405.62650 460.38742
450.0 0.002222 405.63367 460.74701
442.0 0.002262 405.64075 461.06317
436.0 0.002294 405.64810 461.33456
444.0 0.002252 405.65533 461.55988
469.0 0.002132 405.66263 461.73831
475.0 0.002105 405.66992 461.86874
468.0 0.002137 405.67722 461.95068
448.0 0.002232 405.68460 461.98380
442.0 0.002262 405.69196 461.96768
428.0 0.002336 405.69949 461.90231
425.0 0.002353 405.70691 461.78802
450.0 0.002222 405.71457 461.62509
463.0 0.002160 405.72189 461.41412
437.0 0.002288 405.72952 461.15601
433.0 0.002309 405.73706 460.85156
433.0 0.002309 405.74475 460.50211
435.0 0.002299 405.75235 460.10889
450.0 0.002222 405.76010 459.67334
428.0 0.002336 405.76782 459.19699
431.0 0.002320 405.77551 458.68179
449.0 0.002227 405.78326 458.12912
423.0 0.002364 405.79108 457.54126
412.0 0.002427 405.79901 456.92004
445.0 0.002247 405.80679 456.26730
447.0 0.002237 405.81473 455.58514
464.0 0.002155 405.82263 454.87570
456.0 0.002193 405.83063 454.14096
445.0 0.002247 405.83856 453.38312
430.0 0.002326 405.84665 452.60397
426.0 0.002347 405.85458 451.80560
451.0 0.002217 405.86276 450.99011
454.0 0.002203 405.87091 450.15952
466.0 0.002146 405.87897 449.31543
452.0 0.002212 405.88708 448.45996
444.0 0.002252 405.89539 447.59503
430.0 0.002326 405.90366 446.72208
428.0 0.002336 405.91177 445.84320
464.0 0.002155 405.92004 444.95984
452.0 0.002212 405.92841 444.07330
454.0 0.002203 405.93677 443.18570
445.0 0.002247 405.94507 442.29813
402.0 0.002488 405.95346 441.41214
394.0 0.002538 405.96194 440.52899
438.0 0.002283 405.97031 439.65002
441.0 0.002268 405.97891 438.77643
437.0 0.002288 405.98734 437.90933
428.0 0.002336 405.99594 437.04996
423.0 0.002364 406.00449 436.19904
425.0 0.002353 406.01300 435.35797
420.0 0.002381 406.02161 434.52750
414.0 0.002415 406.03033 433.70831
433.0 0.002309 406.03897 432.90146
446.0 0.002242 406.04761 432.10739
436.0 0.002294 406.05637 431.32718
435.0 0.002299 406.06506 430.56110
415.0 0.002410 406.07391 429.80981
411.0 0.002433 406.08267 429.07416
431.0 0.002320 406.09155 428.35397
422.0 0.002370 406.10034 427.54095
433.0 0.002309 406.10919 426.85471
438.0 0.002283 406.11823 426.18530
399.0 0.002506 406.12708 425.53311
393.0 0.002545 406.13611 424.89835
427.0 0.002342 406.14499 424.28107
432.0 0.002315 406.15396 423.68149
440.0 0.002273 406.16293 423.09961
420.0 0.002381 406.17200 422.53564
399.0 0.002506 406.18109 421.98938
403.0 0.002481 406.19019 421.46109
417.0 0.002398 406.19937 420.95044
404.0 0.002475 406.20847 420.45728
415.0 0.002410 406.21774 419.98172
429.0 0.002331 406.22684 419.52353
416.0 0.002404 406.23599 419.08234
416.0 0.002404 406.24533 418.65808
415.0 0.002410 406.25464 418.25058
418.0 0.002392 406.26395 417.85934
424.0 0.002358 406.27319 417.48434
428.0 0.002336 406.28253 417.12521
411.0 0.002433 406.29190 416.78128
417.0 0.002398 406.30121 416.45261
396.0 0.002525 406.31079 416.13858
381.0 0.002625 406.32016 415.83911
414.0 0.002415 406.32953 415.55341
418.0 0.002392 406.33905 415.28156
428.0 0.002336 406.34854 415.02267
416.0 0.002404 406.35797 414.77667
417.0 0.002398 406.36761 414.54294
420.0 0.002381 406.37704 414.32120
416.0 0.002404 406.38666 414.11096
417.0 0.002398 406.39636 413.91174
441.0 0.002268 406.40591 413.72321
441.0 0.002268 406.41559 413.54477
417.0 0.002398 406.42538 413.37622
407.0 0.002457 406.43491 413.21698
416.0 0.002404 406.44467 413.06662
420.0 0.002381 406.45447 412.92471
422.0 0.002370 406.46417 412.79095
419.0 0.002387 406.47397 412.66467
419.0 0.002387 406.48376 412.54587
418.0 0.002392 406.49353 412.43372
381.0 0.002625 406.50330 412.32809
376.0 0.002660 406.51321 412.22842
411.0 0.002433 406.52316 412.13449
419.0 0.002387 406.53305 412.04572
422.0 0.002370 406.54300 411.96201
408.0 0.002451 406.55289 411.88281
401.0 0.002494 406.56274 411.80780
414.0 0.002415 406.57275 411.73682
409.0 0.002445 406.58276 411.66928
411.0 0.002433 406.59274 411.60504
420.0 0.002381 406.60278 411.54367
421.0 0.002375 406.61285 411.48511
414.0 0.002415 406.62296 411.42883
412.0 0.002427 406.63303 411.37488
408.0 0.002451 406.64316 411.08844
408.0 0.002451 406.65329 411.03986
419.0 0.002387 406.66336 410.99274
417.0 0.002398 406.67355 410.94699
419.0 0.002387 406.68375 410.90219
422.0 0.002370 406.69391 410.85843
390.0 0.002564 406.70410 410.81519
396.0 0.002525 406.71436 410.77264
431.0 0.002320 406.72458 410.73062
435.0 0.002299 406.73489 410.68872
424.0 0.002358 406.74515 410.64740
428.0 0.002336 406.75543 410.60605
421.0 0.002375 406.76572 410.56491
428.0 0.002336 406.77609 410.52380
418.0 0.002392 406.78641 410.48267
408.0 0.002451 406.79684 410.44156
416.0 0.002404 406.80713 410.40033
433.0 0.002309 406.81760 410.35901
435.0 0.002299 406.82794 410.31760
417.0 0.002398 406.83841 410.27625
409.0 0.002445 406.84879 410.23462
423.0 0.002364 406.85931 410.19305
429.0 0.002331 406.86975 410.15143
417.0 0.002398 406.88028 410.10968
411.0 0.002433 406.89078 410.06799
431.0 0.002320 406.90131 410.02621
407.0 0.002457 406.91183 409.98453
406.0 0.002463 406.92236 409.94305
433.0 0.002309 406.93292 409.90155
428.0 0.002336 406.94348 409.86011
428.0 0.002336 406.95410 409.81894
413.0 0.002421 406.96475 409.77802
420.0 0.002381 406.97528 409.73730
416.0 0.002404 406.98599 409.69678
408.0 0.002451 406.99658 409.65677
408.0 0.002451 407.00726 409.61694
412.0 0.002427 407.01801 409.57767
422.0 0.002370 407.02859 409.53870
422.0 0.002370 407.03934 409.50015
431.0 0.002320 407.04999 409.46216
421.0 0.002375 407.06076 409.42480
426.0 0.002347 407.07156 409.38791
430.0 0.002326 407.08228 409.35153
419.0 0.002387 407.09308 409.31583
428.0 0.002336 407.10379 409.28079
415.0 0.002410 407.11456 409.24640
386.0 0.002591 407.12531 409.21268
372.0 0.002688 407.13617 409.17975
397.0 0.002519 407.14700 409.14740
406.0 0.002463 407.15790 409.11594
409.0 0.002445 407.16870 409.08502
415.0 0.002410 407.17969 409.05518
406.0 0.002463 407.19043 409.02606
415.0 0.002410 407.20129 408.99765
407.0 0.002457 407.21216 408.97003
389.0 0.002571 407.22311 408.94342
412.0 0.002427 407.23401 408.91760
431.0 0.002320 407.24493 408.89249
412.0 0.002427 407.25586 408.86832
403.0 0.002481 407.26678 408.84500
401.0 0.002494 407.27780 408.82239
402.0 0.002488 407.28873 408.80075
416.0 0.002404 407.29971 408.77991
417.0 0.002398 407.31073 408.75986
410.0 0.002439 407.32166 408.74075
413.0 0.002421 407.33273 408.72232
390.0 0.002564 407.34372 408.70483
382.0 0.002618 407.35483 408.68799
403.0 0.002481 407.36578 408.67209
422.0 0.002370 407.37683 408.65689
423.0 0.002364 407.38788 408.64246
406.0 0.002463 407.39899 408.62894
399.0 0.002506 407.41003 408.61606
398.0 0.002513 407.42111 408.61264
398.0 0.002513 407.43222 408.60129
396.0 0.002525 407.44330 408.59067
416.0 0.002404 407.45438 408.58069
428.0 0.002336 407.46552 408.57138
402.0 0.002488 407.47662 408.56271
396.0 0.002525 407.48782 408.55463
394.0 0.002538 407.49893 408.54718
402.0 0.002488 407.50998 408.54044
422.0 0.002370 407.52115 408.53421
425.0 0.002353 407.53235 408.52856
414.0 0.002415 407.54361 408.52344
407.0 0.002457 407.55472 408.51886
377.0 0.002653 407.56580 408.51486
359.0 0.002786 407.57700 408.51126
396.0 0.002525 407.58823 408.50815
412.0 0.002427 407.59952 408.50552
426.0 0.002347 407.61072 408.50342
402.0 0.002488 407.62173 408.50153
403.0 0.002481 407.63300 408.50027
409.0 0.002445 407.64429 408.49939
403.0 0.002481 407.65549 408.49875
393.0 0.002545 407.66669 408.49869
415.0 0.002410 407.67795 408.49890
427.0 0.002342 407.68927 408.49930
424.0 0.002358 407.70050 408.50021
408.0 0.002451 407.71170 408.50131
404.0 0.002475 407.72296 408.50272
414.0 0.002415 407.73425 408.50458
415.0 0.002410 407.74548 408.50650
410.0 0.002439 407.75674 408.50891
404.0 0.002475 407.76810 408.51132
405.0 0.002469 407.77933 408.51422
371.0 0.002695 407.79062 408.51709
379.0 0.002639 407.80188 408.52042
403.0 0.002481 407.81329 408.52371
410.0 0.002439 407.82455 408.52740
407.0 0.002457 407.83585 408.53137
406.0 0.002463 407.84708 408.53525
395.0 0.002532 407.85858 408.53976
399.0 0.002506 407.86975 408.54395
401.0 0.002494 407.88107 408.54852
404.0 0.002475 407.89236 408.55316
417.0 0.002398 407.90378 408.55798
437.0 0.002288 407.91498 408.56287
410.0 0.002439 407.92642 408.56812
406.0 0.002463 407.93762 408.57336
399.0 0.002506 407.94891 408.57880
410.0 0.002439 407.96036 408.58423
424.0 0.002358 407.97171 408.58987
418.0 0.002392 407.98300 408.59561
410.0 0.002439 407.99442 408.60150
411.0 0.002433 408.00571 408.60748
380.0 0.002632 408.01712 408.61340
368.0 0.002717 408.02841 408.61969
420.0 0.002381 408.03976 408.62589
423.0 0.002364 408.05112 408.63220
425.0 0.002353 408.06247 408.63864
423.0 0.002364 408.07379 408.64514
409.0 0.002445 408.08527 408.65173
407.0 0.002457 408.09656 408.65842
394.0 0.002538 408.10791 408.66516
399.0 0.002506 408.11923 408.67200
409.0 0.002445 408.13058 408.67883
409.0 0.002445 408.14188 408.68576
390.0 0.002564 408.15326 408.69287
392.0 0.002551 408.16461 408.69992
396.0 0.002525 408.17599 408.70700
400.0 0.002500 408.18738 408.71423
402.0 0.002488 408.19867 408.72159
397.0 0.002519 408.21008 408.72891
389.0 0.002571 408.22134 408.73624
388.0 0.002577 408.23270 408.74371
364.0 0.002747 408.24420 408.75116
362.0 0.002762 408.25534 408.75885
396.0 0.002525 408.26675 408.76639
406.0 0.002463 408.27820 408.77399
416.0 0.002404 408.28949 408.78177
408.0 0.002451 408.30081 408.78952
399.0 0.002506 408.31213 408.79727
402.0 0.002488 408.32349 408.80518
394.0 0.002538 408.33484 408.81305
393.0 0.002545 408.34619 408.82089
408.0 0.002451 408.35745 408.82883
420.0 0.002381 408.36880 408.83698
401.0 0.002494 408.38016 408.84500
396.0 0.002525 408.39154 408.85309
400.0 0.002500 408.40283 408.86133
399.0 0.002506 408.41415 408.86951
417.0 0.002398 408.42548 408.87762
408.0 0.002451 408.43683 408.88593
411.0 0.002433 408.44806 408.89410
440.0 0.002273 408.45941 408.90265
389.0 0.002571 408.47073 408.91086
382.0 0.002618 408.48199 408.91937
410.0 0.002439 408.49332 408.54028
412.0 0.002427 408.50458 408.55148
410.0 0.002439 408.51599 408.56262
400.0 0.002500 408.52719 408.57388
405.0 0.002469 408.53848 408.58511
411.0 0.002433 408.54968 408.59637
403.0 0.002481 408.56097 408.60760
399.0 0.002506 408.57220 408.86099
405.0 0.002469 408.58353 408.87396
409.0 0.002445 408.59482 408.88687
403.0 0.002481 408.60605 408.89990
407.0 0.002457 408.61740 408.91306
405.0 0.002469 408.62860 408.92627
405.0 0.002469 408.63983 408.93906
419.0 0.002387 408.65103 408.95236
406.0 0.002463 408.66226 408.96533
393.0 0.002545 408.67340 408.97858
403.0 0.002481 408.68481 408.99158
373.0 0.002681 408.69586 409.00488
358.0 0.002793 408.70703 409.01813
416.0 0.002404 408.71832 409.03116
414.0 0.002415 408.72946 409.04456
417.0 0.002398 408.74066 409.05783
414.0 0.002415 408.75192 409.07123
416.0 0.002404 408.76306 409.08453
407.0 0.002457 408.77420 409.09784
398.0 0.002513 408.78537 409.11130
404.0 0.002475 408.79645 409.12469
428.0 0.002336 408.80765 409.13818
441.0 0.002268 408.81882 409.15158
426.0 0.002347 408.83002 409.16516
405.0 0.002469 408.84100 409.17868
399.0 0.002506 408.85217 409.19217
411.0 0.002433 408.86337 409.20584
424.0 0.002358 408.87448 409.21948
408.0 0.002451 408.88550 409.23306
398.0 0.002513 408.89664 409.24673
403.0 0.002481 408.90771 409.26044
367.0 0.002725 408.91873 409.27420
366.0 0.002732 408.92984 409.28796
404.0 0.002475 408.94092 409.30188
406.0 0.002463 408.95190 409.31570
419.0 0.002387 408.96298 409.32962
423.0 0.002364 408.97397 409.34366
411.0 0.002433 408.98514 409.35751
406.0 0.002463 408.99600 409.37155
397.0 0.002519 409.00708 409.38556
391.0 0.002558 409.01797 409.39963
428.0 0.002336 409.02902 409.41379
424.0 0.002358 409.04004 409.42795
416.0 0.002404 409.05096 409.44229
406.0 0.002463 409.06198 409.45657
398.0 0.002513 409.07285 409.47092
394.0 0.002538 409.08395 409.48523
418.0 0.002392 409.09473 409.49966
414.0 0.002415 409.10565 409.51413
404.0 0.002475 409.11664 409.52878
409.0 0.002445 409.12747 409.54343
379.0 0.002639 409.13837 409.55807
374.0 0.002674 409.14926 409.57278
410.0 0.002439 409.16006 409.58755
409.0 0.002445 409.17096 409.60245
409.0 0.002445 409.18182 409.61755
404.0 0.002475 409.19257 409.61874
396.0 0.002525 409.20343 409.63406
403.0 0.002481 409.21423 409.64926
395.0 0.002532 409.22504 409.66470
395.0 0.002532 409.23596 409.68027
406.0 0.002463 409.24673 409.69580
415.0 0.002410 409.25745 409.71149
404.0 0.002475 409.26822 409.72733
412.0 0.002427 409.27893 409.74313
409.0 0.002445 409.28973 409.75912
410.0 0.002439 409.30048 409.77521
425.0 0.002353 409.31113 409.79150
433.0 0.002309 409.32181 409.80771
427.0 0.002342 409.33252 409.82434
419.0 0.002387 409.34314 409.84094
386.0 0.002591 409.35382 409.85779
378.0 0.002646 409.36447 409.87463
407.0 0.002457 409.37509 409.89169
416.0 0.002404 409.38568 409.90891
420.0 0.002381 409.39630 409.92621
420.0 0.002381 409.40692 410.65503
403.0 0.002481 409.41763 410.69214
410.0 0.002439 409.42804 410.71637
413.0 0.002421 409.43860 410.74084
397.0 0.002519 409.44910 410.76572
406.0 0.002463 409.45969 410.79080
418.0 0.002392 409.47034 410.81622
399.0 0.002506 409.48068 410.84198
399.0 0.002506 409.49118 410.86795
403.0 0.002481 409.50168 410.89444
410.0 0.002439 409.51227 410.92114
420.0 0.002381 409.52267 410.94818
414.0 0.002415 409.53308 410.97568
401.0 0.002494 409.54346 411.00348
405.0 0.002469 409.55392 411.03156
381.0 0.002625 409.56430 411.06021
379.0 0.002639 409.57462 411.08926
402.0 0.002488 409.58505 411.11874
421.0 0.002375 409.59546 411.14865
433.0 0.002309 409.60568 411.17889
418.0 0.002392 409.61600 411.20963
412.0 0.002427 409.62631 411.24094
408.0 0.002451 409.63672 411.27258
408.0 0.002451 409.64688 411.30475
398.0 0.002513 409.65710 411.33755
416.0 0.002404 409.66739 411.37064
429.0 0.002331 409.67764 411.40442
419.0 0.002387 409.68784 411.43860
414.0 0.002415 409.69797 411.47339
413.0 0.002421 409.70822 411.50873
423.0 0.002364 409.71838 411.54480
420.0 0.002381 409.72849 411.58121
413.0 0.002421 409.73865 411.61819
415.0 0.002410 409.74878 411.65598
416.0 0.002404 409.75894 411.69418
375.0 0.002667 409.76898 411.73309
362.0 0.002762 409.77905 411.77249
404.0 0.002475 409.78906 411.81274
411.0 0.002433 409.79929 411.85349
414.0 0.002415 409.80917 411.89484
412.0 0.002427 409.81921 411.93689
416.0 0.002404 409.82916 411.97955
409.0 0.002445 409.83917 412.02289
402.0 0.002488 409.84909 412.06702
401.0 0.002494 409.85898 412.11163
426.0 0.002347 409.86899 412.15717
434.0 0.002304 409.87888 412.20313
421.0 0.002375 409.88879 412.24994
424.0 0.002358 409.89868 412.29730
404.0 0.002475 409.90842 412.34549
412.0 0.002427 409.91830 412.39438
417.0 0.002398 409.92813 412.44394
419.0 0.002387 409.93799 412.49420
430.0 0.002326 409.94778 412.54517
424.0 0.002358 409.95752 412.59686
399.0 0.002506 409.96732 412.64920
390.0 0.002564 409.97693 412.70230
417.0 0.002398 409.98676 412.75613
430.0 0.002326 409.99640 412.81076
444.0 0.002252 410.00601 412.86594
422.0 0.002370 410.01575 412.92191
413.0 0.002421 410.02539 412.97861
412.0 0.002427 410.03500 413.03607
408.0 0.002451 410.04453 413.09433
400.0 0.002500 410.05408 413.15311
410.0 0.002439 410.06366 413.21283
425.0 0.002353 410.07324 413.27322
421.0 0.002375 410.08282 413.33441
415.0 0.002410 410.09241 413.39648
410.0 0.002439 410.10168 413.45926
415.0 0.002410 410.11130 413.52258
431.0 0.002320 410.12070 413.58698
419.0 0.002387 410.13010 413.65207
407.0 0.002457 410.13959 413.71808
424.0 0.002358 410.14899 413.78488
408.0 0.002451 410.15833 413.85263
393.0 0.002545 410.16766 413.92130
426.0 0.002347 410.17706 413.99081
430.0 0.002326 410.18637 414.06146
429.0 0.002331 410.19565 414.13300
414.0 0.002415 410.20493 414.20544
409.0 0.002445 410.21417 414.27917
417.0 0.002398 410.22330 414.35388
410.0 0.002439 410.23270 414.43008
404.0 0.002475 410.24179 414.50742
434.0 0.002304 410.25095 414.58603
446.0 0.002242 410.26013 414.66620
432.0 0.002315 410.26926 414.74789
418.0 0.002392 410.27829 414.83102
422.0 0.002370 410.28748 414.91599
423.0 0.002364 410.29651 415.00272
438.0 0.002283 410.30557 415.09164
430.0 0.002326 410.31458 415.18265
430.0 0.002326 410.32364 415.32928
426.0 0.002347 410.33270 415.42538
390.0 0.002564 410.34158 415.52402
376.0 0.002660 410.35059 415.62549
423.0 0.002364 410.35947 415.72989
431.0 0.002320 410.36841 415.83762
431.0 0.002320 410.37729 415.94879
424.0 0.002358 410.38617 416.06372
409.0 0.002445 410.39496 416.22815
418.0 0.002392 410.40384 416.35159
414.0 0.002415 410.41260 416.47989
423.0 0.002364 410.42139 416.61304
433.0 0.002309 410.43011 416.75140
438.0 0.002283 410.43890 416.89532
429.0 0.002331 410.44769 417.04517
430.0 0.002326 410.45630 417.20151
415.0 0.002410 410.46503 417.36459
423.0 0.002364 410.47363 417.53476
441.0 0.002268 410.48227 417.71262
430.0 0.002326 410.49091 417.89838
434.0 0.002304 410.49942 418.09271
433.0 0.002309 410.50809 418.29611
404.0 0.002475 410.51660 418.50879
395.0 0.002532 410.52505 418.73163
434.0 0.002304 410.53366 418.96490
448.0 0.002232 410.54211 419.20923
437.0 0.002288 410.55051 419.46512
427.0 0.002342 410.55902 419.73312
425.0 0.002353 410.56744 420.01382
440.0 0.002273 410.57571 420.30789
417.0 0.002398 410.58414 420.61566
412.0 0.002427 410.59256 420.93808
433.0 0.002309 410.60080 421.27560
438.0 0.002283 410.60904 421.62885
415.0 0.002410 410.61740 421.99841
409.0 0.002445 410.62567 422.38489
421.0 0.002375 410.63394 422.78925
428.0 0.002336 410.64206 423.21173
434.0 0.002304 410.65024 423.65314
435.0 0.002299 410.65833 424.11423
426.0 0.002347 410.66656 424.59549
454.0 0.002203 410.67468 425.09775
415.0 0.002410 410.68283 425.62161
394.0 0.002538 410.69089 426.16763
445.0 0.002247 410.69891 426.73660
453.0 0.002208 410.70694 427.32904
449.0 0.002227 410.71494 427.94562
447.0 0.002237 410.72287 428.58704
462.0 0.002165 410.73090 429.25369
453.0 0.002208 410.73874 429.94650
442.0 0.002262 410.74670 430.66586
433.0 0.002309 410.75449 431.41226
451.0 0.002217 410.76248 432.18643
460.0 0.002174 410.77020 432.98868
445.0 0.002247 410.77811 433.81961
438.0 0.002283 410.78589 434.67978
438.0 0.002283 410.79364 435.56937
458.0 0.002183 410.80139 436.48889
466.0 0.002146 410.80911 437.43878
449.0 0.002227 410.81680 438.41925
448.0 0.002232 410.82446 439.43060
452.0 0.002212 410.83212 440.47308
419.0 0.002387 410.83975 441.54663
409.0 0.002445 410.84726 442.65170
445.0 0.002247 410.85489 443.78815
454.0 0.002203 410.86243 444.95612
450.0 0.002222 410.87003 446.15546
443.0 0.002257 410.87750 447.38599
437.0 0.002288 410.88492 448.64767
457.0 0.002188 410.89246 449.94000
442.0 0.002262 410.89987 451.26279
447.0 0.002237 410.90735 452.61557
470.0 0.002128 410.91470 453.99780
476.0 0.002101 410.92209 455.40906
459.0 0.002179 410.92929 456.84833
453.0 0.002208 410.93658 458.31512
465.0 0.002151 410.94391 459.80841
454.0 0.002203 410.95123 461.32736
466.0 0.002146 410.95840 462.87091
464.0 0.002155 410.96567 464.43768
462.0 0.002165 410.97281 466.02646
463.0 0.002160 410.97995 467.63617
436.0 0.002294 410.98715 469.26498
426.0 0.002347 410.99420 470.91144
451.0 0.002217 411.00134 472.57388
472.0 0.002119 411.00842 474.25040
491.0 0.002037 411.01550 475.93921
473.0 0.002114 411.02246 477.63840
480.0 0.002083 411.02945 479.34570
475.0 0.002105 411.03638 481.05890
470.0 0.002128 411.04327 482.77573
455.0 0.002198 411.05035 484.49405
481.0 0.002079 411.05713 486.21100
495.0 0.002020 411.06403 487.92438
490.0 0.002041 411.07086 489.63132
484.0 0.002066 411.07764 491.32944
493.0 0.002028 411.08441 493.01587
483.0 0.002070 411.09125 494.68762
501.0 0.001996 411.09799 496.34229
495.0 0.002020 411.10474 497.97675
501.0 0.001996 411.11139 499.58826
499.0 0.002004 411.11801 501.17404
468.0 0.002137 411.12473 502.73105
458.0 0.002183 411.13135 504.25665
485.0 0.002062 411.13800 505.74780
497.0 0.002012 411.14447 507.20184
503.0 0.001988 411.15091 508.61606
502.0 0.001992 411.15744 509.98730
485.0 0.002062 411.16397 511.31332
496.0 0.002016 411.17038 512.59131
488.0 0.002049 411.17697 513.81860
490.0 0.002041 411.18335 514.99274
502.0 0.001992 411.18970 516.11121
522.0 0.001916 411.19611 517.17145
517.0 0.001934 411.20242 518.17120
502.0 0.001992 411.20874 519.10815
499.0 0.002004 411.21503 519.98035
508.0 0.001969 411.22131 520.78510
532.0 0.001880 411.22751 521.52069
535.0 0.001869 411.23373 522.18512
523.0 0.001912 411.23993 522.77649
519.0 0.001927 411.24612 523.29321
503.0 0.001988 411.25226 523.73328
490.0 0.002041 411.25842 524.09546
510.0 0.001961 411.26453 524.37848
514.0 0.001946 411.27042 524.58099
555.0 0.001802 411.27652 524.70215
540.0 0.001852 411.28262 524.74133
533.0 0.001876 411.28857 524.69757
527.0 0.001898 411.29443 524.57080
509.0 0.001965 411.30051 524.36084
504.0 0.001984 411.30630 524.06793
533.0 0.001876 411.31226 523.69202
573.0 0.001745 411.31805 523.23438
553.0 0.001808 411.32388 522.69580
546.0 0.001832 411.32980 522.07733
524.0 0.001908 411.33545 521.38049
523.0 0.001912 411.34128 520.60699
524.0 0.001908 411.34705 519.75897
515.0 0.001942 411.35275 518.83844
512.0 0.001953 411.35843 517.84790
518.0 0.001931 411.36404 516.78998
474.0 0.002110 411.36963 515.66742
471.0 0.002123 411.37534 514.48340
514.0 0.001946 411.38086 513.24091
527.0 0.001898 411.38638 511.94324
553.0 0.001808 411.39194 510.59369
544.0 0.001838 411.39749 509.19577
527.0 0.001898 411.40289 507.75284
520.0 0.001923 411.40842 506.26849
518.0 0.001931 411.41376 504.74619
526.0 0.001901 411.41922 503.18945
518.0 0.001931 411.42459 501.60190
517.0 0.001934 411.43005 499.98697
504.0 0.001984 411.43527 498.34805
500.0 0.002000 411.44055 496.68851
502.0 0.001992 411.44577 495.01163
521.0 0.001919 411.45108 493.32065
516.0 0.001938 411.45636 491.61884
510.0 0.001961 411.46155 489.90912
503.0 0.001988 411.46667 488.19434
492.0 0.002033 411.47177 486.47751
465.0 0.002151 411.47696 484.76138
466.0 0.002146 411.48203 483.04868
501.0 0.001996 411.48721 481.34146
504.0 0.001984 411.49219 479.64267
496.0 0.002016 411.49716 477.95435
494.0 0.002024 411.50217 476.27881
492.0 0.002033 411.50714 474.61795
487.0 0.002053 411.51215 472.97409
471.0 0.002123 411.51703 471.34869
464.0 0.002155 411.52194 469.74365
512.0 0.001953 411.52686 468.16058
515.0 0.001942 411.53171 466.60107
488.0 0.002049 411.53647 465.06641
481.0 0.002079 411.54120 463.55817
484.0 0.002066 411.54605 462.07730
494.0 0.002024 411.55078 460.62485
505.0 0.001980 411.55551 459.20221
479.0 0.002088 411.56015 457.80981
475.0 0.002105 411.56485 456.44885
475.0 0.002105 411.56946 455.11981
451.0 0.002217 411.57419 453.82339
450.0 0.002222 411.57877 452.56027
475.0 0.002105 411.58328 451.33087
474.0 0.002110 411.58780 450.13525
460.0 0.002174 411.59229 448.97406
455.0 0.002198 411.59689 447.84735
445.0 0.002247 411.60135 446.75528
463.0 0.002160 411.60571 445.69803
459.0 0.002179 411.61023 444.67557
453.0 0.002208 411.61456 443.68759
458.0 0.002183 411.61896 442.73422
466.0 0.002146 411.62329 441.81522
464.0 0.002155 411.62766 440.93039
450.0 0.002222 411.63196 440.07919
438.0 0.002283 411.63626 439.26147
445.0 0.002247 411.64044 438.47693
452.0 0.002212 411.64468 437.72482
467.0 0.002141 411.64883 437.00491
459.0 0.002179 411.65311 436.31647
458.0 0.002183 411.65717 435.65912
428.0 0.002336 411.66122 435.03204
436.0 0.002294 411.66544 434.43466
465.0 0.002151 411.66953 433.86627
466.0 0.002146 411.67349 433.32632
481.0 0.002079 411.67758 432.81387
456.0 0.002193 411.68155 432.32837
441.0 0.002268 411.68555 431.86890
455.0 0.002198 411.68951 431.43469
448.0 0.002232 411.69342 431.02515
453.0 0.002208 411.69748 430.63916
468.0 0.002137 411.70123 430.27606
465.0 0.002151 411.70511 429.93484
438.0 0.002283 411.70901 429.61496
427.0 0.002342 411.71268 429.31531
430.0 0.002326 411.71649 429.03528
447.0 0.002237 411.72018 428.77390
451.0 0.002217 411.72394 428.53012
441.0 0.002268 411.72778 428.30350
435.0 0.002299 411.73141 428.09311
437.0 0.002288 411.73502 427.89780
407.0 0.002457 411.73877 427.71698
407.0 0.002457 411.74225 427.54993
439.0 0.002278 411.74600 427.39600
434.0 0.002304 411.74945 427.25391
447.0 0.002237 411.75311 427.12350
450.0 0.002222 411.75653 427.00357
438.0 0.002283 411.76007 426.89349
434.0 0.002304 411.76355 426.79272
419.0 0.002387 411.76709 426.70071
424.0 0.002358 411.77051 426.61661
447.0 0.002237 411.77386 426.53970
449.0 0.002227 411.77722 426.46951
434.0 0.002304 411.78061 426.40555
427.0 0.002342 411.78394 426.34720
424.0 0.002358 411.78726 426.29376
428.0 0.002336 411.79047 426.24512
442.0 0.002262 411.79382 426.20044
432.0 0.002315 411.79712 426.15948
424.0 0.002358 411.80029 426.12170
429.0 0.002331 411.80341 426.08682
424.0 0.002358 411.80661 426.05438
407.0 0.002457 411.80978 426.02405
440.0 0.002273 411.81299 425.99530
446.0 0.002242 411.81601 425.96805
444.0 0.002252 411.81918 425.94196
431.0 0.002320 411.82224 425.91660
427.0 0.002342 411.82529 425.89166
415.0 0.002410 411.82822 425.86685
406.0 0.002463 411.83133 425.84201
408.0 0.002451 411.83432 425.81693
429.0 0.002331 411.83728 425.79114
452.0 0.002212 411.84015 425.76450
443.0 0.002257 411.84299 425.73669
433.0 0.002309 411.84592 425.70758
428.0 0.002336 411.84882 425.67688
443.0 0.002257 411.85162 425.64426
446.0 0.002242 411.85446 425.60956
443.0 0.002257 411.85724 425.57260
429.0 0.002331 411.85999 425.53305
441.0 0.002268 411.86285 425.49081
412.0 0.002427 411.86554 425.44537
398.0 0.002513 411.86816 425.39697
431.0 0.002320 411.87085 425.34494
430.0 0.002326 411.87363 425.28949
436.0 0.002294 411.87625 425.23029
422.0 0.002370 411.87881 425.16690
419.0 0.002387 411.88141 425.09970
428.0 0.002336 411.88397 425.02814
439.0 0.002278 411.88669 424.95224
429.0 0.002331 411.88919 424.87173
441.0 0.002268 411.89169 424.78680
448.0 0.002232 411.89417 424.69727
426.0 0.002347 411.89661 424.60297
422.0 0.002370 411.89917 424.50388
428.0 0.002336 411.90149 424.40018
434.0 0.002304 411.90396 424.29187
451.0 0.002217 411.90637 424.17883
440.0 0.002273 411.90866 424.06128
434.0 0.002304 411.91113 423.93045
426.0 0.002347 411.91342 423.80420
388.0 0.002577 411.91571 423.67358
388.0 0.002577 411.91809 423.53888
419.0 0.002387 411.92026 423.40033
432.0 0.002315 411.92252 423.25793
443.0 0.002257 411.92471 423.11197
442.0 0.002262 411.92706 422.96271
428.0 0.002336 411.92914 422.81027
429.0 0.002331 411.93134 422.65506
413.0 0.002421 411.93353 422.49701
413.0 0.002421 411.93564 422.33664
437.0 0.002288 411.93781 422.17404
438.0 0.002283 411.93985 422.00952
418.0 0.002392 411.94186 421.84326
417.0 0.002398 411.94388 421.67535
422.0 0.002370 411.94604 421.50641
424.0 0.002358 411.94797 421.33643
432.0 0.002315 411.95004 421.16562
434.0 0.002304 411.95200 420.99432
420.0 0.002381 411.95398 420.82269
427.0 0.002342 411.95593 420.65097
391.0 0.002558 411.95786 420.47934
387.0 0.002584 411.95975 420.30792
423.0 0.002364 411.96161 420.13699
426.0 0.002347 411.96350 419.96686
430.0 0.002326 411.96527 419.79755
426.0 0.002347 411.96719 419.62915
419.0 0.002387 411.96893 419.46188
419.0 0.002387 411.97070 419.29614
406.0 0.002463 411.97250 419.16946
400.0 0.002500 411.97415 419.00702
420.0 0.002381 411.97604 418.84628
432.0 0.002315 411.97772 418.68750
423.0 0.002364 411.97934 418.53061
421.0 0.002375 411.98108 418.37579
424.0 0.002358 411.98279 418.22324
429.0 0.002331 411.98434 418.07281
439.0 0.002278 411.98602 417.92487
435.0 0.002299 411.98761 417.77933
434.0 0.002304 411.98926 417.63632
446.0 0.002242 411.99088 417.49585
405.0 0.002469 411.99240 417.35794
394.0 0.002538 411.99405 417.22269
420.0 0.002381 411.99557 417.09036
425.0 0.002353 411.99692 416.96054
446.0 0.002242 411.99847 416.83371
432.0 0.002315 411.99994 416.70953
424.0 0.002358 412.00134 416.58829
423.0 0.002364 412.00287 416.46988
408.0 0.002451 412.00427 416.35434
410.0 0.002439 412.00565 416.24155
416.0 0.002404 412.00708 416.13181
425.0 0.002353 412.00851 416.02472
417.0 0.002398 412.00980 415.92068
419.0 0.002387 412.01120 415.81937
420.0 0.002381 412.01254 415.72092
410.0 0.002439 412.01385 415.62534
436.0 0.002294 412.01511 415.55023
430.0 0.002326 412.01642 415.46011
429.0 0.002331 412.01767 415.37292
434.0 0.002304 412.01889 415.28836
393.0 0.002545 412.02014 415.20642
376.0 0.002660 412.02136 415.12698
409.0 0.002445 412.02264 415.05032
431.0 0.002320 412.02374 414.97601
440.0 0.002273 412.02499 414.90424
422.0 0.002370 412.02618 414.83490
415.0 0.002410 412.02725 414.76791
416.0 0.002404 412.02838 414.70328
414.0 0.002415 412.02957 414.64090
408.0 0.002451 412.03061 414.58075
425.0 0.002353 412.03171 414.52280
429.0 0.002331 412.03275 414.46680
429.0 0.002331 412.03384 414.41296
414.0 0.002415 412.03491 414.36118
403.0 0.002481 412.03595 414.31125
406.0 0.002463 412.03699 414.26321
417.0 0.002398 412.03796 414.21701
418.0 0.002392 412.03906 414.17255
418.0 0.002392 412.03998 414.12979
422.0 0.002370 412.04092 414.08878
394.0 0.002538 412.04181 414.04919
379.0 0.002639 412.04282 414.01135
409.0 0.002445 412.04373 413.97482
409.0 0.002445 412.04477 413.93985
428.0 0.002336 412.04553 413.90619
432.0 0.002315 412.04642 413.87396
414.0 0.002415 412.04736 413.84286
416.0 0.002404 412.04816 413.81293
411.0 0.002433 412.04907 413.78442
412.0 0.002427 412.04984 413.75699
430.0 0.002326 412.05084 413.73050
446.0 0.002242 412.05154 413.70526
415.0 0.002410 412.05225 413.68088
402.0 0.002488 412.05316 413.65741
409.0 0.002445 412.05389 413.63510
424.0 0.002358 412.05463 413.61346
432.0 0.002315 412.05548 413.59277
417.0 0.002398 412.05618 413.57275
404.0 0.002475 412.05695 413.55362
407.0 0.002457 412.05759 413.53525
388.0 0.002577 412.05838 413.51749
375.0 0.002667 412.05905 412.67477
401.0 0.002494 412.05972 412.66452
416.0 0.002404 412.06046 412.65500
412.0 0.002427 412.06119 412.64590
410.0 0.002439 412.06171 412.63736
400.0 0.002500 412.06247 412.62912
405.0 0.002469 412.06308 412.62146
403.0 0.002481 412.06369 412.61411
398.0 0.002513 412.06418 412.60739
414.0 0.002415 412.06488 412.60092
413.0 0.002421 412.06543 412.59470
400.0 0.002500 412.06613 412.58899
391.0 0.002558 412.06668 412.58356
396.0 0.002525 412.06717 412.57855
402.0 0.002488 412.06781 412.57379
420.0 0.002381 412.06836 412.56924
421.0 0.002375 412.06888 412.56512
409.0 0.002445 412.06946 412.56122
411.0 0.002433 412.06989 412.55759
384.0 0.002604 412.07056 412.55414
374.0 0.002674 412.07101 412.55103
414.0 0.002415 412.07159 412.54822
425.0 0.002353 412.07205 412.54553
435.0 0.002299 412.07248 412.54303
415.0 0.002410 412.07288 412.54089
414.0 0.002415 412.07339 412.53897
411.0 0.002433 412.07382 412.53714
416.0 0.002404 412.07425 412.53561
423.0 0.002364 412.07477 412.53442
439.0 0.002278 412.07516 412.53329
437.0 0.002288 412.07565 412.53247
424.0 0.002358 412.07611 412.53177
411.0 0.002433 412.07651 412.53140
415.0 0.002410 412.07697 412.53128
411.0 0.002433 412.07730 412.53119
427.0 0.002342 412.07764 412.53146
423.0 0.002364 412.07813 412.53192
419.0 0.002387 412.07852 412.53256
420.0 0.002381 412.07886 412.53369
380.0 0.002632 412.07932 412.65277
374.0 0.002674 412.07962 412.65521
410.0 0.002439 412.07993 412.65802
425.0 0.002353 412.08035 412.66113
419.0 0.002387 412.08066 412.67145
419.0 0.002387 412.08102 412.67508
419.0 0.002387 412.08145 412.67920
429.0 0.002331 412.08170 412.68362
407.0 0.002457 412.08197 412.68845
412.0 0.002427 412.08231 412.69363
420.0 0.002381 412.08270 412.69922
421.0 0.002375 412.08298 412.70520
400.0 0.002500 412.08325 412.71149
399.0 0.002506 412.08359 412.71838
404.0 0.002475 412.08401 412.72562
399.0 0.002506 412.08417 412.73337
411.0 0.002433 412.08450 412.74164
415.0 0.002410 412.08475 412.75034
398.0 0.002513 412.08511 412.75961
399.0 0.002506 412.08545 412.76962
372.0 0.002688 412.08563 412.77991
365.0 0.002740 412.08585 412.79089
405.0 0.002469 412.08609 412.80276
417.0 0.002398 412.08643 412.81494
424.0 0.002358 412.08667 412.82813
441.0 0.002268 412.08694 412.84183
415.0 0.002410 412.08731 412.85635
412.0 0.002427 412.08752 412.87164
410.0 0.002439 412.08786 412.88766
405.0 0.002469 412.08804 412.90454
422.0 0.002370 412.08823 412.92233
425.0 0.002353 412.08862 412.94098
412.0 0.002427 412.08884 412.96057
421.0 0.002375 412.08908 412.98102
423.0 0.002364 412.08932 413.00247
414.0 0.002415 412.08951 413.02496
420.0 0.002381 412.08972 413.04840
410.0 0.002439 412.09009 413.05981
407.0 0.002457 412.09024 413.08551
409.0 0.002445 412.09052 413.11234
383.0 0.002611 412.09070 413.14038
379.0 0.002639 412.09091 413.16959
409.0 0.002445 412.09131 413.19983
425.0 0.002353 412.09146 413.23151
439.0 0.002278 412.09177 413.26437
418.0 0.002392 412.09198 413.29861
411.0 0.002433 412.09219 413.33405
420.0 0.002381 412.09235 413.37061
407.0 0.002457 412.09265 413.40866
397.0 0.002519 412.09296 413.45895
418.0 0.002392 412.09314 413.49979
430.0 0.002326 412.09341 413.54221
415.0 0.002410 412.09366 413.58585
403.0 0.002481 412.09390 413.63086
399.0 0.002506 412.09409 413.67734
403.0 0.002481 412.09442 413.72519
418.0 0.002392 412.09464 413.77448
405.0 0.002469 412.09494 413.82510
396.0 0.002525 412.09515 413.87726
395.0 0.002532 412.09540 413.93076
373.0 0.002681 412.09570 413.98566
376.0 0.002660 412.09589 414.04199
394.0 0.002538 412.09619 414.09967
410.0 0.002439 412.09647 414.15860
420.0 0.002381 412.09677 414.21902
410.0 0.002439 412.09695 414.28064
393.0 0.002545 412.09723 414.34360
397.0 0.002519 412.09747 414.40768
390.0 0.002564 412.09775 414.47296
387.0 0.002584 412.09808 414.53949
414.0 0.002415 412.09845 414.60706
420.0 0.002381 412.09872 414.67578
402.0 0.002488 412.09903 414.74533
405.0 0.002469 412.09937 414.81607
402.0 0.002488 412.09964 414.88748
406.0 0.002463 412.09998 414.95993
431.0 0.002320 412.10022 415.03293
433.0 0.002309 412.10059 415.10678
409.0 0.002445 412.10092 415.18127
422.0 0.002370 412.10120 415.25629
389.0 0.002571 412.10162 415.33173
376.0 0.002660 412.10199 415.40756
411.0 0.002433 412.10229 415.48358
424.0 0.002358 412.10254 415.55978
421.0 0.002375 412.10291 415.63629
407.0 0.002457 412.10333 415.71262
399.0 0.002506 412.10376 415.78891
411.0 0.002433 412.10410 415.86484
408.0 0.002451 412.10449 415.94067
396.0 0.002525 412.10486 416.01584
416.0 0.002404 412.10541 416.09064
417.0 0.002398 412.10571 416.16476
406.0 0.002463 412.10611 416.23798
398.0 0.002513 412.10648 416.31039
394.0 0.002538 412.10703 416.38181
403.0 0.002481 412.10742 416.45190
427.0 0.002342 412.10785 416.52087
421.0 0.002375 412.10831 416.58847
403.0 0.002481 412.10880 416.65457
413.0 0.002421 412.10925 416.71893
386.0 0.002591 412.10968 416.78156
375.0 0.002667 412.11020 416.84250
405.0 0.002469 412.11066 416.90140
405.0 0.002469 412.11111 416.95825
417.0 0.002398 412.11166 417.01297
419.0 0.002387 412.11227 417.06540
422.0 0.002370 412.11282 417.11563
411.0 0.002433 412.11331 417.16336
402.0 0.002488 412.11383 417.20877
397.0 0.002519 412.11441 417.25180
409.0 0.002445 412.11499 417.29208
421.0 0.002375 412.11557 417.32993
405.0 0.002469 412.11615 417.36520
406.0 0.002463 412.11667 417.39798
403.0 0.002481 412.11737 417.42831
411.0 0.002433 412.11795 417.45618
423.0 0.002364 412.11862 417.48151
430.0 0.002326 412.11926 417.50470
418.0 0.002392 412.11987 417.52542
413.0 0.002421 412.12061 417.54416
376.0 0.002660 412.12134 417.56076
369.0 0.002710 412.12201 417.57556
406.0 0.002463 412.12259 417.58859
423.0 0.002364 412.12335 417.59985
429.0 0.002331 412.12418 417.60980
422.0 0.002370 412.12485 417.61844
413.0 0.002421 412.12564 417.62613
411.0 0.002433 412.12628 417.63269
410.0 0.002439 412.12711 417.63876
406.0 0.002463 412.12787 417.64432
418.0 0.002392 412.12869 417.57269
424.0 0.002358 412.12958 417.57843
409.0 0.002445 412.13040 417.58426
404.0 0.002475 412.13113 417.59042
402.0 0.002488 412.13214 417.59744
401.0 0.002494 412.13297 417.60507
421.0 0.002375 412.13379 417.61380
417.0 0.002398 412.13483 417.62381
412.0 0.002427 412.13568 417.63519
401.0 0.002494 412.13657 417.65341
369.0 0.002710 412.13760 417.66855
367.0 0.002725 412.13855 417.68564
401.0 0.002494 412.13950 417.70529
404.0 0.002475 412.14050 417.72739
416.0 0.002404 412.14139 417.75226
410.0 0.002439 412.14249 417.77988
404.0 0.002475 412.14352 417.81070
411.0 0.002433 412.14456 417.84470
411.0 0.002433 412.14560 417.88220
409.0 0.002445 412.14679 417.92346
423.0 0.002364 412.14792 417.96835
430.0 0.002326 412.14890 418.01709
412.0 0.002427 412.15012 418.06989
411.0 0.002433 412.15128 418.12695
416.0 0.002404 412.15250 418.18835
428.0 0.002336 412.15369 418.25424
449.0 0.002227 412.15488 418.35944
426.0 0.002347 412.15607 418.43469
421.0 0.002375 412.15714 418.51462
431.0 0.002320 412.15857 418.59943
391.0 0.002558 412.15991 418.68906
371.0 0.002695 412.16113 418.78351
416.0 0.002404 412.16245 418.88300
414.0 0.002415 412.16379 418.98746
427.0 0.002342 412.16510 419.09674
409.0 0.002445 412.16647 419.21112
404.0 0.002475 412.16797 419.33047
413.0 0.002421 412.16925 419.45459
404.0 0.002475 412.17075 419.58386
402.0 0.002488 412.17218 419.71786
418.0 0.002392 412.17361 419.85672
434.0 0.002304 412.17511 420.00018
419.0 0.002387 412.17654 420.14822
408.0 0.002451 412.17822 420.30084
405.0 0.002469 412.17966 420.45773
408.0 0.002451 412.18115 420.61880
425.0 0.002353 412.18274 420.78418
410.0 0.002439 412.18445 420.95334
407.0 0.002457 412.18610 421.12610
410.0 0.002439 412.18768 421.30258
381.0 0.002625 412.18942 421.48239
386.0 0.002591 412.19107 421.66544
416.0 0.002404 412.19278 421.85132
434.0 0.002304 412.19455 422.03992
435.0 0.002299 412.19620 422.23074
435.0 0.002299 412.19812 422.42398
428.0 0.002336 412.19986 422.61911
424.0 0.002358 412.20166 422.81589
429.0 0.002331 412.20352 423.01389
416.0 0.002404 412.20538 423.21304
448.0 0.002232 412.20731 423.41299
450.0 0.002222 412.20926 423.61334
424.0 0.002358 412.21124 423.81396
418.0 0.002392 412.21326 424.01434
414.0 0.002415 412.21518 424.21414
407.0 0.002457 412.21719 424.41324
428.0 0.002336 412.21927 424.61124
424.0 0.002358 412.22128 424.80756
418.0 0.002392 412.22345 425.00220
429.0 0.002331 412.22549 425.19455
396.0 0.002525 412.22754 425.38443
387.0 0.002584 412.22980 425.57138
416.0 0.002404 412.23203 425.75510
432.0 0.002315 412.23416 425.93506
434.0 0.002304 412.23633 426.11099
425.0 0.002353 412.23862 426.28247
413.0 0.002421 412.24097 426.44940
423.0 0.002364 412.24323 426.61087
410.0 0.002439 412.24554 426.76694
401.0 0.002494 412.24799 426.91699
417.0 0.002398 412.25043 427.06085
435.0 0.002299 412.25284 427.19778
424.0 0.002358 412.25528 427.32773
425.0 0.002353 412.25760 427.45029
426.0 0.002347 412.26022 427.56479
431.0 0.002320 412.26273 427.67139
443.0 0.002257 412.26538 427.76929
444.0 0.002252 412.26785 427.85855
437.0 0.002288 412.27054 427.93863
431.0 0.002320 412.27313 428.00940
409.0 0.002445 412.27588 428.07053
416.0 0.002404 412.27844 428.12195
432.0 0.002315 412.28119 428.16324
423.0 0.002364 412.28391 428.19443
427.0 0.002342 412.28671 428.21552
432.0 0.002315 412.28955 428.22607
436.0 0.002294 412.29230 428.22626
424.0 0.002358 412.29526 428.21613
410.0 0.002439 412.29819 428.19565
417.0 0.002398 412.30106 428.16486
441.0 0.002268 412.30399 428.12399
444.0 0.002252 412.30698 428.07312
425.0 0.002353 412.31003 428.01233
419.0 0.002387 412.31302 427.94193
414.0 0.002415 412.31616 427.86221
428.0 0.002336 412.31924 427.77338
437.0 0.002288 412.32245 427.67575
428.0 0.002336 412.32562 427.56967
426.0 0.002347 412.32883 427.45547
440.0 0.002273 412.33206 427.33350
398.0 0.002513 412.33524 427.20398
388.0 0.002577 412.33853 427.06775
435.0 0.002299 412.34186 426.92465
457.0 0.002188 412.34518 426.77533
443.0 0.002257 412.34857 426.62030
424.0 0.002358 412.35202 426.45975
407.0 0.002457 412.35544 426.29431
422.0 0.002370 412.35889 426.12408
417.0 0.002398 412.36249 425.94968
415.0 0.002410 412.36600 425.77133
423.0 0.002364 412.36957 425.58942
428.0 0.002336 412.37323 425.40454
424.0 0.002358 412.37683 425.21692
442.0 0.002262 412.38055 425.02658
438.0 0.002283 412.38428 424.83435
430.0 0.002326 412.38797 424.64011
438.0 0.002283 412.39172 424.44458
440.0 0.002273 412.39560 424.24786
438.0 0.002283 412.39944 424.05005
438.0 0.002283 412.40341 423.85187
412.0 0.002427 412.40720 423.65308
409.0 0.002445 412.41119 423.56223
428.0 0.002336 412.41513 423.36435
427.0 0.002342 412.41916 423.16681
436.0 0.002294 412.42337 422.96967
430.0 0.002326 412.42740 422.77335
436.0 0.002294 412.43155 422.57785
435.0 0.002299 412.43570 422.38358
424.0 0.002358 412.43988 422.19052
418.0 0.002392 412.44412 421.99887
426.0 0.002347 412.44843 421.80881
445.0 0.002247 412.45267 421.62039
423.0 0.002364 412.45703 421.43365
409.0 0.002445 412.46140 421.24908
406.0 0.002463 412.46579 421.06653
419.0 0.002387 412.47028 420.88617
424.0 0.002358 412.47479 420.70819
419.0 0.002387 412.47925 420.53259
425.0 0.002353 412.48386 420.35950
433.0 0.002309 412.48840 420.18918
408.0 0.002451 412.49316 420.02139
399.0 0.002506 412.49780 419.85645
434.0 0.002304 412.50253 419.69452
441.0 0.002268 412.50732 419.53561
442.0 0.002262 412.51208 419.37955
430.0 0.002326 412.51691 419.22684
424.0 0.002358 412.52176 419.07727
415.0 0.002410 412.52670 418.93109
409.0 0.002445 412.53171 418.78839
412.0 0.002427 412.53665 418.64886
431.0 0.002320 412.54166 418.51294
442.0 0.002262 412.54678 418.38058
419.0 0.002387 412.55188 418.25186
410.0 0.002439 412.55707 418.12683
415.0 0.002410 412.56213 418.00555
418.0 0.002392 412.56735 417.88800
430.0 0.002326 412.57275 417.77414
422.0 0.002370 412.57800 417.66428
414.0 0.002415 412.58340 417.55811
419.0 0.002387 412.58865 417.45596
387.0 0.002584 412.59424 417.35764
387.0 0.002584 412.59964 417.26321
426.0 0.002347 412.60513 417.17276
426.0 0.002347 412.61066 417.08630
432.0 0.002315 412.61630 417.00391
435.0 0.002299 412.62192 416.92526
428.0 0.002336 412.62766 416.85077
438.0 0.002283 412.63333 416.78012
420.0 0.002381 412.63901 416.71353
409.0 0.002445 412.64487 416.65091
421.0 0.002375 412.65073 416.59225
430.0 0.002326 412.65665 416.53735
419.0 0.002387 412.66248 416.48651
405.0 0.002469 412.66855 416.43964
405.0 0.002469 412.67462 416.39655
406.0 0.002463 412.68057 416.35718
416.0 0.002404 412.68671 416.32178
414.0 0.002415 412.69284 416.29025
405.0 0.002469 412.69897 416.26233
413.0 0.002421 412.70529 416.23822
386.0 0.002591 412.71158 416.21768
375.0 0.002667 412.71790 416.20093
408.0 0.002451 412.72433 416.18771
427.0 0.002342 412.73056 416.17804
434.0 0.002304 412.73718 416.17197
419.0 0.002387 412.74362 416.16937
416.0 0.002404 412.75009 416.16998
407.0 0.002457 412.75677 416.17429
405.0 0.002469 412.76343 416.18167
413.0 0.002421 412.77002 416.19229
424.0 0.002358 412.77676 416.20612
423.0 0.002364 412.78354 416.22305
417.0 0.002398 412.79034 416.24295
406.0 0.002463 412.79721 416.26590
407.0 0.002457 412.80411 416.29166
409.0 0.002445 412.81110 416.32028
417.0 0.002398 412.81812 416.35172
419.0 0.002387 412.82516 416.38562
421.0 0.002375 412.83215 416.42212
415.0 0.002410 412.83926 416.46118
395.0 0.002532 412.84644 416.46466
397.0 0.002519 412.85379 416.50836
414.0 0.002415 412.86099 416.55463
426.0 0.002347 412.86832 416.60275
437.0 0.002288 412.87564 416.65298
426.0 0.002347 412.88306 416.70493
414.0 0.002415 412.89056 416.75861
414.0 0.002415 412.89816 416.81384
411.0 0.002433 412.90567 416.87067
418.0 0.002392 412.91324 416.92889
434.0 0.002304 412.92093 416.98831
434.0 0.002304 412.92865 417.04880
427.0 0.002342 412.93628 417.11029
422.0 0.002370 412.94427 417.17267
421.0 0.002375 412.95203 417.23569
430.0 0.002326 412.95990 417.29929
442.0 0.002262 412.96780 417.36349
424.0 0.002358 412.97595 417.42783
423.0 0.002364 412.98389 417.49246
428.0 0.002336 412.99194 417.55704
402.0 0.002488 413.00021 417.62131
384.0 0.002604 413.00842 417.68549
401.0 0.002494 413.01666 417.74927
419.0 0.002387 413.02481 417.81244
440.0 0.002273 413.03329 417.87473
429.0 0.002331 413.04160 417.93628
414.0 0.002415 413.05005 417.99686
417.0 0.002398 413.05862 418.05627
399.0 0.002506 413.06708 418.11447
406.0 0.002463 413.07571 418.17111
431.0 0.002320 413.08438 418.22635
430.0 0.002326 413.09314 418.27994
431.0 0.002320 413.10187 418.33295
422.0 0.002370 413.11063 418.38287
415.0 0.002410 413.11945 418.43085
438.0 0.002283 413.12842 418.47690
450.0 0.002222 413.13724 418.52072
451.0 0.002217 413.14624 418.56241
446.0 0.002242 413.15540 418.60196
438.0 0.002283 413.16434 418.63919
416.0 0.002404 413.17368 418.67410
406.0 0.002463 413.18304 418.70676
429.0 0.002331 413.19202 418.73712
435.0 0.002299 413.20145 418.76523
448.0 0.002232 413.21078 418.79120
436.0 0.002294 413.22034 418.81488
436.0 0.002294 413.22980 418.83646
437.0 0.002288 413.23920 418.85608
424.0 0.002358 413.24881 418.87372
428.0 0.002336 413.25845 418.88937
443.0 0.002257 413.26816 418.90359
454.0 0.002203 413.27798 418.91599
441.0 0.002268 413.28766 418.92688
437.0 0.002288 413.29749 418.93637
433.0 0.002309 413.30743 418.94495
436.0 0.002294 413.31726 418.95221
439.0 0.002278 413.32742 418.95877
428.0 0.002336 413.33746 418.96445
424.0 0.002358 413.34750 418.96973
431.0 0.002320 413.35767 418.97455
415.0 0.002410 413.36801 418.97919
415.0 0.002410 413.37833 418.98389
435.0 0.002299 413.38864 418.98877
439.0 0.002278 413.39899 418.99396
449.0 0.002227 413.40942 418.99979
457.0 0.002188 413.41992 419.00613
442.0 0.002262 413.43039 419.01349
438.0 0.002283 413.44107 419.02194
422.0 0.002370 413.45181 419.03149
427.0 0.002342 413.46252 419.04251
437.0 0.002288 413.47327 419.05515
438.0 0.002283 413.48407 419.06958
432.0 0.002315 413.49496 419.08582
446.0 0.002242 413.50592 419.10419
443.0 0.002257 413.51691 419.12473
442.0 0.002262 413.52805 419.14764
445.0 0.002247 413.53906 419.17328
447.0 0.002237 413.55032 419.20132
453.0 0.002208 413.56152 419.23230
460.0 0.002174 413.57272 419.26614
428.0 0.002336 413.58401 419.30304
415.0 0.002410 413.59549 419.34308
449.0 0.002227 413.60699 419.38641
443.0 0.002257 413.61856 419.43314
434.0 0.002304 413.63010 419.48346
423.0 0.002364 413.64157 419.53711
415.0 0.002410 413.65335 419.59454
417.0 0.002398 413.66507 419.65579
419.0 0.002387 413.67688 419.72055
415.0 0.002410 413.68881 419.78912
426.0 0.002347 413.70059 419.86172
437.0 0.002288 413.71255 419.93805
418.0 0.002392 413.72458 420.01843
414.0 0.002415 413.73666 420.10257
409.0 0.002445 413.74881 420.19055
416.0 0.002404 413.76111 420.28262
434.0 0.002304 413.77332 420.37827
423.0 0.002364 413.78558 420.47791
423.0 0.002364 413.79819 420.58105
434.0 0.002304 413.81046 420.68802
402.0 0.002488 413.82300 420.79852
393.0 0.002545 413.83548 420.91269
424.0 0.002358 413.84818 421.03015
427.0 0.002342 413.86075 421.15094
429.0 0.002331 413.87357 421.27478
434.0 0.002304 413.88623 421.42844
419.0 0.002387 413.89926 421.55844
412.0 0.002427 413.91202 421.69101
403.0 0.002481 413.92502 421.82620
409.0 0.002445 413.93805 422.04688
430.0 0.002326 413.95117 422.18692
452.0 0.002212 413.96423 422.32901
415.0 0.002410 413.97751 422.47284
410.0 0.002439 413.99081 422.61780
403.0 0.002481 414.00412 422.76413
417.0 0.002398 414.01749 422.91129
434.0 0.002304 414.03088 423.05923
433.0 0.002309 414.04434 423.20734
417.0 0.002398 414.05801 423.35556
419.0 0.002387 414.07159 423.50354
392.0 0.002551 414.08530 423.65094
385.0 0.002597 414.09906 423.79742
412.0 0.002427 414.11276 423.94278
427.0 0.002342 414.12671 424.08649
450.0 0.002222 414.14072 424.22818
445.0 0.002247 414.15469 424.36768
443.0 0.002257 414.16870 424.50461
431.0 0.002320 414.18283 424.63852
416.0 0.002404 414.19690 424.64774
402.0 0.002488 414.21124 424.77542
425.0 0.002353 414.22552 424.89914
436.0 0.002294 414.24002 425.01816
424.0 0.002358 414.25430 425.13245
417.0 0.002398 414.26883 425.24152
397.0 0.002519 414.28333 425.34500
407.0 0.002457 414.29807 425.44263
426.0 0.002347 414.31265 425.53403
461.0 0.002169 414.32733 425.61887
441.0 0.002268 414.34222 425.69696
427.0 0.002342 414.35699 425.76779
396.0 0.002525 414.37195 425.83130
394.0 0.002538 414.38696 425.88718
420.0 0.002381 414.40192 425.93539
440.0 0.002273 414.41699 425.97562
437.0 0.002288 414.43222 426.00769
425.0 0.002353 414.44751 426.03125
413.0 0.002421 414.46268 426.04672
418.0 0.002392 414.47800 426.05368
404.0 0.002475 414.49365 426.05234
411.0 0.002433 414.50909 426.04254
435.0 0.002299 414.52454 426.02423
436.0 0.002294 414.54022 425.99777
411.0 0.002433 414.55585 425.96307
400.0 0.002500 414.57162 425.92017
413.0 0.002421 414.58734 425.86938
420.0 0.002381 414.60315 425.81110
420.0 0.002381 414.61911 425.74515
421.0 0.002375 414.63510 425.67191
420.0 0.002381 414.65121 425.59177
422.0 0.002370 414.66730 425.50476
395.0 0.002532 414.68344 425.41135
389.0 0.002571 414.69968 425.31177
418.0 0.002392 414.71597 425.20645
433.0 0.002309 414.73233 425.09540
436.0 0.002294 414.74884 424.97919
426.0 0.002347 414.76535 424.85828
418.0 0.002392 414.78189 424.73270
428.0 0.002336 414.79849 424.60300
422.0 0.002370 414.81525 424.46933
406.0 0.002463 414.83197 424.33243
417.0 0.002398 414.84875 424.19208
427.0 0.002342 414.86557 424.04889
411.0 0.002433 414.88260 423.90326
425.0 0.002353 414.89951 423.75543
440.0 0.002273 414.91663 423.60562
436.0 0.002294 414.93381 423.45413
445.0 0.002247 414.95105 423.30148
438.0 0.002283 414.96823 423.14780
433.0 0.002309 414.98563 422.99332
432.0 0.002315 415.00290 422.83835
393.0 0.002545 415.02039 422.68320
383.0 0.002611 415.03806 422.52817
418.0 0.002392 415.05557 422.37329
426.0 0.002347 415.07318 422.21906
430.0 0.002326 415.09088 422.06552
417.0 0.002398 415.10870 421.91299
421.0 0.002375 415.12650 421.76160
420.0 0.002381 415.14456 421.61148
407.0 0.002457 415.16238 421.46295
403.0 0.002481 415.18045 421.31635
426.0 0.002347 415.19861 421.17145
445.0 0.002247 415.21677 421.02859
423.0 0.002364 415.23502 420.88809
403.0 0.002481 415.25327 420.74976
391.0 0.002558 415.27161 420.61404
390.0 0.002564 415.29007 420.48077
406.0 0.002463 415.30853 420.35022
410.0 0.002439 415.32718 420.22244
410.0 0.002439 415.34579 420.09756
411.0 0.002433 415.36453 419.97574
387.0 0.002584 415.38333 419.85681
380.0 0.002632 415.40207 419.74091
412.0 0.002427 415.42096 419.62851
429.0 0.002331 415.43997 419.51907
424.0 0.002358 415.45901 419.41290
422.0 0.002370 415.47809 419.31018
425.0 0.002353 415.49722 419.21057
423.0 0.002364 415.51642 419.11441
407.0 0.002457 415.53574 419.02158
410.0 0.002439 415.55515 418.93210
421.0 0.002375 415.57455 418.89606
451.0 0.002217 415.59402 418.81360
431.0 0.002320 415.61359 418.73459
414.0 0.002415 415.63318 418.65869
419.0 0.002387 415.65277 418.58621
413.0 0.002421 415.67264 418.51706
421.0 0.002375 415.69247 418.43719
421.0 0.002375 415.71234 418.37445
420.0 0.002381 415.73230 418.31500
441.0 0.002268 415.75229 418.25851
394.0 0.002538 415.77234 418.20523
385.0 0.002597 415.79248 418.15488
405.0 0.002469 415.81268 418.10724
420.0 0.002381 415.83295 418.06284
424.0 0.002358 415.85336 418.02115
406.0 0.002463 415.87369 417.98212
399.0 0.002506 415.89420 417.94595
403.0 0.002481 415.91470 417.91238
401.0 0.002494 415.93536 417.88144
403.0 0.002481 415.95609 417.85294
412.0 0.002427 415.97678 417.82697
425.0 0.002353 415.99762 417.80334
406.0 0.002463 416.01849 417.78210
402.0 0.002488 416.03943 417.76306
398.0 0.002513 416.06033 417.74615
415.0 0.002410 416.08145 417.73141
423.0 0.002364 416.10260 417.71881
420.0 0.002381 416.12390 417.70807
401.0 0.002494 416.14508 417.69931
408.0 0.002451 416.16635 417.69241
380.0 0.002632 416.18787 417.68735
384.0 0.002604 416.20932 417.68402
419.0 0.002387 416.23077 417.68243
423.0 0.002364 416.25238 417.68234
420.0 0.002381 416.27411 417.68399
414.0 0.002415 416.29587 417.68710
440.0 0.002273 416.31772 417.69171
422.0 0.002370 416.33960 417.69766
409.0 0.002445 416.36145 417.70517
399.0 0.002506 416.38342 417.71390
421.0 0.002375 416.40552 417.72391
424.0 0.002358 416.42767 417.73526
414.0 0.002415 416.44986 417.74786
404.0 0.002475 416.47217 417.76157
406.0 0.002463 416.49442 417.77652
419.0 0.002387 416.51685 417.79272
435.0 0.002299 416.53931 417.80991
424.0 0.002358 416.56189 417.82828
417.0 0.002398 416.58453 417.84772
430.0 0.002326 416.60712 417.86832
391.0 0.002558 416.62979 417.89008
385.0 0.002597 416.65268 417.91275
413.0 0.002421 416.67560 417.93661
428.0 0.002336 416.69852 417.96140
420.0 0.002381 416.72141 417.98737
421.0 0.002375 416.74454 418.01447
419.0 0.002387 416.76767 418.04236
430.0 0.002326 416.79083 418.07159
424.0 0.002358 416.81415 418.10202
398.0 0.002513 416.83737 418.13348
418.0 0.002392 416.86072 418.16623
423.0 0.002364 416.88422 418.19998
418.0 0.002392 416.90784 418.23523
423.0 0.002364 416.93146 418.27145
420.0 0.002381 416.95508 418.30905
417.0 0.002398 416.97873 418.34799
432.0 0.002315 417.00262 418.38843
426.0 0.002347 417.02655 418.43030
416.0 0.002404 417.05038 418.47336
420.0 0.002381 417.07440 418.51822
400.0 0.002500 417.09839 418.56458
393.0 0.002545 417.12253 418.61252
420.0 0.002381 417.14676 418.66211
421.0 0.002375 417.17099 418.71347
429.0 0.002331 417.19534 419.42786
415.0 0.002410 417.21967 419.48755
419.0 0.002387 417.24417 419.54926
429.0 0.002331 417.26868 419.61310
411.0 0.002433 417.29324 419.67892
409.0 0.002445 417.31793 419.74695
422.0 0.002370 417.34250 419.81744
427.0 0.002342 417.36737 419.89017
410.0 0.002439 417.39227 419.96521
403.0 0.002481 417.41724 420.04291
397.0 0.002519 417.44208 420.12308
402.0 0.002488 417.46704 420.20609
425.0 0.002353 417.49228 420.29175
422.0 0.002370 417.51749 420.38016
415.0 0.002410 417.54269 420.47171
427.0 0.002342 417.56799 420.56610
404.0 0.002475 417.59332 420.66354
398.0 0.002513 417.61877 420.78741
428.0 0.002336 417.64432 420.89139
430.0 0.002326 417.66986 420.99887
441.0 0.002268 417.69553 421.10983
429.0 0.002331 417.72119 421.22406
421.0 0.002375 417.74692 421.34189
437.0 0.002288 417.77283 421.46359
421.0 0.002375 417.79861 422.03827
406.0 0.002463 417.82465 422.17041
423.0 0.002364 417.85059 422.30652
433.0 0.002309 417.87671 422.44659
419.0 0.002387 417.90286 422.59070
427.0 0.002342 417.92911 422.73871
414.0 0.002415 417.95538 422.89096
417.0 0.002398 417.98181 423.04736
424.0 0.002358 418.00809 423.20807
420.0 0.002381 418.03464 423.37289
413.0 0.002421 418.06116 423.54208
415.0 0.002410 418.08777 423.71539
388.0 0.002577 418.11444 423.89307
387.0 0.002584 418.14114 424.07513
413.0 0.002421 418.16800 424.26154
424.0 0.002358 418.19482 424.45218
438.0 0.002283 418.22174 424.64716
422.0 0.002370 418.24869 424.84628
413.0 0.002421 418.27588 425.05002
426.0 0.002347 418.30286 425.25769
414.0 0.002415 418.33008 425.46985
407.0 0.002457 418.35730 425.68588
440.0 0.002273 418.38464 425.90607
444.0 0.002252 418.41205 426.13007
423.0 0.002364 418.43942 426.35822
410.0 0.002439 418.46692 426.59000
408.0 0.002451 418.49454 426.82553
419.0 0.002387 418.52222 427.06470
433.0 0.002309 418.54990 427.30719
440.0 0.002273 418.57758 427.55319
422.0 0.002370 418.60544 427.80234
431.0 0.002320 418.63330 428.05435
401.0 0.002494 418.66129 428.30939
409.0 0.002445 418.68921 428.56699
428.0 0.002336 418.71735 428.82697
440.0 0.002273 418.74548 429.08948
442.0 0.002262 418.77356 429.35370
430.0 0.002326 418.80197 429.62006
417.0 0.002398 418.83023 429.88785
423.0 0.002364 418.85864 430.15689
434.0 0.002304 418.88715 430.42719
436.0 0.002294 418.91559 430.69809
451.0 0.002217 418.94415 430.96954
462.0 0.002165 418.97278 431.21704
443.0 0.002257 419.00146 431.48883
426.0 0.002347 419.03018 431.76004
410.0 0.002439 419.05902 432.03043
409.0 0.002445 419.08795 432.29987
429.0 0.002331 419.11682 432.56769
430.0 0.002326 419.14581 432.83371
433.0 0.002309 419.17496 433.09756
444.0 0.002252 419.20413 433.35880
415.0 0.002410 419.23328 433.61694
411.0 0.002433 419.26239 433.87180
441.0 0.002268 419.29178 434.12289
438.0 0.002283 419.32111 434.36981
432.0 0.002315 419.35068 434.61200
432.0 0.002315 419.38022 434.84921
427.0 0.002342 419.40976 435.08090
427.0 0.002342 419.43927 435.30688
425.0 0.002353 419.46896 435.52652
427.0 0.002342 419.49875 435.73941
437.0 0.002288 419.52850 435.94528
451.0 0.002217 419.55841 436.14371
448.0 0.002232 419.58838 436.22601
438.0 0.002283 419.61829 436.40927
437.0 0.002288 419.64835 436.58411
439.0 0.002278 419.67844 436.74988
450.0 0.002222 419.70859 436.90652
441.0 0.002268 419.73892 437.05371
424.0 0.002358 419.76910 437.19131
422.0 0.002370 419.79950 437.31891
392.0 0.002551 419.82983 437.44485
387.0 0.002584 419.86035 437.55219
420.0 0.002381 419.89087 437.64935
436.0 0.002294 419.92145 437.73602
441.0 0.002268 419.95209 437.81232
438.0 0.002283 419.98279 437.87833
427.0 0.002342 420.01355 437.93390
439.0 0.002278 420.04440 437.97925
433.0 0.002309 420.07513 438.01468
430.0 0.002326 420.10620 438.03998
448.0 0.002232 420.13715 438.05569
452.0 0.002212 420.16812 438.06189
427.0 0.002342 420.19940 438.05902
425.0 0.002353 420.23053 438.04727
417.0 0.002398 420.26166 438.02719
436.0 0.002294 420.29300 437.99887
470.0 0.002128 420.32434 437.96268
468.0 0.002137 420.35580 437.91931
459.0 0.002179 420.38721 437.86932
460.0 0.002174 420.41864 437.81265
424.0 0.002358 420.45026 437.75021
420.0 0.002381 420.48203 437.68237
451.0 0.002217 420.51352 437.60947
443.0 0.002257 420.54526 437.53210
445.0 0.002247 420.57718 437.45096
430.0 0.002326 420.60904 437.36606
437.0 0.002288 420.64093 437.27838
440.0 0.002273 420.67282 437.18811
439.0 0.002278 420.70496 437.09592
434.0 0.002304 420.73697 437.00220
454.0 0.002203 420.76917 436.90750
459.0 0.002179 420.80130 436.81216
444.0 0.002252 420.83353 436.71674
433.0 0.002309 420.86588 436.62189
446.0 0.002242 420.89816 436.52774
451.0 0.002217 420.93069 436.43488
454.0 0.002203 420.96307 436.34369
440.0 0.002273 420.99561 436.25461
440.0 0.002273 421.02826 436.16818
449.0 0.002227 421.06079 436.08469
407.0 0.002457 421.09363 436.00452
411.0 0.002433 421.12628 435.92798
443.0 0.002257 421.15912 435.85562
454.0 0.002203 421.19196 435.78775
454.0 0.002203 421.22479 435.72455
440.0 0.002273 421.25775 435.66638
440.0 0.002273 421.29086 435.61404
449.0 0.002227 421.32397 435.56732
425.0 0.002353 421.35706 435.52667
424.0 0.002358 421.39032 435.49240
441.0 0.002268 421.42352 435.46506
457.0 0.002188 421.45682 435.44470
446.0 0.002242 421.49011 435.43143
438.0 0.002283 421.52341 435.42584
430.0 0.002326 421.55698 435.42816
437.0 0.002288 421.59045 435.43851
466.0 0.002146 421.62396 435.45718
461.0 0.002169 421.65762 435.48459
445.0 0.002247 421.69131 435.52063
447.0 0.002237 421.72498 435.56589
418.0 0.002392 421.75879 435.62064
413.0 0.002421 421.79251 435.68475
442.0 0.002262 421.82635 435.75867
456.0 0.002193 421.86041 435.84277
452.0 0.002212 421.89429 435.93707
456.0 0.002193 421.92838 436.04187
438.0 0.002283 421.96225 436.15750
456.0 0.002193 421.99649 436.28387
440.0 0.002273 422.03064 436.42157
437.0 0.002288 422.06479 436.57068
449.0 0.002227 422.09909 436.73148
448.0 0.002232 422.13345 436.90421
437.0 0.002288 422.16788 437.08905
436.0 0.002294 422.20221 437.28635
425.0 0.002353 422.23666 437.49615
447.0 0.002237 422.27124 437.71893
449.0 0.002227 422.30582 437.95499
458.0 0.002183 422.34048 438.20444
447.0 0.002237 422.37503 438.46756
434.0 0.002304 422.40973 438.74475
416.0 0.002404 422.44455 439.03625
412.0 0.002427 422.47937 439.34235
443.0 0.002257 422.51428 439.66342
450.0 0.002222 422.54913 439.99942
447.0 0.002237 422.58408 440.35138
482.0 0.002075 422.61914 440.71918
460.0 0.002174 422.65424 441.10327
461.0 0.002169 422.68927 441.50381
456.0 0.002193 422.72443 441.92154
443.0 0.002257 422.75967 442.35669
462.0 0.002165 422.79480 442.80945
467.0 0.002141 422.83017 443.28043
449.0 0.002227 422.86545 443.77008
441.0 0.002268 422.90085 444.27887
441.0 0.002268 422.93622 444.80710
445.0 0.002247 422.97171 445.35532
447.0 0.002237 423.00729 445.92398
450.0 0.002222 423.04294 446.51358
448.0 0.002232 423.07843 447.12454
454.0 0.002203 423.11414 447.75751
424.0 0.002358 423.14984 448.41299
423.0 0.002364 423.18552 449.09137
457.0 0.002188 423.22141 449.79346
474.0 0.002110 423.25720 450.51947
465.0 0.002151 423.29312 451.26901
450.0 0.002222 423.32904 452.04504
450.0 0.002222 423.36493 452.84686
462.0 0.002165 423.40109 453.67502
463.0 0.002160 423.43701 454.53018
469.0 0.002132 423.47318 455.41296
472.0 0.002119 423.50928 456.32391
477.0 0.002096 423.54541 457.26340
456.0 0.002193 423.58173 458.23227
461.0 0.002169 423.61801 459.23083
468.0 0.002137 423.65430 460.25977
488.0 0.002049 423.69073 461.31940
506.0 0.001976 423.72705 462.41031
490.0 0.002041 423.76343 463.53302
482.0 0.002075 423.79999 464.68777
501.0 0.001996 423.83655 465.87503
470.0 0.002128 423.87314 467.09500
457.0 0.002188 423.90964 468.34821
476.0 0.002101 423.94632 469.85056
479.0 0.002088 423.98303 471.17249
482.0 0.002075 424.01978 472.52792
461.0 0.002169 424.05646 473.91714
456.0 0.002193 424.09338 475.34003
464.0 0.002155 424.13019 476.79651
472.0 0.002119 424.16705 478.28650
471.0 0.002123 424.20413 479.80984
486.0 0.002058 424.24097 481.36603
491.0 0.002037 424.27789 482.95493
486.0 0.002058 424.31509 484.57587
493.0 0.002028 424.35208 486.22845
484.0 0.002066 424.38922 487.91199
490.0 0.002041 424.42642 489.62570
523.0 0.001912 424.46362 491.36884
525.0 0.001905 424.50085 493.14056
524.0 0.001908 424.53818 494.93967
524.0 0.001908 424.57544 496.76508
498.0 0.002008 424.61298 498.61591
488.0 0.002049 424.65021 500.49036
516.0 0.001938 424.68753 502.38736
518.0 0.001931 424.72519 504.30524
528.0 0.001894 424.76260 506.24240
508.0 0.001969 424.80023 508.19699
503.0 0.001988 424.83774 510.16745
521.0 0.001919 424.87534 512.15155
518.0 0.001931 424.91296 514.14746
548.0 0.001825 424.95065 516.15283
548.0 0.001825 424.98834 518.16541
533.0 0.001876 425.02609 520.18292
518.0 0.001931 425.06393 522.20270
509.0 0.001965 425.10162 524.22223
523.0 0.001912 425.13965 526.23895
528.0 0.001894 425.17749 528.24988
551.0 0.001815 425.21542 530.25214
551.0 0.001815 425.25342 532.24292
535.0 0.001869 425.29135 534.21893
557.0 0.001795 425.32935 536.17688
512.0 0.001953 425.36734 538.11420
494.0 0.002024 425.40552 540.02679
517.0 0.001934 425.44357 541.91180
539.0 0.001855 425.48181 543.76575
563.0 0.001776 425.51996 545.58490
542.0 0.001845 425.55817 547.36615
553.0 0.001808 425.59637 549.10596
563.0 0.001776 425.63467 550.80084
553.0 0.001808 425.67297 552.44739
546.0 0.001832 425.71133 554.04199
553.0 0.001808 425.74969 555.58124
565.0 0.001770 425.78818 557.06238
564.0 0.001773 425.82645 558.48206
560.0 0.001786 425.86493 559.83655
556.0 0.001799 425.90356 561.12378
566.0 0.001767 425.94205 562.34021
590.0 0.001695 425.98059 563.48370
574.0 0.001742 426.01910 564.55127
561.0 0.001783 426.05771 565.54077
569.0 0.001757 426.09644 566.45020
544.0 0.001838 426.13507 567.27759
524.0 0.001908 426.17371 568.02094
566.0 0.001767 426.21243 568.67896
556.0 0.001799 426.25122 569.25043
556.0 0.001799 426.29001 569.73389
553.0 0.001808 426.32877 570.12872
569.0 0.001757 426.36761 570.43433
577.0 0.001733 426.40649 570.65021
575.0 0.001739 426.44540 570.77612
570.0 0.001754 426.48422 570.81207
569.0 0.001757 426.52325 570.75842
579.0 0.001727 426.56219 570.61517
560.0 0.001786 426.60114 570.38293
551.0 0.001815 426.64020 570.06311
554.0 0.001805 426.67923 569.65582
561.0 0.001783 426.71820 569.16241
566.0 0.001767 426.75742 568.58459
559.0 0.001789 426.79639 567.92303
559.0 0.001789 426.83554 567.17981
557.0 0.001795 426.87485 566.35675
521.0 0.001919 426.91391 565.45538
506.0 0.001976 426.95319 564.47778
527.0 0.001898 426.99234 563.42609
560.0 0.001786 427.03165 562.30261
578.0 0.001730 427.07095 561.10980
557.0 0.001795 427.11032 559.85010
549.0 0.001821 427.14951 558.52606
561.0 0.001783 427.18887 557.14044
555.0 0.001802 427.22821 555.69574
545.0 0.001835 427.26752 554.19519
551.0 0.001815 427.30707 552.64185
538.0 0.001859 427.34641 551.03821
528.0 0.001894 427.38580 549.38788
526.0 0.001901 427.42532 547.69354
524.0 0.001908 427.46475 546.99982
529.0 0.001890 427.50430 545.23633
546.0 0.001832 427.54385 543.43842
535.0 0.001869 427.58337 541.60962
530.0 0.001887 427.62292 539.75275
534.0 0.001873 427.66245 537.87128
503.0 0.001988 427.70212 535.96820
497.0 0.002012 427.74179 534.04669
533.0 0.001876 427.78143 532.10938
536.0 0.001866 427.82104 530.15985
543.0 0.001842 427.86069 528.20074
550.0 0.001818 427.90027 526.23474
542.0 0.001845 427.94009 524.26495
542.0 0.001845 427.97968 522.29388
508.0 0.001969 428.01956 520.32410
500.0 0.002000 428.05927 518.35840
532.0 0.001880 428.09900 516.39905
534.0 0.001873 428.13882 514.44824
523.0 0.001912 428.17865 512.50867
504.0 0.001984 428.21832 510.58185
497.0 0.002012 428.25833 508.67056
499.0 0.002004 428.29807 506.77631
509.0 0.001965 428.33798 504.90115
519.0 0.001927 428.37781 503.04678
511.0 0.001957 428.41766 501.21487
508.0 0.001969 428.45767 499.40707
480.0 0.002083 428.49750 497.62479
481.0 0.002079 428.53745 495.86942
516.0 0.001938 428.57733 494.14230
521.0 0.001919 428.61737 492.44479
517.0 0.001934 428.65729 490.77771
513.0 0.001949 428.69727 489.14236
509.0 0.001965 428.73730 487.53961
506.0 0.001976 428.77719 485.97009
485.0 0.002062 428.81723 484.43509
476.0 0.002101 428.85727 482.93494
504.0 0.001984 428.89722 481.47034
507.0 0.001972 428.93719 480.04190
476.0 0.002101 428.97736 478.68839
467.0 0.002141 429.01740 477.33398
469.0 0.002132 429.05743 476.01697
477.0 0.002096 429.09753 474.73758
506.0 0.001976 429.13760 473.49637
492.0 0.002033 429.17773 472.29315
493.0 0.002028 429.21774 471.12802
482.0 0.002075 429.25793 470.00131
462.0 0.002165 429.29807 468.91296
472.0 0.002119 429.33807 467.86276
492.0 0.002033 429.37814 466.85077
491.0 0.002037 429.41833 465.87680
483.0 0.002070 429.45865 464.94067
480.0 0.002083 429.49866 464.04227
488.0 0.002049 429.53882 463.18143
481.0 0.002079 429.57895 462.35764
475.0 0.002105 429.61920 461.57062
453.0 0.002208 429.65933 460.82004
478.0 0.002092 429.69943 460.10547
487.0 0.002053 429.73965 459.42676
472.0 0.002119 429.77982 458.78329
463.0 0.002160 429.82001 458.17459
457.0 0.002188 429.86029 457.60016
465.0 0.002151 429.90039 457.05966
486.0 0.002058 429.94064 456.55246
474.0 0.002110 429.98080 456.05127
458.0 0.002183 430.02109 455.60941
465.0 0.002151 430.06119 455.19907
437.0 0.002288 430.10144 454.81989
433.0 0.002309 430.14154 454.38812
461.0 0.002169 430.18185 454.07001
470.0 0.002128 430.22192 453.78134
481.0 0.002079 430.26224 453.52130
481.0 0.002079 430.30246 453.28949
457.0 0.002188 430.34262 453.08511
474.0 0.002110 430.38284 452.90756
462.0 0.002165 430.42303 452.75632
474.0 0.002110 430.46335 452.63065
474.0 0.002110 430.50345 452.52979
496.0 0.002016 430.54364 452.45337
478.0 0.002092 430.58383 452.40060
463.0 0.002160 430.62408 452.37088
461.0 0.002169 430.66428 452.36337
460.0 0.002174 430.70438 452.37756
464.0 0.002155 430.74472 452.41302
453.0 0.002208 430.78482 452.46884
453.0 0.002208 430.82507 452.54428
466.0 0.002146 430.86511 452.63898
423.0 0.002364 430.90533 452.75211
413.0 0.002421 430.94559 452.88306
434.0 0.002304 430.98569 453.03107
447.0 0.002237 431.02585 453.19568
468.0 0.002137 431.06607 453.37616
458.0 0.002183 431.10623 453.57208
450.0 0.002222 431.14630 453.78229
453.0 0.002208 431.18665 454.00668
464.0 0.002155 431.22662 454.24438
462.0 0.002165 431.26669 454.49487
462.0 0.002165 431.30692 454.75745
469.0 0.002132 431.34702 455.03131
467.0 0.002141 431.38712 455.31619
463.0 0.002160 431.42731 455.61136
467.0 0.002141 431.46729 455.91608
453.0 0.002208 431.50745 456.23007
470.0 0.002128 431.54742 456.55212
471.0 0.002123 431.58749 456.88232
460.0 0.002174 431.62759 457.21979
456.0 0.002193 431.66763 457.56369
425.0 0.002353 431.70764 457.91394
418.0 0.002392 431.74768 458.26959
439.0 0.002278 431.78772 458.63037
451.0 0.002217 431.82767 458.99557
462.0 0.002165 431.86771 459.36481
459.0 0.002179 431.90765 459.73715
453.0 0.002208 431.94769 460.11264
454.0 0.002203 431.98770 461.01266
442.0 0.002262 432.02756 461.39600
450.0 0.002222 432.06744 461.78091
466.0 0.002146 432.10739 462.16684
479.0 0.002088 432.14728 462.55350
467.0 0.002141 432.18726 462.94052
458.0 0.002183 432.22711 463.32718
452.0 0.002212 432.26688 463.71332
459.0 0.002179 432.30682 464.09912
473.0 0.002114 432.34665 464.48361
462.0 0.002165 432.38644 464.86694
453.0 0.002208 432.42624 465.24896
448.0 0.002232 432.46600 465.62949
428.0 0.002336 432.50589 466.00830
434.0 0.002304 432.54559 466.38562
457.0 0.002188 432.58524 466.76123
459.0 0.002179 432.62506 467.13568
470.0 0.002128 432.66473 467.50851
478.0 0.002092 432.70444 467.88040
471.0 0.002123 432.74414 468.25150
470.0 0.002128 432.78381 468.62210
461.0 0.002169 432.82339 468.99292
447.0 0.002237 432.86304 469.36417
449.0 0.002227 432.90265 469.73642
465.0 0.002151 432.94223 470.11066
461.0 0.002169 432.98175 470.48703
460.0 0.002174 433.02130 470.86679
461.0 0.002169 433.06094 471.25049
471.0 0.002123 433.10031 471.63898
484.0 0.002066 433.13968 472.03329
488.0 0.002049 433.17914 472.43445
477.0 0.002096 433.21872 472.84320
495.0 0.002020 433.25812 473.26077
455.0 0.002198 433.29733 473.68848
447.0 0.002237 433.33682 474.12680
476.0 0.002101 433.37604 474.57724
470.0 0.002128 433.41550 475.04089
485.0 0.002062 433.45471 475.51868
477.0 0.002096 433.49408 476.01196
450.0 0.002222 433.53323 476.52164
467.0 0.002141 433.57251 477.04871
461.0 0.002169 433.61176 477.59448
460.0 0.002174 433.65088 478.15985
474.0 0.002110 433.68991 478.74582
490.0 0.002041 433.72916 479.35358
462.0 0.002165 433.76822 479.98370
476.0 0.002101 433.80722 480.63693
474.0 0.002110 433.84637 481.31470
478.0 0.002092 433.88541 482.01733
479.0 0.002088 433.92441 482.74570
477.0 0.002096 433.96326 483.50015
483.0 0.002070 434.00232 484.28156
496.0 0.002016 434.04120 485.09048
463.0 0.002160 434.08017 485.92728
462.0 0.002165 434.11890 486.79227
488.0 0.002049 434.15771 487.63571
490.0 0.002041 434.19650 488.55826
488.0 0.002049 434.23520 489.50949
471.0 0.002123 434.27399 490.48965
471.0 0.002123 434.31268 491.49847
463.0 0.002160 434.35129 492.53610
466.0 0.002146 434.39001 493.60217
498.0 0.002008 434.42862 494.69623
510.0 0.001961 434.46722 495.81805
517.0 0.001934 434.50574 496.96698
506.0 0.001976 434.54419 498.14240
507.0 0.001972 434.58270 499.34390
490.0 0.002041 434.62119 500.57028
492.0 0.002033 434.65958 501.82077
512.0 0.001953 434.69800 503.09442
505.0 0.001980 434.73636 504.39014
505.0 0.001980 434.77472 505.70654
531.0 0.001883 434.81287 507.04260
511.0 0.001957 434.85110 508.39648
486.0 0.002058 434.88943 509.76709
503.0 0.001988 434.92758 511.15247
516.0 0.001938 434.96567 512.55115
528.0 0.001894 435.00381 513.96124
512.0 0.001953 435.04184 515.38086
533.0 0.001876 435.07983 516.80768
539.0 0.001855 435.11786 518.24005
520.0 0.001923 435.15594 519.67548
524.0 0.001908 435.19379 521.11176
527.0 0.001898 435.23166 522.54626
533.0 0.001876 435.26947 523.97693
546.0 0.001832 435.30725 525.40076
540.0 0.001852 435.34509 526.81543
546.0 0.001832 435.38284 528.21808
542.0 0.001845 435.42050 529.60596
550.0 0.001818 435.45813 530.97595
545.0 0.001835 435.49576 532.32520
550.0 0.001818 435.53339 533.65094
559.0 0.001789 435.57080 534.95007
530.0 0.001887 435.60837 536.21918
540.0 0.001852 435.64587 537.45569
576.0 0.001736 435.68314 538.65594
587.0 0.001704 435.72049 539.81720
585.0 0.001709 435.75787 540.93622
570.0 0.001754 435.79517 542.00977
554.0 0.001805 435.83240 543.03510
570.0 0.001754 435.86957 544.00891
559.0 0.001789 435.90662 544.92828
574.0 0.001742 435.94388 545.79077
600.0 0.001667 435.98083 546.59320
584.0 0.001712 436.01791 547.33319
555.0 0.001802 436.05487 548.00842
562.0 0.001779 436.09177 548.61646
563.0 0.001776 436.12866 549.15515
551.0 0.001815 436.16550 549.62274
561.0 0.001783 436.20239 550.01752
568.0 0.001761 436.23904 550.33826
547.0 0.001828 436.27585 550.58344
551.0 0.001815 436.31244 550.75220
520.0 0.001923 436.34906 550.84406
526.0 0.001901 436.38559 550.85858
554.0 0.001805 436.42212 550.79535
555.0 0.001802 436.45853 550.65503
553.0 0.001808 436.49496 550.43756
551.0 0.001815 436.53125 550.14398
546.0 0.001832 436.56763 549.77490
569.0 0.001757 436.60391 549.33160
576.0 0.001736 436.64008 548.81561
564.0 0.001773 436.67636 548.22821
578.0 0.001730 436.71240 547.57147
579.0 0.001727 436.74850 546.84747
559.0 0.001789 436.78461 546.05798
552.0 0.001812 436.82043 545.20593
549.0 0.001821 436.85635 544.29315
556.0 0.001799 436.89227 543.32239
565.0 0.001770 436.92804 541.63361
561.0 0.001783 436.96387 540.55969
575.0 0.001739 436.99948 539.43591
585.0 0.001709 437.03522 538.26501
548.0 0.001825 437.07071 537.04999
523.0 0.001912 437.10629 535.79358
550.0 0.001818 437.14172 534.49878
560.0 0.001786 437.17725 533.16846
557.0 0.001795 437.21249 531.80524
552.0 0.001812 437.24796 530.41235
566.0 0.001767 437.28323 528.99213
571.0 0.001751 437.31842 527.54767
559.0 0.001789 437.35361 526.08167
552.0 0.001812 437.38864 524.59680
552.0 0.001812 437.42377 523.09552
551.0 0.001815 437.45871 521.58075
533.0 0.001876 437.49371 520.03143
538.0 0.001859 437.52856 518.49670
534.0 0.001873 437.56335 516.95599
527.0 0.001898 437.59808 515.41101
528.0 0.001894 437.63287 513.86469
525.0 0.001905 437.66751 512.31866
524.0 0.001908 437.70203 510.77542
552.0 0.001812 437.73663 509.23706
513.0 0.001949 437.77106 507.25076
510.0 0.001961 437.80551 505.73126
545.0 0.001835 437.83987 504.22253
533.0 0.001876 437.87415 502.72614
545.0 0.001835 437.90833 501.24423
535.0 0.001869 437.94260 499.77838
525.0 0.001905 437.97668 498.33017
523.0 0.001912 438.01068 496.90121
520.0 0.001923 438.04468 495.49304
499.0 0.002004 438.07861 494.10706
508.0 0.001969 438.11252 492.74484
515.0 0.001942 438.14621 491.40738
505.0 0.001980 438.17999 490.09616
493.0 0.002028 438.21375 488.81223
506.0 0.001976 438.24731 487.55667
514.0 0.001946 438.28082 486.33075
520.0 0.001923 438.31427 485.13550
503.0 0.001988 438.34772 483.97141
488.0 0.002049 438.38107 482.83972
512.0 0.001953 438.41437 481.74124
482.0 0.002075 438.44754 480.67648
472.0 0.002119 438.48080 479.64627
504.0 0.001984 438.51379 478.65128
500.0 0.002000 438.54688 477.69199
503.0 0.001988 438.57986 476.76892
511.0 0.001957 438.61276 475.88257
496.0 0.002016 438.64551 475.03339
501.0 0.001996 438.67831 474.22177
497.0 0.002012 438.71094 473.44797
478.0 0.002092 438.74356 472.71213
491.0 0.002037 438.77609 472.01483
503.0 0.001988 438.80862 471.35587
491.0 0.002037 438.84109 470.73563
490.0 0.002041 438.87344 470.15427
491.0 0.002037 438.90567 469.61166
486.0 0.002058 438.93790 469.10803
515.0 0.001942 438.97006 468.64328
516.0 0.001938 439.00220 468.21741
496.0 0.002016 439.03409 467.83032
502.0 0.001992 439.06601 467.48199
468.0 0.002137 439.09790 467.17242
458.0 0.002183 439.12967 466.90125
495.0 0.002020 439.16138 466.66840
507.0 0.001972 439.19308 466.47363
503.0 0.001988 439.22464 466.31702
486.0 0.002058 439.25604 466.19797
466.0 0.002146 439.28754 466.11649
481.0 0.002079 439.31894 466.07202
471.0 0.002123 439.35022 466.06454
478.0 0.002092 439.38141 466.09375
512.0 0.001953 439.41254 466.15900
511.0 0.001957 439.44354 466.26010
489.0 0.002045 439.47455 466.39682
490.0 0.002041 439.50540 466.56857
481.0 0.002079 439.53619 466.77496
492.0 0.002033 439.56699 467.01578
507.0 0.001972 439.59769 467.29007
481.0 0.002079 439.62830 467.59787
478.0 0.002092 439.65884 467.93835
483.0 0.002070 439.68921 468.31113
466.0 0.002146 439.71964 468.71564
467.0 0.002141 439.75000 469.15125
487.0 0.002053 439.78018 469.61746
487.0 0.002053 439.81036 470.11371
514.0 0.001946 439.84042 470.63889
483.0 0.002070 439.87036 471.19308
468.0 0.002137 439.90030 471.77493
478.0 0.002092 439.93015 472.83154
463.0 0.002160 439.95990 473.47018
470.0 0.002128 439.98962 474.13477
494.0 0.002024 440.01920 474.82394
507.0 0.001972 440.04871 475.53729
481.0 0.002079 440.07809 476.27377
469.0 0.002132 440.10748 477.03241
468.0 0.002137 440.13675 477.81253
464.0 0.002155 440.16592 478.61301
492.0 0.002033 440.19492 479.43274
486.0 0.002058 440.22421 480.27084
499.0 0.002004 440.25308 481.12604
531.0 0.001883 440.28189 481.99738
472.0 0.002119 440.31067 482.88391
448.0 0.002232 440.33936 483.78384
482.0 0.002075 440.36801 484.69650
483.0 0.002070 440.39655 485.62048
507.0 0.001972 440.42511 486.55444
497.0 0.002012 440.45340 487.49707
498.0 0.002008 440.48169 488.44687
505.0 0.001980 440.50986 489.40253
501.0 0.001996 440.53802 490.36255
489.0 0.002045 440.56598 491.32562
523.0 0.001912 440.59399 492.28983
519.0 0.001927 440.62189 493.29410
502.0 0.001992 440.64963 494.25653
490.0 0.002041 440.67725 495.21558
488.0 0.002049 440.70499 495.95267
504.0 0.001984 440.73236 496.90140
515.0 0.001942 440.75992 497.84158
498.0 0.002008 440.78720 498.77124
500.0 0.002000 440.81451 499.68860
508.0 0.001969 440.84164 500.59189
479.0 0.002088 440.86877 501.47897
463.0 0.002160 440.89575 502.34833
492.0 0.002033 440.92267 503.19766
484.0 0.002066 440.94949 504.02536
503.0 0.001988 440.97623 504.82938
510.0 0.001961 441.00290 505.60785
499.0 0.002004 441.02948 506.35867
495.0 0.002020 441.05597 507.08020
496.0 0.002016 441.08224 507.77032
514.0 0.001946 441.10861 508.42737
519.0 0.001927 441.13477 509.04953
541.0 0.001848 441.16092 509.63492
511.0 0.001957 441.18686 510.18204
496.0 0.002016 441.21283 510.68903
486.0 0.002058 441.23871 511.15475
504.0 0.001984 441.26450 511.57730
516.0 0.001938 441.29007 511.95587
497.0 0.002012 441.31567 512.28888
505.0 0.001980 441.34113 512.57532
505.0 0.001980 441.36642 512.81451
472.0 0.002119 441.39188 513.00543
472.0 0.002119 441.41711 513.14746
490.0 0.002041 441.44217 513.24017
502.0 0.001992 441.46716 513.28326
502.0 0.001992 441.49216 513.27655
498.0 0.002008 441.51694 513.22003
496.0 0.002016 441.54163 513.11401
506.0 0.001976 441.56622 512.95868
492.0 0.002033 441.59085 512.75470
484.0 0.002066 441.61533 512.50250
508.0 0.001969 441.63965 512.20313
525.0 0.001905 441.66382 511.85730
525.0 0.001905 441.68808 511.46628
498.0 0.002008 441.71219 511.03122
494.0 0.002024 441.73611 510.55350
494.0 0.002024 441.75995 510.03439
518.0 0.001931 441.78378 509.47537
506.0 0.001976 441.80743 508.87817
486.0 0.002058 441.83109 508.24445
500.0 0.002000 441.85455 507.57584
464.0 0.002155 441.87793 506.87408
458.0 0.002183 441.90121 506.14090
482.0 0.002075 441.92435 505.37811
496.0 0.002016 441.94748 504.58771
516.0 0.001938 441.97058 503.77145
508.0 0.001969 441.99347 502.93109
488.0 0.002049 442.01627 502.06848
495.0 0.002020 442.03885 501.18549
486.0 0.002058 442.06143 500.28384
484.0 0.002066 442.08408 499.36526
493.0 0.002028 442.10657 498.43176
494.0 0.002024 442.12888 497.48486
487.0 0.002053 442.15106 496.52612
495.0 0.002020 442.17316 495.55753
480.0 0.002083 442.19516 494.58023
474.0 0.002110 442.21713 493.59607
474.0 0.002110 442.23895 492.60648
494.0 0.002024 442.26068 491.70413
499.0 0.002004 442.28223 490.70877
497.0 0.002012 442.30374 489.71249
486.0 0.002058 442.32523 488.71637
476.0 0.002101 442.34647 487.72153
483.0 0.002070 442.36771 486.72955
489.0 0.002045 442.38879 485.74136
498.0 0.002008 442.40985 484.75818
482.0 0.002075 442.43069 483.78094
473.0 0.002114 442.45145 482.81110
484.0 0.002066 442.47220 481.84912
485.0 0.002062 442.49280 480.89618
467.0 0.002141 442.51328 479.95309
492.0 0.002033 442.53369 479.02081
487.0 0.002053 442.55402 478.10004
476.0 0.002101 442.57425 477.19147
486.0 0.002058 442.59433 476.29584
482.0 0.002075 442.61429 475.41376
466.0 0.002146 442.63403 474.54581
470.0 0.002128 442.65381 473.69260
484.0 0.002066 442.67349 472.85474
484.0 0.002066 442.69312 472.03247
477.0 0.002096 442.71246 471.22644
434.0 0.002304 442.73184 470.43695
438.0 0.002283 442.75110 469.66409
457.0 0.002188 442.77020 468.90842
469.0 0.002132 442.78922 468.17029
470.0 0.002128 442.80817 467.44952
465.0 0.002151 442.82706 466.74664
462.0 0.002165 442.84564 465.01636
461.0 0.002169 442.86435 464.35831
463.0 0.002160 442.88284 463.71832
462.0 0.002165 442.90118 463.09650
459.0 0.002179 442.91946 462.49261
463.0 0.002160 442.93768 461.90704
457.0 0.002188 442.95572 461.33932
443.0 0.002257 442.97369 460.78958
447.0 0.002237 442.99152 460.25781
458.0 0.002183 443.00925 459.74390
479.0 0.002088 443.02692 459.24762
478.0 0.002092 443.04449 458.76886
465.0 0.002151 443.06183 458.30740
470.0 0.002128 443.07916 457.86319
436.0 0.002294 443.09637 457.43579
429.0 0.002331 443.11353 457.02530
457.0 0.002188 443.13046 456.63138
471.0 0.002123 443.14734 456.25357
462.0 0.002165 443.16406 455.89188
457.0 0.002188 443.18076 455.54602
461.0 0.002169 443.19727 455.21576
458.0 0.002183 443.21368 454.90057
443.0 0.002257 443.22998 454.60046
438.0 0.002283 443.24631 454.31516
463.0 0.002160 443.26233 454.04422
468.0 0.002137 443.27838 453.78751
450.0 0.002222 443.29416 453.54471
440.0 0.002273 443.31000 453.31561
438.0 0.002283 443.32562 453.09995
458.0 0.002183 443.34116 452.89728
464.0 0.002155 443.35666 452.70746
454.0 0.002203 443.37195 452.53036
446.0 0.002242 443.38712 452.36551
451.0 0.002217 443.40231 452.21292
424.0 0.002358 443.41721 452.07217
417.0 0.002398 443.43216 451.94330
442.0 0.002262 443.44687 451.84589
444.0 0.002252 443.46161 451.73996
464.0 0.002155 443.47607 451.60696
445.0 0.002247 443.49051 451.52353
446.0 0.002242 443.50476 451.45068
448.0 0.002232 443.51907 451.38889
434.0 0.002304 443.53311 451.33746
441.0 0.002268 443.54697 451.29648
454.0 0.002203 443.56088 451.26593
442.0 0.002262 443.57465 451.24551
421.0 0.002375 443.58835 451.23538
437.0 0.002288 443.60187 451.23550
444.0 0.002252 443.61526 451.24564
438.0 0.002283 443.62851 451.26590
450.0 0.002222 443.64163 451.29630
450.0 0.002222 443.65475 451.33670
448.0 0.002232 443.66763 451.38721
465.0 0.002151 443.68057 451.44809
427.0 0.002342 443.69327 451.51892
412.0 0.002427 443.70584 451.60028
457.0 0.002188 443.71835 451.69180
454.0 0.002203 443.73059 451.79379
464.0 0.002155 443.74289 451.90656
447.0 0.002237 443.75497 452.02985
432.0 0.002315 443.76715 452.16394
431.0 0.002320 443.77899 452.30899
433.0 0.002309 443.79074 452.46518
425.0 0.002353 443.80237 452.63272
438.0 0.002283 443.81403 452.81161
444.0 0.002252 443.82538 453.00226
436.0 0.002294 443.83676 453.20456
435.0 0.002299 443.84793 453.41907
428.0 0.002336 443.85901 453.64578
443.0 0.002257 443.87003 453.88495
458.0 0.002183 443.88080 454.13684
458.0 0.002183 443.89160 454.40155
451.0 0.002217 443.90225 454.67947
457.0 0.002188 443.91269 454.97076
423.0 0.002364 443.92316 455.27563
411.0 0.002433 443.93341 455.59418
446.0 0.002242 443.94360 455.92691
443.0 0.002257 443.95361 456.27399
447.0 0.002237 443.96347 456.63556
453.0 0.002208 443.97336 457.01172
449.0 0.002227 443.98297 457.40289
436.0 0.002294 443.99258 457.80914
418.0 0.002392 444.00208 458.23083
428.0 0.002336 444.01126 458.66806
453.0 0.002208 444.02032 459.12082
454.0 0.002203 444.02957 460.28656
446.0 0.002242 444.03860 460.77634
440.0 0.002273 444.04736 461.28223
448.0 0.002232 444.05615 461.80438
458.0 0.002183 444.06470 462.34311
477.0 0.002096 444.07312 463.37140
472.0 0.002119 444.08163 463.94730
454.0 0.002203 444.08987 464.53992
457.0 0.002188 444.09796 465.14923
437.0 0.002288 444.10605 465.77521
413.0 0.002421 444.11392 466.41794
438.0 0.002283 444.12161 467.07724
462.0 0.002165 444.12936 467.75330
466.0 0.002146 444.13693 468.44574
451.0 0.002217 444.14429 469.15448
459.0 0.002179 444.15158 469.87943
452.0 0.002212 444.15878 470.62033
445.0 0.002247 444.16574 471.37714
451.0 0.002217 444.17270 472.14941
487.0 0.002053 444.17957 472.93671
496.0 0.002016 444.18625 473.73920
473.0 0.002114 444.19287 474.55594
465.0 0.002151 444.19928 475.38693
470.0 0.002128 444.20557 476.23169
473.0 0.002114 444.21173 477.08960
485.0 0.002062 444.21790 477.96017
464.0 0.002155 444.22382 478.84293
473.0 0.002114 444.22968 479.73727
481.0 0.002079 444.23544 480.64258
440.0 0.002273 444.24118 481.64847
424.0 0.002358 444.24655 482.57416
454.0 0.002203 444.25189 483.50870
474.0 0.002110 444.25723 484.45114
487.0 0.002053 444.26230 485.40088
475.0 0.002105 444.26721 486.35681
470.0 0.002128 444.27209 487.31802
464.0 0.002155 444.27689 488.28369
468.0 0.002137 444.28152 489.25281
466.0 0.002146 444.28607 490.22412
483.0 0.002070 444.29047 491.19656
488.0 0.002049 444.29471 492.16931
470.0 0.002128 444.29892 493.14075
474.0 0.002110 444.30289 494.10977
451.0 0.002217 444.30679 495.07526
461.0 0.002169 444.31070 496.03583
486.0 0.002058 444.31424 496.98999
481.0 0.002079 444.31784 497.93665
478.0 0.002092 444.32132 498.87415
483.0 0.002070 444.32452 499.80109
452.0 0.002212 444.32776 500.71600
459.0 0.002179 444.33072 501.61740
483.0 0.002070 444.33365 502.50366
488.0 0.002049 444.33655 503.37354
500.0 0.002000 444.33920 504.22498
488.0 0.002049 444.34177 505.05682
482.0 0.002075 444.34424 505.86722
496.0 0.002016 444.34656 506.65485
469.0 0.002132 444.34863 507.41815
470.0 0.002128 444.35077 508.15518
486.0 0.002058 444.35269 508.86484
497.0 0.002012 444.35455 509.54559
493.0 0.002028 444.35620 510.19592
492.0 0.002033 444.35788 510.81436
480.0 0.002083 444.35931 511.39990
487.0 0.002053 444.36066 511.95096
498.0 0.002008 444.36179 512.46643
486.0 0.002058 444.36285 512.94550
487.0 0.002053 444.36398 513.38678
484.0 0.002066 444.36475 513.78973
473.0 0.002114 444.36548 514.15350
468.0 0.002137 444.36606 514.47717
489.0 0.002045 444.36664 514.76031
486.0 0.002058 444.36685 515.00262
511.0 0.001957 444.36722 515.20386
497.0 0.002012 444.36728 515.36353
490.0 0.002041 444.36725 515.48193
494.0 0.002024 444.36710 515.55865
490.0 0.002041 444.36679 515.59424
472.0 0.002119 444.36652 515.58893
486.0 0.002058 444.36597 515.54315
508.0 0.001969 444.36536 515.45715
490.0 0.002041 444.36462 515.33185
487.0 0.002053 444.36368 515.16772
488.0 0.002049 444.36267 514.96576
479.0 0.002088 444.36160 514.72662
495.0 0.002020 444.36038 514.45117
487.0 0.002053 444.35901 514.14075
482.0 0.002075 444.35745 513.79596
482.0 0.002075 444.35593 513.44910
456.0 0.002193 444.35422 513.03955
454.0 0.002203 444.35233 512.59930
487.0 0.002053 444.35034 512.12946
506.0 0.001976 444.34824 511.63098
500.0 0.002000 444.34604 511.10544
494.0 0.002024 444.34372 510.55402
485.0 0.002062 444.34122 509.97778
499.0 0.002004 444.33871 509.37811
490.0 0.002041 444.33588 508.75623
482.0 0.002075 444.33304 508.17596
507.0 0.001972 444.33020 507.51389
508.0 0.001969 444.32703 506.83337
507.0 0.001972 444.32379 506.13547
491.0 0.002037 444.32047 505.42160
477.0 0.002096 444.31696 504.69318
491.0 0.002037 444.31354 503.95099
507.0 0.001972 444.30978 503.19656
500.0 0.002000 444.30603 502.43112
480.0 0.002083 444.30203 501.65561
490.0 0.002041 444.29797 500.87164
465.0 0.002151 444.29385 500.08005
460.0 0.002174 444.28949 499.28220
501.0 0.001996 444.28506 498.47922
511.0 0.001957 444.28055 497.67227
505.0 0.001980 444.27579 496.86279
492.0 0.002033 444.27097 496.05151
487.0 0.002053 444.26614 495.23981
479.0 0.002088 444.26108 494.42902
479.0 0.002088 444.25598 493.62012
480.0 0.002083 444.25070 492.81415
498.0 0.002008 444.24524 492.01230
508.0 0.001969 444.23969 491.21582
493.0 0.002028 444.23398 490.42581
478.0 0.002092 444.22827 489.64319
488.0 0.002049 444.22238 488.86914
488.0 0.002049 444.21640 488.10480
514.0 0.001946 444.21014 487.35098
507.0 0.001972 444.20395 486.60907
517.0 0.001934 444.19763 485.87967
509.0 0.001965 444.19098 484.64008
464.0 0.002155 444.18445 483.94284
444.0 0.002252 444.17764 483.26114
478.0 0.002092 444.17084 482.59601
486.0 0.002058 444.16385 481.94818
489.0 0.002045 444.15677 481.31870
479.0 0.002088 444.14960 480.70844
471.0 0.002123 444.14221 480.11786
482.0 0.002075 444.13477 479.54825
478.0 0.002092 444.12714 479.00021
489.0 0.002045 444.11938 478.47440
498.0 0.002008 444.11157 477.97159
504.0 0.001984 444.10361 477.49249
485.0 0.002062 444.09552 477.03778
478.0 0.002092 444.08737 476.60831
478.0 0.002092 444.07895 476.20462
478.0 0.002092 444.07053 475.82715
491.0 0.002037 444.06210 475.47653
498.0 0.002008 444.05331 475.15353
482.0 0.002075 444.04456 474.85858
476.0 0.002101 444.03555 474.59216
434.0 0.002304 444.02658 474.35477
440.0 0.002273 444.01743 474.14719
478.0 0.002092 444.00815 473.96939
493.0 0.002028 443.99866 473.82220
491.0 0.002037 443.98923 473.70584
496.0 0.002016 443.97961 473.62103
480.0 0.002083 443.96985 473.56766
481.0 0.002079 443.95996 473.54657
476.0 0.002101 443.94995 473.55789
471.0 0.002123 443.93985 473.60190
487.0 0.002053 443.92963 473.67905
501.0 0.001996 443.91922 473.78961
497.0 0.002012 443.90884 473.93362
484.0 0.002066 443.89810 474.11169
483.0 0.002070 443.88751 474.32394
475.0 0.002105 443.87659 474.57037
494.0 0.002024 443.86572 474.85135
509.0 0.001965 443.85464 475.16708
492.0 0.002033 443.84351 475.51767
510.0 0.001961 443.83206 475.90314
476.0 0.002101 443.82077 476.32376
471.0 0.002123 443.80920 476.77951
491.0 0.002037 443.79749 477.27051
488.0 0.002049 443.78571 477.79675
485.0 0.002062 443.77393 478.35822
488.0 0.002049 443.76184 478.95508
502.0 0.001992 443.74976 479.58713
489.0 0.002045 443.73749 480.25418
476.0 0.002101 443.72510 480.95639
471.0 0.002123 443.71265 481.69357
488.0 0.002049 443.70007 482.46555
484.0 0.002066 443.68741 483.27209
471.0 0.002123 443.67447 484.11307
478.0 0.002092 443.66153 484.98816
486.0 0.002058 443.64850 485.89722
482.0 0.002075 443.63525 486.83994
498.0 0.002008 443.62204 487.81570
497.0 0.002012 443.60858 488.82449
494.0 0.002024 443.59503 489.86572
503.0 0.001988 443.58145 490.93900
464.0 0.002155 443.56757 492.04364
470.0 0.002128 443.55377 493.17957
504.0 0.001984 443.53986 494.34579
510.0 0.001961 443.52570 495.54193
521.0 0.001919 443.51144 496.76730
515.0 0.001942 443.49713 498.02103
505.0 0.001980 443.48270 499.30267
509.0 0.001965 443.46817 500.61121
515.0 0.001942 443.45358 501.94601
508.0 0.001969 443.43869 503.30603
512.0 0.001953 443.42377 504.69046
527.0 0.001898 443.40863 506.09821
515.0 0.001942 443.39355 507.65439
524.0 0.001908 443.37830 509.10660
522.0 0.001916 443.36301 510.57904
539.0 0.001855 443.34747 512.07068
564.0 0.001773 443.33185 513.57990
557.0 0.001795 443.31622 515.10577
544.0 0.001838 443.30035 516.64661
548.0 0.001825 443.28439 518.20129
524.0 0.001908 443.26834 519.76837
497.0 0.002012 443.25226 521.34637
537.0 0.001862 443.23593 522.93378
551.0 0.001815 443.21957 524.52887
572.0 0.001748 443.20313 526.13031
571.0 0.001751 443.18649 527.73621
560.0 0.001786 443.16977 529.34528
567.0 0.001764 443.15302 530.95551
572.0 0.001748 443.13596 532.56537
576.0 0.001736 443.11899 534.17322
581.0 0.001721 443.10178 535.77710
584.0 0.001712 443.08456 537.37555
581.0 0.001721 443.06717 538.96680
581.0 0.001721 443.04962 540.54926
587.0 0.001704 443.03204 542.12091
578.0 0.001730 443.01434 543.68054
578.0 0.001730 442.99637 545.22644
576.0 0.001736 442.97870 546.75677
561.0 0.001783 442.96051 548.27039
577.0 0.001733 442.94235 549.76550
541.0 0.001848 442.92413 551.24091
544.0 0.001838 442.90579 552.69556
576.0 0.001736 442.88730 554.12720
568.0 0.001761 442.86868 555.53558
592.0 0.001689 442.85001 556.91882
587.0 0.001704 442.83115 558.27618
585.0 0.001709 442.81232 559.60651
595.0 0.001681 442.79327 560.90863
591.0 0.001692 442.77408 562.18158
581.0 0.001721 442.75491 563.42462
604.0 0.001656 442.73553 564.63654
618.0 0.001618 442.71606 565.81671
583.0 0.001715 442.69647 566.96411
582.0 0.001718 442.67676 568.07782
576.0 0.001736 442.65707 569.15710
577.0 0.001733 442.63718 570.20129
608.0 0.001645 442.61719 571.20911
601.0 0.001664 442.59717 572.17981
595.0 0.001681 442.57697 573.11279
613.0 0.001631 442.55667 574.00684
602.0 0.001661 442.53625 574.86096
577.0 0.001733 442.51566 575.67432
592.0 0.001689 442.49506 576.44580
612.0 0.001634 442.47440 577.17462
626.0 0.001597 442.45349 577.85938
617.0 0.001621 442.43259 578.49896
601.0 0.001664 442.41147 579.09222
595.0 0.001681 442.39032 579.63818
593.0 0.001686 442.36914 580.13556
572.0 0.001748 442.34781 580.58289
603.0 0.001658 442.32639 580.97925
607.0 0.001647 442.30478 581.32306
602.0 0.001661 442.28326 581.61346
588.0 0.001701 442.26135 581.84882
607.0 0.001647 442.23947 582.02826
627.0 0.001595 442.21756 582.15045
657.0 0.001522 442.19556 582.21454
625.0 0.001600 442.17331 582.21954
615.0 0.001626 442.15103 582.16412
632.0 0.001582 442.12869 582.04773
609.0 0.001642 442.10632 581.86969
589.0 0.001698 442.08362 581.62952
607.0 0.001647 442.06085 581.32642
609.0 0.001642 442.03827 580.96033
614.0 0.001629 442.01535 580.53088
599.0 0.001669 441.99231 580.08795
593.0 0.001686 441.96924 579.53265
624.0 0.001603 441.94611 578.91461
616.0 0.001623 441.92288 578.23444
627.0 0.001595 441.89941 577.49261
626.0 0.001597 441.87607 576.69025
637.0 0.001570 441.85236 575.82837
613.0 0.001631 441.82877 574.90802
584.0 0.001712 441.80493 573.93060
568.0 0.001761 441.78113 572.89758
602.0 0.001661 441.75717 571.81091
643.0 0.001555 441.73318 570.67194
617.0 0.001621 441.70895 569.48279
597.0 0.001675 441.68472 568.24554
597.0 0.001675 441.66049 566.96204
551.0 0.001815 441.63586 565.63452
540.0 0.001852 441.61145 564.26526
576.0 0.001736 441.58673 562.85675
571.0 0.001751 441.56195 561.41095
576.0 0.001736 441.53726 559.93042
582.0 0.001718 441.51239 558.41736
571.0 0.001751 441.48724 556.87445
565.0 0.001770 441.46219 555.30396
565.0 0.001770 441.43698 553.70801
567.0 0.001764 441.41174 552.08936
585.0 0.001709 441.38626 550.49518
585.0 0.001709 441.36078 548.83807
575.0 0.001739 441.33517 547.16492
567.0 0.001764 441.30957 545.47809
570.0 0.001754 441.28375 543.77966
562.0 0.001779 441.25800 542.07202
572.0 0.001748 441.23199 540.35699
562.0 0.001779 441.20602 538.63708
552.0 0.001812 441.17987 536.91382
572.0 0.001748 441.15359 535.18951
552.0 0.001812 441.12726 533.46588
529.0 0.001890 441.10092 531.74493
542.0 0.001845 441.07437 530.02844
537.0 0.001862 441.04785 528.31793
540.0 0.001852 441.02121 526.61530
532.0 0.001880 440.99445 524.92194
533.0 0.001876 440.96756 523.23969
523.0 0.001912 440.94070 521.57019
518.0 0.001931 440.91360 519.91443
498.0 0.002008 440.88647 518.27386
509.0 0.001965 440.85919 516.64990
524.0 0.001908 440.83194 515.04382
516.0 0.001938 440.80457 513.45660
523.0 0.001912 440.77722 511.88962
528.0 0.001894 440.74957 510.34360
519.0 0.001927 440.72192 508.81976
539.0 0.001855 440.69415 507.31873
544.0 0.001838 440.66638 505.84161
526.0 0.001901 440.63852 504.38904
522.0 0.001916 440.61057 502.96149
490.0 0.002041 440.58246 501.55981
466.0 0.002146 440.55435 500.18436
493.0 0.002028 440.52606 498.83585
503.0 0.001988 440.49771 497.51450
496.0 0.002016 440.46936 496.22073
490.0 0.002041 440.44077 494.95486
488.0 0.002049 440.41229 493.71689
498.0 0.002008 440.38364 492.50720
480.0 0.002083 440.35486 491.32578
476.0 0.002101 440.32605 490.17264
499.0 0.002004 440.29706 489.04770
504.0 0.001984 440.26819 487.95105
472.0 0.002119 440.23907 486.88251
469.0 0.002132 440.20996 485.84167
471.0 0.002123 440.18069 484.82867
474.0 0.002110 440.15146 483.84296
483.0 0.002070 440.12210 482.88406
501.0 0.001996 440.09253 481.95197
492.0 0.002033 440.06305 481.04620
482.0 0.002075 440.03339 479.71976
453.0 0.002208 440.00366 478.86801
446.0 0.002242 439.97382 478.04117
465.0 0.002151 439.94394 477.23843
477.0 0.002096 439.91406 476.45944
492.0 0.002033 439.88400 475.70343
486.0 0.002058 439.85403 474.96997
474.0 0.002110 439.82376 474.25830
471.0 0.002123 439.79349 473.56769
462.0 0.002165 439.76318 472.89771
456.0 0.002193 439.73285 472.24765
470.0 0.002128 439.70230 471.61670
484.0 0.002066 439.67175 471.00443
502.0 0.001992 439.64105 470.41006
488.0 0.002049 439.61050 469.83267
477.0 0.002096 439.57965 469.27209
466.0 0.002146 439.54868 468.72729
479.0 0.002088 439.51785 468.22668
480.0 0.002083 439.48682 467.71219
470.0 0.002128 439.45566 467.21176
468.0 0.002137 439.42453 466.72495
435.0 0.002299 439.39337 466.25113
431.0 0.002320 439.36200 465.78979
473.0 0.002114 439.33075 465.34042
476.0 0.002101 439.29932 464.79355
477.0 0.002096 439.26773 464.36746
476.0 0.002101 439.23605 463.95187
459.0 0.002179 439.20444 463.54663
468.0 0.002137 439.17285 463.15134
451.0 0.002217 439.14096 462.76547
459.0 0.002179 439.10910 462.38885
471.0 0.002123 439.07709 462.02112
477.0 0.002096 439.04529 461.66220
470.0 0.002128 439.01312 461.31152
469.0 0.002132 438.98096 460.96936
456.0 0.002193 438.94885 460.63507
476.0 0.002101 438.91647 460.30881
470.0 0.002128 438.88419 459.99042
461.0 0.002169 438.85175 459.67972
460.0 0.002174 438.81934 459.37646
461.0 0.002169 438.78677 459.08099
426.0 0.002347 438.75415 458.79288
423.0 0.002364 438.72150 458.51215
465.0 0.002151 438.68875 458.23898
468.0 0.002137 438.65598 457.97314
473.0 0.002114 438.62311 457.71463
453.0 0.002208 438.59018 457.46375
448.0 0.002232 438.55719 457.22000
454.0 0.002203 438.52420 456.98392
448.0 0.002232 438.49106 456.75525
451.0 0.002217 438.45786 456.53397
462.0 0.002165 438.42462 456.32037
468.0 0.002137 438.39124 456.11435
438.0 0.002283 438.35785 455.91589
446.0 0.002242 438.32446 455.72513
449.0 0.002227 438.29105 455.54214
472.0 0.002119 438.25742 455.36685
475.0 0.002105 438.22388 455.19931
463.0 0.002160 438.19022 455.03970
456.0 0.002193 438.15637 454.88785
461.0 0.002169 438.12262 454.74405
415.0 0.002410 438.08875 454.60812
426.0 0.002347 438.05496 454.48013
448.0 0.002232 438.02097 454.36017
449.0 0.002227 437.98697 454.24808
456.0 0.002193 437.95285 454.14413
448.0 0.002232 437.91873 454.04816
448.0 0.002232 437.88446 453.96011
451.0 0.002217 437.85028 453.88016
440.0 0.002273 437.81592 453.80801
437.0 0.002288 437.78165 453.74396
456.0 0.002193 437.74722 453.68777
464.0 0.002155 437.71274 453.63931
434.0 0.002304 437.67819 453.59885
421.0 0.002375 437.64374 453.56595
415.0 0.002410 437.60895 453.54071
417.0 0.002398 437.57437 453.52283
446.0 0.002242 437.53961 453.51266
440.0 0.002273 437.50485 453.50970
441.0 0.002268 437.47006 453.51401
438.0 0.002283 437.43503 453.52539
397.0 0.002519 437.40012 453.54361
384.0 0.002604 437.36511 453.56873
422.0 0.002370 437.33002 453.60019
429.0 0.002331 437.29498 453.63828
447.0 0.002237 437.25989 453.68259
460.0 0.002174 437.22464 453.73276
458.0 0.002183 437.18939 453.78888
456.0 0.002193 437.15421 453.85046
434.0 0.002304 437.11874 453.91733
431.0 0.002320 437.08337 454.03308
441.0 0.002268 437.04785 454.11008
452.0 0.002212 437.01242 454.19162
440.0 0.002273 436.97699 454.27731
443.0 0.002257 436.94128 454.36703
439.0 0.002278 436.90579 454.46030
438.0 0.002283 436.87021 454.55692
455.0 0.002198 436.83429 454.65640
468.0 0.002137 436.79855 454.75848
461.0 0.002169 436.76294 454.86285
463.0 0.002160 436.72696 454.96906
433.0 0.002309 436.69110 455.07681
409.0 0.002445 436.65503 455.18561
436.0 0.002294 436.61908 455.29517
432.0 0.002315 436.58307 455.40500
436.0 0.002294 436.54700 455.51486
434.0 0.002304 436.51093 455.62418
430.0 0.002326 436.47479 455.73257
468.0 0.002137 436.43860 455.83969
449.0 0.002227 436.40244 455.94513
434.0 0.002304 436.36624 456.04825
451.0 0.002217 436.32980 456.14899
454.0 0.002203 436.29349 456.24661
445.0 0.002247 436.25708 456.34097
433.0 0.002309 436.22070 456.43146
422.0 0.002370 436.18433 456.51770
448.0 0.002232 436.14771 456.59955
442.0 0.002262 436.11121 456.67633
434.0 0.002304 436.07468 456.74796
435.0 0.002299 436.03799 456.81381
446.0 0.002242 436.00143 456.87372
411.0 0.002433 435.96475 456.92743
396.0 0.002525 435.92795 456.97455
424.0 0.002358 435.89127 457.01505
450.0 0.002222 435.85440 457.04858
472.0 0.002119 435.81760 457.07489
469.0 0.002132 435.78079 457.09387
449.0 0.002227 435.74393 457.10544
453.0 0.002208 435.70697 457.10928
441.0 0.002268 435.67001 457.10590
430.0 0.002326 435.63293 457.09460
441.0 0.002268 435.59595 457.07584
453.0 0.002208 435.55899 457.04944
441.0 0.002268 435.52188 457.01578
431.0 0.002320 435.48474 456.97449
433.0 0.002309 435.44769 456.92618
436.0 0.002294 435.41028 456.87054
456.0 0.002193 435.37326 456.80847
453.0 0.002208 435.33603 456.73944
444.0 0.002252 435.29871 456.66412
454.0 0.002203 435.26154 456.58264
428.0 0.002336 435.22418 456.49536
422.0 0.002370 435.18680 456.40262
452.0 0.002212 435.14938 456.30472
457.0 0.002188 435.11206 456.20190
442.0 0.002262 435.07458 456.09442
438.0 0.002283 435.03723 455.98279
435.0 0.002299 434.99960 455.86737
434.0 0.002304 434.96222 455.74857
410.0 0.002439 434.92465 455.62631
407.0 0.002457 434.88715 455.50159
445.0 0.002247 434.84958 455.37427
451.0 0.002217 434.81186 455.24472
442.0 0.002262 434.77435 455.11346
439.0 0.002278 434.73669 454.98090
434.0 0.002304 434.69910 454.82700
435.0 0.002299 434.66132 454.69247
453.0 0.002208 434.62369 454.55737
455.0 0.002198 434.58588 454.42209
448.0 0.002232 434.54819 454.28683
442.0 0.002262 434.51044 454.15173
421.0 0.002375 434.47260 454.01709
417.0 0.002398 434.43481 453.88339
433.0 0.002309 434.39703 453.75034
460.0 0.002174 434.35910 453.61865
459.0 0.002179 434.32132 453.48822
449.0 0.002227 434.28342 453.35913
443.0 0.002257 434.24545 453.23187
444.0 0.002252 434.20761 453.10620
429.0 0.002331 434.16962 452.98233
433.0 0.002309 434.13174 452.86047
446.0 0.002242 434.09378 452.74081
448.0 0.002232 434.05582 452.62296
435.0 0.002299 434.01782 452.50732
434.0 0.002304 433.97977 452.39395
428.0 0.002336 433.94177 452.28284
426.0 0.002347 433.90372 452.17374
481.0 0.002079 433.86566 452.06686
459.0 0.002179 433.82773 451.96210
442.0 0.002262 433.78958 451.85953
437.0 0.002288 433.75146 451.75888
415.0 0.002410 433.71347 451.66013
410.0 0.002439 433.67542 451.56323
436.0 0.002294 433.63718 451.46814
440.0 0.002273 433.59900 451.37469
449.0 0.002227 433.56094 451.28275
442.0 0.002262 433.52271 451.58905
437.0 0.002288 433.48456 451.50311
432.0 0.002315 433.44650 451.41824
424.0 0.002358 433.40826 451.33435
414.0 0.002415 433.37012 451.25113
438.0 0.002283 433.33188 451.16864
448.0 0.002232 433.29373 451.08649
436.0 0.002294 433.25552 451.00464
430.0 0.002326 433.21725 450.92282
437.0 0.002288 433.17911 450.84106
443.0 0.002257 433.14093 450.75885
449.0 0.002227 433.10263 450.67615
446.0 0.002242 433.06448 450.59311
437.0 0.002288 433.02625 450.50900
443.0 0.002257 432.98795 450.42389
412.0 0.002427 432.94983 450.33792
408.0 0.002451 432.91153 450.25049
431.0 0.002320 432.87326 449.22491
441.0 0.002268 432.83505 449.14081
443.0 0.002257 432.79675 449.05505
428.0 0.002336 432.75845 448.96729
434.0 0.002304 432.72028 448.87753
438.0 0.002283 432.68201 448.78571
437.0 0.002288 432.64380 448.69165
421.0 0.002375 432.60559 448.59543
443.0 0.002257 432.56729 448.49683
456.0 0.002193 432.52902 448.39563
429.0 0.002331 432.49084 448.29227
419.0 0.002387 432.45258 448.18634
425.0 0.002353 432.41418 448.07785
421.0 0.002375 432.37610 447.96677
437.0 0.002288 432.33789 447.85312
440.0 0.002273 432.29959 447.73691
451.0 0.002217 432.26144 447.61819
462.0 0.002165 432.22324 447.49692
416.0 0.002404 432.18488 447.37314
418.0 0.002392 432.14673 447.24686
444.0 0.002252 432.10855 447.11823
444.0 0.002252 432.07040 446.98709
445.0 0.002247 432.03220 446.85352
438.0 0.002283 431.99405 446.71802
425.0 0.002353 431.95584 446.58017
425.0 0.002353 431.91769 446.44028
424.0 0.002358 431.87952 446.29849
424.0 0.002358 431.84122 446.15479
440.0 0.002273 431.80310 446.00946
461.0 0.002169 431.76501 445.86249
432.0 0.002315 431.72693 445.62396
424.0 0.002358 431.68878 445.47482
432.0 0.002315 431.65067 445.32465
433.0 0.002309 431.61267 445.17319
450.0 0.002222 431.57455 445.02078
445.0 0.002247 431.53647 444.86795
429.0 0.002331 431.49847 444.71429
433.0 0.002309 431.46033 444.56033
408.0 0.002451 431.42230 444.40619
402.0 0.002488 431.38437 444.25183
440.0 0.002273 431.34634 444.09772
453.0 0.002208 431.30826 443.94370
457.0 0.002188 431.27029 443.79019
437.0 0.002288 431.23251 443.63736
435.0 0.002299 431.19446 443.48514
449.0 0.002227 431.15656 443.33377
437.0 0.002288 431.11874 443.18362
441.0 0.002268 431.08075 443.03430
449.0 0.002227 431.04291 442.88672
463.0 0.002160 431.00497 442.74023
431.0 0.002320 430.96719 442.59561
422.0 0.002370 430.92935 442.45255
435.0 0.002299 430.89157 442.31122
445.0 0.002247 430.85376 442.17203
460.0 0.002174 430.81604 442.03485
444.0 0.002252 430.77829 441.89975
430.0 0.002326 430.74057 441.76697
442.0 0.002262 430.70297 441.63651
420.0 0.002381 430.66525 441.50830
427.0 0.002342 430.62766 441.38269
447.0 0.002237 430.59000 441.25977
447.0 0.002237 430.55225 441.13931
451.0 0.002217 430.51480 441.02170
440.0 0.002273 430.47702 440.90659
431.0 0.002320 430.43967 440.79440
439.0 0.002278 430.40213 440.68506
429.0 0.002331 430.36462 440.57852
418.0 0.002392 430.32709 440.47485
435.0 0.002299 430.28979 440.37427
444.0 0.002252 430.25235 440.27655
427.0 0.002342 430.21497 440.18185
436.0 0.002294 430.17761 440.09015
430.0 0.002326 430.14026 440.00122
437.0 0.002288 430.10297 439.91565
451.0 0.002217 430.06561 439.83298
436.0 0.002294 430.02841 439.75354
434.0 0.002304 429.99121 439.67700
447.0 0.002237 429.95395 439.60349
426.0 0.002347 429.91681 439.53329
426.0 0.002347 429.87973 439.46613
434.0 0.002304 429.84253 439.44156
436.0 0.002294 429.80554 439.38101
460.0 0.002174 429.76846 439.32373
469.0 0.002132 429.73141 439.26962
444.0 0.002252 429.69440 439.21878
448.0 0.002232 429.65762 439.17111
441.0 0.002268 429.62061 439.12689
431.0 0.002320 429.58368 439.08621
456.0 0.002193 429.54688 439.04886
463.0 0.002160 429.51007 439.06250
442.0 0.002262 429.47327 439.03308
435.0 0.002299 429.43652 439.00751
442.0 0.002262 429.39981 438.98569
445.0 0.002247 429.36319 438.96777
447.0 0.002237 429.32654 438.95377
435.0 0.002299 429.28989 438.94415
442.0 0.002262 429.25342 438.93872
448.0 0.002232 429.21680 438.93753
410.0 0.002439 429.18027 438.94113
412.0 0.002427 429.14383 438.88684
442.0 0.002262 429.10745 438.90036
447.0 0.002237 429.07098 438.91864
453.0 0.002208 429.03473 438.94217
445.0 0.002247 428.99844 438.97113
443.0 0.002257 428.96216 439.00577
454.0 0.002203 428.92593 439.04593
436.0 0.002294 428.88971 439.09180
433.0 0.002309 428.85364 439.14410
448.0 0.002232 428.81747 439.20221
456.0 0.002193 428.78146 439.26718
445.0 0.002247 428.74542 439.33862
440.0 0.002273 428.70950 439.41693
438.0 0.002283 428.67355 439.50226
447.0 0.002237 428.63763 439.59470
464.0 0.002155 428.60175 439.69452
464.0 0.002155 428.56610 439.80212
455.0 0.002198 428.53024 439.91730
465.0 0.002151 428.49454 440.04074
437.0 0.002288 428.45880 440.17218
423.0 0.002364 428.42316 440.31183
444.0 0.002252 428.38757 440.46030
449.0 0.002227 428.35223 440.61707
450.0 0.002222 428.31671 440.78281
454.0 0.002203 428.28125 440.95752
451.0 0.002217 428.24585 441.14120
453.0 0.002208 428.21048 441.33426
459.0 0.002179 428.17517 441.53671
450.0 0.002222 428.13989 441.74854
459.0 0.002179 428.10474 441.97018
458.0 0.002183 428.06961 442.20139
441.0 0.002268 428.03452 442.44232
443.0 0.002257 427.99954 442.69330
441.0 0.002268 427.96454 442.95410
465.0 0.002151 427.92953 443.22482
479.0 0.002088 427.89468 443.50558
465.0 0.002151 427.85980 443.79645
461.0 0.002169 427.82495 444.13898
457.0 0.002188 427.79041 444.45016
424.0 0.002358 427.75552 444.77121
418.0 0.002392 427.72089 445.10242
445.0 0.002247 427.68634 445.44336
459.0 0.002179 427.65186 445.79410
469.0 0.002132 427.61740 446.15460
457.0 0.002188 427.58289 446.52466
454.0 0.002203 427.54852 446.90411
438.0 0.002283 427.51422 447.29297
439.0 0.002278 427.47998 447.69101
424.0 0.002358 427.44577 448.09781
439.0 0.002278 427.41162 448.51328
455.0 0.002198 427.37750 448.93738
451.0 0.002217 427.34348 449.36948
449.0 0.002227 427.30951 449.80969
444.0 0.002252 427.27557 450.25748
465.0 0.002151 427.24173 450.71262
469.0 0.002132 427.20795 451.17465
454.0 0.002203 427.17413 451.64343
449.0 0.002227 427.14050 452.11838
447.0 0.002237 427.10687 452.63376
415.0 0.002410 427.07330 453.12051
421.0 0.002375 427.03979 453.61221
458.0 0.002183 427.00635 454.10870
469.0 0.002132 426.97287 454.60925
473.0 0.002114 426.93967 455.11353
465.0 0.002151 426.90628 455.62115
458.0 0.002183 426.87311 456.13135
482.0 0.002075 426.84006 456.64395
472.0 0.002119 426.80682 457.15808
468.0 0.002137 426.77383 457.67349
488.0 0.002049 426.74084 458.18951
502.0 0.001992 426.70798 458.70541
479.0 0.002088 426.67523 459.22061
475.0 0.002105 426.64240 459.73486
474.0 0.002110 426.60971 460.24704
472.0 0.002119 426.57709 460.75687
486.0 0.002058 426.54449 461.26346
473.0 0.002114 426.51196 461.76617
471.0 0.002123 426.47952 462.26434
493.0 0.002028 426.44724 462.75732
453.0 0.002208 426.41486 463.24414
458.0 0.002183 426.38269 463.72427
474.0 0.002110 426.35046 464.19681
476.0 0.002101 426.31839 464.66098
510.0 0.001961 426.28635 465.11621
492.0 0.002033 426.25433 465.56116
480.0 0.002083 426.22241 465.99539
477.0 0.002096 426.19061 466.41794
474.0 0.002110 426.15878 466.82797
490.0 0.002041 426.12704 467.22452
519.0 0.001927 426.09549 467.60678
521.0 0.001919 426.06396 467.97388
522.0 0.001916 426.03241 468.32483
517.0 0.001934 426.00095 468.65878
512.0 0.001953 425.96960 468.97498
494.0 0.002024 425.93845 469.27252
501.0 0.001996 425.90710 469.55017
504.0 0.001984 425.87601 469.80750
500.0 0.002000 425.84491 470.04373
504.0 0.001984 425.81396 470.25790
478.0 0.002092 425.78311 470.44919
472.0 0.002119 425.75226 470.61697
500.0 0.002000 425.72141 470.76056
503.0 0.001988 425.69067 470.87939
501.0 0.001996 425.66003 470.84711
503.0 0.001988 425.62955 470.91553
506.0 0.001976 425.59906 470.95761
513.0 0.001949 425.56860 470.97293
511.0 0.001957 425.53836 470.96152
508.0 0.001969 425.50806 470.92258
509.0 0.001965 425.47781 470.85635
504.0 0.001984 425.44778 470.76257
493.0 0.002028 425.41782 470.64157
493.0 0.002028 425.38773 470.49292
508.0 0.001969 425.35797 470.31738
517.0 0.001934 425.32806 470.11487
524.0 0.001908 425.29840 469.88571
508.0 0.001969 425.26874 469.63058
491.0 0.002037 425.23920 469.34952
498.0 0.002008 425.20969 469.04364
475.0 0.002105 425.18024 468.71317
468.0 0.002137 425.15094 468.35873
483.0 0.002070 425.12164 467.98160
489.0 0.002045 425.09253 467.58212
496.0 0.002016 425.06345 467.16104
482.0 0.002075 425.03445 466.71960
479.0 0.002088 425.00552 466.25858
501.0 0.001996 424.97662 465.77887
491.0 0.002037 424.94781 465.28149
495.0 0.002020 424.91916 464.76740
518.0 0.001931 424.89063 464.23773
518.0 0.001931 424.86209 463.69333
501.0 0.001996 424.83356 463.13535
493.0 0.002028 424.80521 462.56479
480.0 0.002083 424.77707 461.98254
476.0 0.002101 424.74875 461.38995
491.0 0.002037 424.72064 460.78775
482.0 0.002075 424.69269 460.17715
477.0 0.002096 424.66467 459.55890
479.0 0.002088 424.63681 458.93414
453.0 0.002208 424.60898 458.30396
435.0 0.002299 424.58136 457.66913
454.0 0.002203 424.55368 457.03076
463.0 0.002160 424.52621 456.38940
494.0 0.002024 424.49866 455.74631
493.0 0.002028 424.47141 455.10239
474.0 0.002110 424.44418 454.45828
472.0 0.002119 424.41699 453.81491
456.0 0.002193 424.38977 453.17291
467.0 0.002141 424.36282 452.53329
472.0 0.002119 424.33591 451.89682
474.0 0.002110 424.30899 451.26392
465.0 0.002151 424.28229 450.63559
462.0 0.002165 424.25555 450.01239
450.0 0.002222 424.22900 449.39502
444.0 0.002252 424.20258 448.78418
458.0 0.002183 424.17618 448.18039
458.0 0.002183 424.14984 447.58405
461.0 0.002169 424.12360 446.99591
469.0 0.002132 424.09747 446.41638
433.0 0.002309 424.07141 445.84619
430.0 0.002326 424.04547 445.28561
474.0 0.002110 424.01950 444.73514
478.0 0.002092 423.99371 444.19498
487.0 0.002053 423.96808 443.66592
462.0 0.002165 423.94247 443.14810
445.0 0.002247 423.91699 442.64185
457.0 0.002188 423.89154 442.14767
445.0 0.002247 423.86618 441.66547
439.0 0.002278 423.84100 441.19592
466.0 0.002146 423.81577 440.73914
470.0 0.002128 423.79080 440.29520
449.0 0.002227 423.76593 439.86447
433.0 0.002309 423.74091 439.44717
439.0 0.002278 423.71613 439.04333
443.0 0.002257 423.69153 438.65302
455.0 0.002198 423.66678 438.27652
457.0 0.002188 423.64243 437.86444
439.0 0.002278 423.61804 437.51605
450.0 0.002222 423.59360 437.18155
426.0 0.002347 423.56946 436.86102
426.0 0.002347 423.54532 436.55460
458.0 0.002183 423.52130 436.26215
459.0 0.002179 423.49734 435.98370
456.0 0.002193 423.47345 435.71927
443.0 0.002257 423.44980 435.46863
436.0 0.002294 423.42615 435.23169
442.0 0.002262 423.40259 435.00864
431.0 0.002320 423.37915 434.79938
426.0 0.002347 423.35568 434.60367
436.0 0.002294 423.33240 434.42123
455.0 0.002198 423.30914 434.28552
445.0 0.002247 423.28616 434.12991
435.0 0.002299 423.26312 433.98724
447.0 0.002237 423.24014 433.85739
449.0 0.002227 423.21744 433.74026
445.0 0.002247 423.19485 433.63559
444.0 0.002252 423.17224 433.54333
434.0 0.002304 423.14966 433.46304
427.0 0.002342 423.12732 433.39468
398.0 0.002513 423.10489 433.33780
395.0 0.002532 423.08270 433.24731
433.0 0.002309 423.06058 433.21338
441.0 0.002268 423.03864 433.19064
468.0 0.002137 423.01666 433.17847
446.0 0.002242 422.99490 433.17679
447.0 0.002237 422.97314 433.18530
451.0 0.002217 422.95148 433.20377
441.0 0.002268 422.92996 433.23199
433.0 0.002309 422.90866 433.26950
454.0 0.002203 422.88724 433.31616
448.0 0.002232 422.86600 433.37177
426.0 0.002347 422.84482 433.43582
421.0 0.002375 422.82385 433.50833
416.0 0.002404 422.80295 433.58875
425.0 0.002353 422.78210 433.67676
437.0 0.002288 422.76141 433.77209
439.0 0.002278 422.74084 433.87479
458.0 0.002183 422.72015 433.98407
454.0 0.002203 422.69974 434.09998
419.0 0.002387 422.67953 434.22195
402.0 0.002488 422.65927 434.34982
433.0 0.002309 422.63916 434.48318
440.0 0.002273 422.61920 434.62189
438.0 0.002283 422.59927 434.77243
428.0 0.002336 422.57941 434.92062
447.0 0.002237 422.55963 435.07294
431.0 0.002320 422.54004 435.22925
426.0 0.002347 422.52051 435.38913
416.0 0.002404 422.50107 435.55222
430.0 0.002326 422.48190 435.71823
435.0 0.002299 422.46268 435.88675
430.0 0.002326 422.44354 436.05771
431.0 0.002320 422.42450 436.23022
417.0 0.002398 422.40561 436.40430
427.0 0.002342 422.38681 436.57974
450.0 0.002222 422.36807 436.75562
434.0 0.002304 422.34955 436.93222
422.0 0.002370 422.33096 437.10876
434.0 0.002304 422.31265 437.28522
402.0 0.002488 422.29440 437.46078
399.0 0.002506 422.27625 437.63556
420.0 0.002381 422.25815 437.80887
418.0 0.002392 422.24011 437.98044
434.0 0.002304 422.22235 438.15005
438.0 0.002283 422.20459 438.31726
431.0 0.002320 422.18695 438.48151
445.0 0.002247 422.16934 438.64294
437.0 0.002288 422.15198 438.80087
422.0 0.002370 422.13461 438.95486
431.0 0.002320 422.11743 439.10501
443.0 0.002257 422.10022 439.25064
433.0 0.002309 422.08322 439.39169
431.0 0.002320 422.06625 439.52768
435.0 0.002299 422.04950 439.65860
438.0 0.002283 422.03278 439.78391
441.0 0.002268 422.01620 439.90347
436.0 0.002294 421.99963 440.01712
433.0 0.002309 421.98331 440.12454
445.0 0.002247 421.96698 440.22583
411.0 0.002433 421.95081 440.32077
393.0 0.002545 421.93472 440.40881
422.0 0.002370 421.91876 440.49033
438.0 0.002283 421.90292 440.56497
450.0 0.002222 421.88718 440.63266
428.0 0.002336 421.87146 440.69342
417.0 0.002398 421.85593 440.74728
425.0 0.002353 421.84061 440.79422
422.0 0.002370 421.82526 440.80548
416.0 0.002404 421.81009 440.83862
431.0 0.002320 421.79486 440.86499
435.0 0.002299 421.77994 440.88455
421.0 0.002375 421.76505 440.89752
417.0 0.002398 421.75021 440.90381
423.0 0.002364 421.73553 440.90372
422.0 0.002370 421.72101 440.89725
435.0 0.002299 421.70645 440.88470
434.0 0.002304 421.69211 440.86618
440.0 0.002273 421.67783 440.84177
448.0 0.002232 421.66379 440.81168
417.0 0.002398 421.64972 440.77609
419.0 0.002387 421.63577 440.73541
462.0 0.002165 421.62192 440.68936
463.0 0.002160 421.60818 440.63858
455.0 0.002198 421.59457 440.58310
441.0 0.002268 421.58105 440.52292
419.0 0.002387 421.56769 440.45850
421.0 0.002375 421.55438 440.38989
420.0 0.002381 421.54132 440.38748
439.0 0.002278 421.52811 440.31137
446.0 0.002242 421.51517 440.23175
444.0 0.002252 421.50235 440.14850
424.0 0.002358 421.48962 440.06213
434.0 0.002304 421.47696 439.97217
416.0 0.002404 421.46439 439.87936
429.0 0.002331 421.45209 439.78339
441.0 0.002268 421.43976 439.68457
444.0 0.002252 421.42749 439.58295
435.0 0.002299 421.41544 439.47870
435.0 0.002299 421.40344 439.37177
402.0 0.002488 421.39157 439.26248
412.0 0.002427 421.37985 439.15060
431.0 0.002320 421.36810 439.03638
446.0 0.002242 421.35654 438.91980
451.0 0.002217 421.34512 438.80099
447.0 0.002237 421.33383 438.67978
419.0 0.002387 421.32257 438.55652
415.0 0.002410 421.31134 438.43094
421.0 0.002375 421.30045 438.30341
415.0 0.002410 421.28952 438.17361
434.0 0.002304 421.27878 438.04184
453.0 0.002208 421.26813 437.90784
438.0 0.002283 421.25757 437.77182
442.0 0.002262 421.24704 437.63379
436.0 0.002294 421.23676 437.49371
432.0 0.002315 421.22650 437.35175
440.0 0.002273 421.21622 437.20755
434.0 0.002304 421.20633 437.06146
427.0 0.002342 421.19641 436.91333
436.0 0.002294 421.18658 436.76337
404.0 0.002475 421.17691 436.61160
401.0 0.002494 421.16721 436.45761
439.0 0.002278 421.15781 436.30206
451.0 0.002217 421.14832 436.14441
451.0 0.002217 421.13928 435.98517
445.0 0.002247 421.13000 435.82404
432.0 0.002315 421.12100 435.66104
434.0 0.002304 421.11206 435.49649
425.0 0.002353 421.10312 435.33032
437.0 0.002288 421.09451 435.16241
455.0 0.002198 421.08585 434.99301
461.0 0.002169 421.07742 434.82211
437.0 0.002288 421.06891 434.64984
429.0 0.002331 421.06073 434.47610
443.0 0.002257 421.05255 434.30115
432.0 0.002315 421.04440 434.12491
443.0 0.002257 421.03650 433.98911
445.0 0.002247 421.02863 433.81110
433.0 0.002309 421.02087 433.63211
444.0 0.002252 421.01328 433.45230
405.0 0.002469 421.00580 433.27173
390.0 0.002564 420.99844 432.66248
412.0 0.002427 420.99100 432.48459
442.0 0.002262 420.98386 432.30582
429.0 0.002331 420.97681 432.12714
424.0 0.002358 420.96973 431.94794
431.0 0.002320 420.96292 431.76892
435.0 0.002299 420.95612 431.58987
430.0 0.002326 420.94946 431.41107
423.0 0.002364 420.94293 431.23260
436.0 0.002294 420.93649 431.05444
439.0 0.002278 420.93021 430.87717
446.0 0.002242 420.92395 430.70047
454.0 0.002203 420.91791 430.52466
458.0 0.002183 420.91180 430.34991
444.0 0.002252 420.90598 430.17621
442.0 0.002262 420.90015 430.00391
454.0 0.002203 420.89450 429.83289
457.0 0.002188 420.88901 429.66339
449.0 0.002227 420.88348 429.49557
419.0 0.002387 420.87814 429.32959
415.0 0.002410 420.87292 429.16547
448.0 0.002232 420.86783 429.00327
437.0 0.002288 420.86267 428.84329
440.0 0.002273 420.85776 428.68549
434.0 0.002304 420.85294 428.52985
426.0 0.002347 420.84827 428.37689
425.0 0.002353 420.84369 428.22638
411.0 0.002433 420.83914 428.07855
417.0 0.002398 420.83481 427.93344
439.0 0.002278 420.83054 427.79120
450.0 0.002222 420.82635 427.65189
431.0 0.002320 420.82233 427.51544
438.0 0.002283 420.81836 427.38199
429.0 0.002331 420.81445 427.25171
419.0 0.002387 420.81076 427.12476
435.0 0.002299 420.80707 427.00119
432.0 0.002315 420.80365 426.88092
423.0 0.002364 420.80014 426.76404
425.0 0.002353 420.79681 426.65060
393.0 0.002545 420.79358 426.54080
398.0 0.002513 420.79050 426.43439
436.0 0.002294 420.78748 426.33176
438.0 0.002283 420.78461 426.23267
429.0 0.002331 420.78186 426.13751
447.0 0.002237 420.77917 426.04599
431.0 0.002320 420.77658 425.95822
424.0 0.002358 420.77414 425.87442
415.0 0.002410 420.77179 425.79434
415.0 0.002410 420.76956 425.71814
431.0 0.002320 420.76736 425.64587
434.0 0.002304 420.76535 425.57745
423.0 0.002364 420.76340 425.51288
407.0 0.002457 420.76154 425.45233
401.0 0.002494 420.75992 425.39569
412.0 0.002427 420.75824 425.34280
441.0 0.002268 420.75665 425.29391
443.0 0.002257 420.75528 425.24902
436.0 0.002294 420.75391 425.20810
435.0 0.002299 420.75269 425.17084
413.0 0.002421 420.75165 425.13748
400.0 0.002500 420.75073 425.10803
415.0 0.002410 420.74979 425.08240
427.0 0.002342 420.74893 425.06046
440.0 0.002273 420.74826 425.04236
433.0 0.002309 420.74771 425.02786
436.0 0.002294 420.74716 425.01700
439.0 0.002278 420.74686 425.00983
433.0 0.002309 420.74658 425.00635
432.0 0.002315 420.74658 425.00626
437.0 0.002288 420.74631 425.00952
447.0 0.002237 420.74643 425.01633
432.0 0.002315 420.74652 425.02643
430.0 0.002326 420.74680 425.03976
428.0 0.002336 420.74716 425.05646
440.0 0.002273 420.74759 425.07614
455.0 0.002198 420.74811 425.09888
453.0 0.002208 420.74878 425.12469
456.0 0.002193 420.74948 425.15341
436.0 0.002294 420.75031 425.18491
398.0 0.002513 420.75128 425.21912
394.0 0.002538 420.75235 425.25580
423.0 0.002364 420.75351 425.29529
426.0 0.002347 420.75488 425.33719
441.0 0.002268 420.75613 425.38129
439.0 0.002278 420.75757 425.42764
423.0 0.002364 420.75919 425.47629
417.0 0.002398 420.76080 425.52692
429.0 0.002331 420.76273 425.57944
438.0 0.002283 420.76459 425.63391
450.0 0.002222 420.76654 425.69016
445.0 0.002247 420.76849 425.74789
423.0 0.002364 420.77069 425.80704
425.0 0.002353 420.77301 425.86777
430.0 0.002326 420.77533 425.92966
437.0 0.002288 420.77789 425.99271
443.0 0.002257 420.78040 426.05682
440.0 0.002273 420.78308 426.12173
447.0 0.002237 420.78586 426.18753
460.0 0.002174 420.78870 426.25391
430.0 0.002326 420.79163 426.32086
419.0 0.002387 420.79465 426.38815
442.0 0.002262 420.79791 426.45590
442.0 0.002262 420.80112 426.52368
437.0 0.002288 420.80441 426.59149
424.0 0.002358 420.80786 426.65930
429.0 0.002331 420.81149 426.72681
436.0 0.002294 420.81509 426.79410
439.0 0.002278 420.81882 426.86093
421.0 0.002375 420.82260 426.92715
454.0 0.002203 420.82660 426.99277
455.0 0.002198 420.83072 427.05753
438.0 0.002283 420.83487 427.12119
442.0 0.002262 420.83905 427.18402
431.0 0.002320 420.84338 427.24579
439.0 0.002278 420.84781 427.30627
460.0 0.002174 420.85229 427.36554
454.0 0.002203 420.85678 427.42337
452.0 0.002212 420.86157 427.47992
441.0 0.002268 420.86636 427.53485
398.0 0.002513 420.87125 427.58810
408.0 0.002451 420.87616 427.63974
428.0 0.002336 420.88129 427.68979
428.0 0.002336 420.88644 427.73822
438.0 0.002283 420.89175 427.78467
428.0 0.002336 420.89716 427.82938
411.0 0.002433 420.90247 427.87250
412.0 0.002427 420.90808 427.91364
411.0 0.002433 420.91367 427.95313
419.0 0.002387 420.91959 427.99084
434.0 0.002304 420.92529 428.02695
437.0 0.002288 420.93127 428.06131
425.0 0.002353 420.93726 428.09406
428.0 0.002336 420.94342 428.12518
426.0 0.002347 420.94958 428.15497
432.0 0.002315 420.95578 428.18326
460.0 0.002174 420.96219 428.21017
451.0 0.002217 420.96866 428.23590
440.0 0.002273 420.97519 428.26047
432.0 0.002315 420.98196 428.28412
408.0 0.002451 420.98859 428.30661
406.0 0.002463 420.99545 428.32834
435.0 0.002299 421.00241 428.34940
445.0 0.002247 421.00940 428.36978
437.0 0.002288 421.01651 428.38983
447.0 0.002237 421.02371 428.40936
440.0 0.002273 421.03094 428.42871
428.0 0.002336 421.03836 428.44800
414.0 0.002415 421.04587 428.46719
430.0 0.002326 421.05338 428.48657
454.0 0.002203 421.06097 428.50632
449.0 0.002227 421.06879 428.52643
423.0 0.002364 421.07654 428.54691
409.0 0.002445 421.08444 428.56815
418.0 0.002392 421.09250 428.59015
432.0 0.002315 421.10056 428.61285
444.0 0.002252 421.10864 428.63669
444.0 0.002252 421.11691 428.66153
436.0 0.002294 421.12515 428.68759
436.0 0.002294 421.13370 428.71494
405.0 0.002469 421.14212 428.74368
409.0 0.002445 421.15073 428.77393
437.0 0.002288 421.15939 428.80582
454.0 0.002203 421.16812 428.83923
449.0 0.002227 421.17700 428.87451
455.0 0.002198 421.18594 428.91162
449.0 0.002227 421.19492 429.03394
438.0 0.002283 421.20401 429.07565
434.0 0.002304 421.21326 429.11929
444.0 0.002252 421.22256 429.16510
455.0 0.002198 421.23184 429.21317
466.0 0.002146 421.24130 429.26334
449.0 0.002227 421.25076 429.31589
438.0 0.002283 421.26038 429.37076
430.0 0.002326 421.26999 429.42792
436.0 0.002294 421.27982 429.48752
450.0 0.002222 421.28964 429.54962
446.0 0.002242 421.29956 429.61395
439.0 0.002278 421.30957 429.68079
444.0 0.002252 421.31964 429.75000
418.0 0.002392 421.32983 429.82159
399.0 0.002506 421.34003 429.89563
419.0 0.002387 421.35043 429.97208
424.0 0.002358 421.36069 430.05096
440.0 0.002273 421.37125 430.13211
435.0 0.002299 421.38181 430.21542
431.0 0.002320 421.39246 430.30093
429.0 0.002331 421.40323 430.38876
430.0 0.002326 421.41400 430.47839
415.0 0.002410 421.42480 430.57028
427.0 0.002342 421.43588 430.66403
435.0 0.002299 421.44684 430.75970
423.0 0.002364 421.45789 430.85693
421.0 0.002375 421.46909 430.95587
421.0 0.002375 421.48047 431.01697
424.0 0.002358 421.49173 431.11917
439.0 0.002278 421.50314 431.22263
437.0 0.002288 421.51465 431.32715
437.0 0.002288 421.52618 431.43283
443.0 0.002257 421.53784 431.53925
414.0 0.002415 421.54953 431.64633
408.0 0.002451 421.56137 431.75400
441.0 0.002268 421.57318 431.86197
448.0 0.002232 421.58508 431.89197
454.0 0.002203 421.59714 432.00067
448.0 0.002232 421.60928 432.10931
439.0 0.002278 421.62140 432.21774
435.0 0.002299 421.63351 432.32535
419.0 0.002387 421.64584 432.43243
426.0 0.002347 421.65829 432.53860
433.0 0.002309 421.67075 432.64368
443.0 0.002257 421.68323 432.74744
442.0 0.002262 421.69583 432.84979
426.0 0.002347 421.70853 432.95044
424.0 0.002358 421.72122 433.04938
442.0 0.002262 421.73410 433.14618
452.0 0.002212 421.74692 433.24091
445.0 0.002247 421.75989 433.33340
434.0 0.002304 421.77289 433.42328
444.0 0.002252 421.78598 433.51059
419.0 0.002387 421.79907 433.59506
407.0 0.002457 421.81232 433.67679
446.0 0.002242 421.82568 433.75534
453.0 0.002208 421.83893 433.83081
442.0 0.002262 421.85236 433.90283
442.0 0.002262 421.86591 433.97180
435.0 0.002299 421.87946 434.03738
434.0 0.002304 421.89304 434.09930
440.0 0.002273 421.90671 434.15790
426.0 0.002347 421.92056 434.21265
433.0 0.002309 421.93433 434.26392
435.0 0.002299 421.94824 434.31146
430.0 0.002326 421.96219 434.35541
411.0 0.002433 421.97617 434.39572
419.0 0.002387 421.99023 434.43225
436.0 0.002294 422.00439 434.46500
445.0 0.002247 422.01865 434.49423
456.0 0.002193 422.03290 434.51984
441.0 0.002268 422.04715 434.54156
447.0 0.002237 422.06171 434.56006
406.0 0.002463 422.07611 434.57474
395.0 0.002532 422.09070 434.58585
424.0 0.002358 422.10529 434.59335
427.0 0.002342 422.11984 434.59741
446.0 0.002242 422.13464 434.59805
432.0 0.002315 422.14938 434.59521
422.0 0.002370 422.16425 434.58893
431.0 0.002320 422.17908 434.57928
425.0 0.002353 422.19415 434.56625
427.0 0.002342 422.20911 434.55002
448.0 0.002232 422.22415 434.48868
449.0 0.002227 422.23929 434.46600
442.0 0.002262 422.25458 434.44009
451.0 0.002217 422.26971 434.41086
443.0 0.002257 422.28506 434.37823
439.0 0.002278 422.30042 434.34256
455.0 0.002198 422.31586 434.30362
435.0 0.002299 422.33130 434.26141
429.0 0.002331 422.34683 434.21603
453.0 0.002208 422.36249 434.16751
418.0 0.002392 422.37808 434.11560
411.0 0.002433 422.39386 434.06073
446.0 0.002242 422.40955 434.00253
444.0 0.002252 422.42542 433.94113
455.0 0.002198 422.44128 433.87689
431.0 0.002320 422.45721 433.80930
429.0 0.002331 422.47327 433.73862
427.0 0.002342 422.48923 433.66498
415.0 0.002410 422.50540 433.58835
419.0 0.002387 422.52148 433.50851
455.0 0.002198 422.53763 433.42593
458.0 0.002183 422.55392 433.30597
432.0 0.002315 422.57019 433.21774
437.0 0.002288 422.58655 433.12692
441.0 0.002268 422.60291 433.03345
445.0 0.002247 422.61938 432.93747
444.0 0.002252 422.63589 432.83875
441.0 0.002268 422.65240 432.73788
424.0 0.002358 422.66907 432.63461
444.0 0.002252 422.68570 432.52896
415.0 0.002410 422.70236 432.42145
406.0 0.002463 422.71924 432.31195
428.0 0.002336 422.73605 432.20068
447.0 0.002237 422.75272 432.08762
448.0 0.002232 422.76968 431.97318
439.0 0.002278 422.78662 431.85724
429.0 0.002331 422.80371 431.73999
427.0 0.002342 422.82062 431.62161
409.0 0.002445 422.83786 431.50229
398.0 0.002513 422.85489 431.38208
419.0 0.002387 422.87207 431.26129
435.0 0.002299 422.88940 431.13980
423.0 0.002364 422.90665 431.01807
424.0 0.002358 422.92392 430.89600
426.0 0.002347 422.94119 430.77380
419.0 0.002387 422.95865 430.65179
436.0 0.002294 422.97620 430.52988
445.0 0.002247 422.99362 430.40826
437.0 0.002288 423.01126 430.28714
434.0 0.002304 423.02881 430.16656
393.0 0.002545 423.04636 430.04678
392.0 0.002551 423.06400 429.92773
434.0 0.002304 423.08157 429.80978
444.0 0.002252 423.09949 429.69272
443.0 0.002257 423.11722 429.57709
426.0 0.002347 423.13510 429.46268
415.0 0.002410 423.15292 429.34976
430.0 0.002326 423.17081 429.23819
422.0 0.002370 423.18881 429.12842
409.0 0.002445 423.20682 429.02036
429.0 0.002331 423.22473 428.91400
448.0 0.002232 423.24286 428.80966
437.0 0.002288 423.26102 428.70740
421.0 0.002375 423.27914 428.60706
410.0 0.002439 423.29733 428.50900
410.0 0.002439 423.31555 428.41318
428.0 0.002336 423.33371 428.31967
422.0 0.002370 423.35199 428.22867
433.0 0.002309 423.37042 428.13995
429.0 0.002331 423.38867 428.05386
410.0 0.002439 423.40710 427.97046
398.0 0.002513 423.42563 427.88956
414.0 0.002415 423.44415 427.81149
414.0 0.002415 423.46259 427.73621
439.0 0.002278 423.48108 427.66385
443.0 0.002257 423.49969 427.59415
440.0 0.002273 423.51828 427.52750
433.0 0.002309 423.53693 427.46375
428.0 0.002336 423.55563 427.42944
425.0 0.002353 423.57434 427.37216
442.0 0.002262 423.59299 427.31784
445.0 0.002247 423.61182 427.26663
433.0 0.002309 423.63062 427.21887
429.0 0.002331 423.64948 427.17401
429.0 0.002331 423.66827 427.13266
435.0 0.002299 423.68719 427.09442
438.0 0.002283 423.70615 427.05963
429.0 0.002331 423.72507 427.02817
427.0 0.002342 423.74408 427.00015
433.0 0.002309 423.76303 426.97559
413.0 0.002421 423.78207 426.95435
406.0 0.002463 423.80124 426.93652
436.0 0.002294 423.82031 426.92233
431.0 0.002320 423.83936 426.91162
427.0 0.002342 423.85858 426.90457
427.0 0.002342 423.87766 426.90082
423.0 0.002364 423.89685 426.90070
426.0 0.002347 423.91605 426.90433
416.0 0.002404 423.93542 426.91144
412.0 0.002427 423.95468 426.92224
427.0 0.002342 423.97391 426.93674
431.0 0.002320 423.99323 426.95474
420.0 0.002381 424.01263 426.97656
417.0 0.002398 424.03204 427.00208
421.0 0.002375 424.05145 427.03110
429.0 0.002331 424.07086 427.06396
438.0 0.002283 424.09030 427.10043
436.0 0.002294 424.10977 427.14072
437.0 0.002288 424.12918 427.18460
440.0 0.002273 424.14871 427.23236
406.0 0.002463 424.16824 427.28378
392.0 0.002551 424.18787 427.33890
416.0 0.002404 424.20743 427.39780
426.0 0.002347 424.22702 427.46027
437.0 0.002288 424.24664 427.52655
435.0 0.002299 424.26630 427.59656
426.0 0.002347 424.28595 427.67020
432.0 0.002315 424.30560 427.74753
414.0 0.002415 424.32526 427.82846
416.0 0.002404 424.34500 427.91299
432.0 0.002315 424.36484 428.00116
446.0 0.002242 424.38452 428.09305
412.0 0.002427 424.40427 428.18835
412.0 0.002427 424.42410 428.28723
431.0 0.002320 424.44394 428.38968
436.0 0.002294 424.46365 428.49548
436.0 0.002294 424.48352 428.60474
443.0 0.002257 424.50333 428.71738
438.0 0.002283 424.52332 428.83328
449.0 0.002227 424.54315 428.95245
416.0 0.002404 424.56299 429.07486
406.0 0.002463 424.58292 429.20044
431.0 0.002320 424.60275 429.32916
431.0 0.002320 424.62277 429.46069
453.0 0.002208 424.64276 429.59531
448.0 0.002232 424.66272 429.73270
438.0 0.002283 424.68265 429.87302
439.0 0.002278 424.70267 430.01593
420.0 0.002381 424.72260 430.16141
401.0 0.002494 424.74261 430.30933
428.0 0.002336 424.76266 430.45959
445.0 0.002247 424.78268 430.61240
429.0 0.002331 424.80273 430.76709
419.0 0.002387 424.82278 430.92395
414.0 0.002415 424.84293 431.08255
422.0 0.002370 424.86288 431.24304
432.0 0.002315 424.88300 431.40515
435.0 0.002299 424.90311 431.56873
428.0 0.002336 424.92322 431.73383
434.0 0.002304 424.94333 431.89999
399.0 0.002506 424.96341 432.06720
395.0 0.002532 424.98361 432.23523
428.0 0.002336 425.00363 432.40396
437.0 0.002288 425.02383 432.54001
438.0 0.002283 425.04401 432.70990
438.0 0.002283 425.06409 432.87991
433.0 0.002309 425.08426 433.04999
426.0 0.002347 425.10446 433.21964
420.0 0.002381 425.12454 433.38898
431.0 0.002320 425.14478 433.55777
436.0 0.002294 425.16486 433.72546
444.0 0.002252 425.18512 433.89215
449.0 0.002227 425.20535 434.05774
431.0 0.002320 425.22546 434.22156
424.0 0.002358 425.24564 434.38376
426.0 0.002347 425.26587 434.54404
435.0 0.002299 425.28610 434.70197
427.0 0.002342 425.30624 434.85760
423.0 0.002364 425.32648 435.01047
427.0 0.002342 425.34668 435.16034
416.0 0.002404 425.36685 435.30707
406.0 0.002463 425.38705 435.45032
428.0 0.002336 425.40726 435.59000
446.0 0.002242 425.42749 435.72568
465.0 0.002151 425.44769 435.85724
436.0 0.002294 425.46786 435.98431
415.0 0.002410 425.48807 436.10681
426.0 0.002347 425.50833 436.22437
409.0 0.002445 425.52856 436.33698
409.0 0.002445 425.54865 436.44418
432.0 0.002315 425.56891 436.54587
453.0 0.002208 425.58914 436.64178
442.0 0.002262 425.60925 436.73175
419.0 0.002387 425.62943 436.81567
420.0 0.002381 425.64966 436.89331
426.0 0.002347 425.66995 436.96448
445.0 0.002247 425.69009 437.02228
446.0 0.002242 425.71027 437.08014
438.0 0.002283 425.73038 437.13135
441.0 0.002268 425.75067 437.17581
407.0 0.002457 425.77075 437.21307
399.0 0.002506 425.79089 437.24332
429.0 0.002331 425.81107 437.26669
442.0 0.002262 425.83124 437.28278
454.0 0.002203 425.85138 437.29208
455.0 0.002198 425.87137 437.29413
440.0 0.002273 425.89163 437.28934
432.0 0.002315 425.91168 437.27750
427.0 0.002342 425.93192 437.25897
447.0 0.002237 425.95190 437.23380
454.0 0.002203 425.97202 437.20184
450.0 0.002222 425.99216 437.22833
432.0 0.002315 426.01224 437.18414
424.0 0.002358 426.03235 437.13367
414.0 0.002415 426.05234 437.07736
422.0 0.002370 426.07242 437.01508
436.0 0.002294 426.09250 436.94736
433.0 0.002309 426.11249 436.87418
424.0 0.002358 426.13242 436.79599
433.0 0.002309 426.15247 436.71271
403.0 0.002481 426.17252 436.62482
398.0 0.002513 426.19247 436.53235
429.0 0.002331 426.21243 436.43585
430.0 0.002326 426.23239 436.33514
442.0 0.002262 426.25235 436.23077
440.0 0.002273 426.27231 436.12289
431.0 0.002320 426.29221 436.01163
442.0 0.002262 426.31219 435.89758
431.0 0.002320 426.33203 435.78049
426.0 0.002347 426.35184 435.66113
453.0 0.002208 426.37173 435.53931
453.0 0.002208 426.39169 435.42493
436.0 0.002294 426.41144 435.29929
424.0 0.002358 426.43140 435.17209
418.0 0.002392 426.45117 435.04352
442.0 0.002262 426.47098 434.91367
455.0 0.002198 426.49075 434.78290
438.0 0.002283 426.51053 434.65143
435.0 0.002299 426.53030 434.51950
437.0 0.002288 426.55005 434.38721
402.0 0.002488 426.56967 434.25476
397.0 0.002519 426.58945 434.12241
424.0 0.002358 426.60910 433.99011
437.0 0.002288 426.62872 433.85840
449.0 0.002227 426.64850 433.72720
441.0 0.002268 426.66800 433.59674
437.0 0.002288 426.68774 433.46725
441.0 0.002268 426.70724 433.33881
442.0 0.002262 426.72684 433.21167
430.0 0.002326 426.74631 433.08569
433.0 0.002309 426.76593 432.96130
438.0 0.002283 426.78537 432.83841
429.0 0.002331 426.80499 432.71750
426.0 0.002347 426.82431 432.59839
425.0 0.002353 426.84381 432.48117
423.0 0.002364 426.86340 432.36612
438.0 0.002283 426.88269 432.25311
435.0 0.002299 426.90216 432.14258
434.0 0.002304 426.92157 432.03436
442.0 0.002262 426.94080 431.92844
406.0 0.002463 426.96024 431.75504
405.0 0.002469 426.97949 431.65491
431.0 0.002320 426.99878 431.55740
439.0 0.002278 427.01807 431.46265
452.0 0.002212 427.03732 431.37067
428.0 0.002336 427.05649 431.28162
412.0 0.002427 427.07565 431.19537
417.0 0.002398 427.09482 431.11221
425.0 0.002353 427.11398 431.03186
428.0 0.002336 427.13303 431.12668
443.0 0.002257 427.15228 431.05344
440.0 0.002273 427.17126 430.98325
427.0 0.002342 427.19031 430.91608
416.0 0.002404 427.20938 430.85196
412.0 0.002427 427.22836 430.79114
426.0 0.002347 427.24731 430.73328
436.0 0.002294 427.26620 430.67856
444.0 0.002252 427.28522 430.62689
435.0 0.002299 427.30423 430.57846
431.0 0.002320 427.32294 430.53305
416.0 0.002404 427.34180 430.49066
416.0 0.002404 427.36063 430.45142
442.0 0.002262 427.37930 430.41522
441.0 0.002268 427.39819 430.38199
454.0 0.002203 427.41690 430.35178
443.0 0.002257 427.43564 430.32446
423.0 0.002364 427.45428 430.30008
421.0 0.002375 427.47296 430.27881
417.0 0.002398 427.49155 430.26028
401.0 0.002494 427.51019 430.24451
417.0 0.002398 427.52869 430.23163
433.0 0.002309 427.54721 430.22153
438.0 0.002283 427.56570 430.21405
432.0 0.002315 427.58417 430.20923
431.0 0.002320 427.60266 430.20715
424.0 0.002358 427.62109 430.20767
446.0 0.002242 427.63947 430.21054
452.0 0.002212 427.65787 430.21600
437.0 0.002288 427.67615 430.22375
439.0 0.002278 427.69443 430.23401
428.0 0.002336 427.71265 430.24652
418.0 0.002392 427.73099 430.26129
442.0 0.002262 427.74918 430.27829
447.0 0.002237 427.76736 430.29736
450.0 0.002222 427.78549 430.31857
440.0 0.002273 427.80356 430.34186
423.0 0.002364 427.82175 430.36697
422.0 0.002370 427.83963 430.39413
414.0 0.002415 427.85770 430.38141
415.0 0.002410 427.87561 430.41248
424.0 0.002358 427.89362 430.44507
421.0 0.002375 427.91150 430.47949
409.0 0.002445 427.92929 430.51547
417.0 0.002398 427.94727 430.55298
418.0 0.002392 427.96506 430.59195
422.0 0.002370 427.98276 430.63229
431.0 0.002320 428.00058 430.67395
432.0 0.002315 428.01825 430.71698
426.0 0.002347 428.03595 430.76111
443.0 0.002257 428.05359 430.80640
413.0 0.002421 428.07126 430.85269
401.0 0.002494 428.08875 430.90012
427.0 0.002342 428.10629 430.94821
440.0 0.002273 428.12387 430.99738
438.0 0.002283 428.14117 431.04721
437.0 0.002288 428.15863 431.09787
440.0 0.002273 428.17606 431.14908
436.0 0.002294 428.19342 431.20102
419.0 0.002387 428.21078 431.25336
409.0 0.002445 428.22800 431.30615
436.0 0.002294 428.24524 431.35941
443.0 0.002257 428.26242 431.41284
447.0 0.002237 428.27960 431.46640
437.0 0.002288 428.29684 431.52026
426.0 0.002347 428.31387 431.57419
425.0 0.002353 428.33093 431.62811
447.0 0.002237 428.34805 431.68195
436.0 0.002294 428.36502 431.73581
437.0 0.002288 428.38199 431.78925
436.0 0.002294 428.39880 431.84259
403.0 0.002481 428.41577 431.89548
399.0 0.002506 428.43256 431.94800
435.0 0.002299 428.44943 432.00006
437.0 0.002288 428.46613 432.05148
448.0 0.002232 428.48291 432.10233
443.0 0.002257 428.49951 432.15247
438.0 0.002283 428.51630 432.20193
436.0 0.002294 428.53281 432.25046
424.0 0.002358 428.54932 432.29828
423.0 0.002364 428.56598 432.34500
437.0 0.002288 428.58240 432.39072
436.0 0.002294 428.59888 432.43542
424.0 0.002358 428.61533 432.47925
409.0 0.002445 428.63168 432.52158
429.0 0.002331 428.64798 432.56284
421.0 0.002375 428.66431 432.60291
436.0 0.002294 428.68054 432.64166
437.0 0.002288 428.69678 432.67917
439.0 0.002278 428.71289 432.71530
457.0 0.002188 428.72906 432.75006
426.0 0.002347 428.74521 432.78348
410.0 0.002439 428.76132 432.81543
426.0 0.002347 428.77722 432.84610
425.0 0.002353 428.79309 432.87540
427.0 0.002342 428.80911 432.90326
426.0 0.002347 428.82504 432.92975
424.0 0.002358 428.84094 432.95486
425.0 0.002353 428.85672 432.97882
423.0 0.002364 428.87253 433.00128
421.0 0.002375 428.88824 433.02261
439.0 0.002278 428.90390 433.04272
456.0 0.002193 428.91953 433.06165
441.0 0.002268 428.93512 433.07938
436.0 0.002294 428.95071 433.09616
450.0 0.002222 428.96628 433.11203
448.0 0.002232 428.98172 433.12680
443.0 0.002257 428.99710 433.14075
439.0 0.002278 429.01251 433.15405
445.0 0.002247 429.02783 433.16660
442.0 0.002262 429.04321 433.17856
397.0 0.002519 429.05844 433.19003
392.0 0.002551 429.07367 433.20093
418.0 0.002392 429.08884 433.21173
425.0 0.002353 429.10400 433.22229
420.0 0.002381 429.11905 433.23257
420.0 0.002381 429.13419 433.24292
429.0 0.002331 429.14917 433.25314
438.0 0.002283 429.16415 433.26367
430.0 0.002326 429.17902 433.27451
430.0 0.002326 429.19397 433.28552
435.0 0.002299 429.20886 433.29718
441.0 0.002268 429.22363 433.30927
428.0 0.002336 429.23834 433.32199
432.0 0.002315 429.25311 433.33548
417.0 0.002398 429.26773 433.34995
422.0 0.002370 429.28235 433.36517
437.0 0.002288 429.29697 433.38159
452.0 0.002212 429.31152 433.39899
449.0 0.002227 429.32602 433.41766
448.0 0.002232 429.34058 433.43774
404.0 0.002475 429.35492 433.45911
408.0 0.002451 429.36926 433.48203
426.0 0.002347 429.38351 433.50659
441.0 0.002268 429.39795 433.53259
445.0 0.002247 429.41220 433.56058
431.0 0.002320 429.42636 433.59311
431.0 0.002320 429.44043 433.62460
432.0 0.002315 429.45456 433.65808
439.0 0.002278 429.46863 433.69363
431.0 0.002320 429.48267 433.73135
444.0 0.002252 429.49658 433.77127
454.0 0.002203 429.51059 433.81320
437.0 0.002288 429.52432 433.85748
423.0 0.002364 429.53833 433.90408
416.0 0.002404 429.55203 433.95316
417.0 0.002398 429.56586 434.00452
431.0 0.002320 429.57953 434.05838
430.0 0.002326 429.59332 434.11478
426.0 0.002347 429.60687 434.17358
425.0 0.002353 429.62051 434.23499
389.0 0.002571 429.63406 434.29895
396.0 0.002525 429.64755 434.36560
417.0 0.002398 429.66101 434.43481
420.0 0.002381 429.67422 434.50662
431.0 0.002320 429.68777 434.58109
447.0 0.002237 429.70108 434.65829
437.0 0.002288 429.71429 434.73795
416.0 0.002404 429.72754 434.82031
411.0 0.002433 429.74069 434.90527
415.0 0.002410 429.75388 434.99283
442.0 0.002262 429.76694 435.08307
445.0 0.002247 429.78003 435.17578
428.0 0.002336 429.79300 435.27100
423.0 0.002364 429.80594 435.36871
434.0 0.002304 429.81897 435.46893
423.0 0.002364 429.83173 435.57144
439.0 0.002278 429.84464 435.67621
442.0 0.002262 429.85739 435.78342
427.0 0.002342 429.87015 435.89297
435.0 0.002299 429.88278 436.00455
415.0 0.002410 429.89542 436.11816
401.0 0.002494 429.90811 436.23376
432.0 0.002315 429.92068 436.35156
442.0 0.002262 429.93323 436.47098
445.0 0.002247 429.94568 436.59229
441.0 0.002268 429.95813 436.71521
439.0 0.002278 429.97058 436.83978
439.0 0.002278 429.98282 436.96576
428.0 0.002336 429.99521 437.09305
427.0 0.002342 430.00754 437.22174
435.0 0.002299 430.01956 437.35156
449.0 0.002227 430.03186 437.48230
426.0 0.002347 430.04407 437.61395
441.0 0.002268 430.05603 437.74637
438.0 0.002283 430.06812 437.87939
428.0 0.002336 430.08014 438.01318
440.0 0.002273 430.09201 438.14700
446.0 0.002242 430.10397 438.28125
443.0 0.002257 430.11594 438.41565
451.0 0.002217 430.12766 438.54993
418.0 0.002392 430.13953 438.68390
402.0 0.002488 430.15125 438.81769
431.0 0.002320 430.16296 438.95087
445.0 0.002247 430.17471 439.08353
457.0 0.002188 430.18625 439.21530
450.0 0.002222 430.19778 439.34604
434.0 0.002304 430.20935 439.47580
432.0 0.002315 430.22092 439.60428
429.0 0.002331 430.23239 439.73132
421.0 0.002375 430.24374 439.85672
442.0 0.002262 430.25510 439.98062
448.0 0.002232 430.26642 440.10263
442.0 0.002262 430.27762 440.22260
431.0 0.002320 430.28894 440.34042
437.0 0.002288 430.30005 440.45605
434.0 0.002304 430.31116 440.56924
460.0 0.002174 430.32236 440.68015
457.0 0.002188 430.33340 440.78833
442.0 0.002262 430.34448 440.81036
443.0 0.002257 430.35547 440.91370
421.0 0.002375 430.36636 441.01422
427.0 0.002342 430.37726 441.11176
452.0 0.002212 430.38803 441.20636
453.0 0.002208 430.39890 441.29803
452.0 0.002212 430.40973 441.38629
451.0 0.002217 430.42035 441.47189
435.0 0.002299 430.43115 441.55432
444.0 0.002252 430.44171 441.63361
435.0 0.002299 430.45245 441.70993
439.0 0.002278 430.46289 441.78339
449.0 0.002227 430.47345 441.85367
457.0 0.002188 430.48401 441.92136
448.0 0.002232 430.49445 441.98615
432.0 0.002315 430.50488 442.04828
433.0 0.002309 430.51529 442.10797
448.0 0.002232 430.52557 442.16522
461.0 0.002169 430.53574 442.22028
463.0 0.002160 430.54605 442.27316
447.0 0.002237 430.55627 442.32413
452.0 0.002212 430.56653 442.37338
428.0 0.002336 430.57657 442.42090
419.0 0.002387 430.58664 442.46710
445.0 0.002247 430.59671 442.51224
450.0 0.002222 430.60672 442.55643
438.0 0.002283 430.61673 442.59973
449.0 0.002227 430.62668 442.64252
445.0 0.002247 430.63657 442.68512
440.0 0.002273 430.64639 442.72763
436.0 0.002294 430.65625 442.77029
418.0 0.002392 430.66599 442.81348
453.0 0.002208 430.67575 442.85724
461.0 0.002169 430.68536 442.90195
452.0 0.002212 430.69510 442.94775
454.0 0.002203 430.70468 442.99500
444.0 0.002252 430.71429 443.04388
444.0 0.002252 430.72385 443.09451
461.0 0.002169 430.73337 443.14737
449.0 0.002227 430.74289 443.20258
443.0 0.002257 430.75226 443.26022
444.0 0.002252 430.76175 443.32068
423.0 0.002364 430.77112 443.38403
407.0 0.002457 430.78046 443.45068
436.0 0.002294 430.78976 443.52066
450.0 0.002222 430.79895 443.59409
468.0 0.002137 430.80811 443.67139
470.0 0.002128 430.81738 443.75259
449.0 0.002227 430.82648 443.83786
445.0 0.002247 430.83569 443.92752
443.0 0.002257 430.84467 444.02148
441.0 0.002268 430.85376 444.11987
455.0 0.002198 430.86273 444.22299
470.0 0.002128 430.87170 444.33096
455.0 0.002198 430.88065 444.44379
446.0 0.002242 430.88953 444.56155
448.0 0.002232 430.89850 444.68423
450.0 0.002222 430.90723 444.81226
464.0 0.002155 430.91605 444.94537
467.0 0.002141 430.92477 445.08347
457.0 0.002188 430.93359 445.22705
465.0 0.002151 430.94229 445.37595
425.0 0.002353 430.95090 445.52994
414.0 0.002415 430.95944 445.68924
450.0 0.002222 430.96811 445.85373
473.0 0.002114 430.97665 446.02332
469.0 0.002132 430.98520 446.19812
457.0 0.002188 430.99365 446.37799
449.0 0.002227 431.00220 446.56281
440.0 0.002273 431.01065 446.75238
431.0 0.002320 431.01901 446.94678
430.0 0.002326 431.02734 447.14594
456.0 0.002193 431.03580 447.34943
464.0 0.002155 431.04391 447.55731
450.0 0.002222 431.05228 447.76926
454.0 0.002203 431.06049 447.98550
435.0 0.002299 431.06882 448.20526
438.0 0.002283 431.07693 448.42853
453.0 0.002208 431.08505 448.65524
458.0 0.002183 431.09317 448.88513
459.0 0.002179 431.10126 449.11777
460.0 0.002174 431.10934 449.35306
424.0 0.002358 431.11737 449.59045
427.0 0.002342 431.12543 449.82990
454.0 0.002203 431.13336 450.07114
460.0 0.002174 431.14127 450.31354
463.0 0.002160 431.14920 450.55707
465.0 0.002151 431.15704 450.80106
443.0 0.002257 431.16501 451.04541
453.0 0.002208 431.17273 451.28961
447.0 0.002237 431.18054 451.53336
453.0 0.002208 431.18839 451.77615
477.0 0.002096 431.19604 452.01767
479.0 0.002088 431.20389 452.25732
461.0 0.002169 431.21152 452.49478
461.0 0.002169 431.21909 452.72968
444.0 0.002252 431.22684 453.40048
439.0 0.002278 431.23431 453.63177
444.0 0.002252 431.24203 453.85895
450.0 0.002222 431.24954 454.08179
467.0 0.002141 431.25702 454.29953
456.0 0.002193 431.26459 454.51181
437.0 0.002288 431.27203 454.71814
431.0 0.002320 431.27948 454.91821
455.0 0.002198 431.28693 455.11121
454.0 0.002203 431.29431 455.29691
464.0 0.002155 431.30173 455.47467
454.0 0.002203 431.30908 455.64423
459.0 0.002179 431.31641 455.80490
461.0 0.002169 431.32382 455.95636
436.0 0.002294 431.33105 456.09821
429.0 0.002331 431.33832 456.22995
446.0 0.002242 431.34552 456.35123
476.0 0.002101 431.35272 456.46164
444.0 0.002252 431.35986 456.56094
447.0 0.002237 431.36703 456.64871
451.0 0.002217 431.37430 456.72467
447.0 0.002237 431.38138 456.78851
464.0 0.002155 431.38843 456.84027
467.0 0.002141 431.39557 456.87921
453.0 0.002208 431.40259 456.90567
453.0 0.002208 431.40964 456.93985
432.0 0.002315 431.41672 456.94089
420.0 0.002381 431.42377 456.92877
448.0 0.002232 431.43073 456.90369
455.0 0.002198 431.43753 456.86569
458.0 0.002183 431.44455 456.81482
449.0 0.002227 431.45148 456.75113
443.0 0.002257 431.45831 456.67465
450.0 0.002222 431.46530 456.58588
442.0 0.002262 431.47217 456.48459
438.0 0.002283 431.47900 456.37131
449.0 0.002227 431.48584 456.24609
474.0 0.002110 431.49258 456.10916
456.0 0.002193 431.49930 455.96121
455.0 0.002198 431.50626 455.80219
441.0 0.002268 431.51291 455.63248
458.0 0.002183 431.51965 455.45267
463.0 0.002160 431.52646 455.26294
462.0 0.002165 431.53311 455.06378
463.0 0.002160 431.53989 454.85556
456.0 0.002193 431.54651 454.63861
422.0 0.002370 431.55316 454.41357
420.0 0.002381 431.55978 454.18082
448.0 0.002232 431.56641 453.94052
453.0 0.002208 431.57303 453.69342
467.0 0.002141 431.57965 453.43991
457.0 0.002188 431.58627 453.18033
453.0 0.002208 431.59286 452.91504
463.0 0.002160 431.59946 452.64456
438.0 0.002283 431.60602 452.36963
437.0 0.002288 431.61249 452.09018
454.0 0.002203 431.61905 451.80685
442.0 0.002262 431.62546 451.52017
434.0 0.002304 431.63208 451.23026
435.0 0.002299 431.63852 450.93781
433.0 0.002309 431.64490 450.64279
427.0 0.002342 431.65146 450.34619
441.0 0.002268 431.65784 450.04779
434.0 0.002304 431.66431 449.74823
433.0 0.002309 431.67078 449.44772
438.0 0.002283 431.67725 449.14700
426.0 0.002347 431.68356 448.81921
421.0 0.002375 431.69003 448.51828
444.0 0.002252 431.69635 448.21808
454.0 0.002203 431.70279 447.91830
466.0 0.002146 431.70911 447.61963
464.0 0.002155 431.71548 447.32220
451.0 0.002217 431.72186 447.02628
452.0 0.002212 431.72815 446.73227
438.0 0.002283 431.73456 446.44006
433.0 0.002309 431.74081 446.15036
450.0 0.002222 431.74719 445.86292
458.0 0.002183 431.75354 445.57834
435.0 0.002299 431.75986 445.29660
433.0 0.002309 431.76614 445.01785
432.0 0.002315 431.77243 444.74234
434.0 0.002304 431.77872 444.47052
446.0 0.002242 431.78506 444.20197
457.0 0.002188 431.79135 443.93729
450.0 0.002222 431.79761 443.67639
481.0 0.002079 431.80392 443.41949
445.0 0.002247 431.81024 443.16681
432.0 0.002315 431.81656 442.91830
447.0 0.002237 431.82272 442.67413
438.0 0.002283 431.82898 442.43576
457.0 0.002188 431.83524 442.20038
455.0 0.002198 431.84155 441.96979
443.0 0.002257 431.84775 441.74380
451.0 0.002217 431.85403 441.52231
449.0 0.002227 431.86023 441.30576
429.0 0.002331 431.86646 441.40671
430.0 0.002326 431.87277 441.20190
453.0 0.002208 431.87897 441.00198
437.0 0.002288 431.88519 440.80698
440.0 0.002273 431.89154 440.61691
435.0 0.002299 431.89771 440.43176
444.0 0.002252 431.90399 440.25165
441.0 0.002268 431.91022 440.07629
441.0 0.002268 431.91644 439.90594
447.0 0.002237 431.92279 439.74069
450.0 0.002222 431.92889 439.58017
419.0 0.002387 431.93524 439.42453
426.0 0.002347 431.94153 439.27383
457.0 0.002188 431.94769 439.12796
458.0 0.002183 431.95392 438.98694
455.0 0.002198 431.96027 438.85059
445.0 0.002247 431.96658 438.71921
437.0 0.002288 431.97275 438.59241
430.0 0.002326 431.97903 438.47034
421.0 0.002375 431.98529 438.35291
428.0 0.002336 431.99158 438.24002
454.0 0.002203 431.99799 438.13150
471.0 0.002123 432.00415 438.02789
448.0 0.002232 432.01062 437.92850
439.0 0.002278 432.01685 437.83353
450.0 0.002222 432.02310 437.74310
447.0 0.002237 432.02945 437.65677
458.0 0.002183 432.03574 437.57474
437.0 0.002288 432.04205 437.49719
456.0 0.002193 432.04849 437.42374
471.0 0.002123 432.05487 437.35437
426.0 0.002347 432.06119 437.28918
418.0 0.002392 432.06744 437.22803
454.0 0.002203 432.07388 437.17093
453.0 0.002208 432.08041 437.11780
465.0 0.002151 432.08673 437.06876
460.0 0.002174 432.09305 437.02371
462.0 0.002165 432.09949 436.98245
484.0 0.002066 432.10593 436.94522
470.0 0.002128 432.11240 436.95709
465.0 0.002151 432.11877 436.92770
458.0 0.002183 432.12521 436.90222
469.0 0.002132 432.13162 436.88049
460.0 0.002174 432.13815 436.86282
463.0 0.002160 432.14462 436.84894
449.0 0.002227 432.15112 436.83875
436.0 0.002294 432.15762 436.83252
449.0 0.002227 432.16415 436.82993
451.0 0.002217 432.17065 436.83151
437.0 0.002288 432.17725 436.83670
429.0 0.002331 432.18384 436.84604
394.0 0.002538 432.19043 436.85916
402.0 0.002488 432.19699 436.87616
429.0 0.002331 432.20358 436.89725
446.0 0.002242 432.21027 436.92230
442.0 0.002262 432.21683 436.95157
438.0 0.002283 432.22345 436.98483
439.0 0.002278 432.23019 437.02243
429.0 0.002331 432.23691 437.06439
423.0 0.002364 432.24359 437.11041
425.0 0.002353 432.25015 437.16083
435.0 0.002299 432.25696 437.21591
449.0 0.002227 432.26370 437.27551
440.0 0.002273 432.27054 437.33975
442.0 0.002262 432.27728 437.40866
445.0 0.002247 432.28412 437.48251
460.0 0.002174 432.29095 437.56125
455.0 0.002198 432.29782 437.64490
464.0 0.002155 432.30469 437.73383
446.0 0.002242 432.31161 437.82800
464.0 0.002155 432.31842 437.92752
428.0 0.002336 432.32532 438.03268
427.0 0.002342 432.33231 438.14334
460.0 0.002174 432.33920 438.25980
441.0 0.002268 432.34631 438.38232
447.0 0.002237 432.35333 438.51056
438.0 0.002283 432.36032 438.64520
434.0 0.002304 432.36746 438.78613
438.0 0.002283 432.37445 438.93347
439.0 0.002278 432.38153 439.08746
427.0 0.002342 432.38864 439.24817
445.0 0.002247 432.39578 439.41580
463.0 0.002160 432.40295 439.59045
451.0 0.002217 432.41019 439.77246
451.0 0.002217 432.41739 439.96170
455.0 0.002198 432.42468 440.15833
453.0 0.002208 432.43201 440.36304
451.0 0.002217 432.43912 440.57520
458.0 0.002183 432.44650 440.79553
452.0 0.002212 432.45386 441.02393
448.0 0.002232 432.46109 441.26047
442.0 0.002262 432.46854 441.50555
437.0 0.002288 432.47601 441.75919
453.0 0.002208 432.48337 442.02148
461.0 0.002169 432.49094 442.22726
447.0 0.002237 432.49850 442.50784
453.0 0.002208 432.50595 442.79745
452.0 0.002212 432.51361 443.09622
465.0 0.002151 432.52103 443.40433
446.0 0.002242 432.52869 443.72198
439.0 0.002278 432.53632 444.04895
461.0 0.002169 432.54395 444.38565
473.0 0.002114 432.55170 444.73203
448.0 0.002232 432.55945 445.08817
441.0 0.002268 432.56711 445.45410
439.0 0.002278 432.57498 445.82996
446.0 0.002242 432.58273 446.21579
472.0 0.002119 432.59061 446.61154
460.0 0.002174 432.59845 447.01727
454.0 0.002203 432.60638 447.43317
464.0 0.002155 432.61435 447.85889
430.0 0.002326 432.62231 448.29483
428.0 0.002336 432.63034 448.74063
451.0 0.002217 432.63828 449.18692
462.0 0.002165 432.64642 449.65262
470.0 0.002128 432.65448 450.12814
454.0 0.002203 432.66269 450.61353
448.0 0.002232 432.67090 451.10840
473.0 0.002114 432.67896 451.61304
461.0 0.002169 432.68729 452.12686
457.0 0.002188 432.69562 452.65015
489.0 0.002045 432.70395 453.18246
484.0 0.002066 432.71216 453.72372
466.0 0.002146 432.72058 454.27386
469.0 0.002132 432.72903 454.83255
464.0 0.002155 432.73743 455.39944
479.0 0.002088 432.74606 455.97443
490.0 0.002041 432.75452 456.55716
489.0 0.002045 432.76297 457.14755
485.0 0.002062 432.77155 457.74521
486.0 0.002058 432.78024 458.34967
436.0 0.002294 432.78897 458.96072
436.0 0.002294 432.79761 459.57822
470.0 0.002128 432.80634 460.20139
474.0 0.002110 432.81519 460.83014
472.0 0.002119 432.82401 461.46384
470.0 0.002128 432.83282 462.10233
474.0 0.002110 432.84180 462.74496
470.0 0.002128 432.85077 463.39139
471.0 0.002123 432.85962 464.04108
488.0 0.002049 432.86862 464.69348
501.0 0.001996 432.87772 465.34814
498.0 0.002008 432.88681 466.00449
477.0 0.002096 432.89597 466.69052
469.0 0.002132 432.90518 467.34875
480.0 0.002083 432.91437 468.00696
473.0 0.002114 432.92365 468.66467
476.0 0.002101 432.93298 469.32120
480.0 0.002083 432.94232 469.97571
482.0 0.002075 432.95163 470.62781
504.0 0.001984 432.96109 471.27679
469.0 0.002132 432.97058 471.92184
455.0 0.002198 432.98004 472.56241
464.0 0.002155 432.98959 473.19748
471.0 0.002123 432.99927 473.82672
478.0 0.002092 433.00894 474.44952
473.0 0.002114 433.01859 475.06454
466.0 0.002146 433.02826 475.67157
473.0 0.002114 433.03812 476.26950
479.0 0.002088 433.04791 476.85791
459.0 0.002179 433.05783 477.43591
477.0 0.002096 433.06763 478.00262
493.0 0.002028 433.07767 478.55756
501.0 0.001996 433.08762 479.09988
489.0 0.002045 433.09769 479.62878
481.0 0.002079 433.10782 480.14362
467.0 0.002141 433.11789 480.64377
473.0 0.002114 433.12802 481.12839
480.0 0.002083 433.13831 481.59695
475.0 0.002105 433.14856 482.04901
480.0 0.002083 433.15894 482.48361
465.0 0.002151 433.16922 482.90039
456.0 0.002193 433.17966 483.29904
468.0 0.002137 433.19006 483.67896
476.0 0.002101 433.20059 484.03946
480.0 0.002083 433.21130 484.38071
491.0 0.002037 433.22183 484.70200
496.0 0.002016 433.23242 485.00330
494.0 0.002024 433.24326 485.28430
480.0 0.002083 433.25385 485.54483
471.0 0.002123 433.26474 485.78510
486.0 0.002058 433.27557 486.00488
490.0 0.002041 433.28650 486.20438
474.0 0.002110 433.29745 486.38358
468.0 0.002137 433.30850 486.54306
473.0 0.002114 433.31946 486.68259
478.0 0.002092 433.33057 486.80289
493.0 0.002028 433.34171 486.90405
491.0 0.002037 433.35297 486.98691
499.0 0.002004 433.36417 487.05173
503.0 0.001988 433.37546 487.09906
464.0 0.002155 433.38690 487.12961
462.0 0.002165 433.39819 487.14407
488.0 0.002049 433.40967 487.14307
493.0 0.002028 433.42123 487.12744
497.0 0.002012 433.43277 487.09787
488.0 0.002049 433.44446 487.05515
488.0 0.002049 433.45605 487.00012
482.0 0.002075 433.46774 486.93369
472.0 0.002119 433.47955 486.85666
465.0 0.002151 433.49133 486.76990
480.0 0.002083 433.50330 486.67419
495.0 0.002020 433.51514 486.57050
485.0 0.002062 433.52722 486.45972
482.0 0.002075 433.53922 486.36929
484.0 0.002066 433.55118 486.24710
496.0 0.002016 433.56342 486.12015
515.0 0.001942 433.57559 485.98956
486.0 0.002058 433.58795 485.85587
478.0 0.002092 433.60022 485.72028
497.0 0.002012 433.61252 485.58310
470.0 0.002128 433.62497 485.44513
476.0 0.002101 433.63745 485.30737
485.0 0.002062 433.64999 485.17010
500.0 0.002000 433.66251 485.03427
508.0 0.001969 433.67511 484.90036
493.0 0.002028 433.68790 484.76904
496.0 0.002016 433.70056 484.64069
501.0 0.001996 433.71338 484.51596
481.0 0.002079 433.72620 484.39523
485.0 0.002062 433.73917 484.27884
494.0 0.002024 433.75204 484.16739
491.0 0.002037 433.76523 484.06110
493.0 0.002028 433.77820 483.96051
497.0 0.002012 433.79138 483.86566
485.0 0.002062 433.80453 483.77692
485.0 0.002062 433.81787 483.69446
494.0 0.002024 433.83121 483.61838
501.0 0.001996 433.84454 483.54874
486.0 0.002058 433.85800 483.48599
494.0 0.002024 433.87143 483.42978
483.0 0.002070 433.88498 483.38025
486.0 0.002058 433.89856 483.33759
501.0 0.001996 433.91220 483.30139
517.0 0.001934 433.92593 483.27179
529.0 0.001890 433.93970 483.24850
508.0 0.001969 433.95352 483.23126
498.0 0.002008 433.96744 483.22003
492.0 0.002033 433.98145 483.21481
480.0 0.002083 433.99542 483.21490
464.0 0.002155 434.00940 483.22015
515.0 0.001942 434.02353 483.22995
516.0 0.001938 434.03775 483.24420
496.0 0.002016 434.05197 483.26242
486.0 0.002058 434.06628 483.28412
494.0 0.002024 434.08063 483.30884
515.0 0.001942 434.09503 483.33597
522.0 0.001916 434.10953 483.36514
511.0 0.001957 434.12402 483.39563
507.0 0.001972 434.13870 483.42682
511.0 0.001957 434.15329 483.45816
468.0 0.002137 434.16812 483.48929
480.0 0.002083 434.18280 483.51895
509.0 0.001965 434.19760 483.54700
510.0 0.001961 434.21246 483.57260
509.0 0.001965 434.22745 483.59500
504.0 0.001984 434.24246 483.61346
485.0 0.002062 434.25772 483.62747
495.0 0.002020 434.27267 483.63605
481.0 0.002079 434.28793 483.63876
492.0 0.002033 434.30313 483.63474
504.0 0.001984 434.31842 483.62320
508.0 0.001969 434.33380 483.43115
488.0 0.002049 434.34924 483.40390
498.0 0.002008 434.36478 483.36734
483.0 0.002070 434.38031 483.32068
497.0 0.002012 434.39597 483.26349
511.0 0.001957 434.41168 483.19510
520.0 0.001923 434.42731 483.11496
510.0 0.001961 434.44308 483.02261
500.0 0.002000 434.45901 482.91776
464.0 0.002155 434.47491 482.79974
465.0 0.002151 434.49094 482.66830
489.0 0.002045 434.50699 482.52316
501.0 0.001996 434.52301 482.36401
505.0 0.001980 434.53925 482.19086
489.0 0.002045 434.55545 482.00293
485.0 0.002062 434.57178 481.80081
485.0 0.002062 434.58810 481.58411
485.0 0.002062 434.60455 481.35281
487.0 0.002053 434.62097 481.10715
498.0 0.002008 434.63751 480.84717
513.0 0.001949 434.65414 480.57281
492.0 0.002033 434.67075 480.28461
483.0 0.002070 434.68753 479.98254
489.0 0.002045 434.70422 479.66711
488.0 0.002049 434.72113 479.33850
505.0 0.001980 434.73801 478.99701
496.0 0.002016 434.75491 478.64749
493.0 0.002028 434.77200 478.28198
499.0 0.002004 434.78912 477.90500
484.0 0.002066 434.80624 477.51697
472.0 0.002119 434.82349 477.11865
494.0 0.002024 434.84067 476.71039
504.0 0.001984 434.85809 476.29282
498.0 0.002008 434.87549 475.86646
487.0 0.002053 434.89291 475.43201
479.0 0.002088 434.91040 474.98975
481.0 0.002079 434.92801 474.54059
502.0 0.001992 434.94568 474.08496
498.0 0.002008 434.96335 473.62372
486.0 0.002058 434.98108 473.15701
492.0 0.002033 434.99896 472.68585
478.0 0.002092 435.01685 472.21045
466.0 0.002146 435.03485 471.73175
469.0 0.002132 435.05286 471.25006
477.0 0.002096 435.07086 470.76602
489.0 0.002045 435.08905 470.28021
485.0 0.002062 435.10712 469.79327
479.0 0.002088 435.12555 469.30524
481.0 0.002079 435.14371 468.81735
449.0 0.002227 435.16217 468.32962
435.0 0.002299 435.18051 467.84280
454.0 0.002203 435.19913 467.35709
470.0 0.002128 435.21768 466.87323
473.0 0.002114 435.23633 466.39145
473.0 0.002114 435.25491 465.91238
469.0 0.002132 435.27368 465.43604
483.0 0.002070 435.29248 464.96317
467.0 0.002141 435.31134 464.49420
454.0 0.002203 435.33029 464.02924
464.0 0.002155 435.34933 463.56882
482.0 0.002075 435.36835 463.11334
472.0 0.002119 435.38739 462.66260
456.0 0.002193 435.40668 462.21741
469.0 0.002132 435.42587 461.77792
462.0 0.002165 435.44522 461.34424
456.0 0.002193 435.46457 460.91675
462.0 0.002165 435.48404 460.49576
462.0 0.002165 435.50345 460.08118
461.0 0.002169 435.52292 459.67337
438.0 0.002283 435.54260 459.27255
438.0 0.002283 435.56223 458.87885
474.0 0.002110 435.58197 458.49213
463.0 0.002160 435.60165 458.11285
479.0 0.002088 435.62146 457.74103
465.0 0.002151 435.64142 457.37665
448.0 0.002232 435.66132 457.01987
448.0 0.002232 435.68127 456.67059
448.0 0.002232 435.70142 456.32904
443.0 0.002257 435.72162 455.99518
461.0 0.002169 435.74173 455.66879
467.0 0.002141 435.76205 455.35007
443.0 0.002257 435.78226 455.03897
437.0 0.002288 435.80264 454.73547
439.0 0.002278 435.82315 454.43933
445.0 0.002247 435.84357 454.15076
460.0 0.002174 435.86420 453.86951
446.0 0.002242 435.88470 453.59543
435.0 0.002299 435.90536 453.32849
438.0 0.002283 435.92618 453.06866
404.0 0.002475 435.94690 452.81555
403.0 0.002481 435.96768 452.56931
450.0 0.002222 435.98859 452.32971
471.0 0.002123 436.00958 452.09656
482.0 0.002075 436.03055 451.86969
458.0 0.002183 436.05157 451.64890
457.0 0.002188 436.07275 451.43402
461.0 0.002169 436.09387 451.22516
443.0 0.002257 436.11520 451.02188
443.0 0.002257 436.13641 450.82388
469.0 0.002132 436.15781 450.63129
466.0 0.002146 436.17914 450.44382
446.0 0.002242 436.20065 450.26126
445.0 0.002247 436.22211 450.08356
460.0 0.002174 436.24374 449.91025
459.0 0.002179 436.26535 449.74146
458.0 0.002183 436.28702 449.63519
447.0 0.002237 436.30872 449.47528
433.0 0.002309 436.33060 449.31915
449.0 0.002227 436.35251 449.16702
426.0 0.002347 436.37424 449.01846
424.0 0.002358 436.39636 448.87357
435.0 0.002299 436.41833 448.73196
452.0 0.002212 436.44046 448.59366
474.0 0.002110 436.46259 448.45874
463.0 0.002160 436.48477 448.32675
447.0 0.002237 436.50693 448.19785
439.0 0.002278 436.52917 448.07187
437.0 0.002288 436.55161 447.94873
437.0 0.002288 436.57397 447.82849
445.0 0.002247 436.59644 447.71072
464.0 0.002155 436.61896 447.59583
446.0 0.002242 436.64136 447.48343
430.0 0.002326 436.66400 447.37354
435.0 0.002299 436.68671 447.26620
432.0 0.002315 436.70941 447.16144
439.0 0.002278 436.73227 447.05902
441.0 0.002268 436.75500 446.95898
430.0 0.002326 436.77786 446.86160
432.0 0.002315 436.80081 446.76645
414.0 0.002415 436.82382 446.67365
411.0 0.002433 436.84686 446.58328
445.0 0.002247 436.86984 446.49533
445.0 0.002247 436.89294 446.40976
442.0 0.002262 436.91617 446.32648
437.0 0.002288 436.93933 446.24545
427.0 0.002342 436.96271 446.16708
435.0 0.002299 436.98615 446.09082
428.0 0.002336 437.00934 446.01685
437.0 0.002288 437.03284 445.94553
460.0 0.002174 437.05627 445.87659
464.0 0.002155 437.07983 445.80991
456.0 0.002193 437.10333 445.74545
438.0 0.002283 437.12695 445.68365
437.0 0.002288 437.15067 445.62433
445.0 0.002247 437.17444 445.56708
456.0 0.002193 437.19815 445.51251
457.0 0.002188 437.22186 445.46039
449.0 0.002227 437.24582 445.41052
451.0 0.002217 437.26962 445.36310
411.0 0.002433 437.29370 445.31824
398.0 0.002513 437.31763 445.27576
435.0 0.002299 437.34171 445.23569
454.0 0.002203 437.36584 445.19824
455.0 0.002198 437.38986 445.16318
449.0 0.002227 437.41412 445.13034
439.0 0.002278 437.43826 445.10010
449.0 0.002227 437.46259 445.07224
435.0 0.002299 437.48691 445.04678
431.0 0.002320 437.51126 445.02386
451.0 0.002217 437.53568 445.00323
450.0 0.002222 437.56012 444.98517
433.0 0.002309 437.58456 444.96933
430.0 0.002326 437.60913 444.95587
420.0 0.002381 437.63364 444.94473
431.0 0.002320 437.65829 444.95966
462.0 0.002165 437.68289 444.95337
463.0 0.002160 437.70767 444.94940
446.0 0.002242 437.73242 444.94763
438.0 0.002283 437.75723 444.94815
408.0 0.002451 437.78204 444.95078
413.0 0.002421 437.80688 444.95572
440.0 0.002273 437.83182 444.96271
450.0 0.002222 437.85675 444.97180
444.0 0.002252 437.88181 444.98309
434.0 0.002304 437.90683 444.99628
447.0 0.002237 437.93185 445.01132
459.0 0.002179 437.95694 445.02847
444.0 0.002252 437.98209 445.04749
432.0 0.002315 438.00723 445.08081
447.0 0.002237 438.03244 445.10342
463.0 0.002160 438.05783 445.12781
445.0 0.002247 438.08292 445.15381
429.0 0.002331 438.10840 445.18134
442.0 0.002262 438.13370 445.21054
450.0 0.002222 438.15921 445.24109
455.0 0.002198 438.18457 445.27310
456.0 0.002193 438.21008 445.30637
444.0 0.002252 438.23563 445.34079
441.0 0.002268 438.26120 445.37653
402.0 0.002488 438.28668 445.41324
413.0 0.002421 438.31238 445.45111
444.0 0.002252 438.33807 445.48984
448.0 0.002232 438.36377 445.52951
448.0 0.002232 438.38943 445.56982
444.0 0.002252 438.41519 445.61084
443.0 0.002257 438.44098 445.21075
435.0 0.002299 438.46677 445.25595
438.0 0.002283 438.49271 445.30167
427.0 0.002342 438.51846 445.34760
442.0 0.002262 438.54443 445.39398
460.0 0.002174 438.57037 445.44043
456.0 0.002193 438.59641 445.48697
452.0 0.002212 438.62234 445.53363
465.0 0.002151 438.64844 445.58011
449.0 0.002227 438.67447 445.62659
460.0 0.002174 438.70050 445.67285
454.0 0.002203 438.72668 445.71881
449.0 0.002227 438.75281 445.76453
462.0 0.002165 438.77899 445.80991
429.0 0.002331 438.80524 445.85483
408.0 0.002451 438.83148 445.89932
438.0 0.002283 438.85779 445.94324
439.0 0.002278 438.88394 445.98669
442.0 0.002262 438.91040 446.02948
435.0 0.002299 438.93671 446.07187
435.0 0.002299 438.96304 446.11337
446.0 0.002242 438.98944 446.15439
428.0 0.002336 439.01587 446.19458
441.0 0.002268 439.04227 446.23419
457.0 0.002188 439.06876 446.27298
459.0 0.002179 439.09528 446.31119
455.0 0.002198 439.12180 446.34860
450.0 0.002222 439.14828 446.38516
443.0 0.002257 439.17480 446.42130
441.0 0.002268 439.20142 446.45651
460.0 0.002174 439.22809 446.49115
451.0 0.002217 439.25464 446.52496
454.0 0.002203 439.28131 446.55829
450.0 0.002222 439.30789 446.59082
410.0 0.002439 439.33453 446.62274
422.0 0.002370 439.36124 446.65396
436.0 0.002294 439.38800 446.68463
445.0 0.002247 439.41470 446.71457
455.0 0.002198 439.44156 446.74402
448.0 0.002232 439.46823 446.77304
435.0 0.002299 439.49509 446.80139
448.0 0.002232 439.52191 446.82913
438.0 0.002283 439.54868 446.85632
440.0 0.002273 439.57556 446.88315
455.0 0.002198 439.60233 446.90924
455.0 0.002198 439.62943 446.93500
452.0 0.002212 439.65622 446.96014
447.0 0.002237 439.68304 446.98492
442.0 0.002262 439.71008 447.00922
442.0 0.002262 439.73682 447.03284
430.0 0.002326 439.76376 447.05615
434.0 0.002304 439.79083 447.07901
442.0 0.002262 439.81778 447.10126
442.0 0.002262 439.84476 447.12305
413.0 0.002421 439.87164 447.14429
406.0 0.002463 439.89877 447.16516
437.0 0.002288 439.92569 447.18546
450.0 0.002222 439.95273 447.20520
441.0 0.002268 439.97974 447.22452
434.0 0.002304 440.00687 447.24332
428.0 0.002336 440.03381 447.26141
449.0 0.002227 440.06091 447.27905
437.0 0.002288 440.08807 447.29605
427.0 0.002342 440.11499 447.31250
437.0 0.002288 440.14212 447.32840
441.0 0.002268 440.16922 447.34363
428.0 0.002336 440.19629 447.35828
434.0 0.002304 440.22333 447.37219
429.0 0.002331 440.25046 447.38562
444.0 0.002252 440.27756 447.39847
459.0 0.002179 440.30466 447.41049
477.0 0.002096 440.33182 447.42200
461.0 0.002169 440.35892 447.43283
448.0 0.002232 440.38599 447.44305
417.0 0.002398 440.41315 447.45255
407.0 0.002457 440.44025 447.46155
427.0 0.002342 440.46738 447.46994
436.0 0.002294 440.49451 447.55069
434.0 0.002304 440.52167 447.55838
437.0 0.002288 440.54874 447.56546
436.0 0.002294 440.57587 447.57205
442.0 0.002262 440.60297 447.57803
436.0 0.002294 440.63010 447.58377
432.0 0.002315 440.65707 447.58899
447.0 0.002237 440.68433 447.59406
452.0 0.002212 440.71146 447.59848
438.0 0.002283 440.73849 447.60269
432.0 0.002315 440.76556 447.60678
438.0 0.002283 440.79269 447.61063
431.0 0.002320 440.81973 447.61438
451.0 0.002217 440.84692 447.61798
442.0 0.002262 440.87393 447.62158
436.0 0.002294 440.90097 447.62537
440.0 0.002273 440.92810 447.62906
394.0 0.002538 440.95514 447.63297
410.0 0.002439 440.98224 447.63712
442.0 0.002262 441.00919 447.64154
440.0 0.002273 441.03619 447.64624
441.0 0.002268 441.06326 447.65161
451.0 0.002217 441.09027 447.65717
438.0 0.002283 441.11719 447.66339
445.0 0.002247 441.14435 447.67020
440.0 0.002273 441.17126 447.67752
426.0 0.002347 441.19809 447.68576
441.0 0.002268 441.22519 447.69464
456.0 0.002193 441.25208 447.70456
438.0 0.002283 441.27899 447.71515
418.0 0.002392 441.30588 447.72675
417.0 0.002398 441.33276 447.73935
438.0 0.002283 441.35974 447.75311
459.0 0.002179 441.38651 447.76801
446.0 0.002242 441.41333 447.78391
443.0 0.002257 441.44012 447.80130
440.0 0.002273 441.46704 447.81952
400.0 0.002500 441.49365 447.83917
387.0 0.002584 441.52054 447.86044
426.0 0.002347 441.54730 447.88293
438.0 0.002283 441.57397 447.90674
447.0 0.002237 441.60071 447.93219
447.0 0.002237 441.62741 447.95914
433.0 0.002309 441.65417 447.98758
439.0 0.002278 441.68066 448.01758
437.0 0.002288 441.70734 448.04907
428.0 0.002336 441.73392 448.08215
434.0 0.002304 441.76056 448.11700
428.0 0.002336 441.78708 448.15338
413.0 0.002421 441.81360 448.19156
426.0 0.002347 441.84015 448.23138
426.0 0.002347 441.86661 448.27274
435.0 0.002299 441.89304 448.31577
452.0 0.002212 441.91937 448.36060
445.0 0.002247 441.94577 448.40707
441.0 0.002268 441.97223 448.45514
454.0 0.002203 441.99854 448.50497
419.0 0.002387 442.02484 448.55643
403.0 0.002481 442.05115 448.58899
434.0 0.002304 442.07739 448.64389
443.0 0.002257 442.10361 448.70026
443.0 0.002257 442.12973 448.75818
436.0 0.002294 442.15601 448.81757
421.0 0.002375 442.18207 449.36411
446.0 0.002242 442.20819 449.42993
446.0 0.002242 442.23410 449.49713
445.0 0.002247 442.26022 449.56592
463.0 0.002160 442.28616 449.63593
455.0 0.002198 442.31213 449.70728
437.0 0.002288 442.33807 449.77988
432.0 0.002315 442.36386 449.85367
431.0 0.002320 442.38977 449.92868
442.0 0.002262 442.41565 450.00473
450.0 0.002222 442.44135 450.08157
449.0 0.002227 442.46698 450.15948
441.0 0.002268 442.49271 450.23816
450.0 0.002222 442.51828 450.31760
421.0 0.002375 442.54391 450.39792
424.0 0.002358 442.56955 450.47870
446.0 0.002242 442.59497 450.55984
447.0 0.002237 442.62048 450.65179
459.0 0.002179 442.64584 450.73383
445.0 0.002247 442.67130 450.81622
436.0 0.002294 442.69653 450.89862
450.0 0.002222 442.72195 450.98102
464.0 0.002155 442.74719 451.06345
458.0 0.002183 442.77231 451.14551
454.0 0.002203 442.79745 451.22742
458.0 0.002183 442.82266 451.30902
427.0 0.002342 442.84775 451.38995
437.0 0.002288 442.87268 451.47021
448.0 0.002232 442.89771 451.54996
440.0 0.002273 442.92255 451.62878
450.0 0.002222 442.94751 451.70663
470.0 0.002128 442.97229 451.78354
462.0 0.002165 442.99707 451.85925
460.0 0.002174 443.02173 451.93369
421.0 0.002375 443.04645 452.00687
409.0 0.002445 443.07098 452.07852
448.0 0.002232 443.09555 452.14874
461.0 0.002169 443.12003 452.21747
454.0 0.002203 443.14435 452.28424
443.0 0.002257 443.16885 452.34930
448.0 0.002232 443.19318 452.41266
450.0 0.002222 443.21741 452.47403
439.0 0.002278 443.24164 452.53348
431.0 0.002320 443.26581 452.59094
460.0 0.002174 443.28995 452.64630
464.0 0.002155 443.31384 452.69962
455.0 0.002198 443.33780 452.75076
439.0 0.002278 443.36169 452.79974
445.0 0.002247 443.38562 452.84659
450.0 0.002222 443.40933 452.89127
463.0 0.002160 443.43304 452.93369
460.0 0.002174 443.45679 452.97412
462.0 0.002165 443.48029 453.01212
479.0 0.002088 443.50381 453.04816
441.0 0.002268 443.52734 453.08185
436.0 0.002294 443.55072 453.11365
455.0 0.002198 443.57401 453.14334
457.0 0.002188 443.59723 453.17096
452.0 0.002212 443.62054 453.19666
446.0 0.002242 443.64359 453.05185
432.0 0.002315 443.66666 453.07446
449.0 0.002227 443.68964 453.09521
445.0 0.002247 443.71255 453.11420
436.0 0.002294 443.73526 453.13135
465.0 0.002151 443.75809 453.14673
490.0 0.002041 443.78085 453.16046
453.0 0.002208 443.80341 453.17282
448.0 0.002232 443.82599 453.18362
461.0 0.002169 443.84854 453.19266
480.0 0.002083 443.87088 453.20038
492.0 0.002033 443.89307 453.20670
476.0 0.002101 443.91534 453.21161
461.0 0.002169 443.93750 453.21558
471.0 0.002123 443.95963 453.21805
454.0 0.002203 443.98160 453.21918
440.0 0.002273 444.00357 453.21939
476.0 0.002101 444.02545 453.21835
497.0 0.002012 444.04709 453.21631
483.0 0.002070 444.06888 453.21329
456.0 0.002193 444.09036 453.20914
450.0 0.002222 444.11197 453.20404
455.0 0.002198 444.13339 453.19824
455.0 0.002198 444.15475 453.19119
446.0 0.002242 444.17606 453.18347
465.0 0.002151 444.19720 453.17480
489.0 0.002045 444.21823 453.16519
484.0 0.002066 444.23920 453.15491
478.0 0.002092 444.26010 453.14377
452.0 0.002212 444.28085 453.13184
450.0 0.002222 444.30167 453.11914
464.0 0.002155 444.32227 453.10565
475.0 0.002105 444.34290 453.09149
477.0 0.002096 444.36337 453.07645
474.0 0.002110 444.38370 453.06073
440.0 0.002273 444.40393 453.04422
435.0 0.002299 444.42413 453.02719
459.0 0.002179 444.44421 453.00928
467.0 0.002141 444.46417 452.99088
475.0 0.002105 444.48407 452.97150
460.0 0.002174 444.50388 452.95169
490.0 0.002041 444.52359 452.93130
477.0 0.002096 444.54321 452.91006
473.0 0.002114 444.56262 452.88818
466.0 0.002146 444.58209 452.86584
473.0 0.002114 444.60135 452.79773
471.0 0.002123 444.62064 452.77463
454.0 0.002203 444.63977 452.75101
446.0 0.002242 444.65872 452.72681
459.0 0.002179 444.67764 452.70233
467.0 0.002141 444.69644 452.67740
486.0 0.002058 444.71503 452.65207
462.0 0.002165 444.73370 452.62646
468.0 0.002137 444.75204 452.60062
470.0 0.002128 444.77048 452.57477
431.0 0.002320 444.78876 452.54843
417.0 0.002398 444.80685 452.52243
455.0 0.002198 444.82480 452.49609
458.0 0.002183 444.84271 452.47021
473.0 0.002114 444.86063 452.44421
466.0 0.002146 444.87836 452.41864
460.0 0.002174 444.89590 452.39325
471.0 0.002123 444.91342 452.36859
463.0 0.002160 444.93079 452.34436
448.0 0.002232 444.94800 452.32065
463.0 0.002160 444.96515 452.29770
476.0 0.002101 444.98218 452.27557
469.0 0.002132 444.99905 452.27029
462.0 0.002165 445.01587 452.25037
453.0 0.002208 445.03256 452.23172
453.0 0.002208 445.04901 452.21420
462.0 0.002165 445.06552 452.19830
471.0 0.002123 445.08185 452.18396
467.0 0.002141 445.09802 452.17130
458.0 0.002183 445.11411 452.16043
421.0 0.002375 445.12988 452.15164
405.0 0.002469 445.14578 452.14499
451.0 0.002217 445.16153 452.14075
463.0 0.002160 445.17691 452.13879
464.0 0.002155 445.19244 452.13947
457.0 0.002188 445.20776 452.14291
445.0 0.002247 445.22296 452.14932
446.0 0.002242 445.23795 452.15881
434.0 0.002304 445.25290 452.17160
457.0 0.002188 445.26770 452.18777
458.0 0.002183 445.28235 452.20758
474.0 0.002110 445.29678 452.23123
459.0 0.002179 445.31122 452.25873
455.0 0.002198 445.32541 452.29047
446.0 0.002242 445.33966 452.32675
439.0 0.002278 445.35361 452.36728
455.0 0.002198 445.36740 452.41275
457.0 0.002188 445.38110 452.46317
458.0 0.002183 445.39462 452.51877
448.0 0.002232 445.40814 452.57965
418.0 0.002392 445.42151 452.64603
421.0 0.002375 445.43460 452.71844
458.0 0.002183 445.44757 452.79675
465.0 0.002151 445.46036 452.88138
455.0 0.002198 445.47324 452.97232
448.0 0.002232 445.48584 453.06995
449.0 0.002227 445.49814 453.17471
484.0 0.002066 445.51041 453.28647
458.0 0.002183 445.52252 453.40573
440.0 0.002273 445.53458 453.53250
458.0 0.002183 445.54648 453.66730
451.0 0.002217 445.55817 453.81015
441.0 0.002268 445.56967 453.96149
440.0 0.002273 445.58105 454.12122
445.0 0.002247 445.59232 454.29001
458.0 0.002183 445.60345 454.46777
463.0 0.002160 445.61438 454.65488
453.0 0.002208 445.62506 454.85181
464.0 0.002155 445.63568 455.05844
461.0 0.002169 445.64624 455.27515
425.0 0.002353 445.65656 455.50226
412.0 0.002427 445.66669 455.73996
448.0 0.002232 445.67670 455.98849
457.0 0.002188 445.68640 456.24817
469.0 0.002132 445.69608 456.51917
462.0 0.002165 445.70557 456.80173
449.0 0.002227 445.71500 457.09604
456.0 0.002193 445.72412 457.40234
461.0 0.002169 445.73318 457.72089
459.0 0.002179 445.74200 458.05188
476.0 0.002101 445.75079 458.39560
464.0 0.002155 445.75925 458.75211
458.0 0.002183 445.76752 459.12164
466.0 0.002146 445.77563 459.50443
459.0 0.002179 445.78378 459.90054
471.0 0.002123 445.79147 460.31036
470.0 0.002128 445.79916 460.73395
453.0 0.002208 445.80664 461.17123
440.0 0.002273 445.81393 461.62268
457.0 0.002188 445.82117 462.08798
445.0 0.002247 445.82816 462.56781
439.0 0.002278 445.83487 463.06171
479.0 0.002088 445.84146 463.57025
478.0 0.002092 445.84790 464.09305
472.0 0.002119 445.85416 464.63037
465.0 0.002151 445.86023 465.18219
466.0 0.002146 445.86606 465.74847
467.0 0.002141 445.87177 466.32941
462.0 0.002165 445.87726 466.92459
449.0 0.002227 445.88266 467.53442
476.0 0.002101 445.88779 468.15857
503.0 0.001988 445.89279 468.79691
491.0 0.002037 445.89752 469.44940
492.0 0.002033 445.90201 470.11588
470.0 0.002128 445.90637 470.76785
464.0 0.002155 445.91061 471.46198
474.0 0.002110 445.91461 472.16962
473.0 0.002114 445.91852 472.89050
469.0 0.002132 445.92203 473.62421
466.0 0.002146 445.92542 474.37070
433.0 0.002309 445.92874 475.12964
433.0 0.002309 445.93164 475.90042
457.0 0.002188 445.93448 476.68283
468.0 0.002137 445.93713 477.47668
481.0 0.002079 445.93958 478.28134
471.0 0.002123 445.94180 479.09613
468.0 0.002137 445.94379 479.92120
467.0 0.002141 445.94562 480.75537
464.0 0.002155 445.94714 481.59863
478.0 0.002092 445.94858 482.45013
491.0 0.002037 445.94980 483.30948
492.0 0.002033 445.95084 484.17563
501.0 0.001996 445.95160 485.04840
500.0 0.002000 445.95215 485.92694
476.0 0.002101 445.95245 486.81055
487.0 0.002053 445.95264 487.69849
495.0 0.002020 445.95255 488.58990
489.0 0.002045 445.95233 489.48407
487.0 0.002053 445.95175 490.38037
499.0 0.002004 445.95105 491.27756
457.0 0.002188 445.95007 492.17514
463.0 0.002160 445.94904 493.07196
506.0 0.001976 445.94760 493.96692
515.0 0.001942 445.94595 494.85953
512.0 0.001953 445.94412 495.74857
491.0 0.002037 445.94205 496.63300
473.0 0.002114 445.93982 497.51178
487.0 0.002053 445.93738 498.38394
485.0 0.002062 445.93460 499.24820
500.0 0.002000 445.93164 500.10367
519.0 0.001927 445.92844 500.94928
526.0 0.001901 445.92511 501.78366
523.0 0.001912 445.92133 502.60571
528.0 0.001894 445.91748 503.41437
518.0 0.001931 445.91330 504.20853
508.0 0.001969 445.90906 504.98663
512.0 0.001953 445.90439 505.74774
507.0 0.001972 445.89963 506.49063
496.0 0.002016 445.89453 507.21417
509.0 0.001965 445.88919 507.91690
477.0 0.002096 445.88358 508.59802
480.0 0.002083 445.87790 509.25574
536.0 0.001866 445.87186 509.88922
549.0 0.001821 445.86560 510.49738
542.0 0.001845 445.85907 511.07901
555.0 0.001802 445.85226 511.63297
531.0 0.001883 445.84512 512.15790
536.0 0.001866 445.83789 512.65320
524.0 0.001908 445.83035 513.11749
530.0 0.001887 445.82263 513.54999
557.0 0.001795 445.81464 513.94958
573.0 0.001745 445.80637 514.31555
562.0 0.001779 445.79776 514.64709
555.0 0.001802 445.78894 514.94324
555.0 0.001802 445.77991 515.22003
553.0 0.001808 445.77063 515.41174
549.0 0.001821 445.76099 515.59863
537.0 0.001862 445.75107 515.74823
548.0 0.001825 445.74103 515.85974
558.0 0.001792 445.73068 515.93329
514.0 0.001946 445.72009 515.96832
502.0 0.001992 445.70917 515.96484
548.0 0.001825 445.69800 515.92303
579.0 0.001727 445.68661 515.84259
575.0 0.001739 445.67487 515.72394
587.0 0.001704 445.66275 515.56726
583.0 0.001715 445.65045 515.37274
558.0 0.001792 445.63797 515.14105
570.0 0.001754 445.62503 514.87256
548.0 0.001825 445.61200 514.56769
563.0 0.001776 445.59851 514.22742
553.0 0.001808 445.58496 513.85217
539.0 0.001855 445.57098 513.44275
551.0 0.001815 445.55673 513.00012
559.0 0.001789 445.54221 512.52527
548.0 0.001825 445.52753 512.01880
569.0 0.001757 445.51239 511.48215
556.0 0.001799 445.49701 510.91599
547.0 0.001828 445.48126 510.32159
539.0 0.001855 445.46533 509.69995
484.0 0.002066 445.44901 509.05212
481.0 0.002079 445.43259 508.37958
530.0 0.001887 445.41559 507.68311
549.0 0.001821 445.39856 506.96426
560.0 0.001786 445.38110 506.22391
577.0 0.001733 445.36346 505.46344
571.0 0.001751 445.34528 504.68393
553.0 0.001808 445.32697 503.88681
526.0 0.001901 445.30826 503.07294
516.0 0.001938 445.28937 502.24380
553.0 0.001808 445.26996 501.40024
560.0 0.001786 445.25052 500.54388
520.0 0.001923 445.23050 499.67551
521.0 0.001919 445.21042 498.79633
504.0 0.001984 445.18997 497.90753
501.0 0.001996 445.16904 497.01019
521.0 0.001919 445.14789 496.10529
530.0 0.001887 445.12640 495.19415
524.0 0.001908 445.10468 494.27756
527.0 0.001898 445.08261 493.35657
497.0 0.002012 445.06015 492.43222
486.0 0.002058 445.03748 491.50546
516.0 0.001938 445.01437 490.57724
503.0 0.001988 444.99097 489.64825
509.0 0.001965 444.96716 488.71979
501.0 0.001996 444.94308 487.79224
490.0 0.002041 444.91873 486.86691
506.0 0.001976 444.89407 485.88641
496.0 0.002016 444.86896 484.96756
490.0 0.002041 444.84360 484.05322
495.0 0.002020 444.81787 483.14383
496.0 0.002016 444.79184 482.24023
496.0 0.002016 444.76547 481.34274
500.0 0.002000 444.73862 480.45255
481.0 0.002079 444.71167 479.56955
489.0 0.002045 444.68430 478.69501
503.0 0.001988 444.65637 477.82901
492.0 0.002033 444.62839 476.97220
488.0 0.002049 444.59995 476.17871
494.0 0.002024 444.57108 475.34210
470.0 0.002128 444.54187 474.51584
466.0 0.002146 444.51227 473.70078
487.0 0.002053 444.48242 472.89682
495.0 0.002020 444.45218 472.10471
496.0 0.002016 444.42163 471.32458
476.0 0.002101 444.39069 470.55655
473.0 0.002114 444.35938 469.80115
464.0 0.002155 444.32779 469.05862
447.0 0.002237 444.29572 468.32913
456.0 0.002193 444.26340 467.61258
466.0 0.002146 444.23044 466.90942
469.0 0.002132 444.19739 466.21988
448.0 0.002232 444.16391 465.54388
452.0 0.002212 444.13004 464.88141
460.0 0.002174 444.09576 464.23300
466.0 0.002146 444.06116 463.59830
478.0 0.002092 444.02612 462.97742
471.0 0.002123 443.99075 462.37054
456.0 0.002193 443.95511 461.77731
456.0 0.002193 443.91882 461.19803
421.0 0.002375 443.88239 460.63254
415.0 0.002410 443.84540 460.08066
454.0 0.002203 443.80826 459.54251
461.0 0.002169 443.77051 459.01810
461.0 0.002169 443.73248 458.50693
465.0 0.002151 443.69403 458.00916
452.0 0.002212 443.65521 457.56982
456.0 0.002193 443.61591 457.09863
448.0 0.002232 443.57632 456.64053
462.0 0.002165 443.53622 456.19510
485.0 0.002062 443.49582 455.76196
471.0 0.002123 443.45496 455.34146
457.0 0.002188 443.41388 454.93311
450.0 0.002222 443.37207 454.53680
438.0 0.002283 443.33014 454.15213
436.0 0.002294 443.28772 453.77887
452.0 0.002212 443.24490 453.41736
459.0 0.002179 443.20163 453.06668
456.0 0.002193 443.15793 452.72696
460.0 0.002174 443.11395 452.39789
422.0 0.002370 443.06937 452.07925
425.0 0.002353 443.02451 451.77048
447.0 0.002237 442.97913 451.47195
462.0 0.002165 442.93353 451.18298
462.0 0.002165 442.88730 450.90332
463.0 0.002160 442.84079 450.63293
460.0 0.002174 442.79370 450.37140
460.0 0.002174 442.74643 450.09503
457.0 0.002188 442.69852 449.85080
448.0 0.002232 442.65018 449.61469
457.0 0.002188 442.60156 449.38660
458.0 0.002183 442.55258 449.16611
432.0 0.002315 442.50287 448.95291
421.0 0.002375 442.45294 448.74713
416.0 0.002404 442.40253 448.54819
429.0 0.002331 442.35159 448.35590
455.0 0.002198 442.30032 448.17023
454.0 0.002203 442.24866 447.99069
446.0 0.002242 442.19644 447.81717
450.0 0.002222 442.14383 447.64944
441.0 0.002268 442.09073 447.48730
439.0 0.002278 442.03726 447.31824
448.0 0.002232 441.98325 447.16672
460.0 0.002174 441.92892 447.02005
466.0 0.002146 441.87408 446.87827
457.0 0.002188 441.81894 446.74097
443.0 0.002257 441.76315 446.60785
438.0 0.002283 441.70688 446.47903
432.0 0.002315 441.65021 446.35425
445.0 0.002247 441.59323 446.23306
469.0 0.002132 441.53558 446.11557
462.0 0.002165 441.47757 446.00137
441.0 0.002268 441.41901 445.89056
429.0 0.002331 441.36011 445.78284
429.0 0.002331 441.30066 445.67789
426.0 0.002347 441.24081 445.57581
445.0 0.002247 441.18048 445.47632
443.0 0.002257 441.11963 445.37915
434.0 0.002304 441.05844 445.28445
437.0 0.002288 440.99673 445.19183
414.0 0.002415 440.93457 445.10114
406.0 0.002463 440.87189 445.04977
422.0 0.002370 440.80869 444.96304
437.0 0.002288 440.74503 444.87808
443.0 0.002257 440.68103 444.79443
429.0 0.002331 440.61633 444.71225
425.0 0.002353 440.55139 444.63132
421.0 0.002375 440.48584 444.55167
414.0 0.002415 440.41971 444.47293
419.0 0.002387 440.35333 444.39508
448.0 0.002232 440.28635 444.31808
453.0 0.002208 440.21887 444.24182
436.0 0.002294 440.15094 444.16611
425.0 0.002353 440.08243 444.09094
420.0 0.002381 440.01352 444.01620
433.0 0.002309 439.94421 443.94183
439.0 0.002278 439.87415 443.86755
442.0 0.002262 439.80374 443.79358
435.0 0.002299 439.73300 443.71954
431.0 0.002320 439.66150 443.64554
405.0 0.002469 439.58981 443.57141
401.0 0.002494 439.51730 443.49710
428.0 0.002336 439.44443 443.42255
432.0 0.002315 439.37109 443.47095
439.0 0.002278 439.29736 443.39658
426.0 0.002347 439.22290 443.32138
418.0 0.002392 439.14813 443.24591
435.0 0.002299 439.07288 443.16971
423.0 0.002364 438.99689 443.10367
415.0 0.002410 438.92053 443.02634
433.0 0.002309 438.84363 442.94797
435.0 0.002299 438.76624 442.86887
418.0 0.002392 438.68842 442.78882
426.0 0.002347 438.61002 442.70804
429.0 0.002331 438.53104 442.62610
435.0 0.002299 438.45169 442.54330
441.0 0.002268 438.37173 442.45932
435.0 0.002299 438.29141 442.37433
423.0 0.002364 438.21057 442.28824
420.0 0.002381 438.12915 442.20087
390.0 0.002564 438.04715 442.11246
388.0 0.002577 437.96466 442.02286
425.0 0.002353 437.88181 441.93198
448.0 0.002232 437.79840 441.84009
464.0 0.002155 437.71423 441.74677
457.0 0.002188 437.62982 441.66693
436.0 0.002294 437.54486 441.57141
427.0 0.002342 437.45926 441.47446
430.0 0.002326 437.37329 441.37656
425.0 0.002353 437.28671 441.27731
432.0 0.002315 437.19955 441.17688
442.0 0.002262 437.11206 441.07535
418.0 0.002392 437.02396 440.97253
408.0 0.002451 436.93530 440.86850
432.0 0.002315 436.84619 440.76352
436.0 0.002294 436.75635 440.65720
429.0 0.002331 436.66632 440.55014
427.0 0.002342 436.57574 440.44196
430.0 0.002326 436.48438 440.33261
449.0 0.002227 436.39261 440.22247
408.0 0.002451 436.30054 440.11136
403.0 0.002481 436.20770 439.99921
425.0 0.002353 436.11441 439.88629
425.0 0.002353 436.02069 439.77271
429.0 0.002331 435.92633 439.65814
435.0 0.002299 435.83151 439.54288
434.0 0.002304 435.73611 439.42682
429.0 0.002331 435.64029 439.31049
415.0 0.002410 435.54398 439.19327
415.0 0.002410 435.44696 439.07541
428.0 0.002336 435.34958 438.95731
443.0 0.002257 435.25174 438.83865
435.0 0.002299 435.15323 438.71945
431.0 0.002320 435.05447 438.59991
434.0 0.002304 434.95499 438.48022
432.0 0.002315 434.85489 438.35992
449.0 0.002227 434.75449 438.23959
445.0 0.002247 434.65363 438.11911
444.0 0.002252 434.55194 437.99829
440.0 0.002273 434.44995 437.87759
403.0 0.002481 434.34741 437.75671
412.0 0.002427 434.24442 437.63593
431.0 0.002320 434.14096 437.51526
433.0 0.002309 434.03680 437.39438
439.0 0.002278 433.93231 437.27399
424.0 0.002358 433.82721 437.15356
425.0 0.002353 433.72165 437.03329
426.0 0.002347 433.61566 436.91345
412.0 0.002427 433.50916 436.79395
424.0 0.002358 433.40195 436.67453
446.0 0.002242 433.29446 436.55588
441.0 0.002268 433.18637 436.43738
438.0 0.002283 433.07785 436.31964
432.0 0.002315 432.96884 436.20227
427.0 0.002342 432.85919 436.08530
423.0 0.002364 432.74921 435.96927
439.0 0.002278 432.63882 435.85379
441.0 0.002268 432.52768 435.73895
435.0 0.002299 432.41629 435.62491
438.0 0.002283 432.30438 435.51181
419.0 0.002387 432.19180 435.39926
402.0 0.002488 432.07895 435.28778
431.0 0.002320 431.96564 435.17734
434.0 0.002304 431.85168 435.06750
441.0 0.002268 431.73734 434.95908
431.0 0.002320 431.62231 434.85135
438.0 0.002283 431.50717 434.74484
434.0 0.002304 431.39157 434.63959
435.0 0.002299 431.27518 434.53525
420.0 0.002381 431.15857 434.43219
433.0 0.002309 431.04141 434.43350
449.0 0.002227 430.92371 434.33344
424.0 0.002358 430.80573 434.23502
415.0 0.002410 430.68744 434.13788
416.0 0.002404 430.56839 434.04187
435.0 0.002299 430.44907 433.94766
438.0 0.002283 430.32916 433.85468
429.0 0.002331 430.20895 433.76346
427.0 0.002342 430.08823 433.67368
442.0 0.002262 429.96710 433.58527
404.0 0.002475 429.84558 433.49884
411.0 0.002433 429.72363 433.41403
453.0 0.002208 429.60120 433.33066
452.0 0.002212 429.47852 433.24918
461.0 0.002169 429.35538 433.16965
450.0 0.002222 429.23163 433.09146
439.0 0.002278 429.10770 433.01544
438.0 0.002283 428.98343 432.94131
436.0 0.002294 428.85846 432.86880
430.0 0.002326 428.73337 432.79849
438.0 0.002283 428.60760 432.72983
452.0 0.002212 428.48166 432.66345
449.0 0.002227 428.35541 432.59906
438.0 0.002283 428.22867 432.53638
424.0 0.002358 428.10172 432.47598
417.0 0.002398 427.97424 432.41772
444.0 0.002252 427.84631 432.36151
443.0 0.002257 427.71823 432.30740
437.0 0.002288 427.58984 432.25562
447.0 0.002237 427.46091 432.20566
411.0 0.002433 427.33182 432.15829
412.0 0.002427 427.20212 432.11276
443.0 0.002257 427.07248 432.06970
439.0 0.002278 426.94247 432.02881
444.0 0.002252 426.81180 431.99005
438.0 0.002283 426.68112 431.95389
428.0 0.002336 426.55011 431.91986
441.0 0.002268 426.41876 431.88791
434.0 0.002304 426.28705 431.85849
426.0 0.002347 426.15530 431.83130
424.0 0.002358 426.02310 431.80618
440.0 0.002273 425.89059 431.78381
425.0 0.002353 425.75793 431.76355
418.0 0.002392 425.62488 431.74539
436.0 0.002294 425.49176 431.72989
431.0 0.002320 425.35815 431.71634
443.0 0.002257 425.22461 431.72717
444.0 0.002252 425.09076 431.71838
435.0 0.002299 424.95660 431.71164
448.0 0.002232 424.82224 431.70749
421.0 0.002375 424.68784 431.70538
411.0 0.002433 424.55292 431.70523
448.0 0.002232 424.41809 431.70752
444.0 0.002252 424.28323 431.71188
446.0 0.002242 424.14771 431.71829
443.0 0.002257 424.01233 431.72681
439.0 0.002278 423.87677 431.73721
424.0 0.002358 423.74118 431.74979
416.0 0.002404 423.60547 431.76428
418.0 0.002392 423.46948 431.78058
436.0 0.002294 423.33353 431.79901
450.0 0.002222 423.19742 431.81900
434.0 0.002304 423.06107 431.84085
420.0 0.002381 422.92490 431.86459
411.0 0.002433 422.78864 431.88968
422.0 0.002370 422.65207 431.91660
449.0 0.002227 422.51572 431.94501
448.0 0.002232 422.37924 431.97510
459.0 0.002179 422.24255 432.00632
450.0 0.002222 422.10623 432.03925
417.0 0.002398 421.96948 432.07303
410.0 0.002439 421.83295 432.10861
432.0 0.002315 421.69653 432.14520
444.0 0.002252 421.55988 432.18265
464.0 0.002155 421.42352 432.22150
462.0 0.002165 421.28726 431.82462
442.0 0.002262 421.15070 431.86774
447.0 0.002237 421.01465 431.91183
427.0 0.002342 420.87860 431.95670
421.0 0.002375 420.74237 432.00186
444.0 0.002252 420.60657 432.04810
457.0 0.002188 420.47064 432.09457
429.0 0.002331 420.33505 432.14163
407.0 0.002457 420.19971 432.18906
417.0 0.002398 420.06430 432.23660
422.0 0.002370 419.92929 432.28430
434.0 0.002304 419.79443 432.33231
453.0 0.002208 419.65970 432.38010
448.0 0.002232 419.52524 432.42807
449.0 0.002227 419.39120 432.47571
422.0 0.002370 419.25711 432.52304
421.0 0.002375 419.12360 432.57016
442.0 0.002262 418.99030 432.61667
438.0 0.002283 418.85706 432.66263
471.0 0.002123 418.72452 432.70816
454.0 0.002203 418.59207 432.75272
425.0 0.002353 418.46017 432.79669
420.0 0.002381 418.32870 432.83960
417.0 0.002398 418.19739 432.88986
418.0 0.002392 418.06659 432.93076
440.0 0.002273 417.93634 432.97031
454.0 0.002203 417.80634 433.00854
430.0 0.002326 417.67700 433.04547
440.0 0.002273 417.54816 433.08072
439.0 0.002278 417.41962 433.11432
442.0 0.002262 417.29178 433.14642
446.0 0.002242 417.16431 433.17661
442.0 0.002262 417.03763 433.20499
421.0 0.002375 416.91147 433.23151
430.0 0.002326 416.78580 433.25565
408.0 0.002451 416.66083 433.27795
401.0 0.002494 416.53656 433.29810
441.0 0.002268 416.41284 433.31580
449.0 0.002227 416.29004 433.33130
440.0 0.002273 416.16788 433.34451
428.0 0.002336 416.04626 433.35495
435.0 0.002299 415.92563 433.36319
461.0 0.002169 415.80579 433.36890
441.0 0.002268 415.68646 433.37164
435.0 0.002299 415.56818 433.37219
451.0 0.002217 415.45059 433.36990
453.0 0.002208 415.33405 433.36484
440.0 0.002273 415.21848 433.35730
442.0 0.002262 415.10361 433.34677
442.0 0.002262 414.98990 433.33380
432.0 0.002315 414.87711 433.31793
451.0 0.002217 414.76520 433.29929
461.0 0.002169 414.65442 433.27802
442.0 0.002262 414.54474 433.25421
439.0 0.002278 414.43594 433.22723
422.0 0.002370 414.32852 433.19800
412.0 0.002427 414.22183 433.16602
443.0 0.002257 414.11667 433.13144
437.0 0.002288 414.01257 433.09436
439.0 0.002278 413.90967 433.05472
445.0 0.002247 413.80814 433.17664
437.0 0.002288 413.70782 433.13327
433.0 0.002309 413.60880 433.08749
441.0 0.002268 413.51102 433.03967
428.0 0.002336 413.41476 432.98981
446.0 0.002242 413.31976 432.93781
463.0 0.002160 413.22629 432.89160
443.0 0.002257 413.13434 432.83612
427.0 0.002342 413.04367 432.77869
422.0 0.002370 412.95474 432.71994
430.0 0.002326 412.86710 432.65976
448.0 0.002232 412.78131 432.59845
446.0 0.002242 412.69702 432.53580
437.0 0.002288 412.61441 432.47208
443.0 0.002257 412.53351 432.40762
412.0 0.002427 412.45432 432.34265
404.0 0.002475 412.37686 432.27695
475.0 0.002105 412.30121 432.21085
465.0 0.002151 412.22751 432.14468
463.0 0.002160 412.15552 432.07840
448.0 0.002232 412.08545 432.01233
450.0 0.002222 412.01736 431.94644
446.0 0.002242 411.95135 431.88101
434.0 0.002304 411.88739 431.81644
439.0 0.002278 411.82520 431.75253
454.0 0.002203 411.76535 431.68988
461.0 0.002169 411.70761 431.62817
441.0 0.002268 411.65198 431.56796
428.0 0.002336 411.59863 431.50943
442.0 0.002262 411.54745 431.45248
457.0 0.002188 411.49863 431.39752
463.0 0.002160 411.45218 431.34473
442.0 0.002262 411.40820 431.29419
425.0 0.002353 411.36642 431.24612
451.0 0.002217 411.32733 431.20071
416.0 0.002404 411.29059 431.15820
403.0 0.002481 411.25656 431.11868
442.0 0.002262 411.22501 431.08249
446.0 0.002242 411.19617 431.04959
443.0 0.002257 411.16998 431.02014
440.0 0.002273 411.14667 430.99451
437.0 0.002288 411.12616 430.97287
444.0 0.002252 411.10840 430.95526
444.0 0.002252 411.09348 430.94159
434.0 0.002304 411.08167 430.93271
436.0 0.002294 411.07266 430.92795
434.0 0.002304 411.06686 430.92810
423.0 0.002364 411.06396 430.93292
424.0 0.002358 411.06439 430.94269
424.0 0.002358 411.06799 430.95773
423.0 0.002364 411.07477 430.97797
433.0 0.002309 411.08490 431.00336
442.0 0.002262 411.09839 431.03442
425.0 0.002353 411.11530 431.07092
438.0 0.002283 411.13562 431.11328
414.0 0.002415 411.15952 431.16113
407.0 0.002457 411.18695 431.21515
441.0 0.002268 411.21805 431.27496
437.0 0.002288 411.25287 431.34091
440.0 0.002273 411.29141 431.41293
435.0 0.002299 411.33374 431.49106
421.0 0.002375 411.37991 431.57571
433.0 0.002309 411.42993 431.66632
416.0 0.002404 411.48428 431.76352
418.0 0.002392 411.54242 431.86703
427.0 0.002342 411.60464 431.97699
438.0 0.002283 411.67117 432.09341
415.0 0.002410 411.74185 432.21628
420.0 0.002381 411.81693 432.34552
420.0 0.002381 411.89636 432.48151
427.0 0.002342 411.98022 432.62378
439.0 0.002278 412.06854 432.77267
440.0 0.002273 412.16150 432.92789
441.0 0.002268 412.25906 433.08963
445.0 0.002247 412.36148 433.25781
411.0 0.002433 412.46848 433.43204
393.0 0.002545 412.58023 433.61282
425.0 0.002353 412.69717 433.83936
428.0 0.002336 412.81903 434.05661
431.0 0.002320 412.94577 434.25647
418.0 0.002392 413.07797 434.46240
415.0 0.002410 413.21506 434.67429
416.0 0.002404 413.35767 434.89194
414.0 0.002415 413.50565 435.11588
412.0 0.002427 413.65878 435.34503
431.0 0.002320 413.81796 435.58026
446.0 0.002242 413.98218 435.82095
431.0 0.002320 414.15222 436.06699
421.0 . . .
