#------------------------------------------------------------------------------
#$Date: 2021-06-21 11:06:58 +0300 (Mon, 21 Jun 2021) $
#$Revision: 266598 $
#$URL: file:///home/coder/svn-repositories/cod/cif/1/56/36/1563627.cif $
#------------------------------------------------------------------------------
#
# This file is available in the Crystallography Open Database (COD),
# http://www.crystallography.net/
#
# All data on this site have been placed in the public domain by the
# contributors.
#
data_1563627
loop_
_publ_author_name
'Zubkov, Vladimir G.'
'Tarakina, Nadezda V.'
'Leonidov, Ivan I.'
'Tyutyunnik, Alexander P.'
'Surat, Ludmila L.'
'Melkozerova, Marina A.'
'Zabolotskaya, Elena V.'
'Kellerman, Dina G.'
_publ_section_title
;
 Synthesis and crystal structure of Ln2M2+Ge4O12, Ln=rare-earth element or
 Y; M=Ca, Mn, Zn
;
_journal_issue                   5
_journal_name_full               'Journal of Solid State Chemistry'
_journal_page_first              1186
_journal_page_last               1193
_journal_paper_doi               10.1016/j.jssc.2010.03.027
_journal_volume                  183
_journal_year                    2010
_chemical_formula_sum            'Eu2 Ge4 Mn O12'
_chemical_formula_weight         841.21
_space_group_IT_number           125
_space_group_name_Hall           '-P 4a 2b'
_space_group_name_H-M_alt        'P 4/n b m :2'
_symmetry_cell_setting           tetragonal
_symmetry_space_group_name_H-M   'P 4/n b m :2'
_cell_angle_alpha                90.0
_cell_angle_beta                 90.0
_cell_angle_gamma                90.0
_cell_formula_units_Z            2
_cell_length_a                   9.97888(11)
_cell_length_b                   9.97888
_cell_length_c                   5.00845(7)
_cell_volume                     498.732(9)
_computing_structure_refinement  GSAS
_diffrn_radiation_polarisn_ratio 0.8
_diffrn_radiation_probe          x-ray
_diffrn_radiation_wavelength     1.54056
_exptl_absorpt_correction_T_max  1.00000
_exptl_absorpt_correction_T_min  1.00000
_exptl_absorpt_process_details
;   GSAS Absorption/surface roughness correction: function number 0
 No correction is applied.
;
_pd_calc_method                  'Rietveld Refinement'
_pd_instr_dist_spec/detc         '? 1_pd_spec_size_axial ?'
_pd_instr_location               ' ?'
_pd_meas_2theta_range_inc        0.02
_pd_meas_2theta_range_max        119.98
_pd_meas_2theta_range_min        5.0
_pd_meas_number_of_points        5750
_pd_proc_2theta_range_inc        0.02
_pd_proc_2theta_range_max        119.96983
_pd_proc_2theta_range_min        4.98983
_pd_proc_info_datetime           2010-02-27T11:35:31
_pd_proc_info_excluded_regions   ' ?'
_pd_proc_ls_background_function
;   GSAS Background function number 1 with 36 terms.
 Shifted Chebyshev function of 1st kind
      1:    3266.37     2:   -833.062     3:    390.001     4:   -345.265    
      5:    57.0006     6:    27.3297     7:   -17.6007     8:    1.91743    
      9:   -1.43540    10:    3.04858    11:    11.7409    12:   -8.28152    
     13:   -11.3134    14:    20.4094    15:  -0.592722    16:   -8.32120    
     17:    13.2726    18:   -2.98657    19:    5.74906    20:    1.30941    
     21:   -10.1543    22:    16.7452    23:   -11.3283    24:  -0.881593    
     25:    2.68543    26:   -5.99212    27:    8.41185    28:   -10.6541    
     29:  -0.422321    30:    10.2347    31:   -12.3845    32:   0.643073    
     33:   -7.12561    34:   -2.61105    35:    4.95422    36:   -3.57021    
;
_pd_proc_ls_peak_cutoff          0.00100
_pd_proc_ls_profile_function
;
 CW Profile function number 2 with  18 terms
 Profile coefficients for Simpson's rule integration of pseudovoigt function
 C.J. Howard (1982). J. Appl. Cryst.,15,615-620.
 P. Thompson, D.E. Cox & J.B. Hastings (1987). J. Appl. Cryst.,20,79-83.
 #1(GU)   =    2.319 #2(GV)   =  -14.900 #3(GW)   =   23.023
 #4(LX)   =    2.698 #5(LY)   =    9.215 #6(trns) =    0.000
 #7(asym) =   0.6047 #8(shft) =   0.0000 #9(GP)   =    0.000
 #10(stec)=     0.00 #11(ptec)=     0.00 #12(sfec)=     0.00
 #13(L11) =    0.000 #14(L22) =    0.000 #15(L33) =    0.000
 #16(L12) =    0.000 #17(L13) =    0.000 #18(L23) =    0.000
 Peak tails are ignored  where the intensity is below 0.0010 times the peak
   Aniso. broadening axis   0.0   0.0   1.0
;
_pd_proc_ls_prof_R_factor        0.0146
_pd_proc_ls_prof_wR_expected     0.0175
_pd_proc_ls_prof_wR_factor       0.0185
_pd_proc_number_of_points        5750
_pd_spec_mounting                ' ?'
_refine_ls_goodness_of_fit_all   1.06
_refine_ls_matrix_type           full
_refine_ls_number_parameters     53
_refine_ls_number_restraints     0
_refine_ls_R_Fsqd_factor         0.01731
_refine_ls_shift/su_max          0.02
_refine_ls_shift/su_mean         0.00
_reflns_d_resolution_high        0.890
_reflns_d_resolution_low         7.056
_reflns_limit_h_max              11
_reflns_limit_h_min              0
_reflns_limit_k_max              8
_reflns_limit_k_min              0
_reflns_limit_l_max              5
_reflns_limit_l_min              0
_reflns_number_total             209
_cod_data_source_file            EU2MNGE4O12.cif
_cod_data_source_block           EU2MNGE4O12_publ
_cod_depositor_comments
;
The following automatic conversions were performed:

data item '_geom_angle_publ_flag' value 'N' was changed to 'n' in
accordance with the built-in table derived from the CIF Core
dictionary named 'cif_core.dic' version 2.4.5 last updated on
2014-11-21 (115 times).

data item '_geom_bond_publ_flag' value 'N' was changed to 'n' in
accordance with the built-in table derived from the CIF Core
dictionary named 'cif_core.dic' version 2.4.5 last updated on
2014-11-21 (66 times).

Automatic conversion script
Id: cif_fix_values 8369 2020-08-20 11:38:08Z andrius 
;
_cod_original_cell_volume        498.732(15)
_cod_original_sg_symbol_H-M      'P 4/n b m'
_cod_original_formula_sum        'Eu2.00 Ge4 Mn1.00 O12'
_cod_database_code               1563627
_gsas_exptl_extinct_corr_t_min   1.00000
_gsas_exptl_extinct_corr_t_max   1.00000
loop_
_symmetry_equiv_pos_site_id
_symmetry_equiv_pos_as_xyz
1 +x,+y,+z
2 -y+1/2,+x,+z
3 -x+1/2,-y+1/2,+z
4 +y,-x+1/2,+z
5 -x,+y+1/2,+z
6 -y,-x,+z
7 +x+1/2,-y,+z
8 +y+1/2,+x+1/2,+z
-1 -x,-y,-z
-2 +y+1/2,-x,-z
-3 +x+1/2,+y+1/2,-z
-4 -y,+x+1/2,-z
-5 +x,-y+1/2,-z
-6 +y,+x,-z
-7 -x+1/2,+y,-z
-8 -y+1/2,-x+1/2,-z
loop_
_atom_site_type_symbol
_atom_site_label
_atom_site_fract_x
_atom_site_fract_y
_atom_site_fract_z
_atom_site_occupancy
_atom_site_thermal_displace_type
_atom_site_U_iso_or_equiv
_atom_site_symmetry_multiplicity
Mn Mn 0.0 0.0 0.5 0.5 Uiso 0.0238(10) 4
Eu Eu1 0.0 0.0 0.5 0.5 Uiso 0.0238(10) 4
Eu Eu2 0.25 0.25 0.5 1.0 Uiso 0.0154(12) 2
Ge GE 0.97646(21) 0.25 0.0 1.0 Uiso 0.0210(10) 8
O O1 0.1324(8) 0.8676(8) 0.8440(20) 1.0 Uiso 0.021(4) 8
O O2 0.1694(8) 0.0625(7) 0.2515(15) 1.0 Uiso 0.0153(26) 16
loop_
_atom_type_symbol
_atom_type_number_in_cell
_atom_type_scat_dispersion_real
_atom_type_scat_dispersion_imag
_atom_type_scat_Cromer_Mann_a1
_atom_type_scat_Cromer_Mann_a2
_atom_type_scat_Cromer_Mann_a3
_atom_type_scat_Cromer_Mann_a4
_atom_type_scat_Cromer_Mann_b1
_atom_type_scat_Cromer_Mann_b2
_atom_type_scat_Cromer_Mann_b3
_atom_type_scat_Cromer_Mann_b4
_atom_type_scat_Cromer_Mann_c
_atom_type_scat_source
Mn 2.0 0.000 0.000 11.2819 5.34090 7.35730 0.34320 3.01930 17.8674 2.24410
83.7543 1.08960 International_Tables_Vol_C
Eu 4.0 0.000 0.000 24.6274 2.38790 19.0886 0.19420 13.7603 13.7546 2.92270
123.174 2.57450 International_Tables_Vol_C
Ge 8.0 0.000 0.000 16.0816 2.85090 6.37470 0.25160 3.70680 11.4468 3.68300
54.7625 2.13130 International_Tables_Vol_C
O 24.0 0.000 0.000 3.04850 13.2771 2.28680 5.70110 1.54630 0.32390 0.86700
32.9089 0.25080 International_Tables_Vol_C
loop_
_geom_angle_atom_site_label_1
_geom_angle_atom_site_label_2
_geom_angle_atom_site_label_3
_geom_angle
_geom_angle_site_symmetry_1
_geom_angle_site_symmetry_2
_geom_angle_site_symmetry_3
_geom_angle_publ_flag
O2 Mn O2 96.72(34) 1_555 . 6_555 n
O2 Mn O2 180.0 1_555 . -1_556 n
O2 Mn O2 83.28(34) 1_555 . -6_556 n
O2 Mn O2 83.28(34) 6_555 . -1_556 n
O2 Mn O2 180.0 6_555 . -6_556 n
O2 Mn O2 96.72(34) -1_556 . -6_556 n
Eu2 Eu1 Eu2 179.972 1_555 . 5_545 n
Eu2 Eu1 O1 89.9989 1_555 . 1_545 n
Eu2 Eu1 O1 90.0011 1_555 . -1_566 n
Eu2 Eu1 O2 41.64(17) 1_555 . 1_555 n
Eu2 Eu1 O2 138.36(17) 1_555 . 6_555 n
Eu2 Eu1 O2 138.36(17) 1_555 . -1_556 n
Eu2 Eu1 O2 41.64(17) 1_555 . -6_556 n
Eu2 Eu1 O1 90.0011 5_545 . 1_545 n
Eu2 Eu1 O1 89.9989 5_545 . -1_566 n
Eu2 Eu1 O2 138.36(17) 5_545 . 1_555 n
Eu2 Eu1 O2 41.64(17) 5_545 . 6_555 n
Eu2 Eu1 O2 41.64(17) 5_545 . -1_556 n
Eu2 Eu1 O2 138.36(17) 5_545 . -6_556 n
O1 Eu1 O1 179.9657 1_545 . -1_566 n
O1 Eu1 O2 97.60(26) 1_545 . 1_555 n
O1 Eu1 O2 97.60(26) 1_545 . 6_555 n
O1 Eu1 O2 82.40(26) 1_545 . -1_556 n
O1 Eu1 O2 82.40(26) 1_545 . -6_556 n
O1 Eu1 O2 82.40(26) -1_566 . 1_555 n
O1 Eu1 O2 82.40(26) -1_566 . 6_555 n
O1 Eu1 O2 97.60(26) -1_566 . -1_556 n
O1 Eu1 O2 97.60(26) -1_566 . -6_556 n
O2 Eu1 O2 96.72(34) 1_555 . 6_555 n
O2 Eu1 O2 180.0 1_555 . -1_556 n
O2 Eu1 O2 83.28(34) 1_555 . -6_556 n
O2 Eu1 O2 83.28(34) 6_555 . -1_556 n
O2 Eu1 O2 180.0 6_555 . -6_556 n
O2 Eu1 O2 96.72(34) -1_556 . -6_556 n
Eu1 Eu2 Eu1 90.0 1_555 . 2_555 n
Eu1 Eu2 Eu1 179.972 1_555 . 3_555 n
Eu1 Eu2 Eu1 90.0 1_555 . 4_555 n
Eu1 Eu2 O2 37.57(20) 1_555 . 1_555 n
Eu1 Eu2 O2 108.42(15) 1_555 . 2_555 n
Eu1 Eu2 O2 142.43(20) 1_555 . 3_555 n
Eu1 Eu2 O2 71.58(15) 1_555 . 4_555 n
Eu1 Eu2 O2 108.42(15) 1_555 . -5_456 n
Eu1 Eu2 O2 37.57(20) 1_555 . -6_556 n
Eu1 Eu2 O2 71.58(15) 1_555 . -7_546 n
Eu1 Eu2 O2 142.43(20) 1_555 . -8_556 n
Eu1 Eu2 Eu1 90.0 2_555 . 3_555 n
Eu1 Eu2 Eu1 180.0 2_555 . 4_555 n
Eu1 Eu2 O2 71.58(15) 2_555 . 1_555 n
Eu1 Eu2 O2 37.57(20) 2_555 . 2_555 n
Eu1 Eu2 O2 108.42(15) 2_555 . 3_555 n
Eu1 Eu2 O2 142.43(20) 2_555 . 4_555 n
Eu1 Eu2 O2 142.43(20) 2_555 . -5_456 n
Eu1 Eu2 O2 108.42(15) 2_555 . -6_556 n
Eu1 Eu2 O2 37.57(20) 2_555 . -7_546 n
Eu1 Eu2 O2 71.58(15) 2_555 . -8_556 n
Eu1 Eu2 Eu1 90.0 3_555 . 4_555 n
Eu1 Eu2 O2 142.43(20) 3_555 . 1_555 n
Eu1 Eu2 O2 71.58(15) 3_555 . 2_555 n
Eu1 Eu2 O2 37.57(20) 3_555 . 3_555 n
Eu1 Eu2 O2 108.42(15) 3_555 . 4_555 n
Eu1 Eu2 O2 71.58(15) 3_555 . -5_456 n
Eu1 Eu2 O2 142.43(20) 3_555 . -6_556 n
Eu1 Eu2 O2 108.42(15) 3_555 . -7_546 n
Eu1 Eu2 O2 37.57(20) 3_555 . -8_556 n
Eu1 Eu2 O2 108.42(15) 4_555 . 1_555 n
Eu1 Eu2 O2 142.43(20) 4_555 . 2_555 n
Eu1 Eu2 O2 71.58(15) 4_555 . 3_555 n
Eu1 Eu2 O2 37.57(20) 4_555 . 4_555 n
Eu1 Eu2 O2 37.57(20) 4_555 . -5_456 n
Eu1 Eu2 O2 71.58(15) 4_555 . -6_556 n
Eu1 Eu2 O2 142.43(20) 4_555 . -7_546 n
Eu1 Eu2 O2 108.42(15) 4_555 . -8_556 n
O2 Eu2 O2 74.22(18) 1_555 . 2_555 n
O2 Eu2 O2 117.1(4) 1_555 . 3_555 n
O2 Eu2 O2 74.22(18) 1_555 . 4_555 n
O2 Eu2 O2 140.60(34) 1_555 . -5_456 n
O2 Eu2 O2 75.1(4) 1_555 . -6_556 n
O2 Eu2 O2 76.77(33) 1_555 . -7_546 n
O2 Eu2 O2 143.17(30) 1_555 . -8_556 n
O2 Eu2 O2 74.22(18) 2_555 . 3_555 n
O2 Eu2 O2 117.1(4) 2_555 . 4_555 n
O2 Eu2 O2 143.17(30) 2_555 . -5_456 n
O2 Eu2 O2 140.60(34) 2_555 . -6_556 n
O2 Eu2 O2 75.1(4) 2_555 . -7_546 n
O2 Eu2 O2 76.77(33) 2_555 . -8_556 n
O2 Eu2 O2 74.22(18) 3_555 . 4_555 n
O2 Eu2 O2 76.77(33) 3_555 . -5_456 n
O2 Eu2 O2 143.17(30) 3_555 . -6_556 n
O2 Eu2 O2 140.60(34) 3_555 . -7_546 n
O2 Eu2 O2 75.1(4) 3_555 . -8_556 n
O2 Eu2 O2 75.1(4) 4_555 . -5_456 n
O2 Eu2 O2 76.77(33) 4_555 . -6_556 n
O2 Eu2 O2 143.17(30) 4_555 . -7_546 n
O2 Eu2 O2 140.60(34) 4_555 . -8_556 n
O2 Eu2 O2 74.22(18) -5_456 . -6_556 n
O2 Eu2 O2 117.1(4) -5_456 . -7_546 n
O2 Eu2 O2 74.22(18) -5_456 . -8_556 n
O2 Eu2 O2 74.22(18) -6_556 . -7_546 n
O2 Eu2 O2 117.1(4) -6_556 . -8_556 n
O2 Eu2 O2 74.22(18) -7_546 . -8_556 n
O1 GE O1 104.8(7) 4_554 . -1_666 n
O1 GE O2 108.5(5) 4_554 . 4_655 n
O1 GE O2 106.9(4) 4_554 . -6_655 n
O1 GE O2 106.9(4) -1_666 . 4_655 n
O1 GE O2 108.5(5) -1_666 . -6_655 n
O2 GE O2 120.2(6) 4_655 . -6_655 n
Eu1 O1 GE 108.9(4) 1_565 . 2_556 n
Eu1 O1 GE 108.9(4) 1_565 . 5_656 n
GE O1 GE 127.7(6) 2_556 . 5_656 n
Mn O2 Eu1 0.0 1_555 . 1_555 n
Mn O2 Eu2 100.79(26) 1_555 . 1_555 n
Mn O2 GE 129.3(4) 1_555 . 2_545 n
Eu1 O2 Eu2 100.79(26) 1_555 . 1_555 n
Eu1 O2 GE 129.3(4) 1_555 . 2_545 n
Eu2 O2 GE 127.9(5) 1_555 . 2_545 n
loop_
_geom_bond_atom_site_label_1
_geom_bond_atom_site_label_2
_geom_bond_distance
_geom_bond_site_symmetry_1
_geom_bond_site_symmetry_2
_geom_bond_publ_flag
Mn Eu2 3.52807(4) . 1_555 n
Mn Eu2 3.52807(4) . 5_545 n
Mn O1 2.541(10) . 1_545 n
Mn O1 2.541(10) . -1_566 n
Mn O2 2.190(9) . 1_555 n
Mn O2 2.190(9) . 6_555 n
Mn O2 2.190(9) . -1_556 n
Mn O2 2.190(9) . -6_556 n
Eu1 Eu2 3.52807(4) . 1_555 n
Eu1 Eu2 3.52807(4) . 5_545 n
Eu1 GE 3.54259(14) . 1_455 n
Eu1 GE 3.54259(14) . 1_456 n
Eu1 GE 3.54259(14) . 2_545 n
Eu1 GE 3.54259(14) . 2_546 n
Eu1 GE 3.54259(14) . 5_645 n
Eu1 GE 3.54259(14) . 5_646 n
Eu1 GE 3.54259(14) . 6_565 n
Eu1 GE 3.54259(14) . 6_566 n
Eu1 O1 2.541(10) . 1_545 n
Eu1 O1 2.541(10) . -1_566 n
Eu1 O2 2.190(9) . 1_555 n
Eu1 O2 2.190(9) . 6_555 n
Eu1 O2 2.190(9) . -1_556 n
Eu1 O2 2.190(9) . -6_556 n
Eu2 Mn 3.52807(4) . 1_555 n
Eu2 Mn 3.52807(4) . 2_555 n
Eu2 Mn 3.52807(4) . 3_555 n
Eu2 Mn 3.52807(4) . 4_555 n
Eu2 Eu1 3.52807(4) . 1_555 n
Eu2 Eu1 3.52807(4) . 2_555 n
Eu2 Eu1 3.52807(4) . 3_555 n
Eu2 Eu1 3.52807(4) . 4_555 n
Eu2 GE 3.7043(16) . 1_455 n
Eu2 GE 3.7043(16) . 1_456 n
Eu2 GE 3.7043(16) . 2_545 n
Eu2 GE 3.7043(16) . 2_546 n
Eu2 GE 3.7043(16) . 3_655 n
Eu2 GE 3.7043(16) . 3_656 n
Eu2 GE 3.7043(16) . 4_565 n
Eu2 GE 3.7043(16) . 4_566 n
Eu2 O2 2.386(7) . 1_555 n
Eu2 O2 2.386(7) . 2_555 n
Eu2 O2 2.386(7) . 3_555 n
Eu2 O2 2.386(7) . 4_555 n
Eu2 O2 2.386(7) . -5_556 n
Eu2 O2 2.386(7) . -6_556 n
Eu2 O2 2.386(7) . -7_556 n
Eu2 O2 2.386(7) . -8_556 n
GE Eu1 3.54259(14) . 1_654 n
GE Eu1 3.54259(14) . 1_655 n
GE Eu1 3.54259(14) . 4_654 n
GE Eu1 3.54259(14) . 4_655 n
GE Eu2 3.7043(16) . 1_654 n
GE Eu2 3.7043(16) . 1_655 n
GE O1 1.780(4) . 4_554 n
GE O1 1.780(4) . -1_666 n
GE O2 1.724(6) . 4_655 n
GE O2 1.724(6) . -6_655 n
O1 Mn 2.541(10) . 1_565 n
O1 Eu1 2.541(10) . 1_565 n
O1 GE 1.780(4) . 2_556 n
O1 GE 1.780(4) . 5_656 n
O2 Mn 2.190(9) . 1_555 n
O2 Eu1 2.190(9) . 1_555 n
O2 Eu2 2.386(7) . 1_555 n
O2 GE 1.724(6) . 2_545 n
loop_
_pd_meas_counts_total
_pd_proc_ls_weight
_pd_proc_intensity_bkg_calc
_pd_calc_intensity_total
4725.0 0.0002116 4827.81641 4827.81689
4914.0 0.0002035 4828.99609 4828.99609
4750.0 0.0002105 4830.02588 4830.02783
4804.0 0.0002082 4830.90674 4830.90771
4852.0 0.0002061 4831.64063 4831.64014
4938.0 0.0002025 4832.22852 4832.22900
4827.0 0.0002072 4832.67285 4832.67334
4934.0 0.0002027 4832.97510 4832.97461
4887.0 0.0002046 4833.13818 4833.13916
4823.0 0.0002073 4833.16553 4833.16504
4727.0 0.0002116 4833.05908 4833.05957
4863.0 0.0002056 4832.82275 4832.82275
4861.0 0.0002057 4832.45947 4832.45996
4853.0 0.0002061 4831.97314 4831.97266
4792.0 0.0002087 4831.36768 4831.36768
4797.0 0.0002085 4830.64648 4830.64697
4978.0 0.0002009 4829.81348 4829.81250
4765.0 0.0002099 4828.87207 4828.87207
4751.0 0.0002105 4827.82764 4827.82764
4790.0 0.0002088 4826.68311 4826.68359
4810.0 0.0002079 4825.44287 4825.44238
4915.0 0.0002035 4824.11133 4824.11035
4824.0 0.0002073 4822.69238 4822.69336
4695.0 0.0002130 4821.19043 4821.19092
4836.0 0.0002068 4819.60889 4819.60938
4776.0 0.0002094 4817.95264 4817.95215
4847.0 0.0002063 4816.22510 4816.22510
4834.0 0.0002069 4814.43066 4814.43018
4843.0 0.0002065 4812.57324 4812.57178
4691.0 0.0002132 4810.65674 4810.65625
4867.0 0.0002055 4808.68506 4808.68457
4736.0 0.0002111 4806.66162 4806.66260
4819.0 0.0002075 4804.59033 4804.58984
4839.0 0.0002067 4802.47510 4802.47412
4886.0 0.0002047 4800.31885 4800.31934
4809.0 0.0002079 4798.12549 4798.12695
4729.0 0.0002115 4795.89795 4795.89795
4905.0 0.0002039 4793.63965 4793.64014
4819.0 0.0002075 4791.35400 4791.35352
4759.0 0.0002101 4789.04395 4789.04346
4794.0 0.0002086 4786.71240 4786.71289
4728.0 0.0002115 4784.36230 4784.36182
4691.0 0.0002132 4781.99561 4781.99658
4779.0 0.0002092 4779.61621 4779.61670
4848.0 0.0002063 4777.22607 4777.22705
4885.0 0.0002047 4774.82764 4774.82813
4827.0 0.0002072 4772.42285 4772.42188
4767.0 0.0002098 4770.01416 4770.01563
4778.0 0.0002093 4767.60400 4767.60400
4820.0 0.0002075 4765.19434 4765.19336
4752.0 0.0002104 4762.78662 4762.78613
4827.0 0.0002072 4760.38330 4760.38428
4690.0 0.0002132 4757.98535 4757.98486
4628.0 0.0002161 4755.59473 4755.59619
4726.0 0.0002116 4753.21338 4753.21289
4652.0 0.0002150 4750.84180 4750.84229
4756.0 0.0002103 4748.48193 4748.47998
4792.0 0.0002087 4746.13525 4746.13672
4753.0 0.0002104 4743.80225 4743.80176
4854.0 0.0002060 4741.48389 4741.48535
4700.0 0.0002128 4739.18164 4739.18262
4658.0 0.0002147 4736.89600 4736.89648
4662.0 0.0002145 4734.62793 4734.62793
4772.0 0.0002096 4732.37842 4732.37842
4724.0 0.0002117 4730.14746 4730.14844
4786.0 0.0002089 4727.93604 4727.93555
4614.0 0.0002167 4725.74463 4725.74365
4712.0 0.0002122 4723.57324 4723.57422
4721.0 0.0002118 4721.42285 4721.42285
4596.0 0.0002176 4719.29346 4719.29443
4781.0 0.0002092 4717.18457 4717.18311
4771.0 0.0002096 4715.09766 4715.09766
4780.0 0.0002092 4713.03174 4713.03223
4764.0 0.0002099 4710.98730 4710.98730
4609.0 0.0002170 4708.96387 4708.96436
4717.0 0.0002120 4706.96191 4706.96240
4746.0 0.0002107 4704.98145 4704.98193
4709.0 0.0002124 4703.02197 4703.02100
4764.0 0.0002099 4701.08301 4701.08301
4687.0 0.0002134 4699.16504 4699.16602
4821.0 0.0002074 4697.26660 4697.26758
4526.0 0.0002209 4695.38867 4695.38965
4726.0 0.0002116 4693.53027 4693.53076
4697.0 0.0002129 4691.69092 4691.69092
4552.0 0.0002197 4689.87012 4689.87109
4745.0 0.0002107 4688.06787 4688.06836
4782.0 0.0002091 4686.28369 4686.28418
4659.0 0.0002146 4684.51611 4684.51563
4678.0 0.0002138 4682.76611 4682.76611
4745.0 0.0002107 4681.03174 4681.03223
4723.0 0.0002117 4679.31299 4679.31396
4687.0 0.0002134 4677.60986 4677.61035
4776.0 0.0002094 4675.92090 4675.92139
4642.0 0.0002154 4674.24609 4674.24658
4767.0 0.0002098 4672.58447 4672.58398
4708.0 0.0002124 4670.93604 4670.93652
4612.0 0.0002168 4669.29883 4669.29980
4686.0 0.0002134 4667.67334 4667.67334
4623.0 0.0002163 4666.05859 4666.05908
4692.0 0.0002131 4664.45410 4664.45459
4709.0 0.0002124 4662.85938 4662.85840
4646.0 0.0002152 4661.27295 4661.27441
4634.0 0.0002158 4659.69531 4659.69482
4707.0 0.0002124 4658.12500 4658.12549
4523.0 0.0002211 4656.56104 4656.56104
4695.0 0.0002130 4655.00439 4655.00537
4680.0 0.0002137 4653.45264 4653.45215
4710.0 0.0002123 4651.90625 4651.90479
4563.0 0.0002192 4650.36426 4650.36426
4521.0 0.0002212 4648.82617 4648.82666
4738.0 0.0002111 4647.29150 4647.29004
4620.0 0.0002165 4645.75928 4645.76025
4582.0 0.0002182 4644.22949 4644.23145
4577.0 0.0002185 4642.70117 4642.70166
4710.0 0.0002123 4641.17383 4641.17383
4584.0 0.0002182 4639.64697 4639.64551
4609.0 0.0002170 4638.12012 4638.11963
4771.0 0.0002096 4636.59277 4636.59180
4549.0 0.0002198 4635.06445 4635.06396
4640.0 0.0002155 4633.53467 4633.53418
4633.0 0.0002158 4632.00293 4632.00488
4660.0 0.0002146 4630.46875 4630.46875
4647.0 0.0002152 4628.93213 4628.93164
4639.0 0.0002156 4627.39258 4627.39209
4402.0 0.0002272 4625.84912 4625.84961
4708.0 0.0002124 4624.30176 4624.30273
4679.0 0.0002137 4622.75049 4622.74902
4688.0 0.0002133 4621.19434 4621.19385
4550.0 0.0002198 4619.63330 4619.63379
4592.0 0.0002178 4618.06738 4618.06738
4620.0 0.0002165 4616.49609 4616.49561
4497.0 0.0002224 4614.91895 4614.91943
4657.0 0.0002147 4613.33594 4613.33447
4534.0 0.0002206 4611.74707 4611.74805
4519.0 0.0002213 4610.15137 4610.14990
4682.0 0.0002136 4608.54980 4608.54980
4569.0 0.0002189 4606.94141 4606.94043
4654.0 0.0002149 4605.32617 4605.32422
4635.0 0.0002157 4603.70410 4603.70264
4525.0 0.0002210 4602.07471 4602.07422
4615.0 0.0002167 4600.43848 4600.43945
4646.0 0.0002152 4598.79541 4598.79590
4622.0 0.0002164 4597.14502 4597.14453
4556.0 0.0002195 4595.48730 4595.48779
4605.0 0.0002172 4593.82227 4593.82227
4734.0 0.0002112 4592.14990 4592.15039
4646.0 0.0002152 4590.47070 4590.46924
4620.0 0.0002165 4588.78418 4588.78369
4614.0 0.0002167 4587.09082 4587.08984
4630.0 0.0002160 4585.39014 4585.38867
4666.0 0.0002143 4583.68213 4583.68311
4617.0 0.0002166 4581.96777 4581.96631
4717.0 0.0002120 4580.24609 4580.24609
4518.0 0.0002213 4578.51855 4578.51709
4619.0 0.0002165 4576.78369 4576.78320
4520.0 0.0002212 4575.04297 4575.04150
4529.0 0.0002208 4573.29590 4573.29443
4492.0 0.0002226 4571.54248 4571.54102
4513.0 0.0002216 4569.78369 4569.78369
4543.0 0.0002201 4568.01904 4568.01807
4589.0 0.0002179 4566.24902 4566.24756
4589.0 0.0002179 4564.47363 4564.47412
4617.0 0.0002166 4562.69336 4562.69434
4636.0 0.0002157 4560.90820 4560.90771
4526.0 0.0002209 4559.11865 4559.11816
4594.0 0.0002177 4557.32471 4557.32422
4500.0 0.0002222 4555.52637 4555.52686
4493.0 0.0002226 4553.72510 4553.72559
4659.0 0.0002146 4551.91992 4551.91992
4571.0 0.0002188 4550.11133 4550.11182
4570.0 0.0002188 4548.30029 4548.29883
4612.0 0.0002168 4546.48633 4546.48633
4493.0 0.0002226 4544.67041 4544.67041
4475.0 0.0002235 4542.85205 4542.85205
4515.0 0.0002215 4541.03223 4541.03174
4474.0 0.0002235 4539.21094 4539.20947
4524.0 0.0002210 4537.38818 4537.38721
4507.0 0.0002219 4535.56543 4535.56348
4456.0 0.0002244 4533.74170 4533.74268
4441.0 0.0002252 4531.91797 4531.91846
4602.0 0.0002173 4530.09424 4530.09326
4489.0 0.0002228 4528.27100 4528.27148
4628.0 0.0002161 4526.44922 4526.44824
4525.0 0.0002210 4524.62793 4524.62695
4415.0 0.0002265 4522.80811 4522.80664
4554.0 0.0002196 4520.99072 4520.98877
4542.0 0.0002202 4519.17480 4519.17334
4601.0 0.0002173 4517.36182 4517.36230
4571.0 0.0002188 4515.55127 4515.55029
4468.0 0.0002238 4513.74365 4513.74463
4583.0 0.0002182 4511.93945 4511.93848
4560.0 0.0002193 4510.13916 4510.13867
4566.0 0.0002190 4508.34277 4508.34180
4638.0 0.0002156 4506.55029 4506.54932
4388.0 0.0002279 4504.76318 4504.76270
4527.0 0.0002209 4502.97998 4502.98096
4527.0 0.0002209 4501.20264 4501.20264
4500.0 0.0002222 4499.43066 4499.43018
4475.0 0.0002235 4497.66406 4497.66309
4500.0 0.0002222 4495.90381 4495.90332
4535.0 0.0002205 4494.14941 4494.14844
4459.0 0.0002243 4492.40186 4492.40137
4500.0 0.0002222 4490.66113 4490.66211
4354.0 0.0002297 4488.92725 4488.92676
4529.0 0.0002208 4487.20068 4487.20068
4461.0 0.0002242 4485.48145 4485.48145
4580.0 0.0002183 4483.77002 4483.76953
4510.0 0.0002217 4482.06641 4482.06592
4588.0 0.0002180 4480.37109 4480.37305
4475.0 0.0002235 4478.68359 4478.68359
4429.0 0.0002258 4477.00537 4477.00391
4539.0 0.0002203 4475.33545 4475.33398
4497.0 0.0002224 4473.67432 4473.67236
4484.0 0.0002230 4472.02246 4472.02051
4319.0 0.0002315 4470.37988 4470.38037
4455.0 0.0002245 4468.74658 4468.74609
4411.0 0.0002267 4467.12256 4467.12354
4548.0 0.0002199 4465.50830 4465.50830
4326.0 0.0002312 4463.90381 4463.90430
4490.0 0.0002227 4462.30908 4462.30859
4361.0 0.0002293 4460.72461 4460.72510
4387.0 0.0002279 4459.14990 4459.14990
4408.0 0.0002269 4457.58545 4457.58447
4387.0 0.0002279 4456.03125 4456.03271
4454.0 0.0002245 4454.48730 4454.48584
4455.0 0.0002245 4452.95361 4452.95508
4359.0 0.0002294 4451.43018 4451.43018
4458.0 0.0002243 4449.91699 4449.91797
4417.0 0.0002264 4448.41504 4448.41553
4453.0 0.0002246 4446.92285 4446.92432
4481.0 0.0002232 4445.44141 4445.44141
4396.0 0.0002275 4443.97021 4443.97119
4389.0 0.0002278 4442.50977 4442.51074
4355.0 0.0002296 4441.05957 4441.06006
4468.0 0.0002238 4439.61963 4439.61963
4428.0 0.0002258 4438.19043 4438.19092
4408.0 0.0002269 4436.77100 4436.77002
4408.0 0.0002269 4435.36230 4435.36084
4411.0 0.0002267 4433.96338 4433.96484
4440.0 0.0002252 4432.57471 4432.57471
4507.0 0.0002219 4431.19580 4431.19629
4395.0 0.0002275 4429.82715 4429.82813
4380.0 0.0002283 4428.46826 4428.46729
4514.0 0.0002215 4427.11914 4427.11963
4347.0 0.0002300 4425.77930 4425.77930
4502.0 0.0002221 4424.44873 4424.44824
4384.0 0.0002281 4423.12744 4423.12842
4388.0 0.0002279 4421.81592 4421.81445
4379.0 0.0002284 4420.51270 4420.51465
4410.0 0.0002268 4419.21875 4419.21826
4414.0 0.0002266 4417.93311 4417.93311
4535.0 0.0002205 4416.65576 4416.65625
4335.0 0.0002307 4415.38721 4415.38623
4535.0 0.0002205 4414.12598 4414.12549
4333.0 0.0002308 4412.87305 4412.87402
4434.0 0.0002255 4411.62793 4411.62842
4516.0 0.0002214 4410.39014 4410.39063
4478.0 0.0002233 4409.15918 4409.15869
4392.0 0.0002277 4407.93555 4407.93652
4451.0 0.0002247 4406.71875 4406.71875
4333.0 0.0002308 4405.50781 4405.50830
4527.0 0.0002209 4404.30371 4404.30420
4395.0 0.0002275 4403.10498 4403.10693
4463.0 0.0002241 4401.91260 4401.91357
4296.0 0.0002328 4400.72510 4400.72559
4336.0 0.0002306 4399.54297 4399.54297
4371.0 0.0002288 4398.36621 4398.36572
4378.0 0.0002284 4397.19336 4397.19238
4456.0 0.0002244 4396.02539 4396.02539
4402.0 0.0002272 4394.86084 4394.86035
4424.0 0.0002260 4393.70020 4393.70068
4509.0 0.0002218 4392.54297 4392.54395
4540.0 0.0002203 4391.38916 4391.38867
4365.0 0.0002291 4390.23779 4390.23877
4330.0 0.0002309 4389.08887 4389.08984
4425.0 0.0002260 4387.94238 4387.94482
4337.0 0.0002306 4386.79736 4386.79834
4314.0 0.0002318 4385.65430 4385.65381
4473.0 0.0002236 4384.51221 4384.51416
4332.0 0.0002308 4383.37109 4383.37109
4539.0 0.0002203 4382.23047 4382.23096
4346.0 0.0002301 4381.09033 4381.09131
4417.0 0.0002264 4379.94971 4379.95068
4345.0 0.0002301 4378.80908 4378.81006
4435.0 0.0002255 4377.66699 4377.66943
4457.0 0.0002244 4376.52441 4376.52686
4393.0 0.0002276 4375.38037 4375.37939
4473.0 0.0002236 4374.23389 4374.23438
4293.0 0.0002329 4373.08594 4373.08789
4370.0 0.0002288 4371.93555 4371.93701
4468.0 0.0002238 4370.78223 4370.78174
4335.0 0.0002307 4369.62549 4369.62744
4420.0 0.0002262 4368.46533 4368.46680
4581.0 0.0002183 4367.30176 4367.30273
4233.0 0.0002362 4366.13379 4366.13574
4351.0 0.0002298 4364.96143 4364.96338
4407.0 0.0002269 4363.78418 4363.78662
4430.0 0.0002257 4362.60156 4362.60400
4342.0 0.0002303 4361.41406 4361.41455
4378.0 0.0002284 4360.22021 4360.22168
4423.0 0.0002261 4359.02051 4359.02100
4336.0 0.0002306 4357.81445 4357.81641
4393.0 0.0002276 4356.60156 4356.60205
4366.0 0.0002290 4355.38135 4355.38379
4293.0 0.0002329 4354.15430 4354.15430
4371.0 0.0002288 4352.91943 4352.92041
4320.0 0.0002315 4351.67627 4351.67725
4293.0 0.0002329 4350.42480 4350.42773
4356.0 0.0002296 4349.16455 4349.16504
4270.0 0.0002342 4347.89551 4347.89795
4401.0 0.0002272 4346.61768 4346.62061
4419.0 0.0002263 4345.33008 4345.33154
4425.0 0.0002260 4344.03271 4344.03271
4280.0 0.0002336 4342.72559 4342.72656
4392.0 0.0002277 4341.40771 4341.40967
4295.0 0.0002328 4340.07910 4340.08008
4323.0 0.0002313 4338.74023 4338.74219
4390.0 0.0002278 4337.38965 4337.39063
4345.0 0.0002301 4336.02783 4336.03027
4298.0 0.0002327 4334.65479 4334.65723
4267.0 0.0002344 4333.26953 4336.16797
4340.0 0.0002304 4331.87207 4334.87402
4328.0 0.0002311 4330.46240 4333.57275
4229.0 0.0002365 4329.04004 4332.26904
4381.0 0.0002283 4327.60498 4330.95605
4278.0 0.0002338 4326.15674 4329.63818
4436.0 0.0002254 4324.69531 4328.31348
4393.0 0.0002276 4323.22070 4326.98584
4268.0 0.0002343 4321.73193 4325.65234
4407.0 0.0002269 4320.22998 4324.31641
4260.0 0.0002347 4318.71338 4322.97510
4216.0 0.0002372 4317.18311 4321.63330
4199.0 0.0002382 4315.63818 4320.28760
4356.0 0.0002296 4314.07910 4318.94141
4299.0 0.0002326 4312.50488 4317.59619
4236.0 0.0002361 4310.91602 4316.25195
4284.0 0.0002334 4309.31250 4314.90967
4355.0 0.0002296 4307.69336 4313.57666
4231.0 0.0002364 4306.05957 4312.24854
4306.0 0.0002322 4304.40967 4310.92725
4404.0 0.0002271 4302.74463 4309.62012
4219.0 0.0002370 4301.06445 4308.32568
4246.0 0.0002355 4299.36768 4307.04932
4237.0 0.0002360 4297.65576 4305.79346
4327.0 0.0002311 4295.92773 4304.56689
4274.0 0.0002340 4294.18408 4303.37012
4243.0 0.0002357 4292.42432 4302.21045
4235.0 0.0002361 4290.64844 4301.09424
4237.0 0.0002360 4288.85645 4300.03223
4322.0 0.0002314 4287.04785 4299.03516
4377.0 0.0002285 4285.22363 4298.10889
4293.0 0.0002329 4283.38281 4297.27197
4276.0 0.0002339 4281.52588 4296.54150
4221.0 0.0002369 4279.65283 4295.93359
4222.0 0.0002369 4277.76318 4295.47900
4157.0 0.0002406 4275.85742 4295.20361
4195.0 0.0002384 4273.93506 4295.14600
4219.0 0.0002370 4271.99658 4295.35059
4244.0 0.0002356 4270.04199 4295.87988
4402.0 0.0002272 4268.07080 4296.80762
4209.0 0.0002376 4266.08398 4298.22754
4279.0 0.0002337 4264.08057 4300.26807
4166.0 0.0002400 4262.06104 4303.09473
4301.0 0.0002325 4260.02588 4306.93311
4524.0 0.0002210 4257.97461 4312.12744
4361.0 0.0002293 4255.90674 4319.25195
4452.0 0.0002246 4253.82373 4329.49658
4480.0 0.0002232 4251.72510 4345.62793
4621.0 0.0002164 4249.61035 4374.13965
4738.0 0.0002111 4247.48047 4429.02441
4847.0 0.0002063 4245.33496 4536.16602
5116.0 0.0001955 4243.17383 4734.57275
5282.0 0.0001893 4240.99805 5067.71094
5756.0 0.0001737 4238.80713 5560.31641
5992.0 0.0001669 4236.60107 6185.29004
6663.0 0.0001501 4234.38037 6835.81689
7226.0 0.0001384 4232.14502 7324.01709
7401.0 0.0001351 4229.89502 7446.74365
7054.0 0.0001418 4227.63086 7138.38672
6748.0 0.0001482 4225.35303 6543.33740
5946.0 0.0001682 4223.06055 5877.75049
5336.0 0.0001874 4220.75439 5297.66309
4891.0 0.0002045 4218.43506 4871.93799
4848.0 0.0002063 4216.10205 4600.04590
4431.0 0.0002257 4213.75586 4444.52490
4456.0 0.0002244 4211.39697 4361.37402
4197.0 0.0002383 4209.02490 4316.88770
4231.0 0.0002364 4206.64063 4290.98242
4199.0 0.0002382 4204.24414 4273.69043
4217.0 0.0002371 4201.83545 4260.65137
4217.0 0.0002371 4199.41455 4250.04199
4206.0 0.0002378 4196.98242 4241.05127
4105.0 0.0002436 4194.53906 4233.23975
4096.0 0.0002441 4192.08447 4226.33057
4188.0 0.0002388 4189.61914 4220.13232
4215.0 0.0002372 4187.14307 4214.49609
4225.0 0.0002367 4184.65674 4209.31348
4208.0 0.0002376 4182.16016 4204.49707
4148.0 0.0002411 4179.65430 4199.98047
4189.0 0.0002387 4177.13867 4195.71143
4165.0 0.0002401 4174.61377 4191.65186
4200.0 0.0002381 4172.08008 4187.76416
4157.0 0.0002406 4169.53809 4184.02197
4174.0 0.0002396 4166.98779 4180.40283
4004.0 0.0002498 4164.42920 4176.89111
4111.0 0.0002432 4161.86279 4173.46826
4122.0 0.0002426 4159.28955 4170.12305
3991.0 0.0002506 4156.70850 4166.84521
4120.0 0.0002427 4154.12158 4163.62646
4077.0 0.0002453 4151.52783 4160.45752
4143.0 0.0002414 4148.92773 4157.33301
4178.0 0.0002393 4146.32227 4154.24707
4118.0 0.0002428 4143.71094 4151.19580
4194.0 0.0002384 4141.09521 4148.17578
4160.0 0.0002404 4138.47412 4145.18164
4195.0 0.0002384 4135.84863 4142.21338
4048.0 0.0002470 4133.21924 4139.26416
4187.0 0.0002388 4130.58594 4136.33691
4152.0 0.0002408 4127.94971 4133.42773
4148.0 0.0002411 4125.31006 4130.53223
4116.0 0.0002430 4122.66797 4127.65186
4094.0 0.0002443 4120.02295 4124.78662
4087.0 0.0002447 4117.37646 4121.93213
4105.0 0.0002436 4114.72803 4119.08887
4138.0 0.0002417 4112.07861 4116.25781
4120.0 0.0002427 4109.42773 4113.43604
4026.0 0.0002484 4106.77686 4110.62500
4126.0 0.0002424 4104.12549 4107.82178
4032.0 0.0002480 4101.47412 4105.02930
4054.0 0.0002467 4098.82373 4102.24365
4139.0 0.0002416 4096.17383 4099.46631
4073.0 0.0002455 4093.52539 4096.69922
4040.0 0.0002475 4090.87842 4093.93848
4133.0 0.0002420 4088.23340 4091.18652
4075.0 0.0002454 4085.59058 4085.59204
4047.0 0.0002471 4082.95068 4082.95190
4108.0 0.0002434 4080.31348 4080.31445
4137.0 0.0002417 4077.68018 4077.68115
3998.0 0.0002501 4075.05005 4075.05078
4037.0 0.0002477 4072.42456 4072.42603
4062.0 0.0002462 4069.80322 4069.80444
3961.0 0.0002525 4067.18701 4067.18774
3930.0 0.0002545 4064.57568 4064.57593
3931.0 0.0002544 4061.96997 4061.97192
4047.0 0.0002471 4059.37012 4059.37061
4071.0 0.0002456 4056.77661 4056.77808
3972.0 0.0002518 4054.18970 4054.19116
4117.0 0.0002429 4051.60986 4051.61060
3942.0 0.0002537 4049.03711 4049.03882
3978.0 0.0002514 4046.47217 4046.47339
3998.0 0.0002501 4043.91504 4043.91504
4009.0 0.0002494 4041.36646 4041.36646
4001.0 0.0002499 4038.82642 4038.82715
4016.0 0.0002490 4036.29541 4036.29517
4056.0 0.0002465 4033.77393 4033.77539
4145.0 0.0002413 4031.26196 4031.26270
4047.0 0.0002471 4028.76025 4028.76147
4117.0 0.0002429 4026.26855 4026.26953
3990.0 0.0002506 4023.78784 4023.78906
4064.0 0.0002461 4021.31787 4021.31836
4069.0 0.0002458 4018.85938 4018.85962
3963.0 0.0002523 4016.41260 4016.41284
4059.0 0.0002464 4013.97778 4013.97852
3949.0 0.0002532 4011.55493 4011.55566
4007.0 0.0002496 4009.14502 4009.14600
4007.0 0.0002496 4006.74756 4006.74829
4004.0 0.0002498 4004.36377 4004.36426
3965.0 0.0002522 4001.99292 4001.99365
4064.0 0.0002461 3999.63623 3999.63721
4020.0 0.0002488 3997.29346 3997.29395
3901.0 0.0002563 3994.96509 3994.96533
3858.0 0.0002592 3992.65112 3992.65210
4053.0 0.0002467 3990.35254 3990.35303
3971.0 0.0002518 3988.06860 3988.06982
4055.0 0.0002466 3985.80029 3985.80151
4134.0 0.0002419 3983.54761 3983.54810
4106.0 0.0002435 3981.31079 3981.31104
4023.0 0.0002486 3979.09033 3979.09082
4041.0 0.0002475 3976.88647 3976.88770
4010.0 0.0002494 3974.69922 3974.69995
4024.0 0.0002485 3972.52881 3972.52881
4015.0 0.0002491 3970.37549 3970.37646
3999.0 0.0002501 3968.23975 3968.23975
4074.0 0.0002455 3966.12183 3966.12231
4091.0 0.0002444 3964.02148 3964.02246
4114.0 0.0002431 3961.93945 3961.93970
4157.0 0.0002406 3959.87549 3959.87598
4104.0 0.0002437 3957.83008 3957.83057
4024.0 0.0002485 3955.80347 3955.80493
3939.0 0.0002539 3953.79590 3953.79639
3969.0 0.0002520 3951.80713 3951.80786
3958.0 0.0002527 3949.83765 3949.83813
4083.0 0.0002449 3947.88770 3947.88867
3988.0 0.0002508 3945.95752 3945.95850
3943.0 0.0002536 3944.04688 3944.04712
4011.0 0.0002493 3942.15649 3942.15601
3969.0 0.0002520 3940.28589 3940.28662
3888.0 0.0002572 3938.43579 3938.43628
3883.0 0.0002575 3936.60620 3936.60718
3967.0 0.0002521 3934.79712 3934.79761
3853.0 0.0002595 3933.00854 3933.00928
3948.0 0.0002533 3931.24097 3931.24097
3937.0 0.0002540 3929.49438 3929.49487
3974.0 0.0002516 3927.76880 3927.76978
3911.0 0.0002557 3926.06445 3926.06543
3871.0 0.0002583 3924.38135 3924.38208
3847.0 0.0002599 3922.71997 3922.72021
3988.0 0.0002508 3921.07959 3921.08008
3934.0 0.0002542 3919.46118 3919.46191
3917.0 0.0002553 3917.86426 3917.86377
3844.0 0.0002601 3916.28931 3916.28955
4003.0 0.0002498 3914.73608 3914.73657
3943.0 0.0002536 3913.20459 3913.20532
3904.0 0.0002561 3911.69507 3911.69580
3848.0 0.0002599 3910.20801 3910.20874
3879.0 0.0002578 3908.74243 3908.74316
3979.0 0.0002513 3907.29956 3907.29980
3870.0 0.0002584 3905.87842 3905.87891
3788.0 0.0002640 3904.47949 3904.48096
4032.0 0.0002480 3903.10278 3903.10352
3768.0 0.0002654 3901.74854 3901.74902
3912.0 0.0002556 3900.41650 3900.41626
3972.0 0.0002518 3899.10645 3899.10693
3840.0 0.0002604 3897.81885 3897.81885
4012.0 0.0002493 3896.55371 3896.55420
3905.0 0.0002561 3895.31055 3895.31104
3906.0 0.0002560 3894.08960 3894.09082
3909.0 0.0002558 3892.89111 3892.89185
3997.0 0.0002502 3891.71460 3891.71436
4000.0 0.0002500 3890.56055 3890.56055
3938.0 0.0002539 3889.42822 3889.42871
3948.0 0.0002533 3888.31836 3888.31909
3845.0 0.0002601 3887.23047 3887.23096
3809.0 0.0002625 3886.16455 3886.16455
3961.0 0.0002525 3885.12036 3885.12109
3905.0 0.0002561 3884.09839 3884.09814
3956.0 0.0002528 3883.09790 3883.09839
3847.0 0.0002599 3882.11963 3882.12061
3769.0 0.0002653 3881.16260 3881.16235
3897.0 0.0002566 3880.22705 3880.22729
3819.0 0.0002618 3879.31323 3879.31470
3996.0 0.0002503 3878.42090 3878.42114
3917.0 0.0002553 3877.54956 3877.54932
3825.0 0.0002614 3876.69971 3876.70044
3827.0 0.0002613 3875.87061 3875.87109
3797.0 0.0002634 3875.06274 3875.06323
3986.0 0.0002509 3874.27539 3874.27661
3830.0 0.0002611 3873.50903 3873.51001
4020.0 0.0002488 3872.76318 3872.76392
3947.0 0.0002534 3872.03784 3872.03833
3836.0 0.0002607 3871.33276 3871.33325
3878.0 0.0002579 3870.64771 3870.64819
3930.0 0.0002545 3869.98267 3869.98315
3868.0 0.0002585 3869.33765 3869.33862
3858.0 0.0002592 3868.71240 3868.71313
3921.0 0.0002550 3868.10645 3868.10693
3892.0 0.0002569 3867.52002 3867.52075
3845.0 0.0002601 3866.95264 3866.95361
3874.0 0.0002581 3866.40430 3866.40454
3953.0 0.0002530 3865.87500 3865.87549
3763.0 0.0002657 3865.36426 3865.36401
3798.0 0.0002633 3864.87183 3864.87280
3871.0 0.0002583 3864.39771 3864.39844
3916.0 0.0002554 3863.94165 3863.94189
3874.0 0.0002581 3863.50366 3863.50464
3887.0 0.0002573 3863.08325 3863.08374
3761.0 0.0002659 3862.68018 3862.86548
3874.0 0.0002581 3862.29443 3862.48486
3847.0 0.0002599 3861.92578 3862.12280
3821.0 0.0002617 3861.57397 3862.10107
3912.0 0.0002556 3861.23853 3861.78125
3856.0 0.0002593 3860.91968 3861.47949
3765.0 0.0002656 3860.61670 3861.19287
3891.0 0.0002570 3860.32983 3860.92456
3901.0 0.0002563 3860.05835 3860.67163
3760.0 0.0002660 3859.80249 3860.43628
3789.0 0.0002639 3859.56201 3860.21631
3875.0 0.0002581 3859.33618 3860.01270
3953.0 0.0002530 3859.12500 3859.82495
3839.0 0.0002605 3858.92822 3859.65234
3869.0 0.0002585 3858.74561 3859.49463
3879.0 0.0002578 3858.57715 3859.35327
3885.0 0.0002574 3858.42212 3859.22729
3851.0 0.0002597 3858.28052 3859.11523
3919.0 0.0002552 3858.15210 3859.01880
3875.0 0.0002581 3858.03662 3858.93628
3805.0 0.0002628 3857.93359 3858.86865
3844.0 0.0002601 3857.84277 3858.81665
3832.0 0.0002610 3857.76416 3858.77759
4037.0 0.0002477 3857.69727 3858.75269
3813.0 0.0002623 3857.64185 3858.74243
3897.0 0.0002566 3857.59741 3858.74683
3901.0 0.0002563 3857.56396 3858.76514
3784.0 0.0002643 3857.54126 3858.79663
3798.0 0.0002633 3857.52881 3858.84277
3843.0 0.0002602 3857.52661 3858.90381
3825.0 0.0002614 3857.53394 3858.97974
3798.0 0.0002633 3857.55078 3859.06885
3811.0 0.0002624 3857.57690 3859.17310
3824.0 0.0002615 3857.61182 3859.29443
3777.0 0.0002648 3857.65552 3859.42798
3797.0 0.0002634 3857.70728 3859.57983
3829.0 0.0002612 3857.76709 3859.74805
3766.0 0.0002655 3857.83447 3859.93311
3741.0 0.0002673 3857.90942 3860.13745
3785.0 0.0002642 3857.99146 3860.35962
3885.0 0.0002574 3858.08008 3860.60205
3824.0 0.0002615 3858.17529 3860.86768
3831.0 0.0002610 3858.27661 3861.15674
3855.0 0.0002594 3858.38403 3861.47241
3791.0 0.0002638 3858.49707 3861.81714
3899.0 0.0002565 3858.61499 3862.19434
3856.0 0.0002593 3858.73828 3862.60718
3735.0 0.0002677 3858.86597 3863.06226
3850.0 0.0002597 3858.99805 3863.56445
3843.0 0.0002602 3859.13428 3864.12134
3924.0 0.0002548 3859.27417 3864.74341
3768.0 0.0002654 3859.41748 3865.44189
3789.0 0.0002639 3859.56396 3866.23218
3812.0 0.0002623 3859.71338 3867.13403
3820.0 0.0002618 3859.86499 3868.17334
3876.0 0.0002580 3860.01904 3869.38354
3918.0 0.0002552 3860.17505 3870.81226
3841.0 0.0002603 3860.33252 3872.52979
3859.0 0.0002591 3860.49146 3874.66284
3912.0 0.0002556 3860.65137 3877.46436
3844.0 0.0002601 3860.81177 3881.49243
3838.0 0.0002606 3860.97290 3887.92407
3895.0 0.0002567 3861.13379 3899.01270
3961.0 0.0002525 3861.29468 3918.44800
3909.0 0.0002558 3861.45508 3951.20923
4153.0 0.0002408 3861.61450 4002.46948
4074.0 0.0002455 3861.77319 4075.51099
4141.0 0.0002415 3861.93018 4168.89600
4255.0 0.0002350 3862.08569 4273.30908
4426.0 0.0002259 3862.23901 4371.44775
4404.0 0.0002271 3862.39014 4446.73926
4434.0 0.0002255 3862.53857 4488.75830
4475.0 0.0002235 3862.68433 4484.02490
4341.0 0.0002304 3862.82715 4421.49609
4154.0 0.0002407 3862.96631 4314.50342
4182.0 0.0002391 3863.10181 4194.55371
4049.0 0.0002470 3863.23315 4087.54932
3910.0 0.0002558 3863.36035 4005.97559
3931.0 0.0002544 3863.48315 3951.29150
3910.0 0.0002558 3863.60083 3918.37866
3880.0 0.0002577 3863.71362 3900.03760
3958.0 0.0002527 3863.82104 3890.08228
3956.0 0.0002528 3863.92285 3884.44238
3858.0 0.0002592 3864.01880 3880.90601
3846.0 0.0002600 3864.10840 3878.42432
3840.0 0.0002604 3864.19165 3876.53979
3835.0 0.0002608 3864.26807 3875.04175
3945.0 0.0002535 3864.33765 3873.82251
3850.0 0.0002597 3864.40015 3872.81274
3863.0 0.0002589 3864.45508 3871.96704
3823.0 0.0002616 3864.50220 3871.25049
3923.0 0.0002549 3864.54150 3870.63525
3875.0 0.0002581 3864.57251 3870.10278
3803.0 0.0002630 3864.59497 3869.63599
3918.0 0.0002552 3864.60864 3869.22266
3821.0 0.0002617 3864.61353 3868.85229
3825.0 0.0002614 3864.60938 3868.51685
3963.0 0.0002523 3864.59570 3868.20947
3853.0 0.0002595 3864.57227 3867.92334
3775.0 0.0002649 3864.53906 3867.65625
3893.0 0.0002569 3864.49561 3867.40161
3786.0 0.0002641 3864.44214 3867.15845
3860.0 0.0002591 3864.37793 3866.92163
3845.0 0.0002601 3864.30298 3866.69019
3789.0 0.0002639 3864.21704 3866.46191
3685.0 0.0002714 3864.11987 3866.23560
3740.0 0.0002674 3864.01147 3866.00806
3875.0 0.0002581 3863.89160 3865.77783
3811.0 0.0002624 3863.75977 3865.54639
3804.0 0.0002629 3863.61597 3865.30957
3875.0 0.0002581 3863.45996 3865.06836
3846.0 0.0002600 3863.29150 3864.82056
3901.0 0.0002563 3863.11060 3864.56592
3854.0 0.0002595 3862.91699 3864.30469
3995.0 0.0002503 3862.71045 3864.03394
3869.0 0.0002585 3862.49072 3863.75464
3870.0 0.0002584 3862.25806 3863.46680
3776.0 0.0002648 3862.01172 3863.16724
3899.0 0.0002565 3861.75171 3862.85913
3803.0 0.0002630 3861.47803 3862.53979
3924.0 0.0002548 3861.19043 3862.20947
3794.0 0.0002636 3860.88867 3861.86816
3870.0 0.0002584 3860.57275 3861.51392
3875.0 0.0002581 3860.24219 3861.14795
3958.0 0.0002527 3859.89746 3860.76904
3874.0 0.0002581 3859.53809 3860.37720
3899.0 0.0002565 3859.16357 3859.97266
3829.0 0.0002612 3858.77441 3859.55518
3774.0 0.0002650 3858.37012 3859.12329
3979.0 0.0002513 3857.95044 3858.67847
3877.0 0.0002579 3857.51563 3858.21875
3823.0 0.0002616 3857.06519 3857.74512
3929.0 0.0002545 3856.59937 3857.25854
3845.0 0.0002601 3856.11792 3856.75488
3955.0 0.0002528 3855.62036 3856.23706
3994.0 0.0002504 3855.10742 3855.70532
3811.0 0.0002624 3854.57813 3855.15771
3941.0 0.0002537 3854.03271 3854.59570
3823.0 0.0002616 3853.47144 3853.83350
3902.0 0.0002563 3852.89355 3853.24609
3927.0 0.0002546 3852.29956 3852.64111
3837.0 0.0002606 3851.68896 3852.02100
3874.0 0.0002581 3851.06201 3851.06348
3852.0 0.0002596 3850.41821 3850.41919
3892.0 0.0002569 3849.75806 3849.75928
3987.0 0.0002508 3849.08105 3849.08252
3909.0 0.0002558 3848.38721 3848.38892
3922.0 0.0002550 3847.67651 3847.67798
4023.0 0.0002486 3846.94897 3846.94971
3931.0 0.0002544 3846.20459 3846.20581
3842.0 0.0002603 3845.44287 3845.44434
3990.0 0.0002506 3844.66431 3844.66528
3831.0 0.0002610 3843.86865 3843.87036
3813.0 0.0002623 3843.05566 3843.05688
3892.0 0.0002569 3842.22583 3842.22778
3837.0 0.0002606 3841.37866 3841.37988
3926.0 0.0002547 3840.51416 3840.51538
3908.0 0.0002559 3839.63257 3839.63379
3794.0 0.0002636 3838.73340 3838.73486
3845.0 0.0002601 3837.81738 3837.81909
3867.0 0.0002586 3836.88379 3836.88477
3921.0 0.0002550 3835.93286 3835.93384
3900.0 0.0002564 3834.96484 3834.96558
3937.0 0.0002540 3833.97925 3833.98071
3974.0 0.0002516 3832.97656 3832.97803
3888.0 0.0002572 3831.95630 3831.95703
3879.0 0.0002578 3830.91919 3830.92065
3959.0 0.0002526 3829.86426 3829.86572
3831.0 0.0002610 3828.79224 3828.79395
3989.0 0.0002507 3827.70313 3827.70386
3860.0 0.0002591 3826.59668 3826.59863
3752.0 0.0002665 3825.47314 3825.47412
3883.0 0.0002575 3824.33228 3824.33276
3793.0 0.0002636 3823.17432 3823.17480
3899.0 0.0002565 3821.99951 3822.00171
3932.0 0.0002543 3820.80737 3820.80811
3841.0 0.0002603 3819.59814 3819.59937
3825.0 0.0002614 3818.37207 3818.37329
3704.0 0.0002700 3817.12915 3817.13013
3787.0 0.0002641 3815.86914 3815.87036
3899.0 0.0002565 3814.59229 3814.59399
3864.0 0.0002588 3813.29907 3813.30005
3814.0 0.0002622 3811.98901 3811.99023
3817.0 0.0002620 3810.66211 3810.66333
3854.0 0.0002595 3809.31860 3809.32031
3873.0 0.0002582 3807.95874 3807.96045
3733.0 0.0002679 3806.58252 3806.58374
3864.0 0.0002588 3805.18994 3805.19092
3881.0 0.0002577 3803.78125 3803.78247
3882.0 0.0002576 3802.35596 3802.35693
3926.0 0.0002547 3800.91479 3800.91528
3955.0 0.0002528 3799.45776 3799.45874
3744.0 0.0002671 3797.98486 3797.98608
3753.0 0.0002665 3796.49585 3796.49707
3787.0 0.0002641 3794.99121 3794.99292
3719.0 0.0002689 3793.47119 3793.47314
3785.0 0.0002642 3791.93555 3791.93628
3884.0 0.0002575 3790.38428 3790.38574
3795.0 0.0002635 3788.81787 3788.81812
3742.0 0.0002672 3787.23657 3787.23755
3784.0 0.0002643 3785.63965 3785.64087
3828.0 0.0002612 3784.02808 3784.02905
3755.0 0.0002663 3782.40137 3787.66992
3775.0 0.0002649 3780.76025 3786.18384
3689.0 0.0002711 3779.10474 3784.68994
3857.0 0.0002593 3777.43433 3783.18921
3735.0 0.0002677 3775.74951 3781.68140
3739.0 0.0002675 3774.05078 3780.16797
3689.0 0.0002711 3772.33789 3778.64868
3873.0 0.0002582 3770.61084 3777.12451
3744.0 0.0002671 3768.87012 3775.59741
3681.0 0.0002717 3767.11572 3774.06641
3718.0 0.0002690 3765.34790 3772.53442
3707.0 0.0002698 3763.56641 3771.00024
3737.0 0.0002676 3761.77173 3769.46655
3671.0 0.0002724 3759.96411 3767.93408
3776.0 0.0002648 3758.14380 3766.40283
3668.0 0.0002726 3756.31030 3764.87524
3635.0 0.0002751 3754.46411 3763.35107
3803.0 0.0002630 3752.60547 3761.83398
3745.0 0.0002670 3750.73462 3760.32495
3675.0 0.0002721 3748.85156 3758.82446
3661.0 0.0002731 3746.95630 3757.33447
3756.0 0.0002662 3745.04907 3755.85962
3698.0 0.0002704 3743.13062 3754.39966
3646.0 0.0002743 3741.20044 3752.95874
3831.0 0.0002610 3739.25879 3751.53906
3810.0 0.0002625 3737.30591 3750.14233
3665.0 0.0002729 3735.34204 3748.77295
3727.0 0.0002683 3733.36743 3747.43555
3802.0 0.0002630 3731.38184 3746.13525
3616.0 0.0002765 3729.38574 3744.87427
3728.0 0.0002682 3727.37964 3743.65894
3661.0 0.0002731 3725.36328 3742.49585
3713.0 0.0002693 3723.33667 3741.39209
3753.0 0.0002665 3721.30029 3740.35352
3793.0 0.0002636 3719.25439 3739.39136
3641.0 0.0002746 3717.19922 3738.51465
3709.0 0.0002696 3715.13452 3737.73389
3808.0 0.0002626 3713.06055 3737.06372
3700.0 0.0002703 3710.97778 3736.51929
3681.0 0.0002717 3708.88672 3736.11792
3727.0 0.0002683 3706.78662 3735.88110
3714.0 0.0002693 3704.67822 3735.83228
3746.0 0.0002670 3702.56177 3736.00146
3721.0 0.0002687 3700.43726 3736.42261
3660.0 0.0002732 3698.30493 3737.13574
3802.0 0.0002630 3696.16504 3738.19165
3654.0 0.0002737 3694.01758 3739.64722
3725.0 0.0002685 3691.86304 3741.57617
3721.0 0.0002687 3689.70142 3744.06641
3826.0 0.0002614 3687.53296 3747.23071
3768.0 0.0002654 3685.35767 3751.20386
3732.0 0.0002680 3683.17603 3756.16162
3797.0 0.0002634 3680.98804 3762.32495
3761.0 0.0002659 3678.79419 3769.97998
3745.0 0.0002670 3676.59399 3779.50366
3721.0 0.0002687 3674.38867 3791.40088
3809.0 0.0002625 3672.17725 3806.37158
3887.0 0.0002573 3669.96069 3825.48315
3752.0 0.0002665 3667.73901 3850.61230
3940.0 0.0002538 3665.51245 3885.66650
3983.0 0.0002511 3663.28125 3939.53296
4233.0 0.0002362 3661.04517 4031.95972
4368.0 0.0002289 3658.80493 4202.42090
4600.0 0.0002174 3656.56055 4517.73730
5286.0 0.0001892 3654.31226 5067.72266
6102.0 0.0001639 3652.06006 5935.56885
7224.0 0.0001384 3649.80396 7140.12354
8505.0 0.0001176 3647.54492 8567.68066
9970.0 0.0001003 3645.28247 9919.99609
10922.0 0.0000916 3643.01709 10728.64844
10928.0 0.0000915 3640.74878 10596.45996
9695.0 0.0001031 3638.47778 9592.51563
8226.0 0.0001216 3636.20459 8174.71777
6692.0 0.0001494 3633.92896 6779.18945
5762.0 0.0001736 3631.65112 5653.08984
5008.0 0.0001997 3629.37158 4869.32666
4466.0 0.0002239 3627.09033 4385.47559
4164.0 0.0002402 3624.80762 4111.83838
3931.0 0.0002544 3622.52344 3962.80859
3979.0 0.0002513 3620.23828 3878.96753
3817.0 0.0002620 3617.95215 3826.93164
3726.0 0.0002684 3615.66528 3790.58545
3809.0 0.0002625 3613.37769 3762.80298
3666.0 0.0002728 3611.08984 3740.41772
3660.0 0.0002732 3608.80151 3721.84229
3614.0 0.0002767 3606.51367 3706.13550
3613.0 0.0002768 3604.22559 3692.65869
3549.0 0.0002818 3601.93799 3680.94873
3613.0 0.0002768 3599.65063 3670.65283
3704.0 0.0002700 3597.36450 3661.50732
3520.0 0.0002841 3595.07886 3653.30347
3573.0 0.0002799 3592.79419 3645.87695
3627.0 0.0002757 3590.51099 3639.09985
3612.0 0.0002769 3588.22925 3632.86816
3623.0 0.0002760 3585.94873 3627.09839
3511.0 0.0002848 3583.67017 3621.72168
3566.0 0.0002804 3581.39331 3616.68262
3537.0 0.0002827 3579.11890 3611.93530
3508.0 0.0002851 3576.84644 3607.43945
3558.0 0.0002811 3574.57666 3603.16431
3614.0 0.0002767 3572.30933 3599.07983
3525.0 0.0002837 3570.04492 3595.16797
3665.0 0.0002729 3567.78296 3591.40454
3593.0 0.0002783 3565.52441 3587.77515
3600.0 0.0002778 3563.26904 3584.26440
3664.0 0.0002729 3561.01709 3580.86011
3591.0 0.0002785 3558.76880 3577.55225
3605.0 0.0002774 3556.52393 3574.32983
3696.0 0.0002706 3554.28296 3571.18555
3630.0 0.0002755 3552.04614 3568.11206
3524.0 0.0002838 3549.81348 3565.10327
3527.0 0.0002835 3547.58521 3562.15308
3532.0 0.0002831 3545.36133 3559.25781
3467.0 0.0002884 3543.14185 3556.41333
3558.0 0.0002811 3540.92773 3553.61328
3481.0 0.0002873 3538.71802 3550.85742
3486.0 0.0002869 3536.51343 3548.13989
3493.0 0.0002863 3534.31421 3545.45972
3466.0 0.0002885 3532.12036 3542.81372
3635.0 0.0002751 3529.93188 3540.20068
3452.0 0.0002897 3527.74878 3537.61792
3498.0 0.0002859 3525.57178 3535.06396
3510.0 0.0002849 3523.40063 3532.53662
3566.0 0.0002804 3521.23535 3530.03516
3474.0 0.0002879 3519.07593 3527.55884
3532.0 0.0002831 3516.92310 3525.10352
3418.0 0.0002926 3514.77686 3522.67285
3403.0 0.0002939 3512.63696 3520.26147
3573.0 0.0002799 3510.50366 3517.87061
3481.0 0.0002873 3508.37695 3515.50098
3401.0 0.0002940 3506.25757 3513.14868
3478.0 0.0002875 3504.14478 3510.81519
3546.0 0.0002820 3502.03906 3508.49854
3457.0 0.0002893 3499.94092 3506.19897
3579.0 0.0002794 3497.84985 3503.91650
3535.0 0.0002829 3495.76660 3501.65039
3416.0 0.0002927 3493.69067 3499.39966
3467.0 0.0002884 3491.62231 3497.16455
3397.0 0.0002944 3489.56177 3494.94385
3545.0 0.0002821 3487.50928 3487.51025
3578.0 0.0002795 3485.46460 3485.46558
3500.0 0.0002857 3483.42798 3483.42871
3489.0 0.0002866 3481.39941 3481.40039
3460.0 0.0002890 3479.37964 3479.38037
3478.0 0.0002875 3477.36768 3477.36890
3519.0 0.0002842 3475.36450 3475.36450
3383.0 0.0002956 3473.36963 3473.37085
3428.0 0.0002917 3471.38354 3471.38452
3538.0 0.0002826 3469.40601 3469.40625
3463.0 0.0002888 3467.43750 3467.43848
3441.0 0.0002906 3465.47754 3465.47852
3524.0 0.0002838 3463.52686 3463.52759
3500.0 0.0002857 3461.58521 3461.58618
3598.0 0.0002779 3459.65234 3459.65308
3465.0 0.0002886 3457.72876 3457.72998
3500.0 0.0002857 3455.81470 3455.81494
3448.0 0.0002900 3453.90991 3453.91016
3474.0 0.0002879 3452.01440 3452.01514
3485.0 0.0002869 3450.12817 3450.12891
3408.0 0.0002934 3448.25171 3448.25220
3346.0 0.0002989 3446.38501 3446.38550
3471.0 0.0002881 3444.52759 3444.52832
3397.0 0.0002944 3442.67993 3442.68091
3445.0 0.0002903 3440.84204 3440.84351
3406.0 0.0002936 3439.01440 3439.01538
3425.0 0.0002920 3437.19604 3437.19678
3487.0 0.0002868 3435.38794 3435.38892
3390.0 0.0002950 3433.58960 3433.59082
3359.0 0.0002977 3431.80151 3431.80273
3470.0 0.0002882 3430.02344 3430.02344
3405.0 0.0002937 3428.25513 3428.25586
3373.0 0.0002965 3426.49731 3426.49756
3397.0 0.0002944 3424.74951 3425.17383
3531.0 0.0002832 3423.01221 3423.44824
3386.0 0.0002953 3421.28467 3421.93262
3376.0 0.0002962 3419.56763 3420.23511
3462.0 0.0002889 3417.86108 3418.54956
3481.0 0.0002873 3416.16479 3416.87476
3351.0 0.0002984 3414.47876 3415.20996
3312.0 0.0003019 3412.80322 3413.55786
3378.0 0.0002960 3411.13818 3411.91821
3470.0 0.0002882 3409.48340 3410.28882
3366.0 0.0002971 3407.83911 3408.67163
3469.0 0.0002883 3406.20557 3407.06689
3389.0 0.0002951 3404.58203 3405.47266
3361.0 0.0002975 3402.96948 3403.89185
3519.0 0.0002842 3401.36719 3402.32251
3470.0 0.0002882 3399.77563 3400.76758
3483.0 0.0002871 3398.19458 3399.22290
3415.0 0.0002928 3396.62378 3397.69141
3389.0 0.0002951 3395.06396 3396.17285
3431.0 0.0002915 3393.51440 3394.66748
3482.0 0.0002872 3391.97534 3393.17554
3486.0 0.0002869 3390.44727 3391.69702
3393.0 0.0002947 3388.92944 3390.23169
3412.0 0.0002931 3387.42236 3388.78003
3351.0 0.0002984 3385.92554 3387.34302
3387.0 0.0002952 3384.43970 3385.92090
3394.0 0.0002946 3382.96411 3384.51392
3430.0 0.0002915 3381.49902 3383.12109
3422.0 0.0002922 3380.04443 3381.74634
3394.0 0.0002946 3378.60059 3380.38672
3429.0 0.0002916 3377.16699 3379.04248
3330.0 0.0003003 3375.74390 3377.71729
3422.0 0.0002922 3374.33130 3376.41040
3355.0 0.0002981 3372.92920 3375.12231
3410.0 0.0002933 3371.53760 3373.85449
3453.0 0.0002896 3370.15625 3372.60742
3403.0 0.0002939 3368.78540 3371.38257
3441.0 0.0002906 3367.42456 3370.18335
3405.0 0.0002937 3366.07446 3369.00732
3329.0 0.0003004 3364.73438 3367.86011
3406.0 0.0002936 3363.40479 3366.74219
3331.0 0.0003002 3362.08521 3365.65674
3341.0 0.0002993 3360.77612 3364.60791
3417.0 0.0002927 3359.47681 3363.59668
3304.0 0.0003027 3358.18774 3362.63062
3420.0 0.0002924 3356.90894 3361.71338
3301.0 0.0003029 3355.64014 3360.85278
3323.0 0.0003009 3354.38135 3360.05518
3398.0 0.0002943 3353.13232 3359.33228
3219.0 0.0003107 3351.89331 3358.69458
3309.0 0.0003022 3350.66431 3358.15918
3413.0 0.0002930 3349.44507 3357.74463
3420.0 0.0002924 3348.23560 3357.47388
3331.0 0.0003002 3347.03589 3357.38135
3370.0 0.0002967 3345.84595 3357.50659
3351.0 0.0002984 3344.66553 3357.90698
3429.0 0.0002916 3343.49463 3358.66040
3307.0 0.0003024 3342.33350 3359.89014
3441.0 0.0002906 3341.18188 3361.81738
3304.0 0.0003027 3340.03955 3364.89893
3443.0 0.0002904 3338.90674 3370.14014
3440.0 0.0002907 3337.78296 3379.66357
3481.0 0.0002873 3336.66870 3397.45728
3491.0 0.0002865 3335.56372 3429.86108
3422.0 0.0002922 3334.46777 3484.87256
3508.0 0.0002851 3333.38062 3569.40161
3735.0 0.0002677 3332.30273 3684.50488
3700.0 0.0002703 3331.23413 3819.71289
3939.0 0.0002539 3330.17383 3948.15430
3970.0 0.0002519 3329.12280 4029.94507
4058.0 0.0002464 3328.08032 4037.10083
4026.0 0.0002484 3327.04688 3974.04150
3880.0 0.0002577 3326.02173 3862.78711
3605.0 0.0002774 3325.00513 3731.85278
3577.0 0.0002796 3323.99707 3609.44556
3563.0 0.0002807 3322.99756 3512.00903
3515.0 0.0002845 3322.00635 3443.10889
3422.0 0.0002922 3321.02344 3398.65137
3437.0 0.0002910 3320.04858 3371.76880
3329.0 0.0003004 3319.08203 3355.90234
3384.0 0.0002955 3318.12354 3346.26563
3385.0 0.0002954 3317.17310 3339.91553
3371.0 0.0002966 3316.23022 3335.28345
3389.0 0.0002951 3315.29565 3331.60742
3232.0 0.0003094 3314.36841 3328.52832
3419.0 0.0002925 3313.44922 3325.86548
3299.0 0.0003031 3312.53735 3323.51343
3320.0 0.0003012 3311.63306 3321.40479
3288.0 0.0003041 3310.73657 3319.49146
3280.0 0.0003049 3309.84692 3317.73486
3260.0 0.0003067 3308.96484 3316.10840
3399.0 0.0002942 3308.09009 3314.58911
3344.0 0.0002990 3307.22241 3313.16064
3253.0 0.0003074 3306.36157 3311.80933
3347.0 0.0002988 3305.50781 3310.52295
3301.0 0.0003029 3304.66089 3309.29395
3233.0 0.0003093 3303.82080 3308.11255
3295.0 0.0003035 3302.98755 3306.97632
3238.0 0.0003088 3302.16089 3305.87646
3237.0 0.0003089 3301.34058 3304.81104
3251.0 0.0003076 3300.52710 3303.77612
3206.0 0.0003119 3299.71973 3302.76929
3280.0 0.0003049 3298.91870 3301.78638
3253.0 0.0003074 3298.12378 3300.82422
3261.0 0.0003067 3297.33521 3299.88477
3258.0 0.0003069 3296.55249 3298.96313
3277.0 0.0003052 3295.77588 3298.05933
3272.0 0.0003056 3295.00513 3297.17188
3235.0 0.0003091 3294.23999 3296.29907
3276.0 0.0003053 3293.48096 3295.44092
3300.0 0.0003030 3292.72705 3294.59570
3336.0 0.0002998 3291.97900 3293.76196
3302.0 0.0003028 3291.23608 3292.94043
3286.0 0.0003043 3290.49878 3292.13110
3338.0 0.0002996 3289.76685 3291.33154
3254.0 0.0003073 3289.03979 3290.54175
3319.0 0.0003013 3288.31787 3289.76123
3249.0 0.0003078 3287.60107 3288.99023
3250.0 0.0003077 3286.88916 3288.22827
3277.0 0.0003052 3286.18213 3287.47510
3203.0 0.0003122 3285.47974 3286.73071
3261.0 0.0003067 3284.78223 3285.99268
3308.0 0.0003023 3284.08911 3285.26343
3209.0 0.0003116 3283.40039 3284.54199
3252.0 0.0003075 3282.71631 3283.82788
3380.0 0.0002959 3282.03638 3283.12061
3258.0 0.0003069 3281.36060 3282.42139
3343.0 0.0002991 3280.68921 3281.72998
3240.0 0.0003086 3280.02173 3281.04590
3281.0 0.0003048 3279.35815 3280.37061
3314.0 0.0003018 3278.69849 3279.70264
3264.0 0.0003064 3278.04272 3279.04224
3293.0 0.0003037 3277.39063 3278.39331
3224.0 0.0003102 3276.74219 3277.75342
3245.0 0.0003082 3276.09717 3277.12622
3207.0 0.0003118 3275.45581 3276.51392
3277.0 0.0003052 3274.81787 3275.92114
3279.0 0.0003050 3274.18286 3275.36011
3212.0 0.0003113 3273.55151 3274.43091
3323.0 0.0003009 3272.92285 3274.04370
3209.0 0.0003116 3272.29736 3273.85962
3269.0 0.0003059 3271.67505 3273.82813
3262.0 0.0003066 3271.05542 3274.52417
3302.0 0.0003028 3270.43872 3275.86768
3349.0 0.0002986 3269.82471 3277.81348
3248.0 0.0003079 3269.21338 3280.01880
3355.0 0.0002981 3268.60449 3281.76538
3248.0 0.0003079 3267.99805 3282.08887
3530.0 0.0002833 3267.39429 3280.48877
3400.0 0.0002941 3266.79248 3277.49634
3475.0 0.0002878 3266.19336 3274.07764
3397.0 0.0002944 3265.59595 3270.93921
3475.0 0.0002878 3265.00073 3268.40771
3537.0 0.0002827 3264.40771 3266.52100
3473.0 0.0002879 3263.81665 3266.89551
3347.0 0.0002988 3263.22729 3265.92041
3374.0 0.0002964 3262.63965 3265.14600
3391.0 0.0002949 3262.05371 3264.47388
3321.0 0.0003011 3261.46973 3263.85669
3270.0 0.0003058 3260.88696 3263.27002
3308.0 0.0003023 3260.30591 3262.70313
3175.0 0.0003150 3259.72632 3262.15088
3235.0 0.0003091 3259.14771 3261.61084
3194.0 0.0003131 3258.57080 3261.08032
3155.0 0.0003170 3257.99487 3260.55957
3257.0 0.0003070 3257.42017 3260.04858
3214.0 0.0003111 3256.84644 3259.54443
3313.0 0.0003018 3256.27368 3259.04883
3217.0 0.0003108 3255.70190 3258.56201
3233.0 0.0003093 3255.13110 3258.08105
3412.0 0.0002931 3254.56104 3257.60938
3150.0 0.0003175 3253.99170 3257.14478
3354.0 0.0002982 3253.42310 3256.68921
3220.0 0.0003106 3252.85498 3256.24170
3257.0 0.0003070 3252.28735 3255.80396
3148.0 0.0003177 3251.72046 3255.37524
3256.0 0.0003071 3251.15381 3254.95703
3187.0 0.0003138 3250.58740 3254.54932
3267.0 0.0003061 3250.02148 3254.15259
3220.0 0.0003106 3249.45581 3253.76929
3197.0 0.0003128 3248.89014 3253.39844
3174.0 0.0003151 3248.32471 3253.04272
3251.0 0.0003076 3247.75928 3252.70337
3221.0 0.0003105 3247.19409 3252.38062
3131.0 0.0003194 3246.62866 3252.07690
3231.0 0.0003095 3246.06299 3251.79297
3189.0 0.0003136 3245.49731 3251.53394
3238.0 0.0003088 3244.93140 3251.29980
3306.0 0.0003025 3244.36548 3251.09351
3148.0 0.0003177 3243.79883 3250.91943
3298.0 0.0003032 3243.23193 3250.78125
3173.0 0.0003152 3242.66479 3250.68188
3292.0 0.0003038 3242.09717 3250.62769
3197.0 0.0003128 3241.52881 3250.62402
3102.0 0.0003224 3240.95996 3250.67847
3172.0 0.0003153 3240.39063 3250.79883
3270.0 0.0003058 3239.82056 3250.99341
3131.0 0.0003194 3239.25000 3251.27612
3218.0 0.0003108 3238.67847 3251.65967
3244.0 0.0003083 3238.10620 3252.16064
3212.0 0.0003113 3237.53320 3252.79907
3245.0 0.0003082 3236.95923 3253.59937
3154.0 0.0003171 3236.38428 3254.59082
3263.0 0.0003065 3235.80835 3255.81445
3179.0 0.0003146 3235.23169 3257.31274
3256.0 0.0003071 3234.65405 3259.14771
3281.0 0.0003048 3234.07520 3261.39355
3230.0 0.0003096 3233.49512 3264.15234
3258.0 0.0003069 3232.91406 3267.55054
3275.0 0.0003053 3232.33179 3271.76465
3364.0 0.0002973 3231.74829 3277.03833
3199.0 0.0003126 3231.16357 3283.75293
3257.0 0.0003070 3230.57764 3292.58716
3291.0 0.0003039 3229.99048 3304.95020
3262.0 0.0003066 3229.40186 3323.95215
3400.0 0.0002941 3228.81201 3356.20483
3436.0 0.0002910 3228.22070 3414.22754
3565.0 0.0002805 3227.62817 3518.03320
3643.0 0.0002745 3227.03394 3692.61401
3908.0 0.0002559 3226.43848 3958.45825
4201.0 0.0002380 3225.84131 4315.25684
4656.0 0.0002148 3225.24268 4723.71191
5225.0 0.0001914 3224.64258 5090.88379
5401.0 0.0001852 3224.04102 5278.04102
5137.0 0.0001947 3223.43774 5187.07471
4866.0 0.0002055 3222.83301 4867.64355
4418.0 0.0002263 3222.22656 4459.05859
4046.0 0.0002472 3221.61865 4074.89160
3817.0 0.0002620 3221.00879 3772.77832
3563.0 0.0002807 3220.39746 3565.25659
3513.0 0.0002847 3219.78442 3437.31299
3478.0 0.0002875 3219.16968 3364.05298
3512.0 0.0002847 3218.55322 3323.02417
3578.0 0.0002795 3217.93506 3299.01050
3668.0 0.0002726 3217.31519 3283.51685
3652.0 0.0002738 3216.69360 3272.41284
3533.0 0.0002830 3216.07007 3263.81934
3405.0 0.0002937 3215.44507 3256.86426
3332.0 0.0003001 3214.81812 3251.08691
3244.0 0.0003083 3214.18945 3246.20337
3224.0 0.0003102 3213.55884 3242.01685
3270.0 0.0003058 3212.92651 3238.38379
3194.0 0.0003131 3212.29248 3235.19507
3080.0 0.0003247 3211.65649 3232.36816
3246.0 0.0003081 3211.01880 3229.83594
3112.0 0.0003213 3210.37939 3227.54858
3120.0 0.0003205 3209.73804 3225.46680
3250.0 0.0003077 3209.09473 3223.55493
3158.0 0.0003167 3208.44971 3221.78735
3193.0 0.0003132 3207.80298 3220.14380
3238.0 0.0003088 3207.15430 3218.60547
3227.0 0.0003099 3206.50391 3217.15820
3103.0 0.0003223 3205.85181 3215.78833
3122.0 0.0003203 3205.19751 3214.48730
3153.0 0.0003172 3204.54175 3213.24609
3158.0 0.0003167 3203.88403 3212.05518
3237.0 0.0003089 3203.22461 3210.91064
3271.0 0.0003057 3202.56323 3209.80542
3377.0 0.0002961 3201.90039 3208.73633
3235.0 0.0003091 3201.23535 3207.69775
3342.0 0.0002992 3200.56885 3206.68872
3247.0 0.0003080 3199.90039 3205.70264
3296.0 0.0003034 3199.23022 3204.73926
3270.0 0.0003058 3198.55859 3203.79688
3323.0 0.0003009 3197.88501 3202.87134
3230.0 0.0003096 3197.20972 3201.96118
3244.0 0.0003083 3196.53271 3201.06665
3163.0 0.0003162 3195.85400 3200.18481
3152.0 0.0003173 3195.17358 3199.31494
3211.0 0.0003114 3194.49146 3198.45410
3245.0 0.0003082 3193.80786 3197.60352
3111.0 0.0003214 3193.12256 3196.76245
3200.0 0.0003125 3192.43555 3195.92871
3137.0 0.0003188 3191.74707 3195.10205
3211.0 0.0003114 3191.05688 3194.28101
3116.0 0.0003209 3190.36523 3193.46704
3275.0 0.0003053 3189.67212 3192.65747
3160.0 0.0003165 3188.97729 3191.85352
3104.0 0.0003222 3188.28101 3191.05322
3166.0 0.0003159 3187.58325 3190.25781
3224.0 0.0003102 3186.88403 3189.46509
3188.0 0.0003137 3186.18335 3188.67651
3140.0 0.0003185 3185.48120 3187.89038
3139.0 0.0003186 3184.77783 3187.10767
3158.0 0.0003167 3184.07300 3186.32715
3251.0 0.0003076 3183.36694 3185.54858
3159.0 0.0003166 3182.65942 3184.77319
3264.0 0.0003064 3181.95044 3183.99902
3194.0 0.0003131 3181.24048 3183.22583
3227.0 0.0003099 3180.52905 3182.45483
3313.0 0.0003018 3179.81665 3204.41260
3315.0 0.0003017 3179.10278 3204.31323
3190.0 0.0003135 3178.38794 3204.24585
3097.0 0.0003229 3177.67188 3202.49927
3126.0 0.0003199 3176.95459 3202.54639
3238.0 0.0003088 3176.23633 3202.62817
3275.0 0.0003053 3175.51709 3202.74683
3204.0 0.0003121 3174.79663 3202.90552
3130.0 0.0003195 3174.07544 3203.10645
3193.0 0.0003132 3173.35303 3203.35205
3278.0 0.0003051 3172.62988 3203.64624
3338.0 0.0002996 3171.90576 3203.99219
3355.0 0.0002981 3171.18066 3204.39331
3266.0 0.0003062 3170.45483 3204.85400
3349.0 0.0002986 3169.72827 3205.37915
3255.0 0.0003072 3169.00073 3205.97266
3192.0 0.0003133 3168.27246 3206.64038
3213.0 0.0003112 3167.54370 3207.38599
3184.0 0.0003141 3166.81421 3208.21948
3129.0 0.0003196 3166.08398 3209.14600
3132.0 0.0003193 3165.35327 3210.17188
3214.0 0.0003111 3164.62183 3211.30688
3125.0 0.0003200 3163.88989 3212.56226
3314.0 0.0003018 3163.15747 3213.94531
3143.0 0.0003182 3162.42480 3215.46753
3178.0 0.0003147 3161.69141 3217.14355
3205.0 0.0003120 3160.95752 3218.98633
3203.0 0.0003122 3160.22363 3221.01294
3131.0 0.0003194 3159.48926 3223.23975
3132.0 0.0003193 3158.75464 3225.68872
3193.0 0.0003132 3158.01978 3228.38110
3150.0 0.0003175 3157.28467 3231.34253
3251.0 0.0003076 3156.54932 3234.60107
3175.0 0.0003150 3155.81396 3238.19116
3167.0 0.0003158 3155.07837 3242.15015
3117.0 0.0003208 3154.34277 3246.52002
3217.0 0.0003108 3153.60718 3251.35132
3080.0 0.0003247 3152.87158 3256.70142
3202.0 0.0003123 3152.13599 3262.63525
3227.0 0.0003099 3151.40063 3269.23071
3116.0 0.0003209 3150.66528 3276.57617
3264.0 0.0003064 3149.93018 3284.77905
3289.0 0.0003040 3149.19531 3293.96313
3213.0 0.0003112 3148.46045 3304.27881
3235.0 0.0003091 3147.72607 3315.90088
3288.0 0.0003041 3146.99219 3329.04395
3249.0 0.0003078 3146.25830 3343.96582
3249.0 0.0003078 3145.52490 3360.98291
3256.0 0.0003071 3144.79224 3380.47949
3330.0 0.0003003 3144.05981 3402.93823
3501.0 0.0002856 3143.32788 3428.95752
3318.0 0.0003014 3142.59668 3459.30005
3445.0 0.0002903 3141.86597 3494.93359
3476.0 0.0002877 3141.13574 3537.11255
3548.0 0.0002818 3140.40625 3587.48560
3574.0 0.0002798 3139.67749 3648.26074
3568.0 0.0002803 3138.94971 3722.53467
3737.0 0.0002676 3138.22266 3815.02759
3772.0 0.0002651 3137.49634 3934.01807
4025.0 0.0002484 3136.77075 4096.28857
4460.0 0.0002242 3136.04639 4338.34424
4624.0 0.0002163 3135.32275 4737.28711
5491.0 0.0001821 3134.60034 5439.42334
6766.0 0.0001478 3133.87866 6680.09180
8761.0 0.0001141 3133.15820 8759.24121
11855.0 0.0000844 3132.43896 11935.34570
15844.0 0.0000631 3131.72070 16237.07715
21094.0 0.0000474 3131.00366 21243.56836
26344.0 0.0000380 3130.28784 25889.29102
29134.0 0.0000343 3129.57324 28490.99805
28176.0 0.0000355 3128.86011 27707.00781
23901.0 0.0000418 3128.14795 23974.54492
18688.0 0.0000535 3127.43750 18988.08984
13878.0 0.0000721 3126.72852 14201.84766
10626.0 0.0000941 3126.02075 10376.29297
8164.0 0.0001225 3125.31445 7706.54883
6428.0 0.0001556 3124.60986 6035.30420
5175.0 0.0001932 3123.90674 5066.50244
4675.0 0.0002139 3123.20532 4521.05029
4173.0 0.0002396 3122.50537 4203.58008
4011.0 0.0002493 3121.80713 4002.02002
3815.0 0.0002621 3121.11084 3860.50830
3696.0 0.0002706 3120.41602 3753.24756
3555.0 0.0002813 3119.72314 3668.15454
3513.0 0.0002847 3119.03198 3598.90503
3514.0 0.0002846 3118.34253 3541.64038
3404.0 0.0002938 3117.65527 3493.71606
3383.0 0.0002956 3116.96973 3453.19727
3358.0 0.0002978 3116.28613 3418.63037
3357.0 0.0002979 3115.60474 3388.89697
3281.0 0.0003048 3114.92505 3363.12622
3300.0 0.0003030 3114.24780 3340.63647
3278.0 0.0003051 3113.57227 3320.88379
3223.0 0.0003103 3112.89917 3303.43188
3245.0 0.0003082 3112.22803 3287.92822
3269.0 0.0003059 3111.55908 3274.08521
3228.0 0.0003098 3110.89258 3261.66528
3245.0 0.0003082 3110.22803 3250.47070
3113.0 0.0003212 3109.56592 3240.34131
3156.0 0.0003169 3108.90625 3231.13721
3192.0 0.0003133 3108.24878 3222.74243
3264.0 0.0003064 3107.59375 3215.06104
3144.0 0.0003181 3106.94092 3208.00586
3142.0 0.0003183 3106.29077 3201.50879
3188.0 0.0003137 3105.64307 3195.50391
3190.0 0.0003135 3104.99780 3189.94067
3156.0 0.0003169 3104.35522 3184.77271
3097.0 0.0003229 3103.71509 3179.95703
3145.0 0.0003180 3103.07764 3175.46240
3125.0 0.0003200 3102.44263 3171.25342
3206.0 0.0003119 3101.81030 3167.30615
3132.0 0.0003193 3101.18066 3163.59302
3143.0 0.0003182 3100.55371 3160.09595
3139.0 0.0003186 3099.92969 3156.79517
3132.0 0.0003193 3099.30811 3153.67310
3241.0 0.0003085 3098.68945 3150.71484
3191.0 0.0003134 3098.07373 3147.90698
3137.0 0.0003188 3097.46045 3145.23633
3132.0 0.0003193 3096.85034 3142.69531
3082.0 0.0003245 3096.24316 3140.26978
3108.0 0.0003218 3095.63867 3137.95483
3127.0 0.0003198 3095.03711 3135.73901
3102.0 0.0003224 3094.43872 3133.61670
3171.0 0.0003154 3093.84326 3131.58154
3104.0 0.0003222 3093.25049 3129.62793
3102.0 0.0003224 3092.66113 3127.74829
3123.0 0.0003202 3092.07471 3125.94043
3036.0 0.0003294 3091.49121 3124.19751
3171.0 0.0003154 3090.91064 3123.17090
3069.0 0.0003258 3090.33350 3121.56641
3106.0 0.0003220 3089.75928 3120.01733
3121.0 0.0003204 3089.18823 3118.51978
3106.0 0.0003220 3088.62036 3117.07251
3111.0 0.0003214 3088.05566 3115.66919
3118.0 0.0003207 3087.49414 3114.31055
3272.0 0.0003056 3086.93579 3112.99365
3163.0 0.0003162 3086.38086 3111.71509
3308.0 0.0003023 3085.82886 3110.47559
3390.0 0.0002950 3085.28027 3109.26978
3496.0 0.0002860 3084.73511 3085.65967
3292.0 0.0003038 3084.19312 3085.15015
3382.0 0.0002957 3083.65454 3084.64502
3245.0 0.0003082 3083.11890 3084.14600
3303.0 0.0003028 3082.58691 3083.65186
3072.0 0.0003255 3082.05835 3083.16382
3065.0 0.0003263 3081.53296 3082.68091
3138.0 0.0003187 3081.01099 3082.20386
3144.0 0.0003181 3080.49243 3081.73218
3095.0 0.0003231 3079.97705 3081.26904
3117.0 0.0003208 3079.46533 3080.81006
3111.0 0.0003214 3078.95703 3080.35962
3111.0 0.0003214 3078.45215 3079.91626
3182.0 0.0003143 3077.95068 3079.47876
3004.0 0.0003329 3077.45264 3079.05054
3017.0 0.0003315 3076.95801 3078.63013
3013.0 0.0003319 3076.46680 3078.21875
3101.0 0.0003225 3075.97900 3077.81616
3125.0 0.0003200 3075.49487 3077.42407
3018.0 0.0003313 3075.01416 3077.04248
3152.0 0.0003173 3074.53711 3076.67212
3059.0 0.0003269 3074.06323 3076.31372
3039.0 0.0003291 3073.59302 3075.96875
3012.0 0.0003320 3073.12622 3075.63672
3081.0 0.0003246 3072.66309 3075.32104
3051.0 0.0003278 3072.20361 3075.02222
3195.0 0.0003130 3071.74731 3074.74121
3035.0 0.0003295 3071.29468 3074.48096
3092.0 0.0003234 3070.84570 3074.24463
3100.0 0.0003226 3070.40015 3074.03198
3083.0 0.0003244 3069.95801 3073.84912
3144.0 0.0003181 3069.51953 3073.69653
3101.0 0.0003225 3069.08447 3073.58032
3064.0 0.0003264 3068.65308 3073.50586
3137.0 0.0003188 3068.22510 3073.47998
3046.0 0.0003283 3067.80078 3073.50781
3119.0 0.0003206 3067.38013 3073.60083
3152.0 0.0003173 3066.96289 3073.76758
3017.0 0.0003315 3066.54907 3074.02588
3145.0 0.0003180 3066.13892 3074.38989
3076.0 0.0003251 3065.73218 3074.88281
3157.0 0.0003168 3065.32886 3075.53149
3050.0 0.0003279 3064.92920 3076.37500
3106.0 0.0003220 3064.53296 3077.46021
3157.0 0.0003168 3064.14038 3078.85059
3024.0 0.0003307 3063.75146 3080.63647
3085.0 0.0003241 3063.36572 3082.95776
3118.0 0.0003207 3062.98364 3086.05786
3119.0 0.0003206 3062.60498 3090.42749
3107.0 0.0003219 3062.22974 3097.12524
3132.0 0.0003193 3061.85815 3108.34546
3129.0 0.0003196 3061.48999 3128.17944
3172.0 0.0003153 3061.12524 3163.07397
3165.0 0.0003160 3060.76392 3221.06909
3320.0 0.0003012 3060.40601 3308.85254
3463.0 0.0002888 3060.05176 3426.71729
3638.0 0.0002749 3059.70068 3562.70972
3817.0 0.0002620 3059.35303 3687.21997
3828.0 0.0002612 3059.00903 3753.96802
3737.0 0.0002676 3058.66821 3727.78784
3597.0 0.0002780 3058.33081 3623.17065
3516.0 0.0002844 3057.99683 3486.88452
3414.0 0.0002929 3057.66626 3357.47852
3278.0 0.0003051 3057.33887 3254.50171
3166.0 0.0003159 3057.01489 3182.60620
3295.0 0.0003035 3056.69434 3137.34814
3312.0 0.0003019 3056.37695 3110.80005
3251.0 0.0003076 3056.06299 3095.56079
3144.0 0.0003181 3055.75220 3086.45923
3154.0 0.0003171 3055.44482 3080.51221
3121.0 0.0003204 3055.14063 3076.22559
3162.0 0.0003163 3054.83960 3072.90112
3109.0 0.0003216 3054.54199 3070.20288
3121.0 0.0003204 3054.24756 3067.95679
3068.0 0.0003259 3053.95605 3066.05444
3063.0 0.0003265 3053.66797 3064.42041
3098.0 0.0003228 3053.38306 3062.99951
2904.0 0.0003444 3053.10107 3061.75098
3100.0 0.0003226 3052.82251 3060.64307
3048.0 0.0003281 3052.54688 3059.65161
2970.0 0.0003367 3052.27417 3058.75586
3067.0 0.0003261 3052.00488 3057.94116
3103.0 0.0003223 3051.73853 3057.19653
3034.0 0.0003296 3051.47510 3056.50732
3074.0 0.0003253 3051.21460 3055.87158
3167.0 0.0003158 3050.95728 3055.27759
3033.0 0.0003297 3050.70313 3054.72192
3094.0 0.0003232 3050.45166 3054.20020
3037.0 0.0003293 3050.20313 3053.70654
2957.0 0.0003382 3049.95752 3053.24023
2977.0 0.0003359 3049.71484 3052.79663
3108.0 0.0003218 3049.47510 3052.37280
3095.0 0.0003231 3049.23804 3051.96875
3121.0 0.0003204 3049.00391 3051.58130
3036.0 0.0003294 3048.77271 3051.20850
2947.0 0.0003393 3048.54419 3050.84985
3051.0 0.0003278 3048.31836 3050.50610
3020.0 0.0003311 3048.09546 3050.17188
3052.0 0.0003277 3047.87500 3049.84961
3135.0 0.0003190 3047.65747 3049.53613
3073.0 0.0003254 3047.44238 3049.23291
3056.0 0.0003272 3047.22998 3048.93750
3104.0 0.0003222 3047.02051 3048.65259
3118.0 0.0003207 3046.81348 3050.65796
2998.0 0.0003336 3046.60889 3050.45435
3058.0 0.0003270 3046.40698 3050.25854
3140.0 0.0003185 3046.20728 3050.07324
3067.0 0.0003261 3046.01050 3049.89697
3072.0 0.0003255 3045.81592 3049.72974
3124.0 0.0003201 3045.62402 3049.57275
3055.0 0.0003273 3045.43433 3049.42310
3036.0 0.0003294 3045.24707 3054.83179
3045.0 0.0003284 3045.06226 3054.86694
3056.0 0.0003272 3044.87988 3054.91748
3070.0 0.0003257 3044.69971 3054.98682
3023.0 0.0003308 3044.52173 3055.07324
3074.0 0.0003253 3044.34595 3055.17993
3061.0 0.0003267 3044.17261 3055.30542
3080.0 0.0003247 3044.00146 3055.45068
2999.0 0.0003334 3043.83252 3055.61890
2959.0 0.0003380 3043.66577 3055.80957
2905.0 0.0003442 3043.50098 3056.02417
3027.0 0.0003304 3043.33838 3056.26367
3020.0 0.0003311 3043.17773 3056.53149
3107.0 0.0003219 3043.01929 3056.82837
2927.0 0.0003416 3042.86279 3057.15527
3030.0 0.0003300 3042.70850 3057.51416
3006.0 0.0003327 3042.55591 3057.90894
3069.0 0.0003258 3042.40527 3057.69727
3010.0 0.0003322 3042.25659 3058.18872
3068.0 0.0003259 3042.10986 3058.72388
2985.0 0.0003350 3041.96484 3059.30518
3067.0 0.0003261 3041.82178 3059.93628
3042.0 0.0003287 3041.68042 3060.62354
3040.0 0.0003289 3041.54077 3061.37085
2975.0 0.0003361 3041.40308 3062.18311
3065.0 0.0003263 3041.26685 3063.06885
3178.0 0.0003147 3041.13232 3064.03223
3049.0 0.0003280 3040.99951 3065.08423
3036.0 0.0003294 3040.86841 3066.23193
3008.0 0.0003324 3040.73877 3067.48755
3133.0 0.0003192 3040.61060 3068.86084
2975.0 0.0003361 3040.48413 3070.36694
3042.0 0.0003287 3040.35913 3072.02124
3076.0 0.0003251 3040.23560 3073.84277
3089.0 0.0003237 3040.11353 3075.85278
2987.0 0.0003348 3039.99292 3078.07422
3027.0 0.0003304 3039.87354 3080.53735
3047.0 0.0003282 3039.75562 3083.27710
3090.0 0.0003236 3039.63892 3086.33398
3138.0 0.0003187 3039.52368 3089.75513
3047.0 0.0003282 3039.40967 3093.60156
2993.0 0.0003341 3039.29688 3098.71655
3005.0 0.0003328 3039.18530 3103.65820
3102.0 0.0003224 3039.07471 3109.28979
3068.0 0.0003259 3038.96558 3115.74365
3005.0 0.0003328 3038.85742 3123.18872
3089.0 0.0003237 3038.75024 3131.83545
3097.0 0.0003229 3038.64429 3141.96167
3161.0 0.0003164 3038.53931 3153.93018
3187.0 0.0003138 3038.43555 3168.25171
3214.0 0.0003111 3038.33252 3185.70190
3236.0 0.0003090 3038.23047 3207.63770
3236.0 0.0003090 3038.12939 3236.71851
3232.0 0.0003094 3038.02905 3278.35254
3315.0 0.0003017 3037.92993 3342.98535
3428.0 0.0002917 3037.83130 3448.45728
3678.0 0.0002719 3037.73364 3620.18213
3905.0 0.0002561 3037.63672 3885.84473
4212.0 0.0002374 3037.54053 4263.02734
4612.0 0.0002168 3037.44507 4742.45850
5151.0 0.0001941 3037.35034 5271.66064
5694.0 0.0001756 3037.25610 5745.10645
5838.0 0.0001713 3037.16260 6043.47461
6050.0 0.0001653 3037.06982 6170.64453
6137.0 0.0001629 3036.97754 6305.73047
6400.0 0.0001562 3036.88574 6643.64453
7222.0 0.0001385 3036.79468 7255.55615
8088.0 0.0001236 3036.70386 8039.53320
8655.0 0.0001155 3036.61377 8701.86035
8997.0 0.0001111 3036.52393 8843.77539
8110.0 0.0001233 3036.43457 8290.20508
7310.0 0.0001368 3036.34546 7277.78467
5987.0 0.0001670 3036.25684 6166.26855
4931.0 0.0002028 3036.16870 5193.70020
4378.0 0.0002284 3036.08057 4459.17920
4036.0 0.0002478 3035.99292 3964.69263
3677.0 0.0002720 3035.90552 3659.87451
3498.0 0.0002859 3035.81812 3481.25244
3362.0 0.0002974 3035.73120 3376.37036
3369.0 0.0002968 3035.64429 3311.08740
3249.0 0.0003078 3035.55762 3266.61792
3306.0 0.0003025 3035.47119 3233.69702
3193.0 0.0003132 3035.38477 3207.92432
3087.0 0.0003239 3035.29834 3187.08960
3098.0 0.0003228 3035.21191 3169.92676
3260.0 0.0003067 3035.12573 3155.61084
3238.0 0.0003088 3035.03931 3143.54956
3120.0 0.0003205 3034.95313 3133.30176
3085.0 0.0003241 3034.86670 3124.53223
3070.0 0.0003257 3034.78027 3116.98096
3098.0 0.0003228 3034.69360 3110.44116
3153.0 0.0003172 3034.60693 3104.75317
3059.0 0.0003269 3034.52026 3099.90601
3055.0 0.0003273 3034.43311 3095.56250
3030.0 0.0003300 3034.34595 3091.75830
3097.0 0.0003229 3034.25854 3088.42114
2997.0 0.0003337 3034.17114 3085.49854
2972.0 0.0003365 3034.08325 3082.94897
3114.0 0.0003211 3033.99512 3080.73486
3159.0 0.0003166 3033.90649 3079.55371
3100.0 0.0003226 3033.81787 3077.95923
3105.0 0.0003221 3033.72876 3076.64136
3151.0 0.0003174 3033.63916 3075.59302
3044.0 0.0003285 3033.54932 3074.81738
3048.0 0.0003281 3033.45898 3074.31714
3044.0 0.0003285 3033.36841 3074.10669
3014.0 0.0003318 3033.27710 3074.21118
3095.0 0.0003231 3033.18555 3074.66431
3091.0 0.0003235 3033.09326 3075.51465
3074.0 0.0003253 3033.00073 3076.83203
3091.0 0.0003235 3032.90747 3078.70825
3065.0 0.0003263 3032.81372 3081.28198
3046.0 0.0003283 3032.71948 3084.75781
3134.0 0.0003191 3032.62451 3089.48657
3122.0 0.0003203 3032.52905 3096.15796
3147.0 0.0003178 3032.43311 3106.22217
3086.0 0.0003240 3032.33618 3122.68994
3087.0 0.0003239 3032.23877 3151.24878
3140.0 0.0003185 3032.14063 3201.14355
3183.0 0.0003142 3032.04199 3284.51929
3347.0 0.0002988 3031.94238 3412.73364
3589.0 0.0002786 3031.84204 3589.34888
3810.0 0.0002625 3031.74121 3801.25049
4065.0 0.0002460 3031.63940 4009.43628
4142.0 0.0002414 3031.53687 4145.05762
4158.0 0.0002405 3031.43359 4140.61328
4004.0 0.0002498 3031.32935 3998.36353
3781.0 0.0002645 3031.22437 3787.59985
3579.0 0.0002794 3031.11841 3575.93945
3391.0 0.0002949 3031.01172 3400.81763
3316.0 0.0003016 3030.90430 3274.24121
3197.0 0.0003128 3030.79590 3189.70117
3147.0 0.0003178 3030.68652 3140.35132
3007.0 0.0003326 3030.57617 3111.74316
3130.0 0.0003195 3030.46484 3094.81616
3041.0 0.0003288 3030.35278 3084.04883
3068.0 0.0003259 3030.23975 3076.53296
3134.0 0.0003191 3030.12573 3070.87500
3178.0 0.0003147 3030.01050 3060.90674
3111.0 0.0003214 3029.89453 3057.43506
3114.0 0.0003211 3029.77734 3054.59229
3084.0 0.0003243 3029.65942 3052.24292
2986.0 0.0003349 3029.54028 3050.28687
3116.0 0.0003209 3029.42017 3048.65015
3098.0 0.0003228 3029.29883 3047.27515
3091.0 0.0003235 3029.17651 3046.12183
2996.0 0.0003338 3029.05322 3045.15454
3028.0 0.0003303 3028.92871 3044.35107
3121.0 0.0003204 3028.80322 3043.68872
2965.0 0.0003373 3028.67651 3043.15381
3082.0 0.0003245 3028.54883 3042.73633
2954.0 0.0003385 3028.41992 3042.42773
3102.0 0.0003224 3028.29004 3042.22534
3158.0 0.0003167 3028.15894 3042.12622
2994.0 0.0003340 3028.02661 3042.13037
3060.0 0.0003268 3027.89307 3042.24121
3195.0 0.0003130 3027.75854 3042.46680
3083.0 0.0003244 3027.62256 3042.81689
3040.0 0.0003289 3027.48584 3043.30322
3035.0 0.0003295 3027.34766 3043.94409
3071.0 0.0003256 3027.20825 3044.76538
3066.0 0.0003262 3027.06763 3045.79810
3033.0 0.0003297 3026.92578 3047.08521
3005.0 0.0003328 3026.78296 3048.68726
3078.0 0.0003249 3026.63867 3050.69751
3006.0 0.0003327 3026.49316 3053.27344
3045.0 0.0003284 3026.34668 3056.71045
3127.0 0.0003198 3026.19873 3061.57080
3112.0 0.0003213 3026.04956 3068.85571
3204.0 0.0003121 3025.89917 3080.13428
3081.0 0.0003246 3025.74756 3097.44336
3183.0 0.0003142 3025.59473 3122.78931
3226.0 0.0003100 3025.44043 3157.34204
3263.0 0.0003065 3025.28516 3200.63208
3320.0 0.0003012 3025.12842 3250.05347
3406.0 0.0002936 3024.97046 3301.55444
3377.0 0.0002961 3024.81128 3355.50879
3455.0 0.0002894 3024.65088 3424.93555
3508.0 0.0002851 3024.48926 3528.61792
3623.0 0.0002760 3024.32617 3673.91260
3835.0 0.0002608 3024.16187 3845.23706
4119.0 0.0002428 3023.99609 3997.05835
4070.0 0.0002457 3023.82935 4060.23096
3954.0 0.0002529 3023.66113 3992.02930
3813.0 0.0002623 3023.49170 3824.72949
3538.0 0.0002826 3023.32104 3625.74829
3454.0 0.0002895 3023.14917 3444.31641
3335.0 0.0002999 3022.97583 3303.04639
3199.0 0.0003126 3022.80127 3205.42285
3043.0 0.0003286 3022.62524 3143.95850
3028.0 0.0003303 3022.44824 3107.48413
3143.0 0.0003182 3022.26978 3086.06665
3073.0 0.0003254 3022.09009 3072.89868
3122.0 0.0003203 3021.90918 3064.07690
3086.0 0.0003240 3021.72681 3057.62671
3127.0 0.0003198 3021.54321 3052.60327
3100.0 0.0003226 3021.35840 3048.53662
3031.0 0.0003299 3021.17236 3045.16919
3055.0 0.0003273 3020.98511 3042.33765
3047.0 0.0003282 3020.79639 3039.92603
3053.0 0.0003275 3020.60669 3037.87744
3024.0 0.0003307 3020.41553 3036.07178
3003.0 0.0003330 3020.22290 3034.48657
3014.0 0.0003318 3020.02930 3033.08301
3000.0 0.0003333 3019.83447 3031.83081
2929.0 0.0003414 3019.63818 3030.97144
3120.0 0.0003205 3019.44092 3029.95825
3032.0 0.0003298 3019.24219 3029.10742
3064.0 0.0003264 3019.04224 3027.49268
3046.0 0.0003283 3018.84131 3026.73340
2970.0 0.0003367 3018.63892 3026.03345
3040.0 0.0003289 3018.43530 3025.38110
3055.0 0.0003273 3018.23047 3024.77124
3005.0 0.0003328 3018.02441 3024.20068
3055.0 0.0003273 3017.81738 3023.66333
3027.0 0.0003304 3017.60889 3023.15454
3038.0 0.0003292 3017.39941 3022.66992
3025.0 0.0003306 3017.18872 3022.21021
3006.0 0.0003327 3016.97656 3021.77148
3027.0 0.0003304 3016.76343 3021.35034
3015.0 0.0003317 3016.54932 3020.94556
3097.0 0.0003229 3016.33374 3020.55469
3025.0 0.0003306 3016.11719 3020.17871
3039.0 0.0003291 3015.89941 3019.81494
3005.0 0.0003328 3015.68042 3019.46191
3073.0 0.0003254 3015.46045 3019.11865
2987.0 0.0003348 3015.23926 3018.78540
3000.0 0.0003333 3015.01709 3018.46021
3047.0 0.0003282 3014.79370 3018.14233
3029.0 0.0003301 3014.56909 3017.83276
3011.0 0.0003321 3014.34375 3017.52930
3006.0 0.0003327 3014.11694 3017.23242
3059.0 0.0003269 3013.88940 3016.94067
3056.0 0.0003272 3013.66040 3016.65625
3040.0 0.0003289 3013.43066 3016.37598
2971.0 0.0003366 3013.19971 3016.10205
2976.0 0.0003360 3012.96777 3015.83203
2974.0 0.0003362 3012.73486 3015.56665
3000.0 0.0003333 3012.50073 3015.30688
2974.0 0.0003362 3012.26587 3015.05298
3014.0 0.0003318 3012.02979 3014.80225
2946.0 0.0003394 3011.79297 3014.55566
3081.0 0.0003246 3011.55493 3014.31494
3024.0 0.0003307 3011.31592 3014.07886
3024.0 0.0003307 3011.07617 3013.84741
3023.0 0.0003308 3010.83521 3013.62207
3037.0 0.0003293 3010.59351 3013.40112
2950.0 0.0003390 3010.35059 3013.18774
3075.0 0.0003252 3010.10693 3012.97974
2962.0 0.0003376 3009.86255 3012.77783
2985.0 0.0003350 3009.61694 3012.58423
3115.0 0.0003210 3009.37061 3012.39771
3041.0 0.0003288 3009.12354 3012.21851
2993.0 0.0003341 3008.87524 3012.12817
2912.0 0.0003434 3008.62646 3011.97241
3025.0 0.0003306 3008.37671 3011.82642
3009.0 0.0003323 3008.12598 3011.69531
2990.0 0.0003344 3007.87451 3011.87280
3074.0 0.0003253 3007.62231 3011.65967
3033.0 0.0003297 3007.36938 3011.58789
2888.0 0.0003463 3007.11548 3011.53638
2942.0 0.0003399 3006.86084 3011.51074
2972.0 0.0003365 3006.60547 3011.51245
3003.0 0.0003330 3006.34937 3011.54517
2975.0 0.0003361 3006.09253 3011.61865
3030.0 0.0003300 3005.83496 3011.00928
3089.0 0.0003237 3005.57666 3011.19653
3096.0 0.0003230 3005.31787 3011.44556
3000.0 0.0003333 3005.05811 3011.76758
2978.0 0.0003358 3004.79785 3012.18213
3126.0 0.0003199 3004.53662 3012.70752
3035.0 0.0003295 3004.27515 3013.37134
2997.0 0.0003337 3004.01270 3014.21411
2965.0 0.0003373 3003.74976 3015.29272
2943.0 0.0003398 3003.48633 3016.70410
2950.0 0.0003390 3003.22217 3018.62378
2972.0 0.0003365 3002.95752 3021.34644
2963.0 0.0003375 3002.69214 3025.35278
2994.0 0.0003340 3002.42627 3031.36670
2924.0 0.0003420 3002.15967 3040.38965
3083.0 0.0003244 3001.89282 3053.77246
3098.0 0.0003228 3001.62524 3073.30859
3066.0 0.0003262 3001.35718 3101.17236
3177.0 0.0003148 3001.08887 3139.44629
3133.0 0.0003192 3000.81982 3189.88037
3325.0 0.0003008 3000.55029 3253.79590
3311.0 0.0003020 3000.28052 3328.59790
3454.0 0.0002895 3000.01001 3401.63818
3414.0 0.0002929 2999.73926 3448.38232
3456.0 0.0002894 2999.46802 3445.91919
3387.0 0.0002952 2999.19629 3394.74731
3294.0 0.0003036 2998.92432 3315.81543
3225.0 0.0003101 2998.65186 3232.62842
3136.0 0.0003189 2998.37915 3160.90967
3090.0 0.0003236 2998.10596 3106.93335
3125.0 0.0003200 2997.83252 3070.27490
3055.0 0.0003273 2997.55859 3047.18970
2976.0 0.0003360 2997.28442 3033.24268
3077.0 0.0003250 2997.01001 3024.78003
2942.0 0.0003399 2996.73535 3019.37256
2934.0 0.0003408 2996.46021 3015.63013
3027.0 0.0003304 2996.18506 3012.83301
3011.0 0.0003321 2995.90942 3010.62329
2996.0 0.0003338 2995.63379 3008.81885
2965.0 0.0003373 2995.35767 3007.31494
2958.0 0.0003381 2995.08154 3006.04565
2984.0 0.0003351 2994.80493 3004.96265
2982.0 0.0003353 2994.52832 3004.03320
2892.0 0.0003458 2994.25171 3003.26172
2986.0 0.0003349 2993.97461 3002.57227
3012.0 0.0003320 2993.69751 3001.97729
2986.0 0.0003349 2993.42017 3001.46655
3005.0 0.0003328 2993.14282 3001.03491
2989.0 0.0003346 2992.86548 3000.67700
3047.0 0.0003282 2992.58789 3000.38867
3004.0 0.0003329 2992.31006 3000.17017
3151.0 0.0003174 2992.03247 3000.02539
3078.0 0.0003249 2991.75464 2999.95630
3068.0 0.0003259 2991.47681 2999.97046
2986.0 0.0003349 2991.19873 3000.07666
2999.0 0.0003334 2990.92090 3000.29077
3011.0 0.0003321 2990.64282 3000.62866
3051.0 0.0003278 2990.36499 3001.11426
3035.0 0.0003295 2990.08691 3001.78662
2992.0 0.0003342 2989.80908 3002.69165
3115.0 0.0003210 2989.53125 3003.91772
3146.0 0.0003179 2989.25342 3005.61768
3031.0 0.0003299 2988.97559 3008.08008
3067.0 0.0003261 2988.69775 3011.83228
3020.0 0.0003311 2988.42017 3017.75635
3060.0 0.0003268 2988.14258 3027.13379
2991.0 0.0003343 2987.86523 3041.55933
3061.0 0.0003267 2987.58789 3062.67700
3076.0 0.0003251 2987.31079 3091.82202
3188.0 0.0003137 2987.03369 3129.43188
3180.0 0.0003145 2986.75684 3174.06909
3178.0 0.0003147 2986.47998 3222.76025
3303.0 0.0003028 2986.20337 3274.68042
3408.0 0.0002934 2985.92700 3330.31396
3478.0 0.0002875 2985.65088 3382.30078
3522.0 0.0002839 2985.37476 3410.30273
3478.0 0.0002875 2985.09912 3393.03979
3509.0 0.0002850 2984.82349 3333.01709
3276.0 0.0003053 2984.54810 3254.11035
3226.0 0.0003100 2984.27319 3178.08154
3206.0 0.0003119 2983.99829 3116.19556
3095.0 0.0003231 2983.72388 3071.53760
3086.0 0.0003240 2983.44946 3042.21948
2962.0 0.0003376 2983.17554 3024.19238
3071.0 0.0003256 2982.90186 3013.35645
3083.0 0.0003244 2982.62866 3006.64233
2943.0 0.0003398 2982.35547 3002.15918
3015.0 0.0003317 2982.08276 2998.89209
3026.0 0.0003305 2981.81055 2996.34155
2985.0 0.0003350 2981.53857 2994.25732
2963.0 0.0003375 2981.26685 2992.50952
3061.0 0.0003267 2980.99561 2991.01660
2953.0 0.0003386 2980.72461 2989.72192
2952.0 0.0003388 2980.45410 2988.58691
2946.0 0.0003394 2980.18408 2987.57886
3021.0 0.0003310 2979.91431 2986.67603
3097.0 0.0003229 2979.64502 2985.86011
2985.0 0.0003350 2979.37598 2985.11694
2865.0 0.0003490 2979.10767 2984.43359
3008.0 0.0003324 2978.83960 2983.80444
3023.0 0.0003308 2978.57202 2983.21826
3001.0 0.0003332 2978.30493 2982.67163
2970.0 0.0003367 2978.03833 2982.13110
3043.0 0.0003286 2977.77222 2981.65015
3004.0 0.0003329 2977.50659 2981.19678
2993.0 0.0003341 2977.24146 2980.76855
2950.0 0.0003390 2976.97656 2980.09521
2998.0 0.0003336 2976.71240 2979.71924
2940.0 0.0003401 2976.44873 2979.29468
2925.0 0.0003419 2976.18579 2978.96289
2950.0 0.0003390 2975.92310 2978.65479
2997.0 0.0003337 2975.66113 2978.37085
3100.0 0.0003226 2975.39941 2978.11328
3064.0 0.0003264 2975.13843 2977.88623
2956.0 0.0003383 2974.87817 2977.69800
2952.0 0.0003388 2974.61816 2977.55762
2858.0 0.0003499 2974.35889 2977.49121
2995.0 0.0003339 2974.10010 2977.54541
3095.0 0.0003231 2973.84204 2977.81836
3013.0 0.0003319 2973.58472 2978.49170
3124.0 0.0003201 2973.32764 2979.85229
2961.0 0.0003377 2973.07129 2982.28125
2986.0 0.0003349 2972.81567 2986.13257
3065.0 0.0003263 2972.56055 2991.53223
2970.0 0.0003367 2972.30615 2998.10400
2992.0 0.0003342 2972.05225 3004.65771
3031.0 0.0003299 2971.79907 3009.00146
2904.0 0.0003444 2971.54663 3008.85840
3002.0 0.0003331 2971.29468 3004.14233
2911.0 0.0003435 2971.04321 2997.06763
2922.0 0.0003422 2970.79272 2989.87622
2967.0 0.0003370 2970.54272 2983.81152
3047.0 0.0003282 2970.29346 2979.28882
2901.0 0.0003447 2970.04468 2976.20337
2913.0 0.0003433 2969.79688 2974.20508
2919.0 0.0003426 2969.54956 2972.91382
2936.0 0.0003406 2969.30298 2972.03198
2862.0 0.0003494 2969.05713 2971.37378
2940.0 0.0003401 2968.81201 2971.05103
2945.0 0.0003396 2968.56763 2970.58911
3116.0 0.0003209 2968.32373 2970.17114
2896.0 0.0003453 2968.08057 2969.78735
3030.0 0.0003300 2967.83838 2969.42700
2913.0 0.0003433 2967.59668 2969.11572
2972.0 0.0003365 2967.35571 2968.79175
2923.0 0.0003421 2967.11548 2968.47949
2954.0 0.0003385 2966.87598 2968.17969
3024.0 0.0003307 2966.63721 2967.88892
2881.0 0.0003471 2966.39917 2967.60474
2909.0 0.0003438 2966.16187 2967.32837
2936.0 0.0003406 2965.92529 2967.05713
2893.0 0.0003457 2965.68945 2966.79126
2920.0 0.0003425 2965.45435 2966.53149
2998.0 0.0003336 2965.21997 2966.27271
2936.0 0.0003406 2964.98657 2965.94385
3015.0 0.0003317 2964.75366 2965.69629
2922.0 0.0003422 2964.52148 2965.45288
2961.0 0.0003377 2964.29028 2965.21045
2956.0 0.0003383 2964.05957 2964.97412
2917.0 0.0003428 2963.82983 2964.44434
3022.0 0.0003309 2963.60083 2964.21826
3018.0 0.0003313 2963.37256 2963.99438
3020.0 0.0003311 2963.14502 2963.77466
2959.0 0.0003380 2962.91821 2963.55444
2993.0 0.0003341 2962.69214 2963.33813
3007.0 0.0003326 2962.46704 2963.12354
3043.0 0.0003286 2962.24243 2962.91113
2914.0 0.0003432 2962.01880 2962.70117
2877.0 0.0003476 2961.79590 2962.49316
2959.0 0.0003380 2961.57373 2962.28882
3049.0 0.0003280 2961.35229 2962.08569
2925.0 0.0003419 2961.13184 2961.88623
2991.0 0.0003343 2960.91187 2961.68848
2860.0 0.0003497 2960.69287 2961.49268
2930.0 0.0003413 2960.47461 2961.30029
2905.0 0.0003442 2960.25708 2961.11157
3047.0 0.0003282 2960.04053 2960.92432
3001.0 0.0003332 2959.82446 2960.74243
2973.0 0.0003364 2959.60938 2960.56201
2879.0 0.0003473 2959.39502 2960.38647
2961.0 0.0003377 2959.18140 2960.21484
2821.0 0.000354 2958.96851 2960.04614
2878.0 0.0003475 2958.75635 2959.88232
2902.0 0.0003446 2958.54517 2959.72534
2945.0 0.0003396 2958.33472 2959.57227
2880.0 0.0003472 2958.12500 2959.42480
2964.0 0.0003374 2957.91602 2959.28247
2966.0 0.0003372 2957.70776 2959.14795
3084.0 0.0003243 2957.50049 2959.02197
2986.0 0.0003349 2957.29370 2958.90259
2954.0 0.0003385 2957.08789 2958.79468
2919.0 0.0003426 2956.88281 2958.69531
2989.0 0.0003346 2956.67847 2958.60815
2994.0 0.0003340 2956.47485 2958.53467
2983.0 0.0003352 2956.27197 2958.47485
2900.0 0.0003448 2956.07007 2958.43457
2929.0 0.0003414 2955.86865 2958.41162
2998.0 0.0003336 2955.66821 2958.41235
2957.0 0.0003382 2955.46826 2958.43921
2975.0 0.0003361 2955.26929 2958.49561
2872.0 0.0003482 2955.07104 2958.58862
2970.0 0.0003367 2954.87354 2958.72485
3050.0 0.0003279 2954.67676 2958.91187
2960.0 0.0003378 2954.48096 2959.15967
2981.0 0.0003355 2954.28564 2959.48242
2946.0 0.0003394 2954.09106 2959.89600
3026.0 0.0003305 2953.89722 2960.42603
2935.0 0.0003407 2953.70435 2961.09668
2957.0 0.0003382 2953.51196 2961.95361
2880.0 0.0003472 2953.32031 2963.05811
2937.0 0.0003405 2953.12964 2964.48340
2980.0 0.0003356 2952.93945 2966.47925
3016.0 0.0003316 2952.75024 2969.41040
2983.0 0.0003352 2952.56152 2974.05029
2952.0 0.0003388 2952.37354 2981.80176
2967.0 0.0003370 2952.18628 2994.85449
3013.0 0.0003319 2951.99976 3016.00122
3104.0 0.0003222 2951.81396 3047.79834
3035.0 0.0003295 2951.62891 3091.06592
3085.0 0.0003241 2951.44458 3142.93481
3294.0 0.0003036 2951.26099 3194.53125
3184.0 0.0003141 2951.07788 3229.70776
3269.0 0.0003059 2950.89575 3232.65552
3222.0 0.0003104 2950.71411 3204.33228
3170.0 0.0003155 2950.53320 3160.78027
3101.0 0.0003225 2950.35303 3116.07544
3085.0 0.0003241 2950.17358 3076.25122
3086.0 0.0003240 2949.99463 3042.86084
2966.0 0.0003372 2949.81641 3016.54419
3016.0 0.0003316 2949.63916 2997.13379
2925.0 0.0003419 2949.46216 2983.47778
2919.0 0.0003426 2949.28613 2974.13477
2928.0 0.0003415 2949.11060 2967.83691
2883.0 0.0003469 2948.93579 2963.59253
2900.0 0.0003448 2948.76147 2962.28516
3008.0 0.0003324 2948.58813 2960.21582
2860.0 0.0003497 2948.41504 2958.65381
2956.0 0.0003383 2948.24292 2957.41357
2986.0 0.0003349 2948.07129 2956.39209
2924.0 0.0003420 2947.90015 2955.52783
3053.0 0.0003275 2947.72974 2954.92139
3043.0 0.0003286 2947.56006 2954.27905
3108.0 0.0003218 2947.39111 2953.71680
2983.0 0.0003352 2947.22241 2953.21777
2935.0 0.0003407 2947.05469 2952.77344
2916.0 0.0003429 2946.88745 2952.37378
2831.0 0.000353 2946.72070 2952.01392
2908.0 0.0003439 2946.55469 2951.68774
2905.0 0.0003442 2946.38916 2951.38916
2921.0 0.0003423 2946.22412 2951.11670
2934.0 0.0003408 2946.05981 2950.86694
3009.0 0.0003323 2945.89624 2950.63770
2997.0 0.0003337 2945.73315 2950.42651
2923.0 0.0003421 2945.57056 2950.23315
2865.0 0.0003490 2945.40845 2950.05347
2932.0 0.0003411 2945.24707 2949.88916
2963.0 0.0003375 2945.08618 2949.73901
2919.0 0.0003426 2944.92578 2949.60205
2950.0 0.0003390 2944.76587 2949.47681
2978.0 0.0003358 2944.60669 2949.36328
2874.0 0.0003479 2944.44800 2949.26294
2931.0 0.0003412 2944.28979 2949.17505
2952.0 0.0003388 2944.13232 2949.09814
2935.0 0.0003407 2943.97510 2949.03198
2930.0 0.0003413 2943.81860 2948.97925
2922.0 0.0003422 2943.66235 2948.93848
2983.0 0.0003352 2943.50684 2948.91113
2900.0 0.0003448 2943.35181 2948.89697
2906.0 0.0003441 2943.19727 2948.89624
2941.0 0.0003400 2943.04321 2948.90967
2983.0 0.0003352 2942.88965 2948.93799
2996.0 0.0003338 2942.73657 2948.98340
3033.0 0.0003297 2942.58398 2949.04614
2985.0 0.0003350 2942.43188 2949.12720
2858.0 0.0003499 2942.28027 2949.22754
2922.0 0.0003422 2942.12915 2949.34814
2988.0 0.0003347 2941.97852 2949.49292
3052.0 0.0003277 2941.82813 2949.66357
3014.0 0.0003318 2941.67847 2949.86084
2901.0 0.0003447 2941.52905 2950.08813
2955.0 0.0003384 2941.38013 2950.34717
2987.0 0.0003348 2941.23169 2950.64380
2919.0 0.0003426 2941.08374 2950.97949
2989.0 0.0003346 2940.93604 2951.36157
2829.0 0.000353 2940.78882 2951.79004
2887.0 0.0003464 2940.64233 2952.27539
2963.0 0.0003375 2940.49585 2952.82349
2892.0 0.0003458 2940.34985 2953.43994
2979.0 0.0003357 2940.20435 2954.13672
2933.0 0.0003409 2940.05933 2954.92236
2957.0 0.0003382 2939.91479 2955.81128
3020.0 0.0003311 2939.77026 2956.81665
2918.0 0.0003427 2939.62646 2957.95801
2906.0 0.0003441 2939.48291 2959.25708
3028.0 0.0003303 2939.33984 2960.73730
2995.0 0.0003339 2939.19702 2962.43384
2951.0 0.0003389 2939.05469 2964.38281
2943.0 0.0003398 2938.91260 2966.63184
2970.0 0.0003367 2938.77075 2969.24097
2951.0 0.0003389 2938.62939 2972.28613
3000.0 0.0003333 2938.48853 2975.86133
2979.0 0.0003357 2938.34790 2980.08813
2948.0 0.0003392 2938.20752 2985.12671
2855.0 0.0003503 2938.06763 2991.18945
2982.0 0.0003353 2937.92798 2998.57031
3037.0 0.0003293 2937.78857 3007.48779
3086.0 0.0003240 2937.64966 3019.09766
3030.0 0.0003300 2937.51099 3034.52124
2905.0 0.0003442 2937.37280 3056.43970
3057.0 0.0003271 2937.23462 3090.11597
3180.0 0.0003145 2937.09692 3145.19727
3235.0 0.0003091 2936.95947 3236.74390
3365.0 0.0002972 2936.82251 3384.20679
3585.0 0.0002789 2936.68555 3605.88159
3814.0 0.0002622 2936.54907 3908.58740
4399.0 0.0002273 2936.41284 4274.01758
4662.0 0.0002145 2936.27686 4642.15234
4975.0 0.0002010 2936.14111 4899.57129
4784.0 0.0002090 2936.00562 4925.90723
4603.0 0.0002172 2935.87036 4714.99854
4329.0 0.0002310 2935.73560 4383.30664
3893.0 0.0002569 2935.60083 4047.63940
3682.0 0.0002716 2935.46655 3767.70581
3522.0 0.0002839 2935.33252 3555.25903
3373.0 0.0002965 2935.19849 3397.14893
3303.0 0.0003028 2935.06494 3278.67480
3190.0 0.0003135 2934.93140 3190.83716
3072.0 0.0003255 2934.79834 3126.74097
3129.0 0.0003196 2934.66528 3080.59180
2975.0 0.0003361 2934.53247 3047.85669
3032.0 0.0003298 2934.40015 3024.89819
2984.0 0.0003351 2934.26782 3008.73364
3018.0 0.0003313 2934.13574 2997.06421
3000.0 0.0003333 2934.00391 2988.28833
2963.0 0.0003375 2933.87207 2981.39746
3077.0 0.0003250 2933.74072 2975.79102
3059.0 0.0003269 2933.60938 2971.11377
3024.0 0.0003307 2933.47852 2967.14966
2932.0 0.0003411 2933.34766 2963.74902
3043.0 0.0003286 2933.21680 2960.80200
3043.0 0.0003286 2933.08643 2958.23193
3166.0 0.0003159 2932.95605 2955.97119
3102.0 0.0003224 2932.82593 2953.97021
2949.0 0.0003391 2932.69604 2952.18872
2981.0 0.0003355 2932.56616 2950.59448
2882.0 0.0003470 2932.43652 2949.15942
3020.0 0.0003311 2932.30713 2947.86011
2841.0 0.000352 2932.17773 2946.68091
3004.0 0.0003329 2932.04858 2945.60449
2921.0 0.0003423 2931.91968 2944.61816
2918.0 0.0003427 2931.79077 2943.70947
2980.0 0.0003356 2931.66211 2942.87231
2995.0 0.0003339 2931.53369 2942.09619
2953.0 0.0003386 2931.40527 2941.37476
2956.0 0.0003383 2931.27686 2940.70093
3015.0 0.0003317 2931.14893 2940.07202
2929.0 0.0003414 2931.02075 2939.48096
2954.0 0.0003385 2930.89282 2938.92676
3038.0 0.0003292 2930.76514 2938.40308
3015.0 0.0003317 2930.63745 2937.90820
2993.0 0.0003341 2930.51001 2937.43945
2970.0 0.0003367 2930.38257 2936.99512
2868.0 0.0003487 2930.25537 2936.56958
2970.0 0.0003367 2930.12817 2936.16626
2963.0 0.0003375 2930.00098 2935.78027
2960.0 0.0003378 2929.87402 2935.41016
3009.0 0.0003323 2929.74731 2935.05518
2929.0 0.0003414 2929.62036 2934.71484
2907.0 0.0003440 2929.49390 2934.38647
2921.0 0.0003423 2929.36719 2934.06958
2941.0 0.0003400 2929.24072 2933.76392
2960.0 0.0003378 2929.11426 2933.46899
2857.0 0.0003500 2928.98804 2933.18335
2953.0 0.0003386 2928.86182 2932.96265
2909.0 0.0003438 2928.73560 2932.69604
2966.0 0.0003372 2928.60938 2932.43579
2859.0 0.0003498 2928.48340 2932.18213
3006.0 0.0003327 2928.35767 2931.96997
2989.0 0.0003346 2928.23169 2931.73145
2971.0 0.0003366 2928.10596 2931.49707
2923.0 0.0003421 2927.98022 2931.26880
2978.0 0.0003358 2927.85449 2931.04614
2922.0 0.0003422 2927.72900 2930.82788
2883.0 0.0003469 2927.60327 2930.61328
2893.0 0.0003457 2927.47778 2930.40479
2935.0 0.0003407 2927.35229 2930.19922
2966.0 0.0003372 2927.22705 2929.99731
2851.0 0.000351 2927.10156 2929.79980
2938.0 0.0003404 2926.97632 2929.60522
3014.0 0.0003318 2926.85107 2929.41406
2995.0 0.0003339 2926.72583 2929.22510
3007.0 0.0003326 2926.60083 2929.04028
2887.0 0.0003464 2926.47559 2928.85864
2926.0 0.0003418 2926.35059 2928.67920
2931.0 0.0003412 2926.22534 2928.50171
2954.0 0.0003385 2926.10034 2928.32666
2995.0 0.0003339 2925.97534 2928.15381
2887.0 0.0003464 2925.85034 2927.98389
2887.0 0.0003464 2925.72559 2927.81543
2886.0 0.0003465 2925.60059 2927.65137
3034.0 0.0003296 2925.47559 2927.48706
2962.0 0.0003376 2925.35083 2925.70166
2890.0 0.0003460 2925.22607 2925.57959
2856.0 0.0003501 2925.10107 2925.45898
2851.0 0.000351 2924.97632 2925.33911
2921.0 0.0003423 2924.85156 2925.21753
2835.0 0.000353 2924.72656 2924.96313
2936.0 0.0003406 2924.60181 2924.84814
2900.0 0.0003448 2924.47705 2924.73291
2848.0 0.000351 2924.35229 2924.61841
2990.0 0.0003344 2924.22754 2924.50537
3008.0 0.0003324 2924.10278 2924.39307
2974.0 0.0003362 2923.97803 2924.28101
3111.0 0.0003214 2923.85327 2924.16943
3027.0 0.0003304 2923.72852 2924.05957
3010.0 0.0003322 2923.60376 2923.95044
3043.0 0.0003286 2923.47900 2923.84180
2937.0 0.0003405 2923.35425 2923.73560
2964.0 0.0003374 2923.22949 2923.63086
2886.0 0.0003465 2923.10474 2923.52661
3038.0 0.0003292 2922.97998 2923.42480
2928.0 0.0003415 2922.85522 2923.32373
2928.0 0.0003415 2922.73022 2924.82544
2875.0 0.0003478 2922.60547 2924.76880
2917.0 0.0003428 2922.48071 2924.71509
2903.0 0.0003445 2922.35571 2924.66797
3003.0 0.0003330 2922.23096 2924.62402
2916.0 0.0003429 2922.10596 2924.58521
2972.0 0.0003365 2921.98120 2924.55396
2939.0 0.0003403 2921.85620 2924.52783
2917.0 0.0003428 2921.73120 2924.51001
2975.0 0.0003361 2921.60620 2924.50073
2908.0 0.0003439 2921.48120 2924.50098
2961.0 0.0003377 2921.35620 2924.51245
2945.0 0.0003396 2921.23120 2924.53540
2922.0 0.0003422 2921.10620 2924.57324
2908.0 0.0003439 2920.98096 2924.62842
2969.0 0.0003368 2920.85571 2924.70288
2970.0 0.0003367 2920.73071 2924.80054
2995.0 0.0003339 2920.60547 2924.92554
2892.0 0.0003458 2920.48022 2925.08423
3041.0 0.0003288 2920.35474 2925.28638
2920.0 0.0003425 2920.22949 2925.53589
2873.0 0.0003481 2920.10425 2925.85205
2925.0 0.0003419 2919.97876 2926.25415
2957.0 0.0003382 2919.85327 2926.77563
2839.0 0.000352 2919.72778 2927.47974
2912.0 0.0003434 2919.60229 2928.48901
2891.0 0.0003459 2919.47681 2930.03516
2930.0 0.0003413 2919.35107 2932.51050
2883.0 0.0003469 2919.22559 2936.49658
2972.0 0.0003365 2919.09985 2942.69385
2878.0 0.0003475 2918.97412 2951.72217
3029.0 0.0003301 2918.84814 2963.76904
2988.0 0.0003347 2918.72241 2978.13525
2911.0 0.0003435 2918.59644 2992.59668
3012.0 0.0003320 2918.47046 3003.25073
3084.0 0.0003243 2918.34448 3006.98975
3031.0 0.0003299 2918.21851 3004.78662
2965.0 0.0003373 2918.09229 2999.50732
2944.0 0.0003397 2917.96606 2992.03052
3057.0 0.0003271 2917.83984 2981.84888
3054.0 0.0003274 2917.71362 2969.90674
2981.0 0.0003355 2917.58740 2958.40015
2916.0 0.0003429 2917.46094 2948.82983
2971.0 0.0003366 2917.33447 2941.64551
2921.0 0.0003423 2917.20776 2936.67993
2856.0 0.0003501 2917.08130 2933.48706
2940.0 0.0003401 2916.95459 2931.56055
2946.0 0.0003394 2916.82788 2930.45728
2952.0 0.0003388 2916.70117 2929.86377
2902.0 0.0003446 2916.57422 2929.58838
2944.0 0.0003397 2916.44727 2929.52515
2990.0 0.0003344 2916.32031 2929.62036
2913.0 0.0003433 2916.19312 2929.84961
2866.0 0.0003489 2916.06592 2930.20166
2911.0 0.0003435 2915.93872 2930.67383
2959.0 0.0003380 2915.81152 2931.26782
2876.0 0.0003477 2915.68408 2931.98926
2875.0 0.0003478 2915.55664 2932.85059
2942.0 0.0003399 2915.42920 2933.86255
3036.0 0.0003294 2915.30151 2935.04565
2989.0 0.0003346 2915.17383 2936.42432
3015.0 0.0003317 2915.04614 2938.02759
2984.0 0.0003351 2914.91821 2939.89453
2914.0 0.0003432 2914.79028 2942.07275
3003.0 0.0003330 2914.66235 2944.62354
2914.0 0.0003432 2914.53418 2947.62207
2926.0 0.0003418 2914.40601 2951.16724
2976.0 0.0003360 2914.27783 2955.38794
2921.0 0.0003423 2914.14941 2960.45020
2901.0 0.0003447 2914.02100 2966.58521
2980.0 0.0003356 2913.89233 2974.11206
3025.0 0.0003306 2913.76367 2983.53149
2995.0 0.0003339 2913.63501 2995.70435
3035.0 0.0003295 2913.50610 3012.28003
3047.0 0.0003282 2913.37720 3036.51050
3113.0 0.0003212 2913.24829 3074.52856
3206.0 0.0003119 2913.11914 3136.72729
3243.0 0.0003084 2912.98999 3238.13940
3402.0 0.0002939 2912.86060 3396.04297
3564.0 0.0002806 2912.73120 3623.55640
4002.0 0.0002499 2912.60181 3919.50757
4269.0 0.0002342 2912.47217 4255.31641
4550.0 0.0002198 2912.34229 4558.68896
4717.0 0.0002120 2912.21265 4713.64600
4519.0 0.0002213 2912.08252 4641.58301
4354.0 0.0002297 2911.95264 4376.08252
3945.0 0.0002535 2911.82251 4040.57886
3625.0 0.0002759 2911.69214 3725.30688
3472.0 0.0002880 2911.56177 3472.33521
3358.0 0.0002978 2911.43140 3293.31152
3131.0 0.0003194 2911.30078 3173.88745
3095.0 0.0003231 2911.16992 3099.74707
2985.0 0.0003350 2911.03906 3054.60400
3056.0 0.0003272 2910.90820 3026.37085
2871.0 0.0003483 2910.77710 3007.55347
2971.0 0.0003366 2910.64575 2994.05176
2903.0 0.0003445 2910.51465 2983.77075
2917.0 0.0003428 2910.38306 2975.63794
2934.0 0.0003408 2910.25146 2969.05786
2920.0 0.0003425 2910.11987 2963.65698
3003.0 0.0003330 2909.98804 2959.18213
2952.0 0.0003388 2909.85596 2955.44629
2876.0 0.0003477 2909.72388 2952.30859
2965.0 0.0003373 2909.59155 2949.66284
2926.0 0.0003418 2909.45923 2947.42578
2974.0 0.0003362 2909.32690 2945.52783
2894.0 0.0003455 2909.19409 2943.92114
2905.0 0.0003442 2909.06128 2942.56323
2929.0 0.0003414 2908.92847 2941.41919
2885.0 0.0003466 2908.79541 2940.46484
2882.0 0.0003470 2908.66235 2939.67603
2973.0 0.0003364 2908.52881 2939.03589
2971.0 0.0003366 2908.39526 2938.53101
2989.0 0.0003346 2908.26172 2938.15015
2966.0 0.0003372 2908.12793 2937.88232
2835.0 0.000353 2907.99390 2937.72095
2858.0 0.0003499 2907.85986 2937.66309
2966.0 0.0003372 2907.72559 2937.64209
2957.0 0.0003382 2907.59131 2937.77637
2932.0 0.0003411 2907.45679 2938.00293
2959.0 0.0003380 2907.32202 2938.32031
2938.0 0.0003404 2907.18726 2938.69702
2835.0 0.000353 2907.05225 2939.20313
2929.0 0.0003414 2906.91699 2939.80615
2895.0 0.0003454 2906.78149 2940.50732
2956.0 0.0003383 2906.64600 2941.31372
2901.0 0.0003447 2906.51025 2942.22803
2912.0 0.0003434 2906.37451 2943.26318
2893.0 0.0003457 2906.23853 2944.41992
2876.0 0.0003477 2906.10229 2945.71021
2890.0 0.0003460 2905.96582 2947.14624
2903.0 0.0003445 2905.82935 2948.74756
2888.0 0.0003463 2905.69263 2950.51343
2987.0 0.0003348 2905.55566 2952.46704
3001.0 0.0003332 2905.41846 2954.63013
3013.0 0.0003319 2905.28125 2957.02612
2934.0 0.0003408 2905.14380 2959.68091
2929.0 0.0003414 2905.00610 2962.62549
2944.0 0.0003397 2904.86841 2965.89575
3019.0 0.0003312 2904.73022 2969.53735
3000.0 0.0003333 2904.59204 2973.59888
2931.0 0.0003412 2904.45361 2978.13940
2927.0 0.0003416 2904.31519 2983.23267
3019.0 0.0003312 2904.17627 2988.96240
3070.0 0.0003257 2904.03735 2995.43237
2986.0 0.0003349 2903.89819 3002.76855
2995.0 0.0003339 2903.75879 3011.12329
3022.0 0.0003309 2903.61914 3020.68506
3046.0 0.0003283 2903.47949 3031.69092
3004.0 0.0003329 2903.33936 3044.43237
3006.0 0.0003327 2903.19922 3059.28613
3094.0 0.0003232 2903.05884 3076.73047
3101.0 0.0003225 2902.91821 3097.39087
3103.0 0.0003223 2902.77734 3122.10645
3225.0 0.0003101 2902.63647 3152.04248
3245.0 0.0003082 2902.49512 3188.95850
3267.0 0.0003061 2902.35376 3235.80957
3283.0 0.0003046 2902.21191 3298.06958
3335.0 0.0002999 2902.07007 3386.28906
3439.0 0.0002908 2901.92798 3520.11914
3749.0 0.0002667 2901.78564 3732.75806
3966.0 0.0002521 2901.64307 4072.52954
4553.0 0.0002196 2901.50024 4596.42822
5261.0 0.0001901 2901.35742 5351.72461
6411.0 0.0001560 2901.21411 6346.42676
7647.0 0.0001308 2901.07056 7510.09180
8622.0 0.0001160 2900.92700 8640.10840
9474.0 0.0001056 2900.78296 9396.20313
9305.0 0.0001075 2900.63892 9508.54883
8925.0 0.0001120 2900.49438 9098.20117
8416.0 0.0001188 2900.34985 8518.04102
7947.0 0.0001258 2900.20508 7983.98486
7372.0 0.0001356 2900.06006 7482.22949
6888.0 0.0001452 2899.91455 6882.54395
6051.0 0.0001653 2899.76904 6154.88135
5273.0 0.0001896 2899.62329 5409.68945
4695.0 0.0002130 2899.47729 4754.84521
4104.0 0.0002437 2899.33081 4236.86963
3762.0 0.0002658 2899.18433 3858.33032
3628.0 0.0002756 2899.03760 3598.60596
3437.0 0.0002910 2898.89063 3427.64136
3236.0 0.0003090 2898.74316 3316.15332
3205.0 0.0003120 2898.59570 3241.42969
3228.0 0.0003098 2898.44800 3188.54419
3117.0 0.0003208 2898.29980 3148.79761
3055.0 0.0003273 2898.15161 3117.44531
3043.0 0.0003286 2898.00317 3091.90674
2988.0 0.0003347 2897.85425 3070.67676
3105.0 0.0003221 2897.70532 3052.78516
3110.0 0.0003215 2897.55591 3037.55347
2957.0 0.0003382 2897.40649 3024.47339
2997.0 0.0003337 2897.25659 3013.15601
2947.0 0.0003393 2897.10645 3003.29712
2968.0 0.0003369 2896.95605 2994.65796
2967.0 0.0003370 2896.80542 2987.04395
3005.0 0.0003328 2896.65479 2980.29932
2858.0 0.0003499 2896.50366 2974.29883
2940.0 0.0003401 2896.35229 2968.93970
2929.0 0.0003414 2896.20044 2964.13428
2968.0 0.0003369 2896.04858 2959.81421
3003.0 0.0003330 2895.89648 2955.92163
3007.0 0.0003326 2895.74414 2952.40942
2945.0 0.0003396 2895.59131 2949.24170
3020.0 0.0003311 2895.43848 2946.39697
3055.0 0.0003273 2895.28516 2943.86548
2835.0 0.000353 2895.13159 2941.65186
2887.0 0.0003464 2894.97778 2939.77930
2967.0 0.0003370 2894.82397 2938.28247
2966.0 0.0003372 2894.66968 2937.20117
2903.0 0.0003445 2894.51514 2936.55371
2946.0 0.0003394 2894.36011 2936.29736
2907.0 0.0003440 2894.20508 2936.32300
2972.0 0.0003365 2894.04980 2936.51343
2824.0 0.000354 2893.89404 2936.64331
2899.0 0.0003449 2893.73828 2936.22534
2984.0 0.0003351 2893.58203 2934.75415
2913.0 0.0003433 2893.42554 2932.30737
3004.0 0.0003329 2893.26880 2929.48511
3011.0 0.0003321 2893.11182 2926.81958
3099.0 0.0003227 2892.95459 2924.57349
2930.0 0.0003413 2892.79712 2922.81421
2965.0 0.0003373 2892.63940 2921.50146
2982.0 0.0003353 2892.48145 2920.54639
2955.0 0.0003384 2892.32324 2919.85791
2872.0 0.0003482 2892.16455 2919.36621
2900.0 0.0003448 2892.00586 2919.02881
2932.0 0.0003411 2891.84668 2918.82373
2941.0 0.0003400 2891.68726 2918.74316
2871.0 0.0003483 2891.52783 2918.79028
2986.0 0.0003349 2891.36792 2918.97021
2938.0 0.0003404 2891.20776 2919.29810
3046.0 0.0003283 2891.04736 2919.78955
2991.0 0.0003343 2890.88672 2920.46265
3071.0 0.0003256 2890.72583 2921.34863
3035.0 0.0003295 2890.56470 2922.48193
3051.0 0.0003278 2890.40332 2923.90674
2984.0 0.0003351 2890.24170 2925.68188
2924.0 0.0003420 2890.07983 2927.88184
2975.0 0.0003361 2889.91772 2930.60645
2988.0 0.0003347 2889.75537 2933.98999
3008.0 0.0003324 2889.59277 2938.21753
2948.0 0.0003392 2889.42969 2943.57910
3084.0 0.0003243 2889.26660 2950.55591
2995.0 0.0003339 2889.10327 2960.04614
3046.0 0.0003283 2888.93970 2973.78564
3118.0 0.0003207 2888.77588 2994.98877
3029.0 0.0003301 2888.61182 3029.06323
3145.0 0.0003180 2888.44751 3083.84326
3138.0 0.0003187 2888.28296 3168.53564
3308.0 0.0003023 2888.11816 3290.56348
3512.0 0.0002847 2887.95313 3445.40576
3576.0 0.0002796 2887.78784 3631.62012
3882.0 0.0002576 2887.62256 3809.04150
4012.0 0.0002493 2887.45679 3918.21826
3864.0 0.0002588 2887.29102 3910.76929
3737.0 0.0002676 2887.12500 3803.59717
3608.0 0.0002772 2886.95850 3655.15308
3333.0 0.0003000 2886.79199 3515.50659
3397.0 0.0002944 2886.62524 3395.58521
3365.0 0.0002972 2886.45850 3290.71851
3277.0 0.0003052 2886.29126 3197.92627
3048.0 0.0003281 2886.12402 3120.20898
3024.0 0.0003307 2885.95654 3059.39551
3000.0 0.0003333 2885.78882 3014.18237
2952.0 0.0003388 2885.62085 2981.87476
2972.0 0.0003365 2885.45288 2959.47290
3025.0 0.0003306 2885.28467 2944.13818
3023.0 0.0003308 2885.11621 2933.51318
2978.0 0.0003358 2884.94751 2925.87915
2953.0 0.0003386 2884.77881 2920.11816
2900.0 0.0003448 2884.60986 2915.57056
2973.0 0.0003364 2884.44092 2911.85254
2918.0 0.0003427 2884.27173 2908.73999
2854.0 0.0003504 2884.10229 2906.09619
2882.0 0.0003470 2883.93262 2903.81958
2993.0 0.0003341 2883.76294 2901.84302
2889.0 0.0003461 2883.59326 2900.11353
2916.0 0.0003429 2883.42334 2898.58545
2896.0 0.0003453 2883.25317 2897.22754
2817.0 0.000355 2883.08301 2896.01392
2940.0 0.0003401 2882.91260 2894.92163
2943.0 0.0003398 2882.74219 2893.93262
2858.0 0.0003499 2882.57153 2893.03369
2805.0 0.000357 2882.40088 2892.21143
2815.0 0.000355 2882.23022 2891.45752
2839.0 0.000352 2882.05933 2890.76318
2969.0 0.0003368 2881.88843 2890.12085
2900.0 0.0003448 2881.71729 2889.52344
2980.0 0.0003356 2881.54614 2888.96753
2894.0 0.0003455 2881.37500 2888.44922
2898.0 0.0003451 2881.20361 2887.96265
2898.0 0.0003451 2881.03247 2887.50659
2899.0 0.0003449 2880.86108 2887.07788
2853.0 0.0003505 2880.68970 2886.67334
2891.0 0.0003459 2880.51807 2886.29053
2850.0 0.000351 2880.34668 2885.92969
2882.0 0.0003470 2880.17505 2885.59033
2845.0 0.000351 2880.00342 2885.26782
2961.0 0.0003377 2879.83203 2884.95532
2959.0 0.0003380 2879.66040 2884.66821
2871.0 0.0003483 2879.48877 2884.39722
2835.0 0.000353 2879.31714 2884.14185
2872.0 0.0003482 2879.14551 2883.90112
2858.0 0.0003499 2878.97388 2883.67847
2883.0 0.0003469 2878.80249 2883.47021
2898.0 0.0003451 2878.63086 2883.27783
2874.0 0.0003479 2878.45947 2883.10181
2816.0 0.000355 2878.28784 2882.94531
2876.0 0.0003477 2878.11646 2882.80518
2818.0 0.000355 2877.94507 2882.68530
2974.0 0.0003362 2877.77393 2882.58862
2711.0 0.000369 2877.60254 2882.51440
2884.0 0.0003467 2877.43140 2882.46851
2934.0 0.0003408 2877.26050 2882.45288
2735.0 0.000366 2877.08960 2882.47095
2886.0 0.0003465 2876.91870 2882.53198
2973.0 0.0003364 2876.74805 2882.81128
2910.0 0.0003436 2876.57739 2882.98169
2930.0 0.0003413 2876.40698 2883.22144
2884.0 0.0003467 2876.23657 2883.55005
2859.0 0.0003498 2876.06641 2883.99170
2840.0 0.000352 2875.89648 2884.59399
2934.0 0.0003408 2875.72656 2885.43066
2803.0 0.000357 2875.55688 2886.63306
2842.0 0.000352 2875.38721 2888.41089
2919.0 0.0003426 2875.21802 2891.05566
2911.0 0.0003435 2875.04883 2895.46045
2867.0 0.0003488 2874.87988 2900.87329
2943.0 0.0003398 2874.71118 2908.04321
2835.0 0.000353 2874.54272 2916.94189
2844.0 0.000352 2874.37451 2927.13379
2972.0 0.0003365 2874.20654 2937.87231
2994.0 0.0003340 2874.03882 2949.36353
2909.0 0.0003438 2873.87134 2963.90259
2987.0 0.0003348 2873.70435 2984.17432
3136.0 0.0003189 2873.53735 3010.66455
2911.0 0.0003435 2873.37085 3039.02051
3120.0 0.0003205 2873.20435 3063.04004
3190.0 0.0003135 2873.03857 3073.14087
3080.0 0.0003247 2872.87280 3068.71069
3129.0 0.0003196 2872.70752 3055.40405
3052.0 0.0003277 2872.54248 3036.03052
2945.0 0.0003396 2872.37793 3010.41431
3017.0 0.0003315 2872.21387 2981.72290
2915.0 0.0003431 2872.04980 2954.62427
2950.0 0.0003390 2871.88647 2932.21460
2875.0 0.0003478 2871.72339 2915.26685
2920.0 0.0003425 2871.56079 2903.24927
2899.0 0.0003449 2871.39868 2895.10913
2849.0 0.000351 2871.23682 2889.71777
2950.0 0.0003390 2871.07544 2886.11768
2924.0 0.0003420 2870.91455 2883.61865
2851.0 0.000351 2870.75415 2881.78442
2834.0 0.000353 2870.59424 2880.36084
2895.0 0.0003454 2870.43481 2879.20898
2790.0 0.000358 2870.27588 2878.25024
2883.0 0.0003469 2870.11743 2877.43555
2897.0 0.0003452 2869.95972 2876.73584
2959.0 0.0003380 2869.80225 2876.12720
2990.0 0.0003344 2869.64551 2875.59399
2757.0 0.000363 2869.48926 2875.12231
2898.0 0.0003451 2869.33374 2874.70361
2856.0 0.0003501 2869.17871 2874.32886
2786.0 0.000359 2869.02417 2873.99390
2925.0 0.0003419 2868.87036 2873.69043
2935.0 0.0003407 2868.71729 2873.41626
2864.0 0.0003492 2868.56470 2873.16943
2942.0 0.0003399 2868.41260 2872.94434
2865.0 0.0003490 2868.26147 2872.74121
2902.0 0.0003446 2868.11084 2872.55981
2921.0 0.0003423 2867.96094 2872.39551
2829.0 0.000353 2867.81201 2872.24854
2795.0 0.000358 2867.66333 2872.11914
2786.0 0.000359 2867.51587 2872.00708
2879.0 0.0003473 2867.36865 2871.91064
2886.0 0.0003465 2867.22241 2871.83008
2871.0 0.0003483 2867.07715 2871.76660
2809.0 0.000356 2866.93237 2871.71948
2845.0 0.000351 2866.78857 2871.69019
2907.0 0.0003440 2866.64551 2871.67896
2855.0 0.0003503 2866.50342 2871.68604
2861.0 0.0003495 2866.36206 2871.71387
2928.0 0.0003415 2866.22144 2871.76367
2910.0 0.0003436 2866.08179 2871.83643
2890.0 0.0003460 2865.94287 2871.93433
2842.0 0.000352 2865.80518 2872.06055
2919.0 0.0003426 2865.66821 2872.21802
2906.0 0.0003441 2865.53198 2872.40894
2797.0 0.000358 2865.39697 2872.63843
2950.0 0.0003390 2865.26270 2872.90991
2771.0 0.000361 2865.12964 2873.23120
2883.0 0.0003469 2864.99731 2873.60718
2869.0 0.0003486 2864.86621 2874.04688
2866.0 0.0003489 2864.73584 2874.55957
2841.0 0.000352 2864.60669 2875.15674
2910.0 0.0003436 2864.47852 2875.85400
2875.0 0.0003478 2864.35156 2876.67212
2840.0 0.000352 2864.22534 2877.64502
2829.0 0.000353 2864.10034 2878.77417
2863.0 0.0003493 2863.97656 2880.11377
2923.0 0.0003421 2863.85376 2881.71289
2965.0 0.0003373 2863.73218 2883.64404
2966.0 0.0003372 2863.61157 2886.01929
2924.0 0.0003420 2863.49219 2889.02954
2825.0 0.000354 2863.37427 2893.02417
2908.0 0.0003439 2863.25708 2898.63892
2912.0 0.0003434 2863.14136 2907.01855
2899.0 0.0003449 2863.02686 2919.70337
2918.0 0.0003427 2862.91333 2939.01587
2964.0 0.0003374 2862.80127 2966.64136
3071.0 0.0003256 2862.69043 3003.75659
2985.0 0.0003350 2862.58081 3049.00171
3081.0 0.0003246 2862.47266 3096.73389
3113.0 0.0003212 2862.36572 3135.20581
3197.0 0.0003128 2862.26001 3150.64429
3132.0 0.0003193 2862.15576 3141.68237
3116.0 0.0003209 2862.05273 3123.96729
3128.0 0.0003197 2861.95117 3117.10303
3043.0 0.0003286 2861.85083 3135.84644
3106.0 0.0003220 2861.75195 3189.11816
3275.0 0.0003053 2861.65454 3279.01855
3393.0 0.0002947 2861.55859 3397.75244
3556.0 0.0002812 2861.46411 3522.92847
3695.0 0.0002706 2861.37109 3611.77271
3563.0 0.0002807 2861.27930 3617.46216
3565.0 0.0002805 2861.18921 3534.04956
3358.0 0.0002978 2861.10059 3402.48438
3282.0 0.0003047 2861.01343 3266.62500
3165.0 0.0003160 2860.92798 3150.57373
3108.0 0.0003218 2860.84375 3062.44385
3008.0 0.0003324 2860.76147 3001.13208
2941.0 0.0003400 2860.68042 2961.09106
2947.0 0.0003393 2860.60107 2935.76416
2882.0 0.0003470 2860.52344 2919.62183
2917.0 0.0003428 2860.44751 2908.85742
2935.0 0.0003407 2860.37305 2901.19946
2901.0 0.0003447 2860.30029 2895.40601
2894.0 0.0003455 2860.22900 2890.84180
2884.0 0.0003467 2860.15967 2887.11890
2926.0 0.0003418 2860.09204 2884.03394
2869.0 0.0003486 2860.02588 2881.44580
2902.0 0.0003446 2859.96167 2879.25391
2890.0 0.0003460 2859.89917 2877.37915
2886.0 0.0003465 2859.83838 2875.76416
2864.0 0.0003492 2859.77930 2874.36328
2896.0 0.0003453 2859.72217 2873.13867
2886.0 0.0003465 2859.66675 2872.06812
2926.0 0.0003418 2859.61328 2871.11963
2846.0 0.000351 2859.56152 2870.27881
2927.0 0.0003416 2859.51172 2869.53052
2863.0 0.0003493 2859.46362 2868.86401
2836.0 0.000353 2859.41748 2868.26538
2785.0 0.000359 2859.37329 2867.72778
2844.0 0.000352 2859.33081 2867.24536
2955.0 0.0003384 2859.29053 2866.81177
2867.0 0.0003488 2859.25195 2866.41748
2835.0 0.000353 2859.21558 2866.06421
2973.0 0.0003364 2859.18091 2865.74561
2842.0 0.000352 2859.14844 2865.45923
2893.0 0.0003457 2859.11792 2865.20190
2820.0 0.000355 2859.08936 2864.97070
2838.0 0.000352 2859.06274 2864.76538
2857.0 0.0003500 2859.03833 2864.58301
2910.0 0.0003436 2859.01587 2864.42212
2885.0 0.0003466 2858.99561 2864.28418
2880.0 0.0003472 2858.97729 2864.16553
2826.0 0.000354 2858.96118 2864.06787
2847.0 0.000351 2858.94727 2863.98804
2916.0 0.0003429 2858.93530 2863.92920
2886.0 0.0003465 2858.92554 2863.88892
2868.0 0.0003487 2858.91772 2863.86768
2875.0 0.0003478 2858.91235 2863.86792
2763.0 0.000362 2858.90918 2863.88867
2816.0 0.000355 2858.90796 2863.93042
2877.0 0.0003476 2858.90918 2863.99658
2883.0 0.0003469 2858.91260 2864.08765
2866.0 0.0003489 2858.91797 2864.20532
2901.0 0.0003447 2858.92603 2864.35474
2837.0 0.000352 2858.93604 2864.53784
2874.0 0.0003479 2858.94849 2864.75708
2843.0 0.000352 2858.96313 2865.02173
2927.0 0.0003416 2858.97998 2865.33740
2840.0 0.000352 2858.99927 2865.74316
2880.0 0.0003472 2859.02100 2866.19507
2888.0 0.0003463 2859.04492 2866.74219
2894.0 0.0003455 2859.07104 2867.41992
2931.0 0.0003412 2859.09985 2868.28955
2952.0 0.0003388 2859.13086 2869.44751
2881.0 0.0003471 2859.16431 2871.04126
2852.0 0.0003506 2859.20020 2873.25269
2846.0 0.000351 2859.23853 2876.26880
2915.0 0.0003431 2859.27905 2880.20898
2978.0 0.0003358 2859.32227 2885.02100
2848.0 0.000351 2859.36768 2890.33887
2867.0 0.0003488 2859.41577 2895.35327
2902.0 0.0003446 2859.46631 2899.15649
2906.0 0.0003441 2859.51929 2901.96558
2844.0 0.000352 2859.57471 2905.71509
2919.0 0.0003426 2859.63281 2913.15991
3013.0 0.0003319 2859.69312 2927.20508
3003.0 0.0003330 2859.75635 2950.62036
3047.0 0.0003282 2859.82178 2985.38892
2989.0 0.0003346 2859.88989 3031.43945
3092.0 0.0003234 2859.96069 3084.69556
3166.0 0.0003159 2860.03394 3134.73901
3109.0 0.0003216 2860.10962 3164.94141
3093.0 0.0003233 2860.18823 3160.96655
3149.0 0.0003176 2860.26929 3124.22241
3105.0 0.0003221 2860.35278 3071.08179
3102.0 0.0003224 2860.43921 3017.76343
2940.0 0.0003401 2860.52808 2972.91724
2898.0 0.0003451 2860.61963 2939.18677
2925.0 0.0003419 2860.71362 2915.67603
2909.0 0.0003438 2860.81055 2900.47144
2868.0 0.0003487 2860.91016 2890.86694
2891.0 0.0003459 2861.01221 2884.76343
2870.0 0.0003484 2861.11719 2880.73071
2889.0 0.0003461 2861.22461 2877.90723
2882.0 0.0003470 2861.33496 2875.82275
2777.0 0.000360 2861.44800 2874.22754
2871.0 0.0003483 2861.56372 2872.98315
2794.0 0.000358 2861.68213 2872.00952
2922.0 0.0003422 2861.80322 2870.71729
2829.0 0.000353 2861.92725 2870.16113
2878.0 0.0003475 2862.05371 2869.77637
2879.0 0.0003473 2862.18311 2869.56836
2904.0 0.0003444 2862.31543 2869.57080
2825.0 0.000354 2862.45044 2869.85620
2875.0 0.0003478 2862.58813 2870.54492
2857.0 0.0003500 2862.72852 2871.79834
2920.0 0.0003425 2862.87183 2873.76709
2893.0 0.0003457 2863.01807 2876.52393
2852.0 0.0003506 2863.16699 2879.94629
2940.0 0.0003401 2863.31860 2883.55151
2905.0 0.0003442 2863.47314 2886.33105
2915.0 0.0003431 2863.63062 2887.04321
2910.0 0.0003436 2863.79077 2885.37573
2877.0 0.0003476 2863.95386 2882.35767
2928.0 0.0003415 2864.11963 2879.22974
2824.0 0.000354 2864.28833 2876.71240
2867.0 0.0003488 2864.45996 2875.02808
2878.0 0.0003475 2864.63428 2874.10059
2821.0 0.000354 2864.81152 2873.72046
2928.0 0.0003415 2864.99170 2873.63599
2892.0 0.0003458 2865.17480 2873.51538
2779.0 0.000360 2865.36060 2873.06396
2886.0 0.0003465 2865.54932 2872.27710
2824.0 0.000354 2865.74097 2871.38086
2846.0 0.000351 2865.93530 2870.58130
2834.0 0.000353 2866.13281 2869.96729
2832.0 0.000353 2866.33301 2869.55591
2804.0 0.000357 2866.53613 2869.32178
2789.0 0.000359 2866.74219 2869.22705
2842.0 0.000352 2866.95117 2869.22827
2829.0 0.000353 2867.16284 2869.29443
2876.0 0.0003477 2867.37769 2871.64355
2787.0 0.000359 2867.59521 2871.83203
2851.0 0.000351 2867.81592 2872.04468
2951.0 0.0003389 2868.03931 2872.28027
2848.0 0.000351 2868.26563 2872.53711
2792.0 0.000358 2868.49487 2872.81372
2876.0 0.0003477 2868.72705 2873.11011
2918.0 0.0003427 2868.96191 2873.42944
2861.0 0.0003495 2869.19995 2873.77100
2963.0 0.0003375 2869.44067 2877.87012
2781.0 0.000360 2869.68457 2878.34546
2905.0 0.0003442 2869.93115 2878.85669
2808.0 0.000356 2870.18066 2879.41455
2804.0 0.000357 2870.43311 2880.02808
2965.0 0.0003373 2870.68848 2880.72095
2876.0 0.0003477 2870.94678 2881.52661
2851.0 0.000351 2871.20801 2882.51685
2942.0 0.0003399 2871.47192 2883.81445
2906.0 0.0003441 2871.73901 2885.62207
2959.0 0.0003380 2872.00879 2888.22852
2878.0 0.0003475 2872.28174 2891.96533
2865.0 0.0003490 2872.55737 2897.10425
2816.0 0.000355 2872.83594 2903.67822
2914.0 0.0003432 2873.11719 2911.23486
2833.0 0.000353 2873.40137 2918.46631
2952.0 0.0003388 2873.68872 2923.02905
2863.0 0.0003493 2873.97876 2922.82568
2888.0 0.0003463 2874.27173 2918.27319
2895.0 0.0003454 2874.56738 2911.78662
2833.0 0.000353 2874.86621 2905.45996
2859.0 0.0003498 2875.16772 2900.31567
2938.0 0.0003404 2875.47192 2896.63745
2864.0 0.0003492 2875.77930 2894.30469
2858.0 0.0003499 2876.08911 2893.01489
2854.0 0.0003504 2876.40210 2892.44043
2926.0 0.0003418 2876.71777 2892.31934
2881.0 0.0003471 2877.03638 2892.47119
2863.0 0.0003493 2877.35767 2892.79370
2844.0 0.000352 2877.68188 2893.21436
2882.0 0.0003470 2878.00903 2893.73145
2901.0 0.0003447 2878.33887 2894.31494
2914.0 0.0003432 2878.67139 2894.95654
2908.0 0.0003439 2879.00659 2895.64966
2848.0 0.000351 2879.34497 2896.39038
2987.0 0.0003348 2879.68579 2897.18359
2914.0 0.0003432 2880.02954 2898.01465
2754.0 0.000363 2880.37598 2898.88916
2929.0 0.0003414 2880.72510 2899.80981
2983.0 0.0003352 2881.07715 2900.72290
2866.0 0.0003489 2881.43188 2901.56104
2949.0 0.0003391 2881.78931 2902.62842
2918.0 0.0003427 2882.14941 2903.74536
2899.0 0.0003449 2882.51221 2904.91772
2955.0 0.0003384 2882.87769 2906.14746
2833.0 0.000353 2883.24585 2907.44019
3004.0 0.0003329 2883.61694 2908.79761
2997.0 0.0003337 2883.99048 2910.22681
2952.0 0.0003388 2884.36670 2911.73242
3014.0 0.0003318 2884.74536 2913.32056
2989.0 0.0003346 2885.12695 2915.00122
2901.0 0.0003447 2885.51099 2916.78003
2876.0 0.0003477 2885.89771 2918.66626
2955.0 0.0003384 2886.28711 2920.67114
2883.0 0.0003469 2886.67896 2922.80688
2902.0 0.0003446 2887.07349 2925.08667
2925.0 0.0003419 2887.47046 2927.52563
2892.0 0.0003458 2887.87012 2930.14282
2962.0 0.0003376 2888.27222 2932.95728
2909.0 0.0003438 2888.67700 2935.99341
2985.0 0.0003350 2889.08398 2939.27759
2924.0 0.0003420 2889.49390 2942.84351
2892.0 0.0003458 2889.90601 2946.72656
2864.0 0.0003492 2890.32056 2950.97144
2938.0 0.0003404 2890.73779 2955.62939
2948.0 0.0003392 2891.15723 2960.76270
3061.0 0.0003267 2891.57910 2966.44629
3091.0 0.0003235 2892.00366 2972.76709
2941.0 0.0003400 2892.43042 2980.01196
3065.0 0.0003263 2892.85962 2987.94971
3051.0 0.0003278 2893.29126 2996.94800
3056.0 0.0003272 2893.72510 3007.19604
3101.0 0.0003225 2894.16138 3018.95483
2999.0 0.0003334 2894.59985 3032.55640
2983.0 0.0003352 2895.04077 3048.43726
3046.0 0.0003283 2895.48389 3067.18457
3131.0 0.0003194 2895.92944 3089.64624
3123.0 0.0003202 2896.37720 3117.14136
3122.0 0.0003203 2896.82715 3151.92676
3206.0 0.0003119 2897.27930 3198.10156
3359.0 0.0002977 2897.73364 3263.00708
3378.0 0.0002960 2898.19043 3358.96924
3524.0 0.0002838 2898.64893 3504.35645
3644.0 0.0002744 2899.10986 3722.26025
4077.0 0.0002453 2899.57300 4035.07324
4461.0 0.0002242 2900.03809 4454.38916
4996.0 0.0002002 2900.50537 4966.15332
5537.0 0.0001806 2900.97485 5508.30322
5976.0 0.0001673 2901.44629 5946.74756
6034.0 0.0001657 2901.91968 6115.57471
5989.0 0.0001670 2902.39502 5978.77930
5802.0 0.0001724 2902.87256 5696.96973
5480.0 0.0001825 2903.35205 5476.12305
5421.0 0.0001845 2903.83350 5455.54785
5654.0 0.0001769 2904.31689 5700.35596
6261.0 0.0001597 2904.80225 6206.94043
6967.0 0.0001435 2905.28955 6889.50781
7511.0 0.0001331 2905.77856 7546.86426
7591.0 0.0001317 2906.26953 7867.89258
7447.0 0.0001343 2906.76245 7628.45361
6712.0 0.0001490 2907.25708 6930.25635
5847.0 0.0001710 2907.75342 6064.05078
5190.0 0.0001927 2908.25171 5250.55225
4559.0 0.0002193 2908.75171 4589.03418
4182.0 0.0002391 2909.25342 4100.53906
3886.0 0.0002573 2909.75684 3764.80371
3568.0 0.0002803 2910.26196 3544.65527
3359.0 0.0002977 2910.76880 3402.44775
3404.0 0.0002938 2911.27710 3308.62256
3343.0 0.0002991 2911.78735 3243.57080
3159.0 0.0003166 2912.29907 3195.73608
3118.0 0.0003207 2912.81226 3158.75513
3109.0 0.0003216 2913.32715 3129.15137
3077.0 0.0003250 2913.84351 3104.92212
3127.0 0.0003198 2914.36133 3084.76709
3087.0 0.0003239 2914.88062 3067.87549
3109.0 0.0003216 2915.40137 3053.57471
3062.0 0.0003266 2915.92383 3041.37964
3058.0 0.0003270 2916.44751 3030.91455
3107.0 0.0003219 2916.97241 3021.88599
3056.0 0.0003272 2917.49902 3014.06128
3040.0 0.0003289 2918.02686 3007.25781
2999.0 0.0003334 2918.55591 3001.32813
3031.0 0.0003299 2919.08618 2996.16016
2922.0 0.0003422 2919.61792 2991.67261
3043.0 0.0003286 2920.15063 2987.81836
3018.0 0.0003313 2920.68481 2984.58447
2988.0 0.0003347 2921.22021 2981.99731
2920.0 0.0003425 2921.75684 2980.10815
3026.0 0.0003305 2922.29443 2978.96484
3056.0 0.0003272 2922.83325 2978.56421
3053.0 0.0003275 2923.37305 2978.78931
2960.0 0.0003378 2923.91382 2979.28076
2976.0 0.0003360 2924.45581 2979.39087
2953.0 0.0003386 2924.99878 2978.50220
3056.0 0.0003272 2925.54272 2976.62915
3044.0 0.0003285 2926.08765 2974.21240
2888.0 0.0003463 2926.63354 2971.53687
3036.0 0.0003294 2927.18042 2968.75439
2972.0 0.0003365 2927.72803 2966.12793
2977.0 0.0003359 2928.27637 2963.89136
3152.0 0.0003173 2928.82593 2962.13477
2891.0 0.0003459 2929.37598 2960.83130
2930.0 0.0003413 2929.92700 2959.91138
2931.0 0.0003412 2930.47852 2959.29907
2987.0 0.0003348 2931.03101 2958.92651
3042.0 0.0003287 2931.58398 2958.75171
2943.0 0.0003398 2932.13794 2958.74341
2929.0 0.0003414 2932.69214 2958.88794
2987.0 0.0003348 2933.24707 2959.18799
2919.0 0.0003426 2933.80273 2961.25195
2997.0 0.0003337 2934.35889 2961.93286
2978.0 0.0003358 2934.91553 2962.83130
2940.0 0.0003401 2935.47290 2963.99487
2968.0 0.0003369 2936.03052 2965.50488
2956.0 0.0003383 2936.58862 2967.50415
3017.0 0.0003315 2937.14697 2970.25635
2937.0 0.0003405 2937.70581 2974.24438
2932.0 0.0003411 2938.26514 2980.29688
3014.0 0.0003318 2938.82471 2989.67896
2996.0 0.0003338 2939.38477 3004.04346
3074.0 0.0003253 2939.94482 3025.08643
3080.0 0.0003247 2940.50537 3053.86597
3038.0 0.0003292 2941.06592 3089.75073
3144.0 0.0003181 2941.62671 3128.82568
3113.0 0.0003212 2942.18774 3161.76514
3107.0 0.0003219 2942.74878 3174.96387
3168.0 0.0003157 2943.31006 3161.22241
3179.0 0.0003146 2943.87134 3128.30737
3097.0 0.0003229 2944.43286 3089.79150
3066.0 0.0003262 2944.99414 3054.73120
3070.0 0.0003257 2945.55566 3026.85132
3039.0 0.0003291 2946.11694 3006.68140
3077.0 0.0003250 2946.67822 2993.11279
2916.0 0.0003429 2947.23926 2984.43481
2892.0 0.0003458 2947.80029 2979.01050
2881.0 0.0003471 2948.36133 2975.58643
2972.0 0.0003365 2948.92212 2973.35303
2978.0 0.0003358 2949.48242 2971.83521
2910.0 0.0003436 2950.04272 2970.77466
2968.0 0.0003369 2950.60278 2970.02881
2983.0 0.0003352 2951.16260 2969.51489
2919.0 0.0003426 2951.72192 2969.20459
2946.0 0.0003394 2952.28076 2969.01318
2882.0 0.0003470 2952.83960 2968.93701
2952.0 0.0003388 2953.39771 2968.95654
2962.0 0.0003376 2953.95557 2969.05640
2960.0 0.0003378 2954.51294 2967.00781
2979.0 0.0003357 2955.06958 2967.27808
2979.0 0.0003357 2955.62598 2967.59961
2911.0 0.0003435 2956.18164 2967.96338
2941.0 0.0003400 2956.73682 2968.36768
2924.0 0.0003420 2957.29126 2968.80664
2961.0 0.0003377 2957.84521 2969.27783
3072.0 0.0003255 2958.39844 2969.78076
2959.0 0.0003380 2958.95093 2970.31079
2991.0 0.0003343 2959.50269 2967.10962
3011.0 0.0003321 2960.05371 2967.76855
2923.0 0.0003421 2960.60400 2968.44995
3014.0 0.0003318 2961.15332 2969.15527
2943.0 0.0003398 2961.70190 2969.88354
2969.0 0.0003368 2962.24976 2970.63599
2916.0 0.0003429 2962.79663 2971.41333
2986.0 0.0003349 2963.34253 2972.21631
2903.0 0.0003445 2963.88745 2973.04419
2970.0 0.0003367 2964.43140 2973.90259
2906.0 0.0003441 2964.97437 2974.78882
2955.0 0.0003384 2965.51611 2975.70752
2997.0 0.0003337 2966.05688 2976.66211
2958.0 0.0003381 2966.59668 2977.65332
2915.0 0.0003431 2967.13550 2978.68628
2971.0 0.0003366 2967.67285 2979.76343
2857.0 0.0003500 2968.20923 2980.89160
2986.0 0.0003349 2968.74438 2982.07251
3008.0 0.0003324 2969.27808 2983.31738
2974.0 0.0003362 2969.81055 2984.62744
3004.0 0.0003329 2970.34180 2986.01440
3008.0 0.0003324 2970.87183 2987.48877
3037.0 0.0003293 2971.40063 2989.05933
2904.0 0.0003444 2971.92773 2990.73926
2994.0 0.0003340 2972.45361 2992.54712
3051.0 0.0003278 2972.97827 2994.49805
2958.0 0.0003381 2973.50122 2996.61450
2920.0 0.0003425 2974.02271 2998.92407
3043.0 0.0003286 2974.54272 3001.45728
3041.0 0.0003288 2975.06128 3004.31030
2975.0 0.0003361 2975.57813 3007.41699
3021.0 0.0003310 2976.09351 3010.88989
3040.0 0.0003289 2976.60718 3014.80151
3056.0 0.0003272 2977.11938 3019.51563
3097.0 0.0003229 2977.62988 3024.60400
2963.0 0.0003375 2978.13867 3030.47290
3024.0 0.0003307 2978.64575 3037.32739
3038.0 0.0003292 2979.15088 3045.40967
3052.0 0.0003277 2979.65454 3055.06836
3129.0 0.0003196 2980.15625 3066.79810
3090.0 0.0003236 2980.65625 3081.41064
3094.0 0.0003232 2981.15454 3100.28418
3186.0 0.0003139 2981.65063 3125.94141
3156.0 0.0003169 2982.14526 3162.90332
3178.0 0.0003147 2982.63745 3218.76001
3299.0 0.0003031 2983.12817 3304.85034
3457.0 0.0002893 2983.61670 3435.54614
3637.0 0.0002750 2984.10352 3625.08301
3942.0 0.0002537 2984.58789 3881.47290
4291.0 0.0002330 2985.07031 4197.21387
4651.0 0.0002150 2985.55103 4534.66602
4780.0 0.0002092 2986.02954 4807.82471
4996.0 0.0002002 2986.50586 4898.65674
4853.0 0.0002061 2986.97998 4756.31885
4500.0 0.0002222 2987.45215 4458.37207
4172.0 0.0002397 2987.92212 4121.31836
3748.0 0.0002668 2988.38989 3818.69165
3507.0 0.0002851 2988.85522 3579.26196
3391.0 0.0002949 2989.31860 3405.77881
3285.0 0.0003044 2989.77954 3288.04907
3184.0 0.0003141 2990.23828 3211.36108
3255.0 0.0003072 2990.69482 3161.88428
3117.0 0.0003208 2991.14893 3129.17700
2969.0 0.0003368 2991.60083 3106.46948
3140.0 0.0003185 2992.05005 3089.80688
3011.0 0.0003321 2992.49707 3077.00952
2994.0 0.0003340 2992.94189 3066.87207
2986.0 0.0003349 2993.38403 3058.68359
3055.0 0.0003273 2993.82397 3051.81616
3013.0 0.0003319 2994.26099 3046.30981
3004.0 0.0003329 2994.69604 3041.75928
2980.0 0.0003356 2995.12817 3037.99121
3085.0 0.0003241 2995.55811 3034.88379
3069.0 0.0003258 2995.98535 3032.35181
3001.0 0.0003332 2996.40991 3030.35376
3144.0 0.0003181 2996.83228 3028.89258
3019.0 0.0003312 2997.25171 3028.04004
3022.0 0.0003309 2997.66870 3027.93530
3081.0 0.0003246 2998.08301 3028.77417
3029.0 0.0003301 2998.49463 3030.75659
3184.0 0.0003141 2998.90356 3033.98413
3000.0 0.0003333 2999.30981 3038.31274
3063.0 0.0003265 2999.71338 3043.10864
2958.0 0.0003381 3000.11426 3046.95532
3007.0 0.0003326 3000.51245 3047.92480
2935.0 0.0003407 3000.90771 3045.19556
2880.0 0.0003472 3001.30054 3040.03784
3100.0 0.0003226 3001.69019 3034.33813
3013.0 0.0003319 3002.07739 3029.28711
3046.0 0.0003283 3002.46143 3025.34375
2987.0 0.0003348 3002.84277 3022.54492
3120.0 0.0003205 3003.22144 3020.70874
2956.0 0.0003383 3003.59692 3019.55957
3061.0 0.0003267 3003.96997 3018.82153
3035.0 0.0003295 3004.33960 3018.30103
3030.0 0.0003300 3004.70679 3017.90942
3138.0 0.0003187 3005.07080 3017.63306
3046.0 0.0003283 3005.43213 3017.46680
2995.0 0.0003339 3005.79028 3017.43750
2957.0 0.0003382 3006.14551 3017.46655
2987.0 0.0003348 3006.49780 3017.57666
3048.0 0.0003281 3006.84717 3017.75952
3042.0 0.0003287 3007.19360 3018.00562
2957.0 0.0003382 3007.53662 3018.31787
3066.0 0.0003262 3007.87720 3018.68091
3008.0 0.0003324 3008.21436 3019.10059
3174.0 0.0003151 3008.54858 3019.58032
3028.0 0.0003303 3008.87988 3020.12622
2928.0 0.0003415 3009.20776 3020.74414
3013.0 0.0003319 3009.53296 3021.44385
3011.0 0.0003321 3009.85498 3022.23730
3053.0 0.0003275 3010.17383 3023.14111
3087.0 0.0003239 3010.48950 3024.17529
3032.0 0.0003298 3010.80225 3025.37061
2966.0 0.0003372 3011.11182 3026.76196
2983.0 0.0003352 3011.41821 3028.40308
3009.0 0.0003323 3011.72168 3030.37646
3043.0 0.0003286 3012.02173 3032.81348
2906.0 0.0003441 3012.31860 3035.92725
3036.0 0.0003294 3012.61255 3040.06909
3075.0 0.0003252 3012.90332 3045.78149
3074.0 0.0003253 3013.19067 3053.84106
2985.0 0.0003350 3013.47510 3065.27222
3128.0 0.0003197 3013.75610 3081.31152
3210.0 0.0003115 3014.03418 3103.27075
3095.0 0.0003231 3014.30884 3132.09521
3249.0 0.0003078 3014.58032 3167.46948
3262.0 0.0003066 3014.84863 3207.38159
3138.0 0.0003187 3015.11377 3250.10571
3291.0 0.0003039 3015.37573 3295.24707
3456.0 0.0002894 3015.63428 3338.33765
3315.0 0.0003017 3015.88989 3365.21094
3258.0 0.0003069 3016.14209 3358.78076
3361.0 0.0002975 3016.39087 3317.97437
3324.0 0.0003008 3016.63672 3259.79980
3246.0 0.0003081 3016.87915 3201.61353
3186.0 0.0003139 3017.11841 3152.31445
3116.0 0.0003209 3017.35449 3114.62915
3155.0 0.0003170 3017.58716 3087.88354
3038.0 0.0003292 3017.81665 3069.89307
3119.0 0.0003206 3018.04297 3058.13989
2977.0 0.0003359 3018.26587 3050.43042
3071.0 0.0003256 3018.48560 3045.21362
3187.0 0.0003138 3018.70215 3041.49976
3017.0 0.0003315 3018.91528 3038.72510
3097.0 0.0003229 3019.12524 3036.56885
3090.0 0.0003236 3019.33203 3034.85205
3069.0 0.0003258 3019.53540 3033.46167
2981.0 0.0003355 3019.73560 3032.32568
3121.0 0.0003204 3019.93237 3031.38940
3128.0 0.0003197 3020.12622 3029.02271
3003.0 0.0003330 3020.31641 3028.41187
3026.0 0.0003305 3020.50366 3027.90674
3016.0 0.0003316 3020.68750 3027.48999
3035.0 0.0003295 3020.86816 3027.14746
3078.0 0.0003249 3021.04565 3026.86499
3036.0 0.0003294 3021.21973 3026.63574
3051.0 0.0003278 3021.39063 3026.44873
2989.0 0.0003346 3021.55835 3026.30054
3064.0 0.0003264 3021.72290 3026.18481
3048.0 0.0003281 3021.88403 3026.09497
3010.0 0.0003322 3022.04199 3026.03027
2969.0 0.0003368 3022.19678 3025.98706
3048.0 0.0003281 3022.34839 3025.96313
3062.0 0.0003266 3022.49683 3025.95459
2953.0 0.0003386 3022.64185 3025.96167
3005.0 0.0003328 3022.78394 3025.98169
3032.0 0.0003298 3022.92261 3026.01392
3043.0 0.0003286 3023.05835 3026.05688
3093.0 0.0003233 3023.19067 3026.11133
3061.0 0.0003267 3023.31982 3026.17578
2974.0 0.0003362 3023.44580 3026.25757
2976.0 0.0003360 3023.56885 3026.34204
3008.0 0.0003324 3023.68848 3026.43701
2894.0 0.0003455 3023.80518 3026.54346
3025.0 0.0003306 3023.91870 3026.66089
3010.0 0.0003322 3024.02881 3026.79199
3022.0 0.0003309 3024.13623 3026.93774
3068.0 0.0003259 3024.24023 3027.10132
3063.0 0.0003265 3024.34131 3027.28662
3137.0 0.0003188 3024.43921 3028.10522
2976.0 0.0003360 3024.53394 3028.35840
3056.0 0.0003272 3024.62573 3028.62817
3052.0 0.0003277 3024.71436 3028.97534
3047.0 0.0003282 3024.80005 3029.39380
3032.0 0.0003298 3024.88281 3029.92188
3014.0 0.0003318 3024.96240 3030.62036
3070.0 0.0003257 3025.03882 3031.59717
3018.0 0.0003313 3025.11230 3033.02734
3034.0 0.0003296 3025.18286 3035.16479
3069.0 0.0003258 3025.25049 3038.31543
3052.0 0.0003277 3025.31519 3042.76514
3098.0 0.0003228 3025.37671 3048.65234
3163.0 0.0003162 3025.43555 3055.76465
2989.0 0.0003346 3025.49121 3063.19727
3039.0 0.0003291 3025.54419 3069.00366
3081.0 0.0003246 3025.59399 3070.80322
3076.0 0.0003251 3025.64111 3068.02295
3076.0 0.0003251 3025.68530 3062.62329
3090.0 0.0003236 3025.72656 3056.90332
3071.0 0.0003256 3025.76514 3052.00000
2976.0 0.0003360 3025.80078 3047.98999
3055.0 0.0003273 3025.83350 3044.51758
2993.0 0.0003341 3025.86353 3041.44434
3051.0 0.0003278 3025.89087 3038.87476
3140.0 0.0003185 3025.91528 3036.84302
3000.0 0.0003333 3025.93701 3035.24756
2998.0 0.0003336 3025.95605 3033.97803
3126.0 0.0003199 3025.97217 3032.98682
3037.0 0.0003293 3025.98584 3032.24756
3095.0 0.0003231 3025.99658 3031.72168
3012.0 0.0003320 3026.00488 3031.36646
3072.0 0.0003255 3026.01025 3031.14258
3056.0 0.0003272 3026.01318 3031.02295
2979.0 0.0003357 3026.01343 3030.98438
3144.0 0.0003181 3026.01099 3031.01367
3088.0 0.0003238 3026.00610 3031.10571
2986.0 0.0003349 3025.99878 3031.25659
3133.0 0.0003192 3025.98853 3031.47266
3103.0 0.0003223 3025.97607 3031.76147
2912.0 0.0003434 3025.96094 3032.14160
3047.0 0.0003282 3025.94336 3032.64233
3042.0 0.0003287 3025.92334 3033.31714
3053.0 0.0003275 3025.90088 3034.26074
3106.0 0.0003220 3025.87598 3035.64160
3055.0 0.0003273 3025.84863 3037.66504
3091.0 0.0003235 3025.81885 3040.82129
3003.0 0.0003330 3025.78687 3045.48877
3019.0 0.0003312 3025.75244 3052.05884
3036.0 0.0003294 3025.71558 3060.68359
3071.0 0.0003256 3025.67651 3070.68506
3039.0 0.0003291 3025.63501 3081.15820
2960.0 0.0003378 3025.59155 3088.84863
3075.0 0.0003252 3025.54565 3090.48682
3135.0 0.0003190 3025.49756 3085.77319
3053.0 0.0003275 3025.44727 3077.76758
3102.0 0.0003224 3025.39478 3069.58521
2983.0 0.0003352 3025.34009 3062.60376
3018.0 0.0003313 3025.28320 3056.77441
3084.0 0.0003243 3025.22437 3051.60229
3060.0 0.0003268 3025.16333 3046.98584
3047.0 0.0003282 3025.10034 3043.13281
2968.0 0.0003369 3025.03516 3040.13818
2992.0 0.0003342 3024.96802 3037.93262
3024.0 0.0003307 3024.89893 3036.39160
3077.0 0.0003250 3024.82788 3035.36060
3079.0 0.0003248 3024.75488 3034.71655
2914.0 0.0003432 3024.67969 3034.35254
2978.0 0.0003358 3024.60278 3034.19238
3088.0 0.0003238 3024.52417 3034.18579
3116.0 0.0003209 3024.44360 3034.37231
2956.0 0.0003383 3024.36108 3034.60059
3040.0 0.0003289 3024.27686 3034.93115
3045.0 0.0003284 3024.19067 3035.41846
3040.0 0.0003289 3024.10278 3035.96899
2991.0 0.0003343 3024.01343 3036.64063
3148.0 0.0003177 3023.92212 3037.45190
3005.0 0.0003328 3023.82910 3038.42188
3133.0 0.0003192 3023.73462 3039.58105
3062.0 0.0003266 3023.63843 3040.97046
3016.0 0.0003316 3023.54053 3042.64575
2918.0 0.0003427 3023.44092 3044.68774
3020.0 0.0003311 3023.34009 3047.20679
3039.0 0.0003291 3023.23755 3050.34961
3092.0 0.0003234 3023.13354 3054.30371
3094.0 0.0003232 3023.02783 3059.28857
3068.0 0.0003259 3022.92090 3065.57446
3069.0 0.0003258 3022.81250 3073.50708
3149.0 0.0003176 3022.70264 3083.59302
3019.0 0.0003312 3022.59155 3096.73364
3172.0 0.0003153 3022.47900 3114.87158
3043.0 0.0003286 3022.36499 3141.68384
3206.0 0.0003119 3022.24976 3182.27661
3174.0 0.0003151 3022.13330 3241.86938
3327.0 0.0003006 3022.01563 3323.96362
3325.0 0.0003008 3021.89673 3427.68726
3464.0 0.0002887 3021.77661 3543.36792
3621.0 0.0002762 3021.65527 3645.93677
3624.0 0.0002759 3021.53296 3695.49390
3632.0 0.0002753 3021.40942 3665.13403
3529.0 0.0002834 3021.28467 3571.59912
3402.0 0.0002939 3021.15894 3455.21875
3389.0 0.0002951 3021.03223 3345.73242
3180.0 0.0003145 3020.90454 3256.14893
3174.0 0.0003151 3020.77588 3189.13623
3176.0 0.0003149 3020.64600 3142.18066
3095.0 0.0003231 3020.51538 3110.67651
3086.0 0.0003240 3020.38403 3089.87134
3027.0 0.0003304 3020.25146 3075.91968
3015.0 0.0003317 3020.11841 3066.24756
3113.0 0.0003212 3019.98413 3059.06836
3036.0 0.0003294 3019.84937 3053.52344
3103.0 0.0003223 3019.71387 3049.08423
3072.0 0.0003255 3019.57739 3045.44409
3022.0 0.0003309 3019.44019 3042.37134
3138.0 0.0003187 3019.30249 3039.80688
2982.0 0.0003353 3019.16406 3037.61841
2992.0 0.0003342 3019.02490 3035.73218
3014.0 0.0003318 3018.88525 3034.09399
2977.0 0.0003359 3018.74512 3032.65308
3046.0 0.0003283 3018.60425 3031.38867
2935.0 0.0003407 3018.46289 3030.26563
3089.0 0.0003237 3018.32104 3029.26343
2925.0 0.0003419 3018.17896 3028.36353
3047.0 0.0003282 3018.03613 3027.54980
3005.0 0.0003328 3017.89307 3026.81396
2955.0 0.0003384 3017.74951 3026.14331
2984.0 0.0003351 3017.60547 3025.53052
3088.0 0.0003238 3017.46143 3024.96753
3048.0 0.0003281 3017.31665 3024.44946
3047.0 0.0003282 3017.17188 3023.97339
2996.0 0.0003338 3017.02686 3023.53125
3009.0 0.0003323 3016.88159 3023.12256
3004.0 0.0003329 3016.73608 3022.74463
3025.0 0.0003306 3016.59033 3022.39404
3007.0 0.0003326 3016.44458 3022.06934
3021.0 0.0003310 3016.29858 3021.76929
2950.0 0.0003390 3016.15234 3021.49146
3020.0 0.0003311 3016.00635 3021.23755
3042.0 0.0003287 3015.86011 3021.00586
3072.0 0.0003255 3015.71387 3020.79565
2961.0 0.0003377 3015.56763 3020.60718
3126.0 0.0003199 3015.42163 3020.44116
3057.0 0.0003271 3015.27539 3020.30225
3066.0 0.0003262 3015.12939 3020.18677
3028.0 0.0003303 3014.98364 3020.10034
3063.0 0.0003265 3014.83789 3020.66479
2957.0 0.0003382 3014.69214 3020.65796
3051.0 0.0003278 3014.54663 3020.69067
3019.0 0.0003312 3014.40161 3020.77075
3049.0 0.0003280 3014.25659 3020.90967
3006.0 0.0003327 3014.11182 3021.06372
3038.0 0.0003292 3013.96753 3021.36157
3049.0 0.0003280 3013.82324 3021.77612
2976.0 0.0003360 3013.67944 3022.34863
3054.0 0.0003274 3013.53613 3023.14380
2989.0 0.0003346 3013.39307 3024.23975
3033.0 0.0003297 3013.25049 3025.77905
3005.0 0.0003328 3013.10840 3027.91968
3027.0 0.0003304 3012.96655 3030.88477
3038.0 0.0003292 3012.82544 3034.95679
2995.0 0.0003339 3012.68457 3040.43701
3106.0 0.0003220 3012.54443 3047.62500
3093.0 0.0003233 3012.40479 3056.96118
3086.0 0.0003240 3012.26587 3069.05884
3084.0 0.0003243 3012.12744 3084.10596
3058.0 0.0003270 3011.98950 3100.82935
3138.0 0.0003187 3011.85229 3115.73242
3144.0 0.0003181 3011.71582 3124.45728
3215.0 0.0003110 3011.58008 3125.50732
3134.0 0.0003191 3011.44507 3120.33350
3085.0 0.0003241 3011.31055 3109.79199
3034.0 0.0003296 3011.17700 3094.70581
3083.0 0.0003244 3011.04419 3077.86255
3072.0 0.0003255 3010.91211 3062.32520
3100.0 0.0003226 3010.78101 3049.65283
3025.0 0.0003306 3010.65063 3040.08276
3050.0 0.0003279 3010.52124 3033.22119
3052.0 0.0003277 3010.39282 3028.45947
3027.0 0.0003304 3010.26514 3025.20068
3002.0 0.0003331 3010.13843 3022.94849
2964.0 0.0003374 3010.01270 3021.34790
2995.0 0.0003339 3009.88794 3020.16748
3128.0 0.0003197 3009.76416 3019.26636
2957.0 0.0003382 3009.64136 3018.56421
2997.0 0.0003337 3009.51978 3018.01221
3000.0 0.0003333 3009.39917 3017.58252
3032.0 0.0003298 3009.27954 3017.24731
3068.0 0.0003259 3009.16089 3017.01392
2984.0 0.0003351 3009.04370 3016.86768
3059.0 0.0003269 3008.92749 3016.80542
2996.0 0.0003338 3008.81250 3016.83008
2961.0 0.0003377 3008.69849 3016.94873
3023.0 0.0003308 3008.58569 3017.17261
3058.0 0.0003270 3008.47437 3017.52344
2995.0 0.0003339 3008.36401 3018.03589
2997.0 0.0003337 3008.25513 3018.15698
3014.0 0.0003318 3008.14722 3019.23511
3009.0 0.0003323 3008.04077 3020.83643
3111.0 0.0003214 3007.93555 3023.26318
3099.0 0.0003227 3007.83179 3026.96704
3039.0 0.0003291 3007.72925 3032.50586
3081.0 0.0003246 3007.62817 3040.43848
3023.0 0.0003308 3007.52832 3051.10791
3097.0 0.0003229 3007.42993 3064.29346
3109.0 0.0003216 3007.33301 3078.62769
3056.0 0.0003272 3007.23730 3090.78418
3025.0 0.0003306 3007.14307 3095.84204
3010.0 0.0003322 3007.05054 3091.07642
3086.0 0.0003240 3006.95923 3079.14111
3090.0 0.0003236 3006.86938 3064.97607
3083.0 0.0003244 3006.78101 3051.95728
3046.0 0.0003283 3006.69434 3041.47705
3019.0 0.0003312 3006.60913 3033.76270
2990.0 0.0003344 3006.52539 3028.47314
3005.0 0.0003328 3006.44312 3025.05103
2926.0 0.0003418 3006.36255 3022.94067
3143.0 0.0003182 3006.28345 3021.70044
3035.0 0.0003295 3006.20581 3021.02612
3059.0 0.0003269 3006.13013 3020.73901
2987.0 0.0003348 3006.05566 3020.73657
3017.0 0.0003315 3005.98315 3020.97290
3017.0 0.0003315 3005.91211 3021.42798
3096.0 0.0003230 3005.84277 3022.09741
3055.0 0.0003273 3005.77515 3022.99146
3037.0 0.0003293 3005.70898 3024.13354
3037.0 0.0003293 3005.64453 3025.55371
3049.0 0.0003280 3005.58203 3027.30811
3026.0 0.0003305 3005.52100 3029.44336
3122.0 0.0003203 3005.46167 3032.05542
3064.0 0.0003264 3005.40430 3035.26611
3072.0 0.0003255 3005.34839 3039.25195
2953.0 0.0003386 3005.29443 3044.30298
3056.0 0.0003272 3005.24194 3050.87427
3061.0 0.0003267 3005.19141 3059.79712
3016.0 0.0003316 3005.14282 3072.49316
3079.0 0.0003248 3005.09570 3091.26929
3083.0 0.0003244 3005.05054 3119.49438
3083.0 0.0003244 3005.00708 3161.42432
3208.0 0.0003117 3004.96533 3221.38672
3297.0 0.0003033 3004.92554 3302.20679
3334.0 0.0002999 3004.88745 3402.62231
3386.0 0.0002953 3004.85132 3512.86108
3609.0 0.0002771 3004.81689 3608.28174
3614.0 0.0002767 3004.78442 3651.10938
3627.0 0.0002757 3004.75366 3618.20898
3467.0 0.0002884 3004.72461 3527.65771
3373.0 0.0002965 3004.69775 3417.46875
3348.0 0.0002987 3004.67261 3314.68091
3252.0 0.0003075 3004.64917 3230.76587
3180.0 0.0003145 3004.62769 3167.84985
3181.0 0.0003144 3004.60815 3123.49683
3096.0 0.0003230 3004.59033 3093.47314
3052.0 0.0003277 3004.57471 3073.44824
3038.0 0.0003292 3004.56055 3059.90356
3102.0 0.0003224 3004.54858 3050.38867
3069.0 0.0003258 3004.53833 3043.37354
3071.0 0.0003256 3004.53003 3037.96704
2991.0 0.0003343 3004.52368 3033.65503
3090.0 0.0003236 3004.51904 3030.13794
3042.0 0.0003287 3004.51636 3027.21753
3050.0 0.0003279 3004.51563 3024.77368
2925.0 0.0003419 3004.51685 3022.70435
2957.0 0.0003382 3004.52002 3021.41211
3052.0 0.0003277 3004.52490 3019.90332
2991.0 0.0003343 3004.53174 3018.59863
3009.0 0.0003323 3004.54053 3017.39624
2960.0 0.0003378 3004.55103 3016.40723
3148.0 0.0003177 3004.56372 3015.54028
3118.0 0.0003207 3004.57813 3014.72607
2977.0 0.0003359 3004.59448 3014.05225
2955.0 0.0003384 3004.61255 3013.48438
3025.0 0.0003306 3004.63281 3012.95361
3039.0 0.0003291 3004.65479 3012.48096
3035.0 0.0003295 3004.67871 3012.05835
3006.0 0.0003327 3004.70435 3011.68213
2966.0 0.0003372 3004.73218 3011.34546
2985.0 0.0003350 3004.76172 3011.04321
3053.0 0.0003275 3004.79297 3010.77466
3116.0 0.0003209 3004.82642 3010.53223
3040.0 0.0003289 3004.86157 3010.31543
3025.0 0.0003306 3004.89868 3010.12280
2938.0 0.0003404 3004.93750 3009.95190
2939.0 0.0003403 3004.97827 3009.79980
2986.0 0.0003349 3005.02100 3009.66602
2999.0 0.0003334 3005.06543 3009.54761
3005.0 0.0003328 3005.11182 3009.44507
3038.0 0.0003292 3005.15991 3009.35547
2955.0 0.0003384 3005.20972 3009.27930
2992.0 0.0003342 3005.26172 3009.21436
3029.0 0.0003301 3005.31543 3009.16187
2900.0 0.0003448 3005.37085 3009.11963
3020.0 0.0003311 3005.42798 3009.08740
3006.0 0.0003327 3005.48706 3009.06470
3092.0 0.0003234 3005.54785 3009.05078
3134.0 0.0003191 3005.61060 3009.04517
3033.0 0.0003297 3005.67505 3009.04834
3048.0 0.0003281 3005.74121 3009.05908
3070.0 0.0003257 3005.80908 3009.07690
3002.0 0.0003331 3005.87891 3009.10229
2996.0 0.0003338 3005.95020 3009.13403
2970.0 0.0003367 3006.02344 3009.17334
3048.0 0.0003281 3006.09839 3009.21851
2945.0 0.0003396 3006.17505 3009.27124
2923.0 0.0003421 3006.25342 3009.32983
3018.0 0.0003313 3006.33325 3009.31665
3022.0 0.0003309 3006.41504 3009.38818
3002.0 0.0003331 3006.49854 3009.46851
3034.0 0.0003296 3006.58350 3009.55371
3012.0 0.0003320 3006.67017 3009.64526
3075.0 0.0003252 3006.75854 3009.74146
3016.0 0.0003316 3006.84863 3009.84570
3046.0 0.0003283 3006.94019 3009.95605
3056.0 0.0003272 3007.03345 3010.07349
3080.0 0.0003247 3007.12817 3010.19751
3073.0 0.0003254 3007.22461 3010.32837
3044.0 0.0003285 3007.32251 3010.46582
2947.0 0.0003393 3007.42212 3010.61206
3004.0 0.0003329 3007.52319 3010.76685
3016.0 0.0003316 3007.62573 3010.92798
2996.0 0.0003338 3007.72998 3011.09961
2955.0 0.0003384 3007.83545 3011.28052
2966.0 0.0003372 3007.94263 3011.47266
3102.0 0.0003224 3008.05127 3011.67700
3016.0 0.0003316 3008.16138 3011.89404
2990.0 0.0003344 3008.27271 3012.12671
3029.0 0.0003301 3008.38574 3012.68848
2958.0 0.0003381 3008.50000 3012.96191
2999.0 0.0003334 3008.61597 3013.25928
3135.0 0.0003190 3008.73315 3013.58691
3008.0 0.0003324 3008.85156 3013.94995
3020.0 0.0003311 3008.97144 3014.36279
2982.0 0.0003353 3009.09277 3014.84839
3017.0 0.0003315 3009.21533 3015.43921
2974.0 0.0003362 3009.33911 3016.19189
2994.0 0.0003340 3009.46411 3017.17188
2960.0 0.0003378 3009.59058 3018.46362
2925.0 0.0003419 3009.71826 3020.13965
3043.0 0.0003286 3009.84717 3022.24023
3045.0 0.0003284 3009.97729 3024.70947
3098.0 0.0003228 3010.10889 3027.30664
3080.0 0.0003247 3010.24121 3029.53955
3002.0 0.0003331 3010.37500 3030.31274
3105.0 0.0003221 3010.51001 3031.25806
3069.0 0.0003258 3010.64600 3031.66187
3102.0 0.0003224 3010.78296 3032.16626
3014.0 0.0003318 3010.92139 3032.59058
3130.0 0.0003195 3011.06055 3032.41992
3075.0 0.0003252 3011.20093 3031.41968
3078.0 0.0003249 3011.34229 3029.95166
3041.0 0.0003288 3011.48486 3028.54810
3106.0 0.0003220 3011.62817 3027.52002
2980.0 0.0003356 3011.77271 3026.96777
3031.0 0.0003299 3011.91797 3026.88770
3082.0 0.0003245 3012.06445 3027.22705
2993.0 0.0003341 3012.21167 3027.92676
3021.0 0.0003310 3012.35986 3028.93823
2983.0 0.0003352 3012.50903 3030.23486
3087.0 0.0003239 3012.65894 3031.81226
3029.0 0.0003301 3012.80957 3033.69287
2996.0 0.0003338 3012.96118 3035.92114
3033.0 0.0003297 3013.11377 3038.56250
3138.0 0.0003187 3013.26685 3041.71094
2983.0 0.0003352 3013.42090 3045.50171
3065.0 0.0003263 3013.57568 3050.12988
3124.0 0.0003201 3013.73096 3055.91089
3013.0 0.0003319 3013.88721 3063.37378
3161.0 0.0003164 3014.04395 3073.42456
3086.0 0.0003240 3014.20142 3087.60181
3064.0 0.0003264 3014.35962 3108.28027
3093.0 0.0003233 3014.51831 3138.84546
3123.0 0.0003202 3014.67749 3183.37988
3308.0 0.0003023 3014.83765 3245.81909
3380.0 0.0002959 3014.99805 3328.36768
3392.0 0.0002948 3015.15894 3428.85718
3492.0 0.0002864 3015.32056 3536.02515
3604.0 0.0002775 3015.48242 3623.54663
3571.0 0.0002800 3015.64478 3655.07642
3619.0 0.0002763 3015.80762 3614.21362
3429.0 0.0002916 3015.97119 3523.94019
3373.0 0.0002965 3016.13477 3420.75049
3382.0 0.0002957 3016.29883 3328.33008
3310.0 0.0003021 3016.46313 3255.93823
3354.0 0.0002982 3016.62793 3204.37036
3198.0 0.0003127 3016.79297 3169.86279
3142.0 0.0003183 3016.95850 3146.25317
3155.0 0.0003170 3017.12402 3127.43726
3177.0 0.0003148 3017.28979 3110.24854
3231.0 0.0003095 3017.45605 3094.60010
2992.0 0.0003342 3017.62207 3081.19604
2994.0 0.0003340 3017.78857 3070.29614
3017.0 0.0003315 3017.95508 3061.75562
3118.0 0.0003207 3018.12183 3055.22974
3040.0 0.0003289 3018.28857 3050.31079
3127.0 0.0003198 3018.45557 3046.60254
3084.0 0.0003243 3018.62256 3043.77100
3089.0 0.0003237 3018.78955 3041.62769
3000.0 0.0003333 3018.95654 3039.87744
3131.0 0.0003194 3019.12329 3038.46729
2927.0 0.0003416 3019.29028 3037.31836
3031.0 0.0003299 3019.45728 3036.38330
3008.0 0.0003324 3019.62402 3035.62183
3008.0 0.0003324 3019.79077 3035.00830
2944.0 0.0003397 3019.95728 3034.52515
3072.0 0.0003255 3020.12354 3034.15161
2993.0 0.0003341 3020.28979 3033.87744
2924.0 0.0003420 3020.45581 3033.69287
3027.0 0.0003304 3020.62158 3033.59082
3067.0 0.0003261 3020.78735 3033.56494
3061.0 0.0003267 3020.95264 3034.04224
2968.0 0.0003369 3021.11743 3034.16577
2960.0 0.0003378 3021.28223 3034.35742
2992.0 0.0003342 3021.44653 3034.62036
3104.0 0.0003222 3021.61060 3034.95313
2989.0 0.0003346 3021.77417 3035.35938
3006.0 0.0003327 3021.93750 3035.84521
3080.0 0.0003247 3022.10010 3036.41699
3088.0 0.0003238 3022.26245 3037.08154
3003.0 0.0003330 3022.42432 3037.85083
3026.0 0.0003305 3022.58569 3038.73975
3004.0 0.0003329 3022.74658 3039.76440
3101.0 0.0003225 3022.90674 3040.94922
3036.0 0.0003294 3023.06665 3042.32080
3046.0 0.0003283 3023.22559 3043.92090
3020.0 0.0003311 3023.38428 3045.79370
3016.0 0.0003316 3023.54199 3048.00317
3125.0 0.0003200 3023.69946 3050.64233
3041.0 0.0003288 3023.85596 3053.83496
2997.0 0.0003337 3024.01172 3057.78320
3135.0 0.0003190 3024.16699 3062.81689
3087.0 0.0003239 3024.32129 3069.49731
3114.0 0.0003211 3024.47485 3078.76636
2951.0 0.0003389 3024.62769 3092.10010
3209.0 0.0003116 3024.77979 3111.58252
3086.0 0.0003240 3024.93091 3139.77100
3156.0 0.0003169 3025.08130 3179.19287
3125.0 0.0003200 3025.23096 3231.41235
3304.0 0.0003027 3025.37939 3295.44458
3450.0 0.0002899 3025.52710 3364.89771
3471.0 0.0002881 3025.67383 3424.02075
3460.0 0.0002890 3025.81958 3449.59937
3452.0 0.0002897 3025.96436 3428.72363
3348.0 0.0002987 3026.10815 3373.65186
3335.0 0.0002999 3026.25098 3307.74731
3308.0 0.0003023 3026.39258 3247.26807
3191.0 0.0003134 3026.53320 3199.08154
3205.0 0.0003120 3026.67285 3164.63013
3110.0 0.0003215 3026.81128 3142.95288
3149.0 0.0003176 3026.94849 3132.44336
3077.0 0.0003250 3027.08472 3131.95142
3175.0 0.0003150 3027.21973 3141.37769
3203.0 0.0003122 3027.35376 3161.69385
3124.0 0.0003201 3027.48633 3194.41699
3085.0 0.0003241 3027.61768 3240.56030
3359.0 0.0002977 3027.74780 3298.98730
3363.0 0.0002974 3027.87671 3363.59033
3438.0 0.0002909 3028.00439 3419.34570
3584.0 0.0002790 3028.13086 3443.56836
3394.0 0.0002946 3028.25586 3422.51050
3313.0 0.0003018 3028.37939 3366.89624
3363.0 0.0002974 3028.50171 3299.40967
3290.0 0.0003040 3028.62256 3236.29028
3180.0 0.0003145 3028.74219 3184.42847
3100.0 0.0003226 3028.86035 3145.09985
3117.0 0.0003208 3028.97705 3116.92554
3084.0 0.0003243 3029.09229 3097.48242
3108.0 0.0003218 3029.20605 3084.26855
3038.0 0.0003292 3029.31836 3075.19531
3024.0 0.0003307 3029.42920 3068.78003
3164.0 0.0003161 3029.53833 3064.06274
3110.0 0.0003215 3029.64624 3060.47461
3093.0 0.0003233 3029.75244 3057.67993
3029.0 0.0003301 3029.85693 3055.49219
3060.0 0.0003268 3029.95996 3053.85034
2942.0 0.0003399 3030.06152 3052.60718
2975.0 0.0003361 3030.16138 3051.80151
3018.0 0.0003313 3030.25952 3051.46167
3000.0 0.0003333 3030.35620 3051.63647
3077.0 0.0003250 3030.45093 3052.37427
3040.0 0.0003289 3030.54419 3053.67920
3007.0 0.0003326 3030.63574 3055.45361
3103.0 0.0003223 3030.72559 3057.41797
3004.0 0.0003329 3030.81372 3058.87451
3116.0 0.0003209 3030.90015 3059.22388
3077.0 0.0003250 3030.98462 3058.36816
3152.0 0.0003173 3031.06763 3057.05322
3121.0 0.0003204 3031.14868 3056.06006
3130.0 0.0003195 3031.22778 3055.81812
3067.0 0.0003261 3031.30542 3056.43433
3102.0 0.0003224 3031.38110 3057.71167
3143.0 0.0003182 3031.45483 3059.10181
3069.0 0.0003258 3031.52686 3059.30273
2996.0 0.0003338 3031.59692 3058.72070
3091.0 0.0003235 3031.66528 3057.15918
3080.0 0.0003247 3031.73169 3055.34229
3002.0 0.0003331 3031.79614 3053.81543
3033.0 0.0003297 3031.85864 3052.82324
3038.0 0.0003292 3031.91943 3052.43140
3101.0 0.0003225 3031.97827 3052.63745
3038.0 0.0003292 3032.03491 3053.42554
3096.0 0.0003230 3032.08984 3054.79297
3052.0 0.0003277 3032.14282 3056.90479
3046.0 0.0003283 3032.19385 3059.95630
3116.0 0.0003209 3032.24268 3064.30933
3208.0 0.0003117 3032.28979 3070.43677
3072.0 0.0003255 3032.33472 3078.84375
3124.0 0.0003201 3032.37769 3089.90967
3085.0 0.0003241 3032.41870 3103.62402
3040.0 0.0003289 3032.45752 3119.10815
3142.0 0.0003183 3032.49438 3133.87109
3173.0 0.0003152 3032.52930 3143.81738
3055.0 0.0003273 3032.56226 3146.11084
3106.0 0.0003220 3032.59302 3142.67993
3142.0 0.0003183 3032.62158 3138.64673
2982.0 0.0003353 3032.64819 3138.70898
3120.0 0.0003205 3032.67285 3146.43213
3209.0 0.0003116 3032.69531 3164.97095
3192.0 0.0003133 3032.71582 3197.42920
3191.0 0.0003134 3032.73389 3246.55176
3352.0 0.0002983 3032.75024 3313.62769
3416.0 0.0002927 3032.76416 3396.40991
3542.0 0.0002823 3032.77612 3485.12256
3602.0 0.0002776 3032.78613 3557.41040
3573.0 0.0002799 3032.79370 3582.59058
3565.0 0.0002805 3032.79932 3546.54858
3502.0 0.0002856 3032.80273 3467.96558
3318.0 0.0003014 3032.80420 3377.22559
3247.0 0.0003080 3032.80322 3294.22852
3269.0 0.0003059 3032.80029 3226.82251
3249.0 0.0003078 3032.79517 3176.03760
3163.0 0.0003162 3032.78809 3139.74927
3109.0 0.0003216 3032.77856 3114.67383
3036.0 0.0003294 3032.76685 3097.52832
3049.0 0.0003280 3032.75317 3085.63989
3026.0 0.0003305 3032.73730 3077.11328
3068.0 0.0003259 3032.71924 3070.73193
3140.0 0.0003185 3032.69897 3065.76294
3027.0 0.0003304 3032.67651 3061.77173
3165.0 0.0003160 3032.65210 3058.49561
3117.0 0.0003208 3032.62524 3055.76465
3010.0 0.0003322 3032.59644 3053.46143
3014.0 0.0003318 3032.56519 3051.49902
3017.0 0.0003315 3032.53198 3049.92480
3032.0 0.0003298 3032.49658 3048.46777
3031.0 0.0003299 3032.45898 3047.19946
3065.0 0.0003263 3032.41919 3046.08911
3058.0 0.0003270 3032.37720 3045.10986
3032.0 0.0003298 3032.33325 3044.24194
2998.0 0.0003336 3032.28687 3043.47046
3092.0 0.0003234 3032.23853 3042.78052
3008.0 0.0003324 3032.18799 3042.16260
3007.0 0.0003326 3032.13525 3041.60718
3037.0 0.0003293 3032.08032 3041.10669
3096.0 0.0003230 3032.02319 3040.65479
3000.0 0.0003333 3031.96411 3039.93384
2999.0 0.0003334 3031.90259 3039.56934
3040.0 0.0003289 3031.83911 3039.24194
3002.0 0.0003331 3031.77344 3038.94678
3049.0 0.0003280 3031.70581 3038.68408
2995.0 0.0003339 3031.63574 3038.45020
2917.0 0.0003428 3031.56372 3038.24341
2910.0 0.0003436 3031.48950 3038.06494
3038.0 0.0003292 3031.41333 3037.91528
2970.0 0.0003367 3031.33496 3037.79224
3130.0 0.0003195 3031.25439 3037.69873
3070.0 0.0003257 3031.17188 3037.63843
3003.0 0.0003330 3031.08716 3037.61133
2973.0 0.0003364 3031.00024 3037.62354
3016.0 0.0003316 3030.91138 3037.67896
3057.0 0.0003271 3030.82056 3037.79004
3092.0 0.0003234 3030.72754 3037.96704
3104.0 0.0003222 3030.63257 3037.92383
3048.0 0.0003281 3030.53540 3038.30859
3018.0 0.0003313 3030.43604 3038.84863
3067.0 0.0003261 3030.33496 3039.59692
3075.0 0.0003252 3030.23169 3040.60962
2979.0 0.0003357 3030.12646 3041.95313
3118.0 0.0003207 3030.01929 3043.69214
3089.0 0.0003237 3029.90991 3045.86792
3104.0 0.0003222 3029.79858 3048.47485
3084.0 0.0003243 3029.68555 3051.50684
2998.0 0.0003336 3029.57007 3055.16846
3011.0 0.0003321 3029.45313 3060.00659
3148.0 0.0003177 3029.33374 3066.63086
2996.0 0.0003338 3029.21289 3075.30371
3150.0 0.0003175 3029.08984 3085.58105
3132.0 0.0003193 3028.96484 3095.80371
3057.0 0.0003271 3028.83789 3102.93091
3108.0 0.0003218 3028.70923 3104.35400
3074.0 0.0003253 3028.57861 3100.89038
3121.0 0.0003204 3028.44604 3096.23926
3135.0 0.0003190 3028.31177 3093.81641
3060.0 0.0003268 3028.17554 3095.41382
3078.0 0.0003249 3028.03735 3101.34692
3098.0 0.0003228 3027.89746 3110.46875
3171.0 0.0003154 3027.75586 3119.74414
3102.0 0.0003224 3027.61230 3124.52783
3090.0 0.0003236 3027.46704 3121.18286
3084.0 0.0003243 3027.31982 3110.21924
3128.0 0.0003197 3027.17114 3095.48584
3083.0 0.0003244 3027.02051 3080.79785
3120.0 0.0003205 3026.86816 3068.19800
3086.0 0.0003240 3026.71411 3058.29004
3151.0 0.0003174 3026.55835 3050.93311
3063.0 0.0003265 3026.40088 3045.69434
3036.0 0.0003294 3026.24194 3042.00000
2980.0 0.0003356 3026.08105 3039.42261
2964.0 0.0003374 3025.91870 3037.60278
3044.0 0.0003285 3025.75464 3036.30737
3007.0 0.0003326 3025.58887 3035.40234
3092.0 0.0003234 3025.42188 3034.80957
3116.0 0.0003209 3025.25293 3034.48193
3068.0 0.0003259 3025.08252 3034.38965
3098.0 0.0003228 3024.91064 3034.39575
3049.0 0.0003280 3024.73706 3034.35864
3042.0 0.0003287 3024.56201 3034.08252
3095.0 0.0003231 3024.38574 3033.51099
2959.0 0.0003380 3024.20752 3032.78467
3029.0 0.0003301 3024.02832 3032.10571
3006.0 0.0003327 3023.84741 3031.61499
2970.0 0.0003367 3023.66504 3031.41138
3009.0 0.0003323 3023.48145 3031.55518
3031.0 0.0003299 3023.29614 3032.09668
3134.0 0.0003191 3023.10962 3033.11230
3048.0 0.0003281 3022.92188 3034.63525
3011.0 0.0003321 3022.73267 3036.56836
3030.0 0.0003300 3022.54224 3038.80884
3023.0 0.0003308 3022.35034 3040.83716
3081.0 0.0003246 3022.15723 3042.14893
3037.0 0.0003293 3021.96289 3042.55396
3035.0 0.0003295 3021.76733 3042.02856
2900.0 0.0003448 3021.57056 3040.49951
2975.0 0.0003361 3021.37256 3038.15186
2985.0 0.0003350 3021.17310 3035.53198
2967.0 0.0003370 3020.97290 3033.13379
3018.0 0.0003313 3020.77124 3031.19214
3052.0 0.0003277 3020.56860 3029.74438
3070.0 0.0003257 3020.36499 3028.30933
3067.0 0.0003261 3020.15991 3027.67871
3045.0 0.0003284 3019.95410 3027.33911
3031.0 0.0003299 3019.74707 3027.23242
2991.0 0.0003343 3019.53906 3027.32422
3058.0 0.0003270 3019.33008 3027.60327
2945.0 0.0003396 3019.12012 3028.07715
2967.0 0.0003370 3018.90918 3028.78467
3017.0 0.0003315 3018.69727 3029.79395
3009.0 0.0003323 3018.48438 3031.22754
2905.0 0.0003442 3018.27075 3033.29297
3067.0 0.0003261 3018.05615 3036.33032
3095.0 0.0003231 3017.84058 3040.84814
3077.0 0.0003250 3017.62427 3047.53198
3014.0 0.0003318 3017.40723 3057.17407
3050.0 0.0003279 3017.18921 3070.50269
3136.0 0.0003189 3016.97070 3087.86694
3030.0 0.0003300 3016.75122 3108.66919
3271.0 0.0003057 3016.53101 3130.31470
3153.0 0.0003172 3016.31006 3147.05127
3100.0 0.0003226 3016.08838 3151.56323
3101.0 0.0003225 3015.86621 3141.27271
3094.0 0.0003232 3015.64331 3121.33472
3128.0 0.0003197 3015.41992 3099.01611
3034.0 0.0003296 3015.19556 3078.82837
3074.0 0.0003253 3014.97095 3062.46436
3067.0 0.0003261 3014.74561 3050.07471
3021.0 0.0003310 3014.52002 3041.11768
3134.0 0.0003191 3014.29370 3034.81372
2985.0 0.0003350 3014.06689 3030.39526
3055.0 0.0003273 3013.83960 3027.23535
3033.0 0.0003297 3013.61182 3024.89209
3097.0 0.0003229 3013.38379 3023.07593
3052.0 0.0003277 3013.15527 3021.60962
3014.0 0.0003318 3012.92651 3020.38916
3028.0 0.0003303 3012.69702 3019.34863
3048.0 0.0003281 3012.46753 3018.52075
2966.0 0.0003372 3012.23755 3017.72559
2970.0 0.0003367 3012.00757 3017.01709
2922.0 0.0003422 3011.77686 3016.38062
3053.0 0.0003275 3011.54639 3015.80103
2942.0 0.0003399 3011.31543 3015.26953
3058.0 0.0003270 3011.08423 3014.77881
2963.0 0.0003375 3010.85303 3014.32227
3025.0 0.0003306 3010.62158 3013.89429
2953.0 0.0003386 3010.38989 3013.49243
3125.0 0.0003200 3010.15820 3013.11377
3075.0 0.0003252 3009.92651 3012.75269
2966.0 0.0003372 3009.69458 3012.40991
3057.0 0.0003271 3009.46265 3012.43359
2956.0 0.0003383 3009.23096 3012.12622
3017.0 0.0003315 3008.99902 3011.83154
3023.0 0.0003308 3008.76709 3011.54980
3091.0 0.0003235 3008.53516 3011.33740
2974.0 0.0003362 3008.30347 3011.07861
2983.0 0.0003352 3008.07178 3010.83130
2998.0 0.0003336 3007.84033 3010.59570
3044.0 0.0003285 3007.60889 3010.36694
2979.0 0.0003357 3007.37744 3010.15356
2973.0 0.0003364 3007.14648 3009.95288
2905.0 0.0003442 3006.91553 3009.76392
3000.0 0.0003333 3006.68506 3009.58960
3098.0 0.0003228 3006.45459 3009.43140
3045.0 0.0003284 3006.22437 3009.28955
3048.0 0.0003281 3005.99438 3009.16895
3043.0 0.0003286 3005.76489 3009.02124
3003.0 0.0003330 3005.53589 3008.95142
3057.0 0.0003271 3005.30688 3008.91431
3020.0 0.0003311 3005.07837 3008.91772
3042.0 0.0003287 3004.85034 3008.97388
3005.0 0.0003328 3004.62256 3009.10083
3023.0 0.0003308 3004.39526 3009.32275
2874.0 0.0003479 3004.16870 3009.69287
3064.0 0.0003264 3003.94238 3010.23633
2982.0 0.0003353 3003.71655 3011.09985
2912.0 0.0003434 3003.49121 3012.44922
3029.0 0.0003301 3003.26636 3014.40112
2971.0 0.0003366 3003.04224 3017.09131
3034.0 0.0003296 3002.81860 3020.58716
2943.0 0.0003398 3002.59570 3024.77515
3054.0 0.0003274 3002.37329 3029.16650
3100.0 0.0003226 3002.15161 3032.73169
3107.0 0.0003219 3001.93066 3034.35547
3013.0 0.0003319 3001.71021 3033.99365
3050.0 0.0003279 3001.49048 3032.87915
3068.0 0.0003259 3001.27148 3032.35400
3012.0 0.0003320 3001.05347 3033.05762
3046.0 0.0003283 3000.83594 3034.81738
3033.0 0.0003297 3000.61914 3036.63306
3038.0 0.0003292 3000.40332 3037.01465
3074.0 0.0003253 3000.18823 3035.21533
2959.0 0.0003380 2999.97412 3032.07178
3000.0 0.0003333 2999.76074 3029.08765
3030.0 0.0003300 2999.54834 3027.31812
3047.0 0.0003282 2999.33667 3027.17993
2977.0 0.0003359 2999.12598 3028.57031
3008.0 0.0003324 2998.91626 3030.84424
3014.0 0.0003318 2998.70752 3032.72534
2984.0 0.0003351 2998.49951 3032.70703
3036.0 0.0003294 2998.29272 3030.10254
3032.0 0.0003298 2998.08691 3025.60913
3039.0 0.0003291 2997.88208 3020.54468
2987.0 0.0003348 2997.67822 3015.87500
3038.0 0.0003292 2997.47534 3012.00537
3065.0 0.0003263 2997.27368 3008.99780
3003.0 0.0003330 2997.07324 3006.74658
3027.0 0.0003304 2996.87354 3005.10522
3079.0 0.0003248 2996.67529 3003.90796
2999.0 0.0003334 2996.47803 3003.01050
3002.0 0.0003331 2996.28198 3002.33008
3070.0 0.0003257 2996.08691 3001.79419
3055.0 0.0003273 2995.89331 3001.35742
3061.0 0.0003267 2995.70068 3002.26172
3089.0 0.0003237 2995.50928 3001.98975
2907.0 0.0003440 2995.31909 3001.77563
2932.0 0.0003411 2995.13013 3001.61670
2986.0 0.0003349 2994.94263 3001.51953
3102.0 0.0003224 2994.75610 3001.48730
3012.0 0.0003320 2994.57104 3001.53027
2935.0 0.0003407 2994.38721 3001.65454
2939.0 0.0003403 2994.20483 3001.86304
2945.0 0.0003396 2994.02368 3002.66724
2958.0 0.0003381 2993.84375 3002.96338
3046.0 0.0003283 2993.66528 3003.17749
2974.0 0.0003362 2993.48828 3003.22168
3054.0 0.0003274 2993.31250 3003.10986
3010.0 0.0003322 2993.13818 3002.93604
2977.0 0.0003359 2992.96509 3002.79468
2941.0 0.0003400 2992.79346 3002.73779
2975.0 0.0003361 2992.62354 3002.78198
2938.0 0.0003404 2992.45459 3002.93188
3039.0 0.0003291 2992.28760 3003.18457
3077.0 0.0003250 2992.12183 3003.53882
3052.0 0.0003277 2991.95728 3003.99438
3054.0 0.0003274 2991.79468 3004.44751
2999.0 0.0003334 2991.63330 3005.13501
2986.0 0.0003349 2991.47339 3005.96387
3062.0 0.0003266 2991.31494 3006.96191
3100.0 0.0003226 2991.15820 3008.17383
3036.0 0.0003294 2991.00293 3009.67017
3065.0 0.0003263 2990.84912 3011.55225
3067.0 0.0003261 2990.69702 3013.99414
3099.0 0.0003227 2990.54614 3017.25513
3050.0 0.0003279 2990.39722 3021.70581
2917.0 0.0003428 2990.24951 3027.81738
3052.0 0.0003277 2990.10376 3036.11011
2973.0 0.0003364 2989.95923 3047.02856
3046.0 0.0003283 2989.81665 3060.73242
2973.0 0.0003364 2989.67529 3076.66235
3150.0 0.0003175 2989.53589 3092.81934
3151.0 0.0003174 2989.39795 3105.26245
3135.0 0.0003190 2989.26147 3109.98730
3145.0 0.0003180 2989.12695 3107.05444
3149.0 0.0003176 2988.99390 3101.01514
3092.0 0.0003234 2988.86255 3097.05347
3001.0 0.0003332 2988.73267 3098.87280
3141.0 0.0003184 2988.60449 3109.09985
3080.0 0.0003247 2988.47803 3129.95142
3194.0 0.0003131 2988.35327 3163.30493
3267.0 0.0003061 2988.23022 3210.20776
3322.0 0.0003010 2988.10864 3269.63452
3306.0 0.0003025 2987.98901 3335.86035
3428.0 0.0002917 2987.87085 3394.79004
3501.0 0.0002856 2987.75439 3425.45190
3403.0 0.0002939 2987.63965 3415.25439
3390.0 0.0002950 2987.52661 3373.30249
3427.0 0.0002918 2987.41528 3318.59326
3380.0 0.0002959 2987.30566 3263.13940
3277.0 0.0003052 2987.19775 3211.02222
3160.0 0.0003165 2987.09131 3164.54565
3202.0 0.0003123 2986.98682 3125.92993
3203.0 0.0003122 2986.88379 3095.85742
3012.0 0.0003320 2986.78271 3073.41211
3106.0 0.0003220 2986.68335 3057.02539
2989.0 0.0003346 2986.58545 3045.14429
3018.0 0.0003313 2986.48950 3036.49219
3004.0 0.0003329 2986.39502 3030.10815
3086.0 0.0003240 2986.30249 3025.30225
2985.0 0.0003350 2986.21143 3021.60986
2861.0 0.0003495 2986.12207 3018.71460
3020.0 0.0003311 2986.03467 3016.41187
3075.0 0.0003252 2985.94873 3014.56787
3037.0 0.0003293 2985.86475 3013.08618
2919.0 0.0003426 2985.78223 3011.90479
3071.0 0.0003256 2985.70142 3010.97510
2963.0 0.0003375 2985.62231 3010.26245
3149.0 0.0003176 2985.54492 3009.73853
2933.0 0.0003409 2985.46924 3009.38379
3013.0 0.0003319 2985.39526 3009.18188
3009.0 0.0003323 2985.32300 3009.17480
2896.0 0.0003453 2985.25220 3009.25391
3046.0 0.0003283 2985.18335 3009.46362
3075.0 0.0003252 2985.11597 3009.80347
2866.0 0.0003489 2985.05029 3010.27319
3078.0 0.0003249 2984.98633 3010.87646
3040.0 0.0003289 2984.92407 3011.61792
2973.0 0.0003364 2984.86353 3012.48340
2944.0 0.0003397 2984.80444 3013.52905
3051.0 0.0003278 2984.74707 3014.74438
3019.0 0.0003312 2984.69141 3016.14722
3000.0 0.0003333 2984.63721 3017.75732
3090.0 0.0003236 2984.58472 3019.60229
3056.0 0.0003272 2984.53394 3021.70996
2950.0 0.0003390 2984.48462 3024.09668
2975.0 0.0003361 2984.43701 3026.85449
2936.0 0.0003406 2984.39087 3030.01831
2893.0 0.0003457 2984.34644 3033.65552
2877.0 0.0003476 2984.30347 3037.85474
3091.0 0.0003235 2984.26221 3042.72339
3022.0 0.0003309 2984.22241 3048.39917
3026.0 0.0003305 2984.18433 3055.05859
3093.0 0.0003233 2984.14771 3062.93237
3084.0 0.0003243 2984.11255 3072.31909
3084.0 0.0003243 2984.07886 3083.66284
3088.0 0.0003238 2984.04688 3097.62744
3062.0 0.0003266 2984.01636 3115.21289
3115.0 0.0003210 2983.98730 3138.05225
3274.0 0.0003054 2983.95972 3168.75757
3177.0 0.0003148 2983.93359 3211.32861
3277.0 0.0003052 2983.90918 3271.41821
3378.0 0.0002960 2983.88599 3356.18872
3437.0 0.0002910 2983.86426 3473.43481
3570.0 0.0002801 2983.84399 3629.69092
3878.0 0.0002579 2983.82520 3826.76123
4089.0 0.0002446 2983.80762 4054.93188
4245.0 0.0002356 2983.79175 4281.04541
4544.0 0.0002201 2983.77710 4441.01563
4467.0 0.0002239 2983.76392 4469.94727
4438.0 0.0002253 2983.75195 4366.48145
4295.0 0.0002328 2983.74146 4197.27246
4115.0 0.0002430 2983.73218 4033.16040
3990.0 0.0002506 2983.72437 3912.74756
3992.0 0.0002505 2983.71777 3845.76270
3818.0 0.0002619 2983.71265 3821.12183
3830.0 0.0002611 2983.70874 3809.46265
3839.0 0.0002605 2983.70605 3772.88623
3815.0 0.0002621 2983.70459 3692.17334
3651.0 0.0002739 2983.70435 3581.37939
3515.0 0.0002845 2983.70532 3466.65088
3439.0 0.0002908 2983.70776 3364.94385
3289.0 0.0003040 2983.71118 3282.22461
3255.0 0.0003072 2983.71582 3218.41211
3238.0 0.0003088 2983.72168 3171.55444
3088.0 0.0003238 2983.72852 3136.76880
3081.0 0.0003246 2983.73657 3111.36841
3092.0 0.0003234 2983.74585 3092.55249
3025.0 0.0003306 2983.75635 3078.26123
3098.0 0.0003228 2983.76758 3067.09570
3039.0 0.0003291 2983.78027 3058.16016
2990.0 0.0003344 2983.79370 3050.88452
2962.0 0.0003376 2983.80835 3044.89868
3133.0 0.0003192 2983.82397 3039.92456
2999.0 0.0003334 2983.84058 3035.71313
3125.0 0.0003200 2983.85840 3032.00269
3011.0 0.0003321 2983.87695 3029.22607
2991.0 0.0003343 2983.89648 3025.96216
3040.0 0.0003289 2983.91699 3022.93701
2987.0 0.0003348 2983.93848 3020.23779
2997.0 0.0003337 2983.96069 3018.34595
2939.0 0.0003403 2983.98389 3016.37817
3083.0 0.0003244 2984.00806 3014.73291
2984.0 0.0003351 2984.03296 3013.36865
3063.0 0.0003265 2984.05884 3012.25708
3071.0 0.0003256 2984.08521 3011.39990
2973.0 0.0003364 2984.11279 3010.78003
3011.0 0.0003321 2984.14087 3010.25244
3049.0 0.0003280 2984.16968 3009.83862
3043.0 0.0003286 2984.19946 3009.34692
3059.0 0.0003269 2984.22974 3008.70703
3026.0 0.0003305 2984.26074 3007.85229
2973.0 0.0003364 2984.29248 3006.74194
2971.0 0.0003366 2984.32495 3005.46875
2981.0 0.0003355 2984.35791 3004.20605
2941.0 0.0003400 2984.39160 3003.07300
2873.0 0.0003481 2984.42603 3002.11499
2949.0 0.0003391 2984.46069 3001.32910
2935.0 0.0003407 2984.49634 3000.69556
3036.0 0.0003294 2984.53223 2999.83740
2999.0 0.0003334 2984.56860 2999.43628
3024.0 0.0003307 2984.60571 2999.11694
3110.0 0.0003215 2984.64307 2998.86450
3015.0 0.0003317 2984.68091 2998.66797
3062.0 0.0003266 2984.71924 2998.46729
2975.0 0.0003361 2984.75806 2998.38110
3025.0 0.0003306 2984.79736 2998.33496
2998.0 0.0003336 2984.83691 2998.33838
2901.0 0.0003447 2984.87671 2998.39648
3073.0 0.0003254 2984.91699 2998.51099
2937.0 0.0003405 2984.95752 2998.69214
2953.0 0.0003386 2984.99854 2998.95020
3015.0 0.0003317 2985.03955 2999.30078
3073.0 0.0003254 2985.08105 2999.77075
3013.0 0.0003319 2985.12256 3000.40112
3046.0 0.0003283 2985.16455 3001.25781
2935.0 0.0003407 2985.20654 3002.44873
3048.0 0.0003281 2985.24878 3004.13135
2994.0 0.0003340 2985.29102 3006.52734
3013.0 0.0003319 2985.33350 3009.90674
3135.0 0.0003190 2985.37598 3014.54980
3121.0 0.0003204 2985.41870 3020.67090
3036.0 0.0003294 2985.46143 3028.27100
2978.0 0.0003358 2985.50415 3036.84009
3073.0 0.0003254 2985.54688 3044.87915
3111.0 0.0003214 2985.58984 3049.76514
3091.0 0.0003235 2985.63257 3049.21973
2930.0 0.0003413 2985.67529 3043.61182
2939.0 0.0003403 2985.71777 3035.53491
3029.0 0.0003301 2985.76050 3027.40137
3055.0 0.0003273 2985.80298 3020.43115
3060.0 0.0003268 2985.84521 3014.97485
3066.0 0.0003262 2985.88745 3011.11108
2965.0 0.0003373 2985.92944 3008.30981
3016.0 0.0003316 2985.97119 3006.43237
2945.0 0.0003396 2986.01294 3005.21973
3028.0 0.0003303 2986.05420 3004.46729
2980.0 0.0003356 2986.09521 3004.03052
2972.0 0.0003365 2986.13599 3003.81519
2978.0 0.0003358 2986.17651 3003.76465
3004.0 0.0003329 2986.21680 3003.84570
2938.0 0.0003404 2986.25659 3004.03271
2909.0 0.0003438 2986.29614 3004.31934
2969.0 0.0003368 2986.33521 3004.69385
2966.0 0.0003372 2986.37402 3005.15430
2935.0 0.0003407 2986.41235 3005.69849
2923.0 0.0003421 2986.45020 3006.32813
3017.0 0.0003315 2986.48755 3007.04565
2906.0 0.0003441 2986.52441 3007.85742
3093.0 0.0003233 2986.56079 3008.78540
3104.0 0.0003222 2986.59668 3009.80347
3032.0 0.0003298 2986.63184 3010.94263
2974.0 0.0003362 2986.66675 3012.21338
3118.0 0.0003207 2986.70068 3013.63354
3019.0 0.0003312 2986.73438 3015.22339
3091.0 0.0003235 2986.76733 3017.00391
3055.0 0.0003273 2986.79956 3019.00806
3031.0 0.0003299 2986.83105 3021.26904
3007.0 0.0003326 2986.86182 3023.83130
3067.0 0.0003261 2986.89209 3026.74878
3027.0 0.0003304 2986.92163 3030.08716
2992.0 0.0003342 2986.95020 3033.93579
3006.0 0.0003327 2986.97827 3038.40088
3114.0 0.0003211 2987.00537 3042.36108
3072.0 0.0003255 2987.03149 3048.56226
3006.0 0.0003327 2987.05713 3055.98950
3041.0 0.0003288 2987.08179 3065.06104
3063.0 0.0003265 2987.10547 3076.41772
3103.0 0.0003223 2987.12842 3091.08447
3004.0 0.0003329 2987.15039 3110.64307
3165.0 0.0003160 2987.17139 3137.42114
3209.0 0.0003116 2987.19165 3174.02344
3170.0 0.0003155 2987.21069 3225.28101
3230.0 0.0003096 2987.22900 3294.46826
3351.0 0.0002984 2987.24609 3384.31128
3463.0 0.0002888 2987.26245 3494.26660
3514.0 0.0002846 2987.27759 3616.14355
3752.0 0.0002665 2987.29150 3727.56128
3712.0 0.0002694 2987.30469 3792.17285
3751.0 0.0002666 2987.31665 3783.08081
3801.0 0.0002631 2987.32739 3711.55664
3690.0 0.0002710 2987.33716 3615.50146
3538.0 0.0002826 2987.34570 3527.77393
3490.0 0.0002865 2987.35327 3465.94336
3446.0 0.0002902 2987.35962 3437.55835
3500.0 0.0002857 2987.36475 3445.64795
3512.0 0.0002847 2987.36865 3491.12744
3425.0 0.0002920 2987.37109 3572.88037
3636.0 0.0002750 2987.37256 3685.43091
3690.0 0.0002710 2987.37280 3813.40137
3914.0 0.0002555 2987.37183 3926.56201
3896.0 0.0002567 2987.36938 3990.52930
3989.0 0.0002507 2987.36572 3995.48022
3961.0 0.0002525 2987.36084 3960.37695
4042.0 0.0002474 2987.35449 3900.72412
3865.0 0.0002587 2987.34692 3813.57861
3749.0 0.0002667 2987.33813 3697.81470
3520.0 0.0002841 2987.32764 3569.64722
3568.0 0.0002803 2987.31592 3449.60156
3359.0 0.0002977 2987.30298 3349.02588
3426.0 0.0002919 2987.28833 3269.91724
3301.0 0.0003029 2987.27246 3210.09229
3230.0 0.0003096 2987.25513 3165.84790
3100.0 0.0003226 2987.23633 3133.41724
3090.0 0.0003236 2987.21606 3109.53687
3068.0 0.0003259 2987.19434 3091.65063
3177.0 0.0003148 2987.17090 3077.92627
2994.0 0.0003340 2987.14624 3067.10742
3081.0 0.0003246 2987.11987 3058.37891
3112.0 0.0003213 2987.09229 3051.21265
3075.0 0.0003252 2987.06299 3045.26563
3028.0 0.0003303 2987.03198 3040.31104
3046.0 0.0003283 2986.99976 3036.19165
3025.0 0.0003306 2986.96558 3032.80566
2988.0 0.0003347 2986.93018 3030.09619
3018.0 0.0003313 2986.89307 3028.02490
2959.0 0.0003380 2986.85425 3026.55200
2949.0 0.0003391 2986.81396 3025.58154
2942.0 0.0003399 2986.77197 3024.89429
3127.0 0.0003198 2986.72852 3024.09473
3028.0 0.0003303 2986.68335 3022.75146
3002.0 0.0003331 2986.63647 3020.76245
3087.0 0.0003239 2986.58789 3018.44360
2987.0 0.0003348 2986.53760 3016.17603
2921.0 0.0003423 2986.48584 3014.16626
2995.0 0.0003339 2986.43237 3012.45923
2992.0 0.0003342 2986.37720 3011.04102
3008.0 0.0003324 2986.32031 3009.90283
3045.0 0.0003284 2986.26172 3009.03955
3057.0 0.0003271 2986.20142 3008.44312
2974.0 0.0003362 2986.13940 3008.09961
3015.0 0.0003317 2986.07568 3008.00317
3004.0 0.0003329 2986.01025 3008.16455
3007.0 0.0003326 2985.94312 3008.61230
2975.0 0.0003361 2985.87402 3009.40112
3001.0 0.0003332 2985.80347 3010.63208
2945.0 0.0003396 2985.73096 3012.46997
3102.0 0.0003224 2985.65674 3015.18213
3041.0 0.0003288 2985.58081 3019.17017
2998.0 0.0003336 2985.50317 3024.99072
3068.0 0.0003259 2985.42383 3033.29126
3041.0 0.0003288 2985.34253 3044.91943
3073.0 0.0003254 2985.25952 3060.44507
3059.0 0.0003269 2985.17480 3080.01416
3104.0 0.0003222 2985.08813 3102.59082
3122.0 0.0003203 2985.00000 3124.72534
3089.0 0.0003237 2984.90967 3139.78101
3094.0 0.0003232 2984.81787 3140.88428
2983.0 0.0003352 2984.72412 3127.32690
3135.0 0.0003190 2984.62866 3105.36377
3159.0 0.0003166 2984.53149 3082.04224
3027.0 0.0003304 2984.43237 3061.36816
2994.0 0.0003340 2984.33154 3044.70630
3057.0 0.0003271 2984.22876 3032.07104
3079.0 0.0003248 2984.12427 3022.92505
3042.0 0.0003287 2984.01807 3016.57886
3102.0 0.0003224 2983.91016 3012.38135
3090.0 0.0003236 2983.80029 3009.82861
2982.0 0.0003353 2983.68848 3008.56689
3011.0 0.0003321 2983.57520 3008.49097
3097.0 0.0003229 2983.45996 3009.10889
2963.0 0.0003375 2983.34302 3010.22632
3003.0 0.0003330 2983.22412 3011.22437
2978.0 0.0003358 2983.10352 3011.23682
2980.0 0.0003356 2982.98120 3009.69604
3052.0 0.0003277 2982.85693 3006.89087
2936.0 0.0003406 2982.73096 3003.61694
2960.0 0.0003378 2982.60327 3000.78833
3020.0 0.0003311 2982.47388 2998.11768
2946.0 0.0003394 2982.34253 2995.94556
3034.0 0.0003296 2982.20972 2994.22681
2940.0 0.0003401 2982.07471 2992.88184
2975.0 0.0003361 2981.93823 2991.82251
3135.0 0.0003190 2981.80005 2990.97266
2965.0 0.0003373 2981.65991 2990.26953
3013.0 0.0003319 2981.51807 2989.67212
2939.0 0.0003403 2981.37451 2989.14966
2919.0 0.0003426 2981.22925 2988.68335
3043.0 0.0003286 2981.08228 2988.26123
3039.0 0.0003291 2980.93359 2987.87402
3082.0 0.0003245 2980.78320 2987.51685
2888.0 0.0003463 2980.63110 2987.18433
3020.0 0.0003311 2980.47729 2986.87231
3006.0 0.0003327 2980.32178 2986.58057
2918.0 0.0003427 2980.16455 2986.30640
2989.0 0.0003346 2980.00586 2986.04614
2884.0 0.0003467 2979.84521 2985.80127
2959.0 0.0003380 2979.68311 2985.56738
2953.0 0.0003386 2979.51929 2985.34839
2976.0 0.0003360 2979.35376 2985.13965
2988.0 0.0003347 2979.18652 2984.94360
2921.0 0.0003423 2979.01782 2984.75879
2946.0 0.0003394 2978.84741 2984.58423
2931.0 0.0003412 2978.67529 2983.72461
2969.0 0.0003368 2978.50195 2983.58716
2942.0 0.0003399 2978.32666 2983.46240
3054.0 0.0003274 2978.14990 2983.35059
3029.0 0.0003301 2977.97168 2983.25513
2971.0 0.0003366 2977.79175 2983.17432
2951.0 0.0003389 2977.61060 2983.11279
2909.0 0.0003438 2977.42749 2983.07031
2973.0 0.0003364 2977.24316 2983.05225
3015.0 0.0003317 2977.05713 2983.05981
2957.0 0.0003382 2976.86963 2983.09766
3027.0 0.0003304 2976.68091 2983.17651
2932.0 0.0003411 2976.49048 2982.62524
3023.0 0.0003308 2976.29858 2982.82373
2982.0 0.0003353 2976.10522 2983.09961
3073.0 0.0003254 2975.91064 2983.47437
3017.0 0.0003315 2975.71436 2983.52856
2956.0 0.0003383 2975.51685 2984.18848
2978.0 0.0003358 2975.31787 2985.01904
2893.0 0.0003457 2975.11768 2986.02954
2971.0 0.0003366 2974.91602 2987.18433
3039.0 0.0003291 2974.71289 2988.39258
3044.0 0.0003285 2974.50854 2989.53882
3010.0 0.0003322 2974.30273 2990.62915
2956.0 0.0003383 2974.09595 2991.87061
2971.0 0.0003366 2973.88745 2993.58130
3055.0 0.0003273 2973.67798 2996.10815
2934.0 0.0003408 2973.46729 2999.83472
3001.0 0.0003332 2973.25513 3005.22607
3068.0 0.0003259 2973.04199 3012.84277
3054.0 0.0003274 2972.82739 3023.30249
2936.0 0.0003406 2972.61182 3037.12573
2995.0 0.0003339 2972.39502 3054.40991
3151.0 0.0003174 2972.17700 3074.26660
3117.0 0.0003208 2971.95776 3094.51001
3075.0 0.0003252 2971.73755 3112.29297
3115.0 0.0003210 2971.51611 3124.79565
3061.0 0.0003267 2971.29370 3128.40649
3105.0 0.0003221 2971.07007 3120.03760
3067.0 0.0003261 2970.84546 3101.37256
3019.0 0.0003312 2970.61987 3078.13208
3016.0 0.0003316 2970.39331 3055.66138
3056.0 0.0003272 2970.16553 3036.57178
2974.0 0.0003362 2969.93701 3021.46777
2973.0 0.0003364 2969.70728 3010.02954
3094.0 0.0003232 2969.47681 3001.59570
3032.0 0.0003298 2969.24536 2995.45044
2996.0 0.0003338 2969.01294 2990.95898
2972.0 0.0003365 2968.77979 2987.61597
2827.0 0.000354 2968.54565 2985.06055
2979.0 0.0003357 2968.31055 2983.04395
2962.0 0.0003376 2968.07471 2981.41235
3016.0 0.0003316 2967.83813 2980.06006
2995.0 0.0003339 2967.60059 2978.92163
2981.0 0.0003355 2967.36255 2977.95068
3072.0 0.0003255 2967.12354 2977.11719
2981.0 0.0003355 2966.88403 2976.39551
2931.0 0.0003412 2966.64355 2975.76782
2963.0 0.0003375 2966.40234 2975.22046
3014.0 0.0003318 2966.16064 2974.74268
3020.0 0.0003311 2965.91821 2974.32690
2983.0 0.0003352 2965.67529 2973.96582
3075.0 0.0003252 2965.43164 2973.65527
2873.0 0.0003481 2965.18750 2973.38940
3003.0 0.0003330 2964.94263 2973.17065
2857.0 0.0003500 2964.69727 2972.99414
3020.0 0.0003311 2964.45142 2972.85889
2947.0 0.0003393 2964.20508 2972.76636
3055.0 0.0003273 2963.95801 2972.57788
3066.0 0.0003262 2963.71094 2972.57666
3026.0 0.0003305 2963.46313 2972.62622
2910.0 0.0003436 2963.21484 2972.72412
2991.0 0.0003343 2962.96631 2972.88062
3030.0 0.0003300 2962.71729 2973.09912
2985.0 0.0003350 2962.46802 2973.38501
2884.0 0.0003467 2962.21826 2973.75049
3016.0 0.0003316 2961.96851 2974.20630
2995.0 0.0003339 2961.71826 2974.76196
3026.0 0.0003305 2961.46777 2975.43799
2913.0 0.0003433 2961.21704 2976.25293
3001.0 0.0003332 2960.96582 2977.23291
3044.0 0.0003285 2960.71484 2978.41260
3025.0 0.0003306 2960.46338 2979.83252
3026.0 0.0003305 2960.21191 2981.55103
3035.0 0.0003295 2959.96021 2983.62769
3008.0 0.0003324 2959.70825 2986.21240
3011.0 0.0003321 2959.45654 2989.45557
3046.0 0.0003283 2959.20459 2993.61572
2981.0 0.0003355 2958.95239 2999.07495
3006.0 0.0003327 2958.70044 3006.38403
3018.0 0.0003313 2958.44849 3016.26929
2990.0 0.0003344 2958.19629 3029.61646
3042.0 0.0003287 2957.94434 3047.36548
3064.0 0.0003264 2957.69238 3070.31543
3138.0 0.0003187 2957.44067 3098.70459
3128.0 0.0003197 2957.18896 3131.33716
3244.0 0.0003083 2956.93726 3164.16797
3092.0 0.0003234 2956.68579 3190.07886
3220.0 0.0003106 2956.43433 3203.34375
3220.0 0.0003106 2956.18311 3206.42090
3214.0 0.0003111 2955.93237 3208.80786
3215.0 0.0003110 2955.68164 3219.54077
3241.0 0.0003085 2955.43115 3243.05151
3274.0 0.0003054 2955.18091 3278.40283
3280.0 0.0003049 2954.93115 3317.87524
3308.0 0.0003023 2954.68164 3345.76514
3388.0 0.0002952 2954.43237 3344.69824
3318.0 0.0003014 2954.18335 3310.42700
3339.0 0.0002995 2953.93506 3255.83130
3171.0 0.0003154 2953.68677 3197.16602
3250.0 0.0003077 2953.43921 3144.49951
3051.0 0.0003278 2953.19214 3101.38110
2996.0 0.0003338 2952.94531 3067.94531
2993.0 0.0003341 2952.69922 3042.87378
3037.0 0.0003293 2952.45337 3024.44141
3079.0 0.0003248 2952.20801 3010.95190
3093.0 0.0003233 2951.96338 3000.97290
3018.0 0.0003313 2951.71924 2993.42188
3003.0 0.0003330 2951.47583 2987.54224
2896.0 0.0003453 2951.23291 2982.82813
3066.0 0.0003262 2950.99048 2978.95532
3026.0 0.0003305 2950.74878 2975.71021
2942.0 0.0003399 2950.50806 2972.94995
3029.0 0.0003301 2950.26758 2970.57520
3046.0 0.0003283 2950.02808 2968.51147
3048.0 0.0003281 2949.78906 2966.70337
2987.0 0.0003348 2949.55103 2965.10400
3044.0 0.0003285 2949.31372 2963.68140
2945.0 0.0003396 2949.07715 2962.40796
2971.0 0.0003366 2948.84155 2961.26099
2923.0 0.0003421 2948.60645 2960.22119
2925.0 0.0003419 2948.37231 2959.27588
2935.0 0.0003407 2948.13916 2958.41309
3029.0 0.0003301 2947.90674 2957.62085
3044.0 0.0003285 2947.67529 2956.89111
3122.0 0.0003203 2947.44482 2956.21899
2983.0 0.0003352 2947.21509 2955.59717
2932.0 0.0003411 2946.98657 2955.02075
3003.0 0.0003330 2946.75879 2954.48560
2959.0 0.0003380 2946.53198 2953.99023
2943.0 0.0003398 2946.30640 2953.53003
2942.0 0.0003399 2946.08154 2953.10498
2964.0 0.0003374 2945.85791 2952.71216
2924.0 0.0003420 2945.63525 2952.35132
2891.0 0.0003459 2945.41382 2952.02173
2928.0 0.0003415 2945.19336 2951.72461
2926.0 0.0003418 2944.97388 2951.45825
2934.0 0.0003408 2944.75562 2951.22754
2900.0 0.0003448 2944.53833 2951.03125
3066.0 0.0003262 2944.32251 2950.87622
2959.0 0.0003380 2944.10767 2950.76196
2934.0 0.0003408 2943.89404 2950.69824
2949.0 0.0003391 2943.68164 2950.68994
3025.0 0.0003306 2943.47021 2950.74829
2959.0 0.0003380 2943.26025 2950.88599
3045.0 0.0003284 2943.05151 2951.12695
2940.0 0.0003401 2942.84399 2951.49829
2896.0 0.0003453 2942.63770 2952.03638
2842.0 0.000352 2942.43262 2952.80420
2953.0 0.0003386 2942.22900 2953.88208
2834.0 0.000353 2942.02661 2955.38013
2967.0 0.0003370 2941.82544 2957.45264
2882.0 0.0003470 2941.62573 2960.29321
3000.0 0.0003333 2941.42725 2964.11450
2931.0 0.0003412 2941.23022 2969.10425
2968.0 0.0003369 2941.03442 2975.34644
3041.0 0.0003288 2940.84009 2982.82227
2966.0 0.0003372 2940.64722 2991.68164
2970.0 0.0003367 2940.45557 3001.82446
3034.0 0.0003296 2940.26538 3012.16528
3023.0 0.0003308 2940.07666 3020.23999
2986.0 0.0003349 2939.88940 3022.38281
3060.0 0.0003268 2939.70361 3017.04956
2858.0 0.0003499 2939.51904 3006.41260
3022.0 0.0003309 2939.33618 2994.10767
3012.0 0.0003320 2939.15454 2982.65039
2893.0 0.0003457 2938.97461 2973.07544
2921.0 0.0003423 2938.79614 2965.54004
3092.0 0.0003234 2938.61914 2959.82544
2957.0 0.0003382 2938.44360 2955.58569
2934.0 0.0003408 2938.26953 2952.46387
3018.0 0.0003313 2938.09717 2950.14966
3022.0 0.0003309 2937.92603 2948.39868
2937.0 0.0003405 2937.75659 2947.04077
2907.0 0.0003440 2937.58887 2945.95776
2946.0 0.0003394 2937.42236 2945.07715
3045.0 0.0003284 2937.25757 2944.35205
2914.0 0.0003432 2937.09448 2943.75342
2879.0 0.0003473 2936.93286 2943.26172
2994.0 0.0003340 2936.77271 2942.86963
2929.0 0.0003414 2936.61426 2942.57593
2951.0 0.0003389 2936.45728 2942.38330
2958.0 0.0003381 2936.30176 2942.30396
2943.0 0.0003398 2936.14795 2942.35498
2925.0 0.0003419 2935.99585 2942.56274
2966.0 0.0003372 2935.84546 2942.95679
2994.0 0.0003340 2935.69629 2943.55615
2948.0 0.0003392 2935.54907 2944.33911
2903.0 0.0003445 2935.40332 2945.19604
2972.0 0.0003365 2935.25903 2945.87793
2862.0 0.0003494 2935.11646 2946.07349
2941.0 0.0003400 2934.97559 2945.64917
2904.0 0.0003444 2934.83643 2944.80005
3008.0 0.0003324 2934.69849 2943.84985
2913.0 0.0003433 2934.56250 2943.01172
2924.0 0.0003420 2934.42798 2942.35718
2971.0 0.0003366 2934.29517 2941.86914
3053.0 0.0003275 2934.16406 2941.48999
3032.0 0.0003298 2934.03442 2941.13477
2925.0 0.0003419 2933.90649 2940.73633
3014.0 0.0003318 2933.78003 2940.30518
2942.0 0.0003399 2933.65527 2939.89966
2923.0 0.0003421 2933.53223 2939.57349
2870.0 0.0003484 2933.41064 2939.34961
3012.0 0.0003320 2933.29077 2939.23657
2973.0 0.0003364 2933.17236 2939.23413
2933.0 0.0003409 2933.05566 2939.34448
2969.0 0.0003368 2932.94067 2939.57666
2964.0 0.0003374 2932.82715 2939.95337
2891.0 0.0003459 2932.71533 2940.50049
3009.0 0.0003323 2932.60498 2941.26343
3005.0 0.0003328 2932.49634 2942.28931
2947.0 0.0003393 2932.38916 2943.62842
2995.0 0.0003339 2932.28369 2945.31372
2860.0 0.0003497 2932.17969 2947.33081
2935.0 0.0003407 2932.07739 2949.54785
2874.0 0.0003479 2931.97656 2951.66138
2912.0 0.0003434 2931.87720 2953.31445
2959.0 0.0003380 2931.77954 2954.44727
2885.0 0.0003466 2931.68335 2955.36035
2853.0 0.0003505 2931.58862 2957.01050
2880.0 0.0003472 2931.49561 2959.89917
2991.0 0.0003343 2931.40405 2964.59375
3017.0 0.0003315 2931.31396 2971.64014
3005.0 0.0003328 2931.22559 2981.55347
3021.0 0.0003310 2931.13843 2994.69751
2960.0 0.0003378 2931.05298 3010.97925
3087.0 0.0003239 2930.96899 3029.20581
3046.0 0.0003283 2930.88623 3045.86377
3079.0 0.0003248 2930.80518 3056.30884
3089.0 0.0003237 2930.72559 3056.13916
3078.0 0.0003249 2930.64722 3046.32080
2968.0 0.0003369 2930.57056 3031.52661
3104.0 0.0003222 2930.49512 3015.69263
3020.0 0.0003311 2930.42139 3000.53979
2987.0 0.0003348 2930.34888 2986.80127
2992.0 0.0003342 2930.27759 2975.04712
3003.0 0.0003330 2930.20776 2965.55396
3001.0 0.0003332 2930.13940 2958.30908
2824.0 0.000354 2930.07251 2952.73560
2895.0 0.0003454 2930.00684 2948.54248
3036.0 0.0003294 2929.94238 2945.37280
2896.0 0.0003453 2929.87939 2942.94482
2987.0 0.0003348 2929.81763 2941.05249
2913.0 0.0003433 2929.75732 2939.54712
2892.0 0.0003458 2929.69800 2938.32251
2878.0 0.0003475 2929.64014 2937.30908
2941.0 0.0003400 2929.58350 2936.45435
2865.0 0.0003490 2929.52808 2935.72656
2893.0 0.0003457 2929.47388 2935.09619
2839.0 0.000352 2929.42090 2934.55005
2916.0 0.0003429 2929.36914 2934.06787
2960.0 0.0003378 2929.31860 2933.64331
2971.0 0.0003366 2929.26904 2933.26611
2903.0 0.0003445 2929.22070 2932.92871
2950.0 0.0003390 2929.17358 2932.62476
2980.0 0.0003356 2929.12744 2932.34937
2926.0 0.0003418 2929.08252 2932.09961
2883.0 0.0003469 2929.03857 2931.87256
2942.0 0.0003399 2928.99585 2931.66577
2882.0 0.0003470 2928.95386 2931.47363
2953.0 0.0003386 2928.91309 2931.29810
2846.0 0.000351 2928.87329 2931.13452
2870.0 0.0003484 2928.83472 2930.98462
2970.0 0.0003367 2928.79688 2930.84473
2986.0 0.0003349 2928.75977 2930.71484
3031.0 0.0003299 2928.72388 2930.59229
2922.0 0.0003422 2928.68896 2930.47925
2895.0 0.0003454 2928.65479 2930.37305
2926.0 0.0003418 2928.62158 2930.27271
2958.0 0.0003381 2928.58911 2930.17920
3018.0 0.0003313 2928.55762 2930.09106
2912.0 0.0003434 2928.52686 2930.00708
2909.0 0.0003438 2928.49683 2929.92896
2871.0 0.0003483 2928.46753 2929.85449
2927.0 0.0003416 2928.43921 2929.78564
2884.0 0.0003467 2928.41138 2929.71899
2949.0 0.0003391 2928.38452 2929.65747
2839.0 0.000352 2928.35815 2929.59839
2870.0 0.0003484 2928.33252 2929.54126
3030.0 0.0003300 2928.30762 2929.48804
2934.0 0.0003408 2928.28320 2929.43872
2996.0 0.0003338 2928.25952 2929.39087
2895.0 0.0003454 2928.23633 2929.34424
2947.0 0.0003393 2928.21362 2929.30298
2927.0 0.0003416 2928.19165 2929.26123
2969.0 0.0003368 2928.17017 2929.22290
2902.0 0.0003446 2928.14893 2929.18677
2851.0 0.000351 2928.12842 2929.14697
2849.0 0.000351 2928.10815 2929.11548
2821.0 0.000354 2928.08862 2929.08398
3008.0 0.0003324 2928.06909 2929.39795
2900.0 0.0003448 2928.05029 2929.37598
2909.0 0.0003438 2928.03174 2929.29297
2894.0 0.0003455 2928.01343 2929.27588
2969.0 0.0003368 2927.99536 2929.26147
2886.0 0.0003465 2927.97778 2929.24683
3004.0 0.0003329 2927.96045 2929.23462
2876.0 0.0003477 2927.94312 2929.22534
2846.0 0.000351 2927.92627 2929.21582
2948.0 0.0003392 2927.90942 2929.20996
2949.0 0.0003391 2927.89282 2929.20410
2935.0 0.0003407 2927.87646 2929.20190
2919.0 0.0003426 2927.86011 2929.20166
2956.0 0.0003383 2927.84399 2929.78979
2920.0 0.0003425 2927.82764 2929.80200
2922.0 0.0003422 2927.81152 2929.82104
2912.0 0.0003434 2927.79541 2929.84033
2903.0 0.0003445 2927.77930 2929.86475
2964.0 0.0003374 2927.76318 2929.89551
2906.0 0.0003441 2927.74707 2929.93286
2939.0 0.0003403 2927.73071 2929.98169
2891.0 0.0003459 2927.71436 2930.04248
2972.0 0.0003365 2927.69775 2930.12012
2969.0 0.0003368 2927.68115 2930.22192
2926.0 0.0003418 2927.66406 2930.34741
2922.0 0.0003422 2927.64722 2930.49805
3022.0 0.0003309 2927.62988 2930.66943
2906.0 0.0003441 2927.61230 2930.84058
2997.0 0.0003337 2927.59448 2930.97217
2957.0 0.0003382 2927.57617 2931.02271
2965.0 0.0003373 2927.55786 2930.98560
2920.0 0.0003425 2927.53906 2930.89038
2911.0 0.0003435 2927.51978 2930.79126
2930.0 0.0003413 2927.50024 2930.70850
2854.0 0.0003504 2927.48022 2930.65283
2879.0 0.0003473 2927.45972 2930.62598
2936.0 0.0003406 2927.43872 2930.62598
2791.0 0.000358 2927.41724 2930.65063
2875.0 0.0003478 2927.39502 2930.69556
2943.0 0.0003398 2927.37256 2930.75928
3001.0 0.0003332 2927.34937 2930.84033
2926.0 0.0003418 2927.32568 2930.93701
2938.0 0.0003404 2927.30127 2931.04663
2903.0 0.0003445 2927.27612 2931.16406
2963.0 0.0003375 2927.25049 2931.28076
2845.0 0.000351 2927.22412 2931.39038
2917.0 0.0003428 2927.19702 2931.49683
2907.0 0.0003440 2927.16895 2931.60913
2801.0 0.000357 2927.14038 2931.73584
3003.0 0.0003330 2927.11084 2931.88477
2940.0 0.0003401 2927.08057 2932.05737
2906.0 0.0003441 2927.04932 2932.25586
2943.0 0.0003398 2927.01733 2932.48462
2893.0 0.0003457 2926.98438 2932.74536
2848.0 0.000351 2926.95044 2933.04321
2894.0 0.0003455 2926.91577 2933.38330
2900.0 0.0003448 2926.87988 2933.77344
2984.0 0.0003351 2926.84302 2934.22461
2977.0 0.0003359 2926.80542 2934.74146
2919.0 0.0003426 2926.76660 2935.35840
2894.0 0.0003455 2926.72656 2936.09399
3010.0 0.0003322 2926.68555 2936.98315
2919.0 0.0003426 2926.64355 2938.07471
2934.0 0.0003408 2926.60034 2939.43066
2936.0 0.0003406 2926.55591 2941.12646
2967.0 0.0003370 2926.51025 2943.25220
2956.0 0.0003383 2926.46362 2945.90161
2981.0 0.0003355 2926.41553 2949.16602
2940.0 0.0003401 2926.36646 2953.08398
2974.0 0.0003362 2926.31592 2957.65283
3016.0 0.0003316 2926.26416 2962.49316
2980.0 0.0003356 2926.21094 2967.93115
3001.0 0.0003332 2926.15649 2974.46045
2975.0 0.0003361 2926.10083 2983.03809
3059.0 0.0003269 2926.04370 2994.47949
3020.0 0.0003311 2925.98511 3009.09058
3022.0 0.0003309 2925.92529 3026.08325
3032.0 0.0003298 2925.86377 3042.78784
2995.0 0.0003339 2925.80103 3054.24561
3004.0 0.0003329 2925.73682 3055.38696
3064.0 0.0003264 2925.67090 3045.42822
2997.0 0.0003337 2925.60352 3028.66162
2969.0 0.0003368 2925.53467 3010.36572
3045.0 0.0003284 2925.46436 2993.76807
3034.0 0.0003296 2925.39233 2980.07544
2968.0 0.0003369 2925.31885 2969.37427
3043.0 0.0003286 2925.24365 2961.40210
3044.0 0.0003285 2925.16675 2955.44043
2964.0 0.0003374 2925.08838 2951.08691
2907.0 0.0003440 2925.00830 2947.91162
2965.0 0.0003373 2924.92627 2945.57422
2843.0 0.000352 2924.84277 2943.82935
2977.0 0.0003359 2924.75757 2942.51440
2999.0 0.0003334 2924.67065 2941.51587
2968.0 0.0003369 2924.58203 2940.75635
2900.0 0.0003448 2924.49146 2940.19312
3008.0 0.0003324 2924.39941 2939.78955
3020.0 0.0003311 2924.30518 2939.52222
2884.0 0.0003467 2924.20947 2939.37622
2964.0 0.0003374 2924.11157 2939.33667
2878.0 0.0003475 2924.01221 2939.39868
2937.0 0.0003405 2923.91089 2939.55688
2997.0 0.0003337 2923.80762 2939.80933
2922.0 0.0003422 2923.70239 2940.15625
2894.0 0.0003455 2923.59546 2940.59863
2880.0 0.0003472 2923.48633 2941.14331
3000.0 0.0003333 2923.37549 2941.79639
2897.0 0.0003452 2923.26270 2942.56738
2983.0 0.0003352 2923.14795 2943.46753
2966.0 0.0003372 2923.03125 2944.51514
2875.0 0.0003478 2922.91260 2945.72656
2928.0 0.0003415 2922.79175 2947.12671
2913.0 0.0003433 2922.66919 2948.74707
2948.0 0.0003392 2922.54443 2950.62476
2935.0 0.0003407 2922.41772 2952.80566
3068.0 0.0003259 2922.28906 2955.35034
3001.0 0.0003332 2922.15820 2958.33984
2949.0 0.0003391 2922.02539 2961.87524
2982.0 0.0003353 2921.89038 2966.10254
2957.0 0.0003382 2921.75342 2971.22510
2989.0 0.0003346 2921.61450 2977.54614
3070.0 0.0003257 2921.47314 2985.51025
3026.0 0.0003305 2921.33008 2995.76221
2972.0 0.0003365 2921.18457 3009.20630
3063.0 0.0003265 2921.03711 3027.03345
3076.0 0.0003251 2920.88770 3050.69336
3025.0 0.0003306 2920.73608 3081.76416
3119.0 0.0003206 2920.58203 3121.65503
3118.0 0.0003207 2920.42627 3170.96118
3275.0 0.0003053 2920.26807 3228.04150
3339.0 0.0002995 2920.10791 3286.48511
3357.0 0.0002979 2919.94531 3333.18774
3370.0 0.0002967 2919.78076 3352.75562
3338.0 0.0002996 2919.61401 3340.12866
3369.0 0.0002968 2919.44531 3306.47241
3265.0 0.0003063 2919.27417 3269.13940
3212.0 0.0003113 2919.10083 3241.02417
3205.0 0.0003120 2918.92554 3228.98364
3253.0 0.0003074 2918.74805 3236.32251
3310.0 0.0003021 2918.56812 3264.66675
3362.0 0.0002974 2918.38623 3314.35229
3436.0 0.0002910 2918.20215 3383.33130
3537.0 0.0002827 2918.01587 3464.11377
3636.0 0.0002750 2917.82739 3539.26904
3657.0 0.0002734 2917.63672 3581.61646
3656.0 0.0002735 2917.44360 3569.16284
3653.0 0.0002737 2917.24878 3505.13281
3484.0 0.0002870 2917.05151 3414.04565
3356.0 0.0002980 2916.85205 3320.40308
3280.0 0.0003049 2916.65039 3237.57031
3199.0 0.0003126 2916.44653 3169.81152
3107.0 0.0003219 2916.24072 3116.80688
3042.0 0.0003287 2916.03247 3076.44531
3017.0 0.0003315 2915.82227 3046.15405
2995.0 0.0003339 2915.60962 3023.47461
3104.0 0.0003222 2915.39502 3006.36743
3004.0 0.0003329 2915.17822 2993.19702
2976.0 0.0003360 2914.95923 2982.83936
2962.0 0.0003376 2914.73804 2974.50024
2933.0 0.0003409 2914.51489 2967.64429
2918.0 0.0003427 2914.28955 2961.91138
3035.0 0.0003295 2914.06201 2957.05249
2939.0 0.0003403 2913.83228 2952.89429
2980.0 0.0003356 2913.60034 2949.29810
2975.0 0.0003361 2913.36646 2946.16919
2988.0 0.0003347 2913.13037 2943.43213
3010.0 0.0003322 2912.89233 2941.02710
2844.0 0.000352 2912.65210 2938.91138
2869.0 0.0003486 2912.40991 2937.04248
2982.0 0.0003353 2912.16553 2935.39258
2932.0 0.0003411 2911.91895 2933.95337
2849.0 0.000351 2911.67065 2932.66382
2976.0 0.0003360 2911.41992 2931.50684
2920.0 0.0003425 2911.16748 2930.43311
3012.0 0.0003320 2910.91284 2929.39893
2975.0 0.0003361 2910.65625 2928.38818
2933.0 0.0003409 2910.39746 2927.42334
2917.0 0.0003428 2910.13696 2926.53003
2962.0 0.0003376 2909.87427 2925.72754
2904.0 0.0003444 2909.60962 2925.02441
2933.0 0.0003409 2909.34326 2924.45288
2819.0 0.000355 2909.07471 2923.94434
2872.0 0.0003482 2908.80420 2923.53174
2953.0 0.0003386 2908.53198 2923.21924
2920.0 0.0003425 2908.25781 2923.00928
2949.0 0.0003391 2907.98169 2922.91455
2991.0 0.0003343 2907.70361 2922.94897
2886.0 0.0003465 2907.42383 2923.13623
2886.0 0.0003465 2907.14209 2923.51440
2859.0 0.0003498 2906.85864 2924.13696
2884.0 0.0003467 2906.57324 2925.08691
2963.0 0.0003375 2906.28613 2926.48364
2892.0 0.0003458 2905.99731 2928.49390
2952.0 0.0003388 2905.70679 2931.34277
2939.0 0.0003403 2905.41431 2935.29614
2926.0 0.0003418 2905.12012 2940.64722
2855.0 0.0003503 2904.82446 2947.66064
2885.0 0.0003466 2904.52686 2956.44897
2902.0 0.0003446 2904.22778 2966.70410
2921.0 0.0003423 2903.92676 2977.22021
2961.0 0.0003377 2903.62427 2985.50122
2984.0 0.0003351 2903.32031 2988.49707
2921.0 0.0003423 2903.01465 2984.95752
2958.0 0.0003381 2902.70728 2976.73682
2893.0 0.0003457 2902.39844 2966.99121
2967.0 0.0003370 2902.08813 2958.08374
2916.0 0.0003429 2901.77637 2951.10010
2934.0 0.0003408 2901.46289 2946.42017
3005.0 0.0003328 2901.14819 2944.11084
3004.0 0.0003329 2900.83203 2944.18799
2943.0 0.0003398 2900.51440 2946.59253
3016.0 0.0003316 2900.19507 2951.64795
2858.0 0.0003499 2899.87476 2959.30713
2876.0 0.0003477 2899.55273 2969.50708
3028.0 0.0003303 2899.22974 2981.96582
3040.0 0.0003289 2898.90527 2995.90430
3057.0 0.0003271 2898.57935 3009.27539
3104.0 0.0003222 2898.25220 3018.16235
2979.0 0.0003357 2897.92407 3018.35962
2984.0 0.0003351 2897.59473 3009.01123
2921.0 0.0003423 2897.26392 2993.56421
3001.0 0.0003332 2896.93213 2976.55688
2985.0 0.0003350 2896.59888 2960.91870
3035.0 0.0003295 2896.26489 2947.79370
2929.0 0.0003414 2895.92969 2937.30664
2933.0 0.0003409 2895.59326 2929.15527
2907.0 0.0003440 2895.25610 2922.90698
2896.0 0.0003453 2894.91772 2918.12427
2946.0 0.0003394 2894.57837 2914.42822
2978.0 0.0003358 2894.23804 2911.51685
2902.0 0.0003446 2893.89673 2909.16919
2931.0 0.0003412 2893.55444 2907.22510
2854.0 0.0003504 2893.21143 2905.57813
2892.0 0.0003458 2892.86743 2904.15454
2955.0 0.0003384 2892.52271 2902.90161
2869.0 0.0003486 2892.17725 2901.78906
2859.0 0.0003498 2891.83081 2900.78589
2837.0 0.000352 2891.48389 2899.87427
2937.0 0.0003405 2891.13599 2899.03857
2987.0 0.0003348 2890.78760 2898.26807
2855.0 0.0003503 2890.43823 2897.55273
2887.0 0.0003464 2890.08838 2896.88525
2902.0 0.0003446 2889.73804 2896.26123
2901.0 0.0003447 2889.38696 2895.67456
2888.0 0.0003463 2889.03540 2895.12207
2914.0 0.0003432 2888.68335 2894.60034
2878.0 0.0003475 2888.33081 2894.10864
2763.0 0.000362 2887.97754 2893.64722
3001.0 0.0003332 2887.62402 2893.21558
2955.0 0.0003384 2887.27002 2892.81519
2848.0 0.000351 2886.91577 2892.44971
2860.0 0.0003497 2886.56104 2892.12329
2848.0 0.000351 2886.20605 2891.84497
2900.0 0.0003448 2885.85083 2891.62695
2782.0 0.000359 2885.49512 2891.47852
2972.0 0.0003365 2885.13916 2891.41772
2886.0 0.0003465 2884.78320 2891.45532
2876.0 0.0003477 2884.42700 2891.59692
2877.0 0.0003476 2884.07056 2891.82959
2749.0 0.000364 2883.71411 2892.14038
2858.0 0.0003499 2883.35742 2892.31714
2944.0 0.0003397 2883.00073 2892.27734
2875.0 0.0003478 2882.64404 2891.99487
2851.0 0.000351 2882.28711 2891.57983
2915.0 0.0003431 2881.93042 2890.85181
2989.0 0.0003346 2881.57373 2890.61792
2866.0 0.0003489 2881.21704 2890.61353
2910.0 0.0003436 2880.86060 2890.90186
2880.0 0.0003472 2880.50415 2891.52759
2913.0 0.0003433 2880.14819 2892.57275
2898.0 0.0003451 2879.79199 2894.12573
2879.0 0.0003473 2879.43628 2896.31201
2848.0 0.000351 2879.08057 2899.28687
2844.0 0.000352 2878.72534 2903.19263
2938.0 0.0003404 2878.37036 2908.06494
2862.0 0.0003494 2878.01587 2913.65869
2886.0 0.0003465 2877.66162 2918.53662
2885.0 0.0003466 2877.30762 2922.33740
2958.0 0.0003381 2876.95410 2923.03491
2916.0 0.0003429 2876.60107 2920.48828
2944.0 0.0003397 2876.24854 2916.07275
2900.0 0.0003448 2875.89648 2911.49194
2967.0 0.0003370 2875.54492 2907.85059
2835.0 0.000353 2875.19385 2905.58496
2904.0 0.0003444 2874.84351 2904.67505
2917.0 0.0003428 2874.49390 2904.72510
2952.0 0.0003388 2874.14478 2904.91772
2830.0 0.000353 2873.79639 2904.21631
2906.0 0.0003441 2873.44849 2901.97339
2901.0 0.0003447 2873.10156 2898.44604
2858.0 0.0003499 2872.75513 2894.43018
3008.0 0.0003324 2872.40967 2890.59937
2886.0 0.0003465 2872.06494 2887.28296
2858.0 0.0003499 2871.72095 2884.54785
2850.0 0.000351 2871.37793 2882.35474
2926.0 0.0003418 2871.03564 2880.62402
2817.0 0.000355 2870.69458 2879.26221
2902.0 0.0003446 2870.35425 2878.19580
2849.0 0.000351 2870.01489 2877.36279
2872.0 0.0003482 2869.67627 2876.71680
2869.0 0.0003486 2869.33887 2876.22949
2808.0 0.000356 2869.00269 2875.88159
2896.0 0.0003453 2868.66724 2875.65942
2871.0 0.0003483 2868.33301 2875.54883
2849.0 0.000351 2867.99976 2875.52441
2868.0 0.0003487 2867.66772 2875.55811
2866.0 0.0003489 2867.33667 2875.64844
2848.0 0.000351 2867.00708 2875.84448
2879.0 0.0003473 2866.67847 2876.21582
2915.0 0.0003431 2866.35107 2876.81982
2915.0 0.0003431 2866.02515 2877.66113
2881.0 0.0003471 2865.70020 2878.68677
2982.0 0.0003353 2865.37671 2879.76953
2953.0 0.0003386 2865.05420 2880.82886
2914.0 0.0003432 2864.73340 2881.96460
2933.0 0.0003409 2864.41357 2883.40137
2877.0 0.0003476 2864.09546 2885.32153
2875.0 0.0003478 2863.77832 2887.73340
2921.0 0.0003423 2863.46289 2890.46265
2924.0 0.0003420 2863.14893 2893.16138
2950.0 0.0003390 2862.83618 2895.27173
2982.0 0.0003353 2862.52490 2896.17944
2909.0 0.0003438 2862.21509 2895.75854
2986.0 0.0003349 2861.90698 2894.69141
2927.0 0.0003416 2861.60010 2893.98462
2921.0 0.0003423 2861.29492 2894.40576
2879.0 0.0003473 2860.99146 2896.32324
2912.0 0.0003434 2860.68921 2899.72827
2869.0 0.0003486 2860.38867 2904.12134
2915.0 0.0003431 2860.08960 2908.29077
3006.0 0.0003327 2859.79224 2910.39087
2884.0 0.0003467 2859.49634 2908.92603
2896.0 0.0003453 2859.20239 2904.05054
2842.0 0.000352 2858.90991 2897.26929
2895.0 0.0003454 2858.61914 2890.35938
2893.0 0.0003457 2858.32983 2884.17920
2828.0 0.000354 2858.04248 2879.04175
2842.0 0.000352 2857.75659 2874.93823
2863.0 0.0003493 2857.47241 2871.73193
2849.0 0.000351 2857.19019 2869.25464
2870.0 0.0003484 2856.90942 2867.34424
2948.0 0.0003392 2856.63062 2865.86450
2902.0 0.0003446 2856.35352 2864.71436
2899.0 0.0003449 2856.07813 2863.82520
2887.0 0.0003464 2855.80469 2863.13428
2886.0 0.0003465 2855.53271 2862.62280
2870.0 0.0003484 2855.26270 2862.29932
2949.0 0.0003391 2854.99438 2862.17358
2877.0 0.0003476 2854.72803 2862.26880
2899.0 0.0003449 2854.46338 2862.62964
2830.0 0.000353 2854.20068 2863.19507
2913.0 0.0003433 2853.93970 2864.22095
2793.0 0.000358 2853.68042 2865.60010
2914.0 0.0003432 2853.42310 2867.24780
2843.0 0.000352 2853.16748 2868.88721
2801.0 0.000357 2852.91382 2870.00391
2934.0 0.0003408 2852.66211 2870.03052
2927.0 0.0003416 2852.41211 2868.79175
2893.0 0.0003457 2852.16382 2866.67993
2807.0 0.000356 2851.91772 2864.28516
2906.0 0.0003441 2851.67334 2862.01904
2869.0 0.0003486 2851.43066 2860.06055
2866.0 0.0003489 2851.19019 2858.44092
2804.0 0.000357 2850.95117 2857.13208
2838.0 0.000352 2850.71436 2856.08008
2758.0 0.000363 2850.47900 2855.23071
2930.0 0.0003413 2850.24585 2854.53564
2846.0 0.000351 2850.01440 2853.95703
2892.0 0.0003458 2849.78491 2853.46362
2995.0 0.0003339 2849.55713 2853.03442
2878.0 0.0003475 2849.33130 2852.65405
2934.0 0.0003408 2849.10718 2852.31274
2824.0 0.000354 2848.88501 2852.00269
2840.0 0.000352 2848.66479 2851.71924
2858.0 0.0003499 2848.44604 2851.45996
2852.0 0.0003506 2848.22949 2851.22021
2904.0 0.0003444 2848.01465 2851.00073
2779.0 0.000360 2847.80151 2850.79883
2874.0 0.0003479 2847.59009 2850.61499
2864.0 0.0003492 2847.38062 2850.44775
2856.0 0.0003501 2847.17310 2850.29883
2859.0 0.0003498 2846.96704 2850.16797
2858.0 0.0003499 2846.76294 2850.05469
2878.0 0.0003475 2846.56055 2849.96216
2799.0 0.000357 2846.35986 2849.89038
2898.0 0.0003451 2846.16089 2849.84106
2894.0 0.0003455 2845.96362 2849.81958
2854.0 0.0003504 2845.76831 2849.82666
2761.0 0.000362 2845.57446 2849.86621
2888.0 0.0003463 2845.38257 2849.94434
2879.0 0.0003473 2845.19214 2850.06934
2898.0 0.0003451 2845.00342 2850.55273
2781.0 0.000360 2844.81616 2850.80103
2815.0 0.000355 2844.63086 2851.12598
2807.0 0.000356 2844.44702 2851.55249
2914.0 0.0003432 2844.26465 2852.09741
2921.0 0.0003423 2844.08423 2852.79175
2861.0 0.0003495 2843.90503 2853.66870
2811.0 0.000356 2843.72754 2854.76709
2803.0 0.000357 2843.55151 2856.13452
2803.0 0.000357 2843.37720 2857.82715
2823.0 0.000354 2843.20410 2859.95215
2851.0 0.000351 2843.03271 2862.69751
2778.0 0.000360 2842.86279 2866.31445
2824.0 0.000354 2842.69409 2871.07520
2768.0 0.000361 2842.52686 2877.20947
2899.0 0.0003449 2842.36108 2884.80933
2943.0 0.0003398 2842.19678 2893.60596
2918.0 0.0003427 2842.03369 2902.83521
2866.0 0.0003489 2841.87207 2910.02441
2886.0 0.0003465 2841.71167 2913.09619
2939.0 0.0003403 2841.55273 2911.01929
2891.0 0.0003459 2841.39478 2905.17773
2843.0 0.000352 2841.23828 2898.07178
2841.0 0.000352 2841.08301 2891.61841
2978.0 0.0003358 2840.92871 2886.68213
2776.0 0.000360 2840.77563 2883.35474
2911.0 0.0003435 2840.62378 2881.73340
2795.0 0.000358 2840.47314 2880.75903
2843.0 0.000352 2840.32349 2880.84521
2908.0 0.0003439 2840.17480 2882.33594
2843.0 0.000352 2840.02734 2885.61450
2739.0 0.000365 2839.88062 2890.89404
2900.0 0.0003448 2839.73511 2898.04639
2989.0 0.0003346 2839.59058 2906.32959
2966.0 0.0003372 2839.44678 2914.04199
2840.0 0.000352 2839.30396 2918.66528
2917.0 0.0003428 2839.16187 2918.10547
2868.0 0.0003487 2839.02075 2912.28369
2926.0 0.0003418 2838.88037 2903.19971
2887.0 0.0003464 2838.74097 2893.34692
2875.0 0.0003478 2838.60205 2884.40039
2883.0 0.0003469 2838.46387 2877.04639
2883.0 0.0003469 2838.32642 2871.33008
2871.0 0.0003483 2838.18970 2866.95264
2751.0 0.000364 2838.05347 2863.45020
2842.0 0.000352 2837.91797 2860.38696
2917.0 0.0003428 2837.78296 2857.54224
2906.0 0.0003441 2837.64819 2854.92993
2814.0 0.000355 2837.51416 2852.62915
2792.0 0.000358 2837.38062 2850.67529
2818.0 0.000355 2837.24731 2849.05005
2766.0 0.000362 2837.11450 2847.71045
2852.0 0.0003506 2836.98193 2846.60498
2812.0 0.000356 2836.84961 2845.69019
2872.0 0.0003482 2836.71777 2844.93115
2810.0 0.000356 2836.58594 2844.29492
2920.0 0.0003425 2836.45435 2843.75952
2895.0 0.0003454 2836.32300 2843.31006
2871.0 0.0003483 2836.19189 2842.93530
2820.0 0.000355 2836.06079 2842.63257
2920.0 0.0003425 2835.92969 2842.39893
2831.0 0.000353 2835.79858 2842.24023
2835.0 0.000353 2835.66748 2842.16724
2864.0 0.0003492 2835.53613 2842.18970
2843.0 0.000352 2835.40503 2842.32202
2880.0 0.0003472 2835.27344 2842.56323
2895.0 0.0003454 2835.14185 2842.94043
2849.0 0.000351 2835.01001 2843.41699
2905.0 0.0003442 2834.87817 2843.92041
2827.0 0.000354 2834.74585 2844.30396
2838.0 0.000352 2834.61304 2844.37622
2705.0 0.000370 2834.47998 2844.05151
2897.0 0.0003452 2834.34668 2843.35864
2791.0 0.000358 2834.21265 2842.51538
2911.0 0.0003435 2834.07837 2841.68286
2876.0 0.0003477 2833.94336 2840.94556
2758.0 0.000363 2833.80786 2840.32764
2836.0 0.000353 2833.67188 2839.82520
2848.0 0.000351 2833.53516 2839.42505
2871.0 0.0003483 2833.39795 2839.10669
2882.0 0.0003470 2833.25977 2838.83765
2812.0 0.000356 2833.12085 2838.63794
2792.0 0.000358 2832.98120 2838.48071
2843.0 0.000352 2832.84082 2838.35913
2855.0 0.0003503 2832.69946 2838.26660
2873.0 0.0003481 2832.55713 2838.20288
2754.0 0.000363 2832.41382 2838.16724
2879.0 0.0003473 2832.26978 2838.15967
2860.0 0.0003497 2832.12451 2838.18408
2776.0 0.000360 2831.97803 2838.28198
2845.0 0.000351 2831.83057 2838.35474
2804.0 0.000357 2831.68213 2838.52026
2808.0 0.000356 2831.53223 2838.75903
2865.0 0.0003490 2831.38110 2839.09546
2870.0 0.0003484 2831.22900 2839.55908
2839.0 0.000352 2831.07544 2840.18726
2752.0 0.000363 2830.92041 2841.02563
2811.0 0.000356 2830.76416 2842.34375
2861.0 0.0003495 2830.60645 2843.72217
2861.0 0.0003495 2830.44702 2845.37329
2773.0 0.000361 2830.28638 2847.18628
2748.0 0.000364 2830.12427 2848.89038
2811.0 0.000356 2829.96045 2850.09521
2749.0 0.000364 2829.79492 2850.53320
2862.0 0.0003494 2829.62793 2850.26636
2833.0 0.000353 2829.45898 2849.56055
2817.0 0.000355 2829.28857 2848.57886
2891.0 0.0003459 2829.11646 2847.35474
2843.0 0.000352 2828.94238 2845.95166
2795.0 0.000358 2828.76636 2844.53003
2888.0 0.0003463 2828.58862 2843.25464
2893.0 0.0003457 2828.40894 2842.21240
2912.0 0.0003434 2828.22729 2841.41650
2822.0 0.000354 2828.04370 2840.84497
2828.0 0.000354 2827.85815 2840.46753
2792.0 0.000358 2827.67041 2840.23413
2814.0 0.000355 2827.48071 2840.14185
2656.0 0.000377 2827.28906 2840.15894
2906.0 0.0003441 2827.09497 2840.27051
2902.0 0.0003446 2826.89893 2840.46509
2916.0 0.0003429 2826.70044 2840.74023
2917.0 0.0003428 2826.49976 2841.09106
2886.0 0.0003465 2826.29688 2841.52002
2812.0 0.000356 2826.09180 2842.03296
2845.0 0.000351 2825.88403 2842.63403
2846.0 0.000351 2825.67407 2843.33203
2813.0 0.000355 2825.46191 2844.14038
2831.0 0.000353 2825.24707 2845.07324
2897.0 0.0003452 2825.02979 2846.14404
2892.0 0.0003458 2824.81006 2847.37964
2693.0 0.000371 2824.58789 2848.80029
2847.0 0.000351 2824.36304 2850.44556
2816.0 0.000355 2824.13574 2852.35229
2967.0 0.0003370 2823.90552 2854.57520
2866.0 0.0003489 2823.67310 2857.17969
2832.0 0.000353 2823.43774 2860.25610
2858.0 0.0003499 2823.19971 2863.92065
2772.0 0.000361 2822.95898 2868.33838
2931.0 0.0003412 2822.71558 2873.74243
2967.0 0.0003370 2822.46948 2880.45776
2907.0 0.0003440 2822.22046 2888.94067
2858.0 0.0003499 2821.96875 2899.81201
2919.0 0.0003426 2821.71411 2913.88379
2945.0 0.0003396 2821.45654 2932.15845
2942.0 0.0003399 2821.19629 2955.78174
2944.0 0.0003397 2820.93311 2985.91895
3076.0 0.0003251 2820.66675 3023.41772
3084.0 0.0003243 2820.39771 3068.06567
3130.0 0.0003195 2820.12573 3117.07593
3170.0 0.0003155 2819.85059 3163.05713
3199.0 0.0003126 2819.57275 3193.88330
3233.0 0.0003093 2819.29150 3198.47412
3200.0 0.0003125 2819.00757 3175.92310
3145.0 0.0003180 2818.72046 3136.43286
3253.0 0.0003074 2818.43042 3092.69629
3009.0 0.0003323 2818.13721 3053.14380
3150.0 0.0003175 2817.84082 3021.41455
3088.0 0.0003238 2817.54150 2998.36499
3030.0 0.0003300 2817.23877 2983.72217
2991.0 0.0003343 2816.93335 2976.97607
3032.0 0.0003298 2816.62451 2977.73730
2944.0 0.0003397 2816.31250 2985.90186
2994.0 0.0003340 2815.99756 3001.62183
3170.0 0.0003155 2815.67920 3025.15186
3093.0 0.0003233 2815.35791 3056.39697
3143.0 0.0003182 2815.03320 3093.97925
3159.0 0.0003166 2814.70532 3133.79224
3167.0 0.0003158 2814.37427 3168.33154
3204.0 0.0003121 2814.04028 3189.66772
3205.0 0.0003120 2813.70288 3196.04663
3199.0 0.0003126 2813.36206 3194.48560
3272.0 0.0003056 2813.01831 3195.65674
3296.0 0.0003034 2812.67114 3207.28418
3240.0 0.0003086 2812.32104 3231.95947
3322.0 0.0003010 2811.96753 3266.33984
3257.0 0.0003070 2811.61084 3300.03394
3425.0 0.0002920 2811.25073 3316.88354
3289.0 0.0003040 2810.88770 3303.35571
3334.0 0.0002999 2810.52148 3259.38452
3281.0 0.0003048 2810.15186 3197.72241
3158.0 0.0003167 2809.77905 3132.96484
3121.0 0.0003204 2809.40308 3074.14771
2953.0 0.0003386 2809.02393 3024.66895
3047.0 0.0003282 2808.64136 2984.73120
3030.0 0.0003300 2808.25586 2953.21460
2939.0 0.0003403 2807.86719 2928.59326
2989.0 0.0003346 2807.47534 2909.45435
2881.0 0.0003471 2807.08032 2894.45874
2912.0 0.0003434 2806.68188 2882.63843
2914.0 0.0003432 2806.28052 2873.16626
2893.0 0.0003457 2805.87598 2865.45264
2932.0 0.0003411 2805.46851 2859.07837
2849.0 0.000351 2805.05762 2853.74146
2847.0 0.000351 2804.64404 2849.21582
2878.0 0.0003475 2804.22705 2845.32617
2745.0 0.000364 2803.80713 2841.91138
2825.0 0.000354 2803.38428 2838.84766
2786.0 0.000359 2802.95801 2836.04346
2913.0 0.0003433 2802.52905 2833.46875
2804.0 0.000357 2802.09692 2831.12842
2867.0 0.0003488 2801.66211 2829.02441
2759.0 0.000362 2801.22412 2827.14160
2749.0 0.000364 2800.78345 2825.45679
2816.0 0.000355 2800.33960 2823.94043
2898.0 0.0003451 2799.89282 2822.56494
2857.0 0.0003500 2799.44360 2821.31787
2878.0 0.0003475 2798.99121 2820.19946
2736.0 0.000365 2798.53613 2819.21265
2783.0 0.000359 2798.07813 2818.36304
2784.0 0.000359 2797.61743 2817.66187
2871.0 0.0003483 2797.15405 2817.11865
2844.0 0.000352 2796.68799 2816.75732
2753.0 0.000363 2796.21924 2816.60938
2830.0 0.000353 2795.74780 2816.71851
2880.0 0.0003472 2795.27393 2817.14429
2847.0 0.000351 2794.79712 2817.95410
2744.0 0.000364 2794.31812 2819.22388
2836.0 0.000353 2793.83643 2821.02051
2898.0 0.0003451 2793.35254 2823.35791
2821.0 0.000354 2792.86597 2826.12500
2762.0 0.000362 2792.37695 2828.95581
2740.0 0.000365 2791.88574 2831.15186
2903.0 0.0003445 2791.39185 2831.92896
2817.0 0.000355 2790.89600 2830.96313
2806.0 0.000356 2790.39771 2828.71240
2761.0 0.000362 2789.89746 2826.02368
2863.0 0.0003493 2789.39478 2823.68896
2758.0 0.000363 2788.89014 2821.87695
2845.0 0.000351 2788.38330 2820.83618
2766.0 0.000362 2787.87427 2820.62524
2857.0 0.0003500 2787.36353 2821.27905
2878.0 0.0003475 2786.85059 2822.85767
2652.0 0.000377 2786.33594 2825.45850
2817.0 0.000355 2785.81909 2829.22095
2890.0 0.0003460 2785.30054 2834.31543
2739.0 0.000365 2784.78052 2840.91162
2866.0 0.0003489 2784.25830 2849.08936
2804.0 0.000357 2783.73462 2858.67480
2845.0 0.000351 2783.20923 2869.06177
2867.0 0.0003488 2782.68237 2879.49585
2903.0 0.0003445 2782.15356 2889.41211
2834.0 0.000353 2781.62378 2899.91089
2933.0 0.0003409 2781.09204 2913.01782
2901.0 0.0003447 2780.55933 2930.66772
2805.0 0.000357 2780.02515 2953.79004
2906.0 0.0003441 2779.48950 2981.54492
2994.0 0.0003340 2778.95288 3010.23242
3048.0 0.0003281 2778.41479 3032.57495
2985.0 0.0003350 2777.87573 3039.88135
2943.0 0.0003398 2777.33545 3027.92969
3061.0 0.0003267 2776.79419 3000.68433
3005.0 0.0003328 2776.25195 2966.62402
3018.0 0.0003313 2775.70874 2932.88110
2971.0 0.0003366 2775.16479 2903.12427
2887.0 0.0003464 2774.61987 2878.45605
2885.0 0.0003466 2774.07446 2858.65967
2862.0 0.0003494 2773.52808 2843.03906
2842.0 0.000352 2772.98120 2830.79468
2829.0 0.000353 2772.43335 2821.18970
2791.0 0.000358 2771.88550 2813.58545
2828.0 0.000354 2771.33691 2807.48022
2904.0 0.0003444 2770.78784 2802.48950
2691.0 0.000372 2770.23877 2798.33228
2821.0 0.000354 2769.68896 2794.80591
2825.0 0.000354 2769.13916 2791.76465
2719.0 0.000368 2768.58911 2789.10547
2771.0 0.000361 2768.03906 2786.75049
2764.0 0.000362 2767.48853 2784.64355
2753.0 0.000363 2766.93848 2782.74072
2767.0 0.000361 2766.38843 2781.01807
2805.0 0.000357 2765.83813 2779.42725
2807.0 0.000356 2765.28833 2777.95923
2778.0 0.000360 2764.73853 2776.59106
2859.0 0.0003498 2764.18945 2775.31152
2646.0 0.000378 2763.64038 2774.10840
2760.0 0.000362 2763.09180 2772.97070
2706.0 0.000370 2762.54370 2771.89160
2805.0 0.000357 2761.99609 2770.86206
2775.0 0.000360 2761.44922 2769.87720
2817.0 0.000355 2760.90283 2768.93115
2778.0 0.000360 2760.35742 2768.02026
2686.0 0.000372 2759.81250 2767.14111
2773.0 0.000361 2759.26855 2766.28857
2700.0 0.000370 2758.72534 2765.46240
2750.0 0.000364 2758.18335 2764.65991
2763.0 0.000362 2757.64233 2763.87744
2794.0 0.000358 2757.10229 2763.11328
2692.0 0.000371 2756.56348 2762.39673
2754.0 0.000363 2756.02563 2761.66772
2658.0 0.000376 2755.48950 2760.95215
2678.0 0.000373 2754.95410 2760.25000
2839.0 0.000352 2754.42065 2759.56152
2760.0 0.000362 2753.88818 2758.89502
2740.0 0.000365 2753.35767 2758.23047
2713.0 0.000369 2752.82837 2757.57568
2702.0 0.000370 2752.30078 2756.93018
2814.0 0.000355 2751.77490 2756.29639
2716.0 0.000368 2751.25073 2755.67139
2731.0 0.000366 2750.72827 2755.05322
2691.0 0.000372 2750.20752 2754.44287
2765.0 0.000362 2749.68896 2753.84253
2779.0 0.000360 2749.17212 2752.94287
2840.0 0.000352 2748.65771 2752.36011
2774.0 0.000360 2748.14502 2751.78564
2767.0 0.000361 2747.63452 2751.21753
2874.0 0.0003479 2747.12622 2750.65527
2747.0 0.000364 2746.61987 2750.10718
2696.0 0.000371 2746.11621 2749.55981
2773.0 0.000361 2745.61450 2749.01636
2698.0 0.000371 2745.11548 2748.48193
2800.0 0.000357 2744.61890 2747.95435
2669.0 0.000375 2744.12451 2747.43188
2669.0 0.000375 2743.63281 2746.91699
2824.0 0.000354 2743.14380 2746.40771
2805.0 0.000357 2742.65723 2745.90576
2742.0 0.000365 2742.17334 2745.41162
2729.0 0.000366 2741.69238 2744.92310
2700.0 0.000370 2741.21411 2744.44385
2786.0 0.000359 2740.73853 2743.74707
2836.0 0.000353 2740.26611 2743.28540
2765.0 0.000362 2739.79639 2742.83423
2765.0 0.000362 2739.32959 2742.39453
2741.0 0.000365 2738.86572 2741.96631
2742.0 0.000365 2738.40503 2741.55078
2679.0 0.000373 2737.94727 2741.15356
2798.0 0.000357 2737.49268 2740.77173
2715.0 0.000368 2737.04126 2740.40674
2674.0 0.000374 2736.59302 2739.67480
2728.0 0.000367 2736.14819 2739.33887
2677.0 0.000374 2735.70630 2738.99585
2774.0 0.000360 2735.26782 2738.63013
2752.0 0.000363 2734.83276 2738.22803
2688.0 0.000372 2734.40112 2737.80420
2845.0 0.000351 2733.97266 2737.37598
2733.0 0.000366 2733.54761 2736.95435
2760.0 0.000362 2733.12622 2736.55005
2738.0 0.000365 2732.70825 2736.16748
2698.0 0.000371 2732.29370 2735.80737
2746.0 0.000364 2731.88281 2735.46777
2729.0 0.000366 2731.47534 2735.15015
2689.0 0.000372 2731.07153 2734.85107
2626.0 0.000381 2730.67139 2734.57349
2733.0 0.000366 2730.27466 2734.31689
2733.0 0.000366 2729.88184 2734.08374
2793.0 0.000358 2729.49268 2733.87109
2769.0 0.000361 2729.10718 2733.68359
2816.0 0.000355 2728.72534 2733.52808
2744.0 0.000364 2728.34717 2733.40381
2720.0 0.000368 2727.97290 2733.31885
2718.0 0.000368 2727.60205 2733.27930
2710.0 0.000369 2727.23535 2733.29175
2751.0 0.000364 2726.87207 2733.36304
2645.0 0.000378 2726.51294 2733.50122
2715.0 0.000368 2726.15747 2733.71021
2684.0 0.000373 2725.80566 2733.97925
2809.0 0.000356 2725.45776 2734.29028
2703.0 0.000370 2725.11377 2734.60913
2712.0 0.000369 2724.77344 2734.91040
2689.0 0.000372 2724.43701 2735.21338
2713.0 0.000369 2724.10425 2735.57422
2771.0 0.000361 2723.77563 2736.05835
2675.0 0.000374 2723.45044 2736.83154
2769.0 0.000361 2723.12915 2737.73877
2830.0 0.000353 2722.81177 2738.94312
2669.0 0.000375 2722.49805 2740.52222
2737.0 0.000365 2722.18823 2742.57739
2742.0 0.000365 2721.88208 2745.25366
2786.0 0.000359 2721.57983 2748.73315
2760.0 0.000362 2721.28125 2753.25073
2701.0 0.000370 2720.98657 2759.08765
2785.0 0.000359 2720.69531 2766.55249
2798.0 0.000357 2720.40796 2775.93555
2810.0 0.000356 2720.12427 2787.39087
2877.0 0.0003476 2719.84424 2800.64600
2824.0 0.000354 2719.56787 2814.63745
2892.0 0.0003458 2719.29517 2826.96362
2878.0 0.0003475 2719.02588 2834.34473
2851.0 0.000351 2718.76050 2834.50171
2906.0 0.0003441 2718.49854 2828.09155
2826.0 0.000354 2718.23975 2818.23706
2863.0 0.0003493 2717.98486 2808.27686
2765.0 0.000362 2717.73340 2800.40112
2796.0 0.000358 2717.48511 2795.67041
2825.0 0.000354 2717.24048 2794.49487
2808.0 0.000356 2716.99927 2796.98999
2889.0 0.0003461 2716.76123 2803.06714
2786.0 0.000359 2716.52637 2812.29346
2757.0 0.000363 2716.29492 2823.48267
2863.0 0.0003493 2716.06665 2834.16821
2847.0 0.000351 2715.84155 2840.67847
2855.0 0.0003503 2715.61938 2839.71631
2850.0 0.000351 2715.40063 2830.90161
2747.0 0.000364 2715.18457 2816.86768
2731.0 0.000366 2714.97168 2801.18579
2764.0 0.000362 2714.76172 2786.37256
2743.0 0.000365 2714.55469 2773.56396
2747.0 0.000364 2714.35034 2762.99683
2773.0 0.000361 2714.14893 2754.49268
2778.0 0.000360 2713.95020 2747.73047
2706.0 0.000370 2713.75415 2742.14844
2760.0 0.000362 2713.56055 2737.89648
2743.0 0.000365 2713.36987 2734.49243
2719.0 0.000368 2713.18140 2731.73145
2776.0 0.000360 2712.99536 2729.46216
2771.0 0.000361 2712.81177 2727.56519
2668.0 0.000375 2712.63062 2725.96021
2848.0 0.000351 2712.45142 2724.58130
2809.0 0.000356 2712.27466 2723.38599
2735.0 0.000366 2712.10010 2722.34106
2864.0 0.0003492 2711.92725 2721.41943
2847.0 0.000351 2711.75659 2720.60181
2772.0 0.000361 2711.58789 2719.87280
2717.0 0.000368 2711.42114 2719.21924
2675.0 0.000374 2711.25586 2718.63184
2831.0 0.000353 2711.09253 2718.10083
2674.0 0.000374 2710.93066 2717.62085
2623.0 0.000381 2710.77051 2717.18774
2668.0 0.000375 2710.61157 2716.79712
2658.0 0.000376 2710.45435 2716.44482
2755.0 0.000363 2710.29834 2716.12769
2808.0 0.000356 2710.14355 2715.84717
2754.0 0.000363 2709.98999 2715.60010
2692.0 0.000371 2709.83740 2715.38599
2734.0 0.000366 2709.68604 2715.20825
2744.0 0.000364 2709.53540 2715.06909
2686.0 0.000372 2709.38574 2714.96973
2621.0 0.000382 2709.23682 2714.91553
2719.0 0.000368 2709.08862 2714.91846
2707.0 0.000369 2708.94092 2714.98438
2636.0 0.000379 2708.79395 2715.13428
2758.0 0.000363 2708.64722 2715.38477
2670.0 0.000375 2708.50098 2715.76514
2660.0 0.000376 2708.35474 2716.30615
2811.0 0.000356 2708.20898 2717.04614
2794.0 0.000358 2708.06323 2718.01807
2730.0 0.000366 2707.91748 2719.24780
2634.0 0.000380 2707.77173 2720.72070
2726.0 0.000367 2707.62573 2722.33862
2747.0 0.000364 2707.47949 2723.85571
2823.0 0.000354 2707.33301 2724.89844
2716.0 0.000368 2707.18579 2725.13037
2690.0 0.000372 2707.03833 2724.51978
2750.0 0.000364 2706.89038 2723.41675
2715.0 0.000368 2706.74146 2722.13672
2711.0 0.000369 2706.59204 2721.03418
2745.0 0.000364 2706.44165 2720.28564
2704.0 0.000370 2706.29028 2719.92651
2644.0 0.000378 2706.13794 2720.00244
2737.0 0.000365 2705.98438 2720.53613
2680.0 0.000373 2705.82959 2721.56030
2738.0 0.000365 2705.67358 2723.12622
2710.0 0.000369 2705.51611 2725.31689
2682.0 0.000373 2705.35742 2728.22852
2756.0 0.000363 2705.19702 2731.93286
2709.0 0.000369 2705.03491 2736.37769
2741.0 0.000365 2704.87109 2741.24756
2772.0 0.000361 2704.70557 2745.81421
2718.0 0.000368 2704.53809 2749.00757
2757.0 0.000363 2704.36865 2749.97754
2826.0 0.000354 2704.19727 2748.74976
2719.0 0.000368 2704.02344 2746.17603
2693.0 0.000371 2703.84766 2743.17529
2677.0 0.000374 2703.66943 2740.16797
2772.0 0.000361 2703.48901 2737.09204
2741.0 0.000365 2703.30591 2733.80933
2795.0 0.000358 2703.12036 2730.41333
2679.0 0.000373 2702.93237 2727.16064
2803.0 0.000357 2702.74146 2724.25928
2678.0 0.000373 2702.54785 2721.78369
2750.0 0.000364 2702.35156 2719.74951
2650.0 0.000377 2702.15210 2718.17114
2700.0 0.000370 2701.94971 2717.05566
2782.0 0.000359 2701.74438 2716.39136
2801.0 0.000357 2701.53589 2716.12256
2719.0 0.000368 2701.32422 2716.12720
2790.0 0.000358 2701.10938 2716.18750
2744.0 0.000364 2700.89111 2716.01367
2776.0 0.000360 2700.66943 2715.36694
2691.0 0.000372 2700.44434 2714.22510
2629.0 0.000380 2700.21582 2712.78174
2668.0 0.000375 2699.98364 2711.28491
2684.0 0.000373 2699.74780 2709.90698
2683.0 0.000373 2699.50854 2708.72705
2752.0 0.000363 2699.26538 2707.75342
2602.0 0.000384 2699.01831 2706.96167
2721.0 0.000368 2698.76758 2706.30493
2672.0 0.000374 2698.51294 2705.72656
2738.0 0.000365 2698.25439 2705.17725
2682.0 0.000373 2697.99194 2704.63428
2727.0 0.000367 2697.72534 2704.10986
2664.0 0.000375 2697.45459 2703.62915
2697.0 0.000371 2697.17993 2703.20947
2667.0 0.000375 2696.90112 2702.86621
2733.0 0.000366 2696.61816 2702.60327
2756.0 0.000363 2696.33105 2702.42358
2697.0 0.000371 2696.03955 2702.33545
2661.0 0.000376 2695.74414 2702.34277
2626.0 0.000381 2695.44409 2702.45044
2667.0 0.000375 2695.13989 2702.65161
2607.0 0.000384 2694.83130 2702.92847
2669.0 0.000375 2694.51855 2703.24170
2653.0 0.000377 2694.20117 2703.54175
2611.0 0.000383 2693.87964 2703.75928
2700.0 0.000370 2693.55371 2703.81445
2702.0 0.000370 2693.22339 2703.82520
2705.0 0.000370 2692.88867 2703.46338
2649.0 0.000378 2692.54932 2703.01392
2645.0 0.000378 2692.20581 2702.60815
2845.0 0.000351 2691.85767 2702.33472
2759.0 0.000362 2691.50537 2702.23975
2731.0 0.000366 2691.14868 2702.32935
2668.0 0.000375 2690.78760 2702.58350
2765.0 0.000362 2690.42212 2702.94556
2724.0 0.000367 2690.05200 2703.33325
2730.0 0.000366 2689.67798 2703.68579
2686.0 0.000372 2689.29932 2704.00708
2652.0 0.000377 2688.91650 2704.39087
2668.0 0.000375 2688.52930 2704.96460
2689.0 0.000372 2688.13818 2705.87207
2748.0 0.000364 2687.74268 2707.18384
2757.0 0.000363 2687.34277 2709.03784
2720.0 0.000368 2686.93896 2711.58105
2659.0 0.000376 2686.53076 2715.00415
2662.0 0.000376 2686.11890 2719.61206
2746.0 0.000364 2685.70264 2725.54370
2727.0 0.000367 2685.28271 2733.19531
2746.0 0.000364 2684.85864 2742.88037
2855.0 0.0003503 2684.43066 2754.69141
2801.0 0.000357 2683.99902 2768.65942
2836.0 0.000353 2683.56348 2783.70190
2780.0 0.000360 2683.12451 2797.51685
2831.0 0.000353 2682.68164 2806.56958
2795.0 0.000358 2682.23535 2807.62280
2810.0 0.000356 2681.78516 2800.09302
2811.0 0.000356 2681.33203 2786.52515
2824.0 0.000354 2680.87524 2770.61108
2795.0 0.000358 2680.41528 2755.14111
2735.0 0.000366 2679.95215 2741.50024
2736.0 0.000365 2679.48584 2730.07593
2790.0 0.000358 2679.01636 2720.75757
2661.0 0.000376 2678.54395 2713.13892
2618.0 0.000382 2678.06885 2707.11523
2596.0 0.000385 2677.59082 2702.26172
2731.0 0.000366 2677.11035 2698.31641
2752.0 0.000363 2676.62695 2695.06860
2702.0 0.000370 2676.14111 2692.35376
2663.0 0.000376 2675.65308 2690.04565
2669.0 0.000375 2675.16260 2688.05029
2730.0 0.000366 2674.66992 2686.29834
2672.0 0.000374 2674.17529 2684.74048
2644.0 0.000378 2673.67871 2683.33862
2668.0 0.000375 2673.17993 2682.06348
2733.0 0.000366 2672.67969 2680.89258
2619.0 0.000382 2672.17798 2679.80811
2700.0 0.000370 2671.67432 2678.79639
2643.0 0.000378 2671.16943 2677.84839
2532.0 0.000395 2670.66333 2676.95239
2642.0 0.000379 2670.15601 2676.10205
2656.0 0.000377 2669.64746 2675.29028
2689.0 0.000372 2669.13818 2674.51270
2668.0 0.000375 2668.62842 2673.76709
2713.0 0.000369 2668.11743 2673.04614
2664.0 0.000375 2667.60620 2672.35083
2667.0 0.000375 2667.09448 2671.67554
2735.0 0.000366 2666.58252 2671.01929
2643.0 0.000378 2666.07031 2670.38037
2681.0 0.000373 2665.55811 2669.75806
2607.0 0.000384 2665.04590 2669.15234
2724.0 0.000367 2664.53418 2668.55786
2634.0 0.000380 2664.02295 2667.97974
2693.0 0.000371 2663.51196 2667.41187
2654.0 0.000377 2663.00171 2666.85742
2656.0 0.000377 2662.49219 2666.31445
2711.0 0.000369 2661.98364 2665.78296
2692.0 0.000371 2661.47583 2665.26221
2677.0 0.000374 2660.96973 2664.75537
2650.0 0.000377 2660.46436 2664.25806
2743.0 0.000365 2659.96094 2663.77441
2708.0 0.000369 2659.45898 2663.30371
2768.0 0.000361 2658.95874 2662.84448
2614.0 0.000383 2658.46021 2662.40015
2699.0 0.000371 2657.96362 2661.96802
2699.0 0.000371 2657.46948 2661.55444
2719.0 0.000368 2656.97729 2661.15479
2746.0 0.000364 2656.48755 2660.77417
2727.0 0.000367 2656.00049 2660.41309
2701.0 0.000370 2655.51563 2660.07397
2648.0 0.000378 2655.03394 2659.75732
2672.0 0.000374 2654.55493 2659.46875
2726.0 0.000367 2654.07886 2659.21118
2701.0 0.000370 2653.60596 2658.98511
2613.0 0.000383 2653.13647 2658.79932
2612.0 0.000383 2652.66992 2658.65918
2618.0 0.000382 2652.20728 2658.57227
2727.0 0.000367 2651.74805 2658.54614
2672.0 0.000374 2651.29224 2658.59253
2696.0 0.000371 2650.84058 2658.72729
2655.0 0.000377 2650.39233 2658.96899
2623.0 0.000381 2649.94849 2659.34302
2615.0 0.000382 2649.50854 2659.88379
2621.0 0.000382 2649.07275 2660.63428
2668.0 0.000375 2648.64136 2661.65698
2604.0 0.000384 2648.21411 2663.02783
2721.0 0.000368 2647.79150 2664.84912
2678.0 0.000373 2647.37305 2667.24341
2671.0 0.000374 2646.95947 2670.36182
2726.0 0.000367 2646.55029 2674.36841
2698.0 0.000371 2646.14624 2679.42627
2648.0 0.000378 2645.74658 2685.62378
2755.0 0.000363 2645.35181 2692.86646
2740.0 0.000365 2644.96216 2700.64380
2595.0 0.000385 2644.57690 2707.90112
2652.0 0.000377 2644.19702 2713.10132
2676.0 0.000374 2643.82202 2714.97705
2632.0 0.000380 2643.45215 2713.29395
2683.0 0.000373 2643.08716 2708.77515
2662.0 0.000376 2642.72729 2702.38794
2709.0 0.000369 2642.37231 2694.98950
2724.0 0.000367 2642.02271 2687.36694
2588.0 0.000386 2641.67822 2680.18652
2692.0 0.000371 2641.33862 2673.85889
2805.0 0.000357 2641.00415 2668.52563
2553.0 0.000392 2640.67480 2664.13965
2647.0 0.000378 2640.35034 2660.57666
2737.0 0.000365 2640.03101 2657.69214
2674.0 0.000374 2639.71680 2655.35303
2693.0 0.000371 2639.40723 2653.44336
2679.0 0.000373 2639.10278 2651.94507
2658.0 0.000376 2638.80298 2650.61230
2662.0 0.000376 2638.50806 2649.51611
2558.0 0.000391 2638.21777 2648.59082
2730.0 0.000366 2637.93213 2647.80493
2647.0 0.000378 2637.65088 2647.13477
2563.0 0.000390 2637.37402 2646.56543
2687.0 0.000372 2637.10181 2646.07495
2600.0 0.000385 2636.83350 2645.67407
2653.0 0.000377 2636.56934 2645.34741
2682.0 0.000373 2636.30933 2645.09546
2612.0 0.000383 2636.05298 2644.91064
2565.0 0.000390 2635.80054 2644.80054
2652.0 0.000377 2635.55151 2644.76221
2673.0 0.000374 2635.30591 2644.79492
2649.0 0.000378 2635.06348 2644.89063
2715.0 0.000368 2634.82422 2645.03516
2567.0 0.000390 2634.58813 2645.20288
2610.0 0.000383 2634.35449 2645.37891
2637.0 0.000379 2634.12329 2645.63916
2624.0 0.000381 2633.89453 2645.87158
2700.0 0.000370 2633.66797 2646.19653
2653.0 0.000377 2633.44312 2646.64355
2628.0 0.000381 2633.21997 2647.22461
2644.0 0.000378 2632.99829 2647.93311
2721.0 0.000368 2632.77783 2648.73633
2609.0 0.000383 2632.55835 2649.57202
2643.0 0.000378 2632.33960 2650.38599
2694.0 0.000371 2632.12134 2651.17456
2671.0 0.000374 2631.90308 2652.01807
2598.0 0.000385 2631.68481 2653.01270
2661.0 0.000376 2631.46606 2654.27637
2685.0 0.000372 2631.24683 2655.90063
2578.0 0.000388 2631.02661 2657.97266
2666.0 0.000375 2630.80493 2660.60156
2658.0 0.000376 2630.58203 2663.91748
2642.0 0.000379 2630.35693 2668.09473
2570.0 0.000389 2630.12964 2673.36963
2713.0 0.000369 2629.89990 2680.03638
2665.0 0.000375 2629.66724 2688.46655
2676.0 0.000374 2629.43140 2699.09619
2749.0 0.000364 2629.19189 2712.40161
2654.0 0.000377 2628.94873 2728.82642
2789.0 0.000359 2628.70117 2748.57959
2712.0 0.000369 2628.44897 2771.24902
2698.0 0.000371 2628.19189 2795.12939
2810.0 0.000356 2627.92944 2816.60498
2814.0 0.000355 2627.66138 2830.49878
2812.0 0.000356 2627.38721 2832.46118
2893.0 0.0003457 2627.10669 2822.03882
2798.0 0.000357 2626.81934 2803.07471
2793.0 0.000358 2626.52490 2780.90747
2755.0 0.000363 2626.22266 2759.64526
2732.0 0.000366 2625.91260 2741.44702
2709.0 0.000369 2625.59424 2727.05273
2744.0 0.000364 2625.26733 2716.48291
2742.0 0.000365 2624.93115 2709.48584
2670.0 0.000375 2624.58569 2705.73828
2781.0 0.000360 2624.23047 2704.89819
2752.0 0.000363 2623.86475 2706.54370
2721.0 0.000368 2623.48877 2710.09741
2712.0 0.000369 2623.10181 2714.83496
2816.0 0.000355 2622.70337 2720.07080
2759.0 0.000362 2622.29346 2725.27002
2796.0 0.000358 2621.87158 2729.75610
2715.0 0.000368 2621.43726 2732.21973
2707.0 0.000369 2620.99048 2730.92114
2835.0 0.000353 2620.53052 2724.85034
2744.0 0.000364 2620.05713 2714.71558
2623.0 0.000381 2619.57007 2702.46826
2725.0 0.000367 2619.06909 2690.05933
2742.0 0.000365 2618.55371 2678.70117
2674.0 0.000374 2618.02368 2668.87207
2648.0 0.000378 2617.47900 2660.60938
2733.0 0.000366 2616.91895 2653.74878
2613.0 0.000383 2616.34375 2647.95801
2647.0 0.000378 2615.75293 2643.22803
2757.0 0.000363 2615.14600 2639.25537
2590.0 0.000386 2614.52319 2635.87524
2690.0 0.000372 2613.88379 2632.95898
2680.0 0.000373 2613.22803 2630.40137
2725.0 0.000367 2612.55566 2628.12354
2631.0 0.000380 2611.86646 2626.06714
2603.0 0.000384 2611.16040 2624.18359
2580.0 0.000388 2610.43701 2622.43750
2554.0 0.000392 2609.69678 2620.80273
2607.0 0.000384 2608.93896 2619.25903
2610.0 0.000383 2608.16406 2617.78735
2635.0 0.000380 2607.37183 2616.37500
2521.0 0.000397 2606.56250 2615.01196
2564.0 0.000390 2605.73535 2613.77905
2670.0 0.000375 2604.89136 2612.48853
2602.0 0.000384 2604.03027 2611.22241
2620.0 0.000382 2603.15161 2609.97876
2606.0 0.000384 2602.25659 2608.75000
2689.0 0.000372 2601.34424 2607.53369
2549.0 0.000392 2600.41553 2606.32666
2569.0 0.000389 2599.47021 2605.12769
2580.0 0.000388 2598.50903 2603.93237
2560.0 0.000391 2597.53149 2602.74072
2643.0 0.000378 2596.53857 2601.55005
2589.0 0.000386 2595.53076 2600.35962
2596.0 0.000385 2594.50757 2599.16821
2630.0 0.000380 2593.47021 2597.97461
2542.0 0.000393 2592.41846 2596.77979
2598.0 0.000385 2591.35376 2595.58032
2538.0 0.000394 2590.27539 2594.37817
2609.0 0.000383 2589.18506 2593.17480
2588.0 0.000386 2588.08301 2591.96606
2564.0 0.000390 2586.96899 2590.83081
2554.0 0.000392 2585.84497 2589.61597
2610.0 0.000383 2584.71069 2588.39868
2623.0 0.000381 2583.56787 2587.17871
2630.0 0.000380 2582.41602 2585.95630
2566.0 0.000390 2581.25732 2584.73193
2566.0 0.000390 2580.09155 2583.50635
2598.0 0.000385 2578.92041 2582.28003
2575.0 0.000388 2577.74463 2581.05420
2573.0 0.000389 2576.56470 2579.82837
2565.0 0.000390 2575.38232 2578.60938
2565.0 0.000390 2574.19800 2577.38940
2585.0 0.000387 2573.01367 2576.17163
2572.0 0.000389 2571.82959 2574.95923
2543.0 0.000393 2570.64771 2573.75391
2598.0 0.000385 2569.46826 2572.55444
2589.0 0.000386 2568.29395 2571.36328
2533.0 0.000395 2567.12500 2570.18237
2585.0 0.000387 2565.96289 2569.01245
2608.0 0.000383 2564.80981 2567.85571
2594.0 0.000386 2563.66577 2566.71143
2564.0 0.000390 2562.53369 2565.58301
2534.0 0.000395 2561.41406 2564.47241
2532.0 0.000395 2560.30933 2563.38110
2549.0 0.000392 2559.22046 2562.31030
2610.0 0.000383 2558.14868 2561.26245
2536.0 0.000394 2557.09644 2560.23926
2497.0 0.000400 2556.06470 2559.24243
2514.0 0.000398 2555.05566 2558.27783
2498.0 0.000400 2554.07056 2557.34253
2498.0 0.000400 2553.11157 2556.44409
2580.0 0.000388 2552.17993 2555.58472
2539.0 0.000394 2551.27783 2554.76587
2535.0 0.000394 2550.40698 2553.99512
2591.0 0.000386 2549.56860 2553.27661
2581.0 0.000387 2548.76514 2552.61621
2603.0 0.000384 2547.99780 2552.02075
2575.0 0.000388 2547.26880 2551.49683
2581.0 0.000387 2546.57935 2551.04932
2499.0 0.000400 2545.93164 2550.69043
2571.0 0.000389 2545.32715 2550.40918
2533.0 0.000395 2544.76758 2550.19287
2599.0 0.000385 2544.25488 2550.00977
2608.0 0.000383 2543.79004 2549.80786
2604.0 0.000384 2543.37524 2549.54370
2470.0 0.000405 2543.01147 2549.20581
2496.0 0.000401 2542.70044 2548.83398
2517.0 0.000397 2542.44360 2548.43604
2531.0 0.000395 2542.24243 2548.15674
2535.0 0.000394 2542.09790 2547.97852
2587.0 0.000387 2542.01099 2547.89600
2541.0 0.000394 2541.98315 2547.94507
2571.0 0.000389 2542.01514 2548.10742
2556.0 0.000391 2542.10767 2548.37354
2561.0 0.000390 2542.26172 2548.73633
2512.0 0.000398 2542.47754 2549.19092
2518.0 0.000397 2542.75586 2549.74048
2542.0 0.000393 2543.09668 2550.39453
2556.0 0.000391 2543.50000 2551.16431
2535.0 0.000394 2543.96606 2552.06055
2629.0 0.000380 2544.49390 2553.08789
2586.0 0.000387 2545.08374 2554.25049
2577.0 0.000388 2545.73413 2555.54883
2597.0 0.000385 2546.44458 2556.98389
2664.0 0.000375 2547.21313 2558.57129
2541.0 0.000394 2548.03882 2560.32617
2577.0 0.000388 2548.91943 2562.26807
2587.0 0.000387 2549.85254 2564.40918
2600.0 0.000385 2550.83618 2566.75684
2532.0 0.000395 2551.86694 2569.33472
2515.0 0.000398 2552.94189 2572.20093
2567.0 0.000390 2554.05688 2575.45654
2655.0 0.000377 2555.20825 2579.23315
2538.0 0.000394 2556.39087 2583.68408
2598.0 0.000385 2557.59985 2588.97827
2601.0 0.000384 2558.83008 2595.30908
2608.0 0.000383 2560.07471 2602.87622
2711.0 0.000369 2561.32788 2611.86890
2673.0 0.000374 2562.58130 2622.37427
2575.0 0.000388 2563.82837 2634.22559
2557.0 0.000391 2565.05933 2646.73901
2585.0 0.000387 2566.26587 2658.50488
2685.0 0.000372 2567.43701 2667.19556
2733.0 0.000366 2568.56299 2670.81152
2717.0 0.000368 2569.63232 2668.71289
2632.0 0.000380 2570.63184 2662.17139
2601.0 0.000384 2571.54932 2653.45532
2636.0 0.000379 2572.36987 2644.57739
2618.0 0.000382 2573.07910 2636.73706
2587.0 0.000387 2573.66040 2630.44800
2580.0 0.000388 2574.09717 2625.81006
2649.0 0.000378 2574.37061 2622.75342
2612.0 0.000383 2574.46191 2621.17651
2698.0 0.000371 2574.35034 2621.00171
2657.0 0.000376 2574.01392 2622.19458
2670.0 0.000375 2573.42993 2624.76807
2555.0 0.000391 2572.57373 2628.74756
2507.0 0.000399 2571.41943 2634.10229
2672.0 0.000374 2569.94019 2640.60107
2594.0 0.000386 2568.10693 2647.57080
2681.0 0.000373 2565.88818 2653.65356
2630.0 0.000380 2563.25342 2656.85229
2694.0 0.000371 2560.16724 2655.23633
2676.0 0.000374 2556.59570 2648.09912
2666.0 0.000375 2552.49902 2636.44238
2651.0 0.000377 2547.84058 2622.22412
2585.0 . . .
loop_
_refln_index_h
_refln_index_k
_refln_index_l
_refln_observed_status
_refln_F_squared_meas
_refln_F_squared_calc
_refln_phase_calc
_refln_d_spacing
_gsas_i100_meas
1 1 0 o 8283.917 8422.238 180.00 7.05614 11.66
0 0 1 o -467.044 135.567 180.00 5.00845 0.72
2 0 0 o 1364.456 1887.213 0.00 4.98944 1.29
1 1 1 o 25703.271 26141.229 0.00 4.08419 26.63
2 0 1 o 2216.860 2164.692 180.00 3.53477 2.09
2 2 0 o 150.584 157.024 0.00 3.52807 0.96
2 1 1 o 391.383 31.309 0.00 3.33191 0.67
3 1 0 o 14385.200 13985.735 0.00 3.15560 8.34
2 2 1 o 188542.67 189519.83 180.00 2.88430 100.00
3 1 1 o 5260.362 3855.821 180.00 2.66986 4.32
0 0 2 o 98002.48 102422.81 0.00 2.50422 9.01
4 0 0 o 115426.31 118884.00 0.00 2.49472 21.68
3 2 1 o 5037.607 4944.374 0.00 2.42239 4.62
1 1 2 o 2913.130 2506.430 180.00 2.36000 0.85
3 3 0 o 25967.350 24982.109 180.00 2.35205 4.34
2 0 2 o 311.684 420.603 0.00 2.23814 0.12
4 0 1 o 5048.323 5427.167 180.00 2.23304 1.34
4 2 0 o 967.093 1076.467 0.00 2.23135 0.35
2 1 2 o 706.800 562.504 0.00 2.18388 0.52
4 1 1 o 2857.262 2189.540 0.00 2.17914 2.11
3 3 1 o 161.993 566.742 0.00 2.12897 0.01
2 2 2 o 4405.439 4947.581 0.00 2.04209 0.97
4 2 1 o 139.525 220.666 180.00 2.03822 0.10
3 1 2 o 18453.578 18160.145 0.00 1.96160 8.55
5 1 0 o 3360.200 3341.955 180.00 1.95702 0.69
3 2 2 o 892.228 524.619 0.00 1.85692 0.48
4 3 1 o 553.608 315.749 180.00 1.85400 0.29
5 1 1 o 19561.031 19987.744 0.00 1.82281 7.58
4 0 2 o 129962.94 131408.55 0.00 1.76738 25.22
4 4 0 o 121809.16 124357.97 0.00 1.76403 11.73
4 1 2 o 16.715 17.438 180.00 1.74030 0.01
5 2 1 o 125.411 91.702 180.00 1.73790 0.06
3 3 2 o 26215.512 24421.086 180.00 1.71442 4.74
5 3 0 o 5507.608 5301.011 0.00 1.71136 0.88
0 0 3 o 2507.563 3288.393 180.00 1.66948 0.09
4 2 2 o 1615.831 1577.836 0.00 1.66595 0.68
4 4 1 o 1758.194 1769.301 180.00 1.66385 0.37
6 0 0 o 92.968 97.713 0.00 1.66315 0.01
1 1 3 o 7460.164 7505.256 0.00 1.62463 1.05
5 3 1 o 11367.062 11186.441 180.00 1.61943 3.44
2 0 3 o 536.995 442.193 180.00 1.58321 0.11
6 0 1 o 1901.501 1877.311 180.00 1.57840 0.35
6 2 0 o 7846.028 7951.825 0.00 1.57780 1.04
2 1 3 o 261.927 237.418 0.00 1.56365 0.10
4 3 2 o -0.382 14.782 0.00 1.56075 0.00
6 1 1 o -1.335 51.650 180.00 1.55902 0.00
5 1 2 o -395.382 1.770 0.00 1.54200 0.04
2 2 3 o 94661.59 93657.93 180.00 1.50906 13.21
6 2 1 o 79574.20 79689.41 180.00 1.50489 21.82
5 2 2 o 201.945 146.166 0.00 1.48957 0.07
5 4 1 o 87.374 59.704 180.00 1.48807 0.03
3 1 3 o 4135.643 4351.368 180.00 1.47569 0.94
4 4 2 o 71847.12 71706.55 0.00 1.44215 9.01
3 2 3 o 272.050 449.993 180.00 1.42954 0.09
6 3 1 o 22.562 11.446 180.00 1.42600 0.01
5 3 2 o 1810.950 1685.293 0.00 1.41294 0.36
5 5 0 o 5878.900 4836.313 0.00 1.41123 0.61
7 1 0 o 10155.058 9159.786 0.00 1.41123 1.16
4 0 3 o 1024.490 319.315 180.00 1.38747 0.30
6 0 2 o 409.544 283.285 180.00 1.38544 0.05
6 4 0 o 86.214 19.385 0.00 1.38382 0.02
4 1 3 o 757.638 929.690 180.00 1.37425 0.23
6 1 2 o 102.038 167.695 180.00 1.37228 0.03
3 3 3 o 47.726 54.978 0.00 1.36140 0.04
7 1 1 o 732.127 780.041 180.00 1.35834 0.14
5 5 1 o 24984.854 26942.109 0.00 1.35834 2.82
4 2 3 o 89.878 80.429 180.00 1.33674 0.03
6 2 2 o 1023.523 857.311 0.00 1.33493 0.41
6 4 1 o 1006.449 925.985 180.00 1.33385 0.28
5 4 2 o 4.125 2.952 180.00 1.32314 0.00
7 2 1 o 1494.922 1434.021 180.00 1.32209 0.43
7 3 0 o 28893.072 28936.602 180.00 1.31029 3.18
4 3 3 o 366.582 196.904 0.00 1.28053 0.10
6 3 2 o 487.791 192.888 0.00 1.27894 0.13
5 1 3 o 16181.407 15904.639 0.00 1.27012 3.25
7 3 1 o 313.591 181.378 180.00 1.26763 0.24
0 0 4 o 82065.28 82062.34 0.00 1.25211 2.07
8 0 0 o 42961.96 43189.46 0.00 1.24736 2.01
5 2 3 o 394.321 262.384 0.00 1.24033 0.10
6 5 1 o 426.171 265.234 0.00 1.23802 0.11
1 1 4 o 4231.288 4507.533 180.00 1.23285 0.36
5 5 2 o 428.396 436.434 180.00 1.22945 0.04
7 1 2 o 14209.827 14462.586 0.00 1.22945 2.68
2 0 4 o 329.027 190.874 0.00 1.21445 0.04
4 4 3 o 3926.681 3712.053 180.00 1.21255 0.35
6 4 2 o 13.153 12.831 180.00 1.21120 0.00
8 0 1 o 2762.047 2578.607 180.00 1.21039 0.25
8 2 0 o 2240.696 1977.032 0.00 1.21012 0.26
2 1 4 o 144.680 72.192 180.00 1.20556 0.04
7 2 2 o 86.067 192.116 180.00 1.20237 0.02
7 4 1 o -3.814 110.500 0.00 1.20158 0.00
8 1 1 o -3.544 102.682 180.00 1.20158 0.00
5 3 3 o 4185.372 4459.205 180.00 1.19503 0.64
2 2 4 o 250.295 251.622 0.00 1.18000 0.13
6 0 3 o 1194.100 1234.413 180.00 1.17826 0.14
8 2 1 o 401.055 394.747 0.00 1.17627 0.07
6 6 0 o 1892.483 1645.546 0.00 1.17602 0.10
6 1 3 o 0.005 43.015 180.00 1.17013 0.00
3 1 4 o 3408.091 3203.321 0.00 1.16384 0.51
7 3 2 o 13729.803 12762.781 180.00 1.16097 2.34
7 5 0 o 4921.451 4495.731 0.00 1.16002 0.39
6 2 3 o 45020.77 44879.41 180.00 1.14672 7.60
6 6 1 o 39133.53 37802.35 180.00 1.14488 3.29
3 2 4 o 62.825 66.099 180.00 1.14080 0.01
5 4 3 o 14.268 12.900 0.00 1.13922 0.00
6 5 2 o 61.530 51.835 0.00 1.13810 0.01
8 3 1 o 52.787 78.823 180.00 1.13742 0.01
7 5 1 o 2246.092 2109.275 180.00 1.13011 0.32
4 0 4 o 48034.61 49245.43 0.00 1.11907 3.94
8 0 2 o 46123.37 46857.13 0.00 1.11652 3.82
8 4 0 o 33138.367 32298.457 0.00 1.11567 2.66
4 1 4 o 3.625 4.554 0.00 1.11210 0.00
6 3 3 o 154.926 211.114 0.00 1.11064 0.04
7 4 2 o 3.228 4.602 0.00 1.10960 0.00
8 1 2 o 9.106 12.984 0.00 1.10960 0.00
3 3 4 o 10134.466 10540.015 180.00 1.10526 0.79
9 1 0 o 34.604 222.426 0.00 1.10198 0.07
4 2 4 o 80.891 74.701 0.00 1.09194 0.02
8 2 2 o 1145.470 1261.209 0.00 1.08957 0.23
8 4 1 o 4453.702 4877.086 180.00 1.08898 0.61
5 5 3 o 13880.004 12425.406 0.00 1.07776 1.11
7 1 3 o 344.532 301.598 180.00 1.07776 0.07
9 1 1 o 14933.630 13229.430 0.00 1.07624 2.44
6 4 3 o 98.204 173.241 180.00 1.06540 0.02
6 6 2 o 6002.854 6309.656 0.00 1.06449 0.42
4 3 4 o 5.619 3.253 180.00 1.06065 0.00
7 2 3 o 234.233 188.270 0.00 1.05938 0.05
8 3 2 o 38.932 12.823 180.00 1.05848 0.01
7 6 1 o 68.136 17.400 0.00 1.05794 0.01
9 2 1 o 113.201 28.909 180.00 1.05794 0.02
5 1 4 o 109.679 312.895 180.00 1.05471 0.01
7 5 2 o 4205.532 4799.526 0.00 1.05258 0.57
9 3 0 o 1231.173 1502.010 0.00 1.05187 0.07
5 2 4 o 69.204 27.958 180.00 1.03747 0.01
8 5 1 o -0.224 5.469 0.00 1.03493 0.00
7 3 3 o 32.986 2.942 180.00 1.03074 0.07
9 3 1 o 5271.639 5390.895 180.00 1.02941 0.73
4 4 4 o 31828.088 31095.332 0.00 1.02105 2.35
8 4 2 o 28071.943 26515.379 0.00 1.01911 4.18
6 5 3 o 31.849 24.945 180.00 1.01463 0.01
5 3 4 o 2251.198 3274.847 0.00 1.01052 0.25
9 1 2 o 138.976 145.296 180.00 1.00864 0.04
7 7 0 o 18216.729 17921.551 180.00 1.00802 0.70
0 0 5 o -400.832 465.452 180.00 1.00169 0.00
6 0 4 o 64.416 73.810 180.00 1.00032 0.00
8 0 3 o 3037.561 3732.339 180.00 0.99925 0.19
6 1 4 o 18.317 32.552 0.00 0.99533 0.00
8 6 0 o 125.242 140.175 0.00 0.99789 0.01
10 0 0 o 2590.564 2826.765 180.00 0.99789 0.11
7 4 3 o 77.062 31.158 180.00 0.99428 0.02
8 1 3 o 277.205 112.080 0.00 0.99428 0.06
7 6 2 o 208.996 96.222 0.00 0.99353 0.04
9 2 2 o 35.327 16.265 180.00 0.99353 0.01
9 4 1 o 1355.547 649.794 0.00 0.99309 0.27
1 1 5 o 5336.240 4220.949 0.00 0.99175 0.40
7 7 1 o 1268.039 411.426 180.00 0.98820 0.18
2 0 5 o -15.768 52.574 180.00 0.98209 0.00
6 2 4 o 2135.213 2919.899 0.00 0.98080 0.25
8 2 3 o 274.970 398.134 0.00 0.97980 0.03
10 0 1 o 1633.346 2060.186 180.00 0.97865 0.15
8 6 1 o 46.386 52.022 0.00 0.97865 0.00
10 2 0 o 3521.176 4075.853 0.00 0.97851 0.22
2 1 5 o 113.169 185.899 180.00 0.97737 0.02
5 4 4 o 0.739 0.473 0.00 0.97610 0.00
8 5 2 o 9.875 4.591 180.00 0.97440 0.00
10 1 1 o 196.810 163.598 0.00 0.97398 0.04
9 3 2 o 180.636 541.316 0.00 0.96979 0.00
9 5 0 o -152.118 36.438 0.00 0.96923 0.02
2 2 5 o 34045.938 32115.582 180.00 0.96360 2.54
6 6 3 o 25426.611 23815.277 180.00 0.96143 1.87
10 2 1 o 22113.035 20693.764 180.00 0.96035 3.22
6 3 4 o 36.713 42.210 180.00 0.95794 0.01
8 3 3 o 9.391 10.184 0.00 0.95700 0.00
3 1 5 o 1063.026 1285.681 180.00 0.95474 0.11
7 5 3 o 1674.493 2055.304 180.00 0.95263 0.19
9 5 1 o 10628.367 11691.757 0.00 0.95158 1.50
3 2 5 o 3.478 18.219 0.00 0.94190 0.00
9 4 2 o -0.003 0.059 0.00 0.93924 0.00
10 3 1 o 1.515 45.596 0.00 0.93886 0.00
5 5 4 o 495.294 305.187 0.00 0.93660 0.11
7 1 4 o 5404.787 4708.669 0.00 0.93660 0.78
7 7 2 o 12141.295 11024.638 180.00 0.93511 0.91
4 0 5 o 992.746 885.269 180.00 0.92956 0.10
6 4 4 o -4.147 3.562 0.00 0.92846 0.00
8 4 3 o 1568.687 1733.536 180.00 0.92761 0.23
10 0 2 o 259.541 257.688 180.00 0.92700 0.01
8 6 2 o 358.656 353.350 0.00 0.92700 0.08
10 4 0 o 272.529 249.253 180.00 0.92652 0.02
4 1 5 o 274.709 295.657 0.00 0.92555 0.06
7 2 4 o -1.752 37.859 0.00 0.92447 0.00
10 1 2 o -1.543 33.289 0.00 0.92303 0.00
8 7 1 o -6.264 135.057 0.00 0.92267 0.00
3 3 5 o 263.525 224.986 0.00 0.92159 0.03
9 1 3 o 6681.175 6494.771 0.00 0.91969 0.96
4 2 5 o 3.533 3.442 0.00 0.91383 0.00
10 2 2 o 3015.894 2947.566 0.00 0.91140 0.42
10 4 1 o 786.713 751.883 180.00 0.91106 0.16
9 2 3 o 0.044 0.064 0.00 0.90820 0.00
7 6 3 o 25.673 37.359 0.00 0.90820 0.01
9 6 1 o 100.880 99.994 0.00 0.90728 0.02
7 3 4 o 9423.830 9836.381 180.00 0.90525 1.42
9 5 2 o 537.558 361.121 0.00 0.90389 0.22
11 1 0 o 9413.015 8148.659 0.00 0.90345 0.76
4 3 5 o 95.841 79.496 180.00 0.89526 0.02
10 3 2 o 74.487 45.679 180.00 0.89297 0.02
6 5 4 o 12.326 11.127 180.00 0.89427 0.00
5 1 5 o 5225.035 5174.699 0.00 0.89167 0.77
8 5 3 o 33.402 14.544 180.00 0.89351 0.01
9 3 3 o 4711.690 4660.704 180.00 0.88995 0.70
