#------------------------------------------------------------------------------
#$Date: 2021-06-21 11:15:50 +0300 (Mon, 21 Jun 2021) $
#$Revision: 266599 $
#$URL: file:///home/coder/svn-repositories/cod/cif/1/56/36/1563628.cif $
#------------------------------------------------------------------------------
#
# This file is available in the Crystallography Open Database (COD),
# http://www.crystallography.net/
#
# All data on this site have been placed in the public domain by the
# contributors.
#
data_1563628
loop_
_publ_author_name
'Zubkov, Vladimir G.'
'Tarakina, Nadezda V.'
'Leonidov, Ivan I.'
'Tyutyunnik, Alexander P.'
'Surat, Ludmila L.'
'Melkozerova, Marina A.'
'Zabolotskaya, Elena V.'
'Kellerman, Dina G.'
_publ_section_title
;
 Synthesis and crystal structure of Ln2M2+Ge4O12, Ln=rare-earth element or
 Y; M=Ca, Mn, Zn
;
_journal_issue                   5
_journal_name_full               'Journal of Solid State Chemistry'
_journal_page_first              1186
_journal_page_last               1193
_journal_paper_doi               10.1016/j.jssc.2010.03.027
_journal_volume                  183
_journal_year                    2010
_chemical_formula_sum            'Ca Gd2 Ge4 O12'
_chemical_formula_weight         836.93
_space_group_IT_number           125
_space_group_name_Hall           '-P 4a 2b'
_space_group_name_H-M_alt        'P 4/n b m :2'
_symmetry_cell_setting           tetragonal
_symmetry_space_group_name_H-M   'P 4/n b m :2'
_cell_angle_alpha                90.0
_cell_angle_beta                 90.0
_cell_angle_gamma                90.0
_cell_formula_units_Z            2
_cell_length_a                   10.07495(9)
_cell_length_b                   10.07495
_cell_length_c                   5.10301(6)
_cell_volume                     517.979(8)
_computing_structure_refinement  GSAS
_diffrn_radiation_polarisn_ratio 0.8
_diffrn_radiation_probe          x-ray
_diffrn_radiation_wavelength     1.54056
_exptl_absorpt_correction_T_max  6.17750
_exptl_absorpt_correction_T_min  2.40256
_exptl_absorpt_process_details
;   GSAS Absorption/surface roughness correction: function number 4
 Flat plate transmission absorption correction
Terms =    -0.56562         0.0000    
Correction is refined.
;
_pd_calc_method                  'Rietveld Refinement'
_pd_instr_location               ' ?'
_pd_meas_2theta_range_inc        0.02
_pd_meas_2theta_range_max        119.98
_pd_meas_2theta_range_min        2.0
_pd_meas_number_of_points        5900
_pd_proc_2theta_range_inc        0.02
_pd_proc_2theta_range_max        119.95547
_pd_proc_2theta_range_min        1.97548
_pd_proc_info_datetime           2010-02-27T12:47:37
_pd_proc_info_excluded_regions   ' ?'
_pd_proc_ls_background_function
;   GSAS Background function number 1 with 36 terms.
 Shifted Chebyshev function of 1st kind
      1:    4899.13     2:   -2016.20     3:    433.226     4:   -408.031    
      5:    99.3930     6:   -25.1596     7:   -5.82388     8:   -6.96940    
      9:    18.3444    10:   -25.6198    11:    19.7698    12:   -2.72999    
     13:  -0.363687    14:   -8.23002    15:    12.2993    16:   -19.9955    
     17:    20.9472    18:   -13.0743    19:   -2.88202    20:    6.42540    
     21:   -1.95894    22:   -3.67061    23:    14.6316    24:   -22.2042    
     25:    13.7319    26:   -8.25152    27:   -3.09063    28:    12.8234    
     29:   -14.2830    30:    7.11357    31:    1.11087    32:   -13.7555    
     33:    17.1884    34:   -9.14369    35:    1.35737    36:    7.46064    
;
_pd_proc_ls_peak_cutoff          0.00200
_pd_proc_ls_profile_function
;
 CW Profile function number 2 with  18 terms
 Profile coefficients for Simpson's rule integration of pseudovoigt function
 C.J. Howard (1982). J. Appl. Cryst.,15,615-620.
 P. Thompson, D.E. Cox & J.B. Hastings (1987). J. Appl. Cryst.,20,79-83.
 #1(GU)   =   29.532 #2(GV)   =  -13.267 #3(GW)   =   13.500
 #4(LX)   =    3.399 #5(LY)   =    7.054 #6(trns) =    0.000
 #7(asym) =   2.2143 #8(shft) =   0.0000 #9(GP)   =    0.000
 #10(stec)=     0.00 #11(ptec)=     0.00 #12(sfec)=     0.00
 #13(L11) =    0.000 #14(L22) =    0.000 #15(L33) =    0.000
 #16(L12) =    0.000 #17(L13) =    0.000 #18(L23) =    0.000
 Peak tails are ignored  where the intensity is below 0.0020 times the peak
   Aniso. broadening axis   0.0   0.0   1.0
;
_pd_proc_ls_prof_R_factor        0.0148
_pd_proc_ls_prof_wR_expected     0.0141
_pd_proc_ls_prof_wR_factor       0.0190
_pd_proc_number_of_points        5900
_pd_spec_mounting                ' ?'
_refine_ls_goodness_of_fit_all   1.35
_refine_ls_matrix_type           full
_refine_ls_number_parameters     70
_refine_ls_number_restraints     0
_refine_ls_R_Fsqd_factor         0.03255
_refine_ls_shift/su_max          0.03
_refine_ls_shift/su_mean         0.00
_reflns_d_resolution_high        0.891
_reflns_d_resolution_low         7.124
_reflns_limit_h_max              11
_reflns_limit_h_min              0
_reflns_limit_k_max              8
_reflns_limit_k_min              0
_reflns_limit_l_max              5
_reflns_limit_l_min              0
_reflns_number_total             215
_cod_data_source_file            GD2CAGe4O12.cif
_cod_data_source_block           GD2CA(VO3)4_publ
_cod_depositor_comments
;
The following automatic conversions were performed:

data item '_geom_angle_publ_flag' value 'N' was changed to 'n' in
accordance with the built-in table derived from the CIF Core
dictionary named 'cif_core.dic' version 2.4.5 last updated on
2014-11-21 (194 times).

data item '_geom_bond_publ_flag' value 'N' was changed to 'n' in
accordance with the built-in table derived from the CIF Core
dictionary named 'cif_core.dic' version 2.4.5 last updated on
2014-11-21 (56 times).

Automatic conversion script
Id: cif_fix_values 8369 2020-08-20 11:38:08Z andrius 
;
_cod_original_cell_volume        517.979(12)
_cod_original_sg_symbol_H-M      'P 4/n b m'
_cod_original_formula_sum        'Ca1.00 Gd2.00 Ge4 O12'
_cod_database_code               1563628
_gsas_exptl_extinct_corr_t_min   1.00000
_gsas_exptl_extinct_corr_t_max   1.00000
loop_
_symmetry_equiv_pos_site_id
_symmetry_equiv_pos_as_xyz
1 +x,+y,+z
2 -y+1/2,+x,+z
3 -x+1/2,-y+1/2,+z
4 +y,-x+1/2,+z
5 -x,+y+1/2,+z
6 -y,-x,+z
7 +x+1/2,-y,+z
8 +y+1/2,+x+1/2,+z
-1 -x,-y,-z
-2 +y+1/2,-x,-z
-3 +x+1/2,+y+1/2,-z
-4 -y,+x+1/2,-z
-5 +x,-y+1/2,-z
-6 +y,+x,-z
-7 -x+1/2,+y,-z
-8 -y+1/2,-x+1/2,-z
loop_
_atom_site_aniso_label
_atom_site_aniso_U_11
_atom_site_aniso_U_12
_atom_site_aniso_U_13
_atom_site_aniso_U_22
_atom_site_aniso_U_23
_atom_site_aniso_U_33
CA1 0.0443(24) -0.0081(15) 0.0071(32) 0.0443(24) -0.0071(32) 0.0410(35)
GD1 0.0443(24) -0.0081(15) 0.0071(32) 0.0443(24) -0.0071(32) 0.0410(35)
GD2 0.0397(23) 0.0 0.0 0.0397(23) 0.0 0.0316(29)
GE1 0.0350(25) 0.0 0.0 0.0323(30) 0.002(4) 0.0383(27)
O1 0.022(5) -0.002(7) 0.006(5) 0.022(5) -0.006(5) 0.034(9)
O2 0.032(8) 0.0025(33) 0.000(6) 0.027(8) -0.006(6) 0.021(5)
loop_
_atom_site_type_symbol
_atom_site_label
_atom_site_fract_x
_atom_site_fract_y
_atom_site_fract_z
_atom_site_occupancy
_atom_site_thermal_displace_type
_atom_site_U_iso_or_equiv
_atom_site_symmetry_multiplicity
Ca CA1 0.0 0.0 0.5 0.5 Uani 0.04321 4
Gd GD1 0.0 0.0 0.5 0.5 Uani 0.04321 4
Gd GD2 0.25 0.25 0.5 1.0 Uani 0.03702 2
Ge GE1 0.52331(21) 0.25 0.0 1.0 Uani 0.03519 8
O O1 0.6290(8) 0.3710(8) 0.1550(17) 1.0 Uani 0.02596 8
O O2 0.1762(7) 0.0612(6) 0.2523(14) 1.0 Uani 0.02663 16
loop_
_atom_type_symbol
_atom_type_number_in_cell
_atom_type_scat_dispersion_real
_atom_type_scat_dispersion_imag
_atom_type_scat_Cromer_Mann_a1
_atom_type_scat_Cromer_Mann_a2
_atom_type_scat_Cromer_Mann_a3
_atom_type_scat_Cromer_Mann_a4
_atom_type_scat_Cromer_Mann_b1
_atom_type_scat_Cromer_Mann_b2
_atom_type_scat_Cromer_Mann_b3
_atom_type_scat_Cromer_Mann_b4
_atom_type_scat_Cromer_Mann_c
_atom_type_scat_source
Ca 2.0 0.000 0.000 8.62660 10.4421 7.38730 0.65990 1.58990 85.7484 1.02110
178.437 1.37510 International_Tables_Vol_C
Gd 4.0 0.000 0.000 25.0709 2.25341 19.0798 0.18195 13.8518 12.9331 3.54545
101.398 2.41960 International_Tables_Vol_C
Ge 8.0 0.000 0.000 16.0816 2.85090 6.37470 0.25160 3.70680 11.4468 3.68300
54.7625 2.13130 International_Tables_Vol_C
O 24.0 0.000 0.000 3.04850 13.2771 2.28680 5.70110 1.54630 0.32390 0.86700
32.9089 0.25080 International_Tables_Vol_C
loop_
_geom_angle_atom_site_label_1
_geom_angle_atom_site_label_2
_geom_angle_atom_site_label_3
_geom_angle
_geom_angle_site_symmetry_1
_geom_angle_site_symmetry_2
_geom_angle_site_symmetry_3
_geom_angle_publ_flag
GD2 CA1 GD2 180.0 1_555 . 5_545 n
GD2 CA1 O1 90.0003 1_555 . 3_555 n
GD2 CA1 O1 89.9997 1_555 . -3_456 n
GD2 CA1 O2 41.69(16) 1_555 . 1_555 n
GD2 CA1 O2 138.31(16) 1_555 . 6_555 n
GD2 CA1 O2 138.31(16) 1_555 . -1_556 n
GD2 CA1 O2 41.69(16) 1_555 . -6_556 n
GD2 CA1 O1 89.9997 5_545 . 3_555 n
GD2 CA1 O1 90.0003 5_545 . -3_456 n
GD2 CA1 O2 138.31(16) 5_545 . 1_555 n
GD2 CA1 O2 41.69(16) 5_545 . 6_555 n
GD2 CA1 O2 41.69(16) 5_545 . -1_556 n
GD2 CA1 O2 138.31(16) 5_545 . -6_556 n
O1 CA1 O1 180.0 3_555 . -3_456 n
O1 CA1 O2 82.83(26) 3_555 . 1_555 n
O1 CA1 O2 82.83(26) 3_555 . 6_555 n
O1 CA1 O2 97.17(26) 3_555 . -1_556 n
O1 CA1 O2 97.17(26) 3_555 . -6_556 n
O1 CA1 O2 97.17(26) -3_446 . 1_555 n
O1 CA1 O2 97.17(26) -3_446 . 6_555 n
O1 CA1 O2 82.83(26) -3_446 . -1_556 n
O1 CA1 O2 82.83(26) -3_446 . -6_556 n
O2 CA1 O2 96.62(33) 1_555 . 6_555 n
O2 CA1 O2 180.0 1_555 . -1_556 n
O2 CA1 O2 83.38(33) 1_555 . -6_556 n
O2 CA1 O2 83.38(33) 6_555 . -1_556 n
O2 CA1 O2 180.0 6_555 . -6_556 n
O2 CA1 O2 96.62(33) -1_556 . -6_556 n
GD2 GD1 GD2 180.0 1_555 . 5_545 n
GD2 GD1 O1 90.0003 1_555 . 3_555 n
GD2 GD1 O1 89.9997 1_555 . -3_456 n
GD2 GD1 O2 41.69(16) 1_555 . 1_555 n
GD2 GD1 O2 138.31(16) 1_555 . 6_555 n
GD2 GD1 O2 138.31(16) 1_555 . -1_556 n
GD2 GD1 O2 41.69(16) 1_555 . -6_556 n
GD2 GD1 O1 89.9997 5_545 . 3_555 n
GD2 GD1 O1 90.0003 5_545 . -3_456 n
GD2 GD1 O2 138.31(16) 5_545 . 1_555 n
GD2 GD1 O2 41.69(16) 5_545 . 6_555 n
GD2 GD1 O2 41.69(16) 5_545 . -1_556 n
GD2 GD1 O2 138.31(16) 5_545 . -6_556 n
O1 GD1 O1 180.0 3_555 . -3_456 n
O1 GD1 O2 82.83(26) 3_555 . 1_555 n
O1 GD1 O2 82.83(26) 3_555 . 6_555 n
O1 GD1 O2 97.17(26) 3_555 . -1_556 n
O1 GD1 O2 97.17(26) 3_555 . -6_556 n
O1 GD1 O2 97.17(26) -3_446 . 1_555 n
O1 GD1 O2 97.17(26) -3_446 . 6_555 n
O1 GD1 O2 82.83(26) -3_446 . -1_556 n
O1 GD1 O2 82.83(26) -3_446 . -6_556 n
O2 GD1 O2 96.62(33) 1_555 . 6_555 n
O2 GD1 O2 180.0 1_555 . -1_556 n
O2 GD1 O2 83.38(33) 1_555 . -6_556 n
O2 GD1 O2 83.38(33) 6_555 . -1_556 n
O2 GD1 O2 180.0 6_555 . -6_556 n
O2 GD1 O2 96.62(33) -1_556 . -6_556 n
CA1 GD2 CA1 90.0 1_555 . 2_555 n
CA1 GD2 CA1 180.0 1_555 . 3_555 n
CA1 GD2 CA1 90.0 1_555 . 4_555 n
CA1 GD2 GD1 0.0 1_555 . 1_555 n
CA1 GD2 GD1 90.0 1_555 . 2_555 n
CA1 GD2 GD1 180.0 1_555 . 3_555 n
CA1 GD2 GD1 90.0 1_555 . 4_555 n
CA1 GD2 O2 38.83(17) 1_555 . 1_555 n
CA1 GD2 O2 109.94(13) 1_555 . 2_555 n
CA1 GD2 O2 141.17(17) 1_555 . 3_555 n
CA1 GD2 O2 70.06(13) 1_555 . 4_555 n
CA1 GD2 O2 109.94(13) 1_555 . -5_456 n
CA1 GD2 O2 38.83(17) 1_555 . -6_556 n
CA1 GD2 O2 70.06(13) 1_555 . -7_546 n
CA1 GD2 O2 141.17(17) 1_555 . -8_556 n
CA1 GD2 CA1 90.0 2_555 . 3_555 n
CA1 GD2 CA1 180.0 2_555 . 4_555 n
CA1 GD2 GD1 90.0 2_555 . 1_555 n
CA1 GD2 GD1 0.0 2_555 . 2_555 n
CA1 GD2 GD1 90.0 2_555 . 3_555 n
CA1 GD2 GD1 180.0 2_555 . 4_555 n
CA1 GD2 O2 70.06(13) 2_555 . 1_555 n
CA1 GD2 O2 38.83(17) 2_555 . 2_555 n
CA1 GD2 O2 109.94(13) 2_555 . 3_555 n
CA1 GD2 O2 141.17(17) 2_555 . 4_555 n
CA1 GD2 O2 141.17(17) 2_555 . -5_456 n
CA1 GD2 O2 109.94(13) 2_555 . -6_556 n
CA1 GD2 O2 38.83(17) 2_555 . -7_546 n
CA1 GD2 O2 70.06(13) 2_555 . -8_556 n
CA1 GD2 CA1 90.0 3_555 . 4_555 n
CA1 GD2 GD1 180.0 3_555 . 1_555 n
CA1 GD2 GD1 90.0 3_555 . 2_555 n
CA1 GD2 GD1 0.0 3_555 . 3_555 n
CA1 GD2 GD1 90.0 3_555 . 4_555 n
CA1 GD2 O2 141.17(17) 3_555 . 1_555 n
CA1 GD2 O2 70.06(13) 3_555 . 2_555 n
CA1 GD2 O2 38.83(17) 3_555 . 3_555 n
CA1 GD2 O2 109.94(13) 3_555 . 4_555 n
CA1 GD2 O2 70.06(13) 3_555 . -5_456 n
CA1 GD2 O2 141.17(17) 3_555 . -6_556 n
CA1 GD2 O2 109.94(13) 3_555 . -7_546 n
CA1 GD2 O2 38.83(17) 3_555 . -8_556 n
CA1 GD2 GD1 90.0 4_555 . 1_555 n
CA1 GD2 GD1 180.0 4_555 . 2_555 n
CA1 GD2 GD1 90.0 4_555 . 3_555 n
CA1 GD2 GD1 0.0 4_555 . 4_555 n
CA1 GD2 O2 109.94(13) 4_555 . 1_555 n
CA1 GD2 O2 141.17(17) 4_555 . 2_555 n
CA1 GD2 O2 70.06(13) 4_555 . 3_555 n
CA1 GD2 O2 38.83(17) 4_555 . 4_555 n
CA1 GD2 O2 38.83(17) 4_555 . -5_456 n
CA1 GD2 O2 70.06(13) 4_555 . -6_556 n
CA1 GD2 O2 141.17(17) 4_555 . -7_546 n
CA1 GD2 O2 109.94(13) 4_555 . -8_556 n
GD1 GD2 GD1 90.0 1_555 . 2_555 n
GD1 GD2 GD1 180.0 1_555 . 3_555 n
GD1 GD2 GD1 90.0 1_555 . 4_555 n
GD1 GD2 O2 38.83(17) 1_555 . 1_555 n
GD1 GD2 O2 109.94(13) 1_555 . 2_555 n
GD1 GD2 O2 141.17(17) 1_555 . 3_555 n
GD1 GD2 O2 70.06(13) 1_555 . 4_555 n
GD1 GD2 O2 109.94(13) 1_555 . -5_456 n
GD1 GD2 O2 38.83(17) 1_555 . -6_556 n
GD1 GD2 O2 70.06(13) 1_555 . -7_546 n
GD1 GD2 O2 141.17(17) 1_555 . -8_556 n
GD1 GD2 GD1 90.0 2_555 . 3_555 n
GD1 GD2 GD1 180.0 2_555 . 4_555 n
GD1 GD2 O2 70.06(13) 2_555 . 1_555 n
GD1 GD2 O2 38.83(17) 2_555 . 2_555 n
GD1 GD2 O2 109.94(13) 2_555 . 3_555 n
GD1 GD2 O2 141.17(17) 2_555 . 4_555 n
GD1 GD2 O2 141.17(17) 2_555 . -5_456 n
GD1 GD2 O2 109.94(13) 2_555 . -6_556 n
GD1 GD2 O2 38.83(17) 2_555 . -7_546 n
GD1 GD2 O2 70.06(13) 2_555 . -8_556 n
GD1 GD2 GD1 90.0 3_555 . 4_555 n
GD1 GD2 O2 141.17(17) 3_555 . 1_555 n
GD1 GD2 O2 70.06(13) 3_555 . 2_555 n
GD1 GD2 O2 38.83(17) 3_555 . 3_555 n
GD1 GD2 O2 109.94(13) 3_555 . 4_555 n
GD1 GD2 O2 70.06(13) 3_555 . -5_456 n
GD1 GD2 O2 141.17(17) 3_555 . -6_556 n
GD1 GD2 O2 109.94(13) 3_555 . -7_546 n
GD1 GD2 O2 38.83(17) 3_555 . -8_556 n
GD1 GD2 O2 109.94(13) 4_555 . 1_555 n
GD1 GD2 O2 141.17(17) 4_555 . 2_555 n
GD1 GD2 O2 70.06(13) 4_555 . 3_555 n
GD1 GD2 O2 38.83(17) 4_555 . 4_555 n
GD1 GD2 O2 38.83(17) 4_555 . -5_456 n
GD1 GD2 O2 70.06(13) 4_555 . -6_556 n
GD1 GD2 O2 141.17(17) 4_555 . -7_546 n
GD1 GD2 O2 109.94(13) 4_555 . -8_556 n
O2 GD2 O2 73.92(17) 1_555 . 2_555 n
O2 GD2 O2 116.5(4) 1_555 . 3_555 n
O2 GD2 O2 73.92(17) 1_555 . 4_555 n
O2 GD2 O2 143.92(28) 1_555 . -5_456 n
O2 GD2 O2 77.67(35) 1_555 . -6_556 n
O2 GD2 O2 75.26(31) 1_555 . -7_546 n
O2 GD2 O2 140.12(26) 1_555 . -8_556 n
O2 GD2 O2 73.92(17) 2_555 . 3_555 n
O2 GD2 O2 116.5(4) 2_555 . 4_555 n
O2 GD2 O2 140.12(26) 2_555 . -5_456 n
O2 GD2 O2 143.92(28) 2_555 . -6_556 n
O2 GD2 O2 77.67(35) 2_555 . -7_546 n
O2 GD2 O2 75.26(31) 2_555 . -8_556 n
O2 GD2 O2 73.92(17) 3_555 . 4_555 n
O2 GD2 O2 75.26(31) 3_555 . -5_456 n
O2 GD2 O2 140.12(26) 3_555 . -6_556 n
O2 GD2 O2 143.92(28) 3_555 . -7_546 n
O2 GD2 O2 77.67(35) 3_555 . -8_556 n
O2 GD2 O2 77.67(35) 4_555 . -5_456 n
O2 GD2 O2 75.26(31) 4_555 . -6_556 n
O2 GD2 O2 140.12(26) 4_555 . -7_546 n
O2 GD2 O2 143.92(28) 4_555 . -8_556 n
O2 GD2 O2 73.92(17) -5_456 . -6_556 n
O2 GD2 O2 116.5(4) -5_456 . -7_546 n
O2 GD2 O2 73.92(17) -5_456 . -8_556 n
O2 GD2 O2 73.92(17) -6_556 . -7_546 n
O2 GD2 O2 116.5(4) -6_556 . -8_556 n
O2 GD2 O2 73.92(17) -7_546 . -8_556 n
O1 GE1 O1 107.5(7) 1_555 . -4_555 n
O1 GE1 O2 104.9(4) 1_555 . 2_555 n
O1 GE1 O2 109.3(5) 1_555 . -8_555 n
O1 GE1 O2 109.3(5) -4_545 . 2_555 n
O1 GE1 O2 104.9(4) -4_545 . -8_555 n
O2 GE1 O2 120.4(5) 2_555 . -8_555 n
CA1 O1 GD1 0.0 3_555 . 3_555 n
CA1 O1 GE1 110.3(4) 3_555 . 1_555 n
CA1 O1 GE1 110.3(4) 3_555 . 6_665 n
GD1 O1 GE1 110.3(4) 3_555 . 1_555 n
GD1 O1 GE1 110.3(4) 3_555 . 6_665 n
GE1 O1 GE1 127.4(5) 1_555 . 6_665 n
CA1 O2 GD1 0.0 1_555 . 1_555 n
CA1 O2 GD2 99.48(24) 1_555 . 1_555 n
CA1 O2 GE1 128.6(4) 1_555 . 4_555 n
GD1 O2 GD2 99.48(24) 1_555 . 1_555 n
GD1 O2 GE1 128.6(4) 1_555 . 4_555 n
GD2 O2 GE1 130.9(4) 1_555 . 4_555 n
loop_
_geom_bond_atom_site_label_1
_geom_bond_atom_site_label_2
_geom_bond_distance
_geom_bond_site_symmetry_1
_geom_bond_site_symmetry_2
_geom_bond_publ_flag
CA1 GD2 3.562030(30) . 1_555 n
CA1 GD2 3.562030(30) . 5_545 n
CA1 GE1 3.59296(14) . 3_555 n
CA1 GE1 3.59296(14) . 3_556 n
CA1 GE1 3.59296(14) . 4_555 n
CA1 GE1 3.59296(14) . 4_556 n
CA1 GE1 3.59296(14) . 7_455 n
CA1 GE1 3.59296(14) . 7_456 n
CA1 GE1 3.59296(14) . 8_445 n
CA1 GE1 3.59296(14) . 8_446 n
CA1 O1 2.546(10) . 3_555 n
CA1 O1 2.546(10) . -3_446 n
CA1 O2 2.265(7) . 1_555 n
CA1 O2 2.265(7) . 6_555 n
CA1 O2 2.265(7) . -1_556 n
CA1 O2 2.265(7) . -6_556 n
GD1 GD2 3.562030(30) . 1_555 n
GD1 GD2 3.562030(30) . 5_545 n
GD1 O1 2.546(10) . 3_555 n
GD1 O1 2.546(10) . -3_446 n
GD1 O2 2.265(7) . 1_555 n
GD1 O2 2.265(7) . 6_555 n
GD1 O2 2.265(7) . -1_556 n
GD1 O2 2.265(7) . -6_556 n
GD2 CA1 3.562030(30) . 1_555 n
GD2 CA1 3.562030(30) . 2_555 n
GD2 CA1 3.562030(30) . 3_555 n
GD2 CA1 3.562030(30) . 4_555 n
GD2 GD1 3.562030(30) . 1_555 n
GD2 GD1 3.562030(30) . 2_555 n
GD2 GD1 3.562030(30) . 3_555 n
GD2 GD1 3.562030(30) . 4_555 n
GD2 O2 2.402(7) . 1_555 n
GD2 O2 2.402(7) . 2_555 n
GD2 O2 2.402(7) . 3_555 n
GD2 O2 2.402(7) . 4_555 n
GD2 O2 2.402(7) . -5_556 n
GD2 O2 2.402(7) . -6_556 n
GD2 O2 2.402(7) . -7_556 n
GD2 O2 2.402(7) . -8_556 n
GE1 CA1 3.59296(14) . 2_554 n
GE1 CA1 3.59296(14) . 2_555 n
GE1 CA1 3.59296(14) . 3_554 n
GE1 CA1 3.59296(14) . 3_555 n
GE1 O1 1.802(4) . 1_555 n
GE1 O1 1.801(4) . -4_645 n
GE1 O2 1.714(6) . 2_555 n
GE1 O2 1.714(6) . -8_555 n
O1 CA1 2.546(10) . 3_555 n
O1 GD1 2.546(10) . 3_555 n
O1 GE1 1.802(4) . 1_555 n
O1 GE1 1.801(4) . 6_665 n
O2 CA1 2.265(7) . 1_555 n
O2 GD1 2.265(7) . 1_555 n
O2 GD2 2.402(7) . 1_555 n
O2 GE1 1.714(6) . 4_555 n
loop_
_pd_meas_counts_total
_pd_proc_ls_weight
_pd_proc_intensity_bkg_calc
_pd_calc_intensity_total
8089.0 0.0001236 8071.93945 8071.92969
7811.0 0.0001280 8049.56494 8049.55469
7935.0 0.0001260 8028.36914 8028.35938
8059.0 0.0001241 8008.29248 8008.28223
8224.0 0.0001216 7989.27588 7989.26611
7796.0 0.0001283 7971.26318 7971.25342
7940.0 0.0001259 7954.20264 7954.19287
7953.0 0.0001257 7938.04150 7938.03174
7957.0 0.0001257 7922.73291 7922.72314
8227.0 0.0001216 7908.22852 7908.21875
7889.0 0.0001268 7894.48486 7894.47510
7954.0 0.0001257 7881.45850 7881.44873
7792.0 0.0001283 7869.10986 7869.10010
7843.0 0.0001275 7857.39893 7857.38916
8054.0 0.0001242 7846.28955 7846.28027
7802.0 0.0001282 7835.74707 7835.73730
7731.0 0.0001293 7825.73682 7825.72705
7793.0 0.0001283 7816.22754 7816.21777
7921.0 0.0001262 7807.18848 7807.17871
7902.0 0.0001266 7798.59033 7798.58105
7681.0 0.0001302 7790.40674 7790.39697
7748.0 0.0001291 7782.61035 7782.60059
7781.0 0.0001285 7775.17773 7775.16797
7752.0 0.0001290 7768.08398 7768.07422
7986.0 0.0001252 7761.30762 7761.29785
7624.0 0.0001312 7754.82715 7754.81738
7577.0 0.0001320 7748.62305 7748.61328
7569.0 0.0001321 7742.67578 7742.66602
7686.0 0.0001301 7736.96777 7736.95801
7895.0 0.0001267 7731.48193 7731.47217
7716.0 0.0001296 7726.20215 7726.19238
7499.0 0.0001334 7721.11377 7721.10400
7719.0 0.0001296 7716.20313 7716.19336
7609.0 0.0001314 7711.45557 7711.44580
7959.0 0.0001256 7706.85986 7706.85010
7674.0 0.0001303 7702.40332 7702.39307
7586.0 0.0001318 7698.07520 7698.06543
7585.0 0.0001318 7693.86475 7693.85498
7571.0 0.0001321 7689.76270 7689.75293
7936.0 0.0001260 7685.76025 7685.75049
7765.0 0.0001288 7681.84863 7681.83887
7610.0 0.0001314 7678.02002 7678.00977
7626.0 0.0001311 7674.26660 7674.25684
7729.0 0.0001294 7670.58252 7670.57227
7815.0 0.0001280 7666.96045 7666.95068
7648.0 0.0001308 7663.39502 7663.38525
7694.0 0.0001300 7659.88086 7659.87109
7611.0 0.0001314 7656.41309 7656.40332
7593.0 0.0001317 7652.98682 7652.97705
7765.0 0.0001288 7649.59814 7649.58838
7688.0 0.0001301 7646.24316 7646.23340
7594.0 0.0001317 7642.91797 7642.90820
7674.0 0.0001303 7639.62012 7639.60986
7441.0 0.0001344 7636.34619 7636.33594
7920.0 0.0001263 7633.09375 7633.08350
7658.0 0.0001306 7629.85986 7629.84961
7578.0 0.0001320 7626.64355 7626.63330
7593.0 0.0001317 7623.44238 7623.43213
7707.0 0.0001298 7620.25439 7620.24463
7898.0 0.0001266 7617.07910 7617.06934
7584.0 0.0001319 7613.91455 7613.90479
7584.0 0.0001319 7610.75977 7610.75000
7678.0 0.0001302 7607.61426 7607.60449
7392.0 0.0001353 7604.47705 7604.46680
7802.0 0.0001282 7601.34717 7601.33740
7476.0 0.0001338 7598.22510 7598.21533
7433.0 0.0001345 7595.10986 7595.09961
7477.0 0.0001337 7592.00098 7591.99121
7455.0 0.0001341 7588.89941 7588.88965
7896.0 0.0001266 7585.80420 7585.79395
7499.0 0.0001334 7582.71533 7582.70557
7525.0 0.0001329 7579.63330 7579.62354
7375.0 0.0001356 7576.55859 7576.54883
7571.0 0.0001321 7573.49121 7573.48145
7834.0 0.0001276 7570.43164 7570.42188
7432.0 0.0001346 7567.38037 7567.37061
7505.0 0.0001332 7564.33740 7564.32764
7462.0 0.0001340 7561.30322 7561.29346
7542.0 0.0001326 7558.27832 7558.26855
7672.0 0.0001303 7555.26367 7555.25391
7562.0 0.0001322 7552.25928 7552.24951
7495.0 0.0001334 7549.26611 7549.25635
7533.0 0.0001327 7546.28467 7546.27490
7687.0 0.0001301 7543.31543 7543.30566
7646.0 0.0001308 7540.35889 7540.34912
7461.0 0.0001340 7537.41553 7537.40576
7506.0 0.0001332 7534.48584 7534.47607
7509.0 0.0001332 7531.57080 7531.56104
7675.0 0.0001303 7528.67090 7528.66113
7597.0 0.0001316 7525.78613 7525.77637
7537.0 0.0001327 7522.91748 7522.90771
7513.0 0.0001331 7520.06543 7520.05615
7486.0 0.0001336 7517.23047 7517.22119
7355.0 0.0001360 7514.41309 7514.40332
7746.0 0.0001291 7511.61377 7511.60400
7404.0 0.0001351 7508.83252 7508.82275
7367.0 0.0001357 7506.06934 7506.05957
7454.0 0.0001342 7503.32568 7503.31641
7570.0 0.0001321 7500.60156 7500.59229
7565.0 0.0001322 7497.89697 7497.88770
7441.0 0.0001344 7495.21240 7495.20313
7430.0 0.0001346 7492.54834 7492.53857
7365.0 0.0001358 7489.90430 7489.89453
7424.0 0.0001347 7487.28076 7487.27148
7589.0 0.0001318 7484.67773 7484.66846
7565.0 0.0001322 7482.09619 7482.08643
7626.0 0.0001311 7479.53516 7479.52539
7385.0 0.0001354 7476.99512 7476.98535
7406.0 0.0001350 7474.47559 7474.46631
7617.0 0.0001313 7471.97754 7471.96777
7304.0 0.0001369 7469.50000 7469.49072
7433.0 0.0001345 7467.04346 7467.03418
7345.0 0.0001361 7464.60742 7464.59814
7560.0 0.0001323 7462.19189 7462.18213
7650.0 0.0001307 7459.79688 7459.78711
7264.0 0.0001377 7457.42188 7457.41211
7481.0 0.0001337 7455.06641 7455.05713
7364.0 0.0001358 7452.73096 7452.72119
7316.0 0.0001367 7450.41455 7450.40527
7522.0 0.0001329 7448.11719 7448.10791
7473.0 0.0001338 7445.83838 7445.82910
7465.0 0.0001340 7443.57813 7443.56836
7463.0 0.0001340 7441.33545 7441.32568
7429.0 0.0001346 7439.10986 7439.10059
7512.0 0.0001331 7436.90186 7436.89209
7352.0 0.0001360 7434.70996 7434.70068
7460.0 0.0001340 7432.53418 7432.52490
7389.0 0.0001353 7430.37402 7430.36426
7250.0 0.0001379 7428.22852 7428.21924
7600.0 0.0001316 7426.09717 7426.08789
7419.0 0.0001348 7423.97998 7423.97070
7383.0 0.0001354 7421.87598 7421.86670
7472.0 0.0001338 7419.78467 7419.77539
7424.0 0.0001347 7417.70557 7417.69580
7613.0 0.0001314 7415.63770 7415.62793
7399.0 0.0001352 7413.58057 7413.57080
7302.0 0.0001369 7411.53320 7411.52344
7377.0 0.0001356 7409.49561 7409.48584
7475.0 0.0001338 7407.46631 7407.45654
7598.0 0.0001316 7405.44531 7405.43555
7462.0 0.0001340 7403.43164 7403.42188
7381.0 0.0001355 7401.42480 7401.41504
7343.0 0.0001362 7399.42334 7399.41406
7456.0 0.0001341 7397.42773 7397.41846
7474.0 0.0001338 7395.43652 7395.42725
7322.0 0.0001366 7393.44922 7393.43994
7526.0 0.0001329 7391.46484 7391.45508
7411.0 0.0001349 7389.48291 7389.47314
7416.0 0.0001348 7387.50293 7387.49316
7515.0 0.0001331 7385.52393 7385.51416
7347.0 0.0001361 7383.54492 7383.53516
7321.0 0.0001366 7381.56543 7381.55615
7313.0 0.0001367 7379.58496 7379.57520
7264.0 0.0001377 7377.60303 7377.59326
7417.0 0.0001348 7375.61768 7375.60791
7324.0 0.0001365 7373.62988 7373.62012
7319.0 0.0001366 7371.63770 7371.62842
7563.0 0.0001322 7369.64111 7369.63184
7352.0 0.0001360 7367.63965 7367.62988
7510.0 0.0001332 7365.63184 7365.62256
7310.0 0.0001368 7363.61768 7363.60840
7193.0 0.0001390 7361.59668 7361.58691
7351.0 0.0001360 7359.56738 7359.55811
7347.0 0.0001361 7357.52979 7357.52051
7600.0 0.0001316 7355.48340 7355.47363
7372.0 0.0001356 7353.42725 7353.41797
7381.0 0.0001355 7351.36133 7351.35156
7283.0 0.0001373 7349.28467 7349.27490
7344.0 0.0001362 7347.19629 7347.18701
7565.0 0.0001322 7345.09668 7345.08691
7343.0 0.0001362 7342.98486 7342.97510
7383.0 0.0001354 7340.85938 7340.85010
7314.0 0.0001367 7338.72119 7338.71191
7420.0 0.0001348 7336.56934 7336.56006
7544.0 0.0001326 7334.40332 7334.39404
7349.0 0.0001361 7332.22266 7332.21338
7310.0 0.0001368 7330.02734 7330.01758
7214.0 0.0001386 7327.81641 7327.80664
7189.0 0.0001391 7325.58936 7325.58008
7357.0 0.0001359 7323.34619 7323.33691
7432.0 0.0001346 7321.08691 7321.07715
7197.0 0.0001389 7318.81104 7318.80127
7324.0 0.0001365 7316.51758 7316.50781
7174.0 0.0001394 7314.20703 7314.19727
7437.0 0.0001345 7311.87891 7311.86914
7297.0 0.0001370 7309.53271 7309.52295
7218.0 0.0001385 7307.16846 7307.15869
7295.0 0.0001371 7304.78564 7304.77637
7226.0 0.0001384 7302.38477 7302.37500
7414.0 0.0001349 7299.96484 7299.95508
7045.0 0.0001419 7297.52637 7297.51709
7175.0 0.0001394 7295.06934 7295.05957
7305.0 0.0001369 7292.59277 7292.58301
7337.0 0.0001363 7290.09717 7290.08740
7405.0 0.0001350 7287.58252 7287.57275
7179.0 0.0001393 7285.04834 7285.03857
7280.0 0.0001374 7282.49512 7282.48584
7259.0 0.0001378 7279.92285 7279.91309
7188.0 0.0001391 7277.33105 7277.32178
7436.0 0.0001345 7274.72021 7274.71045
7217.0 0.0001386 7272.09033 7272.08057
7371.0 0.0001357 7269.44092 7269.43115
7252.0 0.0001379 7266.77295 7266.76318
7262.0 0.0001377 7264.08545 7264.07617
7437.0 0.0001345 7261.37939 7261.36963
7260.0 0.0001377 7258.65479 7258.64502
7325.0 0.0001365 7255.91162 7255.90186
7159.0 0.0001397 7253.15039 7253.14063
7057.0 0.0001417 7250.37061 7250.36084
7286.0 0.0001372 7247.57324 7247.56348
7073.0 0.0001414 7244.75781 7244.74805
7175.0 0.0001394 7241.92529 7241.91553
7143.0 0.0001400 7239.07520 7239.06543
7264.0 0.0001377 7236.20801 7236.19824
7295.0 0.0001371 7233.32422 7233.31445
7177.0 0.0001393 7230.42432 7230.41455
7172.0 0.0001394 7227.50830 7227.49854
7178.0 0.0001393 7224.57666 7224.56689
7072.0 0.0001414 7221.62939 7221.61963
7439.0 0.0001344 7218.66748 7218.65771
7348.0 0.0001361 7215.69043 7215.68066
7188.0 0.0001391 7212.69922 7212.68945
7017.0 0.0001425 7209.69434 7209.68457
7176.0 0.0001394 7206.67578 7206.66602
7411.0 0.0001349 7203.64453 7203.63477
7167.0 0.0001395 7200.60010 7200.59033
7195.0 0.0001390 7197.54395 7197.53418
7168.0 0.0001395 7194.47559 7194.46631
7149.0 0.0001399 7191.39648 7191.38672
7417.0 0.0001348 7188.30615 7188.29639
7137.0 0.0001401 7185.20557 7185.19580
7088.0 0.0001411 7182.09521 7182.08545
7220.0 0.0001385 7178.97559 7178.96582
7075.0 0.0001413 7175.84717 7175.83740
7341.0 0.0001362 7172.70996 7172.70020
6993.0 0.0001430 7169.56543 7169.55566
7072.0 0.0001414 7166.41309 7166.40381
7105.0 0.0001407 7163.25439 7163.24463
7078.0 0.0001413 7160.08936 7160.07959
7232.0 0.0001383 7156.91846 7156.90869
7003.0 0.0001428 7153.74268 7153.73291
7150.0 0.0001399 7150.56201 7150.55225
7175.0 0.0001394 7147.37744 7147.36768
7084.0 0.0001412 7144.18945 7144.17969
7269.0 0.0001376 7140.99854 7140.98877
7282.0 0.0001373 7137.80518 7137.79541
7231.0 0.0001383 7134.60986 7134.60010
6889.0 0.0001452 7131.41357 7131.40381
7162.0 0.0001396 7128.21631 7128.20654
7324.0 0.0001365 7125.01904 7125.00928
6946.0 0.0001440 7121.82275 7121.81299
7104.0 0.0001408 7118.62695 7118.61719
7033.0 0.0001422 7115.43262 7115.42285
7133.0 0.0001402 7112.24072 7112.23096
7361.0 0.0001359 7109.05176 7109.04199
7057.0 0.0001417 7105.86572 7105.85596
7201.0 0.0001389 7102.68408 7102.67432
7015.0 0.0001426 7099.50635 7099.49658
7083.0 0.0001412 7096.33398 7096.32422
7295.0 0.0001371 7093.16699 7093.15723
6990.0 0.0001431 7090.00635 7089.99658
7186.0 0.0001392 7086.85205 7086.84229
6939.0 0.0001441 7083.70508 7083.69531
7010.0 0.0001427 7080.56543 7080.55615
7241.0 0.0001381 7077.43457 7077.42529
7015.0 0.0001426 7074.31299 7074.30322
7135.0 0.0001402 7071.20020 7071.19043
7064.0 0.0001416 7068.09717 7068.08789
7035.0 0.0001421 7065.00488 7064.99512
7013.0 0.0001426 7061.92334 7061.91406
6893.0 0.0001451 7058.85352 7058.84375
7043.0 0.0001420 7055.79541 7055.78564
7054.0 0.0001418 7052.74951 7052.73975
6958.0 0.0001437 7049.71680 7049.70703
7169.0 0.0001395 7046.69727 7046.68750
6959.0 0.0001437 7043.69189 7043.68213
7036.0 0.0001421 7040.70068 7040.69092
7014.0 0.0001426 7037.72412 7037.71436
6895.0 0.0001450 7034.76318 7034.75342
7103.0 0.0001408 7031.81689 7031.80713
6988.0 0.0001431 7028.88770 7028.87793
6908.0 0.0001448 7025.97461 7025.96484
6929.0 0.0001443 7023.07813 7023.06836
7120.0 0.0001404 7020.19922 7020.18945
7045.0 0.0001419 7017.33838 7017.32861
7019.0 0.0001425 7014.49512 7014.48535
7098.0 0.0001409 7011.67041 7011.66064
7070.0 0.0001414 7008.86426 7008.85449
6923.0 0.0001444 7006.07715 7006.06738
7229.0 0.0001383 7003.31006 7003.30029
7020.0 0.0001425 7000.56250 7000.55273
6884.0 0.0001453 6997.83496 6997.82520
6921.0 0.0001445 6995.12793 6995.11816
7019.0 0.0001425 6992.44189 6992.43164
7204.0 0.0001388 6989.77637 6989.76660
6959.0 0.0001437 6987.13184 6987.12207
6971.0 0.0001435 6984.50928 6984.49951
6917.0 0.0001446 6981.90869 6981.89893
7042.0 0.0001420 6979.32959 6979.31982
7358.0 0.0001359 6976.77344 6976.76318
7038.0 0.0001421 6974.23926 6974.22949
6888.0 0.0001452 6971.72754 6971.71777
6830.0 0.0001464 6969.23877 6969.22900
6877.0 0.0001454 6966.77295 6966.76318
7100.0 0.0001408 6964.33008 6964.32031
6821.0 0.0001466 6961.91064 6961.90088
6985.0 0.0001432 6959.51514 6959.50537
6921.0 0.0001445 6957.14258 6957.13281
6934.0 0.0001442 6954.79395 6954.78418
7102.0 0.0001408 6952.46924 6952.45947
7037.0 0.0001421 6950.16846 6950.15820
6796.0 0.0001471 6947.89063 6947.88086
6812.0 0.0001468 6945.63770 6945.62793
7073.0 0.0001414 6943.40869 6943.39893
7013.0 0.0001426 6941.20361 6941.19385
6838.0 0.0001462 6939.02295 6939.01318
7030.0 0.0001422 6936.86621 6936.85645
7002.0 0.0001428 6934.73389 6934.72412
6823.0 0.0001466 6932.62549 6932.61572
7096.0 0.0001409 6930.54102 6930.53125
6994.0 0.0001430 6928.48096 6928.47070
6856.0 0.0001459 6926.44434 6926.43457
6918.0 0.0001446 6924.43213 6924.42236
6871.0 0.0001455 6922.44336 6922.43359
7069.0 0.0001415 6920.47900 6920.46924
6903.0 0.0001449 6918.53809 6918.52832
6874.0 0.0001455 6916.62061 6916.61084
7032.0 0.0001422 6914.72705 6914.71729
6859.0 0.0001458 6912.85645 6912.84668
7139.0 0.0001401 6911.00928 6910.99951
6918.0 0.0001446 6909.18506 6909.17529
6955.0 0.0001438 6907.38428 6907.37402
6839.0 0.0001462 6905.60547 6905.59570
6957.0 0.0001437 6903.84961 6903.83984
7144.0 0.0001400 6902.11621 6902.10645
6953.0 0.0001438 6900.40479 6900.39502
6897.0 0.0001450 6898.71533 6898.70557
6781.0 0.0001475 6897.04785 6897.03760
6777.0 0.0001476 6895.40137 6895.39160
7022.0 0.0001424 6893.77637 6893.76660
6850.0 0.0001460 6892.17285 6892.16260
6867.0 0.0001456 6890.58936 6890.57959
7113.0 0.0001406 6889.02686 6889.01660
6899.0 0.0001449 6887.48438 6887.47412
6907.0 0.0001448 6885.96143 6885.95166
6788.0 0.0001473 6884.45850 6884.44824
6723.0 0.0001487 6882.97412 6882.96436
6955.0 0.0001438 6881.50928 6881.49951
6773.0 0.0001476 6880.06299 6880.05322
6983.0 0.0001432 6878.63525 6878.62549
6765.0 0.0001478 6877.22510 6877.21533
6899.0 0.0001449 6875.83252 6875.82275
6898.0 0.0001450 6874.45752 6874.44775
6921.0 0.0001445 6873.09912 6873.08936
7024.0 0.0001424 6871.75732 6871.74707
6775.0 0.0001476 6870.43164 6870.42188
6805.0 0.0001470 6869.12158 6869.11182
6863.0 0.0001457 6867.82715 6867.81689
6850.0 0.0001460 6866.54736 6866.53760
7076.0 0.0001413 6865.28223 6865.27246
6865.0 0.0001457 6864.03125 6864.02100
6846.0 0.0001461 6862.79395 6862.78369
6930.0 0.0001443 6861.56982 6861.55957
6897.0 0.0001450 6860.35840 6860.34863
6964.0 0.0001436 6859.15967 6859.14990
6788.0 0.0001473 6857.97314 6857.96289
6830.0 0.0001464 6856.79785 6856.78760
6908.0 0.0001448 6855.63379 6855.62354
6819.0 0.0001466 6854.47998 6854.47021
7071.0 0.0001414 6853.33691 6853.32666
6724.0 0.0001487 6852.20313 6852.19336
6732.0 0.0001485 6851.07861 6851.06836
6842.0 0.0001462 6849.96289 6849.95313
6788.0 0.0001473 6848.85596 6848.84570
7165.0 0.0001396 6847.75635 6847.74658
6813.0 0.0001468 6846.66455 6846.65430
6672.0 0.0001499 6845.57910 6845.56934
6840.0 0.0001462 6844.50049 6844.49072
6804.0 0.0001470 6843.42725 6843.41748
6878.0 0.0001454 6842.35986 6842.35010
6843.0 0.0001461 6841.29736 6841.28760
6824.0 0.0001465 6840.23975 6840.22949
6732.0 0.0001485 6839.18555 6839.17578
6752.0 0.0001481 6838.13525 6838.12500
7128.0 0.0001403 6837.08740 6837.07764
6735.0 0.0001485 6836.04248 6836.03271
6710.0 0.0001490 6834.99951 6834.98926
6716.0 0.0001489 6833.95801 6833.94775
6730.0 0.0001486 6832.91748 6832.90771
6972.0 0.0001434 6831.87744 6831.86768
6633.0 0.0001508 6830.83740 6830.82764
6635.0 0.0001507 6829.79736 6829.78711
6758.0 0.0001480 6828.75586 6828.74609
6781.0 0.0001475 6827.71338 6827.70313
6985.0 0.0001432 6826.66846 6826.65869
6876.0 0.0001454 6825.62158 6825.61182
6581.0 0.0001520 6824.57129 6824.56152
6941.0 0.0001441 6823.51807 6823.50830
6714.0 0.0001489 6822.46094 6822.45117
7088.0 0.0001411 6821.39941 6821.38965
6706.0 0.0001491 6820.33301 6820.32324
6744.0 0.0001483 6819.26172 6819.25146
6725.0 0.0001487 6818.18408 6818.17432
6816.0 0.0001467 6817.10059 6817.09033
6935.0 0.0001442 6816.01025 6816.00049
6919.0 0.0001445 6814.91260 6814.90283
6819.0 0.0001466 6813.80762 6813.79785
6820.0 0.0001466 6812.69482 6812.68506
6826.0 0.0001465 6811.57324 6811.56348
6887.0 0.0001452 6810.44287 6810.43262
6784.0 0.0001474 6809.30273 6809.29297
6784.0 0.0001474 6808.15283 6808.14307
6853.0 0.0001459 6806.99316 6806.98291
6759.0 0.0001480 6805.82227 6805.81250
6984.0 0.0001432 6804.64063 6804.63037
6647.0 0.0001504 6803.44727 6803.43750
6718.0 0.0001489 6802.24170 6802.23193
6746.0 0.0001482 6801.02441 6801.01416
6841.0 0.0001462 6799.79395 6799.78418
7047.0 0.0001419 6798.55029 6798.54053
6753.0 0.0001481 6797.29346 6797.28369
6764.0 0.0001478 6796.02197 6796.01221
6811.0 0.0001468 6794.73682 6794.72705
6724.0 0.0001487 6793.43701 6793.42725
6822.0 0.0001466 6792.12207 6792.11230
6654.0 0.0001503 6790.79150 6790.78174
6685.0 0.0001496 6789.44531 6789.43555
6640.0 0.0001506 6788.08350 6788.07324
6659.0 0.0001502 6786.70459 6786.69482
6954.0 0.0001438 6785.30908 6785.29932
6767.0 0.0001478 6783.89648 6783.88672
6857.0 0.0001458 6782.46631 6782.45654
6617.0 0.0001511 6781.01904 6781.00928
6813.0 0.0001468 6779.55322 6779.54346
6863.0 0.0001457 6778.06934 6778.05908
6701.0 0.0001492 6776.56641 6776.55664
6574.0 0.0001521 6775.04492 6775.03516
6806.0 0.0001469 6773.50391 6773.49414
6872.0 0.0001455 6771.94385 6771.93408
6909.0 0.0001447 6770.36377 6770.35400
6775.0 0.0001476 6768.76416 6768.75439
6867.0 0.0001456 6767.14404 6767.13428
6568.0 0.0001523 6765.50391 6765.49414
6777.0 0.0001476 6763.84277 6763.83301
7032.0 0.0001422 6762.16064 6762.15088
6671.0 0.0001499 6760.45752 6760.44775
6729.0 0.0001486 6758.73291 6758.72314
6693.0 0.0001494 6756.98730 6756.97754
6684.0 0.0001496 6755.21973 6755.20996
6954.0 0.0001438 6753.43066 6753.42090
6675.0 0.0001498 6751.61914 6751.60938
6663.0 0.0001501 6749.78564 6749.77588
6773.0 0.0001476 6747.92969 6747.91992
6801.0 0.0001470 6746.05127 6746.04150
6995.0 0.0001430 6744.15039 6744.14063
6714.0 0.0001489 6742.22656 6742.21729
6690.0 0.0001495 6740.28027 6740.27051
6803.0 0.0001470 6738.31104 6738.30127
6737.0 0.0001484 6736.31836 6736.30859
6856.0 0.0001459 6734.30273 6734.29297
6704.0 0.0001492 6732.26367 6732.25439
6673.0 0.0001499 6730.20166 6730.19189
6617.0 0.0001511 6728.11621 6728.10645
6838.0 0.0001462 6726.00684 6725.99756
6897.0 0.0001450 6723.87451 6723.86523
6623.0 0.0001510 6721.71875 6721.70898
6777.0 0.0001476 6719.53906 6719.52979
6638.0 0.0001506 6717.33594 6717.32666
6746.0 0.0001482 6715.10938 6715.10010
6826.0 0.0001465 6712.85889 6712.84961
6634.0 0.0001507 6710.58545 6710.57568
6647.0 0.0001504 6708.28809 6708.27832
6636.0 0.0001507 6705.96680 6705.95752
6845.0 0.0001461 6703.62256 6703.61279
6610.0 0.0001513 6701.25439 6701.24512
6422.0 0.0001557 6698.86328 6710.36865
6662.0 0.0001501 6696.44824 6708.47998
6671.0 0.0001499 6694.01025 6706.60498
6675.0 0.0001498 6691.54883 6704.74658
6819.0 0.0001466 6689.06445 6702.90967
6513.0 0.0001535 6686.55664 6701.09912
6786.0 0.0001474 6684.02637 6699.31885
6672.0 0.0001499 6681.47266 6697.57568
6762.0 0.0001479 6678.89648 6695.87598
6880.0 0.0001453 6676.29785 6694.22656
6666.0 0.0001500 6673.67627 6692.63672
6660.0 0.0001502 6671.03223 6691.11572
6536.0 0.0001530 6668.36670 6689.67578
6656.0 0.0001502 6665.67822 6688.32959
6878.0 0.0001454 6662.96826 6687.09180
6605.0 0.0001514 6660.23682 6685.98096
6535.0 0.0001530 6657.48340 6685.01709
6427.0 0.0001556 6654.70850 6684.22510
6557.0 0.0001525 6651.91260 6683.63428
6798.0 0.0001471 6649.09521 6683.27881
6582.0 0.0001519 6646.25732 6683.20117
6676.0 0.0001498 6643.39893 6683.45068
6462.0 0.0001548 6640.52002 6684.08887
6546.0 0.0001528 6637.62109 6685.19141
6796.0 0.0001471 6634.70215 6686.85205
6668.0 0.0001500 6631.76367 6689.18652
6709.0 0.0001491 6628.80518 6692.34473
6616.0 0.0001511 6625.82813 6696.51514
6561.0 0.0001524 6622.83154 6701.94385
6893.0 0.0001451 6619.81689 6708.95459
6881.0 0.0001453 6616.78320 6717.98096
6706.0 0.0001491 6613.73193 6729.61475
6690.0 0.0001495 6610.66260 6744.69629
6939.0 0.0001441 6607.57568 6764.51465
7202.0 0.0001389 6604.47168 6791.35645
7069.0 0.0001415 6601.35059 6829.98486
7211.0 0.0001387 6598.21289 6891.06934
7240.0 0.0001381 6595.05859 6997.37305
7547.0 0.0001325 6591.88867 7191.61670
8112.0 0.0001233 6588.70264 7541.32861
8193.0 0.0001221 6585.50146 8131.56104
8670.0 0.0001153 6582.28516 9031.06836
9472.0 0.0001056 6579.05420 10230.63379
10675.0 0.0000937 6575.80908 11612.18262
12314.0 0.0000812 6572.54932 12900.07813
13403.0 0.0000746 6569.27637 13690.61133
14357.0 0.0000697 6565.99023 13717.03125
13734.0 0.0000728 6562.69092 12845.62891
11991.0 0.0000834 6559.37891 11319.78418
10392.0 0.0000962 6556.05518 9730.87207
8581.0 0.0001165 6552.71924 8483.64648
7687.0 0.0001301 6549.37158 7673.02148
7165.0 0.0001396 6546.01318 7216.09131
6881.0 0.0001453 6542.64404 6979.47168
6934.0 0.0001442 6539.26465 6855.87256
6572.0 0.0001522 6535.87500 6783.78613
6638.0 0.0001506 6532.47607 6735.18701
6476.0 0.0001544 6529.06787 6698.82031
6633.0 0.0001508 6525.65137 6670.04004
6696.0 0.0001493 6522.22607 6646.54248
6538.0 0.0001530 6518.79346 6626.93457
6493.0 0.0001540 6515.35254 6610.26953
6473.0 0.0001545 6511.90479 6595.87549
6592.0 0.0001517 6508.45020 6583.25879
6786.0 0.0001474 6504.98975 6572.05420
6454.0 0.0001549 6501.52344 6561.98438
6502.0 0.0001538 6498.05127 6552.83643
6527.0 0.0001532 6494.57471 6544.44531
6554.0 0.0001526 6491.09326 6536.68164
6555.0 0.0001526 6487.60693 6529.44141
6667.0 0.0001500 6484.11768 6522.64307
6425.0 0.0001556 6480.62500 6516.21826
6366.0 0.0001571 6477.12939 6510.11230
6540.0 0.0001529 6473.63135 6504.28125
6572.0 0.0001522 6470.13135 6498.68604
6513.0 0.0001535 6466.62939 6493.29736
6349.0 0.0001575 6463.12646 6488.08838
6539.0 0.0001529 6459.62305 6483.03711
6497.0 0.0001539 6456.11865 6478.12451
6454.0 0.0001549 6452.61523 6473.33643
6288.0 0.0001590 6449.11182 6468.65723
6449.0 0.0001551 6445.60986 6464.07666
6348.0 0.0001575 6442.10889 6459.58398
6369.0 0.0001570 6438.61035 6455.17139
6625.0 0.0001509 6435.11377 6450.83008
6410.0 0.0001560 6431.62012 6446.55518
6381.0 0.0001567 6428.12891 6442.34033
6421.0 0.0001557 6424.64209 6438.18018
6343.0 0.0001577 6421.15869 6434.07031
6466.0 0.0001547 6417.68066 6430.00781
6341.0 0.0001577 6414.20654 6425.98926
6310.0 0.0001585 6410.73828 6410.72900
6240.0 0.0001603 6407.27588 6407.26611
6298.0 0.0001588 6403.81934 6403.81006
6504.0 0.0001538 6400.36914 6400.35986
6316.0 0.0001583 6396.92627 6396.91699
6406.0 0.0001561 6393.49072 6393.48145
6553.0 0.0001526 6390.06348 6390.05420
6233.0 0.0001604 6386.64404 6386.63477
6419.0 0.0001558 6383.23340 6383.22412
6324.0 0.0001581 6379.83203 6379.82227
6337.0 0.0001578 6376.43994 6376.43018
6331.0 0.0001580 6373.05762 6373.04834
6393.0 0.0001564 6369.68555 6369.67627
6468.0 0.0001546 6366.32471 6366.31494
6397.0 0.0001563 6362.97461 6362.96484
6326.0 0.0001581 6359.63623 6359.62646
6399.0 0.0001563 6356.30957 6356.29980
6471.0 0.0001545 6352.99512 6352.98584
6475.0 0.0001544 6349.69336 6349.68408
6224.0 0.0001607 6346.40479 6346.39551
6471.0 0.0001545 6343.12939 6343.12012
6339.0 0.0001578 6339.86816 6339.85889
6314.0 0.0001584 6336.62109 6336.61182
6382.0 0.0001567 6333.38867 6333.37891
6133.0 0.0001631 6330.17090 6330.16162
6217.0 0.0001608 6326.96875 6326.95898
6397.0 0.0001563 6323.78174 6323.77246
6293.0 0.0001589 6320.61133 6320.60156
6463.0 0.0001547 6317.45654 6317.44727
6248.0 0.0001601 6314.31934 6314.30957
6397.0 0.0001563 6311.19873 6311.18896
6183.0 0.0001617 6308.09521 6308.08594
6265.0 0.0001596 6305.00977 6305.00049
6561.0 0.0001524 6301.94238 6301.93262
6313.0 0.0001584 6298.89355 6298.88379
6321.0 0.0001582 6295.86279 6295.85303
6386.0 0.0001566 6292.85156 6292.84180
6234.0 0.0001604 6289.85938 6289.84961
6455.0 0.0001549 6286.88672 6286.87744
6167.0 0.0001622 6283.93457 6283.92480
6339.0 0.0001578 6281.00195 6280.99268
6154.0 0.0001625 6278.09033 6278.08057
6228.0 0.0001606 6275.19922 6275.18994
6345.0 0.0001576 6272.32959 6272.31982
6168.0 0.0001621 6269.48096 6269.47119
6174.0 0.0001620 6266.65381 6266.64404
6304.0 0.0001586 6263.84912 6263.83936
6258.0 0.0001598 6261.06592 6261.05615
6502.0 0.0001538 6258.30566 6258.29590
6224.0 0.0001607 6255.56787 6255.55811
6168.0 0.0001621 6252.85303 6252.84326
6287.0 0.0001591 6250.16113 6250.15137
6356.0 0.0001573 6247.49268 6247.48291
6325.0 0.0001581 6244.84766 6244.83838
6168.0 0.0001621 6242.22705 6242.21729
6132.0 0.0001631 6239.62988 6239.62012
6228.0 0.0001606 6237.05713 6237.04785
6355.0 0.0001574 6234.50928 6234.49951
6259.0 0.0001598 6231.98584 6231.97607
6242.0 0.0001602 6229.48682 6229.47705
6348.0 0.0001575 6227.01318 6227.00342
6151.0 0.0001626 6224.56494 6224.55518
6342.0 0.0001577 6222.14160 6222.13184
6464.0 0.0001547 6219.74414 6219.73438
6134.0 0.0001630 6217.37207 6217.36230
6018.0 0.0001662 6215.02637 6215.01611
6182.0 0.0001618 6212.70605 6212.69629
6303.0 0.0001587 6210.41260 6210.40283
6345.0 0.0001576 6208.14502 6208.13525
6204.0 0.0001612 6205.90381 6205.89404
6141.0 0.0001628 6203.68945 6203.67969
6270.0 0.0001595 6201.50146 6201.49170
6392.0 0.0001564 6199.34082 6199.33105
6474.0 0.0001545 6197.20654 6197.19678
6119.0 0.0001634 6195.09961 6195.08984
6165.0 0.0001622 6193.01953 6193.00977
6275.0 0.0001594 6190.96680 6190.95703
6222.0 0.0001607 6188.94141 6188.93164
6267.0 0.0001596 6186.94287 6186.93311
6141.0 0.0001628 6184.97266 6184.96240
6174.0 0.0001620 6183.02930 6183.01953
6140.0 0.0001629 6181.11377 6181.10352
6188.0 0.0001616 6179.22559 6179.21582
6280.0 0.0001592 6177.36523 6177.35498
6131.0 0.0001631 6175.53223 6175.52246
6217.0 0.0001608 6173.72705 6173.71729
6042.0 0.0001655 6171.94971 6171.93994
6233.0 0.0001604 6170.20020 6170.19043
6374.0 0.0001569 6168.47852 6168.46875
6212.0 0.0001610 6166.78467 6166.77490
6214.0 0.0001609 6165.11865 6165.10840
6099.0 0.0001640 6163.47998 6163.47021
6194.0 0.0001614 6161.86963 6161.85986
6320.0 0.0001582 6160.28662 6160.27686
6208.0 0.0001611 6158.73193 6158.72168
6169.0 0.0001621 6157.20410 6157.19434
6055.0 0.0001652 6155.70459 6155.69434
6137.0 0.0001629 6154.23242 6154.22266
6431.0 0.0001555 6152.78809 6152.77783
6174.0 0.0001620 6151.37109 6151.36133
6264.0 0.0001596 6149.98193 6149.97168
6169.0 0.0001621 6148.61963 6148.60986
6181.0 0.0001618 6147.28516 6147.27490
6346.0 0.0001576 6145.97754 6145.96729
6080.0 0.0001645 6144.69727 6144.68750
6134.0 0.0001630 6143.44434 6143.43408
6154.0 0.0001625 6142.21826 6142.20850
6188.0 0.0001616 6141.01904 6141.00928
6245.0 0.0001601 6139.84668 6139.83691
6105.0 0.0001638 6138.70117 6138.69141
6059.0 0.0001650 6137.58203 6137.57227
6088.0 0.0001643 6136.48975 6136.47949
6170.0 0.0001621 6135.42334 6135.41357
6509.0 0.0001536 6134.38330 6134.37354
6132.0 0.0001631 6133.36963 6133.35938
6183.0 0.0001617 6132.38184 6132.37158
6087.0 0.0001643 6131.41943 6131.40967
5999.0 0.0001667 6130.48340 6130.47314
6314.0 0.0001584 6129.57227 6129.56201
6045.0 0.0001654 6128.68652 6128.67627
6140.0 0.0001629 6127.82568 6127.81592
6077.0 0.0001646 6126.99023 6126.97998
6218.0 0.0001608 6126.17969 6126.16943
6208.0 0.0001611 6125.39355 6125.38330
6061.0 0.0001650 6124.63184 6124.62158
6197.0 0.0001614 6123.89453 6123.88428
6085.0 0.0001643 6123.18115 6123.17090
6113.0 0.0001636 6122.49170 6122.48145
6308.0 0.0001585 6121.82568 6121.81543
6170.0 0.0001621 6121.18311 6121.17285
6005.0 0.0001665 6120.56396 6120.55371
6087.0 0.0001643 6119.96777 6119.95752
6242.0 0.0001602 6119.39453 6119.38428
6183.0 0.0001617 6118.84375 6118.83350
5999.0 0.0001667 6118.31494 6118.30469
6020.0 0.0001661 6117.80811 6117.79834
5981.0 0.0001672 6117.32373 6117.31348
6160.0 0.0001623 6116.86084 6116.85059
6303.0 0.0001587 6116.41895 6116.40869
6104.0 0.0001638 6115.99854 6115.98828
6078.0 0.0001645 6115.59863 6115.58838
6137.0 0.0001629 6115.21924 6115.20947
6022.0 0.0001661 6114.86084 6114.85059
6283.0 0.0001592 6114.52197 6114.51172
6012.0 0.0001663 6114.20264 6114.19238
6084.0 0.0001644 6113.90332 6113.89307
6119.0 0.0001634 6113.62305 6113.61279
6046.0 0.0001654 6113.36133 6113.35156
6284.0 0.0001591 6113.11914 6113.10889
6162.0 0.0001623 6112.89453 6112.88428
5994.0 0.0001668 6112.68848 6112.67822
6045.0 0.0001654 6112.50000 6112.48975
5985.0 0.0001671 6112.32910 6112.31885
6114.0 0.0001636 6112.17529 6112.16504
6066.0 0.0001649 6112.03857 6112.02832
6065.0 0.0001649 6111.91846 6111.90820
5952.0 0.0001680 6111.81445 6111.80420
6017.0 0.0001662 6111.72656 6112.76367
6210.0 0.0001610 6111.65430 6112.73926
5978.0 0.0001673 6111.59717 6112.73340
6006.0 0.0001665 6111.55518 6112.74609
6053.0 0.0001652 6111.52783 6112.77734
5979.0 0.0001673 6111.51514 6112.82813
6254.0 0.0001599 6111.51611 6112.89746
6006.0 0.0001665 6111.53125 6112.98584
6112.0 0.0001636 6111.55957 6113.09375
6073.0 0.0001647 6111.60107 6113.22168
6070.0 0.0001647 6111.65527 6113.36963
6095.0 0.0001641 6111.72217 6114.55225
6099.0 0.0001640 6111.80078 6114.78760
6144.0 0.0001628 6111.89111 6115.04932
5984.0 0.0001671 6111.99316 6115.33691
6107.0 0.0001637 6112.10596 6115.65332
6250.0 0.0001600 6112.22949 6116.00000
5942.0 0.0001683 6112.36377 6116.37891
6139.0 0.0001629 6112.50781 6116.79297
6071.0 0.0001647 6112.66162 6117.24561
6072.0 0.0001647 6112.82471 6117.74023
6162.0 0.0001623 6112.99658 6118.28320
6011.0 0.0001664 6113.17725 6118.87842
6099.0 0.0001640 6113.36670 6119.53467
6097.0 0.0001640 6113.56348 6120.26025
5987.0 0.0001670 6113.76807 6121.06689
6195.0 0.0001614 6113.97998 6121.96826
6068.0 0.0001648 6114.19922 6122.98340
5930.0 0.0001686 6114.42432 6124.13428
5970.0 0.0001675 6114.65576 6125.45166
5905.0 0.0001693 6114.89307 6126.97559
6214.0 0.0001609 6115.13623 6128.76074
6071.0 0.0001647 6115.38428 6130.88086
5967.0 0.0001676 6115.63721 6133.44385
5995.0 0.0001668 6115.89453 6136.62354
6031.0 0.0001658 6116.15576 6140.74512
6185.0 0.0001617 6116.42090 6146.51611
6115.0 0.0001635 6116.68945 6155.49951
6139.0 0.0001629 6116.96094 6170.86426
6176.0 0.0001619 6117.23486 6198.12207
6034.0 0.0001657 6117.51172 6245.23926
6440.0 0.0001553 6117.79004 6320.99268
6267.0 0.0001596 6118.07031 6429.41455
6350.0 0.0001575 6118.35156 6560.89990
6547.0 0.0001527 6118.63428 6692.48145
6624.0 0.0001510 6118.91699 6785.68848
6791.0 0.0001473 6119.20020 6783.60645
6695.0 0.0001494 6119.48340 6677.64941
6587.0 0.0001518 6119.76563 6529.86377
6313.0 0.0001584 6120.04785 6401.85498
6335.0 0.0001579 6120.32813 6323.23145
6553.0 0.0001526 6120.60742 6300.37549
6381.0 0.0001567 6120.88477 6330.12646
6372.0 0.0001569 6121.16016 6407.11865
6525.0 0.0001533 6121.43311 6520.06494
6568.0 0.0001523 6121.70264 6646.33350
6770.0 0.0001477 6121.96973 6753.49268
6740.0 0.0001484 6122.23291 6788.34814
6787.0 0.0001473 6122.49219 6713.65234
6567.0 0.0001523 6122.74756 6568.69434
6255.0 0.0001599 6122.99805 6419.85547
6416.0 0.0001559 6123.24414 6305.00928
6083.0 0.0001644 6123.48486 6231.72266
6064.0 0.0001649 6123.72021 6191.03027
5983.0 0.0001671 6123.94971 6170.03223
5987.0 0.0001670 6124.17334 6158.94043
6307.0 0.0001586 6124.39063 6152.37891
6132.0 0.0001631 6124.60059 6147.95068
6129.0 0.0001632 6124.80420 6144.68652
5967.0 0.0001676 6125.00000 6142.16943
6104.0 0.0001638 6125.18799 6140.18164
6200.0 0.0001613 6125.36865 6138.58545
6108.0 0.0001637 6125.54053 6137.28760
5983.0 0.0001671 6125.70410 6136.21973
5997.0 0.0001668 6125.85889 6135.33154
6137.0 0.0001629 6126.00439 6134.58643
6177.0 0.0001619 6126.14063 6133.95508
6149.0 0.0001626 6126.26709 6133.41455
6073.0 0.0001647 6126.38281 6132.94775
5986.0 0.0001671 6126.48926 6132.54102
6046.0 0.0001654 6126.58447 6132.18262
6254.0 0.0001599 6126.66895 6131.86377
6102.0 0.0001639 6126.74268 6131.57715
6033.0 0.0001658 6126.80469 6131.31543
6171.0 0.0001620 6126.85498 6131.07373
6043.0 0.0001655 6126.89355 6130.84912
6220.0 0.0001608 6126.91992 6130.63525
6056.0 0.0001651 6126.93359 6130.43213
5920.0 0.0001689 6126.93506 6130.23389
6195.0 0.0001614 6126.92285 6130.03955
5934.0 0.0001685 6126.89795 6129.84717
6221.0 0.0001607 6126.85938 6128.63232
5996.0 0.0001668 6126.80713 6128.48047
6059.0 0.0001650 6126.74072 6128.32373
6089.0 0.0001642 6126.66064 6128.15967
6070.0 0.0001647 6126.56543 6127.98730
6207.0 0.0001611 6126.45654 6127.80615
6187.0 0.0001616 6126.33203 6127.61572
6105.0 0.0001638 6126.19238 6127.41455
6062.0 0.0001650 6126.03809 6127.20313
5968.0 0.0001676 6125.86768 6126.97900
6241.0 0.0001602 6125.68164 6126.74316
5938.0 0.0001684 6125.47998 6125.47021
6065.0 0.0001649 6125.26172 6125.25195
6157.0 0.0001624 6125.02734 6125.01758
6192.0 0.0001615 6124.77637 6124.76660
6392.0 0.0001564 6124.50879 6124.49902
5925.0 0.0001688 6124.22461 6124.21484
6187.0 0.0001616 6123.92285 6123.91309
6102.0 0.0001639 6123.60400 6123.59424
6158.0 0.0001624 6123.26758 6123.25781
6332.0 0.0001579 6122.91309 6122.90332
6110.0 0.0001637 6122.54150 6122.53174
6167.0 0.0001622 6122.15186 6122.14209
6073.0 0.0001647 6121.74365 6121.73389
6121.0 0.0001634 6121.31738 6121.30762
6365.0 0.0001571 6120.87256 6120.86279
6177.0 0.0001619 6120.40918 6120.39941
6215.0 0.0001609 6119.92725 6119.91748
6197.0 0.0001614 6119.42627 6119.41650
6099.0 0.0001640 6118.90625 6118.89648
6286.0 0.0001591 6118.36768 6118.35791
6137.0 0.0001629 6117.80908 6117.79932
6035.0 0.0001657 6117.23096 6117.22119
6053.0 0.0001652 6116.63379 6116.62402
6206.0 0.0001611 6116.01660 6116.00732
6253.0 0.0001599 6115.37988 6115.37012
6157.0 0.0001624 6114.72363 6114.71387
6124.0 0.0001633 6114.04688 6114.03711
6118.0 0.0001635 6113.35010 6113.34033
6165.0 0.0001622 6112.63330 6112.62354
6331.0 0.0001580 6111.89600 6111.88623
6168.0 0.0001621 6111.13867 6111.12891
6187.0 0.0001616 6110.36084 6110.35107
6267.0 0.0001596 6109.56201 6109.55273
6281.0 0.0001592 6108.74316 6108.73340
6305.0 0.0001586 6107.90332 6107.89355
6177.0 0.0001619 6107.04297 6107.03320
6170.0 0.0001621 6106.16162 6106.15186
6260.0 0.0001597 6105.25928 6105.24951
6216.0 0.0001609 6104.33643 6104.32666
6193.0 0.0001615 6103.39209 6103.38232
6098.0 0.0001640 6102.42725 6102.41748
6227.0 0.0001606 6101.44092 6101.43115
6203.0 0.0001612 6100.43359 6100.42383
6154.0 0.0001625 6099.40527 6099.39551
6277.0 0.0001593 6098.35547 6098.34619
6134.0 0.0001630 6097.28467 6097.27490
6180.0 0.0001618 6096.19287 6096.18311
6166.0 0.0001622 6095.07959 6095.06982
6212.0 0.0001610 6093.94482 6093.93506
6316.0 0.0001583 6092.78906 6092.77930
5951.0 0.0001680 6091.61182 6091.60205
6145.0 0.0001627 6090.41309 6090.40381
6249.0 0.0001600 6089.19336 6089.18408
6115.0 0.0001635 6087.95264 6087.94287
6324.0 0.0001581 6086.69043 6086.68066
6322.0 0.0001582 6085.40674 6085.39697
6178.0 0.0001619 6084.10205 6084.09229
6122.0 0.0001633 6082.77588 6082.76611
6191.0 0.0001615 6081.42871 6081.41895
6257.0 0.0001598 6080.06006 6080.05029
6172.0 0.0001620 6078.67041 6078.66064
6045.0 0.0001654 6077.25977 6077.25000
6173.0 0.0001620 6075.82813 6075.81836
6134.0 0.0001630 6074.37500 6074.36572
6292.0 0.0001589 6072.90137 6072.89160
6078.0 0.0001645 6071.40625 6071.39697
6045.0 0.0001654 6069.89063 6069.88135
6079.0 0.0001645 6068.35400 6068.34473
5986.0 0.0001671 6066.79688 6066.78711
6331.0 0.0001580 6065.21875 6065.20947
6193.0 0.0001615 6063.62012 6063.61035
6239.0 0.0001603 6062.00049 6061.99121
6068.0 0.0001648 6060.36084 6060.35156
6178.0 0.0001619 6058.70068 6058.69141
6167.0 0.0001622 6057.02002 6057.01074
5976.0 0.0001673 6055.31934 6055.31006
6057.0 0.0001651 6053.59814 6053.58887
6051.0 0.0001653 6051.85742 6051.84766
6035.0 0.0001657 6050.09619 6050.08691
6162.0 0.0001623 6048.31543 6048.30566
5953.0 0.0001680 6046.51465 6046.50488
6034.0 0.0001657 6044.69434 6044.68457
6017.0 0.0001662 6042.85400 6042.84473
6052.0 0.0001652 6040.99463 6040.98535
6192.0 0.0001615 6039.11572 6039.10645
5948.0 0.0001681 6037.21777 6037.20801
6040.0 0.0001656 6035.30029 6035.29102
5981.0 0.0001672 6033.36426 6033.35498
6046.0 0.0001654 6031.40918 6031.39990
6185.0 0.0001617 6029.43555 6029.42578
6021.0 0.0001661 6027.44287 6027.43359
5929.0 0.0001687 6025.43213 6025.42285
6015.0 0.0001663 6023.40283 6023.39355
6035.0 0.0001657 6021.35547 6021.34570
6199.0 0.0001613 6019.29004 6019.28076
5958.0 0.0001678 6017.20654 6017.19727
5953.0 0.0001680 6015.10547 6015.09570
6063.0 0.0001649 6012.98633 6012.97705
5974.0 0.0001674 6010.85059 6010.84082
6069.0 0.0001648 6008.69678 6008.68750
5992.0 0.0001669 6006.52637 6033.96436
5890.0 0.0001698 6004.33838 6033.02539
5944.0 0.0001682 6002.13379 6032.15723
6053.0 0.0001652 5999.91260 6031.36719
6157.0 0.0001624 5997.67480 6030.66553
5945.0 0.0001682 5995.42090 6030.06250
5988.0 0.0001670 5993.15088 6029.57080
6052.0 0.0001652 5990.86475 6029.20313
5881.0 0.0001700 5988.56299 6028.97510
6113.0 0.0001636 5986.24561 6028.90430
5964.0 0.0001677 5983.91260 6029.01025
6034.0 0.0001657 5981.56445 6029.31641
6005.0 0.0001665 5979.20117 6029.84766
6031.0 0.0001658 5976.82324 6030.63525
6049.0 0.0001653 5974.43018 6031.71436
6044.0 0.0001655 5972.02295 6033.12500
5915.0 0.0001691 5969.60156 6034.91504
6053.0 0.0001652 5967.16553 6037.14160
6078.0 0.0001645 5964.71582 6039.87012
6118.0 0.0001635 5962.25293 6043.18066
5880.0 0.0001701 5959.77588 6047.16650
6043.0 0.0001655 5957.28564 6051.94336
5995.0 0.0001668 5954.78271 6057.64990
6021.0 0.0001661 5952.26660 6064.45557
6239.0 0.0001603 5949.73779 6072.57080
5968.0 0.0001676 5947.19629 6082.25635
5969.0 0.0001675 5944.64258 6093.84082
5998.0 0.0001667 5942.07666 6107.74365
6055.0 0.0001652 5939.49951 6124.50146
6179.0 0.0001618 5936.91016 6144.81836
6055.0 0.0001652 5934.30957 6169.62158
6139.0 0.0001629 5931.69775 6200.16016
6160.0 0.0001623 5929.07520 6238.14941
6217.0 0.0001608 5926.44141 6286.02295
6490.0 0.0001541 5923.79736 6347.47363
6389.0 0.0001565 5921.14258 6428.87549
6517.0 0.0001534 5918.47803 6543.18604
6843.0 0.0001461 5915.80371 6719.53516
7325.0 0.0001365 5913.11963 7022.22461
8263.0 0.0001210 5910.42578 7578.04395
9007.0 0.0001110 5907.72314 8596.16406
10621.0 0.0000942 5905.01123 10341.90332
12727.0 0.0000786 5902.29102 13005.51660
15734.0 0.0000636 5899.56152 16432.84766
19544.0 0.0000512 5896.82422 19917.71289
21980.0 0.0000455 5894.07861 22307.03906
22703.0 0.0000440 5891.32520 22215.79492
20148.0 0.0000496 5888.56396 19449.12305
15792.0 0.0000633 5885.79590 15569.88086
12271.0 0.0000815 5883.02002 12072.25488
9342.0 0.0001070 5880.23779 9573.51172
7948.0 0.0001258 5877.44824 8060.43848
7047.0 0.0001419 5874.65234 7243.62744
6493.0 0.0001540 5871.85059 6819.88428
6510.0 0.0001536 5869.04248 6586.67773
6289.0 0.0001590 5866.22900 6440.83008
6189.0 0.0001616 5863.40967 6338.02930
6105.0 0.0001638 5860.58496 6260.10352
6166.0 0.0001622 5857.75537 6198.72266
6231.0 0.0001605 5854.92041 6149.23584
5956.0 0.0001679 5852.08105 6108.62402
5906.0 0.0001693 5849.23779 6074.78467
5908.0 0.0001693 5846.39014 6046.19971
5865.0 0.0001705 5843.53809 6021.75098
6248.0 0.0001601 5840.68262 6000.60156
5813.0 0.0001720 5837.82422 5982.11377
5978.0 0.0001673 5834.96191 5965.79688
5952.0 0.0001680 5832.09668 5951.26709
5984.0 0.0001671 5829.22852 5938.22266
6026.0 0.0001659 5826.35840 5926.42188
5908.0 0.0001693 5823.48535 5915.66846
5805.0 0.0001723 5820.61084 5905.80664
5907.0 0.0001693 5817.73389 5896.70557
5793.0 0.0001726 5814.85596 5888.26025
5932.0 0.0001686 5811.97607 5880.37988
5754.0 0.0001738 5809.09521 5872.99170
5883.0 0.0001700 5806.21289 5866.03223
5796.0 0.0001725 5803.33008 5859.45020
5854.0 0.0001708 5800.44727 5853.19971
6091.0 0.0001642 5797.56396 5847.24268
5764.0 0.0001735 5794.68018 5841.54590
5888.0 0.0001698 5791.79688 5836.08154
5804.0 0.0001723 5788.91406 5830.82471
5769.0 0.0001733 5786.03174 5825.75391
5950.0 0.0001681 5783.14990 5820.85059
5730.0 0.0001745 5780.26953 5816.09912
5754.0 0.0001738 5777.39063 5811.48438
5722.0 0.0001748 5774.51270 5806.99414
5740.0 0.0001742 5771.63672 5802.61719
5845.0 0.0001711 5768.76221 5798.34326
5588.0 0.0001790 5765.89014 5794.16504
5827.0 0.0001716 5763.02051 5763.01074
5761.0 0.0001736 5760.15332 5760.14355
5645.0 0.0001771 5757.28857 5757.27881
5880.0 0.0001701 5754.42725 5754.41748
5630.0 0.0001776 5751.56885 5751.55908
5669.0 0.0001764 5748.71387 5748.70410
5673.0 0.0001763 5745.86230 5745.85254
5651.0 0.0001770 5743.01465 5743.00488
5892.0 0.0001697 5740.17090 5740.16113
5637.0 0.0001774 5737.33154 5737.32178
5695.0 0.0001756 5734.49609 5734.48633
5736.0 0.0001743 5731.66553 5731.65576
5668.0 0.0001764 5728.83984 5728.83008
5866.0 0.0001705 5726.01904 5726.00928
5582.0 0.0001791 5723.20313 5723.19336
5671.0 0.0001763 5720.39258 5720.38281
5586.0 0.0001790 5717.58789 5717.57813
5640.0 0.0001773 5714.78857 5714.77881
5904.0 0.0001694 5711.99512 5711.98535
5534.0 0.0001807 5709.20801 5709.19824
5769.0 0.0001733 5706.42725 5706.41748
5621.0 0.0001779 5703.65234 5703.64258
5655.0 0.0001768 5700.88477 5700.87500
5891.0 0.0001698 5698.12354 5698.11377
5657.0 0.0001768 5695.36963 5695.35986
5650.0 0.0001770 5692.62256 5692.61279
5600.0 0.0001786 5689.88232 5689.87256
5583.0 0.0001791 5687.15039 5687.14063
5680.0 0.0001761 5684.42627 5684.41602
5569.0 0.0001796 5681.70898 5681.69922
5587.0 0.0001790 5679.00049 5678.99023
5579.0 0.0001792 5676.29980 5676.28955
5701.0 0.0001754 5673.60742 5673.59766
5727.0 0.0001746 5670.92334 5670.91357
5538.0 0.0001806 5668.24805 5668.23828
5624.0 0.0001778 5665.58154 5665.57129
5648.0 0.0001771 5662.92383 5662.91406
5587.0 0.0001790 5660.27539 5660.26563
5741.0 0.0001742 5657.63623 5657.62598
5468.0 0.0001829 5655.00586 5654.99609
5575.0 0.0001794 5652.38525 5652.37549
5592.0 0.0001788 5649.77490 5649.76465
5527.0 0.0001809 5647.17383 5647.16357
5618.0 0.0001780 5644.58252 5644.57227
5468.0 0.0001829 5642.00098 5641.99121
5623.0 0.0001778 5639.43018 5639.42041
5643.0 0.0001772 5636.86963 5636.85986
5479.0 0.0001825 5634.31934 5634.30957
5800.0 0.0001724 5631.77979 5631.77002
5592.0 0.0001788 5629.25098 5629.24121
5511.0 0.0001815 5626.73291 5626.72266
5611.0 0.0001782 5624.22559 5624.21533
5672.0 0.0001763 5621.72949 5621.71924
5756.0 0.0001737 5619.24463 5619.23438
5630.0 0.0001776 5616.77051 5616.76074
5564.0 0.0001797 5614.30859 5614.29834
5536.0 0.0001806 5611.85742 5611.84766
5574.0 0.0001794 5609.41846 5609.40820
5842.0 0.0001712 5606.99072 5606.98047
5586.0 0.0001790 5604.57520 5604.56494
5488.0 0.0001822 5602.17090 5602.16064
5628.0 0.0001777 5599.77881 5599.76904
5530.0 0.0001808 5597.39941 5597.38916
5651.0 0.0001770 5595.03174 5595.02148
5563.0 0.0001798 5592.67627 5592.66602
5592.0 0.0001788 5590.33350 5590.32324
5531.0 0.0001808 5588.00293 5587.99268
5583.0 0.0001791 5585.68506 5585.67480
5664.0 0.0001766 5583.37939 5583.36914
5440.0 0.0001838 5581.08643 5581.07617
5551.0 0.0001801 5578.80664 5578.79639
5633.0 0.0001775 5576.53955 5576.52930
5559.0 0.0001799 5574.28516 5574.27490
5742.0 0.0001742 5572.04395 5572.03369
5518.0 0.0001812 5569.81543 5569.80518
5565.0 0.0001797 5567.60059 5567.59033
5583.0 0.0001791 5565.39795 5565.38770
5560.0 0.0001799 5563.20947 5563.19922
5703.0 0.0001753 5561.03369 5561.02344
5501.0 0.0001818 5558.87158 5558.86133
5491.0 0.0001821 5556.72266 5558.07373
5597.0 0.0001787 5554.58740 5556.00049
5440.0 0.0001838 5552.46533 5553.94482
5806.0 0.0001722 5550.35693 5551.90771
5504.0 0.0001817 5548.26221 5549.88965
5451.0 0.0001835 5546.18066 5547.89014
5541.0 0.0001805 5544.11328 5545.91113
5527.0 0.0001809 5542.05908 5543.95264
5654.0 0.0001769 5540.01904 5543.29199
5591.0 0.0001789 5537.99268 5541.43555
5535.0 0.0001807 5535.97998 5539.60645
5508.0 0.0001816 5533.98096 5537.80615
5545.0 0.0001803 5531.99609 5536.03760
5801.0 0.0001724 5530.02441 5534.30078
5594.0 0.0001788 5528.06689 5532.59912
5594.0 0.0001788 5526.12354 5530.93555
5661.0 0.0001766 5524.19385 5529.31250
5656.0 0.0001768 5522.27832 5527.73438
5779.0 0.0001730 5520.37646 5526.20459
5634.0 0.0001775 5518.48877 5524.72949
5547.0 0.0001803 5516.61475 5523.31348
5443.0 0.0001837 5514.75488 5521.96436
5382.0 0.0001858 5512.90869 5520.69141
5619.0 0.0001780 5511.07666 5519.50391
5552.0 0.0001801 5509.25879 5518.41553
5501.0 0.0001818 5507.45459 5517.44141
5463.0 0.0001830 5505.66406 5516.60156
5370.0 0.0001862 5503.88818 5515.92188
5729.0 0.0001746 5502.12549 5515.43213
5514.0 0.0001814 5500.37695 5515.17383
5487.0 0.0001822 5498.64209 5515.20068
5644.0 0.0001772 5496.92188 5515.58447
5457.0 0.0001833 5495.21484 5516.42139
5574.0 0.0001794 5493.52197 5517.84668
5607.0 0.0001783 5491.84277 5520.06201
5403.0 0.0001851 5490.17725 5523.40674
5450.0 0.0001835 5488.52539 5528.55078
5636.0 0.0001774 5486.88770 5536.97852
5730.0 0.0001745 5485.26318 5551.96973
5299.0 0.0001887 5483.65283 5580.03223
5778.0 0.0001731 5482.05566 5631.86377
5646.0 0.0001771 5480.47266 5720.64746
5943.0 0.0001683 5478.90283 5854.88135
6186.0 0.0001617 5477.34668 6024.98682
6252.0 0.0001599 5475.80371 6192.13672
6163.0 0.0001623 5474.27441 6294.00830
6283.0 0.0001592 5472.75879 6272.87305
6024.0 0.0001660 5471.25586 6148.28564
5982.0 0.0001672 5469.76660 6010.32324
5818.0 0.0001719 5468.29102 5932.12402
5825.0 0.0001717 5466.82813 5943.42236
6113.0 0.0001636 5465.37842 6033.58887
6117.0 0.0001635 5463.94189 6155.18896
6448.0 0.0001551 5462.51855 6237.24023
6079.0 0.0001645 5461.10791 6211.00537
6139.0 0.0001629 5459.70996 6074.10596
5799.0 0.0001724 5458.32520 5897.54883
5772.0 0.0001733 5456.95313 5742.55176
5807.0 0.0001722 5455.59375 5632.29004
5497.0 0.0001819 5454.24707 5564.55176
5464.0 0.0001830 5452.91309 5526.54736
5465.0 0.0001830 5451.59180 5505.42334
5392.0 0.0001855 5450.28271 5492.66406
5685.0 0.0001759 5448.98584 5483.89551
5424.0 0.0001844 5447.70117 5477.19922
5348.0 0.0001870 5446.42920 5471.75781
5434.0 0.0001840 5445.16895 5467.17920
5473.0 0.0001827 5443.92139 5463.23779
5428.0 0.0001842 5442.68506 5459.78320
5465.0 0.0001830 5441.46094 5456.70752
5460.0 0.0001832 5440.24902 5453.93457
5426.0 0.0001843 5439.04834 5451.40479
5504.0 0.0001817 5437.85938 5449.07422
5645.0 0.0001771 5436.68213 5446.90918
5421.0 0.0001845 5435.51611 5444.88184
5538.0 0.0001806 5434.36182 5442.97217
5466.0 0.0001829 5433.21875 5441.16260
5408.0 0.0001849 5432.08691 5439.56982
5675.0 0.0001762 5430.96582 5437.92773
5465.0 0.0001830 5429.85645 5436.35303
5452.0 0.0001834 5428.75732 5434.83740
5300.0 0.0001887 5427.66943 5433.37451
5406.0 0.0001850 5426.59229 5431.95850
5506.0 0.0001816 5425.52539 5430.58496
5437.0 0.0001839 5424.46924 5429.25195
5428.0 0.0001842 5423.42383 5427.95410
5472.0 0.0001827 5422.38867 5426.68945
5386.0 0.0001857 5421.36377 5425.45459
5528.0 0.0001809 5420.34863 5424.24854
5509.0 0.0001815 5419.34375 5423.07031
5317.0 0.0001881 5418.34863 5421.91602
5400.0 0.0001852 5417.36377 5419.46338
5425.0 0.0001843 5416.38818 5418.41162
5500.0 0.0001818 5415.42236 5417.37891
5393.0 0.0001854 5414.46631 5416.36377
5330.0 0.0001876 5413.51953 5415.36670
5340.0 0.0001873 5412.58203 5414.38574
5441.0 0.0001838 5411.65332 5413.42236
5525.0 0.0001810 5410.73438 5412.47607
5430.0 0.0001842 5409.82373 5410.29150
5357.0 0.0001867 5408.92236 5409.43262
5505.0 0.0001817 5408.02979 5408.58838
5357.0 0.0001867 5407.14551 5407.75928
5573.0 0.0001794 5406.27002 5406.94775
5365.0 0.0001864 5405.40283 5406.15430
5475.0 0.0001826 5404.54395 5405.38184
5314.0 0.0001882 5403.69287 5404.63232
5349.0 0.0001870 5402.85059 5403.91162
5451.0 0.0001835 5402.01563 5403.22217
5430.0 0.0001842 5401.18896 5402.57275
5246.0 0.0001906 5400.36963 5401.97168
5384.0 0.0001857 5399.55811 5401.43359
5482.0 0.0001824 5398.75391 5400.97998
5559.0 0.0001799 5397.95703 5400.65088
5418.0 0.0001846 5397.16748 5400.52979
5351.0 0.0001869 5396.38525 5400.80957
5452.0 0.0001834 5395.60986 5401.90430
5491.0 0.0001821 5394.84131 5404.59033
5709.0 0.0001752 5394.07959 5410.02734
5509.0 0.0001815 5393.32422 5419.41113
5505.0 0.0001817 5392.57568 5433.03271
5350.0 0.0001869 5391.83350 5448.89258
5576.0 0.0001793 5391.09766 5462.02197
5536.0 0.0001806 5390.36816 5465.74219
5362.0 0.0001865 5389.64453 5456.51758
5531.0 0.0001808 5388.92676 5439.39551
5412.0 0.0001848 5388.21484 5421.99414
5474.0 0.0001827 5387.50879 5408.37061
5453.0 0.0001834 5386.80811 5399.29492
5437.0 0.0001839 5386.11279 5393.82959
5215.0 0.0001918 5385.42334 5390.60547
5374.0 0.0001861 5384.73877 5388.55371
5445.0 0.0001837 5384.05908 5387.06006
5460.0 0.0001832 5383.38477 5385.83789
5462.0 0.0001831 5382.71484 5384.76611
5410.0 0.0001848 5382.05029 5383.79102
5411.0 0.0001848 5381.38965 5382.88525
5292.0 0.0001890 5380.73389 5382.03174
5612.0 0.0001782 5380.08252 5381.21924
5383.0 0.0001858 5379.43555 5380.43799
5343.0 0.0001872 5378.79248 5379.68408
5396.0 0.0001853 5378.15381 5378.95020
5310.0 0.0001883 5377.51855 5378.23535
5450.0 0.0001835 5376.88770 5377.53516
5179.0 0.0001931 5376.25977 5376.84814
5336.0 0.0001874 5375.63623 5376.17188
5267.0 0.0001899 5375.01563 5375.50586
5369.0 0.0001863 5374.39844 5374.84863
5465.0 0.0001830 5373.78418 5374.19971
5428.0 0.0001842 5373.17334 5373.55713
5491.0 0.0001821 5372.56592 5372.92139
5488.0 0.0001822 5371.96094 5372.29102
5338.0 0.0001873 5371.35889 5371.66602
5582.0 0.0001791 5370.75928 5371.04590
5299.0 0.0001887 5370.16211 5370.43066
5244.0 0.0001907 5369.56738 5369.81934
5281.0 0.0001894 5368.97559 5369.21143
5284.0 0.0001893 5368.38525 5368.60742
5624.0 0.0001778 5367.79736 5377.24170
5393.0 0.0001854 5367.21143 5377.06055
5229.0 0.0001912 5366.62744 5376.91162
5344.0 0.0001871 5366.04541 5376.79639
5359.0 0.0001866 5365.46484 5376.71875
5386.0 0.0001857 5364.88574 5376.68115
5323.0 0.0001879 5364.30811 5376.68750
5271.0 0.0001897 5363.73193 5376.74219
5316.0 0.0001881 5363.15723 5376.85010
5432.0 0.0001841 5362.58350 5377.01563
5447.0 0.0001836 5362.01074 5377.11328
5294.0 0.0001889 5361.43896 5377.42139
5564.0 0.0001797 5360.86768 5377.80908
5424.0 0.0001844 5360.29736 5378.28662
5278.0 0.0001895 5359.72803 5378.86523
5433.0 0.0001841 5359.15869 5379.55664
5250.0 0.0001905 5358.59033 5380.37793
5235.0 0.0001910 5358.02197 5381.34521
5359.0 0.0001866 5357.45410 5382.48096
5376.0 0.0001860 5356.88623 5383.81006
5312.0 0.0001883 5356.31836 5385.36182
5275.0 0.0001896 5355.75049 5387.17334
5366.0 0.0001864 5355.18262 5389.28809
5372.0 0.0001862 5354.61426 5391.75977
5375.0 0.0001860 5354.04590 5394.65430
5417.0 0.0001846 5353.47705 5398.05322
5331.0 0.0001876 5352.90771 5402.05908
5327.0 0.0001877 5352.33740 5406.80176
5389.0 0.0001856 5351.76709 5412.44678
5333.0 0.0001875 5351.19580 5419.20947
5617.0 0.0001780 5350.62354 5427.37158
5328.0 0.0001877 5350.05029 5437.31055
5323.0 0.0001879 5349.47656 5449.53564
5364.0 0.0001864 5348.90137 5464.75732
5419.0 0.0001845 5348.32471 5484.00488
5628.0 0.0001777 5347.74707 5508.91113
5551.0 0.0001801 5347.16846 5542.47510
5673.0 0.0001763 5346.58789 5591.12402
5725.0 0.0001747 5346.00586 5669.45703
5876.0 0.0001702 5345.42285 5808.64893
6281.0 0.0001592 5344.83789 6065.72070
6614.0 0.0001512 5344.25098 6522.78027
7380.0 0.0001355 5343.66260 7258.48389
8217.0 0.0001217 5343.07227 8279.22852
9579.0 0.0001044 5342.47998 9423.82324
10445.0 0.0000957 5341.88574 10321.07520
10209.0 0.0000980 5341.28955 10505.28809
9886.0 0.0001012 5340.69141 9812.87207
8629.0 0.0001159 5340.09082 8658.49707
7455.0 0.0001341 5339.48779 7539.78076
6861.0 0.0001458 5338.88281 6695.22754
6078.0 0.0001645 5338.27539 6155.67773
5762.0 0.0001736 5337.66504 5850.02197
5603.0 0.0001785 5337.05273 5686.69873
5549.0 0.0001802 5336.43799 5596.96338
5565.0 0.0001797 5335.82031 5542.26074
5386.0 0.0001857 5335.20020 5504.72607
5367.0 0.0001863 5334.57715 5476.76660
5418.0 0.0001846 5333.95117 5454.97705
5381.0 0.0001858 5333.32275 5437.55176
5554.0 0.0001801 5332.69141 5423.35986
5160.0 0.0001938 5332.05713 5411.62500
5369.0 0.0001863 5331.41992 5401.79150
5248.0 0.0001905 5330.77930 5393.45020
5423.0 0.0001844 5330.13574 5386.29590
5401.0 0.0001852 5329.48926 5380.09668
5382.0 0.0001858 5328.83936 5374.67432
5331.0 0.0001876 5328.18652 5369.89063
5339.0 0.0001873 5327.53027 5365.63525
5236.0 0.0001910 5326.87109 5361.82129
5349.0 0.0001870 5326.20801 5358.37842
5328.0 0.0001877 5325.54199 5355.25000
5279.0 0.0001894 5324.87256 5352.38916
5171.0 0.0001934 5324.19922 5349.75830
5227.0 0.0001913 5323.52295 5347.32520
5337.0 0.0001874 5322.84277 5345.06250
5253.0 0.0001904 5322.15967 5342.94971
5363.0 0.0001865 5321.47217 5340.96533
5364.0 0.0001864 5320.78174 5339.09570
5303.0 0.0001886 5320.08740 5337.32568
5494.0 0.0001820 5319.38965 5335.64404
5379.0 0.0001859 5318.68799 5334.04053
5234.0 0.0001911 5317.98242 5332.50537
5245.0 0.0001907 5317.27344 5331.03271
5327.0 0.0001877 5316.56055 5329.61475
5361.0 0.0001865 5315.84424 5328.24561
5381.0 0.0001858 5315.12402 5326.92041
5335.0 0.0001874 5314.39990 5325.63428
5355.0 0.0001867 5313.67188 5324.38379
5418.0 0.0001846 5312.93994 5323.16455
5534.0 0.0001807 5312.20410 5321.97412
5366.0 0.0001864 5311.46484 5311.45557
5437.0 0.0001839 5310.72119 5310.71191
5518.0 0.0001812 5309.97412 5309.96484
5370.0 0.0001862 5309.22266 5309.21338
5614.0 0.0001781 5308.46777 5308.45850
5371.0 0.0001862 5307.70850 5307.69922
5376.0 0.0001860 5306.94531 5306.93652
5416.0 0.0001846 5306.17871 5306.16943
5355.0 0.0001867 5305.40771 5305.39844
5444.0 0.0001837 5304.63281 5304.62402
5351.0 0.0001869 5303.85449 5303.84521
5331.0 0.0001876 5303.07129 5303.06250
5253.0 0.0001904 5302.28516 5302.27588
5226.0 0.0001914 5301.49463 5301.48535
5469.0 0.0001828 5300.69971 5300.69092
5290.0 0.0001890 5299.90137 5299.89209
5277.0 0.0001895 5299.09912 5299.08984
5320.0 0.0001880 5298.29297 5298.28369
5310.0 0.0001883 5297.48242 5297.47363
5367.0 0.0001863 5296.66846 5296.65967
5267.0 0.0001899 5295.85059 5295.84131
5146.0 0.0001943 5295.02881 5295.01953
5336.0 0.0001874 5294.20264 5294.19336
5315.0 0.0001881 5293.37305 5293.36377
5387.0 0.0001856 5292.53955 5292.53027
5241.0 0.0001908 5291.70215 5291.69287
5356.0 0.0001867 5290.86084 5290.85205
5175.0 0.0001932 5290.01611 5290.00684
5380.0 0.0001859 5289.16699 5289.15820
5543.0 0.0001804 5288.31445 5288.30566
5332.0 0.0001875 5287.45801 5287.44922
5413.0 0.0001847 5286.59814 5286.58936
5393.0 0.0001854 5285.73438 5285.72559
5471.0 0.0001828 5284.86719 5284.85791
5516.0 0.0001813 5283.99561 5283.98682
5180.0 0.0001931 5283.12109 5283.11230
5214.0 0.0001918 5282.24268 5282.23340
5334.0 0.0001875 5281.36084 5281.35156
5294.0 0.0001889 5280.47510 5280.46582
5499.0 0.0001819 5279.58594 5385.34766
5341.0 0.0001872 5278.69336 5389.22461
5300.0 0.0001887 5277.79736 5393.42822
5326.0 0.0001878 5276.89795 5397.98828
5313.0 0.0001882 5275.99512 5402.94092
5615.0 0.0001781 5275.08838 5408.32471
5388.0 0.0001856 5274.17871 5414.18408
5380.0 0.0001859 5273.26611 5420.56787
5361.0 0.0001865 5272.34961 5427.53320
5386.0 0.0001857 5271.43018 5435.14404
5616.0 0.0001781 5270.50732 5443.47363
5582.0 0.0001791 5269.58154 5452.60498
5542.0 0.0001804 5268.65234 5462.63525
5627.0 0.0001777 5267.72021 5473.67432
5546.0 0.0001803 5266.78516 5485.85059
5924.0 0.0001688 5265.84668 5499.31445
5730.0 0.0001745 5264.90576 5514.23877
5827.0 0.0001716 5263.96143 5530.82910
5698.0 0.0001755 5263.01465 5549.32715
5628.0 0.0001777 5262.06445 5570.02051
5742.0 0.0001742 5261.11182 5593.25146
5570.0 0.0001795 5260.15674 5619.43164
5614.0 0.0001781 5259.19824 5649.06104
5625.0 0.0001778 5258.23779 5682.74707
5727.0 0.0001746 5257.27393 5721.23730
5569.0 0.0001796 5256.30811 5765.45801
5426.0 0.0001843 5255.33936 5816.56934
5535.0 0.0001807 5254.36865 5876.03711
5595.0 0.0001787 5253.39502 5945.73438
5699.0 0.0001755 5252.41943 6028.08691
5903.0 0.0001694 5251.44141 6126.27344
6002.0 0.0001666 5250.46094 6244.52441
6072.0 0.0001647 5249.47852 6388.56982
6296.0 0.0001588 5248.49316 6566.35156
6462.0 0.0001548 5247.50635 6789.34229
7056.0 0.0001417 5246.51758 7075.58350
7321.0 0.0001366 5245.52637 7457.85693
7991.0 0.0001251 5244.53369 8005.60938
9173.0 0.0001090 5243.53857 8875.69141
11305.0 0.0000885 5242.54199 10402.75879
14493.0 0.0000690 5241.54346 13199.84082
18593.0 0.0000538 5240.54297 18152.48828
26278.0 0.0000381 5239.54102 26119.77930
36478.0 0.0000274 5238.53760 37220.36719
48870.0 0.0000205 5237.53271 49814.03516
60827.0 0.0000164 5236.52588 59861.12109
62852.0 0.0000159 5235.51807 62139.51172
56431.0 0.0000177 5234.50830 54796.24609
42209.0 0.0000237 5233.49756 42291.42969
29306.0 0.0000341 5232.48535 30044.30859
20378.0 0.0000491 5231.47217 20694.43945
13826.0 0.0000723 5230.45752 14639.45215
10783.0 0.0000927 5229.44189 11158.54590
9043.0 0.0001106 5228.42529 9276.21191
7985.0 0.0001252 5227.40771 8237.71387
7604.0 0.0001315 5226.38916 7607.71826
7011.0 0.0001426 5225.37012 7179.20264
6757.0 0.0001480 5224.35010 6862.56152
6537.0 0.0001530 5223.32910 6617.50391
6148.0 0.0001627 5222.30713 6422.87061
6238.0 0.0001603 5221.28516 6265.55566
5850.0 0.0001709 5220.26270 6136.60205
5881.0 0.0001700 5219.23926 6029.59668
5661.0 0.0001766 5218.21582 5939.82959
5868.0 0.0001704 5217.19141 5863.78223
5894.0 0.0001697 5216.16748 5798.78271
5569.0 0.0001796 5215.14258 5742.77686
5609.0 0.0001783 5214.11816 5694.16260
5513.0 0.0001814 5213.09326 5651.67871
5516.0 0.0001813 5212.06836 5614.32031
5650.0 0.0001770 5211.04346 5581.27881
5522.0 0.0001811 5210.01855 5551.89990
5288.0 0.0001891 5208.99365 5525.64648
5336.0 0.0001874 5207.96973 5502.07861
5461.0 0.0001831 5206.94531 5480.82764
5438.0 0.0001839 5205.92139 5461.58838
5482.0 0.0001824 5204.89795 5444.10400
5390.0 0.0001855 5203.87500 5428.15576
5309.0 0.0001884 5202.85254 5413.56006
5314.0 0.0001882 5201.83057 5400.15771
5433.0 0.0001841 5200.80957 5387.81445
5242.0 0.0001908 5199.78906 5376.41211
5233.0 0.0001911 5198.76904 5365.85010
5241.0 0.0001908 5197.75000 5356.04053
5319.0 0.0001880 5196.73193 5346.90674
5408.0 0.0001849 5195.71484 5338.38135
5292.0 0.0001890 5194.69922 5330.40576
5252.0 0.0001904 5193.68408 5322.92773
5279.0 0.0001894 5192.67041 5315.90039
5419.0 0.0001845 5191.65771 5309.28467
5504.0 0.0001817 5190.64648 5303.04297
5284.0 0.0001893 5189.63623 5189.62744
5430.0 0.0001842 5188.62744 5188.61865
5184.0 0.0001929 5187.62012 5187.61133
5217.0 0.0001917 5186.61475 5186.60596
5365.0 0.0001864 5185.61084 5185.60156
5058.0 0.0001977 5184.60791 5184.59912
5240.0 0.0001908 5183.60742 5183.59863
5180.0 0.0001931 5182.60840 5182.59961
5114.0 0.0001955 5181.61133 5181.60205
5373.0 0.0001861 5180.61572 5180.60693
5162.0 0.0001937 5179.62256 5179.61328
5063.0 0.0001975 5178.63135 5178.62207
5215.0 0.0001918 5177.64160 5177.63281
5094.0 0.0001963 5176.65430 5176.64551
5300.0 0.0001887 5175.66943 5175.66064
5176.0 0.0001932 5174.68652 5174.67773
5265.0 0.0001899 5173.70605 5173.69727
5216.0 0.0001917 5172.72803 5172.71875
5235.0 0.0001910 5171.75195 5171.74316
5412.0 0.0001848 5170.77881 5170.77002
5224.0 0.0001914 5169.80811 5169.79883
5090.0 0.0001965 5168.83936 5168.83057
5127.0 0.0001950 5167.87402 5167.86475
5053.0 0.0001979 5166.91113 5166.90186
5253.0 0.0001904 5165.95068 5165.94141
5155.0 0.0001940 5164.99316 5164.98438
5210.0 0.0001919 5164.03857 5164.02930
5234.0 0.0001911 5163.08643 5163.07764
5148.0 0.0001943 5162.13770 5162.12891
5444.0 0.0001837 5161.19189 5161.18311
4935.0 0.0002026 5160.24902 5160.24023
5203.0 0.0001922 5159.30957 5159.30029
5107.0 0.0001958 5158.37305 5158.36377
5177.0 0.0001932 5157.43945 5157.43066
5393.0 0.0001854 5156.50928 5156.50000
5134.0 0.0001948 5155.58252 5155.57324
5110.0 0.0001957 5154.65869 5157.80615
5135.0 0.0001947 5153.73877 5157.02783
5215.0 0.0001918 5152.82227 5156.26367
5265.0 0.0001899 5151.90869 5155.51367
5067.0 0.0001974 5150.99902 5154.77832
4996.0 0.0002002 5150.09277 5154.06006
4961.0 0.0002016 5149.19043 5153.35938
5103.0 0.0001960 5148.29150 5152.67773
5303.0 0.0001886 5147.39648 5152.01758
5192.0 0.0001926 5146.50488 5151.38135
5172.0 0.0001933 5145.61768 5150.76953
5105.0 0.0001959 5144.73340 5150.18555
5188.0 0.0001928 5143.85352 5149.63232
5251.0 0.0001904 5142.97754 5149.11377
5108.0 0.0001958 5142.10547 5148.63232
5014.0 0.0001994 5141.23730 5148.19385
5147.0 0.0001943 5140.37354 5147.80273
5137.0 0.0001947 5139.51367 5147.46582
5256.0 0.0001903 5138.65771 5147.18945
5126.0 0.0001951 5137.80615 5146.98340
5149.0 0.0001942 5136.95850 5146.85645
5127.0 0.0001950 5136.11523 5146.82227
5192.0 0.0001926 5135.27588 5146.89453
5193.0 0.0001926 5134.44141 5147.09229
5234.0 0.0001911 5133.61084 5147.43750
5046.0 0.0001982 5132.78467 5147.95752
5286.0 0.0001892 5131.96289 5148.68701
5101.0 0.0001960 5131.14551 5149.66943
5348.0 0.0001870 5130.33252 5150.96045
5131.0 0.0001949 5129.52441 5152.63232
5239.0 0.0001909 5128.72021 5154.77881
5220.0 0.0001916 5127.92090 5157.52539
5239.0 0.0001909 5127.12598 5161.04199
5462.0 0.0001831 5126.33594 5165.56299
5250.0 0.0001905 5125.55029 5171.42725
5208.0 0.0001920 5124.76953 5179.16992
5222.0 0.0001915 5123.99268 5189.76074
5275.0 0.0001896 5123.22119 5205.24805
5298.0 0.0001888 5122.45410 5230.22021
5339.0 0.0001873 5121.69238 5274.34766
5491.0 0.0001821 5120.93457 5355.10693
5451.0 0.0001835 5120.18213 5497.35303
5666.0 0.0001765 5119.43408 5724.72510
6172.0 0.0001620 5118.69141 6040.03467
6202.0 0.0001612 5117.95313 6397.34473
6770.0 0.0001477 5117.21973 6681.48340
6736.0 0.0001485 5116.49121 6742.50293
6485.0 0.0001542 5115.76758 6531.81787
6329.0 0.0001580 5115.04883 6177.62744
5805.0 0.0001723 5114.33545 5830.78223
5526.0 0.0001810 5113.62646 5564.37256
5442.0 0.0001838 5112.92285 5389.91357
5206.0 0.0001921 5112.22412 5288.05273
5262.0 0.0001900 5111.52979 5231.95313
5231.0 0.0001912 5110.84082 5200.43408
5133.0 0.0001948 5110.15723 5181.01074
5043.0 0.0001983 5109.47803 5167.60938
5108.0 0.0001958 5108.80420 5157.55566
5167.0 0.0001935 5108.13574 5149.63672
5097.0 0.0001962 5107.47168 5143.21924
5169.0 0.0001935 5106.81299 5137.91357
5154.0 0.0001940 5106.15918 5133.45459
5165.0 0.0001936 5105.51074 5129.65234
5228.0 0.0001913 5104.86719 5126.36719
5129.0 0.0001950 5104.22852 5123.49512
5082.0 0.0001968 5103.59521 5120.95605
5179.0 0.0001931 5102.96680 5118.68994
5088.0 0.0001965 5102.34326 5116.64893
5098.0 0.0001962 5101.72510 5114.79541
5035.0 0.0001986 5101.11182 5113.09961
5132.0 0.0001949 5100.50391 5111.53760
4938.0 0.0002025 5099.90088 5110.08936
5022.0 0.0001991 5099.30273 5108.73877
5232.0 0.0001911 5098.70996 5107.47412
5112.0 0.0001956 5098.12207 5106.28320
5090.0 0.0001965 5097.53955 5105.15723
5164.0 0.0001936 5096.96191 5104.08838
5030.0 0.0001988 5096.38916 5103.07129
5304.0 0.0001885 5095.82178 5102.09863
5083.0 0.0001967 5095.25928 5101.16699
5078.0 0.0001969 5094.70166 5100.27148
5045.0 0.0001982 5094.14893 5099.40967
5115.0 0.0001955 5093.60156 5098.57764
5208.0 0.0001920 5093.05908 5097.77295
4907.0 0.0002038 5092.52148 5096.99316
4998.0 0.0002001 5091.98926 5096.23682
5030.0 0.0001988 5091.46191 5095.50146
5135.0 0.0001947 5090.93896 5094.78662
5268.0 0.0001898 5090.42139 5094.08936
5034.0 0.0001986 5089.90869 5093.40967
5078.0 0.0001969 5089.40088 5099.47852
5045.0 0.0001982 5088.89844 5095.86426
5014.0 0.0001994 5088.40039 5095.62207
5295.0 0.0001889 5087.90723 5095.39941
5117.0 0.0001954 5087.41895 5095.19678
5042.0 0.0001983 5086.93555 5095.01611
5066.0 0.0001974 5086.45703 5094.85791
5020.0 0.0001992 5085.98291 5094.72412
5219.0 0.0001916 5085.51416 5094.61572
5052.0 0.0001979 5085.04980 5094.53516
5099.0 0.0001961 5084.59033 5094.48389
5194.0 0.0001925 5084.13525 5094.46387
4921.0 0.0002032 5083.68506 5094.47900
5197.0 0.0001924 5083.23975 5094.52979
4961.0 0.0002016 5082.79883 5094.62012
5038.0 0.0001985 5082.36279 5094.75391
5150.0 0.0001942 5081.93066 5094.93408
5145.0 0.0001944 5081.50391 5095.16553
5415.0 0.0001847 5081.08105 5095.45215
5241.0 0.0001908 5080.66309 5095.80029
5216.0 0.0001917 5080.24951 5096.21582
5112.0 0.0001956 5079.84082 5096.70508
5120.0 0.0001953 5079.43604 5097.27686
5186.0 0.0001928 5079.03564 5097.93945
5112.0 0.0001956 5078.63965 5115.36963
5049.0 0.0001981 5078.24805 5116.85400
5024.0 0.0001990 5077.86084 5118.50000
5043.0 0.0001983 5077.47803 5120.32813
5270.0 0.0001898 5077.09912 5122.35938
4967.0 0.0002013 5076.72461 5124.62061
5090.0 0.0001965 5076.35449 5127.14258
5103.0 0.0001960 5075.98828 5129.96094
5109.0 0.0001957 5075.62598 5133.11914
5169.0 0.0001935 5075.26807 5136.66943
5054.0 0.0001979 5074.91406 5140.67432
5071.0 0.0001972 5074.56396 5145.20996
5029.0 0.0001988 5074.21777 5150.37012
5207.0 0.0001920 5073.87598 5156.27148
5305.0 0.0001885 5073.53760 5163.05908
5179.0 0.0001931 5073.20313 5170.91699
5034.0 0.0001986 5072.87256 5180.08301
5058.0 0.0001977 5072.54590 5190.86475
5158.0 0.0001939 5072.22266 5203.66650
5318.0 0.0001880 5071.90332 5219.03271
5232.0 0.0001911 5071.58789 5237.71240
5329.0 0.0001877 5071.27588 5260.77051
5237.0 0.0001909 5070.96729 5289.85742
5133.0 0.0001948 5070.66260 5327.89990
5668.0 0.0001764 5070.36084 5380.93213
5471.0 0.0001828 5070.06299 5462.31982
5631.0 0.0001776 5069.76855 5600.29443
5951.0 0.0001680 5069.47705 5846.50830
6393.0 0.0001564 5069.18896 6276.30811
7191.0 0.0001391 5068.90479 6965.81738
7830.0 0.0001277 5068.62305 7936.40283
9162.0 0.0001091 5068.34473 9071.85742
9794.0 0.0001021 5068.06982 10041.26953
10303.0 0.0000971 5067.79785 10365.29590
9818.0 0.0001019 5067.52881 9818.53809
8508.0 0.0001175 5067.26318 8747.00195
7563.0 0.0001322 5067.00000 7643.18848
6596.0 0.0001516 5066.74023 6770.85938
6132.0 0.0001631 5066.48291 6189.70166
5964.0 0.0001677 5066.22852 5851.24609
5579.0 0.0001792 5065.97705 5673.78662
5574.0 0.0001794 5065.72803 5588.05713
5519.0 0.0001812 5065.48193 5551.48047
5505.0 0.0001817 5065.23877 5543.35596
5578.0 0.0001793 5064.99756 5555.70947
5649.0 0.0001770 5064.75928 5587.01270
5685.0 0.0001759 5064.52344 5639.82373
5732.0 0.0001745 5064.28955 5721.93848
5930.0 0.0001686 5064.05859 5852.16064
6414.0 0.0001559 5063.83008 6073.26855
6672.0 0.0001499 5063.60352 6472.35889
7568.0 0.0001321 5063.37891 7200.59375
8707.0 0.0001149 5063.15723 8443.75098
10388.0 0.0000963 5062.93701 10357.63965
13151.0 0.0000760 5062.71924 12894.34766
15096.0 0.0000662 5062.50342 15594.60059
16987.0 0.0000589 5062.28955 17468.50781
17123.0 0.0000584 5062.07764 17431.88867
15393.0 0.0000650 5061.86768 15463.03320
13033.0 0.0000767 5061.65967 12703.51953
10270.0 0.0000974 5061.45313 10170.24316
8144.0 0.0001228 5061.24854 8287.47754
7117.0 0.0001405 5061.04541 7077.72510
6408.0 0.0001561 5060.84424 6376.58838
6089.0 0.0001642 5060.64453 5988.55078
5881.0 0.0001700 5060.44629 5767.38428
5656.0 0.0001768 5060.24951 5629.09961
5569.0 0.0001796 5060.05371 5533.14453
5354.0 0.0001868 5059.85986 5461.43311
5536.0 0.0001806 5059.66699 5405.53809
5214.0 0.0001918 5059.47559 5360.91602
5311.0 0.0001883 5059.28564 5324.71240
5245.0 0.0001907 5059.09668 5294.95996
5194.0 0.0001925 5058.90869 5270.24414
5299.0 0.0001887 5058.72168 5249.52002
5216.0 0.0001917 5058.53564 5232.00293
5142.0 0.0001945 5058.35059 5217.09814
5155.0 0.0001940 5058.16650 5204.34717
5184.0 0.0001929 5057.98340 5193.39404
5142.0 0.0001945 5057.80078 5183.96045
5206.0 0.0001921 5057.61914 5175.82617
5158.0 0.0001939 5057.43799 5168.82080
4965.0 0.0002014 5057.25781 5162.80859
4958.0 0.0002017 5057.07764 5157.68457
5254.0 0.0001903 5056.89844 5153.37158
5129.0 0.0001950 5056.71973 5149.81201
4999.0 0.0002000 5056.54102 5146.97070
5191.0 0.0001926 5056.36328 5144.83252
5063.0 0.0001975 5056.18555 5143.40332
5288.0 0.0001891 5056.00830 5143.23096
5205.0 0.0001921 5055.83105 5136.69141
5137.0 0.0001947 5055.65381 5137.91162
5272.0 0.0001897 5055.47705 5140.12598
5084.0 0.0001967 5055.30029 5143.51904
5316.0 0.0001881 5055.12305 5148.35352
5021.0 0.0001992 5054.94629 5155.00439
5181.0 0.0001930 5054.76953 5164.03223
5032.0 0.0001987 5054.59229 5176.36133
5156.0 0.0001939 5054.41504 5193.74902
5338.0 0.0001873 5054.23730 5219.97461
5251.0 0.0001904 5054.05957 5263.33545
5223.0 0.0001915 5053.88135 5340.50000
5521.0 0.0001811 5053.70313 5479.60889
5709.0 0.0001752 5053.52393 5717.18262
6120.0 0.0001634 5053.34473 6082.46729
6543.0 0.0001528 5053.16455 6567.43701
7023.0 0.0001424 5052.98389 7087.01514
7471.0 0.0001339 5052.80273 7453.87500
7702.0 0.0001298 5052.62109 7457.76221
7305.0 0.0001369 5052.43848 7087.83057
6681.0 0.0001497 5052.25488 6559.52734
6016.0 0.0001662 5052.07080 6069.67480
5711.0 0.0001751 5051.88574 5704.77197
5379.0 0.0001859 5051.69971 5449.99658
5275.0 0.0001896 5051.51270 5311.28418
5199.0 0.0001923 5051.32471 5234.19629
5213.0 0.0001918 5051.13574 5190.32813
5073.0 0.0001971 5050.94580 5163.08057
5103.0 0.0001960 5050.75439 5144.32715
5276.0 0.0001895 5050.56201 5130.41455
5112.0 0.0001956 5050.36865 5119.64551
5120.0 0.0001953 5050.17383 5111.11475
5132.0 0.0001949 5049.97754 5104.26123
5106.0 0.0001958 5049.77979 5098.69971
5173.0 0.0001933 5049.58057 5094.15771
5038.0 0.0001985 5049.38037 5090.43652
5146.0 0.0001943 5049.17822 5087.38916
5028.0 0.0001989 5048.97461 5084.90918
5002.0 0.0001999 5048.76953 5082.92090
5158.0 0.0001939 5048.56299 5081.36963
5003.0 0.0001999 5048.35449 5080.22217
5157.0 0.0001939 5048.14453 5079.46484
4955.0 0.0002018 5047.93262 5079.10059
5071.0 0.0001972 5047.71924 5079.15479
5156.0 0.0001939 5047.50391 5079.68018
5040.0 0.0001984 5047.28662 5080.77197
5099.0 0.0001961 5047.06738 5082.60986
4946.0 0.0002022 5046.84619 5085.57227
5039.0 0.0001985 5046.62305 5090.49707
5127.0 0.0001950 5046.39844 5099.18164
5070.0 0.0001972 5046.17090 5115.00537
5099.0 0.0001961 5045.94189 5143.14063
5116.0 0.0001955 5045.71045 5189.33838
5237.0 0.0001909 5045.47705 5256.51855
5324.0 0.0001878 5045.24121 5339.28320
5429.0 0.0001842 5045.00342 5417.62500
5405.0 0.0001850 5044.76318 5457.04688
5355.0 0.0001867 5044.52100 5432.38672
5401.0 0.0001852 5044.27588 5359.70508
5407.0 0.0001849 5044.02881 5276.44922
5275.0 0.0001896 5043.77930 5206.78076
5017.0 0.0001993 5043.52734 5158.43652
5117.0 0.0001954 5043.27295 5129.63086
5069.0 0.0001973 5043.01611 5114.83203
5273.0 0.0001896 5042.75684 5108.66064
4925.0 0.0002030 5042.49463 5107.54395
5271.0 0.0001897 5042.22998 5109.70996
5029.0 0.0001988 5041.96289 5114.61377
5125.0 0.0001951 5041.69336 5122.50781
5119.0 0.0001954 5041.42090 5134.48584
5210.0 0.0001919 5041.14551 5153.21387
5236.0 0.0001910 5040.86768 5184.68115
5229.0 0.0001912 5040.58691 5240.89648
5376.0 0.0001860 5040.30371 5341.97803
5711.0 0.0001751 5040.01758 5510.52100
5782.0 0.0001730 5039.72852 5773.62842
6108.0 0.0001637 5039.43652 6121.95068
6498.0 0.0001539 5039.14209 6495.12109
6703.0 0.0001492 5038.84424 6759.43555
6841.0 0.0001462 5038.54395 6763.92529
6338.0 0.0001578 5038.24023 6500.40576
6092.0 0.0001641 5037.93408 6122.16455
5732.0 0.0001745 5037.62451 5769.78027
5620.0 0.0001779 5037.31201 5503.95166
5488.0 0.0001822 5036.99658 5330.24805
5109.0 0.0001957 5036.67822 5227.81006
5147.0 0.0001943 5036.35693 5170.29395
5254.0 0.0001903 5036.03223 5137.25928
5154.0 0.0001940 5035.70459 5116.57617
5200.0 0.0001923 5035.37354 5102.21924
5094.0 0.0001963 5035.03955 5091.45215
5141.0 0.0001945 5034.70264 5082.99902
5086.0 0.0001966 5034.36230 5076.18164
5023.0 0.0001991 5034.01904 5070.57959
5211.0 0.0001919 5033.67236 5065.90625
5067.0 0.0001974 5033.32227 5061.95557
4998.0 0.0002001 5032.96924 5058.57373
5001.0 0.0002000 5032.61279 5055.64551
5043.0 0.0001983 5032.25342 5053.08447
5079.0 0.0001969 5031.89063 5050.82275
4989.0 0.0002004 5031.52441 5048.80664
4997.0 0.0002001 5031.15527 5046.99561
5084.0 0.0001967 5030.78223 5045.35498
5094.0 0.0001963 5030.40625 5043.85889
5136.0 0.0001947 5030.02686 5042.48438
5028.0 0.0001989 5029.64453 5041.21387
5145.0 0.0001944 5029.25879 5040.03223
5060.0 0.0001976 5028.86914 5038.99902
5057.0 0.0001977 5028.47656 5037.96289
5224.0 0.0001914 5028.08057 5036.98389
5029.0 0.0001988 5027.68115 5036.05566
4931.0 0.0002028 5027.27881 5035.17090
5009.0 0.0001996 5026.87256 5034.32471
5017.0 0.0001993 5026.46338 5032.98779
5078.0 0.0001969 5026.05029 5032.22314
5028.0 0.0001989 5025.63428 5031.48340
5010.0 0.0001996 5025.21484 5030.76709
4988.0 0.0002005 5024.79199 5030.07031
4950.0 0.0002020 5024.36572 5029.39063
5096.0 0.0001962 5023.93604 5028.72705
5032.0 0.0001987 5023.50293 5028.07715
5065.0 0.0001974 5023.06641 5027.43994
5068.0 0.0001973 5022.62646 5026.81348
4974.0 0.0002010 5022.18311 5027.13818
5106.0 0.0001958 5021.73682 5026.56445
4922.0 0.0002032 5021.28662 5026.00049
4993.0 0.0002003 5020.83350 5025.44531
4957.0 0.0002017 5020.37646 5024.89844
4995.0 0.0002002 5019.91650 5024.59424
5240.0 0.0001908 5019.45313 5024.07129
5063.0 0.0001975 5018.98633 5023.55664
5121.0 0.0001953 5018.51611 5023.04932
5029.0 0.0001988 5018.04248 5022.54980
5023.0 0.0001991 5017.56592 5022.05811
5206.0 0.0001921 5017.08545 5021.57324
4914.0 0.0002035 5016.60205 5018.68359
5030.0 0.0001988 5016.11523 5018.29932
5010.0 0.0001996 5015.62500 5017.91846
4985.0 0.0002006 5015.13184 5017.54492
5047.0 0.0001981 5014.63477 5017.17578
4899.0 0.0002041 5014.13525 5016.81592
5111.0 0.0001957 5013.63184 5016.46436
4951.0 0.0002020 5013.12549 5016.12402
4835.0 0.0002068 5012.61572 5015.79590
4977.0 0.0002009 5012.10254 5015.48340
4942.0 0.0002023 5011.58643 5015.18848
5001.0 0.0002000 5011.06689 5014.91357
4880.0 0.0002049 5010.54443 5014.66504
4931.0 0.0002028 5010.01855 5014.44678
5046.0 0.0001982 5009.48975 5014.26514
4987.0 0.0002005 5008.95752 5014.12842
4929.0 0.0002029 5008.42236 5014.04785
4982.0 0.0002007 5007.88379 5014.03809
4877.0 0.0002050 5007.34229 5014.12109
5164.0 0.0001936 5006.79785 5014.33594
5064.0 0.0001975 5006.25000 5014.75537
5054.0 0.0001979 5005.69971 5015.53516
5053.0 0.0001979 5005.14600 5016.98340
5019.0 0.0001992 5004.58936 5019.63086
5174.0 0.0001933 5004.02979 5024.54541
5045.0 0.0001982 5003.46680 5031.73291
5044.0 0.0001983 5002.90137 5041.63428
4893.0 0.0002044 5002.33252 5053.04395
4988.0 0.0002005 5001.76123 5062.71924
5182.0 0.0001930 5001.18701 5066.10596
4841.0 0.0002066 5000.60986 5061.51367
4996.0 0.0002002 5000.02979 5052.58496
5109.0 0.0001957 4999.44678 5043.94141
4962.0 0.0002015 4998.86133 5038.08057
5083.0 0.0001967 4998.27246 5035.77051
4907.0 0.0002038 4997.68164 5037.00879
5065.0 0.0001974 4997.08740 5041.92725
5037.0 0.0001985 4996.49072 5051.75977
4957.0 0.0002017 4995.89160 5069.89893
5194.0 0.0001925 4995.28955 5102.77930
5133.0 0.0001948 4994.68506 5161.08838
5125.0 0.0001951 4994.07764 5250.63330
5390.0 0.0001855 4993.46777 5374.93750
5564.0 0.0001797 4992.85547 5519.96191
5856.0 0.0001708 4992.24072 5646.02344
5515.0 0.0001813 4991.62354 5695.42334
5741.0 0.0001742 4991.00391 5644.26758
5487.0 0.0001822 4990.38135 5537.32275
5409.0 0.0001849 4989.75684 5432.06006
5302.0 0.0001886 4989.12988 5352.54785
5303.0 0.0001886 4988.50049 5292.38184
5273.0 0.0001896 4987.86865 5235.25098
5123.0 0.0001952 4987.23486 5177.36621
5137.0 0.0001947 4986.59863 5125.69141
5257.0 0.0001902 4985.95996 5085.11963
4995.0 0.0002002 4985.31934 5056.27832
4993.0 0.0002003 4984.67627 5037.27734
5056.0 0.0001978 4984.03125 5025.25488
4958.0 0.0002017 4983.38428 5017.56348
5186.0 0.0001928 4982.73535 5012.35352
4802.0 0.0002082 4982.08398 5008.55615
5010.0 0.0001996 4981.43066 5005.62988
4959.0 0.0002017 4980.77539 5003.30518
4923.0 0.0002031 4980.11865 5001.44385
5148.0 0.0001943 4979.45947 4999.96240
4931.0 0.0002028 4978.79834 4998.81738
4957.0 0.0002017 4978.13574 4997.98145
4935.0 0.0002026 4977.47119 4997.44971
4924.0 0.0002031 4976.80469 4997.23730
5094.0 0.0001963 4976.13672 4997.37939
4936.0 0.0002026 4975.46680 4997.95020
4941.0 0.0002024 4974.79541 4999.09619
5025.0 0.0001990 4974.12256 5001.13232
4898.0 0.0002042 4973.44775 5004.74463
4987.0 0.0002005 4972.77148 5011.31348
5017.0 0.0001993 4972.09375 5023.22461
5010.0 0.0001996 4971.41455 5043.74170
5100.0 0.0001961 4970.73389 5075.90381
5173.0 0.0001933 4970.05176 5120.20410
5337.0 0.0001874 4969.36816 5171.25635
5248.0 0.0001905 4968.68311 5214.35693
5220.0 0.0001916 4967.99707 5228.39014
5214.0 0.0001918 4967.30957 5204.70264
5215.0 0.0001918 4966.62109 5159.22021
5441.0 0.0001838 4965.93115 5113.01953
4882.0 0.0002048 4965.23975 5077.49365
4946.0 0.0002022 4964.54785 5055.72559
5130.0 0.0001949 4963.85449 5046.88770
5201.0 0.0001923 4963.16016 5049.32275
5122.0 0.0001952 4962.46484 5063.77686
4993.0 0.0002003 4961.76855 5095.66113
5024.0 0.0001990 4961.07129 5155.53125
5243.0 0.0001907 4960.37305 5257.78369
5448.0 0.0001836 4959.67383 5413.48730
5761.0 0.0001736 4958.97412 5618.69531
5815.0 0.0001720 4958.27344 5838.71094
5954.0 0.0001680 4957.57227 5995.96777
5973.0 0.0001674 4956.87012 6001.28857
5865.0 0.0001705 4956.16748 5848.24658
5723.0 0.0001747 4955.46387 5624.94678
5398.0 0.0001853 4954.75977 5413.83447
5080.0 0.0001969 4954.05518 5251.71289
5195.0 0.0001925 4953.35010 5142.47266
4993.0 0.0002003 4952.64502 5077.00293
5097.0 0.0001962 4951.93896 5039.34277
4966.0 0.0002014 4951.23242 5017.30273
4985.0 0.0002006 4950.52588 5003.33496
4965.0 0.0002014 4949.81885 4993.30713
5146.0 0.0001943 4949.11133 4985.87988
5128.0 0.0001950 4948.40381 4979.95508
5104.0 0.0001959 4947.69629 4975.08643
4963.0 0.0002015 4946.98828 4971.00098
4933.0 0.0002027 4946.27979 4967.51465
4953.0 0.0002019 4945.57178 4964.49512
5037.0 0.0001985 4944.86377 4961.84570
4932.0 0.0002028 4944.15527 4959.49268
4877.0 0.0002050 4943.44727 4957.38037
4884.0 0.0002048 4942.73877 4955.46533
4980.0 0.0002008 4942.03076 4953.71387
5106.0 0.0001958 4941.32324 4952.10010
4884.0 0.0002048 4940.61523 4950.60156
4863.0 0.0002056 4939.90771 4949.20361
4875.0 0.0002051 4939.20068 4947.89063
4961.0 0.0002016 4938.49365 4946.65283
4954.0 0.0002019 4937.78711 4945.48193
4909.0 0.0002037 4937.08057 4944.36963
4884.0 0.0002048 4936.37500 4943.31250
5018.0 0.0001993 4935.66943 4942.30420
4989.0 0.0002004 4934.96436 4941.34424
5256.0 0.0001903 4934.25977 4940.43066
4819.0 0.0002075 4933.55615 4939.56250
4895.0 0.0002043 4932.85303 4938.74268
4860.0 0.0002058 4932.15039 4937.97314
4984.0 0.0002006 4931.44824 4937.26074
5030.0 0.0001988 4930.74707 4936.61328
4912.0 0.0002036 4930.04639 4936.04492
4832.0 0.0002070 4929.34668 4935.57764
4940.0 0.0002024 4928.64795 4935.25098
4970.0 0.0002012 4927.94971 4934.80762
4973.0 0.0002011 4927.25244 4935.10547
5047.0 0.0001981 4926.55615 4936.15381
4918.0 0.0002033 4925.86084 4938.59863
4890.0 0.0002045 4925.16650 4943.39990
4910.0 0.0002037 4924.47314 4951.58936
5101.0 0.0001960 4923.78076 4963.67432
4877.0 0.0002050 4923.08984 4978.69873
4860.0 0.0002058 4922.39990 4993.07910
4882.0 0.0002048 4921.71094 5000.36719
4979.0 0.0002008 4921.02344 4995.51807
5079.0 0.0001969 4920.33691 4981.11719
4936.0 0.0002026 4919.65137 4964.12158
4975.0 0.0002010 4918.96777 4949.27002
4908.0 0.0002037 4918.28516 4938.24609
4986.0 0.0002006 4917.60400 4929.35547
4978.0 0.0002009 4916.92432 4924.77490
4825.0 0.0002073 4916.24609 4921.87256
4853.0 0.0002061 4915.56885 4919.88525
4804.0 0.0002082 4914.89355 4918.37012
4959.0 0.0002017 4914.21973 4917.10498
5010.0 0.0001996 4913.54736 4915.98730
4788.0 0.0002089 4912.87695 4914.96826
4865.0 0.0002055 4912.20752 4914.01904
4866.0 0.0002055 4911.54004 4913.12451
4942.0 0.0002023 4910.87451 4912.27002
5044.0 0.0001983 4910.21045 4911.44971
4870.0 0.0002053 4909.54834 4910.65479
4830.0 0.0002070 4908.88770 4909.88135
4949.0 0.0002021 4908.22900 4909.12646
4888.0 0.0002046 4907.57227 4908.38623
5048.0 0.0001981 4906.91699 4907.65918
4922.0 0.0002032 4906.26416 4906.94287
4923.0 0.0002031 4905.61279 4906.23584
4985.0 0.0002006 4904.96387 4905.53760
4895.0 0.0002043 4904.31641 4904.84619
4975.0 0.0002010 4903.67139 4905.06006
4895.0 0.0002043 4903.02783 4904.41406
4747.0 0.0002107 4902.38672 4903.77588
4917.0 0.0002034 4901.74756 4903.14453
4848.0 0.0002063 4901.11084 4902.52002
5045.0 0.0001982 4900.47559 4901.90186
4840.0 0.0002066 4899.84326 4901.29150
4894.0 0.0002043 4899.21240 4900.68652
4809.0 0.0002079 4898.58447 4900.08887
4836.0 0.0002068 4897.95801 4899.49707
4953.0 0.0002019 4897.33447 4898.91309
4879.0 0.0002050 4896.71289 4898.33594
4828.0 0.0002071 4896.09375 4897.76611
4835.0 0.0002068 4895.47656 4897.20361
4981.0 0.0002008 4894.86230 4896.64941
5010.0 0.0001996 4894.25000 4896.15088
4872.0 0.0002053 4893.64014 4895.61523
4836.0 0.0002068 4893.03271 4895.08789
4894.0 0.0002043 4892.42773 4894.57178
4913.0 0.0002035 4891.82520 4894.06543
4977.0 0.0002009 4891.22510 4893.57129
4898.0 0.0002042 4890.62793 4893.08984
4939.0 0.0002025 4890.03271 4892.62158
4723.0 0.0002117 4889.44043 4892.16797
4950.0 0.0002020 4888.85059 4891.72998
5012.0 0.0001995 4888.26318 4891.31055
4866.0 0.0002055 4887.67822 4890.91064
4826.0 0.0002072 4887.09619 4890.53271
4808.0 0.0002080 4886.51660 4890.17920
4863.0 0.0002056 4885.93994 4889.85400
5156.0 0.0001939 4885.36572 4889.44678
4883.0 0.0002048 4884.79443 4889.19238
4871.0 0.0002053 4884.22559 4888.97949
4802.0 0.0002082 4883.65967 4888.81299
4923.0 0.0002031 4883.09619 4888.70215
4970.0 0.0002012 4882.53564 4888.65625
4887.0 0.0002046 4881.97754 4888.68604
4748.0 0.0002106 4881.42236 4888.80713
4893.0 0.0002044 4880.87012 4889.03857
5030.0 0.0001988 4880.32080 4889.40332
4977.0 0.0002009 4879.77393 4889.93164
4826.0 0.0002072 4879.22998 4890.66309
4836.0 0.0002068 4878.68896 4891.65137
4707.0 0.0002124 4878.15088 4892.96631
5001.0 0.0002000 4877.61572 4894.70703
5006.0 0.0001998 4877.08301 4897.01660
4990.0 0.0002004 4876.55322 4900.12891
4891.0 0.0002045 4876.02686 4904.47900
4947.0 0.0002021 4875.50293 4910.96729
4895.0 0.0002043 4874.98193 4921.49170
5101.0 0.0001960 4874.46387 4939.71826
4873.0 0.0002052 4873.94873 4971.67041
5000.0 0.0002000 4873.43701 5025.11670
5119.0 0.0001954 4872.92773 5106.61963
5157.0 0.0001939 4872.42139 5215.96924
5554.0 0.0001801 4871.91797 5338.38867
5297.0 0.0001888 4871.41797 5436.55713
5429.0 0.0001842 4870.92041 5459.81787
5487.0 0.0001822 4870.42578 5391.90625
5210.0 0.0001919 4869.93457 5273.61230
5318.0 0.0001880 4869.44629 5153.58984
5151.0 0.0001941 4868.96045 5056.98877
4963.0 0.0002015 4868.47803 4989.85547
4910.0 0.0002037 4867.99854 4948.03809
4971.0 0.0002012 4867.52246 4923.86035
5010.0 0.0001996 4867.04883 4910.42285
4804.0 0.0002082 4866.57813 4903.27197
4905.0 0.0002039 4866.11084 4900.17676
4749.0 0.0002106 4865.64648 4900.15771
4864.0 0.0002056 4865.18506 4902.50293
4888.0 0.0002046 4864.72656 4905.95752
4817.0 0.0002076 4864.27100 4908.18750
4958.0 0.0002017 4863.81836 4906.50049
4877.0 0.0002050 4863.36914 4900.49365
4868.0 0.0002054 4862.92285 4892.52832
4969.0 0.0002012 4862.47900 4884.95166
4803.0 0.0002082 4862.03857 4878.85059
4754.0 0.0002103 4861.60156 4874.40381
4794.0 0.0002086 4861.16699 4871.31934
4981.0 0.0002008 4860.73535 4869.16846
5089.0 0.0001965 4860.30713 4867.58057
4854.0 0.0002060 4859.88184 4866.31494
4792.0 0.0002087 4859.45898 4865.23633
4803.0 0.0002082 4859.03955 4864.27734
4798.0 0.0002084 4858.62305 4863.40479
4963.0 0.0002015 4858.20947 4862.59863
4801.0 0.0002083 4857.79883 4861.84521
4926.0 0.0002030 4857.39111 4861.13672
4856.0 0.0002059 4856.98682 4860.46582
4880.0 0.0002049 4856.58496 4859.82715
4987.0 0.0002005 4856.18604 4859.21533
4958.0 0.0002017 4855.79053 4858.62793
4903.0 0.0002040 4855.39746 4858.06201
4835.0 0.0002068 4855.00732 4857.51465
4787.0 0.0002089 4854.62012 4856.98486
4981.0 0.0002008 4854.23584 4863.30322
4842.0 0.0002065 4853.85498 4863.04541
4837.0 0.0002067 4853.47656 4862.81494
4830.0 0.0002070 4853.10059 4862.60938
4870.0 0.0002053 4852.72803 4862.43018
4978.0 0.0002009 4852.35840 4862.27686
4858.0 0.0002058 4851.99121 4862.15137
4754.0 0.0002103 4851.62695 4862.05322
4804.0 0.0002082 4851.26563 4861.98389
4841.0 0.0002066 4850.90674 4861.94434
4975.0 0.0002010 4850.55127 4861.93604
4943.0 0.0002023 4850.19824 4861.96240
4800.0 0.0002083 4849.84766 4862.02295
4767.0 0.0002098 4849.50049 4862.12207
4832.0 0.0002070 4849.15576 4862.26074
4964.0 0.0002015 4848.81348 4862.44385
4822.0 0.0002074 4848.47412 4862.67285
4775.0 0.0002094 4848.13770 4862.95313
4851.0 0.0002061 4847.80371 4863.28809
4836.0 0.0002068 4847.47217 4862.80273
4921.0 0.0002032 4847.14355 4863.87158
4800.0 0.0002083 4846.81738 4864.45605
4838.0 0.0002067 4846.49414 4865.12061
4988.0 0.0002005 4846.17334 4865.87451
4805.0 0.0002081 4845.85498 4866.72803
4943.0 0.0002023 4845.53955 4867.69287
4797.0 0.0002085 4845.22607 4868.78320
4873.0 0.0002052 4844.91553 4870.01514
4901.0 0.0002040 4844.60742 4871.40771
4757.0 0.0002102 4844.30225 4872.98242
5015.0 0.0001994 4843.99902 4874.76611
4828.0 0.0002071 4843.69824 4876.78955
4886.0 0.0002047 4843.39990 4879.08936
4933.0 0.0002027 4843.10400 4881.66309
4858.0 0.0002058 4842.81055 4884.66309
5076.0 0.0001970 4842.51953 4888.10449
4988.0 0.0002005 4842.23096 4892.07080
4927.0 0.0002030 4841.94482 4896.66162
4775.0 0.0002094 4841.66064 4902.00537
4885.0 0.0002047 4841.37891 4908.26123
4912.0 0.0002036 4841.09912 4915.63721
4841.0 0.0002066 4840.82227 4924.39844
4893.0 0.0002044 4840.54688 4934.89648
4799.0 0.0002084 4840.27441 4947.59863
4954.0 0.0002019 4840.00391 4963.14453
5202.0 0.0001922 4839.73535 4982.44531
4955.0 0.0002018 4839.46875 5006.90625
5009.0 0.0001996 4839.20459 5038.98877
5103.0 0.0001960 4838.94238 5083.58350
5129.0 0.0001950 4838.68262 5150.93848
5285.0 0.0001892 4838.42432 5261.53662
5421.0 0.0001845 4838.16846 5451.35791
5837.0 0.0001713 4837.91455 5772.14111
6277.0 0.0001593 4837.66260 6278.53467
7079.0 0.0001413 4837.41260 6997.17236
7924.0 0.0001262 4837.16406 7879.22803
8512.0 0.0001175 4836.91797 8739.05176
9183.0 0.0001089 4836.67383 9230.30469
9083.0 0.0001101 4836.43115 9057.59961
8405.0 0.0001190 4836.19043 8329.45703
7748.0 0.0001291 4835.95166 7421.05811
6500.0 0.0001538 4835.71436 6607.53516
5964.0 0.0001677 4835.47900 5996.60449
5591.0 0.0001789 4835.24512 5591.48047
5401.0 0.0001852 4835.01318 5346.05615
5344.0 0.0001871 4834.78320 5204.22510
5294.0 0.0001889 4834.55420 5121.64063
5072.0 0.0001972 4834.32715 5071.04395
5039.0 0.0001985 4834.10156 5038.67773
5000.0 0.0002000 4833.87793 5019.11523
5225.0 0.0001914 4833.65527 5011.75244
4970.0 0.0002012 4833.43457 5018.85254
5043.0 0.0001983 4833.21533 5043.77051
4989.0 0.0002004 4832.99707 5088.28223
5078.0 0.0001969 4832.78076 5148.76904
5336.0 0.0001874 4832.56543 5211.29980
5306.0 0.0001885 4832.35156 5248.71289
5144.0 0.0001944 4832.13916 5234.84229
5184.0 0.0001929 4831.92822 5174.18018
5042.0 0.0001983 4831.71826 5096.18262
5021.0 0.0001992 4831.50977 5024.56152
4805.0 0.0002081 4831.30225 4969.25391
5014.0 0.0001994 4831.09619 4931.19824
4932.0 0.0002028 4830.89111 4906.91602
4868.0 0.0002054 4830.68750 4891.80908
4929.0 0.0002029 4830.48486 4882.08496
4936.0 0.0002026 4830.28320 4875.31396
4760.0 0.0002101 4830.08252 4870.18311
5034.0 0.0001986 4829.88281 4866.04443
4815.0 0.0002077 4829.68408 4862.57764
4967.0 0.0002013 4829.48682 4859.60791
4757.0 0.0002102 4829.29004 4857.02539
4844.0 0.0002064 4829.09424 4854.75391
4887.0 0.0002046 4828.89941 4852.73535
4833.0 0.0002069 4828.70508 4850.92773
4954.0 0.0002019 4828.51221 4849.29541
4800.0 0.0002083 4828.31982 4847.81299
4818.0 0.0002076 4828.12793 4846.45850
4737.0 0.0002111 4827.93701 4845.21387
4806.0 0.0002081 4827.74707 4844.06494
4958.0 0.0002017 4827.55713 4843.00049
4891.0 0.0002045 4827.36865 4842.00879
4812.0 0.0002078 4827.18018 4841.08350
4712.0 0.0002122 4826.99268 4840.21484
4974.0 0.0002010 4826.80518 4839.39893
4841.0 0.0002066 4826.61865 4838.62891
4805.0 0.0002081 4826.43262 4837.90137
4812.0 0.0002078 4826.24707 4837.21094
4748.0 0.0002106 4826.06201 4836.55469
4914.0 0.0002035 4825.87695 4835.93066
5010.0 0.0001996 4825.69287 4835.33447
4697.0 0.0002129 4825.50879 4834.76416
4712.0 0.0002122 4825.32520 4834.21729
4836.0 0.0002068 4825.14160 4833.69287
4764.0 0.0002099 4824.95850 4826.23584
5004.0 0.0001998 4824.77539 4825.98779
4770.0 0.0002096 4824.59277 4825.74463
4740.0 0.0002110 4824.41016 4825.50586
4744.0 0.0002108 4824.22803 4825.27148
4847.0 0.0002063 4824.04590 4825.04053
4900.0 0.0002041 4823.86377 4824.81299
4719.0 0.0002119 4823.68164 4824.58936
4764.0 0.0002099 4823.49951 4824.36768
4787.0 0.0002089 4823.31738 4824.14844
4744.0 0.0002108 4823.13574 4823.93115
4901.0 0.0002040 4822.95361 4823.71631
4849.0 0.0002062 4822.77148 4823.50391
4773.0 0.0002095 4822.58887 4823.29248
4786.0 0.0002089 4822.40674 4823.08301
4781.0 0.0002092 4822.22412 4822.87500
4944.0 0.0002023 4822.04150 4822.66748
4802.0 0.0002082 4821.85840 4822.46191
4905.0 0.0002039 4821.67529 4822.25684
4822.0 0.0002074 4821.49170 4821.48193
4736.0 0.0002111 4821.30811 4821.29834
4855.0 0.0002060 4821.12402 4821.11426
4822.0 0.0002074 4820.93994 4820.92969
4775.0 0.0002094 4820.75488 4820.74512
4880.0 0.0002049 4820.56982 4820.81982
4837.0 0.0002067 4820.38428 4820.64355
4937.0 0.0002026 4820.19824 4820.46729
4673.0 0.0002140 4820.01172 4820.29102
4776.0 0.0002094 4819.82422 4820.11523
4926.0 0.0002030 4819.63672 4819.93945
4831.0 0.0002070 4819.44873 4819.76367
4769.0 0.0002097 4819.26025 4819.58789
4814.0 0.0002077 4819.07080 4819.41211
4868.0 0.0002054 4818.88086 4819.23730
4793.0 0.0002086 4818.68994 4819.06250
4817.0 0.0002076 4818.49854 4818.88770
4941.0 0.0002024 4818.30664 4818.71387
4898.0 0.0002042 4818.11377 4818.54004
4694.0 0.0002130 4817.92041 4818.48730
4814.0 0.0002077 4817.72607 4818.31885
4738.0 0.0002111 4817.53125 4818.15234
4956.0 0.0002018 4817.33496 4817.98633
4779.0 0.0002092 4817.13818 4817.82178
4793.0 0.0002086 4816.94043 4817.65869
4853.0 0.0002061 4816.74219 4817.49756
4783.0 0.0002091 4816.54248 4817.33887
4977.0 0.0002009 4816.34229 4817.18262
4857.0 0.0002059 4816.14063 4817.02881
4707.0 0.0002124 4815.93848 4816.87793
4770.0 0.0002096 4815.73486 4816.73145
4880.0 0.0002049 4815.53027 4816.58838
4958.0 0.0002017 4815.32471 4816.45068
4663.0 0.0002145 4815.11816 4816.31836
4809.0 0.0002079 4814.91064 4816.19238
4899.0 0.0002041 4814.70166 4816.07471
4767.0 0.0002098 4814.49170 4815.96533
4887.0 0.0002046 4814.28076 4815.86719
4677.0 0.0002138 4814.06836 4815.78076
4916.0 0.0002034 4813.85498 4815.70850
4803.0 0.0002082 4813.64014 4815.65479
4796.0 0.0002085 4813.42432 4815.62061
4987.0 0.0002005 4813.20703 4815.61133
4756.0 0.0002103 4812.98828 4815.63330
4885.0 0.0002047 4812.76855 4815.69141
4810.0 0.0002079 4812.54736 4815.79492
4787.0 0.0002089 4812.32520 4815.95459
4941.0 0.0002024 4812.10107 4816.18555
4852.0 0.0002061 4811.87598 4816.50732
4639.0 0.0002156 4811.64941 4816.94678
4817.0 0.0002076 4811.42139 4817.54346
4754.0 0.0002103 4811.19189 4818.36182
5005.0 0.0001998 4810.96094 4819.52051
4689.0 0.0002133 4810.72852 4821.25879
4742.0 0.0002109 4810.49463 4824.06494
4812.0 0.0002078 4810.25928 4828.85059
4842.0 0.0002065 4810.02246 4837.07617
4932.0 0.0002028 4809.78418 4850.60156
4823.0 0.0002073 4809.54443 4871.03564
4955.0 0.0002018 4809.30273 4898.52295
4840.0 0.0002066 4809.06006 4930.02588
5027.0 0.0001989 4808.81543 4957.26709
5069.0 0.0001973 4808.56885 4967.62744
4988.0 0.0002005 4808.32129 4960.84180
4874.0 0.0002052 4808.07178 4932.58691
4925.0 0.0002030 4807.82080 4901.59326
4914.0 0.0002035 4807.56787 4875.48584
4896.0 0.0002042 4807.31348 4856.88379
4738.0 0.0002111 4807.05762 4845.62549
4756.0 0.0002103 4806.79980 4840.48926
4871.0 0.0002053 4806.54004 4840.36670
4818.0 0.0002076 4806.27930 4844.71973
4893.0 0.0002044 4806.01611 4853.30664
4799.0 0.0002084 4805.75146 4865.42285
4886.0 0.0002047 4805.48486 4878.88965
4791.0 0.0002087 4805.21680 4889.10205
4970.0 0.0002012 4804.94727 4890.39600
4979.0 0.0002008 4804.67529 4881.58984
4941.0 0.0002024 4804.40186 4867.55664
4781.0 0.0002092 4804.12646 4853.56445
4777.0 0.0002093 4803.84961 4842.29199
4840.0 0.0002066 4803.57080 4834.40527
4936.0 0.0002026 4803.29004 4829.48486
4732.0 0.0002113 4803.00732 4826.70068
4718.0 0.0002120 4802.72314 4825.26172
4710.0 0.0002123 4802.43652 4824.61328
4754.0 0.0002103 4802.14844 4824.43262
4887.0 0.0002046 4801.85889 4824.56055
4796.0 0.0002085 4801.56689 4824.92676
4853.0 0.0002061 4801.27295 4825.49805
4804.0 0.0002082 4800.97754 4826.26807
4856.0 0.0002059 4800.68018 4827.23584
4896.0 0.0002042 4800.38086 4828.41162
4770.0 0.0002096 4800.07959 4829.81104
4788.0 0.0002089 4799.77637 4831.45605
4804.0 0.0002082 4799.47119 4833.37744
4732.0 0.0002113 4799.16455 4835.61279
4902.0 0.0002040 4798.85547 4838.21045
4767.0 0.0002098 4798.54492 4841.22900
4847.0 0.0002063 4798.23193 4844.74414
4795.0 0.0002086 4797.91748 4848.85010
4894.0 0.0002043 4797.60059 4853.66357
5044.0 0.0001983 4797.28223 4859.33740
4971.0 0.0002012 4796.96191 4866.06396
4864.0 0.0002056 4796.63965 4874.09619
4862.0 0.0002057 4796.31543 4883.76660
4982.0 0.0002007 4795.98926 4895.52100
5200.0 0.0001923 4795.66113 4909.97656
4990.0 0.0002004 4795.33105 4928.03516
4996.0 0.0002002 4794.99902 4951.15527
5024.0 0.0001990 4794.66504 4982.01221
5121.0 0.0001953 4794.32910 5025.99316
5214.0 0.0001918 4793.99121 5094.00781
5185.0 0.0001929 4793.65137 5206.44580
5361.0 0.0001865 4793.30957 5396.14307
5709.0 0.0001752 4792.96582 5705.57813
6087.0 0.0001643 4792.62061 6173.00537
7028.0 0.0001423 4792.27295 6805.99316
7472.0 0.0001338 4791.92334 7543.55176
7978.0 0.0001253 4791.57227 8208.15723
8450.0 0.0001183 4791.21875 8510.89453
8428.0 0.0001187 4790.86377 8265.92285
7714.0 0.0001296 4790.50635 7623.27881
6768.0 0.0001478 4790.14746 6879.99561
6303.0 0.0001587 4789.78662 6229.55859
5736.0 0.0001743 4789.42383 5742.79150
5483.0 0.0001824 4789.05908 5417.23779
5321.0 0.0001879 4788.69238 5216.29346
5113.0 0.0001956 4788.32373 5096.87939
5056.0 0.0001978 4787.95361 5024.73926
4920.0 0.0002033 4787.58105 4978.21240
4903.0 0.0002040 4787.20703 4945.59082
5025.0 0.0001990 4786.83105 4920.95996
4882.0 0.0002048 4786.45313 4901.70947
4945.0 0.0002022 4786.07324 4886.17432
4793.0 0.0002086 4785.69189 4873.41406
4812.0 0.0002078 4785.30859 4862.78760
5018.0 0.0001993 4784.92334 4874.26953
4777.0 0.0002093 4784.53613 4867.38281
4912.0 0.0002036 4784.14697 4861.60547
4831.0 0.0002070 4783.75635 4856.74268
4760.0 0.0002101 4783.36377 4852.64063
4969.0 0.0002012 4782.96973 4849.18018
4711.0 0.0002123 4782.57373 4846.26807
4759.0 0.0002101 4782.17578 4843.82910
4638.0 0.0002156 4781.77637 4841.80566
4837.0 0.0002067 4781.37500 4840.15039
4738.0 0.0002111 4780.97168 4838.82617
4716.0 0.0002120 4780.56689 4837.80420
4683.0 0.0002135 4780.16016 4837.06201
4728.0 0.0002115 4779.75195 4836.58301
4821.0 0.0002074 4779.34229 4836.35449
4882.0 0.0002048 4778.93066 4836.36914
4750.0 0.0002105 4778.51709 4836.62354
4827.0 0.0002072 4778.10205 4837.11621
4876.0 0.0002051 4777.68555 4847.91064
4748.0 0.0002106 4777.26709 4849.25781
5024.0 0.0001990 4776.84717 4850.88379
4680.0 0.0002137 4776.42578 4852.80225
4747.0 0.0002107 4776.00293 4855.03320
4741.0 0.0002109 4775.57813 4857.60010
4876.0 0.0002051 4775.15186 4860.53223
4911.0 0.0002036 4774.72412 4863.86328
4738.0 0.0002111 4774.29443 4867.63379
4832.0 0.0002070 4773.86328 4871.89209
4889.0 0.0002045 4773.43115 4876.69727
4854.0 0.0002060 4772.99707 4882.11670
4930.0 0.0002028 4772.56152 4888.23242
4859.0 0.0002058 4772.12451 4895.14209
4985.0 0.0002006 4771.68604 4902.96387
4790.0 0.0002088 4771.24658 4911.83936
4868.0 0.0002054 4770.80518 4921.94092
5037.0 0.0001985 4770.36230 4933.47949
4783.0 0.0002091 4769.91797 4946.71436
4895.0 0.0002043 4769.47266 4961.96924
4983.0 0.0002007 4769.02588 4979.64893
5046.0 0.0001982 4768.57764 5000.26660
5130.0 0.0001949 4768.12793 5018.17773
5028.0 0.0001989 4767.67725 5047.05518
5074.0 0.0001971 4767.22510 5081.49365
5136.0 0.0001947 4766.77148 5123.02393
5162.0 0.0001937 4766.31689 5173.69922
5384.0 0.0001857 4765.86084 5236.64648
5346.0 0.0001871 4765.40332 5316.99219
5479.0 0.0001825 4764.94482 5424.29248
5524.0 0.0001810 4764.48535 5577.74951
5879.0 0.0001701 4764.02441 5815.46729
6474.0 0.0001545 4763.56250 6206.35791
6850.0 0.0001460 4763.09912 6856.90576
7924.0 0.0001262 4762.63525 7897.88184
9463.0 0.0001057 4762.16943 9436.82031
11544.0 0.0000866 4761.70313 11474.30566
14004.0 0.0000714 4761.23535 13786.28711
15630.0 0.0000640 4760.76709 15780.70703
16201.0 0.0000617 4760.29736 16559.39648
15355.0 0.0000651 4759.82666 15648.82617
13499.0 0.0000741 4759.35498 13601.62402
11686.0 0.0000856 4758.88232 11317.13086
9091.0 0.0001100 4758.40869 9349.52734
7864.0 0.0001272 4757.93408 7893.92725
7009.0 0.0001427 4757.45850 6935.49121
6354.0 0.0001574 4756.98193 6363.92627
6185.0 0.0001617 4756.50488 6055.29883
5935.0 0.0001685 4756.02686 5919.16602
5887.0 0.0001699 4755.54785 5914.26025
6140.0 0.0001629 4755.06787 6045.78223
6511.0 0.0001536 4754.58740 6353.47314
7072.0 0.0001414 4754.10596 6889.89551
7816.0 0.0001279 4753.62402 7685.30957
8845.0 0.0001131 4753.14111 8698.99609
9753.0 0.0001025 4752.65723 9754.67480
10441.0 0.0000958 4752.17334 10486.82715
10719.0 0.0000933 4751.68799 10490.79395
9536.0 0.0001049 4751.20264 9745.76270
8701.0 0.0001149 4750.71631 8644.97168
7494.0 0.0001334 4750.22949 7566.20117
6606.0 0.0001514 4749.74170 6693.97314
6207.0 0.0001611 4749.25391 6071.51709
5658.0 0.0001767 4748.76514 5666.20850
5311.0 0.0001883 4748.27588 5416.78809
5237.0 0.0001909 4747.78613 5264.68506
5187.0 0.0001928 4747.29590 5167.86084
5067.0 0.0001974 4746.80566 5105.31934
5001.0 0.0002000 4746.31445 5056.14453
4969.0 0.0002012 4745.82275 5017.66748
5018.0 0.0001993 4745.33105 4986.53809
4907.0 0.0002038 4744.83838 4960.83398
4979.0 0.0002008 4744.34570 4939.31787
4805.0 0.0002081 4743.85303 4921.13379
4963.0 0.0002015 4743.35938 4905.67285
4781.0 0.0002092 4742.86572 4892.52002
4876.0 0.0002051 4742.37207 4881.41455
4971.0 0.0002012 4741.87793 4872.19727
4798.0 0.0002084 4741.38330 4864.74023
4830.0 0.0002070 4740.88867 4858.83594
4745.0 0.0002107 4740.39404 4854.06250
4740.0 0.0002110 4739.89893 4849.63281
5043.0 0.0001983 4739.40381 4844.49658
4797.0 0.0002085 4738.90820 4838.17236
4742.0 0.0002109 4738.41309 4831.26514
4873.0 0.0002052 4737.91748 4825.39746
4779.0 0.0002092 4737.42188 4819.67773
4919.0 0.0002033 4736.92627 4815.02344
4764.0 0.0002099 4736.43066 4811.50098
4743.0 0.0002108 4735.93506 4809.15576
4685.0 0.0002134 4735.43945 4808.05615
4736.0 0.0002111 4734.94385 4808.25537
4906.0 0.0002038 4734.44824 4809.64551
4715.0 0.0002121 4733.95313 4811.74854
4724.0 0.0002117 4733.45752 4813.45264
4765.0 0.0002099 4732.96240 4813.16602
4703.0 0.0002126 4732.46729 4789.79199
5004.0 0.0001998 4731.97217 4785.79297
4818.0 0.0002076 4731.47754 4781.64648
4604.0 0.0002172 4730.98291 4778.30176
4709.0 0.0002124 4730.48877 4776.09961
4776.0 0.0002094 4729.99463 4775.03174
4921.0 0.0002032 4729.50098 4774.93213
4843.0 0.0002065 4729.00732 4775.61963
4802.0 0.0002082 4728.51416 4776.96680
4796.0 0.0002085 4728.02148 4778.92920
4794.0 0.0002086 4727.52881 4781.53320
4895.0 0.0002043 4727.03662 4784.86182
4634.0 0.0002158 4726.54492 4789.04980
4742.0 0.0002109 4726.05371 4794.28516
4736.0 0.0002111 4725.56250 4800.82666
4760.0 0.0002101 4725.07227 4809.03955
5057.0 0.0001977 4724.58203 4819.45313
4844.0 0.0002064 4724.09229 4822.84814
4792.0 0.0002087 4723.60352 4841.30322
4826.0 0.0002072 4723.11523 4867.47314
4944.0 0.0002023 4722.62695 4907.50537
5073.0 0.0001971 4722.13965 4972.67285
5057.0 0.0001977 4721.65283 5080.93604
5273.0 0.0001896 4721.16650 5255.58252
5516.0 0.0001813 4720.68115 5518.33105
5787.0 0.0001728 4720.19629 5875.99707
6607.0 0.0001514 4719.71191 6301.30713
6633.0 0.0001508 4719.22803 6707.18311
6928.0 0.0001443 4718.74512 6937.41943
6843.0 0.0001461 4718.26318 6861.41699
6495.0 0.0001540 4717.78174 6525.48877
6162.0 0.0001623 4717.30078 6094.69092
5585.0 0.0001791 4716.82080 5696.00293
5352.0 0.0001868 4716.34180 5384.35693
5093.0 0.0001963 4715.86328 5168.00000
5022.0 0.0001991 4715.38574 5030.89258
5086.0 0.0001966 4714.90918 4949.82910
5039.0 0.0001985 4714.43311 4904.54541
4799.0 0.0002084 4713.95801 4882.17285
4869.0 0.0002054 4713.48389 4877.12744
4808.0 0.0002080 4713.01074 4888.94775
4944.0 0.0002023 4712.53857 4919.38770
4958.0 0.0002017 4712.06689 4969.11279
4940.0 0.0002024 4711.59668 5033.93896
5122.0 0.0001952 4711.12744 5100.34521
5059.0 0.0001977 4710.65869 5142.26855
5138.0 0.0001946 4710.19141 5133.57520
5099.0 0.0001961 4709.72461 5076.09277
5122.0 0.0001952 4709.25928 4997.23682
5036.0 0.0001986 4708.79492 4921.40381
4899.0 0.0002041 4708.33154 4860.14502
4890.0 0.0002045 4707.86914 4815.97363
4735.0 0.0002112 4707.40820 4786.57813
4874.0 0.0002052 4706.94824 4767.84082
4683.0 0.0002135 4706.48926 4755.83887
4700.0 0.0002128 4706.03125 4748.13721
4930.0 0.0002028 4705.57471 4742.21338
4641.0 0.0002155 4705.11914 4737.61523
4735.0 0.0002112 4704.66455 4733.84131
4675.0 0.0002139 4704.21143 4730.64746
4788.0 0.0002089 4703.75977 4727.89160
4830.0 0.0002070 4703.30908 4725.48047
4677.0 0.0002138 4702.85938 4723.34619
4700.0 0.0002128 4702.41113 4721.44092
4669.0 0.0002142 4701.96387 4719.72412
4585.0 0.0002181 4701.51807 4718.16797
4810.0 0.0002079 4701.07373 4716.74805
4620.0 0.0002165 4700.63037 4715.69043
4654.0 0.0002149 4700.18848 4714.50146
4756.0 0.0002103 4699.74805 4713.40674
4672.0 0.0002140 4699.30859 4712.39453
4751.0 0.0002105 4698.87061 4711.45947
4612.0 0.0002168 4698.43408 4710.59766
4673.0 0.0002140 4697.99854 4709.80371
4634.0 0.0002158 4697.56494 4709.07910
4794.0 0.0002086 4697.13232 4708.42383
4851.0 0.0002061 4696.70117 4707.84131
4757.0 0.0002102 4696.27148 4707.33594
4715.0 0.0002121 4695.84277 4706.92139
4704.0 0.0002126 4695.41602 4706.61523
4651.0 0.0002150 4694.99023 4706.45264
4689.0 0.0002133 4694.56592 4706.50537
4714.0 0.0002121 4694.14355 4706.91357
4607.0 0.0002171 4693.72217 4707.94092
4851.0 0.0002061 4693.30225 4710.01904
4736.0 0.0002111 4692.88379 4709.68701
4754.0 0.0002103 4692.46729 4715.79346
4647.0 0.0002152 4692.05176 4724.45801
4618.0 0.0002165 4691.63770 4735.25830
4667.0 0.0002143 4691.22510 4746.40283
4744.0 0.0002108 4690.81445 4754.19824
4924.0 0.0002031 4690.40479 4754.52539
4643.0 0.0002154 4689.99658 4747.07227
4731.0 0.0002114 4689.59033 4735.76807
4702.0 0.0002127 4689.18555 4724.53809
4759.0 0.0002101 4688.78223 4715.38721
4796.0 0.0002085 4688.38037 4708.86865
4643.0 0.0002154 4687.97998 4704.74707
4621.0 0.0002164 4687.58105 4702.45947
4603.0 0.0002172 4687.18359 4701.45117
4673.0 0.0002140 4686.78809 4701.33984
4906.0 0.0002038 4686.39404 4701.96826
4732.0 0.0002113 4686.00146 4702.69678
4752.0 0.0002104 4685.61035 4705.38574
4842.0 0.0002065 4685.22070 4710.11230
4782.0 0.0002091 4684.83301 4718.29053
4947.0 0.0002021 4684.44629 4731.90137
4885.0 0.0002047 4684.06152 4753.05078
4957.0 0.0002017 4683.67871 4782.99072
4844.0 0.0002064 4683.29688 4820.61768
4856.0 0.0002059 4682.91699 4860.39258
5084.0 0.0001967 4682.53857 4890.28711
4804.0 0.0002082 4682.16162 4895.62354
4945.0 0.0002022 4681.78613 4873.28271
4703.0 0.0002126 4681.41260 4835.85791
4765.0 0.0002099 4681.04053 4797.63428
4842.0 0.0002065 4680.66992 4767.62305
4564.0 0.0002191 4680.30078 4746.87451
4763.0 0.0002100 4679.93359 4736.74805
4865.0 0.0002055 4679.56787 4736.59473
4777.0 0.0002093 4679.20361 4745.49316
4962.0 0.0002015 4678.84082 4762.13184
4753.0 0.0002104 4678.47998 4783.88281
4878.0 0.0002050 4678.12061 4805.24805
4810.0 0.0002079 4677.76270 4817.13184
4831.0 0.0002070 4677.40625 4811.87744
4840.0 0.0002066 4677.05176 4791.71973
4705.0 0.0002125 4676.69873 4765.85498
4810.0 0.0002079 4676.34717 4741.60107
4732.0 0.0002113 4675.99707 4722.22998
4635.0 0.0002157 4675.64893 4708.33545
4768.0 0.0002097 4675.30225 4699.10449
4542.0 0.0002202 4674.95654 4693.22119
4628.0 0.0002161 4674.61328 4689.45557
4618.0 0.0002165 4674.27100 4686.92236
4676.0 0.0002139 4673.93066 4685.09180
4807.0 0.0002080 4673.59131 4683.67236
4710.0 0.0002123 4673.25391 4682.52197
4660.0 0.0002146 4672.91797 4681.56201
4811.0 0.0002079 4672.58350 4680.74658
4642.0 0.0002154 4672.25098 4680.04980
4824.0 0.0002073 4671.91943 4679.45068
4646.0 0.0002152 4671.58984 4678.93652
4533.0 0.0002206 4671.26172 4678.49756
4613.0 0.0002168 4670.93506 4678.12695
4713.0 0.0002122 4670.60986 4677.82129
4876.0 0.0002051 4670.28613 4677.58008
4602.0 0.0002173 4669.96387 4677.28711
4657.0 0.0002147 4669.64307 4677.17773
4680.0 0.0002137 4669.32373 4680.31055
4665.0 0.0002144 4669.00586 4680.45996
4740.0 0.0002110 4668.68945 4680.69824
4650.0 0.0002151 4668.37500 4681.03857
4695.0 0.0002130 4668.06152 4681.49561
4677.0 0.0002138 4667.74951 4682.08838
4617.0 0.0002166 4667.43896 4682.84131
4906.0 0.0002038 4667.12988 4683.78857
4618.0 0.0002165 4666.82227 4684.97412
4750.0 0.0002105 4666.51611 4686.45264
4653.0 0.0002149 4666.21094 4688.30371
4657.0 0.0002147 4665.90771 4690.64111
4877.0 0.0002050 4665.60596 4693.64063
4565.0 0.0002191 4665.30518 4697.61621
4572.0 0.0002187 4665.00586 4703.16504
4696.0 0.0002129 4664.70801 4711.46338
4660.0 0.0002146 4664.41113 4724.66748
4879.0 0.0002050 4664.11621 4746.29297
4863.0 0.0002056 4663.82227 4781.11963
4817.0 0.0002076 4663.52979 4833.71729
4971.0 0.0002012 4663.23828 4907.70068
5032.0 0.0001987 4662.94824 4999.75830
5323.0 0.0001879 4662.65967 5096.38037
5161.0 0.0001938 4662.37207 5168.62695
5278.0 0.0001895 4662.08594 5181.39111
5112.0 0.0001956 4661.80127 5127.03467
4953.0 0.0002019 4661.51758 5035.23340
4889.0 0.0002045 4661.23535 4939.80273
4760.0 0.0002101 4660.95410 4859.34766
4780.0 0.0002092 4660.67383 4799.80273
4802.0 0.0002082 4660.39551 4759.89111
4680.0 0.0002137 4660.11768 4735.07861
4785.0 0.0002090 4659.84131 4720.09277
4568.0 0.0002189 4659.56592 4711.45508
4625.0 0.0002162 4659.29199 4706.33594
4676.0 0.0002139 4659.01904 4703.33594
4632.0 0.0002159 4658.74707 4701.67822
4707.0 0.0002124 4658.47607 4701.05713
4580.0 0.0002183 4658.20654 4701.32422
4809.0 0.0002079 4657.93799 4702.42920
4738.0 0.0002111 4657.67041 4704.38818
4645.0 0.0002153 4657.40381 4707.27344
4903.0 0.0002040 4657.13867 4711.21436
4760.0 0.0002101 4656.87402 4716.41992
4577.0 0.0002185 4656.61084 4723.20947
4854.0 0.0002060 4656.34863 4732.11328
4657.0 0.0002147 4656.08691 4744.07666
4872.0 0.0002053 4655.82666 4760.93701
4658.0 0.0002147 4655.56689 4786.28271
4815.0 0.0002077 4655.30859 4826.71289
4850.0 0.0002062 4655.05078 4892.97461
4973.0 0.0002011 4654.79443 4999.74072
5370.0 0.0001862 4654.53857 5162.40186
5427.0 0.0001843 4654.28320 5390.00928
5634.0 0.0001775 4654.02930 5674.64502
6060.0 0.0001650 4653.77588 5976.60156
6151.0 0.0001626 4653.52393 6208.91406
6271.0 0.0001595 4653.27197 6261.46729
6040.0 0.0001656 4653.02148 6102.46143
5792.0 0.0001727 4652.77148 5818.69971
5433.0 0.0001841 4652.52197 5517.07471
5190.0 0.0001927 4652.27344 5258.78809
5094.0 0.0001963 4652.02588 5064.65430
4867.0 0.0002055 4651.77881 4932.11963
4890.0 0.0002045 4651.53223 4847.66895
4754.0 0.0002103 4651.28662 4795.62695
4807.0 0.0002080 4651.04199 4763.18164
4839.0 0.0002067 4650.79736 4742.04395
4830.0 0.0002070 4650.55371 4726.95264
4637.0 0.0002157 4650.31104 4715.56104
4697.0 0.0002129 4650.06836 4706.56934
4679.0 0.0002137 4649.82666 4699.72949
4631.0 0.0002159 4649.58496 4693.70361
4659.0 0.0002146 4649.34424 4688.65430
4658.0 0.0002147 4649.10400 4684.37646
4724.0 0.0002117 4648.86475 4680.81445
4655.0 0.0002148 4648.62549 4677.65771
4802.0 0.0002082 4648.38672 4674.91113
4681.0 0.0002136 4648.14844 4672.50342
4635.0 0.0002157 4647.91064 4670.37891
4636.0 0.0002157 4647.67334 4667.48291
4796.0 0.0002085 4647.43652 4665.83447
4746.0 0.0002107 4647.19971 4664.35791
4682.0 0.0002136 4646.96387 4663.02881
4603.0 0.0002172 4646.72803 4661.82959
4731.0 0.0002114 4646.49219 4660.74316
4702.0 0.0002127 4646.25732 4659.75732
4748.0 0.0002106 4646.02246 4658.86230
4524.0 0.0002210 4645.78809 4658.05029
4773.0 0.0002095 4645.55371 4657.31299
4645.0 0.0002153 4645.31982 4656.64795
4664.0 0.0002144 4645.08594 4656.05566
4729.0 0.0002115 4644.85254 4655.53369
4715.0 0.0002121 4644.61914 4655.08984
4629.0 0.0002160 4644.38623 4654.74072
4544.0 0.0002201 4644.15332 4654.52295
4728.0 0.0002115 4643.92041 4654.50195
4833.0 0.0002069 4643.68750 4654.79932
4593.0 0.0002177 4643.45508 4655.59521
4542.0 0.0002202 4643.22266 4657.10303
4611.0 0.0002169 4642.99023 4659.49414
4656.0 0.0002148 4642.75781 4662.78223
4699.0 0.0002128 4642.52539 4666.64600
4601.0 0.0002173 4642.29346 4670.20166
4691.0 0.0002132 4642.06104 4671.96924
4610.0 0.0002169 4641.82910 4670.82520
4598.0 0.0002175 4641.59668 4667.28809
4896.0 0.0002042 4641.36426 4662.92139
4619.0 0.0002165 4641.13184 4658.81689
4614.0 0.0002167 4640.89941 4655.53711
4519.0 0.0002213 4640.66699 4653.18164
4651.0 0.0002150 4640.43457 4651.62549
4756.0 0.0002103 4640.20166 4650.66553
4525.0 0.0002210 4639.96875 4650.10205
4512.0 0.0002216 4639.73535 4646.68066
4690.0 0.0002132 4639.50195 4646.65381
4607.0 0.0002171 4639.26855 4646.75049
4660.0 0.0002146 4639.03516 4646.95850
4577.0 0.0002185 4638.80127 4647.27441
4584.0 0.0002182 4638.56689 4647.70898
4779.0 0.0002092 4638.33252 4648.27441
4523.0 0.0002211 4638.09766 4648.99561
4791.0 0.0002087 4637.86279 4649.90186
4637.0 0.0002157 4637.62744 4651.03320
4647.0 0.0002152 4637.39160 4652.45166
4686.0 0.0002134 4637.15527 4654.24219
4663.0 0.0002145 4636.91895 4656.54980
4806.0 0.0002081 4636.68213 4659.62402
4703.0 0.0002126 4636.44482 4663.91602
4740.0 0.0002110 4636.20752 4670.22070
4689.0 0.0002133 4635.96924 4679.79980
4664.0 0.0002144 4635.73047 4694.45068
4731.0 0.0002114 4635.49170 4716.35010
4682.0 0.0002136 4635.25195 4747.66406
4813.0 0.0002078 4635.01221 4789.96533
4762.0 0.0002100 4634.77148 4842.15381
4831.0 0.0002070 4634.53076 4899.48389
5053.0 0.0001979 4634.28906 4954.24072
5112.0 0.0001956 4634.04688 5003.00537
5013.0 0.0001995 4633.80420 5046.04004
4987.0 0.0002005 4633.56055 5074.95215
4875.0 0.0002051 4633.31689 5072.53662
5147.0 0.0001943 4633.07227 5033.57520
4976.0 0.0002010 4632.82715 4972.63623
4939.0 0.0002025 4632.58105 4905.54785
4664.0 0.0002144 4632.33447 4841.11816
4816.0 0.0002076 4632.08740 4785.42480
4808.0 0.0002080 4631.83936 4741.94141
4616.0 0.0002166 4631.59082 4710.53955
4582.0 0.0002182 4631.34131 4688.98340
4648.0 0.0002151 4631.09131 4674.57178
4552.0 0.0002197 4630.84033 4664.95410
4683.0 0.0002135 4630.58838 4658.38574
4641.0 0.0002155 4630.33594 4653.70313
4689.0 0.0002133 4630.08252 4650.18896
4549.0 0.0002198 4629.82861 4647.43018
4605.0 0.0002172 4629.57373 4645.19336
4777.0 0.0002093 4629.31787 4643.34619
4575.0 0.0002186 4629.06104 4641.81299
4536.0 0.0002205 4628.80371 4640.54590
4682.0 0.0002136 4628.54541 4639.51123
4629.0 0.0002160 4628.28613 4638.67822
4760.0 0.0002101 4628.02588 4638.00146
4442.0 0.0002251 4627.76465 4637.41895
4677.0 0.0002138 4627.50244 4636.84131
4587.0 0.0002180 4627.23975 4636.22559
4662.0 0.0002145 4626.97559 4635.62305
4877.0 0.0002050 4626.71094 4635.15625
4666.0 0.0002143 4626.44482 4634.96777
4627.0 0.0002161 4626.17773 4635.22656
4589.0 0.0002179 4625.90967 4636.14697
4673.0 0.0002140 4625.64111 4637.96045
4768.0 0.0002097 4625.37109 4640.83008
4636.0 0.0002157 4625.09961 4644.71240
4541.0 0.0002202 4624.82764 4649.13281
4555.0 0.0002195 4624.55469 4653.04639
4560.0 0.0002193 4624.28027 4654.69971
4654.0 0.0002149 4624.00488 4652.96826
4661.0 0.0002145 4623.72852 4648.62988
4607.0 0.0002171 4623.45117 4643.42773
4615.0 0.0002167 4623.17236 4638.62305
4593.0 0.0002177 4622.89258 4634.76611
4666.0 0.0002143 4622.61133 4631.95117
4551.0 0.0002197 4622.32959 4630.03125
4544.0 0.0002201 4622.04639 4628.77441
4629.0 0.0002160 4621.76172 4627.95850
4547.0 0.0002199 4621.47607 4627.42334
4704.0 0.0002126 4621.18945 4627.07568
4548.0 0.0002199 4620.90137 4626.86768
4614.0 0.0002167 4620.61230 4626.78564
4634.0 0.0002158 4620.32178 4626.83545
4606.0 0.0002171 4620.03027 4627.04053
4758.0 0.0002102 4619.73730 4635.58838
4681.0 0.0002136 4619.44336 4636.54785
4638.0 0.0002156 4619.14795 4638.02295
4651.0 0.0002150 4618.85156 4640.38574
4512.0 0.0002216 4618.55371 4644.25391
4636.0 0.0002157 4618.25439 4650.52051
4606.0 0.0002171 4617.95410 4660.22461
4649.0 0.0002151 4617.65234 4674.19727
4613.0 0.0002168 4617.34912 4692.48438
4631.0 0.0002159 4617.04492 4713.53906
4662.0 0.0002145 4616.73975 4733.12842
4687.0 0.0002134 4616.43262 4744.08496
4712.0 0.0002122 4616.12451 4740.62207
4611.0 0.0002169 4615.81494 4724.74121
4743.0 0.0002108 4615.50439 4703.60059
4806.0 0.0002081 4615.19189 4683.60156
4703.0 0.0002126 4614.87842 4667.36865
4580.0 0.0002183 4614.56396 4655.58496
4718.0 0.0002120 4614.24756 4647.28369
4660.0 0.0002146 4613.93018 4642.42969
4829.0 0.0002071 4613.61133 4639.54199
4652.0 0.0002150 4613.29102 4637.75732
4667.0 0.0002143 4612.96924 4636.77734
4608.0 0.0002170 4612.64648 4636.22510
4613.0 0.0002168 4612.32227 4635.95605
4678.0 0.0002138 4611.99658 4635.89746
4616.0 0.0002166 4611.66943 4636.00879
4517.0 0.0002214 4611.34082 4636.27002
4544.0 0.0002201 4611.01123 4636.66895
4655.0 0.0002148 4610.67969 4637.19873
4925.0 0.0002030 4610.34717 4637.85840
4539.0 0.0002203 4610.01318 4651.61377
4610.0 0.0002169 4609.67773 4652.91846
4688.0 0.0002133 4609.34082 4654.38184
4628.0 0.0002161 4609.00293 4656.01563
4717.0 0.0002120 4608.66309 4657.83252
4568.0 0.0002189 4608.32227 4659.84912
4522.0 0.0002211 4607.97998 4662.08594
4575.0 0.0002186 4607.63623 4664.56787
4589.0 0.0002179 4607.29102 4667.31982
4834.0 0.0002069 4606.94434 4670.37793
4560.0 0.0002193 4606.59619 4673.77734
4647.0 0.0002152 4606.24658 4677.57080
4633.0 0.0002158 4605.89600 4681.81006
4592.0 0.0002178 4605.54395 4686.56299
4777.0 0.0002093 4605.19043 4691.90820
4667.0 0.0002143 4604.83545 4697.94287
4746.0 0.0002107 4604.47900 4704.78418
4616.0 0.0002166 4604.12109 4712.57666
4724.0 0.0002117 4603.76172 4721.49951
4656.0 0.0002148 4603.40088 4731.77539
4596.0 0.0002176 4603.03906 4743.68701
4723.0 0.0002117 4602.67578 4757.59375
4818.0 0.0002076 4602.31104 4773.92334
4755.0 0.0002103 4601.94482 4793.36279
5021.0 0.0001992 4601.57715 4816.70557
4836.0 0.0002068 4601.20801 4845.14209
4888.0 0.0002046 4600.83789 4880.53223
4918.0 0.0002033 4600.46631 4926.16064
5033.0 0.0001987 4600.09277 4987.94971
5157.0 0.0001939 4599.71826 5077.37012
5247.0 0.0001906 4599.34277 5214.84229
5546.0 0.0001803 4598.96533 5433.07959
5780.0 0.0001730 4598.58691 5776.72412
6227.0 0.0001606 4598.20703 6294.01563
7206.0 0.0001388 4597.82568 7017.92529
7936.0 0.0001260 4597.44287 7937.36572
8934.0 0.0001119 4597.05908 8957.01855
9729.0 0.0001028 4596.67334 9846.09668
10146.0 0.0000986 4596.28711 10254.46582
10059.0 0.0000994 4595.89893 9962.40918
9177.0 0.0001090 4595.50977 9133.67383
8195.0 0.0001220 4595.11914 8122.11279
7124.0 0.0001404 4594.72705 7184.22266
6599.0 0.0001515 4594.33350 6433.96924
6092.0 0.0001641 4593.93896 5893.06055
5469.0 0.0001828 4593.54297 5534.28857
5403.0 0.0001851 4593.14600 5309.05371
5288.0 0.0001891 4592.74756 5172.13574
5210.0 0.0001919 4592.34766 5088.90039
5305.0 0.0001885 4591.94678 5037.37451
4895.0 0.0002043 4591.54443 5005.11572
4978.0 0.0002009 4591.14111 4986.17334
4934.0 0.0002027 4590.73633 4977.34814
4933.0 0.0002027 4590.33008 4977.29590
5136.0 0.0001947 4589.92285 4985.62158
5001.0 0.0002000 4589.51416 5002.62061
5105.0 0.0001959 4589.10449 5029.29053
5126.0 0.0001951 4588.69385 5067.62305
5156.0 0.0001939 4588.28174 5121.38135
5344.0 0.0001871 4587.86816 5197.83545
5368.0 0.0001863 4587.45361 5311.06543
5520.0 0.0001812 4587.03809 5487.07910
5700.0 0.0001754 4586.62109 5769.48779
6190.0 0.0001616 4586.20313 6221.73291
6871.0 0.0001455 4585.78369 6919.44678
7810.0 0.0001280 4585.36377 7927.52734
9083.0 0.0001101 4584.94189 9261.34180
10781.0 0.0000928 4584.51953 10832.47754
12204.0 0.0000819 4584.09570 12372.78125
13569.0 0.0000737 4583.67090 13386.78613
12980.0 0.0000770 4583.24512 13377.91211
12565.0 0.0000796 4582.81836 12348.58789
10935.0 0.0000914 4582.39014 10798.70703
9152.0 0.0001093 4581.96094 9222.87012
8185.0 0.0001222 4581.53076 7886.56787
6718.0 0.0001489 4581.09961 6876.25928
6127.0 0.0001632 4580.66748 6175.49170
5698.0 0.0001755 4580.23389 5718.87305
5388.0 0.0001856 4579.79980 5430.65479
5394.0 0.0001854 4579.36426 5247.46533
5134.0 0.0001948 4578.92822 5125.77979
5083.0 0.0001967 4578.49072 5039.59521
4969.0 0.0002012 4578.05273 4974.72852
4886.0 0.0002047 4577.61377 4923.69482
5047.0 0.0001981 4577.17334 4882.40625
4867.0 0.0002055 4576.73242 4848.43115
4859.0 0.0002058 4576.29053 4820.18750
4869.0 0.0002054 4575.84766 4796.59961
4778.0 0.0002093 4575.40381 4776.95068
4902.0 0.0002040 4574.95947 4760.81006
4804.0 0.0002082 4574.51367 4747.97168
4689.0 0.0002133 4574.06738 4738.35352
4747.0 0.0002107 4573.62012 4731.84033
4750.0 0.0002105 4573.17236 4728.07275
4828.0 0.0002071 4572.72314 4726.16357
4696.0 0.0002129 4572.27393 4724.35547
4676.0 0.0002139 4571.82324 4720.19775
4628.0 0.0002161 4571.37207 4712.27588
4813.0 0.0002078 4570.91992 4701.76367
4963.0 0.0002015 4570.46729 4691.04346
4618.0 0.0002165 4570.01416 4681.89355
4676.0 0.0002139 4569.55957 4675.24316
4596.0 0.0002176 4569.10498 4671.51318
4622.0 0.0002164 4568.64941 4670.87451
4807.0 0.0002080 4568.19287 4673.42969
4626.0 0.0002162 4567.73584 4679.37402
4647.0 0.0002152 4567.27832 4689.12256
4778.0 0.0002093 4566.82031 4695.26270
4662.0 0.0002145 4566.36133 4716.02246
4798.0 0.0002084 4565.90186 4746.51416
4641.0 0.0002155 4565.44189 4791.47412
4803.0 0.0002082 4564.98096 4853.66211
4982.0 0.0002007 4564.51953 4930.33301
4948.0 0.0002021 4564.05811 5009.51074
5091.0 0.0001964 4563.59570 5066.87891
5108.0 0.0001958 4563.13281 5074.21582
4997.0 0.0002001 4562.66943 5025.34082
4870.0 0.0002053 4562.20557 4943.38330
4881.0 0.0002049 4561.74121 4855.98145
4942.0 0.0002023 4561.27588 4779.45313
4637.0 0.0002157 4560.81104 4719.90771
4665.0 0.0002144 4560.34521 4677.36865
4426.0 0.0002259 4559.87891 4648.76758
4552.0 0.0002197 4559.41211 4630.10645
4732.0 0.0002113 4558.94531 4617.82227
4602.0 0.0002173 4558.47803 4609.35547
4491.0 0.0002227 4558.01025 4603.11523
4634.0 0.0002158 4557.54199 4598.21094
4644.0 0.0002153 4557.07373 4594.16895
4739.0 0.0002110 4556.60498 4590.72949
4592.0 0.0002178 4556.13574 4587.73975
4472.0 0.0002236 4555.66650 4585.10010
4415.0 0.0002265 4555.19678 4582.74170
4588.0 0.0002180 4554.72705 4580.61230
4730.0 0.0002114 4554.25684 4578.67139
4515.0 0.0002215 4553.78662 4576.88770
4558.0 0.0002194 4553.31592 4575.23633
4573.0 0.0002187 4552.84521 4573.69727
4647.0 0.0002152 4552.37402 4572.25537
4696.0 0.0002129 4551.90283 4557.93457
4557.0 0.0002194 4551.43164 4562.60352
4552.0 0.0002197 4550.96045 4561.89404
4519.0 0.0002213 4550.48877 4561.23438
4580.0 0.0002183 4550.01709 4560.61816
4742.0 0.0002109 4549.54541 4560.04150
4435.0 0.0002255 4549.07324 4559.50098
4639.0 0.0002156 4548.60156 4558.99463
4425.0 0.0002260 4548.12939 4558.51953
4675.0 0.0002139 4547.65771 4558.07422
4691.0 0.0002132 4547.18555 4557.65625
4431.0 0.0002257 4546.71338 4557.26514
4439.0 0.0002253 4546.24121 4556.90137
4488.0 0.0002228 4545.76953 4556.56250
4523.0 0.0002211 4545.29736 4556.24951
4659.0 0.0002146 4544.82568 4555.96289
4533.0 0.0002206 4544.35352 4555.70166
4523.0 0.0002211 4543.88184 4555.46631
4504.0 0.0002220 4543.41016 4555.25830
4571.0 0.0002188 4542.93896 4555.21533
4718.0 0.0002120 4542.46729 4555.06836
4446.0 0.0002249 4541.99609 4554.95215
4545.0 0.0002200 4541.52490 4554.86816
4503.0 0.0002221 4541.05420 4554.81934
4510.0 0.0002217 4540.58350 4554.80664
4716.0 0.0002120 4540.11279 4554.83105
4488.0 0.0002228 4539.64258 4554.84131
4668.0 0.0002142 4539.17236 4554.95459
4419.0 0.0002263 4538.70264 4555.11768
4445.0 0.0002250 4538.23291 4555.33105
4625.0 0.0002162 4537.76367 4555.60352
4626.0 0.0002162 4537.29443 4555.93848
4632.0 0.0002159 4536.82568 4556.34277
4460.0 0.0002242 4536.35742 4556.82129
4538.0 0.0002204 4535.88916 4557.38477
4724.0 0.0002117 4535.42139 4558.04004
4493.0 0.0002226 4534.95410 4558.79883
4541.0 0.0002202 4534.48730 4559.67188
4443.0 0.0002251 4534.02051 4560.63770
4392.0 0.0002277 4533.55420 4561.78662
4565.0 0.0002191 4533.08838 4563.09766
4529.0 0.0002208 4532.62354 4564.59521
4634.0 0.0002158 4532.15820 4566.30225
4461.0 0.0002242 4531.69385 4568.25146
4642.0 0.0002154 4531.22998 4570.47754
4597.0 0.0002175 4530.76611 4572.30566
4565.0 0.0002191 4530.30322 4575.24219
4595.0 0.0002176 4529.84082 4578.61182
4557.0 0.0002194 4529.37891 4582.48877
4577.0 0.0002185 4528.91748 4586.96777
4746.0 0.0002107 4528.45654 4592.16455
4670.0 0.0002141 4527.99609 4598.21826
4627.0 0.0002161 4527.53613 4605.31250
4630.0 0.0002160 4527.07715 4613.67627
4573.0 0.0002187 4526.61865 4623.60840
4721.0 0.0002118 4526.16064 4635.49902
4616.0 0.0002166 4525.70313 4649.88184
4733.0 0.0002113 4525.24658 4667.52783
4661.0 0.0002145 4524.79053 4689.65283
4684.0 0.0002135 4524.33496 4718.36377
4780.0 0.0002092 4523.87988 4757.54395
4806.0 0.0002081 4523.42578 4814.34863
4712.0 0.0002122 4522.97266 4901.20605
5060.0 0.0001976 4522.52002 5037.50195
5169.0 0.0001935 4522.06787 5249.18701
5574.0 0.0001794 4521.61670 5564.12988
5909.0 0.0001692 4521.16602 6001.96777
6577.0 0.0001520 4520.71631 6558.79297
7231.0 0.0001383 4520.26758 7185.88232
7799.0 0.0001282 4519.81934 7760.98193
8307.0 0.0001204 4519.37158 8084.61914
7950.0 0.0001258 4518.92529 7996.08838
7668.0 0.0001304 4518.47900 7542.84033
7126.0 0.0001403 4518.03418 6925.18555
6295.0 0.0001589 4517.58984 6316.37793
5903.0 0.0001694 4517.14648 5805.31885
5327.0 0.0001877 4516.70410 5418.79736
5080.0 0.0001969 4516.26221 5149.16162
4831.0 0.0002070 4515.82129 4971.89648
4867.0 0.0002055 4515.38135 4859.14941
4926.0 0.0002030 4514.94238 4787.64258
4761.0 0.0002100 4514.50439 4741.38477
4805.0 0.0002081 4514.06689 4710.95215
4668.0 0.0002142 4513.63086 4691.43701
4704.0 0.0002126 4513.19531 4680.38135
4881.0 0.0002049 4512.76074 4676.21436
4679.0 0.0002137 4512.32715 4677.10547
4638.0 0.0002156 4511.89453 4679.97314
4603.0 0.0002172 4511.46240 4679.90918
4591.0 0.0002178 4511.03174 4671.95459
4752.0 0.0002104 4510.60205 4656.38574
4530.0 0.0002208 4510.17334 4635.45996
4596.0 0.0002176 4509.74512 4614.57910
4643.0 0.0002154 4509.31836 4596.30371
4570.0 0.0002188 4508.89258 4581.53418
4477.0 0.0002234 4508.46777 4570.18555
4594.0 0.0002177 4508.04395 4561.67383
4542.0 0.0002202 4507.62109 4555.26367
4485.0 0.0002230 4507.19971 4550.29639
4584.0 0.0002182 4506.77881 4546.28125
4636.0 0.0002157 4506.35889 4542.90137
4471.0 0.0002237 4505.94043 4539.96680
4504.0 0.0002220 4505.52246 4537.36426
4556.0 0.0002195 4505.10596 4535.02588
4479.0 0.0002233 4504.69043 4532.90576
4652.0 0.0002150 4504.27637 4530.97412
4387.0 0.0002279 4503.86279 4529.20313
4478.0 0.0002233 4503.45068 4527.57568
4602.0 0.0002173 4503.03906 4526.07275
4511.0 0.0002217 4502.62939 4524.68750
4557.0 0.0002194 4502.22021 4523.40674
4494.0 0.0002225 4501.81201 4522.22754
4675.0 0.0002139 4501.40527 4521.14941
4558.0 0.0002194 4500.99951 4520.17432
4521.0 0.0002212 4500.59521 4519.30322
4704.0 0.0002126 4500.19141 4518.53369
4477.0 0.0002234 4499.78906 4517.86035
4493.0 0.0002226 4499.38770 4517.25732
4571.0 0.0002188 4498.98779 4516.67627
4447.0 0.0002249 4498.58887 4516.05664
4644.0 0.0002153 4498.19092 4515.37158
4482.0 0.0002231 4497.79443 4514.65820
4332.0 0.0002308 4497.39844 4513.97852
4422.0 0.0002261 4497.00439 4513.37744
4428.0 0.0002258 4496.61084 4512.87646
4626.0 0.0002162 4496.21875 4512.48486
4464.0 0.0002240 4495.82764 4512.20703
4575.0 0.0002186 4495.43799 4512.04395
4506.0 0.0002219 4495.04932 4511.99902
4503.0 0.0002221 4494.66162 4512.08447
4533.0 0.0002206 4494.27539 4512.45947
4475.0 0.0002235 4493.89014 4512.87744
4457.0 0.0002244 4493.50586 4513.52393
4468.0 0.0002238 4493.12305 4514.47900
4515.0 0.0002215 4492.74121 4515.89111
4767.0 0.0002098 4492.36035 4518.02686
4510.0 0.0002217 4491.98145 4521.34619
4452.0 0.0002246 4491.60303 4526.57080
4481.0 0.0002232 4491.22559 4534.69385
4533.0 0.0002206 4490.85010 4546.82324
4775.0 0.0002094 4490.47510 4558.32861
4664.0 0.0002144 4490.10156 4580.54688
4647.0 0.0002152 4489.72900 4606.41602
4610.0 0.0002169 4489.35791 4632.00830
4699.0 0.0002128 4488.98779 4650.16455
4728.0 0.0002115 4488.61865 4653.48242
4611.0 0.0002169 4488.25098 4641.34521
4645.0 0.0002153 4487.88428 4620.81250
4579.0 0.0002184 4487.51904 4599.80713
4518.0 0.0002213 4487.15430 4583.39697
4595.0 0.0002176 4486.79150 4574.24951
4519.0 0.0002213 4486.42920 4574.22070
4477.0 0.0002234 4486.06836 4585.27979
4480.0 0.0002232 4485.70850 4610.12744
4621.0 0.0002164 4485.35010 4652.04688
4780.0 0.0002092 4484.99268 4713.75098
4742.0 0.0002109 4484.63623 4795.32764
4867.0 0.0002055 4484.28125 4891.30957
4994.0 0.0002002 4483.92725 4986.39697
5045.0 0.0001982 4483.57422 5053.03857
5276.0 0.0001895 4483.22266 5061.11328
5068.0 0.0001973 4482.87207 5005.80957
4914.0 0.0002035 4482.52246 4913.02588
4793.0 0.0002086 4482.17383 4813.09863
4691.0 0.0002132 4481.82666 4724.37646
4752.0 0.0002104 4481.48047 4654.19824
4539.0 0.0002203 4481.13525 4603.35938
4517.0 0.0002214 4480.79150 4568.58154
4495.0 0.0002225 4480.44873 4545.79297
4703.0 0.0002126 4480.10693 4530.98145
4524.0 0.0002210 4479.76611 4521.09570
4471.0 0.0002237 4479.42676 4514.14258
4559.0 0.0002193 4479.08789 4508.94629
4523.0 0.0002211 4478.75049 4504.86279
4423.0 0.0002261 4478.41406 4501.54004
4580.0 0.0002183 4478.07910 4498.77295
4404.0 0.0002271 4477.74463 4496.43555
4382.0 0.0002282 4477.41113 4494.43994
4434.0 0.0002255 4477.07910 4492.72461
4341.0 0.0002304 4476.74805 4491.24316
4666.0 0.0002143 4476.41797 4489.95996
4415.0 0.0002265 4476.08887 4488.85010
4428.0 0.0002258 4475.76074 4487.89453
4380.0 0.0002283 4475.43359 4487.08301
4503.0 0.0002221 4475.10791 4486.40820
4712.0 0.0002122 4474.78271 4485.94385
4472.0 0.0002236 4474.45850 4485.55664
4477.0 0.0002234 4474.13574 4485.33691
4495.0 0.0002225 4473.81348 4485.33350
4407.0 0.0002269 4473.49268 4485.64355
4668.0 0.0002142 4473.17236 4486.43604
4460.0 0.0002242 4472.85303 4488.00781
4511.0 0.0002217 4472.53467 4490.80518
4463.0 0.0002241 4472.21777 4495.40430
4503.0 0.0002221 4471.90137 4502.39551
4543.0 0.0002201 4471.58594 4512.16553
4465.0 0.0002240 4471.27148 4524.56982
4478.0 0.0002233 4470.95752 4538.47754
4482.0 0.0002231 4470.64502 4551.17041
4545.0 0.0002200 4470.33301 4558.28174
4635.0 0.0002157 4470.02246 4556.24414
4494.0 0.0002225 4469.71240 4545.92041
4540.0 0.0002203 4469.40283 4531.61963
4500.0 0.0002222 4469.09473 4517.29443
4518.0 0.0002213 4468.78711 4504.98486
4472.0 0.0002236 4468.48047 4495.45459
4449.0 0.0002248 4468.17480 4488.63379
4409.0 0.0002268 4467.86963 4484.04541
4334.0 0.0002307 4467.56543 4481.11621
4415.0 0.0002265 4467.26221 4479.35645
4508.0 0.0002218 4466.95947 4478.46143
4474.0 0.0002235 4466.65771 4478.30225
4433.0 0.0002256 4466.35693 4478.88574
4429.0 0.0002258 4466.05615 4480.26758
4604.0 0.0002172 4465.75684 4482.22998
4686.0 0.0002134 4465.45801 4485.11719
4431.0 0.0002257 4465.16016 4488.26855
4411.0 0.0002267 4464.86279 4490.83789
4487.0 0.0002229 4464.56592 4491.69141
4496.0 0.0002224 4464.27002 4490.26172
4490.0 0.0002227 4463.97510 4487.16309
4367.0 0.0002290 4463.68018 4483.53857
4353.0 0.0002297 4463.38623 4480.22461
4381.0 0.0002283 4463.09326 4477.64355
4437.0 0.0002254 4462.80029 4475.94385
4530.0 0.0002208 4462.50879 4475.15723
4469.0 0.0002238 4462.21729 4475.31445
4503.0 0.0002221 4461.92676 4476.55566
4426.0 0.0002259 4461.63623 4479.21924
4462.0 0.0002241 4461.34668 4482.91309
4523.0 0.0002211 4461.05811 4490.20898
4518.0 0.0002213 4460.76953 4500.72266
4527.0 0.0002209 4460.48193 4516.57031
4487.0 0.0002229 4460.19434 4533.12500
4572.0 0.0002187 4459.90771 4550.03516
4606.0 0.0002171 4459.62158 4562.90674
4514.0 0.0002215 4459.33594 4566.40771
4597.0 0.0002175 4459.05078 4558.63916
4494.0 0.0002225 4458.76563 4543.26563
4437.0 0.0002254 4458.48145 4525.68066
4516.0 0.0002214 4458.19775 4509.52197
4452.0 0.0002246 4457.91455 4496.42676
4384.0 0.0002281 4457.63135 4486.75146
4444.0 0.0002250 4457.34912 4480.14746
4355.0 0.0002296 4457.06689 4475.97998
4560.0 0.0002193 4456.78564 4473.63086
4347.0 0.0002300 4456.50439 4472.67773
4425.0 0.0002260 4456.22314 4472.95508
4517.0 0.0002214 4455.94287 4474.51123
4452.0 0.0002246 4455.66260 4477.50586
4552.0 0.0002197 4455.38281 4482.05518
4533.0 0.0002206 4455.10352 4488.04248
4578.0 0.0002184 4454.82422 4494.88428
4398.0 0.0002274 4454.54541 4501.21973
4521.0 0.0002212 4454.26660 4504.85840
4668.0 0.0002142 4453.98877 4503.94775
4592.0 0.0002178 4453.71045 4498.79785
4508.0 0.0002218 4453.43311 4491.52686
4477.0 0.0002234 4453.15527 4484.15088
4431.0 0.0002257 4452.87793 4477.79297
4698.0 0.0002129 4452.60107 4472.87305
4526.0 0.0002209 4452.32422 4469.39551
4391.0 0.0002277 4452.04785 4467.15576
4525.0 0.0002210 4451.77100 4465.89990
4513.0 0.0002216 4451.49512 4465.42676
4630.0 0.0002160 4451.21875 4465.64014
4324.0 0.0002313 4450.94287 4466.53662
4528.0 0.0002208 4450.66699 4468.16260
4499.0 0.0002223 4450.39111 4470.53662
4451.0 0.0002247 4450.11572 4473.42139
4609.0 0.0002170 4449.84033 4476.76025
4462.0 0.0002241 4449.56494 4479.70605
4524.0 0.0002210 4449.28955 4481.25342
4456.0 0.0002244 4449.01416 4480.77246
4493.0 0.0002226 4448.73877 4478.67334
4629.0 0.0002160 4448.46387 4475.97412
4481.0 0.0002232 4448.18848 4473.47217
4478.0 0.0002233 4447.91357 4471.59912
4373.0 0.0002287 4447.63818 4470.50244
4671.0 0.0002141 4447.36328 4470.17090
4550.0 0.0002198 4447.08789 4470.52051
4389.0 0.0002278 4446.81250 4471.45215
4441.0 0.0002252 4446.53760 4472.89551
4520.0 0.0002212 4446.26221 4474.81982
4381.0 0.0002283 4445.98682 4477.24805
4707.0 0.0002124 4445.71143 4480.24072
4413.0 0.0002266 4445.43555 4483.90625
4516.0 0.0002214 4445.16016 4488.37109
4332.0 0.0002308 4444.88428 4493.95117
4505.0 0.0002220 4444.60840 4501.00732
4468.0 0.0002238 4444.33203 4510.22314
4619.0 0.0002165 4444.05615 4522.83350
4492.0 0.0002226 4443.77979 4541.03174
4544.0 0.0002201 4443.50293 4568.70117
4705.0 0.0002125 4443.22607 4610.93018
4760.0 0.0002101 4442.94922 4675.15039
4607.0 0.0002171 4442.67236 4769.06934
4840.0 0.0002066 4442.39453 4898.36523
5101.0 0.0001960 4442.11719 5062.92822
5300.0 0.0001887 4441.83936 5251.71680
5607.0 0.0001783 4441.56104 5435.48389
5481.0 0.0001824 4441.28271 5562.33545
5494.0 0.0001820 4441.00391 5578.09766
5524.0 0.0001810 4440.72510 5474.64111
5306.0 0.0001885 4440.44580 5299.13672
5235.0 0.0001910 4440.16650 5107.16846
4846.0 0.0002064 4439.88623 4934.26318
4747.0 0.0002107 4439.60596 4795.11914
4683.0 0.0002135 4439.32568 4692.04785
4573.0 0.0002187 4439.04443 4620.43262
4692.0 0.0002131 4438.76318 4572.78760
4474.0 0.0002235 4438.48193 4541.60254
4583.0 0.0002182 4438.19971 4520.87744
4471.0 0.0002237 4437.91699 4506.49951
4526.0 0.0002209 4437.63428 4495.95313
4624.0 0.0002163 4437.35107 4487.80371
4543.0 0.0002201 4437.06738 4481.25391
4524.0 0.0002210 4436.78320 4475.85059
4462.0 0.0002241 4436.49902 4471.31299
4345.0 0.0002301 4436.21387 4467.45410
4460.0 0.0002242 4435.92822 4464.13672
4355.0 0.0002296 4435.64258 4461.26025
4407.0 0.0002269 4435.35596 4458.74707
4410.0 0.0002268 4435.06934 4456.53418
4538.0 0.0002204 4434.78174 4454.50049
4536.0 0.0002205 4434.49365 4452.75439
4430.0 0.0002257 4434.20508 4451.19043
4541.0 0.0002202 4433.91650 4449.78125
4439.0 0.0002253 4433.62695 4448.50879
4479.0 0.0002233 4433.33691 4447.35498
4548.0 0.0002199 4433.04639 4446.30615
4468.0 0.0002238 4432.75488 4445.35205
4445.0 0.0002250 4432.46338 4444.48291
4407.0 0.0002269 4432.17090 4443.69775
4396.0 0.0002275 4431.87842 4442.99463
4408.0 0.0002269 4431.58496 4442.38037
4435.0 0.0002255 4431.29053 4441.86719
4637.0 0.0002157 4430.99609 4441.47852
4434.0 0.0002255 4430.70068 4441.23975
4500.0 0.0002222 4430.40479 4441.17676
4525.0 0.0002210 4430.10840 4441.53711
4420.0 0.0002262 4429.81104 4441.80713
4395.0 0.0002275 4429.51318 4442.21338
4459.0 0.0002243 4429.21484 4442.57422
4384.0 0.0002281 4428.91553 4442.67383
4600.0 0.0002174 4428.61572 4442.37549
4309.0 0.0002321 4428.31543 4441.76758
4541.0 0.0002202 4428.01416 4441.07959
4497.0 0.0002224 4427.71240 4440.51514
4406.0 0.0002270 4427.40967 4440.19971
4565.0 0.0002191 4427.10693 4440.21826
4380.0 0.0002283 4426.80273 4440.65527
4439.0 0.0002253 4426.49805 4441.64453
4387.0 0.0002279 4426.19287 4443.43115
4433.0 0.0002256 4425.88672 4446.42969
4538.0 0.0002204 4425.58008 4451.25488
4323.0 0.0002313 4425.27246 4458.68066
4544.0 0.0002201 4424.96436 4469.47998
4516.0 0.0002214 4424.65527 4484.13721
4562.0 0.0002192 4424.34570 4502.42432
4667.0 0.0002143 4424.03516 4522.85156
4476.0 0.0002234 4423.72363 4541.88770
4601.0 0.0002173 4423.41211 4553.82031
4571.0 0.0002188 4423.09912 4553.65039
4660.0 0.0002146 4422.78564 4541.95020
4606.0 0.0002171 4422.47119 4524.46680
4353.0 0.0002297 4422.15625 4507.18896
4419.0 0.0002263 4421.84033 4493.89502
4472.0 0.0002236 4421.52393 4486.39160
4432.0 0.0002256 4421.20605 4485.07861
4641.0 0.0002155 4420.88818 4489.23291
4593.0 0.0002177 4420.56934 4495.05518
4556.0 0.0002195 4420.24902 4503.44043
4462.0 0.0002241 4419.92871 4508.02148
4462.0 0.0002241 4419.60742 4505.26807
4548.0 0.0002199 4419.28516 4495.41602
4387.0 0.0002279 4418.96191 4481.87402
4446.0 0.0002249 4418.63818 4468.04297
4553.0 0.0002196 4418.31396 4455.88086
4304.0 0.0002323 4417.98828 4448.31494
4494.0 0.0002225 4417.66211 4441.11621
4531.0 0.0002207 4417.33496 4436.02441
4380.0 0.0002283 4417.00732 4432.52734
4411.0 0.0002267 4416.67822 4430.13330
4250.0 0.0002353 4416.34912 4428.45410
4519.0 0.0002213 4416.01855 4427.22949
4402.0 0.0002272 4415.68750 4426.29834
4412.0 0.0002267 4415.35547 4425.57227
4387.0 0.0002279 4415.02246 4424.99951
4356.0 0.0002296 4414.68896 4424.55762
4581.0 0.0002183 4414.35449 4424.23779
4398.0 0.0002274 4414.01953 4424.03662
4477.0 0.0002234 4413.68311 4423.96240
4542.0 0.0002202 4413.34619 4424.02344
4349.0 0.0002299 4413.00830 4424.23584
4528.0 0.0002208 4412.66992 4424.61572
4471.0 0.0002237 4412.33057 4425.18555
4357.0 0.0002295 4411.99023 4425.97900
4336.0 0.0002306 4411.64941 4427.07227
4363.0 0.0002292 4411.30762 4428.65088
4405.0 0.0002270 4410.96484 4431.08643
4378.0 0.0002284 4410.62109 4434.95947
4455.0 0.0002245 4410.27686 4441.02783
4422.0 0.0002261 4409.93213 4450.11523
4444.0 0.0002250 4409.58594 4462.90332
4512.0 0.0002216 4409.23926 4479.58301
4402.0 0.0002272 4408.89160 4499.39893
4468.0 0.0002238 4408.54346 4519.98291
4415.0 0.0002265 4408.19385 4536.65527
4462.0 0.0002241 4407.84424 4543.31543
4671.0 0.0002141 4407.49316 4536.78369
4259.0 0.0002348 4407.14160 4520.11572
4495.0 0.0002225 4406.78955 4499.40967
4472.0 0.0002236 4406.43604 4479.39697
4354.0 0.0002297 4406.08252 4462.48145
4475.0 0.0002235 4405.72754 4449.45947
4442.0 0.0002251 4405.37207 4440.15283
4401.0 0.0002272 4405.01563 4433.89795
4405.0 0.0002270 4404.65869 4429.89648
4432.0 0.0002256 4404.30078 4427.43115
4625.0 0.0002162 4403.94238 4425.96582
4411.0 0.0002267 4403.58301 4425.15771
4336.0 0.0002306 4403.22266 4424.80225
4349.0 0.0002299 4402.86182 4424.79541
4337.0 0.0002306 4402.50000 4425.08643
4548.0 0.0002199 4402.13770 4425.65967
4398.0 0.0002274 4401.77490 4426.51758
4452.0 0.0002246 4401.41113 4427.67920
4350.0 0.0002299 4401.04639 4429.17676
4303.0 0.0002324 4400.68115 4431.05469
4577.0 0.0002185 4400.31494 4433.37646
4353.0 0.0002297 4399.94824 4436.22607
4436.0 0.0002254 4399.58105 4439.49805
4394.0 0.0002276 4399.21289 4443.79395
4467.0 0.0002239 4398.84375 4449.11768
4640.0 0.0002155 4398.47412 4455.83057
4480.0 0.0002232 4398.10400 4464.54395
4474.0 0.0002235 4397.73340 4476.33789
4353.0 0.0002297 4397.36182 4493.09961
4528.0 0.0002208 4396.98975 4517.96582
4645.0 0.0002153 4396.61670 4555.68213
4556.0 0.0002195 4396.24316 4612.58838
4615.0 0.0002167 4395.86914 4695.79248
4793.0 0.0002086 4395.49414 4811.14697
5006.0 0.0001998 4395.11865 4960.86377
5123.0 0.0001952 4394.74268 5138.67285
5199.0 0.0001923 4394.36621 5324.70264
5473.0 0.0001827 4393.98877 5479.05078
5534.0 0.0001807 4393.61084 5547.82861
5419.0 0.0001845 4393.23242 5499.24756
5440.0 0.0001838 4392.85352 5355.96191
5247.0 0.0001906 4392.47363 5171.31787
4959.0 0.0002017 4392.09326 4989.13281
4714.0 0.0002121 4391.71289 4832.53516
4647.0 0.0002152 4391.33154 4709.76563
4688.0 0.0002133 4390.94971 4620.05908
4483.0 0.0002231 4390.56689 4557.92822
4504.0 0.0002220 4390.18408 4516.29297
4489.0 0.0002228 4389.80078 4488.57715
4441.0 0.0002252 4389.41699 4469.71582
4649.0 0.0002151 4389.03223 4456.29102
4522.0 0.0002211 4388.64746 4446.21387
4347.0 0.0002300 4388.26221 4438.28369
4296.0 0.0002328 4387.87598 4431.81787
4454.0 0.0002245 4387.48975 4426.41650
4558.0 0.0002194 4387.10303 4421.82910
4494.0 0.0002225 4386.71582 4417.88379
4424.0 0.0002260 4386.32764 4414.45410
4407.0 0.0002269 4385.93994 4411.44824
4398.0 0.0002274 4385.55127 4408.79004
4489.0 0.0002228 4385.16211 4406.45801
4349.0 0.0002299 4384.77295 4404.33301
4390.0 0.0002278 4384.38330 4402.41309
4362.0 0.0002293 4383.99316 4400.66748
4432.0 0.0002256 4383.60254 4399.07080
4579.0 0.0002184 4383.21191 4397.60205
4365.0 0.0002291 4382.82031 4396.24463
4465.0 0.0002240 4382.42920 4394.98340
4319.0 0.0002315 4382.03711 4393.57031
4443.0 0.0002251 4381.64502 4392.47314
4537.0 0.0002204 4381.25244 4391.44092
4247.0 0.0002355 4380.85986 4390.46533
4405.0 0.0002270 4380.46680 4389.54150
4473.0 0.0002236 4380.07324 4388.66260
4366.0 0.0002290 4379.67969 4387.82422
4468.0 0.0002238 4379.28613 4387.02197
4461.0 0.0002242 4378.89209 4386.25342
4376.0 0.0002285 4378.49756 4387.68506
4422.0 0.0002261 4378.10303 4387.03662
4405.0 0.0002270 4377.70850 4386.41602
4492.0 0.0002226 4377.31348 4385.82080
4392.0 0.0002277 4376.91846 4385.25000
4346.0 0.0002301 4376.52295 4384.70117
4332.0 0.0002308 4376.12793 4384.17432
4410.0 0.0002268 4375.73193 4383.66895
4489.0 0.0002228 4375.33643 4383.18262
4339.0 0.0002305 4374.94043 4382.71729
4401.0 0.0002272 4374.54443 4382.27002
4376.0 0.0002285 4374.14844 4381.84326
4341.0 0.0002304 4373.75244 4381.43457
4378.0 0.0002284 4373.35596 4381.04785
4356.0 0.0002296 4372.95996 4380.68066
4279.0 0.0002337 4372.56348 4380.52148
4261.0 0.0002347 4372.16699 4380.20313
4368.0 0.0002289 4371.77051 4379.91162
4428.0 0.0002258 4371.37402 4379.64844
4326.0 0.0002312 4370.97754 4379.41504
4335.0 0.0002307 4370.58105 4379.22021
4298.0 0.0002327 4370.18457 4379.06934
4340.0 0.0002304 4369.78809 4378.97559
4561.0 0.0002193 4369.39160 4378.96045
4388.0 0.0002279 4368.99561 4379.06152
4320.0 0.0002315 4368.59912 4379.33984
4345.0 0.0002301 4368.20313 4379.88965
4375.0 0.0002286 4367.80664 4380.83643
4483.0 0.0002231 4367.41064 4382.32910
4310.0 0.0002320 4367.01465 4384.50195
4428.0 0.0002258 4366.61914 4385.24951
4355.0 0.0002296 4366.22314 4389.97168
4368.0 0.0002289 4365.82764 4394.01416
4412.0 0.0002267 4365.43213 4397.71777
4315.0 0.0002317 4365.03711 4400.00879
4327.0 0.0002311 4364.64209 4399.98340
4424.0 0.0002260 4364.24756 4397.74414
4389.0 0.0002278 4363.85254 4394.29688
4423.0 0.0002261 4363.45801 4390.68701
4459.0 0.0002243 4363.06396 4387.56152
4326.0 0.0002312 4362.66992 4385.20703
4465.0 0.0002240 4362.27637 4383.69824
4315.0 0.0002317 4361.88281 4382.99365
4425.0 0.0002260 4361.48975 4383.01514
4394.0 0.0002276 4361.09668 4383.70410
4341.0 0.0002304 4360.70410 4385.05469
4285.0 0.0002334 4360.31201 4387.10986
4382.0 0.0002282 4359.91992 4389.93457
4459.0 0.0002243 4359.52832 4393.56641
4260.0 0.0002347 4359.13721 4397.95752
4434.0 0.0002255 4358.74609 4402.88672
4390.0 0.0002278 4358.35547 4407.86719
4424.0 0.0002260 4357.96533 4412.17773
4478.0 0.0002233 4357.57568 4415.32129
4413.0 0.0002266 4357.18652 4417.60693
4443.0 0.0002251 4356.79736 4420.00049
4355.0 0.0002296 4356.40869 4423.55957
4492.0 0.0002226 4356.02051 4429.25879
4582.0 0.0002182 4355.63281 4438.21924
4391.0 0.0002277 4355.24609 4452.09863
4400.0 0.0002273 4354.85889 4473.52441
4473.0 0.0002236 4354.47314 4506.47021
4410.0 0.0002268 4354.08691 4556.33057
4627.0 0.0002161 4353.70215 4629.35693
4650.0 0.0002151 4353.31689 4731.20654
4845.0 0.0002064 4352.93311 4864.58936
4911.0 0.0002036 4352.54932 5026.08594
5151.0 0.0001941 4352.16602 5201.66748
5508.0 0.0001816 4351.78369 5360.91113
5392.0 0.0001855 4351.40186 5457.02783
5323.0 0.0001879 4351.02051 5450.13330
5449.0 0.0001835 4350.63965 5343.32031
5126.0 0.0001951 4350.25928 5179.43799
5157.0 0.0001939 4349.87939 5003.93945
4857.0 0.0002059 4349.50049 4844.99316
4746.0 0.0002107 4349.12256 4715.02295
4508.0 0.0002218 4348.74463 4616.48096
4523.0 0.0002211 4348.36768 4546.10791
4594.0 0.0002177 4347.99121 4498.00977
4488.0 0.0002228 4347.61572 4465.90137
4439.0 0.0002253 4347.24072 4444.45264
4428.0 0.0002258 4346.86621 4429.78174
4494.0 0.0002225 4346.49268 4419.36523
4579.0 0.0002184 4346.11963 4411.69678
4445.0 0.0002250 4345.74756 4405.93066
4355.0 0.0002296 4345.37598 4401.61182
4458.0 0.0002243 4345.00537 4398.52637
4504.0 0.0002220 4344.63525 4396.63135
4743.0 0.0002108 4344.26611 4397.00439
4466.0 0.0002239 4343.89795 4398.07715
4387.0 0.0002279 4343.53027 4401.28613
4465.0 0.0002240 4343.16357 4407.34180
4509.0 0.0002218 4342.79736 4416.85791
4598.0 0.0002175 4342.43213 4430.38770
4410.0 0.0002268 4342.06738 4447.92090
4448.0 0.0002248 4341.70410 4468.49561
4473.0 0.0002236 4341.34082 4489.57568
4561.0 0.0002193 4340.97900 4506.52100
4495.0 0.0002225 4340.61768 4513.75000
4473.0 0.0002236 4340.25781 4508.82031
4545.0 0.0002200 4339.89844 4495.00342
4452.0 0.0002246 4339.53955 4478.48291
4522.0 0.0002211 4339.18213 4463.66113
4544.0 0.0002201 4338.82520 4453.84521
4427.0 0.0002259 4338.46924 4451.08008
4489.0 0.0002228 4338.11426 4457.41309
4489.0 0.0002228 4337.76025 4475.20752
4347.0 0.0002300 4337.40723 4507.58398
4701.0 0.0002127 4337.05518 4558.07178
4562.0 0.0002192 4336.70361 4629.61914
4704.0 0.0002126 4336.35352 4722.95996
4746.0 0.0002107 4336.00391 4834.35938
4856.0 0.0002059 4335.65527 4952.41553
4979.0 0.0002008 4335.30811 5054.30957
4934.0 0.0002027 4334.96143 5107.82764
4908.0 0.0002037 4334.61572 5089.85938
4952.0 0.0002019 4334.27100 5008.04932
4748.0 0.0002106 4333.92773 4892.95410
4949.0 0.0002021 4333.58496 4773.56250
4686.0 0.0002134 4333.24316 4667.07129
4520.0 0.0002212 4332.90234 4580.51855
4518.0 0.0002213 4332.56299 4515.04199
4419.0 0.0002263 4332.22412 4468.14746
4465.0 0.0002240 4331.88623 4435.88867
4408.0 0.0002269 4331.54980 4414.06250
4322.0 0.0002314 4331.21436 4399.17236
4310.0 0.0002320 4330.87988 4388.68604
4341.0 0.0002304 4330.54639 4380.95215
4485.0 0.0002230 4330.21338 4374.97314
4443.0 0.0002251 4329.88232 4370.17090
4385.0 0.0002281 4329.55176 4366.20996
4266.0 0.0002344 4329.22217 4362.88477
4353.0 0.0002297 4328.89404 4360.06201
4352.0 0.0002298 4328.56689 4357.64600
4292.0 0.0002330 4328.24072 4355.56934
4368.0 0.0002289 4327.91504 4353.77734
4354.0 0.0002297 4327.59131 4352.23096
4393.0 0.0002276 4327.26807 4350.89600
4455.0 0.0002245 4326.94629 4349.74854
4347.0 0.0002300 4326.62500 4346.60693
4352.0 0.0002298 4326.30566 4345.84229
4266.0 0.0002344 4325.98682 4345.22021
4403.0 0.0002271 4325.66895 4344.73047
4494.0 0.0002225 4325.35254 4345.83105
4368.0 0.0002289 4325.03711 4345.63623
4282.0 0.0002335 4324.72266 4345.57471
4327.0 0.0002311 4324.40918 4345.64990
4389.0 0.0002278 4324.09717 4345.87158
4557.0 0.0002194 4323.78613 4346.24902
4360.0 0.0002294 4323.47607 4346.80078
4404.0 0.0002271 4323.16699 4347.54785
4403.0 0.0002271 4322.85938 4348.51514
4340.0 0.0002304 4322.55225 4349.74072
4406.0 0.0002270 4322.24658 4351.26904
4333.0 0.0002308 4321.94238 4353.15869
4386.0 0.0002280 4321.63867 4355.49023
4410.0 0.0002268 4321.33643 4358.37988
4292.0 0.0002330 4321.03516 4361.99561
4361.0 0.0002293 4320.73486 4366.61914
4415.0 0.0002265 4320.43604 4372.72363
4435.0 0.0002255 4320.13770 4381.12012
4380.0 0.0002283 4319.84131 4393.14795
4319.0 0.0002315 4319.54541 4410.86523
4582.0 0.0002182 4319.25049 4437.13623
4420.0 0.0002262 4318.95703 4475.44775
4519.0 0.0002213 4318.66455 4529.30615
4558.0 0.0002194 4318.37305 4601.15527
4768.0 0.0002097 4318.08301 4690.85938
4790.0 0.0002088 4317.79346 4793.63379
4809.0 0.0002079 4317.50537 4897.10107
4888.0 0.0002046 4317.21826 4978.86084
4998.0 0.0002001 4316.93213 5012.10645
4882.0 0.0002048 4316.64746 4984.34619
5042.0 0.0001983 4316.36377 4909.15283
4784.0 0.0002090 4316.08105 4812.61670
4631.0 0.0002159 4315.79932 4716.35303
4599.0 0.0002174 4315.51855 4633.50684
4632.0 0.0002159 4315.23926 4570.51807
4608.0 0.0002170 4314.96045 4529.00098
4434.0 0.0002255 4314.68311 4507.33789
4441.0 0.0002252 4314.40674 4501.86816
4454.0 0.0002245 4314.13135 4507.30957
4407.0 0.0002269 4313.85742 4517.41211
4617.0 0.0002166 4313.58398 4523.84033
4449.0 0.0002248 4313.31201 4519.30664
4438.0 0.0002253 4313.04053 4502.03955
4475.0 0.0002235 4312.77051 4476.50830
4375.0 0.0002286 4312.50146 4448.81738
4531.0 0.0002207 4312.23340 4423.21289
4288.0 0.0002332 4311.96631 4401.78125
4395.0 0.0002275 4311.70068 4385.15430
4288.0 0.0002332 4311.43555 4373.12500
4382.0 0.0002282 4311.17139 4365.07715
4467.0 0.0002239 4310.90820 4360.32520
4325.0 0.0002312 4310.64648 4358.48291
4324.0 0.0002313 4310.38525 4358.96191
4253.0 0.0002351 4310.12500 4361.79590
4295.0 0.0002328 4309.86621 4365.85107
4385.0 0.0002281 4309.60791 4373.10986
4375.0 0.0002286 4309.35059 4381.91455
4394.0 0.0002276 4309.09473 4391.03418
4450.0 0.0002247 4308.83936 4398.33057
4484.0 0.0002230 4308.58496 4401.24951
4588.0 0.0002180 4308.33154 4398.58105
4492.0 0.0002226 4308.07910 4391.64258
4429.0 0.0002258 4307.82764 4382.97461
4357.0 0.0002295 4307.57666 4374.70850
4344.0 0.0002302 4307.32715 4368.03809
4526.0 0.0002209 4307.07813 4363.47607
4327.0 0.0002311 4306.83008 4361.12793
4312.0 0.0002319 4306.58301 4360.88916
4371.0 0.0002288 4306.33691 4362.60742
4301.0 0.0002325 4306.09180 4366.22510
4361.0 0.0002293 4305.84717 4371.91406
4295.0 0.0002328 4305.60352 4380.23438
4395.0 0.0002275 4305.36084 4392.33350
4427.0 0.0002259 4305.11865 4410.20752
4405.0 0.0002270 4304.87744 4436.92627
4532.0 0.0002207 4304.63721 4476.68994
4490.0 0.0002227 4304.39795 4534.46387
4530.0 0.0002208 4304.15918 4615.01318
4651.0 0.0002150 4303.92090 4721.30615
4964.0 0.0002015 4303.68408 4852.39209
5130.0 0.0001949 4303.44727 5000.14990
5084.0 0.0001967 4303.21191 5145.51270
5286.0 0.0001892 4302.97705 5255.24414
5324.0 0.0001878 4302.74268 5291.39404
5182.0 0.0001930 4302.50928 5238.14453
5172.0 0.0001933 4302.27637 5117.67041
4916.0 0.0002034 4302.04443 4968.84180
4783.0 0.0002091 4301.81299 4822.33057
4668.0 0.0002142 4301.58252 4694.77881
4553.0 0.0002196 4301.35254 4592.55225
4645.0 0.0002153 4301.12354 4515.70215
4433.0 0.0002256 4300.89453 4460.75879
4380.0 0.0002283 4300.66650 4422.79492
4498.0 0.0002223 4300.43945 4396.92285
4339.0 0.0002305 4300.21240 4379.11230
4445.0 0.0002250 4299.98633 4366.45996
4398.0 0.0002274 4299.76074 4357.06494
4356.0 0.0002296 4299.53564 4349.77148
4299.0 0.0002326 4299.31152 4343.90479
4311.0 0.0002320 4299.08789 4339.06348
4474.0 0.0002235 4298.86426 4335.01270
4222.0 0.0002369 4298.64160 4331.59863
4215.0 0.0002372 4298.41943 4328.72217
4388.0 0.0002279 4298.19775 4326.34229
4400.0 0.0002273 4297.97656 4324.35400
4483.0 0.0002231 4297.75586 4322.73877
4336.0 0.0002306 4297.53564 4321.44141
4368.0 0.0002289 4297.31592 4320.38867
4209.0 0.0002376 4297.09668 4319.46777
4341.0 0.0002304 4296.87793 4318.52148
4304.0 0.0002323 4296.65918 4317.41260
4257.0 0.0002349 4296.44141 4315.17188
4325.0 0.0002312 4296.22363 4313.81201
4309.0 0.0002321 4296.00635 4312.53076
4202.0 0.0002380 4295.78955 4311.30078
4256.0 0.0002350 4295.57324 4310.28906
4257.0 0.0002349 4295.35742 4309.46631
4248.0 0.0002354 4295.14160 4308.82959
4220.0 0.0002370 4294.92578 4308.37354
4282.0 0.0002335 4294.71094 4308.45947
4230.0 0.0002364 4294.49609 4308.36084
4269.0 0.0002342 4294.28125 4308.46533
4344.0 0.0002302 4294.06738 4308.82910
4355.0 0.0002296 4293.85303 4309.55664
4251.0 0.0002352 4293.63965 4310.60449
4428.0 0.0002258 4293.42578 4312.71240
4224.0 0.0002367 4293.21240 4316.03027
4320.0 0.0002315 4292.99951 4321.01416
4265.0 0.0002345 4292.78662 4328.11865
4274.0 0.0002340 4292.57373 4337.65039
4588.0 0.0002180 4292.36133 4349.58496
4321.0 0.0002314 4292.14893 4363.30469
4308.0 0.0002321 4291.93652 4377.23730
4408.0 0.0002269 4291.72461 4388.52295
4422.0 0.0002261 4291.51221 4393.56152
4391.0 0.0002277 4291.30029 4390.31250
4388.0 0.0002279 4291.08838 4380.21875
4324.0 0.0002313 4290.87646 4366.86475
4232.0 0.0002363 4290.66504 4353.44727
4211.0 0.0002375 4290.45313 4341.83740
4358.0 0.0002295 4290.24170 4332.81885
4383.0 0.0002282 4290.02979 4326.43506
4265.0 0.0002345 4289.81787 4322.12500
4348.0 0.0002300 4289.60645 4319.28857
4272.0 0.0002341 4289.39453 4316.95459
4422.0 0.0002261 4289.18311 4314.56885
4268.0 0.0002343 4288.97119 4312.07471
4328.0 0.0002311 4288.75928 4309.70264
4309.0 0.0002321 4288.54736 4307.67773
4329.0 0.0002310 4288.33496 4306.13037
4519.0 0.0002213 4288.12256 4305.11768
4283.0 0.0002335 4287.91016 4304.67236
4345.0 0.0002301 4287.69775 4304.83594
4301.0 0.0002325 4287.48535 4305.71777
4297.0 0.0002327 4287.27246 4307.53027
4465.0 0.0002240 4287.05908 4310.57568
4180.0 0.0002392 4286.84619 4315.22900
4264.0 0.0002345 4286.63232 4321.87207
4297.0 0.0002327 4286.41895 4330.80908
4371.0 0.0002288 4286.20508 4342.09131
4476.0 0.0002234 4285.99072 4355.26514
4494.0 0.0002225 4285.77637 4369.09082
4329.0 0.0002310 4285.56152 4381.63916
4323.0 0.0002313 4285.34619 4391.19238
4304.0 0.0002323 4285.13086 4396.49316
4555.0 0.0002195 4284.91504 4396.54541
4391.0 0.0002277 4284.69922 4388.86963
4365.0 0.0002291 4284.48242 4377.01563
4318.0 0.0002316 4284.26563 4362.08643
4270.0 0.0002342 4284.04834 4346.94043
4451.0 0.0002247 4283.83105 4333.41504
4320.0 0.0002315 4283.61279 4322.31201
4348.0 0.0002300 4283.39453 4313.75635
4337.0 0.0002306 4283.17578 4307.50635
4378.0 0.0002284 4282.95605 4303.15479
4534.0 0.0002206 4282.73633 4300.27148
4327.0 0.0002311 4282.51611 4298.48633
4245.0 0.0002356 4282.29492 4297.54395
4219.0 0.0002370 4282.07373 4297.29639
4271.0 0.0002341 4281.85205 4297.69043
4448.0 0.0002248 4281.62939 4298.71338
4318.0 0.0002316 4281.40625 4300.36182
4207.0 0.0002377 4281.18311 4302.58350
4316.0 0.0002317 4280.95850 4305.22314
4324.0 0.0002313 4280.73389 4307.95654
4488.0 0.0002228 4280.50879 4310.25488
4198.0 0.0002382 4280.28271 4311.58252
4262.0 0.0002346 4280.05615 4311.83887
4306.0 0.0002322 4279.82861 4311.61279
4303.0 0.0002324 4279.60059 4311.61084
4394.0 0.0002276 4279.37207 4312.62744
4288.0 0.0002332 4279.14307 4315.25146
4253.0 0.0002351 4278.91260 4319.98975
4383.0 0.0002282 4278.68213 4327.31885
4395.0 0.0002275 4278.45068 4337.70752
4445.0 0.0002250 4278.21826 4351.48926
4357.0 0.0002295 4277.98535 4368.84082
4322.0 0.0002314 4277.75146 4389.98779
4475.0 0.0002235 4277.51709 4415.32910
4474.0 0.0002235 4277.28174 4444.72510
4519.0 0.0002213 4277.04541 4476.14697
4461.0 0.0002242 4276.80859 4504.44336
4581.0 0.0002183 4276.57080 4521.46631
4546.0 0.0002200 4276.33203 4519.91309
4630.0 0.0002160 4276.09277 4499.37500
4530.0 0.0002208 4275.85254 4466.73340
4521.0 0.0002212 4275.61133 4430.37891
4383.0 0.0002282 4275.36914 4396.11133
4378.0 0.0002284 4275.12598 4366.86328
4259.0 0.0002348 4274.88184 4343.59668
4455.0 0.0002245 4274.63721 4326.08740
4268.0 0.0002343 4274.39111 4313.45605
4182.0 0.0002391 4274.14453 4304.58350
4161.0 0.0002403 4273.89648 4298.38965
4327.0 0.0002311 4273.64795 4294.00098
4377.0 0.0002285 4273.39795 4290.83545
4245.0 0.0002356 4273.14746 4288.36816
4284.0 0.0002334 4272.89551 4286.24902
4272.0 0.0002341 4272.64307 4284.61963
4313.0 0.0002319 4272.38916 4283.26465
4274.0 0.0002340 4272.13428 4282.06934
4159.0 0.0002404 4271.87842 4281.02490
4392.0 0.0002277 4271.62158 4280.10352
4240.0 0.0002358 4271.36377 4279.28662
4207.0 0.0002377 4271.10449 4278.55615
4365.0 0.0002291 4270.84424 4277.90479
4319.0 0.0002315 4270.58301 4277.32373
4298.0 0.0002327 4270.32080 4276.78711
4387.0 0.0002279 4270.05713 4276.32764
4254.0 0.0002351 4269.79248 4275.92627
4408.0 0.0002269 4269.52637 4275.58398
4169.0 0.0002399 4269.25977 4275.54053
4222.0 0.0002369 4268.99170 4275.33545
4259.0 0.0002348 4268.72217 4275.21973
4141.0 0.0002415 4268.45166 4275.22021
4422.0 0.0002261 4268.18018 4275.39063
4270.0 0.0002342 4267.90723 4275.81201
4348.0 0.0002300 4267.63330 4276.61035
4422.0 0.0002261 4267.35791 4277.95361
4327.0 0.0002311 4267.08154 4280.04297
4301.0 0.0002325 4266.80371 4283.07715
4311.0 0.0002320 4266.52490 4287.19824
4312.0 0.0002319 4266.24463 4292.41113
4188.0 0.0002388 4265.96289 4298.48535
4339.0 0.0002305 4265.68018 4304.79932
4423.0 0.0002261 4265.39600 4310.11621
4210.0 0.0002375 4265.11084 4312.98193
4333.0 0.0002308 4264.82422 4312.14160
4291.0 0.0002330 4264.53662 4307.82031
4248.0 0.0002354 4264.24707 4301.33447
4441.0 0.0002252 4263.95654 4294.43506
4292.0 0.0002330 4263.66455 4288.01025
4299.0 0.0002326 4263.37158 4282.55127
4165.0 0.0002401 4263.07715 4278.21387
4207.0 0.0002377 4262.78125 4274.94482
4367.0 0.0002290 4262.48389 4272.58594
4244.0 0.0002356 4262.18555 4270.93994
4364.0 0.0002291 4261.88574 4269.82178
4155.0 0.0002407 4261.58447 4269.10254
4241.0 0.0002358 4261.28174 4268.70215
4384.0 0.0002281 4260.97803 4268.60791
4148.0 0.0002411 4260.67236 4268.86572
4290.0 0.0002331 4260.36572 4269.57129
4304.0 0.0002323 4260.05762 4270.86426
4169.0 0.0002399 4259.74805 4272.89404
4490.0 0.0002227 4259.43701 4275.78564
4280.0 0.0002336 4259.12451 4279.57275
4239.0 0.0002359 4258.81104 4284.13086
4222.0 0.0002369 4258.49561 4289.06494
4199.0 0.0002382 4258.17920 4293.56152
4306.0 0.0002322 4257.86084 4296.47119
4401.0 0.0002272 4257.54150 4296.63770
4286.0 0.0002333 4257.22070 4293.86572
4232.0 0.0002363 4256.89844 4290.09717
4280.0 0.0002336 4256.57471 4284.57227
4391.0 0.0002277 4256.24951 4279.22314
4274.0 0.0002340 4255.92285 4274.55176
4234.0 0.0002362 4255.59473 4270.75537
4157.0 0.0002406 4255.26514 4267.83496
4161.0 0.0002403 4254.93408 4265.65088
4455.0 0.0002245 4254.60156 4264.12109
4232.0 0.0002363 4254.26758 4263.05518
4268.0 0.0002343 4253.93213 4262.32080
4250.0 0.0002353 4253.59521 4261.82666
4287.0 0.0002333 4253.25684 4261.51270
4459.0 0.0002243 4252.91699 4261.35498
4316.0 0.0002317 4252.57568 4261.19189
4164.0 0.0002402 4252.23291 4261.39209
4261.0 0.0002347 4251.88818 4261.84131
4262.0 0.0002346 4251.54248 4262.63818
4334.0 0.0002307 4251.19531 4263.92139
4157.0 0.0002406 4250.84668 4265.86426
4291.0 0.0002330 4250.49658 4268.64941
4275.0 0.0002339 4250.14453 4272.44092
4237.0 0.0002360 4249.79150 4277.31885
4382.0 0.0002282 4249.43701 4283.20117
4211.0 0.0002375 4249.08057 4289.72754
4367.0 0.0002290 4248.72314 4296.11816
4399.0 0.0002273 4248.36377 4301.22559
4236.0 0.0002361 4248.00293 4304.05908
4274.0 0.0002340 4247.64111 4304.43408
4141.0 0.0002415 4247.27734 4302.83301
4289.0 0.0002332 4246.91211 4299.84863
4303.0 0.0002324 4246.54541 4296.16895
4347.0 0.0002300 4246.17725 4292.78857
4336.0 0.0002306 4245.80762 4290.84619
4105.0 0.0002436 4245.43652 4291.35596
4242.0 0.0002357 4245.06396 4295.13965
4192.0 0.0002385 4244.68994 4302.79590
4311.0 0.0002320 4244.31445 4314.59961
4467.0 0.0002239 4243.93750 4330.33301
4404.0 0.0002271 4243.55908 4349.00049
4298.0 0.0002327 4243.17871 4368.40771
4282.0 0.0002335 4242.79736 4384.73242
4300.0 0.0002326 4242.41455 4393.04639
4355.0 0.0002296 4242.02979 4389.96387
4250.0 0.0002353 4241.64404 4376.44482
4335.0 0.0002307 4241.25684 4356.87598
4413.0 0.0002266 4240.86768 4335.80469
4256.0 0.0002350 4240.47754 4316.20898
4448.0 0.0002248 4240.08545 4299.56250
4337.0 0.0002306 4239.69238 4286.33447
4296.0 0.0002328 4239.29785 4276.37012
4124.0 0.0002425 4238.90137 4273.23682
4184.0 0.0002390 4238.50391 4268.30762
4440.0 0.0002252 4238.10498 4264.95020
4217.0 0.0002371 4237.70410 4262.68359
4204.0 0.0002379 4237.30225 4261.15381
4195.0 0.0002384 4236.89893 4260.12988
4124.0 0.0002425 4236.49414 4259.39697
4270.0 0.0002342 4236.08740 4259.02246
4258.0 0.0002349 4235.67969 4258.88721
4179.0 0.0002393 4235.27100 4258.96973
4297.0 0.0002327 4234.86035 4259.27051
4148.0 0.0002411 4234.44824 4259.78369
4266.0 0.0002344 4234.03467 4260.52930
4245.0 0.0002356 4233.62012 4261.52734
4253.0 0.0002351 4233.20361 4262.81348
4282.0 0.0002335 4232.78613 4264.43164
4148.0 0.0002411 4232.36719 4266.44678
4304.0 0.0002323 4231.94678 4268.95410
4297.0 0.0002327 4231.52490 4272.09668
4282.0 0.0002335 4231.10205 4276.10938
4158.0 0.0002405 4230.67725 4281.37646
4272.0 0.0002341 4230.25146 4288.52637
4411.0 0.0002267 4229.82422 4298.55322
4319.0 0.0002315 4229.39551 4312.92822
4307.0 0.0002322 4228.96582 4333.64600
4281.0 0.0002336 4228.53418 4363.12158
4455.0 0.0002245 4228.10156 4403.84863
4592.0 0.0002178 4227.66797 4457.79980
4424.0 0.0002260 4227.23242 4527.24805
4584.0 0.0002182 4226.79590 4607.03418
4707.0 0.0002124 4226.35791 4692.90137
4742.0 0.0002109 4225.91846 4772.91211
4991.0 0.0002004 4225.47803 4828.94531
4779.0 0.0002092 4225.03613 4842.84961
4860.0 0.0002058 4224.59326 4809.69482
4933.0 0.0002027 4224.14844 4742.25098
4678.0 0.0002138 4223.70313 4660.36816
4703.0 0.0002126 4223.25586 4579.94775
4453.0 0.0002246 4222.80762 4510.29688
4396.0 0.0002275 4222.35791 4455.72363
4370.0 0.0002288 4221.90723 4417.30078
4244.0 0.0002356 4221.45557 4394.03174
4471.0 0.0002237 4221.00244 4383.65771
4369.0 0.0002289 4220.54785 4383.14844
4354.0 0.0002297 4220.09229 4388.84912
4273.0 0.0002340 4219.63525 4396.31201
4365.0 0.0002291 4219.17725 4400.42773
4422.0 0.0002261 4218.71826 4397.01758
4277.0 0.0002338 4218.25732 4385.30518
4380.0 0.0002283 4217.79590 4368.05322
4346.0 0.0002301 4217.33350 4349.05078
4357.0 0.0002295 4216.86914 4331.11377
4435.0 0.0002255 4216.40430 4315.74658
4320.0 0.0002315 4215.93799 4303.55273
4202.0 0.0002380 4215.47070 4294.54395
4319.0 0.0002315 4215.00195 4288.38721
4295.0 0.0002328 4214.53223 4284.60400
4432.0 0.0002256 4214.06152 4282.70215
4238.0 0.0002360 4213.58984 4282.26318
4201.0 0.0002380 4213.11670 4282.93652
4189.0 0.0002387 4212.64258 4284.64209
4200.0 0.0002381 4212.16748 4287.24268
4382.0 0.0002282 4211.69141 4290.68994
4293.0 0.0002329 4211.21387 4295.10107
4336.0 0.0002306 4210.73584 4300.54883
4231.0 0.0002364 4210.25635 4307.19238
4376.0 0.0002285 4209.77588 4315.26367
4413.0 0.0002266 4209.29443 4325.09570
4312.0 0.0002319 4208.81201 4337.19971
4227.0 0.0002366 4208.32861 4352.38770
4392.0 0.0002277 4207.84424 4371.99316
4342.0 0.0002303 4207.35840 4398.19385
4639.0 0.0002156 4206.87207 4434.44092
4378.0 0.0002284 4206.38477 4485.88477
4579.0 0.0002184 4205.89648 4559.37305
4562.0 0.0002192 4205.40723 4664.17432
4614.0 0.0002167 4204.91699 4809.47510
5048.0 0.0001981 4204.42578 5003.37549
5127.0 0.0001950 4203.93359 5249.73877
5536.0 0.0001806 4203.44043 5544.43359
5880.0 0.0001701 4202.94629 5870.18164
6059.0 0.0001650 4202.45166 6189.48926
6443.0 0.0001552 4201.95557 6439.91895
6575.0 0.0001521 4201.45898 6548.35303
6688.0 0.0001495 4200.96191 6475.17090
6313.0 0.0001584 4200.46338 6248.00244
6065.0 0.0001649 4199.96387 5937.56689
5751.0 0.0001739 4199.46387 5610.54541
5310.0 0.0001883 4198.96289 5309.25244
5033.0 0.0001987 4198.46143 5054.34473
4828.0 0.0002071 4197.95850 4852.08301
4587.0 0.0002180 4197.45508 4699.84131
4676.0 0.0002139 4196.95117 4590.08398
4507.0 0.0002219 4196.44629 4513.46094
4468.0 0.0002238 4195.94043 4461.05420
4433.0 0.0002256 4195.43408 4425.79736
4366.0 0.0002290 4194.92676 4402.18066
4565.0 0.0002191 4194.41895 4387.10449
4279.0 0.0002337 4193.90967 4378.90088
4489.0 0.0002228 4193.40039 4377.21631
4373.0 0.0002287 4192.89063 4382.84570
4396.0 0.0002275 4192.37939 4397.63818
4554.0 0.0002196 4191.86768 4424.36719
4437.0 0.0002254 4191.35547 4466.40430
4496.0 0.0002224 4190.84277 4527.09619
4482.0 0.0002231 4190.32861 4608.78223
4746.0 0.0002107 4189.81445 4711.50439
4924.0 0.0002031 4189.29932 4831.31348
4938.0 0.0002025 4188.78369 4957.90039
5034.0 0.0001986 4188.26758 5071.81885
5129.0 0.0001950 4187.75049 5145.06885
5182.0 0.0001930 4187.23340 5154.85254
5202.0 0.0001922 4186.71484 5092.48096
5094.0 0.0001963 4186.19629 4981.08154
4761.0 0.0002100 4185.67676 4849.50879
4654.0 0.0002149 4185.15723 4719.92432
4580.0 0.0002183 4184.63623 4603.82666
4651.0 0.0002150 4184.11523 4508.58447
4414.0 0.0002266 4183.59375 4433.91504
4360.0 0.0002294 4183.07178 4377.85303
4313.0 0.0002319 4182.54932 4337.07617
4374.0 0.0002286 4182.02588 4307.91699
4356.0 0.0002296 4181.50195 4287.06250
4198.0 0.0002382 4180.97754 4271.88672
4279.0 0.0002337 4180.45313 4260.50488
4237.0 0.0002360 4179.92773 4251.67334
4200.0 0.0002381 4179.40186 4244.60645
4265.0 0.0002345 4178.87598 4238.83105
4226.0 0.0002366 4178.34912 4234.05273
4268.0 0.0002343 4177.82227 4230.08105
4293.0 0.0002329 4177.29443 4226.55762
4154.0 0.0002407 4176.76660 4223.76514
4385.0 0.0002281 4176.23779 4221.33545
4127.0 0.0002423 4175.70898 4219.07666
4148.0 0.0002411 4175.17969 4216.79492
4107.0 0.0002435 4174.65039 4214.38916
4242.0 0.0002357 4174.12012 4211.90967
4286.0 0.0002333 4173.58936 4209.49365
4164.0 0.0002402 4173.05859 4207.27295
4099.0 0.0002440 4172.52734 4205.32275
4217.0 0.0002371 4171.99561 4203.66748
4246.0 0.0002355 4171.46387 4202.28906
4317.0 0.0002316 4170.93164 4201.12500
4098.0 0.0002440 4170.39893 4200.07422
4310.0 0.0002320 4169.86572 4199.00879
4217.0 0.0002371 4169.33252 4197.83301
4171.0 0.0002398 4168.79883 4196.54199
4163.0 0.0002402 4168.26514 4195.21045
4183.0 0.0002391 4167.73047 4193.92334
4223.0 0.0002368 4167.19629 4192.74121
4164.0 0.0002402 4166.66113 4191.69531
4099.0 0.0002440 4166.12598 4190.79688
4278.0 0.0002338 4165.59082 4192.30566
4046.0 0.0002472 4165.05469 4191.75000
4284.0 0.0002334 4164.51904 4191.32861
4105.0 0.0002436 4163.98291 4191.02832
4147.0 0.0002411 4163.44629 4190.84717
4253.0 0.0002351 4162.90967 4190.77930
4209.0 0.0002376 4162.37256 4190.83154
4084.0 0.0002449 4161.83545 4191.00684
4136.0 0.0002418 4161.29834 4191.31689
4260.0 0.0002347 4160.76074 4191.77734
4278.0 0.0002338 4160.22266 4192.41211
4384.0 0.0002281 4159.68506 4193.25391
4160.0 0.0002404 4159.14648 4194.35107
4223.0 0.0002368 4158.60840 4196.99658
4146.0 0.0002412 4158.06982 4194.82373
4358.0 0.0002295 4157.53125 4197.43799
4214.0 0.0002373 4156.99219 4200.97461
4246.0 0.0002355 4156.45313 4205.60498
4258.0 0.0002349 4155.91406 4211.77197
4166.0 0.0002400 4155.37451 4219.85205
4258.0 0.0002349 4154.83496 4230.16260
4245.0 0.0002356 4154.29541 4242.83691
4268.0 0.0002343 4153.75586 4257.69971
4202.0 0.0002380 4153.21582 4274.06787
4264.0 0.0002345 4152.67578 4290.50049
4335.0 0.0002307 4152.13574 4304.73242
4286.0 0.0002333 4151.59521 4314.81152
4295.0 0.0002328 4151.05518 4319.06396
4372.0 0.0002287 4150.51465 4319.80615
4222.0 0.0002369 4149.97412 4320.68750
4408.0 0.0002269 4149.43359 4325.68018
4332.0 0.0002308 4148.89258 4338.65332
4432.0 0.0002256 4148.35205 4363.64258
4373.0 0.0002287 4147.81104 4405.09668
4429.0 0.0002258 4147.27002 4467.70215
4484.0 0.0002230 4146.72900 4555.76953
4624.0 0.0002163 4146.18799 4672.11084
4698.0 0.0002129 4145.64648 4816.50049
4822.0 0.0002074 4145.10547 4983.60693
5130.0 0.0001949 4144.56445 5160.04883
5515.0 0.0001813 4144.02295 5320.87109
5462.0 0.0001831 4143.48193 5429.87988
5413.0 0.0001847 4142.94043 5451.30371
5290.0 0.0001890 4142.39893 5379.89600
5206.0 0.0001921 4141.85742 5238.26172
5229.0 0.0001912 4141.31592 5064.19336
4972.0 0.0002011 4140.77441 4888.62402
4792.0 0.0002087 4140.23291 4730.01123
4583.0 0.0002182 4139.69189 4596.91943
4423.0 0.0002261 4139.14990 4491.45313
4491.0 0.0002227 4138.60840 4411.71631
4388.0 0.0002279 4138.06689 4353.65430
4384.0 0.0002281 4137.52539 4312.46826
4356.0 0.0002296 4136.98389 4283.61133
4267.0 0.0002344 4136.44238 4263.34277
4449.0 0.0002248 4135.90088 4248.88525
4224.0 0.0002367 4135.35938 4238.34180
4305.0 0.0002323 4134.81787 4230.49512
4315.0 0.0002317 4134.27637 4224.59619
4268.0 0.0002343 4133.73486 4220.20215
4352.0 0.0002298 4133.19336 4217.03906
4203.0 0.0002379 4132.65186 4214.95850
4334.0 0.0002307 4132.11035 4213.86914
4146.0 0.0002412 4131.56885 4213.73779
4196.0 0.0002383 4131.02783 4214.56982
4319.0 0.0002315 4130.48633 4216.41064
4185.0 0.0002389 4129.94531 4219.38428
4264.0 0.0002345 4129.40381 4223.67139
4226.0 0.0002366 4128.86279 4229.59082
4236.0 0.0002361 4128.32129 4237.67188
4365.0 0.0002291 4127.78027 4248.78467
4230.0 0.0002364 4127.23926 4264.30127
4297.0 0.0002327 4126.69824 4286.29492
4320.0 0.0002315 4126.15723 4317.66553
4339.0 0.0002305 4125.61621 4362.13525
4561.0 0.0002193 4125.07520 4423.95166
4468.0 0.0002238 4124.53418 4507.26563
4462.0 0.0002241 4123.99365 4615.05664
4659.0 0.0002146 4123.45264 4747.78271
4793.0 0.0002086 4122.91211 4901.54102
5224.0 0.0001914 4122.37109 5065.61523
5212.0 0.0001919 4121.83057 5219.42773
5212.0 0.0001919 4121.29053 5331.71191
5452.0 0.0001834 4120.74951 5370.99268
5218.0 0.0001916 4120.20947 5325.81250
5337.0 0.0001874 4119.66895 5214.88135
5121.0 0.0001953 4119.12842 5072.81543
4896.0 0.0002042 4118.58838 4930.81201
4844.0 0.0002064 4118.04834 4809.53564
4668.0 0.0002142 4117.50781 4720.52002
4742.0 0.0002109 4116.96777 4668.83643
4505.0 0.0002220 4116.42773 4654.81299
4566.0 0.0002190 4115.88770 4674.89990
4699.0 0.0002128 4115.34814 4721.91602
4705.0 0.0002125 4114.80811 4784.49658
4958.0 0.0002017 4114.26855 4846.07031
4923.0 0.0002031 4113.72852 4885.97559
4944.0 0.0002023 4113.18896 4886.84326
4900.0 0.0002041 4112.64941 4845.24951
4727.0 0.0002116 4112.10986 4773.13330
4924.0 0.0002031 4111.57031 4688.16943
4652.0 0.0002150 4111.03076 4605.30078
4531.0 0.0002207 4110.49170 4534.39307
4358.0 0.0002295 4109.95215 4480.71436
4454.0 0.0002245 4109.41309 4445.81836
4488.0 0.0002228 4108.87354 4428.28223
4402.0 0.0002272 4108.33447 4424.15723
4337.0 0.0002306 4107.79590 4427.13086
4492.0 0.0002226 4107.25635 4428.93555
4319.0 0.0002315 4106.71777 4421.34375
4582.0 0.0002182 4106.17871 4400.81348
4287.0 0.0002333 4105.63965 4369.39404
4307.0 0.0002322 4105.10107 4332.68262
4349.0 0.0002299 4104.56250 4295.87207
4259.0 0.0002348 4104.02344 4262.23730
4375.0 0.0002286 4103.48486 4233.34814
4146.0 0.0002412 4102.94629 4209.61816
4185.0 0.0002389 4102.40771 4190.74170
4193.0 0.0002385 4101.86914 4176.04492
4095.0 0.0002442 4101.33057 4164.84033
4234.0 0.0002362 4100.79248 4156.09766
4141.0 0.0002415 4100.25391 4149.24902
4117.0 0.0002429 4099.71582 4143.75293
4156.0 0.0002406 4099.17725 4139.22070
4133.0 0.0002420 4098.63916 4135.37891
4178.0 0.0002393 4098.10107 4129.66895
4107.0 0.0002435 4097.56299 4126.78271
4049.0 0.0002470 4097.02490 4124.20459
4159.0 0.0002404 4096.48633 4121.87256
4117.0 0.0002429 4095.94849 4119.94824
4183.0 0.0002391 4095.41040 4117.99854
4147.0 0.0002411 4094.87256 4116.19531
4141.0 0.0002415 4094.33472 4114.52246
4098.0 0.0002440 4093.79663 4112.95850
4116.0 0.0002430 4093.25879 4111.49463
4245.0 0.0002356 4092.72070 4110.11816
4120.0 0.0002427 4092.18311 4108.82031
4080.0 0.0002451 4091.64502 4107.59424
4108.0 0.0002434 4091.10742 4106.43262
4071.0 0.0002456 4090.56958 4105.33154
4208.0 0.0002376 4090.03174 4104.28809
4053.0 0.0002467 4089.49414 4103.29688
4034.0 0.0002479 4088.95630 4102.35791
4084.0 0.0002449 4088.41870 4101.46924
4099.0 0.0002440 4087.88086 4100.63086
4189.0 0.0002387 4087.34326 4099.84326
4087.0 0.0002447 4086.80566 4099.10840
4070.0 0.0002457 4086.26807 4098.43262
4039.0 0.0002476 4085.73047 4097.82373
4009.0 0.0002494 4085.19263 4097.29834
4242.0 0.0002357 4084.65503 4096.87891
4003.0 0.0002498 4084.11743 4096.60498
4120.0 0.0002427 4083.57983 4096.54102
4069.0 0.0002458 4083.04224 4096.77393
4152.0 0.0002408 4082.50464 4097.42529
4126.0 0.0002424 4081.96680 4098.64404
4051.0 0.0002469 4081.42944 4100.58740
4153.0 0.0002408 4080.89185 4103.39746
4089.0 0.0002446 4080.35400 4107.15576
3992.0 0.0002505 4079.81641 4111.83301
4185.0 0.0002389 4079.27881 4117.21484
4101.0 0.0002438 4078.74121 4122.80322
3990.0 0.0002506 4078.20337 4127.71533
4037.0 0.0002477 4077.66577 4130.72900
4084.0 0.0002449 4077.12793 4130.76172
4223.0 0.0002368 4076.59033 4127.60498
4042.0 0.0002474 4076.05298 4119.85938
4120.0 0.0002427 4075.51489 4113.34229
4071.0 0.0002456 4074.97729 4106.80518
4164.0 0.0002402 4074.43945 4101.30078
4211.0 0.0002375 4073.90186 4096.34912
4063.0 0.0002461 4073.36401 4092.43970
4090.0 0.0002445 4072.82617 4089.50708
4114.0 0.0002431 4072.28833 4087.38745
4103.0 0.0002437 4071.75049 4085.84375
4079.0 0.0002452 4071.21265 4084.60547
4134.0 0.0002419 4070.67480 4083.41675
4027.0 0.0002483 4070.13696 4082.12256
4096.0 0.0002441 4069.59888 4080.70752
4127.0 0.0002423 4069.06104 4079.24585
4069.0 0.0002458 4068.52295 4076.59888
3974.0 0.0002516 4067.98486 4075.30176
3950.0 0.0002532 4067.44702 4074.05615
4119.0 0.0002428 4066.90894 4073.01514
4202.0 0.0002380 4066.37085 4072.10059
4076.0 0.0002453 4065.83252 4071.29736
4031.0 0.0002481 4065.29468 4070.58740
3993.0 0.0002504 4064.75635 4069.95483
4137.0 0.0002417 4064.21826 4069.38379
4057.0 0.0002465 4063.67993 4068.86279
4092.0 0.0002444 4063.14160 4068.38330
4039.0 0.0002476 4062.60352 4067.94189
3988.0 0.0002508 4062.06519 4067.09155
4059.0 0.0002464 4061.52686 4066.73071
4025.0 0.0002484 4060.98828 4066.40479
4174.0 0.0002396 4060.45020 4066.11816
3963.0 0.0002523 4059.91162 4066.72998
4033.0 0.0002480 4059.37329 4066.55103
4046.0 0.0002472 4058.83472 4066.42725
4044.0 0.0002473 4058.29614 4066.36719
4125.0 0.0002424 4057.75781 4066.38232
4156.0 0.0002406 4057.21924 4066.49756
4061.0 0.0002462 4056.68066 4066.73950
3954.0 0.0002529 4056.14209 4067.15259
4109.0 0.0002434 4055.60352 4067.80542
4087.0 0.0002447 4055.06470 4068.80298
4031.0 0.0002481 4054.52612 4070.29761
4033.0 0.0002480 4053.98755 4072.49072
4021.0 0.0002487 4053.44873 4075.63672
4028.0 0.0002483 4052.91016 4080.01758
4177.0 0.0002394 4052.37134 4085.90186
3932.0 0.0002543 4051.83276 4093.48853
4117.0 0.0002429 4051.29395 4102.82227
4147.0 0.0002411 4050.75537 4113.70020
3991.0 0.0002506 4050.21631 4125.53516
4197.0 0.0002383 4049.67773 4137.18408
4171.0 0.0002398 4049.13916 4146.92627
4094.0 0.0002443 4048.60010 4153.00928
4193.0 0.0002385 4048.06152 4154.84375
4208.0 0.0002376 4047.52246 4153.73242
4112.0 0.0002432 4046.98389 4152.13086
4157.0 0.0002406 4046.44507 4152.34131
4120.0 0.0002427 4045.90625 4155.79199
4120.0 0.0002427 4045.36768 4162.89551
4192.0 0.0002385 4044.82886 4173.00781
4258.0 0.0002349 4044.29004 4184.27881
4100.0 0.0002439 4043.75122 4193.58057
4188.0 0.0002388 4043.21265 4197.16113
4067.0 0.0002459 4042.67383 4192.48486
4144.0 0.0002413 4042.13525 4179.95508
4331.0 0.0002309 4041.59668 4162.41699
4225.0 0.0002367 4041.05811 4143.15820
4167.0 0.0002400 4040.51953 4124.58936
4030.0 0.0002481 4039.98096 4108.08057
4171.0 0.0002398 4039.44238 4094.23682
4222.0 0.0002369 4038.90381 4083.15015
4007.0 0.0002496 4038.36548 4074.61841
4037.0 0.0002477 4037.82715 4068.21606
4111.0 0.0002432 4037.28882 4063.51025
4087.0 0.0002447 4036.75049 4060.07568
4260.0 0.0002347 4036.21240 4057.56030
4003.0 0.0002498 4035.67432 4055.69531
4054.0 0.0002467 4035.13599 4054.29468
4088.0 0.0002446 4034.59814 4053.23706
3963.0 0.0002523 4034.06006 4052.44824
4169.0 0.0002399 4033.52222 4051.89014
3888.0 0.0002572 4032.98438 4051.53418
3988.0 0.0002508 4032.44678 4051.37793
4070.0 0.0002457 4031.90918 4051.42651
3983.0 0.0002511 4031.37158 4051.69824
4081.0 0.0002450 4030.83423 4052.22388
4011.0 0.0002493 4030.29663 4053.05859
3987.0 0.0002508 4029.75952 4054.29126
3958.0 0.0002527 4029.22241 4056.20068
4067.0 0.0002459 4028.68530 4058.74731
4125.0 0.0002424 4028.14844 4062.40649
4164.0 0.0002402 4027.61182 4067.66528
4110.0 0.0002433 4027.07520 4075.17114
4142.0 0.0002414 4026.53857 4085.70361
4149.0 0.0002410 4026.00220 4100.10059
4159.0 0.0002404 4025.46582 4119.10986
4028.0 0.0002483 4024.92993 4143.18506
4096.0 0.0002441 4024.39380 4172.22314
4239.0 0.0002359 4023.85815 4205.22070
4137.0 0.0002417 4023.32251 4239.80078
4331.0 0.0002309 4022.78711 4271.66016
4221.0 0.0002369 4022.25195 4294.59229
4350.0 0.0002299 4021.71680 4302.40869
4275.0 0.0002339 4021.18213 4292.64551
4273.0 0.0002340 4020.64722 4268.48047
4484.0 0.0002230 4020.11279 4236.30859
4205.0 0.0002378 4019.57837 4202.17041
4069.0 0.0002458 4019.04443 4170.12207
4164.0 0.0002402 4018.51074 4142.35547
4090.0 0.0002445 4017.97681 4119.70752
4144.0 0.0002413 4017.44360 4102.35742
4115.0 0.0002430 4016.91040 4089.79248
4161.0 0.0002403 4016.37744 4081.32373
4057.0 0.0002465 4015.84473 4076.22900
4041.0 0.0002475 4015.31226 4073.94629
4063.0 0.0002461 4014.78003 4074.06812
3977.0 0.0002514 4014.24805 4076.57959
4073.0 0.0002455 4013.71655 4081.80029
4081.0 0.0002450 4013.18506 4090.44092
4022.0 0.0002486 4012.65405 4103.61279
4146.0 0.0002412 4012.12305 4122.77539
4123.0 0.0002425 4011.59277 4149.59424
4188.0 0.0002388 4011.06250 4185.65527
4166.0 0.0002400 4010.53271 4232.10156
4295.0 0.0002328 4010.00293 4289.10693
4434.0 0.0002255 4009.47388 4355.24512
4308.0 0.0002321 4008.94507 4426.61279
4471.0 0.0002237 4008.41626 4495.69336
4403.0 0.0002271 4007.88818 4550.75684
4411.0 0.0002267 4007.36011 4578.20313
4721.0 0.0002118 4006.83276 4569.39453
4448.0 0.0002248 4006.30542 4526.87451
4402.0 0.0002272 4005.77881 4462.40430
4366.0 0.0002290 4005.25244 4389.34521
4397.0 0.0002274 4004.72632 4317.67236
4329.0 0.0002310 4004.20068 4253.21240
4112.0 0.0002432 4003.67554 4198.66650
4037.0 0.0002477 4003.15088 4154.67041
4063.0 0.0002461 4002.62622 4120.54590
4107.0 0.0002435 4002.10229 4094.87085
4291.0 0.0002330 4001.57861 4075.93457
4137.0 0.0002417 4001.05566 4062.06689
4029.0 0.0002482 4000.53320 4051.83716
4086.0 0.0002447 4000.01099 4044.13208
4011.0 0.0002493 3999.48926 4038.15063
4130.0 0.0002421 3998.96777 4033.34839
4094.0 0.0002443 3998.44727 4029.37012
3992.0 0.0002505 3997.92676 4025.98804
4017.0 0.0002489 3997.40698 4023.05884
4073.0 0.0002455 3996.88770 4020.48486
4068.0 0.0002458 3996.36890 4018.07910
3999.0 0.0002501 3995.85083 4016.04028
4006.0 0.0002496 3995.33276 4014.20728
3990.0 0.0002506 3994.81567 4012.55542
3987.0 0.0002508 3994.29883 4011.06519
4100.0 0.0002439 3993.78271 4010.06226
3985.0 0.0002509 3993.26709 4008.87061
3991.0 0.0002506 3992.75195 4007.82471
4068.0 0.0002458 3992.23755 4006.93384
3923.0 0.0002549 3991.72363 4006.21509
4094.0 0.0002443 3991.21045 4005.48853
3970.0 0.0002519 3990.69751 4005.19287
3944.0 0.0002535 3990.18530 4005.14502
3872.0 0.0002583 3989.67383 4005.35645
4034.0 0.0002479 3989.16284 4005.82056
4067.0 0.0002459 3988.65234 4006.49780
4007.0 0.0002496 3988.14282 4007.29736
3997.0 0.0002502 3987.63379 4008.06055
4026.0 0.0002484 3987.12524 4008.56250
4012.0 0.0002493 3986.61743 4008.64990
4068.0 0.0002458 3986.11035 4008.13965
4085.0 0.0002448 3985.60400 4007.24585
4076.0 0.0002453 3985.09790 4006.26221
4074.0 0.0002455 3984.59277 4005.49512
4037.0 0.0002477 3984.08838 4005.20557
4106.0 0.0002435 3983.58472 4005.61841
4051.0 0.0002469 3983.08179 4006.94189
4010.0 0.0002494 3982.57910 4009.36621
3998.0 0.0002501 3982.07764 4013.06543
3975.0 0.0002516 3981.57642 4018.18286
4067.0 0.0002459 3981.07642 4024.81445
3983.0 0.0002511 3980.57666 4032.93237
4082.0 0.0002450 3980.07813 4042.25952
3935.0 0.0002541 3979.58008 4052.11182
4027.0 0.0002483 3979.08276 4061.22607
4091.0 0.0002444 3978.58643 4067.76611
3986.0 0.0002509 3978.09033 4069.84229
4067.0 0.0002459 3977.59546 4066.57910
4039.0 0.0002476 3977.10132 4058.75684
4096.0 0.0002441 3976.60791 4048.23291
4225.0 0.0002367 3976.11499 4036.87427
3988.0 0.0002508 3975.62329 4025.99902
4056.0 0.0002465 3975.13232 4016.35767
4036.0 0.0002478 3974.64185 4008.29224
4077.0 0.0002453 3974.15259 4001.87549
4211.0 0.0002375 3973.66382 3997.00635
3868.0 0.0002585 3973.17603 3993.48657
3918.0 0.0002552 3972.68896 3991.07544
3865.0 0.0002587 3972.20288 3989.52832
3936.0 0.0002541 3971.71729 3988.62061
3990.0 0.0002506 3971.23291 3987.73999
3934.0 0.0002542 3970.74951 3987.49683
3983.0 0.0002511 3970.26660 3987.30225
3860.0 0.0002591 3969.78467 3987.05347
3946.0 0.0002534 3969.30347 3986.77588
4053.0 0.0002467 3968.82349 3986.60474
3931.0 0.0002544 3968.34399 3986.69312
4036.0 0.0002478 3967.86548 3987.13721
4012.0 0.0002493 3967.38794 3987.93457
3973.0 0.0002517 3966.91138 3988.97119
4008.0 0.0002495 3966.43555 3989.99463
3880.0 0.0002577 3965.96045 3990.62988
3994.0 0.0002504 3965.48657 3990.48804
4047.0 0.0002471 3965.01343 3989.39160
4023.0 0.0002486 3964.54126 3987.48926
4151.0 0.0002409 3964.06982 3985.14307
3981.0 0.0002512 3963.59937 3982.70801
3925.0 0.0002548 3963.12988 3980.42578
3836.0 0.0002607 3962.66138 3978.41431
3895.0 0.0002567 3962.19360 3976.71118
4164.0 0.0002402 3961.72681 3975.31079
3884.0 0.0002575 3961.26123 3974.21387
4025.0 0.0002484 3960.79614 3973.43359
4047.0 0.0002471 3960.33228 3972.98633
4072.0 0.0002456 3959.86914 3972.87061
4041.0 0.0002475 3959.40723 3973.06055
3904.0 0.0002561 3958.94604 3973.49756
3934.0 0.0002542 3958.48560 3973.21362
4148.0 0.0002411 3958.02661 3973.80371
3922.0 0.0002550 3957.56812 3974.17896
4034.0 0.0002479 3957.11084 3974.15991
3964.0 0.0002523 3956.65405 3973.69336
3974.0 0.0002516 3956.19873 3972.89282
3952.0 0.0002530 3955.74438 3971.95996
3912.0 0.0002556 3955.29053 3971.08716
4120.0 0.0002427 3954.83813 3970.41577
3974.0 0.0002516 3954.38623 3970.04468
3921.0 0.0002550 3953.93555 3970.05615
3848.0 0.0002599 3953.48560 3970.53174
3949.0 0.0002532 3953.03687 3971.58569
4058.0 0.0002464 3952.58862 3973.38623
3924.0 0.0002548 3952.14185 3976.18506
3993.0 0.0002504 3951.69580 3980.33496
3927.0 0.0002546 3951.25073 3986.29492
3973.0 0.0002517 3950.80640 3994.60669
4009.0 0.0002494 3950.36328 4005.82788
3929.0 0.0002545 3949.92114 4020.43652
4032.0 0.0002480 3949.47974 4038.68726
4131.0 0.0002421 3949.03931 4060.44043
4242.0 0.0002357 3948.59985 4084.93579
4167.0 0.0002400 3948.16138 4110.48730
4068.0 0.0002458 3947.72388 4134.12744
4147.0 0.0002411 3947.28711 4151.62158
4083.0 0.0002449 3946.85132 4158.64404
4095.0 0.0002442 3946.41650 4153.13232
4212.0 0.0002374 3945.98291 4136.79053
4086.0 0.0002447 3945.54956 4113.89551
4110.0 0.0002433 3945.11768 4088.89624
3978.0 0.0002514 3944.68677 4065.04517
4029.0 0.0002482 3944.25635 4044.27734
4098.0 0.0002440 3943.82715 4027.52881
4020.0 0.0002488 3943.39868 4015.02637
3938.0 0.0002539 3942.97119 4006.50195
3957.0 0.0002527 3942.54443 4001.31396
3965.0 0.0002522 3942.11890 3998.54150
4084.0 0.0002449 3941.69385 3997.03345
3860.0 0.0002591 3941.27002 3995.52759
4058.0 0.0002464 3940.84692 3992.93896
3994.0 0.0002504 3940.42456 3988.84424
3878.0 0.0002579 3940.00317 3983.48340
4171.0 0.0002398 3939.58276 3977.49756
3937.0 0.0002540 3939.16309 3971.49902
3831.0 0.0002610 3938.74414 3965.94287
4061.0 0.0002462 3938.32617 3960.98120
4077.0 0.0002453 3937.90894 3956.73511
4023.0 0.0002486 3937.49268 3953.19702
4001.0 0.0002499 3937.07739 3950.30176
3811.0 0.0002624 3936.66260 3947.94556
3925.0 0.0002548 3936.24878 3946.03149
3900.0 0.0002564 3935.83545 3944.45215
4092.0 0.0002444 3935.42334 3943.12158
4050.0 0.0002469 3935.01147 3941.97266
3954.0 0.0002529 3934.60083 3940.95532
3956.0 0.0002528 3934.19092 3940.03467
3984.0 0.0002510 3933.78149 3939.05225
3949.0 0.0002532 3933.37305 3938.26318
3905.0 0.0002561 3932.96509 3937.52002
3913.0 0.0002556 3932.55811 3936.81470
3904.0 0.0002561 3932.15186 3936.14111
3935.0 0.0002541 3931.74634 3935.49463
3966.0 0.0002521 3931.34106 3934.87231
3836.0 0.0002607 3930.93701 3934.27100
3860.0 0.0002591 3930.53345 3933.68823
3902.0 0.0002563 3930.13037 3933.12231
3886.0 0.0002573 3929.72827 3932.57104
3940.0 0.0002538 3929.32642 3932.03369
3981.0 0.0002512 3928.92554 3931.50806
3867.0 0.0002586 3928.52515 3930.99463
3866.0 0.0002587 3928.12549 3930.49194
3878.0 0.0002579 3927.72632 3929.99976
4036.0 0.0002478 3927.32764 3929.86230
3933.0 0.0002543 3926.92969 3929.39038
3868.0 0.0002585 3926.53223 3928.94067
3965.0 0.0002522 3926.13550 3928.50610
3846.0 0.0002600 3925.73901 3928.08765
4087.0 0.0002447 3925.34326 3927.68555
3911.0 0.0002557 3924.94775 3927.30273
3939.0 0.0002539 3924.55298 3926.93896
3964.0 0.0002523 3924.15869 3926.59082
3878.0 0.0002579 3923.76489 3926.25513
4023.0 0.0002486 3923.37158 3925.89404
3861.0 0.0002590 3922.97852 3925.54956
3885.0 0.0002574 3922.58594 3925.17798
3832.0 0.0002610 3922.19385 3924.76318
3745.0 0.0002670 3921.80225 3924.30347
4098.0 0.0002440 3921.41064 3924.83105
3950.0 0.0002532 3921.01978 3924.34375
3990.0 0.0002506 3920.62915 3923.85571
3886.0 0.0002573 3920.23901 3923.37354
3776.0 0.0002648 3919.84888 3922.90967
4001.0 0.0002499 3919.45923 3922.46289
3783.0 0.0002643 3919.07007 3922.03296
3912.0 0.0002556 3918.68091 3921.61890
3954.0 0.0002529 3918.29199 3921.21899
3929.0 0.0002545 3917.90356 3920.83057
3990.0 0.0002506 3917.51514 3920.45215
3888.0 0.0002572 3917.12720 3920.08203
3834.0 0.0002608 3916.73926 3919.71851
3817.0 0.0002620 3916.35156 3919.34619
3850.0 0.0002597 3915.96387 3918.99390
4085.0 0.0002448 3915.57642 3918.64624
3983.0 0.0002511 3915.18896 3918.30298
3889.0 0.0002571 3914.80200 3917.96460
3894.0 0.0002568 3914.41479 3917.63135
3994.0 0.0002504 3914.02783 3917.30176
3949.0 0.0002532 3913.64087 3916.97754
3966.0 0.0002521 3913.25391 3916.65845
3828.0 0.0002612 3912.86694 3916.34375
3982.0 0.0002511 3912.47998 3916.03540
3954.0 0.0002529 3912.09326 3915.73267
3986.0 0.0002509 3911.70605 3915.43579
3910.0 0.0002558 3911.31909 3915.14551
3774.0 0.0002650 3910.93213 3914.86255
3876.0 0.0002580 3910.54492 3914.58740
3942.0 0.0002537 3910.15771 3914.32031
4067.0 0.0002459 3909.77026 3914.06274
3852.0 0.0002596 3909.38281 3913.81494
3937.0 0.0002540 3908.99487 3913.57837
3944.0 0.0002535 3908.60693 3913.35449
3946.0 0.0002534 3908.21875 3913.14478
3990.0 0.0002506 3907.83057 3912.95166
3806.0 0.0002627 3907.44214 3912.43726
3889.0 0.0002571 3907.05298 3912.29248
3878.0 0.0002579 3906.66406 3912.17554
3940.0 0.0002538 3906.27441 3912.09399
4084.0 0.0002449 3905.88477 3912.05737
3953.0 0.0002530 3905.49438 3912.08130
3946.0 0.0002534 3905.10400 3914.03857
3915.0 0.0002554 3904.71313 3914.29224
3911.0 0.0002557 3904.32178 3914.69360
3977.0 0.0002514 3903.93018 3915.28784
3802.0 0.0002630 3903.53784 3916.12158
3864.0 0.0002588 3903.14551 3917.24292
3815.0 0.0002621 3902.75220 3918.68628
3924.0 0.0002548 3902.35864 3920.46729
4027.0 0.0002483 3901.96436 3922.50903
3836.0 0.0002607 3901.56958 3924.86792
3914.0 0.0002555 3901.17456 3927.34424
4001.0 0.0002499 3900.77856 3929.68799
3960.0 0.0002525 3900.38208 3931.53467
4104.0 0.0002437 3899.98486 3932.49268
4005.0 0.0002497 3899.58716 3932.33813
3879.0 0.0002578 3899.18848 3931.16724
3884.0 0.0002575 3898.78931 3929.33862
3966.0 0.0002521 3898.38940 3927.26196
4109.0 0.0002434 3897.98877 3925.26392
3794.0 0.0002636 3897.58765 3923.55225
3857.0 0.0002593 3897.18530 3922.24463
3855.0 0.0002594 3896.78223 3921.39600
3942.0 0.0002537 3896.37842 3921.02393
3952.0 0.0002530 3895.97388 3921.12964
3875.0 0.0002581 3895.56812 3921.71582
3845.0 0.0002601 3895.16187 3922.80469
3959.0 0.0002526 3894.75464 3924.71729
3891.0 0.0002570 3894.34619 3927.06567
4004.0 0.0002498 3893.93701 3930.29956
3931.0 0.0002544 3893.52661 3934.70605
3952.0 0.0002530 3893.11572 3940.66235
3944.0 0.0002535 3892.70337 3948.61719
3884.0 0.0002575 3892.29028 3959.05029
4052.0 0.0002468 3891.87573 3972.40283
3919.0 0.0002552 3891.46045 3988.97754
4115.0 0.0002430 3891.04395 4008.82153
3924.0 0.0002548 3890.62646 4031.57227
4077.0 0.0002453 3890.20752 4056.25977
4054.0 0.0002467 3889.78760 4081.03931
4113.0 0.0002431 3889.36670 4103.01611
4261.0 0.0002347 3888.94434 4118.61328
4164.0 0.0002402 3888.52075 4124.98730
4095.0 0.0002442 3888.09595 4121.86475
4221.0 0.0002369 3887.66992 4112.02100
4170.0 0.0002398 3887.24268 4099.85449
4142.0 0.0002414 3886.81396 4089.70313
3965.0 0.0002522 3886.38403 4085.09253
4127.0 0.0002423 3885.95264 4088.71899
4186.0 0.0002389 3885.52026 4102.57910
4119.0 0.0002428 3885.08594 4127.97900
4052.0 0.0002468 3884.65063 4165.39941
4199.0 0.0002382 3884.21387 4214.26025
4217.0 0.0002371 3883.77539 4272.54492
4506.0 0.0002219 3883.33569 4336.23193
4410.0 0.0002268 3882.89429 4398.54834
4493.0 0.0002226 3882.45166 4449.64648
4510.0 0.0002217 3882.00732 4478.24951
4470.0 0.0002237 3881.56177 4476.30664
4720.0 0.0002119 3881.11401 4443.82666
4473.0 0.0002236 3880.66528 4388.77783
4347.0 0.0002300 3880.21484 4322.14355
4257.0 0.0002349 3879.76270 4253.33154
4231.0 0.0002364 3879.30884 4188.60791
4221.0 0.0002369 3878.85327 4131.43066
3962.0 0.0002524 3878.39648 4083.31445
3992.0 0.0002505 3877.93750 4044.42822
4070.0 0.0002457 3877.47705 4014.07959
4088.0 0.0002446 3877.01489 3991.10376
4159.0 0.0002404 3876.55103 3974.09912
3949.0 0.0002532 3876.08545 3961.74414
3993.0 0.0002504 3875.61792 3952.87695
3933.0 0.0002543 3875.14893 3946.57104
3877.0 0.0002579 3874.67773 3942.14014
4075.0 0.0002454 3874.20508 3939.10767
3874.0 0.0002581 3873.73022 3937.16406
3879.0 0.0002578 3873.25391 3936.11938
3910.0 0.0002558 3872.77563 3935.87280
3867.0 0.0002586 3872.29541 3936.38525
3965.0 0.0002522 3871.81348 3937.67065
3792.0 0.0002637 3871.32910 3939.79541
3896.0 0.0002567 3870.84351 3942.88940
3893.0 0.0002569 3870.35547 3947.47095
3954.0 0.0002529 3869.86572 3953.29956
4136.0 0.0002418 3869.37378 3961.21069
3961.0 0.0002525 3868.88013 3972.01147
4021.0 0.0002487 3868.38452 3986.84668
3983.0 0.0002511 3867.88672 4007.25488
3982.0 0.0002511 3867.38721 4035.16724
4174.0 0.0002396 3866.88525 4072.82129
3918.0 0.0002552 3866.38159 4122.54395
3968.0 0.0002520 3865.87573 4186.40186
4179.0 0.0002393 3865.36792 4265.72998
4369.0 0.0002289 3864.85791 4360.52637
4604.0 0.0002172 3864.34595 4468.72852
4400.0 0.0002273 3863.83203 4585.18604
4667.0 0.0002143 3863.31567 4700.38428
4793.0 0.0002086 3862.79736 4799.50000
4947.0 0.0002021 3862.27686 4864.02051
5043.0 0.0001983 3861.75439 4878.27002
4983.0 0.0002007 3861.22949 4838.23291
4808.0 0.0002080 3860.70288 4754.24072
4677.0 0.0002138 3860.17383 4644.40186
4492.0 0.0002226 3859.64258 4526.01514
4575.0 0.0002186 3859.10938 4411.42969
4347.0 0.0002300 3858.57373 4307.97705
4075.0 0.0002454 3858.03613 4219.24414
4207.0 0.0002377 3857.49609 4146.25635
4193.0 0.0002385 3856.95410 4088.34106
4187.0 0.0002388 3856.40967 4043.80273
3973.0 0.0002517 3855.86328 4010.47144
4062.0 0.0002462 3855.31470 3986.12671
4041.0 0.0002475 3854.76343 3968.75684
3894.0 0.0002568 3854.21045 3956.87134
4099.0 0.0002440 3853.65503 3949.31885
3922.0 0.0002550 3853.09741 3945.39502
3846.0 0.0002600 3852.53735 3944.71606
3939.0 0.0002539 3851.97534 3947.10059
3864.0 0.0002588 3851.41089 3952.43701
3799.0 0.0002632 3850.84448 3960.65259
3890.0 0.0002571 3850.27563 3971.16626
3943.0 0.0002536 3849.70435 3983.34839
4040.0 0.0002475 3849.13110 3995.93213
4100.0 0.0002439 3848.55542 4006.96118
4229.0 0.0002365 3847.97754 4013.93237
3977.0 0.0002514 3847.39722 4014.56470
3975.0 0.0002516 3846.81494 4007.98657
3968.0 0.0002520 3846.23047 3995.28369
3919.0 0.0002552 3845.64331 3978.78198
3854.0 0.0002595 3845.05420 3960.86865
3876.0 0.0002580 3844.46265 3943.32104
3930.0 0.0002545 3843.86914 3927.38159
3896.0 0.0002567 3843.27319 3913.30371
3905.0 0.0002561 3842.67505 3901.42163
3928.0 0.0002546 3842.07446 3891.72412
3767.0 0.0002655 3841.47192 3883.89307
3830.0 0.0002611 3840.86719 3877.70361
3799.0 0.0002632 3840.25977 3872.78979
3864.0 0.0002588 3839.65063 3868.87573
3929.0 0.0002545 3839.03882 3865.70679
3831.0 0.0002610 3838.42505 3862.74390
3822.0 0.0002616 3837.80884 3860.52271
3831.0 0.0002610 3837.19067 3858.59277
3779.0 0.0002646 3836.57031 3856.88208
3959.0 0.0002526 3835.94775 3855.34473
3826.0 0.0002614 3835.32300 3853.94873
3835.0 0.0002608 3834.69580 3852.67627
3706.0 0.0002698 3834.06665 3851.51563
3724.0 0.0002685 3833.43530 3850.46191
3837.0 0.0002606 3832.80176 3849.51685
3800.0 0.0002632 3832.16602 3848.68506
3846.0 0.0002600 3831.52832 3847.97998
3779.0 0.0002646 3830.88843 3847.41406
3813.0 0.0002623 3830.24634 3847.00732
3942.0 0.0002537 3829.60205 3846.79980
3832.0 0.0002610 3828.95581 3846.77075
3889.0 0.0002571 3828.30762 3845.93481
3905.0 0.0002561 3827.65698 3846.35425
3838.0 0.0002606 3827.00464 3846.97729
3864.0 0.0002588 3826.34985 3847.76270
3942.0 0.0002537 3825.69336 3848.63721
3849.0 0.0002598 3825.03491 3849.51196
3904.0 0.0002561 3824.37402 3850.31299
3880.0 0.0002577 3823.71167 3851.02319
3871.0 0.0002583 3823.04688 3851.72534
3834.0 0.0002608 3822.38037 3852.37134
3800.0 0.0002632 3821.71167 3853.07520
3864.0 0.0002588 3821.04126 3853.97437
3756.0 0.0002662 3820.36890 3855.34277
3975.0 0.0002516 3819.69458 3857.58496
3924.0 0.0002548 3819.01855 3861.16626
3762.0 0.0002658 3818.34033 3866.53882
3817.0 0.0002620 3817.66064 3874.08008
3795.0 0.0002635 3816.97876 3884.04150
3926.0 0.0002547 3816.29517 3896.47827
3904.0 0.0002561 3815.60962 3911.16040
3844.0 0.0002601 3814.92261 3927.45532
3998.0 0.0002501 3814.23389 3944.15601
3927.0 0.0002546 3813.54297 3959.32397
3998.0 0.0002501 3812.85059 3970.36304
3927.0 0.0002546 3812.15649 3974.69824
4024.0 0.0002485 3811.46069 3971.00098
3976.0 0.0002515 3810.76318 3960.00562
3876.0 0.0002580 3810.06396 3944.03638
3856.0 0.0002593 3809.36328 3925.76123
3872.0 0.0002583 3808.66113 3907.31860
3836.0 0.0002607 3807.95728 3890.09766
3838.0 0.0002606 3807.25171 3874.85815
3893.0 0.0002569 3806.54468 3861.92041
3922.0 0.0002550 3805.83618 3851.29736
3783.0 0.0002643 3805.12622 3842.80322
3844.0 0.0002601 3804.41455 3836.12891
3818.0 0.0002619 3803.70190 3830.92261
3796.0 0.0002634 3802.98755 3826.83984
3828.0 0.0002612 3802.27197 3823.59155
3864.0 0.0002588 3801.55493 3820.95630
3809.0 0.0002625 3800.83643 3818.77759
3833.0 0.0002609 3800.11694 3815.11304
3810.0 0.0002625 3799.39575 3813.66040
3902.0 0.0002563 3798.67358 3812.37817
3811.0 0.0002624 3797.94995 3811.30640
3766.0 0.0002655 3797.22534 3810.44336
3812.0 0.0002623 3796.49976 3809.80103
3723.0 0.0002686 3795.77246 3809.41333
3863.0 0.0002589 3795.04443 3809.33203
3705.0 0.0002699 3794.31494 3809.62939
3759.0 0.0002660 3793.58496 3810.39941
3799.0 0.0002632 3792.85327 3811.74609
3828.0 0.0002612 3792.12109 3813.77783
3883.0 0.0002575 3791.38770 3816.58643
3786.0 0.0002641 3790.65332 3820.22729
3874.0 0.0002581 3789.91821 3824.69238
3807.0 0.0002627 3789.18188 3829.87842
3827.0 0.0002613 3788.44507 3835.54077
3988.0 0.0002508 3787.70703 3841.38184
3732.0 0.0002680 3786.96851 3846.46826
3733.0 0.0002679 3786.22900 3850.13672
3897.0 0.0002566 3785.48901 3851.77808
3776.0 0.0002648 3784.74780 3851.29517
3959.0 0.0002526 3784.00659 3849.31836
3876.0 0.0002580 3783.26440 3846.85205
3760.0 0.0002660 3782.52124 3844.87524
3899.0 0.0002565 3781.77808 3844.10913
3871.0 0.0002583 3781.03394 3844.69873
3820.0 0.0002618 3780.28955 3847.25366
3868.0 0.0002585 3779.54419 3851.28564
3767.0 0.0002655 3778.79883 3856.21924
3927.0 0.0002546 3778.05298 3861.08252
3693.0 0.0002708 3777.30664 3864.56860
3970.0 0.0002519 3776.55981 3865.34570
3857.0 0.0002593 3775.81274 3862.63257
3820.0 0.0002618 3775.06567 3856.61450
3851.0 0.0002597 3774.31787 3848.29346
3772.0 0.0002651 3773.57007 3838.91943
3977.0 0.0002514 3772.82178 3829.55249
3796.0 0.0002634 3772.07373 3820.92432
3878.0 0.0002579 3771.32544 3813.48120
3736.0 0.0002677 3770.57690 3807.47241
3808.0 0.0002626 3769.82837 3803.01099
3920.0 0.0002551 3769.07983 3800.14282
3775.0 0.0002649 3768.33130 3798.77075
3753.0 0.0002665 3767.58252 3798.82764
3702.0 0.0002701 3766.83423 3800.17847
3898.0 0.0002565 3766.08569 3802.63428
3863.0 0.0002589 3765.33740 3805.93018
3778.0 0.0002647 3764.58936 3809.68042
3837.0 0.0002606 3763.84131 3813.33789
3828.0 0.0002612 3763.09375 3816.21777
3934.0 0.0002542 3762.34619 3817.63477
3933.0 0.0002543 3761.59912 3817.14307
3811.0 0.0002624 3760.85205 3814.68994
3768.0 0.0002654 3760.10596 3810.57178
3841.0 0.0002603 3759.35986 3805.28857
3849.0 0.0002598 3758.61426 3799.41431
3858.0 0.0002592 3757.86914 3793.48755
3762.0 0.0002658 3757.12427 3787.91748
3793.0 0.0002636 3756.38037 3782.96826
3781.0 0.0002645 3755.63647 3778.78003
3745.0 0.0002670 3754.89355 3775.40479
3920.0 0.0002551 3754.15112 3772.83301
3783.0 0.0002643 3753.40967 3771.00928
3817.0 0.0002620 3752.66870 3769.88672
3827.0 0.0002613 3751.92822 3769.37280
3868.0 0.0002585 3751.18896 3769.37769
3852.0 0.0002596 3750.44995 3769.77930
3750.0 0.0002667 3749.71216 3770.48047
3722.0 0.0002687 3748.97510 3771.29932
3739.0 0.0002675 3748.23901 3772.12964
3789.0 0.0002639 3747.50366 3772.63672
3847.0 0.0002599 3746.76953 3772.85400
3782.0 0.0002644 3746.03638 3772.97339
3829.0 0.0002612 3745.30371 3773.07617
3772.0 0.0002651 3744.57275 3773.46509
3703.0 0.0002701 3743.84253 3774.28198
3844.0 0.0002601 3743.11353 3775.54126
3743.0 0.0002672 3742.38525 3777.10962
3723.0 0.0002686 3741.65869 3778.68335
3760.0 0.0002660 3740.93335 3779.79907
3697.0 0.0002705 3740.20898 3779.61987
3786.0 0.0002641 3739.48584 3778.36572
3716.0 0.0002691 3738.76392 3775.68701
3817.0 0.0002620 3738.04370 3771.90991
3785.0 0.0002642 3737.32446 3767.52686
3776.0 0.0002648 3736.60693 3762.99292
3885.0 0.0002574 3735.89038 3758.63452
3792.0 0.0002637 3735.17554 3754.64868
3818.0 0.0002619 3734.46240 3751.13574
3774.0 0.0002650 3733.75024 3748.12769
3722.0 0.0002687 3733.04004 3745.61230
3789.0 0.0002639 3732.33105 3743.54590
3609.0 0.0002771 3731.62378 3741.87158
3686.0 0.0002713 3730.91797 3740.52515
3716.0 0.0002691 3730.21387 3739.44458
3742.0 0.0002672 3729.51147 3738.57471
3826.0 0.0002614 3728.81079 3737.87134
3663.0 0.0002730 3728.11182 3737.29492
3765.0 0.0002656 3727.41431 3736.81616
3644.0 0.0002744 3726.71875 3736.42163
3768.0 0.0002654 3726.02490 3736.11743
3854.0 0.0002595 3725.33301 3735.94141
3827.0 0.0002613 3724.64258 3735.96045
3771.0 0.0002652 3723.95435 3736.28906
3691.0 0.0002709 3723.26807 3736.96167
3725.0 0.0002685 3722.58350 3738.09839
3834.0 0.0002608 3721.90088 3739.78540
3593.0 0.0002783 3721.21997 3742.08252
3739.0 0.0002675 3720.54126 3745.01270
3688.0 0.0002711 3719.86426 3748.54346
3769.0 0.0002653 3719.18945 3752.55615
3777.0 0.0002648 3718.51660 3756.81934
3773.0 0.0002650 3717.84595 3760.94629
3736.0 0.0002677 3717.17749 3764.38550
3744.0 0.0002671 3716.51050 3766.52539
3816.0 0.0002621 3715.84619 3766.93042
3812.0 0.0002623 3715.18359 3765.60815
3733.0 0.0002679 3714.52344 3762.94434
3668.0 0.0002726 3713.86499 3759.89697
3667.0 0.0002727 3713.20898 3757.10645
3705.0 0.0002699 3712.55518 3755.18628
3832.0 0.0002610 3711.90356 3754.59326
3696.0 0.0002706 3711.25415 3756.57861
3784.0 0.0002643 3710.60669 3759.47559
3795.0 0.0002635 3709.96191 3764.25000
3800.0 0.0002632 3709.31909 3770.78345
3784.0 0.0002643 3708.67847 3778.75659
3759.0 0.0002660 3708.04004 3787.59863
3752.0 0.0002665 3707.40430 3796.33569
3888.0 0.0002572 3706.77075 3803.53491
3748.0 0.0002668 3706.13916 3808.03784
3896.0 0.0002567 3705.51001 3808.53979
3844.0 0.0002601 3704.88330 3804.75000
3674.0 0.0002722 3704.25903 3797.34277
3770.0 0.0002653 3703.63672 3787.53760
3735.0 0.0002677 3703.01709 3776.60498
3840.0 0.0002604 3702.39966 3765.58057
3660.0 0.0002732 3701.78467 3755.18579
3672.0 0.0002723 3701.17212 3745.86230
3712.0 0.0002694 3700.56152 3737.82349
3680.0 0.0002717 3699.95386 3731.12085
3819.0 0.0002618 3699.34814 3725.74097
3698.0 0.0002704 3698.74512 3721.47070
3652.0 0.0002738 3698.14429 3718.20630
3578.0 0.0002795 3697.54590 3715.79932
3653.0 0.0002737 3696.94995 3714.11621
3656.0 0.0002735 3696.35645 3713.04785
3646.0 0.0002743 3695.76538 3712.50684
3761.0 0.0002659 3695.17627 3712.42212
3722.0 0.0002687 3694.59009 3712.72778
3724.0 0.0002685 3694.00610 3713.34619
3817.0 0.0002620 3693.42456 3714.17749
3698.0 0.0002704 3692.84521 3715.07495
3737.0 0.0002676 3692.26855 3715.83691
3751.0 0.0002666 3691.69409 3716.21216
3718.0 0.0002690 3691.12207 3715.97583
3835.0 0.0002608 3690.55225 3715.02563
3690.0 0.0002710 3689.98511 3713.43970
3652.0 0.0002738 3689.42017 3711.42773
3764.0 0.0002657 3688.85767 3709.23120
3754.0 0.0002664 3688.29736 3707.04956
3705.0 0.0002699 3687.73950 3705.01514
3679.0 0.0002718 3687.18408 3703.20801
3775.0 0.0002649 3686.63110 3701.66504
3663.0 0.0002730 3686.08008 3700.34644
3753.0 0.0002665 3685.53149 3699.35620
3809.0 0.0002625 3684.98535 3698.63599
3659.0 0.0002733 3684.44141 3698.16528
3749.0 0.0002667 3683.89966 3698.01074
3819.0 0.0002618 3683.36035 3698.18335
3743.0 0.0002672 3682.82324 3698.74316
3786.0 0.0002641 3682.28833 3699.77563
3685.0 0.0002714 3681.75586 3701.39233
3766.0 0.0002655 3681.22534 3703.72632
3646.0 0.0002743 3680.69702 3706.92139
3685.0 0.0002714 3680.17090 3711.11816
3775.0 0.0002649 3679.64722 3716.42969
3634.0 0.0002752 3679.12549 3722.90845
3601.0 0.0002777 3678.60596 3731.16821
3646.0 0.0002743 3678.08862 3739.72095
3735.0 0.0002677 3677.57324 3748.80225
3827.0 0.0002613 3677.05981 3757.74609
3843.0 0.0002602 3676.54858 3765.64575
3781.0 0.0002645 3676.03955 3771.53442
3805.0 0.0002628 3675.53223 3774.65161
3683.0 0.0002715 3675.02710 3774.69531
3857.0 0.0002593 3674.52393 3771.65576
3716.0 0.0002691 3674.02271 3765.83813
3713.0 0.0002693 3673.52368 3757.86865
3733.0 0.0002679 3673.02612 3748.57104
3712.0 0.0002694 3672.53076 3738.86694
3981.0 0.0002512 3672.03687 3729.56982
3838.0 0.0002606 3671.54517 3721.01831
3666.0 0.0002728 3671.05518 3713.54541
3631.0 0.0002754 3670.56714 3707.24121
3685.0 0.0002714 3670.08057 3702.03076
3682.0 0.0002716 3669.59595 3697.92041
3636.0 0.0002750 3669.11304 3694.73193
3654.0 0.0002737 3668.63159 3692.32300
3671.0 0.0002724 3668.15186 3690.55493
3729.0 0.0002682 3667.67383 3689.30835
3694.0 0.0002707 3667.19727 3688.48535
3726.0 0.0002684 3666.72217 3688.01147
3604.0 0.0002775 3666.24902 3687.83618
3645.0 0.0002743 3665.77710 3687.92383
3684.0 0.0002714 3665.30664 3688.25684
3825.0 0.0002614 3664.83765 3688.82861
3590.0 0.0002786 3664.36987 3690.79932
3694.0 0.0002707 3663.90381 3691.91602
3652.0 0.0002738 3663.43872 3693.34741
3796.0 0.0002634 3662.97510 3695.13818
3770.0 0.0002653 3662.51270 3697.31494
3714.0 0.0002693 3662.05176 3699.88208
3681.0 0.0002717 3661.59180 3702.80811
3745.0 0.0002670 3661.13281 3705.99170
3734.0 0.0002678 3660.67529 3709.29468
3809.0 0.0002625 3660.21875 3712.51831
3606.0 0.0002773 3659.76318 3715.48389
3708.0 0.0002697 3659.30859 3718.15088
3743.0 0.0002672 3658.85522 3720.71191
3744.0 0.0002671 3658.40234 3723.61377
3816.0 0.0002621 3657.95093 3727.47119
3622.0 0.0002761 3657.50024 3733.00610
3692.0 0.0002709 3657.05005 3741.02075
3824.0 0.0002615 3656.60083 3752.40283
3737.0 0.0002676 3656.15234 3768.12012
3721.0 0.0002687 3655.70459 3789.17700
3840.0 0.0002604 3655.25732 3816.52271
3897.0 0.0002566 3654.81104 3850.92212
3894.0 0.0002568 3654.36523 3892.71924
3970.0 0.0002519 3653.91968 3941.88525
3956.0 0.0002528 3653.47485 3997.36621
3860.0 0.0002591 3653.03052 4056.99805
4111.0 0.0002432 3652.58667 4116.98486
4128.0 0.0002422 3652.14307 4171.52832
4250.0 0.0002353 3651.69971 4213.10498
4417.0 0.0002264 3651.25659 4234.20654
4187.0 0.0002388 3650.81396 4230.41602
4219.0 0.0002370 3650.37158 4202.73730
4076.0 0.0002453 3649.92920 4156.97510
4125.0 0.0002424 3649.48706 4100.78662
4131.0 0.0002421 3649.04492 4041.00220
3899.0 0.0002565 3648.60303 3982.57739
3922.0 0.0002550 3648.16064 3928.69678
3812.0 0.0002623 3647.71875 3881.19995
3907.0 0.0002560 3647.27637 3840.79224
3758.0 0.0002661 3646.83423 3807.85083
3702.0 0.0002701 3646.39160 3781.80469
3714.0 0.0002693 3645.94873 3762.00171
3738.0 0.0002675 3645.50586 3747.26978
3832.0 0.0002610 3645.06250 3736.73096
3947.0 0.0002534 3644.61890 3729.41797
3677.0 0.0002720 3644.17456 3724.41406
3630.0 0.0002755 3643.73022 3720.85400
3638.0 0.0002749 3643.28540 3717.92505
3726.0 0.0002684 3642.83984 3714.93408
3885.0 0.0002574 3642.39355 3711.43140
3773.0 0.0002650 3641.94678 3707.29688
3769.0 0.0002653 3641.49951 3702.70044
3693.0 0.0002708 3641.05151 3697.94019
3686.0 0.0002713 3640.60254 3693.30249
3751.0 0.0002666 3640.15308 3688.99829
3788.0 0.0002640 3639.70264 3685.15332
3655.0 0.0002736 3639.25146 3681.83545
3733.0 0.0002679 3638.79907 3679.06250
3679.0 0.0002718 3638.34595 3676.82373
3859.0 0.0002591 3637.89160 3675.08960
3649.0 0.0002740 3637.43652 3673.81909
3716.0 0.0002691 3636.97998 3672.96851
3729.0 0.0002682 3636.52246 3672.47632
3557.0 0.0002811 3636.06372 3672.36621
3797.0 0.0002634 3635.60400 3672.59912
3606.0 0.0002773 3635.14282 3673.18115
3713.0 0.0002693 3634.68018 3674.13940
3665.0 0.0002729 3634.21655 3675.53442
3618.0 0.0002764 3633.75122 3677.46338
3701.0 0.0002702 3633.28467 3680.69751
3669.0 0.0002726 3632.81665 3684.21704
3598.0 0.0002779 3632.34717 3688.93213
3547.0 0.0002819 3631.87598 3695.23242
3741.0 0.0002673 3631.40308 3703.60864
3765.0 0.0002656 3630.92896 3714.63477
3627.0 0.0002757 3630.45288 3728.93921
3750.0 0.0002667 3629.97510 3747.14575
3850.0 0.0002597 3629.49561 3769.79004
3728.0 0.0002682 3629.01440 3797.21777
3784.0 0.0002643 3628.53125 3829.45142
3836.0 0.0002607 3628.04639 3866.03979
3832.0 0.0002610 3627.55957 3905.85718
3946.0 0.0002534 3627.07080 3946.83765
3978.0 0.0002514 3626.58008 3985.70703
4116.0 0.0002430 3626.08716 4017.97729
4175.0 0.0002395 3625.59253 4038.68091
4126.0 0.0002424 3625.09546 4044.09985
4172.0 0.0002397 3624.59668 4033.60229
4040.0 0.0002475 3624.09546 4010.03613
4118.0 0.0002428 3623.59229 3978.28613
3890.0 0.0002571 3623.08691 3943.21924
3891.0 0.0002570 3622.57910 3908.87817
3845.0 0.0002601 3622.06909 3877.70874
3843.0 0.0002602 3621.55664 3851.10620
3867.0 0.0002586 3621.04199 3829.52148
3685.0 0.0002714 3620.52490 3812.98511
3839.0 0.0002605 3620.00562 3800.87476
3740.0 0.0002674 3619.48389 3792.42554
3817.0 0.0002620 3618.95947 3786.92505
3879.0 0.0002578 3618.43286 3784.00342
3705.0 0.0002699 3617.90332 3783.84473
3753.0 0.0002665 3617.37183 3787.20020
3780.0 0.0002646 3616.83716 3795.18335
3714.0 0.0002693 3616.30029 3809.04150
3827.0 0.0002613 3615.76050 3829.96704
3827.0 0.0002613 3615.21851 3858.95703
3774.0 0.0002650 3614.67358 3896.66089
3837.0 0.0002606 3614.12598 3943.20044
3968.0 0.0002520 3613.57568 3997.94238
4198.0 0.0002382 3613.02271 4059.20190
4042.0 0.0002474 3612.46704 4123.84131
4160.0 0.0002404 3611.90820 4186.81543
4161.0 0.0002403 3611.34692 4240.98242
4323.0 0.0002313 3610.78271 4277.89941
4271.0 0.0002341 3610.21582 4290.23047
4388.0 0.0002279 3609.64600 4274.96484
4168.0 0.0002399 3609.07324 4234.97998
4086.0 0.0002447 3608.49780 4177.47266
4110.0 0.0002433 3607.91919 4110.73877
4223.0 0.0002368 3607.33789 4041.76782
3922.0 0.0002550 3606.75342 3975.45361
3872.0 0.0002583 3606.16626 3914.80249
3775.0 0.0002649 3605.57617 3861.41235
3856.0 0.0002593 3604.98291 3815.87622
3942.0 0.0002537 3604.38696 3778.07935
3685.0 0.0002714 3603.78760 3747.38770
3649.0 0.0002740 3603.18579 3722.96997
3557.0 0.0002811 3602.58032 3703.77441
3611.0 0.0002769 3601.97241 3688.78394
3767.0 0.0002655 3601.36108 3677.07544
3586.0 0.0002789 3600.74707 3667.86670
3548.0 0.0002818 3600.13013 3660.53125
3645.0 0.0002743 3599.50977 3654.59009
3735.0 0.0002677 3598.88647 3649.69385
3674.0 0.0002722 3598.26025 3645.59229
3615.0 0.0002766 3597.63086 3642.11646
3675.0 0.0002721 3596.99829 3639.15015
3682.0 0.0002716 3596.36304 3636.62573
3721.0 0.0002687 3595.72461 3634.50635
3655.0 0.0002736 3595.08325 3632.78320
3626.0 0.0002758 3594.43872 3631.47339
3685.0 0.0002714 3593.79102 3630.61621
3600.0 0.0002778 3593.14038 3630.27515
3632.0 0.0002753 3592.48657 3630.53394
3793.0 0.0002636 3591.83008 3630.55859
3635.0 0.0002751 3591.17017 3632.32275
3585.0 0.0002789 3590.50757 3634.97290
3648.0 0.0002741 3589.84204 3638.56836
3711.0 0.0002695 3589.17310 3643.12378
3631.0 0.0002754 3588.50171 3648.55811
3469.0 0.0002883 3587.82690 3654.74316
3698.0 0.0002704 3587.14941 3661.34155
3651.0 0.0002739 3586.46851 3667.83862
3588.0 0.0002787 3585.78516 3673.49731
3763.0 0.0002657 3585.09863 3677.42236
3582.0 0.0002792 3584.40942 3678.79980
3627.0 0.0002757 3583.71729 3677.56494
3650.0 0.0002740 3583.02197 3673.28882
3684.0 0.0002714 3582.32397 3667.03540
3828.0 0.0002612 3581.62305 3659.71997
3621.0 0.0002762 3580.91943 3652.15601
3643.0 0.0002745 3580.21265 3644.94263
3650.0 0.0002740 3579.50366 3638.47778
3580.0 0.0002793 3578.79150 3632.95581
3743.0 0.0002672 3578.07666 3628.61084
3687.0 0.0002712 3577.35913 3625.47437
3654.0 0.0002737 3576.63892 3623.60254
3686.0 0.0002713 3575.91602 3623.05811
3603.0 0.0002775 3575.19043 3623.94824
3654.0 0.0002737 3574.46216 3626.44458
3542.0 0.0002823 3573.73120 3630.80371
3566.0 0.0002804 3572.99805 3637.36914
3611.0 0.0002769 3572.26221 3646.55737
3566.0 0.0002804 3571.52344 3658.82642
3638.0 0.0002749 3570.78271 3674.61816
3665.0 0.0002729 3570.03906 3694.28882
3701.0 0.0002702 3569.29346 3718.00415
3661.0 0.0002731 3568.54492 3745.65283
3842.0 0.0002603 3567.79443 3776.70825
3924.0 0.0002548 3567.04126 3810.05420
3741.0 0.0002673 3566.28613 3843.77759
3953.0 0.0002530 3565.52881 3874.97144
3941.0 0.0002537 3564.76880 3899.80176
3961.0 0.0002525 3564.00684 3914.18848
4020.0 0.0002488 3563.24243 3915.19922
3915.0 0.0002554 3562.47632 3902.41895
3910.0 0.0002558 3561.70776 3878.17188
3850.0 0.0002597 3560.93750 3846.36938
3775.0 0.0002649 3560.16479 3811.01660
3831.0 0.0002610 3559.39038 3775.30518
3668.0 0.0002726 3558.61401 3741.40991
3653.0 0.0002737 3557.83569 3710.64331
3732.0 0.0002680 3557.05566 3683.67212
3663.0 0.0002730 3556.27344 3660.69946
3797.0 0.0002634 3555.48975 3641.64185
3658.0 0.0002734 3554.70410 3626.08105
3524.0 0.0002838 3553.91699 3613.59229
3598.0 0.0002779 3553.12817 3603.66040
3559.0 0.0002810 3552.33740 3595.78076
3607.0 0.0002772 3551.54541 3589.79834
3542.0 0.0002823 3550.75171 3584.06714
3567.0 0.0002803 3549.95679 3579.89746
3511.0 0.0002848 3549.16016 3576.37158
3544.0 0.0002822 3548.36230 3573.31104
3619.0 0.0002763 3547.56299 3570.58594
3453.0 0.0002896 3546.76245 3568.11279
3551.0 0.0002816 3545.96069 3565.83838
3462.0 0.0002889 3545.15747 3563.72803
3708.0 0.0002697 3544.35352 3561.75830
3689.0 0.0002711 3543.54785 3559.91260
3668.0 0.0002726 3542.74170 3558.15991
3450.0 0.0002899 3541.93408 3556.52051
3522.0 0.0002839 3541.12573 3555.01147
3534.0 0.0002830 3540.31616 3553.46265
3572.0 0.0002800 3539.50610 3552.05981
3490.0 0.0002865 3538.69507 3550.71777
3497.0 0.0002860 3537.88330 3549.43091
3543.0 0.0002822 3537.07080 3548.19287
3546.0 0.0002820 3536.25732 3546.99829
3576.0 0.0002796 3535.44360 3545.84277
3513.0 0.0002847 3534.62891 3544.72217
3562.0 0.0002807 3533.81396 3543.63477
3534.0 0.0002830 3532.99854 3542.57642
3528.0 0.0002834 3532.18237 3541.54517
3575.0 0.0002797 3531.36621 3540.54028
3537.0 0.0002827 3530.54932 3539.55884
3470.0 0.0002882 3529.73242 3538.60107
3436.0 0.0002910 3528.91479 3537.66431
3477.0 0.0002876 3528.09766 3535.60010
3620.0 0.0002762 3527.27979 3534.72632
3472.0 0.0002880 3526.46216 3533.87256
3466.0 0.0002885 3525.64453 3533.03931
3458.0 0.0002892 3524.82642 3532.22583
3516.0 0.0002844 3524.00879 3531.43311
3590.0 0.0002786 3523.19116 3530.66187
3521.0 0.0002840 3522.37378 3529.96045
3620.0 0.0002762 3521.55615 3529.23486
3501.0 0.0002856 3520.73901 3528.53418
3446.0 0.0002902 3519.92212 3527.85815
3555.0 0.0002813 3519.10571 3527.21069
3588.0 0.0002787 3518.28955 3526.59326
3575.0 0.0002797 3517.47363 3526.00830
3540.0 0.0002825 3516.65845 3525.45972
3507.0 0.0002851 3515.84375 3524.95117
3610.0 0.0002770 3515.02954 3524.48804
3530.0 0.0002833 3514.21558 3524.08276
3492.0 0.0002864 3513.40283 3523.72949
3504.0 0.0002854 3512.59058 3523.44409
3560.0 0.0002809 3511.77881 3523.24780
3658.0 0.0002734 3510.96802 3523.14380
3558.0 0.0002811 3510.15796 3523.16479
3500.0 0.0002857 3509.34888 3523.34570
3526.0 0.0002836 3508.54053 3523.73706
3491.0 0.0002865 3507.73340 3524.44458
3582.0 0.0002792 3506.92676 3525.49097
3511.0 0.0002848 3506.12158 3527.03540
3501.0 0.0002856 3505.31738 3529.23682
3477.0 0.0002876 3504.51392 3532.28467
3594.0 0.0002782 3503.71216 3536.40186
3662.0 0.0002731 3502.91113 3541.82153
3557.0 0.0002811 3502.11157 3548.77661
3538.0 0.0002826 3501.31274 3557.46411
3650.0 0.0002740 3500.51587 3568.01392
3544.0 0.0002822 3499.71973 3580.44751
3695.0 0.0002706 3498.92529 3594.62085
3581.0 0.0002793 3498.13232 3610.16797
3582.0 0.0002792 3497.34033 3626.41577
3564.0 0.0002806 3496.55005 3642.28418
3822.0 0.0002616 3495.76123 3656.24731
3729.0 0.0002682 3494.97388 3666.28931
3695.0 0.0002706 3494.18774 3670.92358
3663.0 0.0002730 3493.40381 3669.01758
3608.0 0.0002772 3492.62109 3660.81421
3664.0 0.0002729 3491.83984 3647.67358
3806.0 0.0002627 3491.06055 3631.47192
3655.0 0.0002736 3490.28247 3613.98926
3577.0 0.0002796 3489.50635 3596.59570
3492.0 0.0002864 3488.73169 3580.21631
3610.0 0.0002770 3487.95923 3565.40479
3651.0 0.0002739 3487.18799 3552.44043
3463.0 0.0002888 3486.41895 3541.40454
3498.0 0.0002859 3485.65161 3532.23438
3582.0 0.0002792 3484.88574 3524.77271
3438.0 0.0002909 3484.12207 3518.80664
3586.0 0.0002789 3483.35986 3514.09766
3458.0 0.0002892 3482.59985 3510.40991
3482.0 0.0002872 3481.84131 3507.52051
3493.0 0.0002863 3481.08496 3505.23706
3475.0 0.0002878 3480.33008 3503.39526
3524.0 0.0002838 3479.57764 3501.87720
3476.0 0.0002877 3478.82666 3500.59668
3459.0 0.0002891 3478.07764 3499.52100
3513.0 0.0002847 3477.33081 3498.65308
3503.0 0.0002855 3476.58545 3498.02173
3528.0 0.0002834 3475.84229 3497.67505
3478.0 0.0002875 3475.10107 3497.67676
3538.0 0.0002826 3474.36182 3498.10986
3418.0 0.0002926 3473.62451 3499.07690
3433.0 0.0002913 3472.88867 3500.07690
3636.0 0.0002750 3472.15527 3502.52466
3546.0 0.0002820 3471.42334 3505.96118
3563.0 0.0002807 3470.69385 3510.55298
3574.0 0.0002798 3469.96558 3516.48608
3542.0 0.0002823 3469.23975 3523.91919
3518.0 0.0002843 3468.51563 3532.94873
3556.0 0.0002812 3467.79346 3543.58057
3470.0 0.0002882 3467.07324 3555.96411
3501.0 0.0002856 3466.35449 3569.23901
3529.0 0.0002834 3465.63794 3583.20703
3670.0 0.0002725 3464.92310 3597.21973
3497.0 0.0002860 3464.21021 3610.44287
3686.0 0.0002713 3463.49878 3621.79565
3747.0 0.0002669 3462.78955 3629.94604
3634.0 0.0002752 3462.08179 3633.51831
3703.0 0.0002701 3461.37598 3631.57544
3615.0 0.0002766 3460.67188 3624.08667
3607.0 0.0002772 3459.96924 3612.01221
3538.0 0.0002826 3459.26855 3596.90454
3719.0 0.0002689 3458.56934 3580.37061
3670.0 0.0002725 3457.87183 3563.71729
3476.0 0.0002877 3457.17578 3547.85767
3498.0 0.0002859 3456.48145 3533.35620
3442.0 0.0002905 3455.78882 3520.51147
3481.0 0.0002873 3455.09717 3509.43164
3671.0 0.0002724 3454.40747 3500.08911
3435.0 0.0002911 3453.71899 3492.36523
3447.0 0.0002901 3453.03198 3486.08813
3442.0 0.0002905 3452.34619 3481.05981
3491.0 0.0002865 3451.66211 3477.08789
3578.0 0.0002795 3450.97900 3473.99487
3382.0 0.0002957 3450.29736 3471.63574
3406.0 0.0002936 3449.61694 3469.89819
3439.0 0.0002908 3448.93726 3468.70288
3560.0 0.0002809 3448.25928 3467.99951
3579.0 0.0002794 3447.58203 3467.75610
3437.0 0.0002910 3446.90601 3467.95044
3492.0 0.0002864 3446.23071 3468.56177
3419.0 0.0002925 3445.55664 3469.55859
3530.0 0.0002833 3444.88330 3470.88770
3627.0 0.0002757 3444.21118 3472.46509
3324.0 0.0003008 3443.53955 3474.15430
3447.0 0.0002901 3442.86865 3475.75977
3471.0 0.0002881 3442.19873 3477.02393
3439.0 0.0002908 3441.52905 3477.65503
3539.0 0.0002826 3440.86035 3477.41113
3438.0 0.0002909 3440.19189 3476.18750
3392.0 0.0002948 3439.52417 3474.07275
3429.0 0.0002916 3438.85693 3471.30518
3487.0 0.0002868 3438.18994 3468.18018
3473.0 0.0002879 3437.52344 3464.97217
3373.0 0.0002965 3436.85693 3461.89600
3449.0 0.0002899 3436.19067 3459.10522
3471.0 0.0002881 3435.52441 3456.70874
3554.0 0.0002814 3434.85864 3454.78198
3445.0 0.0002903 3434.19263 3453.37720
3411.0 0.0002932 3433.52686 3452.52710
3439.0 0.0002908 3432.86084 3452.25098
3416.0 0.0002927 3432.19434 3452.55444
3442.0 0.0002905 3431.52808 3453.42773
3560.0 0.0002809 3430.86108 3454.84253
3608.0 0.0002772 3430.19409 3456.74487
3506.0 0.0002852 3429.52637 3459.04858
3395.0 0.0002946 3428.85840 3461.61987
3516.0 0.0002844 3428.18970 3464.26001
3528.0 0.0002834 3427.52051 3466.69507
3458.0 0.0002892 3426.85059 3468.58911
3494.0 0.0002862 3426.17993 3469.60547
3386.0 0.0002953 3425.50854 3469.51880
3418.0 0.0002926 3424.83594 3468.31665
3577.0 0.0002796 3424.16260 3466.21240
3424.0 0.0002921 3423.48828 3463.55591
3410.0 0.0002933 3422.81274 3460.71631
3323.0 0.0003009 3422.13623 3457.99731
3465.0 0.0002886 3421.45825 3455.61108
3596.0 0.0002781 3420.77905 3453.67798
3501.0 0.0002856 3420.09839 3452.24390
3368.0 0.0002969 3419.41650 3451.28906
3424.0 0.0002921 3418.73291 3450.75000
3505.0 0.0002853 3418.04785 3450.54199
3467.0 0.0002884 3417.36084 3450.56934
3415.0 0.0002928 3416.67261 3450.72632
3457.0 0.0002893 3415.98242 3450.89453
3451.0 0.0002898 3415.29004 3450.93433
3420.0 0.0002924 3414.59595 3450.66577
3502.0 0.0002856 3413.89990 3449.89917
3465.0 0.0002886 3413.20190 3448.15601
3447.0 0.0002901 3412.50122 3446.06519
3312.0 0.0003019 3411.79907 3443.39893
3490.0 0.0002865 3411.09399 3440.36084
3480.0 0.0002874 3410.38721 3437.18091
3389.0 0.0002951 3409.67773 3434.05688
3373.0 0.0002965 3408.96558 3431.12964
3387.0 0.0002952 3408.25122 3428.48853
3371.0 0.0002966 3407.53394 3426.17236
3456.0 0.0002894 3406.81421 3424.18896
3322.0 0.0003010 3406.09155 3422.51245
3522.0 0.0002839 3405.36646 3421.09595
3417.0 0.0002927 3404.63843 3419.86646
3436.0 0.0002910 3403.90723 3418.81250
3491.0 0.0002865 3403.17334 3417.70361
3370.0 0.0002967 3402.43604 3416.54785
3381.0 0.0002958 3401.69604 3415.32031
3379.0 0.0002959 3400.95264 3414.03027
3485.0 0.0002869 3400.20630 3412.70923
3382.0 0.0002957 3399.45630 3411.40723
3338.0 0.0002996 3398.70337 3410.15527
3449.0 0.0002899 3397.94702 3408.97949
3461.0 0.0002889 3397.18701 3407.89697
3483.0 0.0002871 3396.42383 3406.92139
3532.0 0.0002831 3395.65674 3406.13916
3312.0 0.0003019 3394.88647 3405.39380
3413.0 0.0002930 3394.11230 3404.76733
3294.0 0.0003036 3393.33472 3404.26099
3321.0 0.0003011 3392.55298 3403.87451
3581.0 0.0002793 3391.76807 3403.61279
3400.0 0.0002941 3390.97900 3403.47852
3321.0 0.0003011 3390.18604 3403.48364
3421.0 0.0002923 3389.38940 3403.63672
3419.0 0.0002925 3388.58862 3403.95972
3525.0 0.0002837 3387.78418 3404.48633
3441.0 0.0002906 3386.97559 3405.26318
3385.0 0.0002954 3386.16309 3406.36499
3284.0 0.0003045 3385.34644 3407.89795
3259.0 0.0003068 3384.52563 3409.96411
3526.0 0.0002836 3383.70093 3412.81860
3427.0 0.0002918 3382.87183 3416.61719
3520.0 0.0002841 3382.03882 3422.11304
3424.0 0.0002921 3381.20117 3428.41528
3478.0 0.0002875 3380.35986 3435.92969
3547.0 0.0002819 3379.51392 3445.37720
3386.0 0.0002953 3378.66406 3456.47852
3476.0 0.0002877 3377.81006 3469.14648
3421.0 0.0002923 3376.95117 3483.15649
3380.0 0.0002959 3376.08862 3498.10181
3501.0 0.0002856 3375.22119 3513.32886
3473.0 0.0002879 3374.35010 3527.85449
3449.0 0.0002899 3373.47412 3540.33081
3562.0 0.0002807 3372.59424 3549.16748
3611.0 0.0002769 3371.70972 3552.89136
3558.0 0.0002811 3370.82129 3550.66528
3602.0 0.0002776 3369.92847 3542.66064
3629.0 0.0002756 3369.03101 3529.98633
3443.0 0.0002904 3368.12964 3514.23511
3493.0 0.0002863 3367.22363 3496.98828
3489.0 0.0002866 3366.31348 3479.52710
3308.0 0.0003023 3365.39893 3462.76270
3401.0 0.0002940 3364.48047 3447.25732
3395.0 0.0002946 3363.55786 3433.34131
3412.0 0.0002931 3362.63037 3421.14722
3382.0 0.0002957 3361.69946 3410.67017
3283.0 0.0003046 3360.76367 3401.80811
3373.0 0.0002965 3359.82446 3394.39624
3390.0 0.0002950 3358.88037 3388.23560
3389.0 0.0002951 3357.93286 3383.12085
3415.0 0.0002928 3356.98096 3378.85400
3335.0 0.0002999 3356.02539 3375.26050
3307.0 0.0003024 3355.06592 3372.19238
3365.0 0.0002972 3354.10181 3369.52734
3233.0 0.0003093 3353.13452 3367.16968
3423.0 0.0002921 3352.16284 3365.04688
3421.0 0.0002923 3351.18799 3363.10303
3402.0 0.0002939 3350.20874 3361.29907
3288.0 0.0003041 3349.22632 3359.60425
3329.0 0.0003004 3348.23975 3357.99878
3449.0 0.0002899 3347.25000 3356.46582
3428.0 0.0002917 3346.25684 3354.99365
3368.0 0.0002969 3345.26001 3353.57178
3364.0 0.0002973 3344.26001 3352.19458
3274.0 0.0003054 3343.25610 3350.85498
3309.0 0.0003022 3342.24951 3349.54858
3220.0 0.0003106 3341.23926 3348.27222
3416.0 0.0002927 3340.22632 3347.13062
3350.0 0.0002985 3339.21045 3345.90356
3365.0 0.0002972 3338.19092 3344.69580
3389.0 0.0002951 3337.16919 3343.50757
3256.0 0.0003071 3336.14429 3342.33569
3445.0 0.0002903 3335.11670 3341.13599
3328.0 0.0003005 3334.08618 3339.99341
3288.0 0.0003041 3333.05371 3338.86377
3483.0 0.0002871 3332.01831 3337.74609
3419.0 0.0002925 3330.98071 3336.63965
3353.0 0.0002982 3329.94092 3335.54370
3212.0 0.0003113 3328.89868 3334.45703
3292.0 0.0003038 3327.85474 3333.38086
3333.0 0.0003000 3326.80835 3332.31323
3291.0 0.0003039 3325.76025 3331.25537
3336.0 0.0002998 3324.71021 3330.45898
3395.0 0.0002946 3323.65869 3329.42334
3340.0 0.0002994 3322.60522 3328.39551
3412.0 0.0002931 3321.55054 3327.37842
3375.0 0.0002963 3320.49487 3326.37036
3294.0 0.0003036 3319.43726 3325.37109
3283.0 0.0003046 3318.37891 3324.38330
3355.0 0.0002981 3317.31909 3323.40430
3307.0 0.0003024 3316.25879 3322.43823
3305.0 0.0003026 3315.19727 3321.48193
3332.0 0.0003001 3314.13525 3320.53931
3278.0 0.0003051 3313.07275 3319.61011
3314.0 0.0003018 3312.00952 3318.63989
3256.0 0.0003071 3310.94604 3317.74170
3302.0 0.0003028 3309.88232 3316.86060
3255.0 0.0003072 3308.81860 3315.99707
3307.0 0.0003024 3307.75439 3315.15381
3355.0 0.0002981 3306.69092 3314.33862
3380.0 0.0002959 3305.62744 3313.54370
3274.0 0.0003054 3304.56445 3312.77881
3286.0 0.0003043 3303.50195 3312.04565
3433.0 0.0002913 3302.43994 3311.35327
3280.0 0.0003049 3301.37891 3310.70581
3563.0 0.0002807 3300.31836 3310.10962
3432.0 0.0002914 3299.25928 3309.58984
3347.0 0.0002988 3298.20093 3309.15894
3264.0 0.0003064 3297.14404 3308.83179
3418.0 0.0002926 3296.08838 3308.65112
3349.0 0.0002986 3295.03442 3308.64453
3314.0 0.0003018 3293.98218 3308.85498
3350.0 0.0002985 3292.93140 3309.32739
3323.0 0.0003009 3291.88281 3310.07642
3338.0 0.0002996 3290.83569 3311.22705
3366.0 0.0002971 3289.79126 3312.78833
3283.0 0.0003046 3288.74854 3314.79883
3226.0 0.0003100 3287.70874 3317.28418
3298.0 0.0003032 3286.67163 3320.24854
3319.0 0.0003013 3285.63647 3323.66504
3369.0 0.0002968 3284.60449 3327.47021
3265.0 0.0003063 3283.57495 3331.54370
3338.0 0.0002996 3282.54907 3335.69751
3373.0 0.0002965 3281.52563 3339.66968
3348.0 0.0002987 3280.50586 3343.15576
3460.0 0.0002890 3279.48901 3345.87891
3374.0 0.0002964 3278.47607 3347.69873
3387.0 0.0002952 3277.46655 3348.66943
3352.0 0.0002983 3276.46045 3349.06763
3436.0 0.0002910 3275.45874 3349.23682
3392.0 0.0002948 3274.46021 3349.50977
3409.0 0.0002933 3273.46606 3350.12378
3371.0 0.0002966 3272.47583 3351.18481
3257.0 0.0003070 3271.49023 3352.66650
3359.0 0.0002977 3270.50854 3354.40674
3503.0 0.0002855 3269.53125 3356.17773
3380.0 0.0002959 3268.55884 3358.08057
3330.0 0.0003003 3267.59058 3359.39722
3324.0 0.0003008 3266.62744 3360.60840
3243.0 0.0003084 3265.66846 3362.13721
3469.0 0.0002883 3264.71509 3364.58521
3280.0 0.0003049 3263.76611 3368.60059
3340.0 0.0002994 3262.82251 3374.78442
3365.0 0.0002972 3261.88379 3383.62744
3252.0 0.0003075 3260.95020 3395.48291
3562.0 0.0002807 3260.02197 3410.53906
3258.0 0.0003069 3259.09888 3428.78589
3483.0 0.0002871 3258.18140 3449.95850
3388.0 0.0002952 3257.26904 3473.46875
3422.0 0.0002922 3256.36255 3498.31396
3613.0 0.0002768 3255.46118 3522.97876
3479.0 0.0002874 3254.56592 3545.37671
3589.0 0.0002786 3253.67603 3562.97559
3523.0 0.0002838 3252.79175 3573.22900
3542.0 0.0002823 3251.91333 3574.29175
3673.0 0.0002723 3251.04053 3565.70361
3485.0 0.0002869 3250.17358 3548.56543
3509.0 0.0002850 3249.31226 3525.08008
3672.0 0.0002723 3248.45728 3497.79956
3477.0 0.0002876 3247.60767 3469.01978
3525.0 0.0002837 3246.76416 3440.50342
3449.0 0.0002899 3245.92651 3413.49414
3455.0 0.0002894 3245.09473 3388.75854
3320.0 0.0003012 3244.26880 3366.72290
3293.0 0.0003037 3243.44849 3347.55029
3407.0 0.0002935 3242.63452 3331.21338
3306.0 0.0003025 3241.82593 3317.25781
3297.0 0.0003033 3241.02368 3305.99927
3241.0 0.0003085 3240.22705 3296.83325
3346.0 0.0002989 3239.43604 3289.42627
3449.0 0.0002899 3238.65112 3283.44971
3333.0 0.0003000 3237.87158 3278.59570
3166.0 0.0003159 3237.09790 3274.59521
3256.0 0.0003071 3236.32959 3271.22168
3266.0 0.0003062 3235.56714 3268.30664
3428.0 0.0002917 3234.81006 3265.73267
3192.0 0.0003133 3234.05859 3263.43433
3256.0 0.0003071 3233.31250 3261.37939
3244.0 0.0003083 3232.57153 3259.55713
3199.0 0.0003126 3231.83618 3257.98608
3304.0 0.0003027 3231.10571 3256.65137
3247.0 0.0003080 3230.38037 3255.58691
3210.0 0.0003115 3229.65991 3254.82031
3266.0 0.0003062 3228.94434 3254.38843
3285.0 0.0003044 3228.23364 3254.33350
3362.0 0.0002974 3227.52759 3254.70557
3129.0 0.0003196 3226.82642 3255.56006
3344.0 0.0002990 3226.12915 3256.94971
3272.0 0.0003056 3225.43652 3258.92529
3249.0 0.0003078 3224.74780 3261.52588
3335.0 0.0002999 3224.06348 3264.77222
3261.0 0.0003067 3223.38306 3268.66016
3211.0 0.0003114 3222.70630 3273.15161
3220.0 0.0003106 3222.03345 3278.15649
3168.0 0.0003157 3221.36353 3283.52490
3383.0 0.0002956 3220.69751 3289.02710
3170.0 0.0003155 3220.03418 3294.34399
3186.0 0.0003139 3219.37427 3299.40186
3184.0 0.0003141 3218.71680 3303.20728
3282.0 0.0003047 3218.06226 3305.83032
3402.0 0.0002939 3217.41016 3307.29150
3256.0 0.0003071 3216.76050 3307.90796
3294.0 0.0003036 3216.11255 3308.20898
3307.0 0.0003024 3215.46680 3308.78809
3189.0 0.0003136 3214.82275 3310.17529
3378.0 0.0002960 3214.18018 3312.75928
3290.0 0.0003040 3213.53906 3316.76025
3362.0 0.0002974 3212.89868 3322.22241
3337.0 0.0002997 3212.25977 3328.99878
3363.0 0.0002974 3211.62109 3336.73242
3287.0 0.0003042 3210.98291 3344.83691
3288.0 0.0003041 3210.34546 3352.43481
3253.0 0.0003074 3209.70752 3358.47290
3297.0 0.0003033 3209.06958 3361.83984
3375.0 0.0002963 3208.43115 3361.65747
3447.0 0.0002901 3207.79224 3357.57764
3311.0 0.0003020 3207.15234 3349.90015
3359.0 0.0002977 3206.51147 3339.43384
3239.0 0.0003087 3205.86914 3327.20557
3381.0 0.0002958 3205.22485 3314.19141
3356.0 0.0002980 3204.57935 3301.17578
3358.0 0.0002978 3203.93140 3288.71802
3328.0 0.0003005 3203.28125 3277.18530
3240.0 0.0003086 3202.62842 3266.78906
3229.0 0.0003097 3201.97290 3257.62427
3275.0 0.0003053 3201.31421 3249.69678
3276.0 0.0003053 3200.65234 3242.94751
3203.0 0.0003122 3199.98682 3237.51294
3215.0 0.0003110 3199.31763 3232.77100
3211.0 0.0003114 3198.64429 3228.81250
3279.0 0.0003050 3197.96680 3225.51904
3186.0 0.0003139 3197.28467 3222.69092
3120.0 0.0003205 3196.59766 3220.25024
3167.0 0.0003158 3195.90576 3218.11328
3238.0 0.0003088 3195.20850 3216.21924
3279.0 0.0003050 3194.50586 3214.52808
3172.0 0.0003153 3193.79761 3213.00977
3239.0 0.0003087 3193.08325 3211.64258
3129.0 0.0003196 3192.36279 3210.41260
3150.0 0.0003175 3191.63550 3209.30884
3362.0 0.0002974 3190.90186 3208.32544
3134.0 0.0003191 3190.16138 3207.45923
3189.0 0.0003136 3189.41382 3206.70947
3213.0 0.0003112 3188.65894 3206.07983
3158.0 0.0003167 3187.89624 3205.57983
3240.0 0.0003086 3187.12598 3205.22437
3123.0 0.0003202 3186.34766 3205.03467
3255.0 0.0003072 3185.56128 3205.04272
3252.0 0.0003075 3184.76636 3205.29370
3214.0 0.0003111 3183.96338 3205.85010
3312.0 0.0003019 3183.15112 3206.78735
3222.0 0.0003104 3182.33057 3208.20532
3281.0 0.0003048 3181.50049 3210.22144
3185.0 0.0003140 3180.66138 3212.97021
3289.0 0.0003040 3179.81299 3216.59985
3213.0 0.0003112 3178.95483 3221.26245
3239.0 0.0003087 3178.08716 3227.10400
3163.0 0.0003162 3177.20947 3234.17188
3265.0 0.0003063 3176.32202 3242.69897
3243.0 0.0003084 3175.42432 3252.63013
3403.0 0.0002939 3174.51685 3263.90137
3314.0 0.0003018 3173.59912 3276.33301
3319.0 0.0003013 3172.67065 3289.59546
3281.0 0.0003048 3171.73193 3303.16211
3254.0 0.0003073 3170.78247 3316.27026
3438.0 0.0002909 3169.82300 3327.90405
3201.0 0.0003124 3168.85229 3336.87012
3311.0 0.0003020 3167.87158 3341.97241
3381.0 0.0002958 3166.87988 3342.29150
3509.0 0.0002850 3165.87720 3337.77222
3383.0 0.0002956 3164.86426 3328.83765
3294.0 0.0003036 3163.84009 3316.51880
3204.0 0.0003121 3162.80566 3302.04834
3275.0 0.0003053 3161.76001 3286.57178
3199.0 0.0003126 3160.70435 3271.00537
3335.0 0.0002999 3159.63770 3256.00342
3276.0 0.0003053 3158.56079 3242.00610
3276.0 0.0003053 3157.47339 3229.26831
3201.0 0.0003124 3156.37524 3217.91333
3188.0 0.0003137 3155.26733 3207.96558
3343.0 0.0002991 3154.14893 3199.37085
3169.0 0.0003156 3153.02075 3192.02832
3195.0 0.0003130 3151.88232 3185.80078
3166.0 0.0003159 3150.73462 3180.53906
3226.0 0.0003100 3149.57690 3176.08862
3220.0 0.0003106 3148.41016 3172.30518
3178.0 0.0003147 3147.23438 3168.51660
3193.0 0.0003132 3146.04907 3165.70532
3137.0 0.0003188 3144.85547 3163.22876
3100.0 0.0003226 3143.65259 3161.01221
3197.0 0.0003128 3142.44214 3159.29492
3075.0 0.0003252 3141.22339 3157.44629
3068.0 0.0003259 3139.99707 3155.72949
3032.0 0.0003298 3138.76343 3154.12476
3103.0 0.0003223 3137.52197 3152.61890
3174.0 0.0003151 3136.27417 3151.21094
3177.0 0.0003148 3135.01953 3149.89893
3191.0 0.0003134 3133.75928 3148.68726
3149.0 0.0003176 3132.49243 3147.57910
3262.0 0.0003066 3131.22070 3146.58105
3146.0 0.0003179 3129.94336 3145.69824
3118.0 0.0003207 3128.66211 3144.93726
3104.0 0.0003222 3127.37622 3144.30127
3132.0 0.0003193 3126.08618 3143.79272
3182.0 0.0003143 3124.79297 3143.41211
3167.0 0.0003158 3123.49658 3143.15234
3147.0 0.0003178 3122.19775 3143.01880
3159.0 0.0003166 3120.89648 3142.99805
3192.0 0.0003133 3119.59424 3143.07983
3189.0 0.0003136 3118.29028 3143.25659
3273.0 0.0003055 3116.98608 3143.53809
3184.0 0.0003141 3115.68164 3143.96338
3166.0 0.0003159 3114.37720 3144.61133
3135.0 0.0003190 3113.07422 3145.61011
3060.0 0.0003268 3111.77173 3147.11963
3214.0 0.0003111 3110.47192 3149.32153
3077.0 0.0003250 3109.17407 3152.39380
3140.0 0.0003185 3107.87964 3156.50342
3129.0 0.0003196 3106.58862 3161.78882
3194.0 0.0003131 3105.30127 3168.34521
3194.0 0.0003131 3104.01904 3176.21460
3101.0 0.0003225 3102.74146 3185.36353
3125.0 0.0003200 3101.47021 3195.66504
3111.0 0.0003214 3100.20459 3206.86499
3127.0 0.0003198 3098.94629 3218.55566
3295.0 0.0003035 3097.69507 3230.14404
3197.0 0.0003128 3096.45215 3240.76733
3098.0 0.0003228 3095.21753 3249.42383
3256.0 0.0003071 3093.99194 3255.04199
3262.0 0.0003066 3092.77612 3256.73730
3356.0 0.0002980 3091.57007 3254.09399
3215.0 0.0003110 3090.37476 3247.20410
3232.0 0.0003094 3089.19067 3237.03027
3247.0 0.0003080 3088.01855 3224.49585
3081.0 0.0003246 3086.85815 3210.65112
3280.0 0.0003049 3085.71069 3196.39526
3123.0 0.0003202 3084.57666 3182.40747
3244.0 0.0003083 3083.45581 3169.15991
3136.0 0.0003189 3082.34961 3156.95728
3165.0 0.0003160 3081.25708 3145.96875
3270.0 0.0003058 3080.18042 3136.26563
3152.0 0.0003173 3079.11841 3127.84473
3158.0 0.0003167 3078.07275 3120.64600
3102.0 0.0003224 3077.04297 3114.57544
3100.0 0.0003226 3076.02930 3109.51343
3106.0 0.0003220 3075.03271 3105.33740
3113.0 0.0003212 3074.05298 3101.69922
3092.0 0.0003234 3073.09082 3098.93652
2994.0 0.0003340 3072.14575 3096.72144
3137.0 0.0003188 3071.21899 3094.97119
3171.0 0.0003154 3070.30981 3093.61572
3136.0 0.0003189 3069.41895 3092.60327
3029.0 0.0003301 3068.54614 3091.89331
3014.0 0.0003318 3067.69165 3091.45410
3039.0 0.0003291 3066.85571 3091.26294
3297.0 0.0003033 3066.03760 3091.30249
3067.0 0.0003261 3065.23828 3091.56006
3142.0 0.0003183 3064.45679 3092.02466
3139.0 0.0003186 3063.69385 3092.69360
3058.0 0.0003270 3062.94849 3093.57715
3273.0 0.0003055 3062.22095 3094.71240
3086.0 0.0003240 3061.51123 3096.17603
3124.0 0.0003201 3060.81860 3098.08032
3118.0 0.0003207 3060.14307 3100.59546
3144.0 0.0003181 3059.48364 3103.89063
3169.0 0.0003156 3058.84058 3108.14990
3042.0 0.0003287 3058.21289 3113.53882
3080.0 0.0003247 3057.60083 3120.19263
3075.0 0.0003252 3057.00293 3128.43066
3134.0 0.0003191 3056.41870 3137.83154
3219.0 0.0003107 3055.84814 3148.57104
3131.0 0.0003194 3055.28979 3160.49829
3111.0 0.0003214 3054.74316 3173.33130
3129.0 0.0003196 3054.20703 3186.61987
3217.0 0.0003108 3053.68115 3199.71118
3218.0 0.0003108 3053.16406 3211.73389
3248.0 0.0003079 3052.65527 3221.64746
3145.0 0.0003180 3052.15308 3228.38965
3179.0 0.0003146 3051.65674 3231.11304
3149.0 0.0003176 3051.16504 3229.42554
3176.0 0.0003149 3050.67676 3223.50513
3287.0 0.0003042 3050.19043 3214.01465
3131.0 0.0003194 3049.70483 3201.94458
3207.0 0.0003118 3049.21899 3188.19556
3130.0 0.0003195 3048.73096 3173.71851
3253.0 0.0003074 3048.23950 3159.24731
3126.0 0.0003199 3047.74316 3145.32764
3112.0 0.0003213 3047.24023 3132.33521
3180.0 0.0003145 3046.72949 3120.49927
3189.0 0.0003136 3046.20850 3109.93652
3149.0 0.0003176 3045.67651 3100.66968
3042.0 0.0003287 3045.13110 3092.66089
3024.0 0.0003307 3044.57129 3085.82178
3006.0 0.0003327 3043.99487 3080.03516
2920.0 0.0003425 3043.39966 3075.16968
3147.0 0.0003178 3042.78491 3071.08862
3083.0 0.0003244 3042.14819 3067.66211
3121.0 0.0003204 3041.48804 3064.76587
3117.0 0.0003208 3040.80200 3062.30371
3034.0 0.0003296 3040.08911 3060.18359
3107.0 0.0003219 3039.34717 3058.01587
3079.0 0.0003248 3038.57495 3056.38477
3041.0 0.0003288 3037.77026 3054.92480
3073.0 0.0003254 3036.93115 3053.60059
2970.0 0.0003367 3036.05713 3052.39038
3105.0 0.0003221 3035.14526 3051.27393
3044.0 0.0003285 3034.19531 3050.24048
3002.0 0.0003331 3033.20483 3049.27783
3098.0 0.0003228 3032.17383 3048.37769
3025.0 0.0003306 3031.09961 3047.53101
3133.0 0.0003192 3029.98218 3046.72998
3071.0 0.0003256 3028.82031 3045.96387
3025.0 0.0003306 3027.61279 3045.21948
3101.0 0.0003225 3026.35962 3044.48267
3085.0 0.0003241 3025.05957 3043.73633
3001.0 0.0003332 3023.71338 3042.96899
2991.0 0.0003343 3022.32007 3042.17480
3035.0 0.0003295 3020.88062 3041.36621
2980.0 0.0003356 3019.39502 3040.57495
3044.0 0.0003285 3017.86328 3039.85400
3096.0 0.0003230 3016.28809 3039.27832
3074.0 0.0003253 3014.66895 3038.93188
3044.0 0.0003285 3013.00928 3038.91602
2976.0 0.0003360 3011.30933 3039.34033
2994.0 0.0003340 3009.57324 3040.32910
3186.0 0.0003139 3007.80249 3042.17896
2999.0 0.0003334 3006.00146 3044.70044
3115.0 0.0003210 3004.17358 3048.19556
3029.0 0.0003301 3002.32251 3052.79468
3082.0 0.0003245 3000.45435 3058.61157
3137.0 0.0003188 2998.57300 3065.72241
3019.0 0.0003312 2996.68628 3074.21533
2998.0 0.0003336 2994.79956 3083.94360
3076.0 0.0003251 2992.92139 3094.84180
3118.0 0.0003207 2991.05884 3106.67334
3280.0 0.0003049 2989.22217 3119.06177
3131.0 0.0003194 2987.42041 3131.44312
3072.0 0.0003255 2985.66406 3143.04834
3127.0 0.0003198 2983.96558 3152.91333
3097.0 0.0003229 2982.33667 3159.97388
3224.0 0.0003102 2980.79224 3163.27100
3091.0 0.0003235 2979.34595 3162.20313
3202.0 0.0003123 2978.01465 3156.73413
3060.0 0.0003268 2976.81494 3147.44482
3143.0 0.0003182 2975.76514 3135.20801
3171.0 0.0003154 2974.88550 3121.15527
3112.0 0.0003213 2974.19727 3106.30811
3036.0 0.0003294 2973.72314 3091.50537
3107.0 0.0003219 2973.48706 3077.37671
3109.0 0.0003216 2973.51538 3064.36279
3132.0 . . .
loop_
_refln_index_h
_refln_index_k
_refln_index_l
_refln_observed_status
_refln_F_squared_meas
_refln_F_squared_calc
_refln_phase_calc
_refln_d_spacing
_gsas_i100_meas
1 1 0 o 8808.980 8805.092 180.00 7.12406 13.57
0 0 1 o -1116.889 25.387 180.00 5.10301 0.55
2 0 0 o 625.865 1023.126 0.00 5.03747 0.72
1 1 1 o 25025.223 25287.492 0.00 4.14852 28.45
2 0 1 o 1408.818 1233.508 180.00 3.58498 1.54
2 2 0 o 328.069 14.443 180.00 3.56203 1.44
2 1 1 o 203.543 71.759 0.00 3.37752 0.38
3 1 0 o 13860.321 14194.252 0.00 3.18598 8.77
2 2 1 o 170013.13 170734.28 180.00 2.92084 100.00
3 1 1 o 3702.125 3536.124 180.00 2.70251 3.11
0 0 2 o 88509.52 88473.82 0.00 2.55150 9.36
4 0 0 o 106926.72 106922.08 0.00 2.51874 22.72
3 2 1 o 4348.876 4296.774 0.00 2.45090 4.46
1 1 2 o 2141.888 2251.108 180.00 2.40209 0.66
3 3 0 o 18579.469 17662.189 180.00 2.37469 3.42
2 0 2 o 30.062 180.407 0.00 2.27618 0.03
4 0 1 o 3354.808 3714.034 180.00 2.25860 1.08
4 2 0 o 645.949 704.147 0.00 2.25283 0.28
2 1 2 o 583.480 509.048 0.00 2.22022 0.50
4 1 1 o 2446.911 2390.354 0.00 2.20390 2.02
3 3 1 o 321.001 403.199 0.00 2.15299 0.11
2 2 2 o 4362.563 4017.311 0.00 2.07426 1.25
4 2 1 o 19.064 57.203 180.00 2.06093 0.03
3 1 2 o 16015.249 15824.439 0.00 1.99156 8.63
5 1 0 o 2681.874 2820.058 180.00 1.97586 0.65
3 2 2 o 654.619 507.857 0.00 1.88418 0.40
4 3 1 o 203.369 219.989 180.00 1.87417 0.13
5 1 1 o 16239.156 16161.912 0.00 1.84256 7.45
4 0 2 o 101847.73 102526.25 0.00 1.79249 23.39
4 4 0 o 99928.98 99729.59 0.00 1.78102 11.42
4 1 2 o 47.711 53.879 180.00 1.76477 0.02
5 2 1 o 60.179 79.733 180.00 1.75654 0.03
3 3 2 o 21353.277 21224.371 180.00 1.73831 4.58
5 3 0 o 4387.864 4279.577 0.00 1.72784 0.83
0 0 3 o 2063.154 2345.534 180.00 1.70100 0.11
4 2 2 o 1200.670 815.468 0.00 1.68876 0.63
4 4 1 o 820.028 528.049 180.00 1.68154 0.35
6 0 0 o 0.050 0.786 180.00 1.67916 0.00
1 1 3 o 6357.242 6196.293 0.00 1.65449 1.12
5 3 1 o 9480.935 9348.420 180.00 1.63657 3.47
2 0 3 o 58.042 171.198 180.00 1.61160 0.02
6 0 1 o 1390.640 1425.024 180.00 1.59503 0.32
6 2 0 o 4059.716 4360.307 0.00 1.59299 0.67
2 1 3 o 271.972 338.666 0.00 1.59137 0.12
4 3 2 o 12.703 7.922 180.00 1.58134 0.00
6 1 1 o -13.248 114.220 180.00 1.57540 0.00
5 1 2 o -118.613 61.382 0.00 1.56221 0.17
2 2 3 o 72058.77 71156.73 180.00 1.53496 12.52
6 2 1 o 58421.80 58182.26 180.00 1.52062 19.83
5 2 2 o 235.709 203.931 0.00 1.50874 0.10
5 4 1 o 133.996 135.047 180.00 1.50359 0.06
3 1 3 o 3538.287 3597.352 180.00 1.50053 1.05
4 4 2 o 52195.27 51783.55 0.00 1.46042 8.26
3 2 3 o 482.869 508.019 180.00 1.45296 0.19
6 3 1 o 3.427 4.097 180.00 1.44078 0.00
5 3 2 o 1474.474 1340.975 0.00 1.43067 0.39
5 5 0 o 4396.281 4563.391 0.00 1.42481 0.54
7 1 0 o 5650.287 5768.318 0.00 1.42481 0.76
4 0 3 o -360.995 38.003 180.00 1.40965 0.12
6 0 2 o 131.668 339.783 180.00 1.40266 0.01
6 4 0 o -0.815 0.060 0.00 1.39714 0.00
4 1 3 o 357.536 591.484 180.00 1.39605 0.15
6 1 2 o 536.711 290.543 180.00 1.38926 0.20
3 3 3 o 276.371 6.752 0.00 1.38284 0.10
7 1 1 o 533.871 507.942 180.00 1.37232 0.15
5 5 1 o 18595.021 17607.520 0.00 1.37232 2.79
4 2 3 o 46.227 13.262 180.00 1.35750 0.02
6 2 2 o 353.695 158.946 0.00 1.35126 0.37
6 4 1 o 545.236 514.829 180.00 1.34755 0.20
5 4 2 o 3.941 7.900 0.00 1.33926 0.00
7 2 1 o 454.880 862.140 180.00 1.33566 0.17
7 3 0 o 19901.598 19726.764 180.00 1.32291 2.89
4 3 3 o 134.277 193.517 0.00 1.29979 0.04
6 3 2 o 106.148 116.037 0.00 1.29430 0.04
5 1 3 o 10698.672 10583.987 0.00 1.28911 2.86
7 3 1 o 765.247 529.755 180.00 1.28057 0.42
0 0 4 o 55094.57 57427.93 0.00 1.27575 1.86
8 0 0 o 27123.271 26960.637 0.00 1.25937 1.73
5 2 3 o 217.223 218.644 0.00 1.25857 0.08
1 1 4 o 3090.119 3411.679 180.00 1.25578 0.36
6 5 1 o 673.207 504.448 0.00 1.25063 0.22
7 1 2 o 9863.551 9914.441 0.00 1.24399 2.56
5 5 2 o 41.285 42.048 180.00 1.24399 0.02
2 0 4 o -12.987 33.147 0.00 1.23671 0.00
4 4 3 o 1761.850 2026.603 180.00 1.23010 0.21
2 1 4 o 133.776 95.875 180.00 1.22750 0.04
6 4 2 o 20.811 14.761 180.00 1.22545 0.00
8 0 1 o 838.542 631.735 180.00 1.22268 0.15
8 2 0 o 1714.978 1295.721 0.00 1.22177 0.27
7 2 2 o 171.600 132.743 180.00 1.21649 0.06
7 4 1 o 217.680 173.536 0.00 1.21378 0.07
8 1 1 o 12.116 9.124 180.00 1.21378 0.01
5 3 3 o 3267.984 2909.823 180.00 1.21217 0.76
2 2 4 o 352.206 42.584 0.00 1.20104 0.17
6 0 3 o 628.346 606.822 180.00 1.19499 0.10
8 2 1 o 361.859 384.966 0.00 1.18819 0.08
6 6 0 o 228.220 427.312 0.00 1.18734 0.04
6 1 3 o 8.340 11.453 0.00 1.18667 0.00
3 1 4 o 1640.774 1947.703 0.00 1.18433 0.30
7 3 2 o 7112.323 7152.942 180.00 1.17443 1.68
7 5 0 o 2872.312 3107.250 0.00 1.17119 0.31
6 2 3 o 27353.969 27371.602 180.00 1.16272 6.66
3 2 4 o 20.265 19.420 180.00 1.16052 0.01
6 6 1 o 22592.064 22264.613 180.00 1.15645 2.74
5 4 3 o 9.635 9.178 0.00 1.15506 0.00
6 5 2 o 30.358 38.490 0.00 1.15120 0.01
8 3 1 o 28.568 25.580 180.00 1.14891 0.01
7 5 1 o 1316.870 1294.507 180.00 1.14151 0.28
4 0 4 o 32148.424 31179.941 0.00 1.13809 3.96
4 1 4 o 7.248 7.010 180.00 1.13090 0.00
8 0 2 o 28862.809 28613.977 0.00 1.12930 3.59
8 4 0 o 17018.564 16627.148 0.00 1.12641 2.00
6 3 3 o 395.373 381.175 0.00 1.12584 0.12
3 3 4 o 6115.191 5949.668 180.00 1.12384 0.72
7 4 2 o 12.682 11.975 0.00 1.12227 0.00
8 1 2 o 13.204 12.581 180.00 1.12227 0.00
4 2 4 o 22.963 31.679 0.00 1.11011 0.01
9 1 0 o 184.403 483.224 0.00 1.11259 0.10
8 2 2 o 664.741 836.934 0.00 1.10195 0.20
8 4 1 o 1922.257 1872.349 180.00 1.09994 0.44
5 5 3 o 6779.075 6718.219 0.00 1.09226 0.80
7 1 3 o 125.692 123.885 180.00 1.09226 0.05
9 1 1 o 7153.371 7323.403 0.00 1.08705 1.73
6 4 3 o 190.153 93.072 180.00 1.07964 0.06
4 3 4 o 47.222 32.631 180.00 1.07788 0.01
6 6 2 o 2620.385 2399.348 0.00 1.07649 0.31
7 2 3 o -6.068 58.060 0.00 1.07350 0.00
5 1 4 o 237.083 211.741 180.00 1.07176 0.07
8 3 2 o 40.351 26.450 180.00 1.07040 0.01
9 2 1 o 149.241 80.271 180.00 1.06856 0.05
7 6 1 o 15.644 7.690 0.00 1.06856 0.01
7 5 2 o 2836.058 2959.190 0.00 1.06441 0.64
9 3 0 o 1119.846 1062.110 0.00 1.06199 0.13
5 2 4 o -2.165 6.445 180.00 1.05402 0.00
8 5 1 o 5.942 5.480 0.00 1.04530 0.00
7 3 3 o 138.126 34.468 180.00 1.04427 0.10
9 3 1 o 3069.441 2872.557 180.00 1.03972 0.72
4 4 4 o 17566.000 16402.834 0.00 1.03713 2.16
8 4 2 o 14212.523 14234.790 0.00 1.03046 3.47
6 5 3 o 0.581 1.166 180.00 1.02783 0.00
5 3 4 o 1728.074 2031.253 0.00 1.02631 0.38
0 0 5 o 498.549 275.218 180.00 1.02060 0.03
9 1 2 o 27.464 20.876 180.00 1.01985 0.03
7 7 0 o 7463.263 8457.746 180.00 1.01772 0.47
6 0 4 o 53.765 53.135 180.00 1.01582 0.00
8 0 3 o 1469.573 1536.351 180.00 1.01215 0.18
6 1 4 o 1.324 1.467 0.00 1.01070 0.00
1 1 5 o 2421.431 2380.041 0.00 1.01029 0.29
8 6 0 o 198.566 123.783 0.00 1.00749 0.03
10 0 0 o 2148.339 1442.682 180.00 1.00749 0.16
8 1 3 o 119.290 75.593 0.00 1.00709 0.04
7 4 3 o 182.992 110.374 180.00 1.00709 0.06
7 6 2 o 207.738 123.589 0.00 1.00453 0.07
9 2 2 o 49.852 28.230 180.00 1.00453 0.02
9 4 1 o 399.764 338.126 0.00 1.00300 0.14
2 0 5 o 25.195 12.209 180.00 1.00028 0.01
7 7 1 o 536.303 697.224 180.00 0.99807 0.13
6 2 4 o 1121.232 1281.903 0.00 0.99578 0.28
2 1 5 o 55.528 85.537 180.00 0.99538 0.02
8 2 3 o 373.845 249.774 0.00 0.99232 0.10
5 4 4 o 12.816 6.110 0.00 0.99095 0.00
10 0 1 o 1289.746 1198.312 180.00 0.98842 0.21
8 6 1 o 25.814 24.824 0.00 0.98842 0.00
10 2 0 o 1505.826 1388.144 0.00 0.98793 0.19
8 5 2 o 20.248 18.766 180.00 0.98513 0.01
10 1 1 o 247.699 212.415 0.00 0.98369 0.09
2 2 5 o 16683.994 16470.850 180.00 0.98112 2.21
9 3 2 o 151.152 147.127 0.00 0.98046 0.05
9 5 0 o 679.418 431.915 0.00 0.97857 0.15
6 6 3 o 11620.756 11341.763 180.00 0.97361 1.56
6 3 4 o 115.042 118.903 180.00 0.97232 0.04
3 1 5 o 695.443 723.354 180.00 0.97195 0.16
10 2 1 o 9430.127 9688.652 180.00 0.96992 2.49
8 3 3 o 43.718 45.942 0.00 0.96910 0.01
7 5 3 o 1167.628 1165.272 180.00 0.96465 0.29
9 5 1 o 4923.141 4972.433 0.00 0.96105 1.37
3 2 5 o 3.243 6.241 0.00 0.95866 0.00
7 1 4 o 2532.030 2267.519 0.00 0.95044 0.70
5 5 4 o 405.844 307.768 0.00 0.95044 0.13
9 4 2 o 0.121 0.121 0.00 0.94949 0.00
10 3 1 o 23.097 27.524 0.00 0.94820 0.01
4 0 5 o 430.018 398.388 180.00 0.94590 0.09
7 7 2 o 4698.660 4455.054 180.00 0.94530 0.69
6 4 4 o 1.104 1.118 180.00 0.94209 0.00
4 1 5 o 272.491 314.726 0.00 0.94176 0.10
8 4 3 o 415.950 346.286 180.00 0.93916 0.18
7 2 4 o 50.571 50.760 0.00 0.93800 0.02
3 3 5 o 80.061 84.202 0.00 0.93767 0.02
8 6 2 o 134.531 169.560 0.00 0.93709 0.06
10 0 2 o 191.313 217.549 180.00 0.93709 0.02
10 4 0 o 200.610 184.347 180.00 0.93544 0.03
10 1 2 o 13.647 11.138 0.00 0.93306 0.01
8 7 1 o 52.318 52.614 0.00 0.93184 0.02
9 1 3 o 2447.804 2656.160 0.00 0.93111 0.69
4 2 5 o 12.992 15.234 0.00 0.92965 0.00
10 2 2 o 736.317 546.146 0.00 0.92128 0.28
10 4 1 o 578.859 512.728 180.00 0.92010 0.24
7 6 3 o 8.906 9.152 0.00 0.91940 0.01
9 2 3 o 0.943 0.955 180.00 0.91940 0.00
7 3 4 o 4500.372 4301.277 180.00 0.91831 1.51
9 6 1 o 41.516 34.569 0.00 0.91629 0.02
9 5 2 o 298.814 458.295 0.00 0.91367 0.21
11 1 0 o 3550.385 3707.799 0.00 0.91214 0.61
4 3 5 o 10.428 16.792 180.00 0.91047 0.01
6 5 4 o 28.449 25.331 180.00 0.90708 0.01
5 1 5 o 2626.471 2413.671 0.00 0.90678 0.90
8 5 3 o 2.875 4.489 0.00 0.90446 0.00
10 3 2 o 112.510 79.573 180.00 0.90261 0.05
9 3 3 o 2130.774 2179.593 180.00 0.90084 0.74
11 1 1 o 44.714 8.114 180.00 0.89791 0.05
8 0 4 o 4567.751 4610.649 0.00 0.89624 0.76
5 2 5 o 201.142 202.504 180.00 0.89596 0.10
8 1 4 o 52.059 45.748 180.00 0.89272 0.02
7 4 4 o 4.234 3.776 0.00 0.89272 0.00
8 8 0 o 9105.772 8928.946 0.00 0.89051 0.93
