#------------------------------------------------------------------------------
#$Date: 2021-06-21 11:51:55 +0300 (Mon, 21 Jun 2021) $
#$Revision: 266604 $
#$URL: file:///home/coder/svn-repositories/cod/cif/1/56/36/1563634.cif $
#------------------------------------------------------------------------------
#
# This file is available in the Crystallography Open Database (COD),
# http://www.crystallography.net/
#
# All data on this site have been placed in the public domain by the
# contributors.
#
data_1563634
loop_
_publ_author_name
'Zubkov, Vladimir G.'
'Tarakina, Nadezda V.'
'Leonidov, Ivan I.'
'Tyutyunnik, Alexander P.'
'Surat, Ludmila L.'
'Melkozerova, Marina A.'
'Zabolotskaya, Elena V.'
'Kellerman, Dina G.'
_publ_section_title
;
 Synthesis and crystal structure of Ln2M2+Ge4O12, Ln=rare-earth element or
 Y; M=Ca, Mn, Zn
;
_journal_issue                   5
_journal_name_full               'Journal of Solid State Chemistry'
_journal_page_first              1186
_journal_page_last               1193
_journal_paper_doi               10.1016/j.jssc.2010.03.027
_journal_volume                  183
_journal_year                    2010
_chemical_formula_sum            'Ge2 Lu2 O7'
_chemical_formula_weight         607.11
_space_group_IT_number           92
_space_group_name_Hall           'P 4abw 2nw'
_space_group_name_H-M_alt        'P 41 21 2'
_symmetry_cell_setting           tetragonal
_symmetry_space_group_name_H-M   'P 41 21 2'
_cell_angle_alpha                90.0
_cell_angle_beta                 90.0
_cell_angle_gamma                90.0
_cell_formula_units_Z            4
_cell_length_a                   6.72791(21)
_cell_length_b                   6.72791
_cell_length_c                   12.2192(6)
_cell_volume                     553.10(3)
_diffrn_radiation_polarisn_ratio 0.8
_diffrn_radiation_probe          x-ray
_diffrn_radiation_wavelength     1.54056
_exptl_absorpt_correction_T_max  3.73470
_exptl_absorpt_correction_T_min  1.86897
_exptl_absorpt_process_details
;   GSAS Absorption/surface roughness correction: function number 4
 Flat plate transmission absorption correction
Terms =    -0.40345         0.0000    
Correction is refined.
;
_pd_calc_method                  'Rietveld Refinement'
_pd_meas_2theta_range_inc        0.02
_pd_meas_2theta_range_max        119.98
_pd_meas_2theta_range_min        5.0
_pd_meas_number_of_points        5750
_pd_proc_2theta_range_inc        0.02
_pd_proc_2theta_range_max        119.95322
_pd_proc_2theta_range_min        4.97322
_pd_proc_info_datetime           2010-02-27T12:28:24
_pd_proc_ls_background_function
;   GSAS Background function number 1 with 36 terms.
 Shifted Chebyshev function of 1st kind
      1:    1744.56     2:   -1165.81     3:    753.784     4:   -392.443    
      5:    107.438     6:    9.59631     7:   -36.3147     8:    16.6139    
      9:    1.01282    10:   -20.8820    11:    1.96294    12:    8.26891    
     13:   -14.8965    14:    9.53293    15:   -13.1690    16:   -7.20140    
     17:    19.5124    18:   -17.6684    19:   -3.78013    20:    15.1930    
     21:   -19.6539    22:    22.4970    23:   -18.5923    24:    6.54791    
     25:    10.8121    26:   -14.7646    27:    17.3577    28:   -6.95230    
     29:    3.33668    30:    12.2815    31:   -12.1847    32:    13.1542    
     33:   -2.75204    34:   -6.56799    35:    11.5404    36:   -2.53151    
;
_pd_proc_ls_prof_R_factor        0.0229
_pd_proc_ls_prof_wR_expected     0.0227
_pd_proc_ls_prof_wR_factor       0.0301
_pd_proc_number_of_points        5750
_refine_ls_R_Fsqd_factor         0.02407
_reflns_d_resolution_high        0.891
_reflns_d_resolution_low         6.933
_reflns_limit_h_max              11
_reflns_limit_h_min              0
_reflns_limit_k_max              7
_reflns_limit_k_min              0
_reflns_limit_l_max              14
_reflns_limit_l_min              0
_reflns_number_total             484
_cod_data_source_file            LU2MNGE4O12.cif
_cod_data_source_block           LU2MNGE4O12_phase_2
_cod_depositor_comments
;
The following automatic conversions were performed:

data item '_geom_angle_publ_flag' value 'N' was changed to 'n' in
accordance with the built-in table derived from the CIF Core
dictionary named 'cif_core.dic' version 2.4.5 last updated on
2014-11-21 (40 times).

data item '_geom_bond_publ_flag' value 'N' was changed to 'n' in
accordance with the built-in table derived from the CIF Core
dictionary named 'cif_core.dic' version 2.4.5 last updated on
2014-11-21 (30 times).

Automatic conversion script
Id: cif_fix_values 8369 2020-08-20 11:38:08Z andrius 
;
_cod_original_cell_volume        553.10(4)
_cod_database_code               1563634
_gsas_exptl_extinct_corr_t_min   1.00000
_gsas_exptl_extinct_corr_t_max   1.00000
loop_
_symmetry_equiv_pos_site_id
_symmetry_equiv_pos_as_xyz
1 +x,+y,+z
2 -y+1/2,+x+1/2,+z+1/4
3 -x,-y,+z+1/2
4 +y+1/2,-x+1/2,+z+3/4
5 -x+1/2,+y+1/2,-z+1/4
6 -y,-x,-z+1/2
7 +x+1/2,-y+1/2,-z+3/4
8 +y,+x,-z
loop_
_atom_site_type_symbol
_atom_site_label
_atom_site_fract_x
_atom_site_fract_y
_atom_site_fract_z
_atom_site_occupancy
_atom_site_thermal_displace_type
_atom_site_U_iso_or_equiv
_atom_site_symmetry_multiplicity
Lu Lu 0.8782 0.35 0.6351 1.0 Uiso 0.025 8
Ge Ge 0.4018 0.345 0.6291 1.0 Uiso 0.025 8
O O1 0.0635 0.3368 0.0712 1.0 Uiso 0.025 8
O O2 0.357 0.1889 0.2956 1.0 Uiso 0.025 8
O O3 0.4246 0.4717 0.1249 1.0 Uiso 0.025 8
O O4 0.696 0.696 0.0 1.0 Uiso 0.025 4
loop_
_atom_type_symbol
_atom_type_scat_dispersion_real
_atom_type_scat_dispersion_imag
_atom_type_scat_Cromer_Mann_a1
_atom_type_scat_Cromer_Mann_a2
_atom_type_scat_Cromer_Mann_a3
_atom_type_scat_Cromer_Mann_a4
_atom_type_scat_Cromer_Mann_b1
_atom_type_scat_Cromer_Mann_b2
_atom_type_scat_Cromer_Mann_b3
_atom_type_scat_Cromer_Mann_b4
_atom_type_scat_Cromer_Mann_c
_atom_type_scat_source
Mn 0.000 0.000 11.2819 5.34090 7.35730 0.34320 3.01930 17.8674 2.24410 83.7543
1.08960 International_Tables_Vol_C
Lu 0.000 0.000 28.9476 1.90182 15.2208 9.98519 15.1000 0.26103 3.71601 84.3298
7.97628 International_Tables_Vol_C
Ge 0.000 0.000 16.0816 2.85090 6.37470 0.25160 3.70680 11.4468 3.68300 54.7625
2.13130 International_Tables_Vol_C
O 0.000 0.000 3.04850 13.2771 2.28680 5.70110 1.54630 0.32390 0.86700 32.9089
0.25080 International_Tables_Vol_C
loop_
_geom_angle_atom_site_label_1
_geom_angle_atom_site_label_2
_geom_angle_atom_site_label_3
_geom_angle
_geom_angle_site_symmetry_1
_geom_angle_site_symmetry_2
_geom_angle_site_symmetry_3
_geom_angle_publ_flag
O1 Lu O1 97.0145(18) 3_665 . 4_555 n
O1 Lu O1 132.67470(20) 3_665 . 7_555 n
O1 Lu O2 77.3090(15) 3_665 . 7_555 n
O1 Lu O2 87.1264(9) 3_665 . 8_656 n
O1 Lu O3 70.238 3_665 . 3_665 n
O1 Lu O3 150.3705(10) 3_665 . 7_555 n
O1 Lu O1 79.6239(8) 4_555 . 7_555 n
O1 Lu O2 167.0991(7) 4_555 . 7_555 n
O1 Lu O2 75.1039(16) 4_555 . 8_656 n
O1 Lu O3 79.8919(9) 4_555 . 3_665 n
O1 Lu O3 108.2867(7) 4_555 . 7_555 n
O1 Lu O2 95.6036(11) 7_555 . 7_555 n
O1 Lu O2 135.2013(14) 7_555 . 8_656 n
O1 Lu O3 62.66190(20) 7_555 . 3_665 n
O1 Lu O3 68.81690(20) 7_555 . 7_555 n
O2 Lu O2 115.7072(10) 7_555 . 8_656 n
O2 Lu O3 87.26360(20) 7_555 . 3_665 n
O2 Lu O3 80.66270(20) 7_555 . 7_555 n
O2 Lu O3 143.7619(4) 8_656 . 3_665 n
O2 Lu O3 84.80740(20) 8_656 . 7_555 n
O3 Lu O3 128.3487 3_665 . 7_555 n
O1 Ge O2 111.6584(20) 7_555 . 8_556 n
O1 Ge O3 95.2007 7_555 . 3_665 n
O1 Ge O4 116.2386(8) 7_555 . 3_665 n
O2 Ge O3 124.0259(5) 8_556 . 3_665 n
O2 Ge O4 100.3717(27) 8_556 . 3_665 n
O3 Ge O4 110.4459(13) 3_665 . 3_665 n
Lu O1 Lu 100.2593(17) 2_544 . 3_664 n
Lu O1 Lu 93.1972(12) 2_544 . 7_455 n
Lu O1 Ge 124.79050(30) 2_544 . 7_455 n
Lu O1 Lu 104.1076(7) 3_664 . 7_455 n
Lu O1 Ge 129.4349(17) 3_664 . 7_455 n
Lu O1 Ge 95.7657(6) 7_455 . 7_455 n
Lu O2 Lu 105.3365(16) 7_455 . 8_546 n
Lu O2 Ge 129.5504(12) 7_455 . 8_556 n
Lu O2 Ge 125.1088(28) 8_546 . 8_556 n
Lu O3 Lu 112.3966 3_664 . 7_455 n
Lu O3 Ge 102.8343 3_664 . 3_664 n
Lu O3 Ge 144.7682 7_455 . 3_664 n
Ge O4 Ge 135.1600(24) 3_664 . 6_665 n
loop_
_geom_bond_atom_site_label_1
_geom_bond_atom_site_label_2
_geom_bond_distance
_geom_bond_site_symmetry_1
_geom_bond_site_symmetry_2
_geom_bond_publ_flag
Lu Lu 3.56534(14) . 2_645 n
Lu Lu 3.56534(14) . 4_564 n
Lu Lu 3.78852(12) . 5_646 n
Lu Lu 3.78852(12) . 5_656 n
Lu Lu 3.54951(12) . 6_666 n
Lu Ge 3.20619(10) . 1_555 n
Lu O1 2.28117(6) . 3_665 n
Lu O1 2.36374(11) . 4_555 n
Lu O1 2.51942(7) . 7_555 n
Lu O2 2.22803(11) . 7_555 n
Lu O2 2.25585(6) . 8_656 n
Lu O3 2.36744(7) . 3_665 n
Lu O3 2.19018(7) . 7_555 n
Ge Lu 3.20619(10) . 1_555 n
Ge O1 1.74596(5) . 7_555 n
Ge O2 1.70435(5) . 8_556 n
Ge O3 1.69930(5) . 3_665 n
Ge O4 1.73134(8) . 3_665 n
O1 Lu 2.36374(11) . 2_544 n
O1 Lu 2.28117(6) . 3_664 n
O1 Lu 2.51942(7) . 7_455 n
O1 Ge 1.74596(5) . 7_455 n
O2 Lu 2.22803(11) . 7_455 n
O2 Lu 2.25585(6) . 8_546 n
O2 Ge 1.70435(5) . 8_556 n
O3 Lu 2.36744(7) . 3_664 n
O3 Lu 2.19018(7) . 7_455 n
O3 Ge 1.69930(5) . 3_664 n
O4 Ge 1.73134(8) . 3_664 n
O4 Ge 1.73134(8) . 6_665 n
loop_
_pd_meas_counts_total
_pd_proc_ls_weight
_pd_proc_intensity_bkg_calc
_pd_calc_intensity_total
4002.0 0.0002499 4071.10938 4071.11060
4009.0 0.0002494 4071.79224 4071.79297
4099.0 0.0002440 4072.54858 4072.54932
4024.0 0.0002485 4073.35620 4073.35645
4097.0 0.0002441 4074.19434 4074.19458
4110.0 0.0002433 4075.04395 4075.04395
4089.0 0.0002446 4075.88794 4075.88794
4175.0 0.0002395 4076.71045 4076.71045
4041.0 0.0002475 4077.49707 4077.49683
4088.0 0.0002446 4078.23511 4078.23486
4183.0 0.0002391 4078.91235 4078.91187
4097.0 0.0002441 4079.51880 4079.51831
4089.0 0.0002446 4080.04443 4080.04419
4075.0 0.0002454 4080.48145 4080.48120
3988.0 0.0002508 4080.82275 4080.82227
4071.0 0.0002456 4081.06128 4081.06079
4205.0 0.0002378 4081.19189 4081.19165
4028.0 0.0002483 4081.20972 4081.20947
4071.0 0.0002456 4081.11108 4081.11084
4099.0 0.0002440 4080.89282 4080.89233
4172.0 0.0002397 4080.55200 4080.55176
4085.0 0.0002448 4080.08716 4080.08667
4089.0 0.0002446 4079.49634 4079.49609
4035.0 0.0002478 4078.77954 4078.77930
4075.0 0.0002454 4077.93579 4077.93555
4058.0 0.0002464 4076.96533 4076.96509
4122.0 0.0002426 4075.86914 4075.86890
3957.0 0.0002527 4074.64746 4074.64722
4072.0 0.0002456 4073.30200 4073.30200
4001.0 0.0002499 4071.83447 4071.83423
4044.0 0.0002473 4070.24658 4070.24634
4114.0 0.0002431 4068.54028 4068.54028
4064.0 0.0002461 4066.71802 4066.71802
4087.0 0.0002447 4064.78296 4064.78296
4044.0 0.0002473 4062.73706 4062.73730
4013.0 0.0002492 4060.58423 4060.58423
3979.0 0.0002513 4058.32642 4058.32666
4095.0 0.0002442 4055.96753 4055.96777
4127.0 0.0002423 4053.51099 4053.51147
4074.0 0.0002455 4050.95996 4050.96021
4060.0 0.0002463 4048.31812 4048.31836
4079.0 0.0002452 4045.58862 4045.58887
4054.0 0.0002467 4042.77539 4042.77563
4048.0 0.0002470 4039.88208 4039.88257
4075.0 0.0002454 4036.91211 4036.91235
4038.0 0.0002476 4033.86938 4033.86987
3905.0 0.0002561 4030.75708 4030.75757
4050.0 0.0002469 4027.57935 4027.57983
4037.0 0.0002477 4024.33960 4024.34009
4035.0 0.0002478 4021.04126 4021.04175
3958.0 0.0002527 4017.68799 4017.68872
4009.0 0.0002494 4014.28345 4014.28394
4074.0 0.0002455 4010.83081 4010.83130
3965.0 0.0002522 4007.33350 4007.33398
3975.0 0.0002516 4003.79468 4003.79517
4094.0 0.0002443 4000.21802 4000.21851
3925.0 0.0002548 3996.60645 3996.60693
3982.0 0.0002511 3992.96313 3992.96362
4036.0 0.0002478 3989.29077 3989.29126
3975.0 0.0002516 3985.59277 3985.59326
4081.0 0.0002450 3981.87134 3981.87183
4003.0 0.0002498 3978.12988 3978.13037
4001.0 0.0002499 3974.37085 3974.37134
4000.0 0.0002500 3970.59668 3970.59717
3863.0 0.0002589 3966.81030 3966.81079
3881.0 0.0002577 3963.01343 3963.01392
3952.0 0.0002530 3959.20874 3959.20923
3975.0 0.0002516 3955.39868 3955.39917
3927.0 0.0002546 3951.58472 3951.58521
3998.0 0.0002501 3947.76953 3947.77002
3950.0 0.0002532 3943.95483 3943.95508
3878.0 0.0002579 3940.14233 3940.14258
3863.0 0.0002589 3936.33350 3936.33398
4004.0 0.0002498 3932.53052 3932.53101
3903.0 0.0002562 3928.73511 3928.73535
3902.0 0.0002563 3924.94775 3924.94824
4000.0 0.0002500 3921.17114 3921.17139
3941.0 0.0002537 3917.40552 3917.40576
3933.0 0.0002543 3913.65234 3913.65259
3885.0 0.0002574 3909.91333 3909.91357
3921.0 0.0002550 3906.18872 3906.18896
3784.0 0.0002643 3902.48022 3902.48022
3914.0 0.0002555 3898.78809 3898.78833
3845.0 0.0002601 3895.11377 3895.11401
3905.0 0.0002561 3891.45752 3891.45752
3975.0 0.0002516 3887.82007 3887.82007
3918.0 0.0002552 3884.20264 3884.20264
3913.0 0.0002556 3880.60474 3880.60474
3860.0 0.0002591 3877.02808 3877.02808
3941.0 0.0002537 3873.47192 3873.47192
3775.0 0.0002649 3869.93726 3869.93726
3924.0 0.0002548 3866.42456 3866.42456
3972.0 0.0002518 3862.93359 3862.93335
3900.0 0.0002564 3859.46484 3859.46484
3812.0 0.0002623 3856.01855 3856.01831
3865.0 0.0002587 3852.59473 3852.59448
3779.0 0.0002646 3849.19312 3849.19287
3914.0 0.0002555 3845.81396 3845.81396
3877.0 0.0002579 3842.45776 3842.45752
3810.0 0.0002625 3839.12354 3839.12329
3805.0 0.0002628 3835.81201 3835.81201
3608.0 0.0002772 3832.52246 3832.52222
3827.0 0.0002613 3829.25513 3829.25488
3708.0 0.0002697 3826.00952 3826.00928
3800.0 0.0002632 3822.78540 3822.78516
3873.0 0.0002582 3819.58301 3819.58276
3861.0 0.0002590 3816.40137 3816.40112
3854.0 0.0002595 3813.24097 3813.24072
3791.0 0.0002638 3810.10059 3810.10034
3876.0 0.0002580 3806.98047 3806.98022
3765.0 0.0002656 3803.88037 3803.88013
3736.0 0.0002677 3800.79956 3800.79932
3847.0 0.0002599 3797.73804 3797.73755
3767.0 0.0002655 3794.69482 3794.69434
3767.0 0.0002655 3791.66992 3791.66943
3783.0 0.0002643 3788.66309 3788.66284
3737.0 0.0002676 3785.67334 3785.67310
3837.0 0.0002606 3782.70117 3782.70093
3814.0 0.0002622 3779.74512 3779.74487
3734.0 0.0002678 3776.80542 3776.80493
3660.0 0.0002732 3773.88159 3773.88110
3891.0 0.0002570 3770.97266 3770.97217
3738.0 0.0002675 3768.07886 3768.07837
3758.0 0.0002661 3765.19922 3765.19897
3862.0 0.0002589 3762.33374 3762.33350
3767.0 0.0002655 3759.48169 3759.48145
3809.0 0.0002625 3756.64282 3756.64258
3765.0 0.0002656 3753.81689 3753.81665
3713.0 0.0002693 3751.00293 3751.00269
3748.0 0.0002668 3748.20117 3748.20093
3754.0 0.0002664 3745.41064 3745.41040
3609.0 0.0002771 3742.63159 3742.63135
3771.0 0.0002652 3739.86279 3739.86255
3711.0 0.0002695 3737.10474 3737.10449
3775.0 0.0002649 3734.35669 3734.35620
3833.0 0.0002609 3731.61792 3731.61768
3808.0 0.0002626 3728.88892 3728.88867
3805.0 0.0002628 3726.16870 3726.16846
3692.0 0.0002709 3723.45703 3723.45679
3732.0 0.0002680 3720.75415 3720.75391
3820.0 0.0002618 3718.05884 3718.05859
3742.0 0.0002672 3715.37183 3715.37183
3748.0 0.0002668 3712.69214 3712.69189
3651.0 0.0002739 3710.01978 3710.01978
3728.0 0.0002682 3707.35474 3707.35449
3719.0 0.0002689 3704.69629 3704.69604
3694.0 0.0002707 3702.04468 3702.04468
3648.0 0.0002741 3699.39941 3699.39941
3616.0 0.0002765 3696.76074 3696.76074
3739.0 0.0002675 3694.12793 3694.12793
3683.0 0.0002715 3691.50122 3691.50098
3689.0 0.0002711 3688.88037 3688.88013
3700.0 0.0002703 3686.26489 3686.26489
3630.0 0.0002755 3683.65552 3683.65552
3745.0 0.0002670 3681.05151 3681.05151
3732.0 0.0002680 3678.45288 3678.45288
3722.0 0.0002687 3675.85986 3675.85986
3728.0 0.0002682 3673.27173 3673.27197
3666.0 0.0002728 3670.68945 3670.68945
3750.0 0.0002667 3668.11206 3668.11206
3677.0 0.0002720 3665.54028 3665.54028
3696.0 0.0002706 3662.97339 3662.97363
3699.0 0.0002703 3660.41187 3660.41187
3660.0 0.0002732 3657.85571 3657.85596
3626.0 0.0002758 3655.30493 3655.30493
3598.0 0.0002779 3652.75952 3652.75952
3691.0 0.0002709 3650.21924 3650.21948
3645.0 0.0002743 3647.68457 3647.68481
3690.0 0.0002710 3645.15576 3645.15601
3648.0 0.0002741 3642.63232 3642.63257
3618.0 0.0002764 3640.11475 3640.11499
3708.0 0.0002697 3637.60278 3637.60303
3637.0 0.0002750 3635.09717 3635.09741
3777.0 0.0002648 3632.59741 3632.59766
3644.0 0.0002744 3630.10376 3630.10400
3587.0 0.0002788 3627.61646 3627.61694
3643.0 0.0002745 3625.13550 3625.13599
3634.0 0.0002752 3622.66162 3622.66187
3580.0 0.0002793 3620.19409 3620.19434
3549.0 0.0002818 3617.73364 3617.73413
3655.0 0.0002736 3615.28003 3615.28052
3586.0 0.0002789 3612.83398 3612.83447
3510.0 0.0002849 3610.39526 3610.39575
3615.0 0.0002766 3607.96411 3607.96460
3656.0 0.0002735 3605.54077 3605.54102
3562.0 0.0002807 3603.12524 3603.12573
3681.0 0.0002717 3600.71777 3600.71826
3679.0 0.0002718 3598.31909 3598.31958
3574.0 0.0002798 3595.92847 3595.92896
3580.0 0.0002793 3593.54663 3593.54712
3587.0 0.0002788 3591.17358 3591.17407
3553.0 0.0002815 3588.80981 3588.81030
3615.0 0.0002766 3586.45508 3586.45557
3578.0 0.0002795 3584.10962 3584.11011
3523.0 0.0002838 3581.77393 3581.77466
3521.0 0.0002840 3579.44800 3579.44849
3551.0 0.0002816 3577.13208 3577.13257
3574.0 0.0002798 3574.82617 3574.82666
3552.0 0.0002815 3572.53027 3572.53101
3560.0 0.0002809 3570.24536 3570.24585
3515.0 0.0002845 3567.97070 3567.97119
3507.0 0.0002851 3565.70703 3565.70776
3635.0 0.0002751 3563.45410 3563.45483
3535.0 0.0002829 3561.21240 3561.21289
3540.0 0.0002825 3558.98193 3558.98267
3543.0 0.0002822 3556.76270 3556.76343
3560.0 0.0002809 3554.55542 3554.55591
3525.0 0.0002837 3552.35938 3552.35986
3542.0 0.0002823 3550.17529 3550.17578
3499.0 0.0002858 3548.00293 3548.00342
3492.0 0.0002864 3545.84253 3545.84302
3462.0 0.0002889 3543.69434 3543.69507
3627.0 0.0002757 3541.55811 3541.55884
3463.0 0.0002888 3539.43457 3539.43506
3477.0 0.0002876 3537.32300 3537.32373
3465.0 0.0002886 3535.22412 3535.22461
3460.0 0.0002890 3533.13770 3533.13818
3593.0 0.0002783 3531.06348 3531.06421
3449.0 0.0002899 3529.00220 3529.00293
3485.0 0.0002869 3526.95337 3526.95410
3427.0 0.0002918 3524.91748 3524.91821
3393.0 0.0002947 3522.89380 3522.89453
3400.0 0.0002941 3520.88306 3520.88354
3572.0 0.0002800 3518.88501 3518.88550
3545.0 0.0002821 3516.89941 3516.90015
3496.0 0.0002860 3514.92676 3514.92725
3530.0 0.0002833 3512.96631 3512.96680
3491.0 0.0002865 3511.01855 3511.01904
3470.0 0.0002882 3509.08350 3509.08398
3471.0 0.0002881 3507.16064 3507.16113
3495.0 0.0002861 3505.25049 3505.25098
3540.0 0.0002825 3503.35229 3503.35278
3497.0 0.0002860 3501.46631 3501.46680
3437.0 0.0002910 3499.59277 3499.59326
3511.0 0.0002848 3497.73096 3497.73145
3445.0 0.0002903 3495.88110 3495.88159
3445.0 0.0002903 3494.04272 3494.04321
3424.0 0.0002921 3492.21655 3492.21680
3558.0 0.0002811 3490.40112 3490.40161
3522.0 0.0002839 3488.59741 3488.59790
3426.0 0.0002919 3486.80444 3486.80493
3573.0 0.0002799 3485.02271 3485.02295
3415.0 0.0002928 3483.25146 3483.25171
3438.0 0.0002909 3481.49072 3481.49121
3430.0 0.0002915 3479.74023 3479.74072
3437.0 0.0002910 3478.00000 3478.00024
3500.0 0.0002857 3476.26953 3476.26978
3426.0 0.0002919 3474.54858 3474.54907
3402.0 0.0002939 3472.83716 3472.83740
3460.0 0.0002890 3471.13477 3471.13501
3439.0 0.0002908 3469.44067 3469.44092
3453.0 0.0002896 3467.75562 3467.75562
3403.0 0.0002939 3466.07861 3466.07886
3531.0 0.0002832 3464.40942 3464.40967
3562.0 0.0002807 3462.74805 3462.74829
3514.0 0.0002846 3461.09399 3461.09399
3580.0 0.0002793 3459.44702 3459.44702
3552.0 0.0002815 3457.80615 3457.80640
3425.0 0.0002920 3456.17188 3456.17212
3467.0 0.0002884 3454.54370 3454.54370
3416.0 0.0002927 3452.92090 3452.92090
3545.0 0.0002821 3451.30347 3451.30347
3418.0 0.0002926 3449.69067 3449.69067
3412.0 0.0002931 3448.08252 3448.08252
3480.0 0.0002874 3446.47852 3446.47852
3487.0 0.0002868 3444.87793 3444.87793
3493.0 0.0002863 3443.28076 3443.28076
3547.0 0.0002819 3441.68652 3441.68652
3415.0 0.0002928 3440.09497 3440.09473
3461.0 0.0002889 3438.50513 3438.50488
3524.0 0.0002838 3436.91699 3436.91675
3450.0 0.0002899 3435.33032 3435.33008
3492.0 0.0002864 3433.74414 3433.74390
3491.0 0.0002865 3432.15845 3432.15820
3397.0 0.0002944 3430.57251 3430.57227
3506.0 0.0002852 3428.98584 3428.98560
3472.0 0.0002880 3427.39868 3427.39844
3589.0 0.0002786 3425.80981 3425.80957
3391.0 0.0002949 3424.21924 3424.21899
3541.0 0.0002824 3422.62598 3422.62573
3487.0 0.0002868 3421.03003 3421.02954
3375.0 0.0002963 3419.43091 3419.43066
3357.0 0.0002979 3417.82788 3417.82764
3438.0 0.0002909 3416.22095 3416.22046
3552.0 0.0002815 3414.60913 3414.60864
3505.0 0.0002853 3412.99219 3412.99170
3386.0 0.0002953 3411.36938 3411.36890
3454.0 0.0002895 3409.74072 3409.74023
3393.0 0.0002947 3408.10547 3408.10498
3469.0 0.0002883 3406.46313 3406.46265
3490.0 0.0002865 3404.81348 3404.81274
3458.0 0.0002892 3403.15552 3403.15479
3464.0 0.0002887 3401.48901 3401.48853
3462.0 0.0002889 3399.81396 3399.81323
3443.0 0.0002904 3398.12915 3398.12842
3294.0 0.0003036 3396.43481 3396.43408
3528.0 0.0002834 3394.72974 3394.72900
3425.0 0.0002920 3393.01416 3393.01343
3378.0 0.0002960 3391.28711 3391.28638
3460.0 0.0002890 3389.54858 3389.54785
3372.0 0.0002966 3387.79761 3387.79688
3408.0 0.0002934 3386.03394 3386.03320
3497.0 0.0002860 3384.25757 3384.25684
3412.0 0.0002931 3382.46729 3382.46631
3400.0 0.0002941 3380.66309 3380.66235
3366.0 0.0002971 3378.84448 3378.84375
3403.0 0.0002939 3377.01099 3377.01001
3435.0 0.0002911 3375.16235 3375.16138
3380.0 0.0002959 3373.29761 3373.29688
3377.0 0.0002961 3371.41699 3371.41602
3367.0 0.0002970 3369.51978 3369.51880
3326.0 0.0003007 3367.60547 3367.60449
3266.0 0.0003062 3365.67407 3365.67310
3400.0 0.0002941 3363.72461 3363.72363
3474.0 0.0002879 3361.75708 3361.75610
3342.0 0.0002992 3359.77100 3359.77002
3430.0 0.0002915 3357.76611 3357.76489
3311.0 0.0003020 3355.74146 3355.74048
3291.0 0.0003039 3353.69751 3353.69629
3321.0 0.0003011 3351.63330 3351.63232
3368.0 0.0002969 3349.54883 3349.54761
3332.0 0.0003001 3347.44360 3347.44263
3377.0 0.0002961 3345.31714 3345.31616
3358.0 0.0002978 3343.16943 3343.16821
3309.0 0.0003022 3341.00000 3340.99878
3244.0 0.0003083 3338.80835 3338.80713
3258.0 0.0003069 3336.59448 3336.59326
3340.0 0.0002994 3334.35791 3334.35669
3348.0 0.0002987 3332.09839 3332.09717
3416.0 0.0002927 3329.81592 3329.81470
3286.0 0.0003043 3327.50952 3327.50830
3379.0 0.0002959 3325.17993 3325.17871
3284.0 0.0003045 3322.82593 3322.82471
3283.0 0.0003046 3320.44800 3320.44678
3289.0 0.0003040 3318.04517 3318.04395
3218.0 0.0003108 3315.61792 3315.61670
3249.0 0.0003078 3313.16577 3313.16455
3274.0 0.0003054 3310.68872 3310.68750
3321.0 0.0003011 3308.18628 3308.18481
3192.0 0.0003133 3305.65820 3305.65698
3243.0 0.0003084 3303.10449 3303.10327
3389.0 0.0002951 3300.52539 3300.52393
3298.0 0.0003032 3297.91968 3297.91846
3276.0 0.0003053 3295.28857 3305.23438
3321.0 0.0003011 3292.63062 3303.03418
3288.0 0.0003041 3289.94702 3300.84009
3287.0 0.0003042 3287.23633 3298.65503
3213.0 0.0003112 3284.49976 3296.48242
3195.0 0.0003130 3281.73608 3294.32568
3295.0 0.0003035 3278.94580 3292.18970
3275.0 0.0003053 3276.12891 3290.07935
3324.0 0.0003008 3273.28491 3288.00000
3219.0 0.0003107 3270.41406 3285.95874
3257.0 0.0003070 3267.51685 3283.96265
3224.0 0.0003102 3264.59229 3282.02002
3263.0 0.0003065 3261.64111 3280.14136
3265.0 0.0003063 3258.66260 3278.33765
3355.0 0.0002981 3255.65747 3276.62231
3263.0 0.0003065 3252.62573 3275.01172
3240.0 0.0003086 3249.56665 3273.52295
3137.0 0.0003188 3246.48120 3272.17896
3181.0 0.0003144 3243.36890 3271.00464
3236.0 0.0003090 3240.23022 3270.03149
3308.0 0.0003023 3237.06445 3269.29614
3291.0 0.0003039 3233.87280 3268.84375
3275.0 0.0003053 3230.65430 3268.72876
3210.0 0.0003115 3227.40967 3269.01929
3205.0 0.0003120 3224.13892 3269.79858
3214.0 0.0003111 3220.84229 3271.17212
3240.0 0.0003086 3217.51978 3273.27271
3196.0 0.0003129 3214.17139 3276.27124
3202.0 0.0003123 3210.79761 3280.38892
3301.0 0.0003029 3207.39868 3285.91895
3191.0 0.0003134 3203.97437 3293.25317
3275.0 0.0003053 3200.52515 3302.93774
3393.0 0.0002947 3197.05127 3315.80249
3447.0 0.0002901 3193.55249 3333.37036
3595.0 0.0002782 3190.03003 3359.20166
3688.0 0.0002711 3186.48315 3402.66846
3814.0 0.0002622 3182.91284 3487.28955
4176.0 0.0002395 3179.31860 3664.05957
4676.0 0.0002139 3175.70142 4024.72168
5311.0 0.0001883 3172.06104 4704.30273
6182.0 0.0001618 3168.39795 5862.01807
7482.0 0.0001337 3164.71289 7625.36426
9263.0 0.0001080 3161.00537 9973.06152
11636.0 0.0000859 3157.27612 12615.00098
14068.0 0.0000711 3153.52563 14972.45898
15882.0 0.0000630 3149.75391 16169.46094
15691.0 0.0000637 3145.96167 15453.12402
13532.0 0.0000739 3142.14868 13046.85840
10132.0 0.0000987 3138.31616 9991.13672
7126.0 0.0001403 3134.46362 7270.68750
5256.0 0.0001903 3130.59204 5362.70264
4204.0 0.0002379 3126.70142 4260.35547
3657.0 0.0002734 3122.79248 3716.08887
3446.0 0.0002902 3118.86548 3472.31030
3247.0 0.0003080 3114.92065 3361.74390
3259.0 0.0003068 3110.95898 3303.29004
3243.0 0.0003084 3106.98022 3265.18506
3202.0 0.0003123 3102.98486 3236.48169
3220.0 0.0003106 3098.97388 3213.31714
3108.0 0.0003218 3094.94751 3193.98730
3155.0 0.0003170 3090.90601 3177.50415
3077.0 0.0003250 3086.85010 3163.19727
3063.0 0.0003265 3082.77979 3150.58398
3049.0 0.0003280 3078.69629 3139.30811
3075.0 0.0003252 3074.59937 3129.10034
3108.0 0.0003218 3070.48999 3119.75659
3064.0 0.0003264 3066.36841 3111.11694
2991.0 0.0003343 3062.23535 3103.05811
3131.0 0.0003194 3058.09082 3095.48120
3034.0 0.0003296 3053.93579 3088.30835
2979.0 0.0003357 3049.77075 3081.47559
3020.0 0.0003311 3045.59619 3074.93140
3029.0 0.0003301 3041.41260 3068.63379
2951.0 0.0003389 3037.22021 3062.54785
2944.0 0.0003397 3033.01978 3056.64404
3015.0 0.0003317 3028.81250 3050.89941
3049.0 0.0003280 3024.59766 3045.29248
2996.0 0.0003338 3020.37695 3039.80688
3031.0 0.0003299 3016.14990 3034.42749
3009.0 0.0003323 3011.91797 3029.14258
2946.0 0.0003394 3007.68115 3023.94116
3031.0 0.0003299 3003.44043 3018.81445
3007.0 0.0003326 2999.19556 3013.75415
2985.0 0.0003350 2994.94800 3008.75415
2940.0 0.0003401 2990.69800 3003.80884
3012.0 0.0003320 2986.44604 2998.91235
2911.0 0.0003435 2982.19287 2994.06128
2857.0 0.0003500 2977.93872 2989.25098
2964.0 0.0003374 2973.68457 2984.47900
2989.0 0.0003346 2969.43066 2979.74219
2933.0 0.0003409 2965.17773 2975.03784
3016.0 0.0003316 2960.92627 2960.92554
2947.0 0.0003393 2956.67725 2956.67651
2983.0 0.0003352 2952.43066 2952.42969
2920.0 0.0003425 2948.18750 2948.18677
2887.0 0.0003464 2943.94800 2943.94727
2950.0 0.0003390 2939.71313 2939.71240
2974.0 0.0003362 2935.48315 2935.48242
2908.0 0.0003439 2931.25879 2931.25806
2892.0 0.0003458 2927.04053 2927.03979
2931.0 0.0003412 2922.82886 2922.82813
2898.0 0.0003451 2918.62476 2918.62402
2915.0 0.0003431 2914.42847 2914.42773
2923.0 0.0003421 2910.24048 2910.23999
2827.0 0.000354 2906.06177 2906.06104
2927.0 0.0003416 2901.89233 2901.89160
2839.0 0.000352 2897.73340 2897.73267
2914.0 0.0003432 2893.58472 2893.58423
3002.0 0.0003331 2889.44775 2889.44702
2972.0 0.0003365 2885.32251 2885.32178
2927.0 0.0003416 2881.20947 2881.20874
2847.0 0.000351 2877.10962 2877.10913
2968.0 0.0003369 2873.02295 2873.02246
2859.0 0.0003498 2868.95093 2869.39795
2905.0 0.0003442 2864.89307 2865.36035
2908.0 0.0003439 2860.85059 2861.33984
2780.0 0.000360 2856.82349 2857.33594
2824.0 0.000354 2852.81274 2853.35034
2832.0 0.000353 2848.81885 2849.38354
2784.0 0.000359 2844.84204 2845.43579
2835.0 0.000353 2840.88330 2841.50854
2855.0 0.0003503 2836.94263 2837.60181
2829.0 0.000353 2833.02051 2833.71655
2833.0 0.000353 2829.11841 2829.85425
2773.0 0.000361 2825.23560 2826.01489
2796.0 0.000358 2821.37329 2822.20020
2787.0 0.000359 2817.53174 2818.41064
2782.0 0.000359 2813.71167 2814.64746
2811.0 0.000356 2809.91309 2810.91138
2731.0 0.000366 2806.13721 2807.20459
2800.0 0.000357 2802.38354 2803.52759
2859.0 0.0003498 2798.65332 2799.88232
2755.0 0.000363 2794.94678 2796.27075
2841.0 0.000352 2791.26416 2792.69434
2832.0 0.000353 2787.60620 2789.15601
2841.0 0.000352 2783.97339 2785.65845
2881.0 0.0003471 2780.36572 2782.20435
2763.0 0.000362 2776.78418 2778.79834
2729.0 0.000366 2773.22876 2775.44458
2745.0 0.000364 2769.69971 2772.14941
2735.0 0.000366 2766.19824 2768.92041
2864.0 0.0003492 2762.72388 2765.76636
2810.0 0.000356 2759.27783 2762.70020
2705.0 0.000370 2755.85962 2759.73730
2817.0 0.000355 2752.47046 2756.89990
2676.0 0.000374 2749.10986 2754.21826
2738.0 0.000365 2745.77881 2751.74023
2812.0 0.000356 2742.47729 2749.55591
2741.0 0.000365 2739.20605 2747.88257
2809.0 0.000356 2735.96509 2747.29004
2817.0 0.000355 2732.75488 2749.19092
2824.0 0.000354 2729.57593 2756.62744
2831.0 0.000353 2726.42798 2775.07642
2802.0 0.000357 2723.31177 2812.48584
2996.0 0.0003338 2720.22754 2877.27954
3101.0 0.0003225 2717.17554 2972.91260
3172.0 0.0003153 2714.15625 3089.66284
3251.0 0.0003076 2711.16943 3201.19800
3275.0 0.0003053 2708.21582 3269.43726
3327.0 0.0003006 2705.29565 3257.21704
3263.0 0.0003065 2702.40894 3163.14453
3110.0 0.0003215 2699.55615 3029.13770
2908.0 0.0003439 2696.73706 2901.96704
2913.0 0.0003433 2693.95264 2807.69409
2798.0 0.000357 2691.20215 2749.87402
2784.0 0.000359 2688.48657 2719.07739
2813.0 0.000355 2685.80591 2703.63745
2821.0 0.000354 2683.16016 2695.31787
2770.0 0.000361 2680.54980 2689.88086
2660.0 0.000376 2677.97461 2685.58984
2758.0 0.000363 2675.43506 2681.83203
2689.0 0.000372 2672.93115 2678.39233
2700.0 0.000370 2670.46313 2675.18018
2638.0 0.000379 2668.03101 2672.14575
2694.0 0.000371 2665.63477 2669.25464
2680.0 0.000373 2663.27490 2666.48364
2688.0 0.000372 2660.95117 2663.81445
2627.0 0.000381 2658.66382 2661.23462
2750.0 0.000364 2656.41309 2658.73364
2703.0 0.000370 2654.19873 2656.30371
2699.0 0.000371 2652.02100 2653.93921
2668.0 0.000375 2649.87988 2651.63501
2542.0 0.000393 2647.77539 2649.38721
2723.0 0.000367 2645.70801 2647.19312
2597.0 0.000385 2643.67700 2645.04980
2651.0 0.000377 2641.68286 2642.95605
2646.0 0.000378 2639.72559 2640.90894
2699.0 0.000371 2637.80493 2638.90796
2719.0 0.000368 2635.92114 2636.95190
2593.0 0.000386 2634.07422 2635.03931
2579.0 0.000388 2632.26416 2633.16968
2699.0 0.000371 2630.49048 2631.34180
2660.0 0.000376 2628.75366 2629.55591
2624.0 0.000381 2627.05347 2627.81006
2696.0 0.000371 2625.38989 2626.10498
2631.0 0.000380 2623.76245 2624.43970
2706.0 0.000370 2622.17163 2622.81348
2664.0 0.000375 2620.61719 2621.22656
2565.0 0.000390 2619.09888 2619.67798
2759.0 0.000362 2617.61670 2618.16797
2702.0 0.000370 2616.17065 2616.69580
2558.0 0.000391 2614.76025 2615.26123
2671.0 0.000374 2613.38599 2613.86450
2674.0 0.000374 2612.04712 2612.50464
2609.0 0.000383 2610.74390 2610.74438
2640.0 0.000379 2609.47559 2609.47607
2638.0 0.000379 2608.24268 2608.24316
2629.0 0.000380 2607.04468 2607.04517
2616.0 0.000382 2605.88159 2605.88208
2687.0 0.000372 2604.75293 2604.75342
2571.0 0.000389 2603.65894 2603.65942
2650.0 0.000377 2602.59912 2602.59961
2646.0 0.000378 2601.57324 2601.57373
2542.0 0.000393 2600.58105 2600.58154
2630.0 0.000380 2599.62256 2599.62329
2629.0 0.000380 2598.69727 2598.69775
2614.0 0.000383 2597.80542 2597.80591
2618.0 0.000382 2596.94604 2596.94653
2619.0 0.000382 2596.11938 2596.12012
2552.0 0.000392 2595.32495 2595.32568
2559.0 0.000391 2594.56274 2594.56323
2623.0 0.000381 2593.83203 2593.83252
2568.0 0.000389 2593.13306 2593.13379
2641.0 0.000379 2592.46533 2592.46606
2538.0 0.000394 2591.82837 2591.82886
2703.0 0.000370 2591.22192 2591.22266
2619.0 0.000382 2590.64600 2590.64673
2594.0 0.000386 2590.09985 2590.10034
2563.0 0.000390 2589.58350 2589.58423
2476.0 0.000404 2589.09644 2589.09692
2618.0 0.000382 2588.63843 2588.63892
2586.0 0.000387 2588.20898 2588.20947
2527.0 0.000396 2587.80762 2587.80835
2652.0 0.000377 2587.43457 2587.43506
2563.0 0.000390 2587.08887 2587.08960
2602.0 0.000384 2586.77051 2586.77100
2590.0 0.000386 2586.47900 2586.47949
2551.0 0.000392 2586.21387 2586.21436
2598.0 0.000385 2585.97485 2585.97559
2604.0 0.000384 2585.76147 2585.76221
2577.0 0.000388 2585.57373 2585.57422
2616.0 0.000382 2585.41064 2585.41113
2503.0 0.000400 2585.27197 2585.27271
2599.0 0.000385 2585.15771 2585.15820
2538.0 0.000394 2585.06689 2585.06763
2502.0 0.000400 2584.99951 2585.00024
2546.0 0.000393 2584.95508 2584.95557
2549.0 0.000392 2584.93286 2584.93359
2507.0 0.000399 2584.93286 2584.93359
2622.0 0.000381 2584.95435 2584.95508
2634.0 0.000380 2584.99707 2584.99780
2556.0 0.000391 2585.06055 2585.06104
2568.0 0.000389 2585.14429 2585.14502
2513.0 0.000398 2585.24780 2585.24854
2574.0 0.000389 2585.37061 2585.37134
2603.0 0.000384 2585.51270 2585.51318
2551.0 0.000392 2585.67285 2585.67358
2491.0 0.000401 2585.85132 2585.85205
2536.0 0.000394 2586.04736 2586.04785
2595.0 0.000385 2586.26025 2586.63428
2663.0 0.000376 2586.48999 2586.88062
2533.0 0.000395 2586.73560 2587.14453
2596.0 0.000385 2586.99731 2587.42529
2578.0 0.000388 2587.27393 2587.72290
2529.0 0.000395 2587.56543 2588.03662
2635.0 0.000380 2587.87109 2588.36572
2575.0 0.000388 2588.19067 2589.72461
2528.0 0.000396 2588.52344 2590.13135
2621.0 0.000382 2588.86890 2590.55640
2593.0 0.000386 2589.22705 2590.99976
2545.0 0.000393 2589.59692 2591.46167
2547.0 0.000393 2589.97803 2591.94238
2604.0 0.000384 2590.37012 2592.44238
2644.0 0.000378 2590.77246 2592.96167
2591.0 0.000386 2591.18481 2593.50171
2491.0 0.000401 2591.60645 2594.06201
2570.0 0.000389 2592.03711 2594.64478
2508.0 0.000399 2592.47632 2595.25000
2594.0 0.000386 2592.92310 2595.88013
2558.0 0.000391 2593.37769 2596.53662
2592.0 0.000386 2593.83887 2597.22192
2559.0 0.000391 2594.30688 2597.93872
2432.0 0.000411 2594.78052 2598.68994
2526.0 0.000396 2595.25977 2599.48047
2502.0 0.000400 2595.74414 2600.31543
2615.0 0.000382 2596.23242 2601.20117
2557.0 0.000391 2596.72534 2602.14575
2435.0 0.000411 2597.22144 2603.16016
2454.0 0.000407 2597.72046 2604.25732
2571.0 0.000389 2598.22217 2605.45435
2536.0 0.000394 2598.72583 2606.77368
2493.0 0.000401 2599.23120 2608.24609
2570.0 0.000389 2599.73730 2609.91187
2546.0 0.000393 2600.24414 2611.83472
2565.0 0.000390 2600.75098 2614.21582
2615.0 0.000382 2601.25732 2617.14087
2578.0 0.000388 2601.76318 2621.34033
2595.0 0.000385 2602.26733 2628.37988
2633.0 0.000380 2602.76978 2641.58228
2639.0 0.000379 2603.26978 2666.78271
2606.0 0.000384 2603.76709 2711.89258
2674.0 0.000374 2604.26099 2783.72144
2787.0 0.000359 2604.75122 2881.53467
2902.0 0.0003446 2605.23755 2990.91504
3063.0 0.0003265 2605.71899 3086.57886
3039.0 0.0003291 2606.19531 3145.17310
3143.0 0.0003182 2606.66577 3169.22729
3241.0 0.0003085 2607.13062 3204.26758
3202.0 0.0003123 2607.58887 3303.86426
3407.0 0.0002935 2608.04004 3480.92383
3624.0 0.0002759 2608.48389 3686.64404
3725.0 0.0002685 2608.91992 3827.90698
3588.0 0.0002787 2609.34766 3811.57422
3512.0 0.0002847 2609.76685 3621.17969
3312.0 0.0003019 2610.17676 3341.22363
2952.0 0.0003388 2610.57690 3072.50146
2844.0 0.000352 2610.96704 2872.40723
2647.0 0.000378 2611.34692 2750.27710
2678.0 0.000373 2611.71606 2686.99268
2687.0 0.000372 2612.07373 2657.73169
2650.0 0.000377 2612.41968 2644.52271
2646.0 0.000378 2612.75366 2637.91602
2656.0 0.000377 2613.07520 2633.95654
2558.0 0.000391 2613.38354 2631.21533
2538.0 0.000394 2613.67871 2629.18018
2596.0 0.000385 2613.96045 2627.63403
2588.0 0.000386 2614.22803 2626.45557
2565.0 0.000390 2614.48096 2625.56909
2629.0 0.000380 2614.71899 2624.92798
2717.0 0.000368 2614.94189 2624.51709
2625.0 0.000381 2615.14917 2624.37891
2712.0 0.000369 2615.34082 2624.68750
2636.0 0.000379 2615.51587 2625.89941
2564.0 0.000390 2615.67407 2628.95703
2658.0 0.000376 2615.81543 2635.39380
2692.0 0.000371 2615.93945 2647.00366
2762.0 0.000362 2616.04590 2664.73486
2666.0 0.000375 2616.13403 2686.93164
2559.0 0.000391 2616.20386 2708.25049
2693.0 0.000371 2616.25513 2720.94482
2711.0 0.000369 2616.28711 2718.32568
2751.0 0.000364 2616.30005 2700.92456
2697.0 0.000371 2616.29297 2676.94165
2606.0 0.000384 2616.26611 2654.72852
2540.0 0.000394 2616.21899 2638.58618
2634.0 0.000380 2616.15112 2628.87598
2658.0 0.000376 2616.06250 2623.82495
2680.0 0.000373 2615.95288 2621.37988
2681.0 0.000373 2615.82202 2620.12915
2619.0 0.000382 2615.66895 2619.35352
2607.0 0.000384 2615.49414 2618.37939
2639.0 0.000379 2615.29736 2617.87695
2722.0 0.000367 2615.07764 2617.41113
2650.0 0.000377 2614.83569 2616.96460
2666.0 0.000375 2614.57031 2616.52637
2681.0 0.000373 2614.28198 2616.08960
2626.0 0.000381 2613.97021 2615.64917
2699.0 0.000371 2613.63452 2614.19702
2677.0 0.000374 2613.27515 2613.78076
2546.0 0.000393 2612.89160 2613.34863
2629.0 0.000380 2612.48364 2612.89868
2701.0 0.000370 2612.05127 2612.43018
2721.0 0.000368 2611.59399 2611.94116
2718.0 0.000368 2611.11206 2611.54346
2731.0 0.000366 2610.60474 2611.01685
2672.0 0.000374 2610.07227 2610.46851
2685.0 0.000372 2609.51440 2609.89697
2666.0 0.000375 2608.93066 2609.30273
2721.0 0.000368 2608.32129 2608.68506
2693.0 0.000371 2607.68579 2608.04321
2737.0 0.000365 2607.02441 2607.37769
2735.0 0.000366 2606.33667 2606.68774
2664.0 0.000375 2605.62256 2605.97290
2679.0 0.000373 2604.88184 2605.23413
2804.0 0.000357 2604.11426 2604.46997
2740.0 0.000365 2603.32031 2603.68164
2747.0 0.000364 2602.49902 2602.86841
2641.0 0.000379 2601.65112 2602.03076
2757.0 0.000363 2600.77588 2601.16919
2715.0 0.000368 2599.87329 2600.28442
2613.0 0.000383 2598.94385 2599.38037
2674.0 0.000374 2597.98657 2598.46411
2693.0 0.000371 2597.00220 2597.55005
2650.0 0.000377 2595.98999 2596.66089
2696.0 0.000371 2594.95020 2595.82056
2733.0 0.000366 2593.88281 2594.95313
2664.0 0.000375 2592.78760 2594.20166
2601.0 0.000384 2591.66479 2593.39624
2667.0 0.000375 2590.51392 2592.43091
2591.0 0.000386 2589.33545 2591.23096
2638.0 0.000379 2588.12891 2589.83374
2673.0 0.000374 2586.89429 2588.36011
2666.0 0.000375 2585.63184 2586.91553
2633.0 0.000380 2584.34155 2585.54688
2763.0 0.000362 2583.02319 2584.25659
2649.0 0.000378 2581.67676 2583.02490
2543.0 0.000393 2580.30249 2581.83765
2684.0 0.000373 2578.90015 2580.69629
2600.0 0.000385 2577.46997 2579.63257
2590.0 0.000386 2576.01172 2578.74438
2612.0 0.000383 2574.52563 2578.29663
2635.0 0.000380 2573.01172 2578.92358
2566.0 0.000390 2571.46973 2581.89502
2619.0 0.000382 2569.89990 2589.23242
2544.0 0.000393 2568.30249 2603.20166
2636.0 0.000379 2566.67749 2624.77856
2695.0 0.000371 2565.02466 2651.39038
2695.0 0.000371 2563.34399 2675.73511
2634.0 0.000380 2561.63599 2687.79639
2679.0 0.000373 2559.90063 2680.03076
2713.0 0.000369 2558.13770 2654.97949
2616.0 0.000382 2556.34766 2623.55444
2579.0 0.000388 2554.53027 2595.48193
2562.0 0.000390 2552.68555 2575.21924
2606.0 0.000384 2550.81421 2562.63501
2560.0 0.000391 2548.91577 2555.37280
2591.0 0.000386 2546.99072 2550.99194
2450.0 0.000408 2545.03857 2547.89697
2449.0 0.000408 2543.06030 2545.30591
2480.0 0.000403 2541.05518 2542.90552
2545.0 0.000393 2539.02368 2540.58496
2557.0 0.000391 2536.96631 2538.30273
2503.0 0.000400 2534.88281 2536.03979
2487.0 0.000402 2532.77319 2533.78394
2504.0 0.000399 2530.63770 2531.52832
2466.0 0.000406 2528.47656 2529.26709
2520.0 0.000397 2526.29053 2526.99658
2510.0 0.000398 2524.07886 2524.71362
2492.0 0.000401 2521.84180 2522.41504
2461.0 0.000406 2519.57959 2520.10034
2475.0 0.000404 2517.29321 2517.76782
2471.0 0.000405 2514.98169 2515.41626
2543.0 0.000393 2512.64575 2513.04492
2541.0 0.000394 2510.28564 2510.65405
2491.0 0.000401 2507.90137 2508.24097
2476.0 0.000404 2505.49341 2505.80835
2550.0 0.000392 2503.06152 2503.35449
2474.0 0.000404 2500.60620 2500.87915
2437.0 0.000410 2498.12744 2498.38281
2462.0 0.000406 2495.62598 2495.86523
2472.0 0.000405 2493.10132 2493.32544
2515.0 0.000398 2490.55396 2490.76489
2446.0 0.000409 2487.98389 2488.18286
2453.0 0.000408 2485.39209 2485.57983
2495.0 0.000401 2482.77832 2482.95557
2469.0 0.000405 2480.14233 2480.31030
2509.0 0.000399 2477.48486 2477.64404
2488.0 0.000402 2474.80640 2474.95752
2465.0 0.000406 2472.10669 2472.25024
2473.0 0.000404 2469.38599 2469.52271
2430.0 0.000412 2466.64478 2466.77490
2478.0 0.000404 2463.88330 2464.00757
2463.0 0.000406 2461.10156 2461.22046
2474.0 0.000404 2458.30005 2458.41333
2523.0 0.000396 2455.47876 2455.47876
2535.0 0.000394 2452.63867 2452.63843
2447.0 0.000409 2449.77905 2449.77881
2489.0 0.000402 2446.90063 2446.90039
2432.0 0.000411 2444.00366 2444.00342
2439.0 0.000410 2441.08813 2441.08813
2435.0 0.000411 2438.15527 2438.15503
2452.0 0.000408 2435.20435 2435.20410
2505.0 0.000399 2432.23560 2432.23560
2383.0 0.000420 2429.25000 2429.24976
2441.0 0.000410 2426.24756 2426.24731
2421.0 0.000413 2423.22827 2423.22803
2437.0 0.000410 2420.19263 2439.53369
2530.0 0.000395 2417.14087 2437.35669
2464.0 0.000406 2414.07373 2435.22510
2496.0 0.000401 2410.99048 2433.14380
2374.0 0.000421 2407.89233 2431.12012
2403.0 0.000416 2404.77930 2429.16162
2383.0 0.000420 2401.65137 2427.27686
2364.0 0.000423 2398.50952 2425.47485
2457.0 0.000407 2395.35327 2423.76660
2453.0 0.000408 2392.18311 2422.16406
2397.0 0.000417 2389.00000 2420.68164
2330.0 0.000429 2385.80347 2419.33447
2399.0 0.000417 2382.59399 2418.14087
2397.0 0.000417 2379.37207 2417.12158
2366.0 0.000423 2376.13818 2416.30127
2361.0 0.000424 2372.89185 2415.70728
2333.0 0.000429 2369.63403 2415.37256
2350.0 0.000426 2366.36475 2415.33545
2383.0 0.000420 2363.08447 2415.64111
2373.0 0.000421 2359.79395 2416.34448
2411.0 0.000415 2356.49243 2417.50806
2441.0 0.000410 2353.18091 2419.21021
2397.0 0.000417 2349.85962 2421.54419
2387.0 0.000419 2346.52905 2424.62451
2468.0 0.000405 2343.18896 2428.59082
2406.0 0.000416 2339.84009 2433.61792
2393.0 0.000418 2336.48242 2439.92407
2371.0 0.000422 2333.11694 2447.78638
2439.0 0.000410 2329.74316 2457.55811
2439.0 0.000410 2326.36182 2469.69922
2384.0 0.000419 2322.97314 2484.81299
2410.0 0.000415 2319.57764 2503.70630
2536.0 0.000394 2316.17505 2527.47803
2489.0 0.000402 2312.76587 2557.68701
2697.0 0.000371 2309.35107 2596.75439
2633.0 0.000380 2305.93018 2649.21069
2747.0 0.000364 2302.50391 2725.71436
3070.0 0.0003257 2299.07227 2854.45459
3340.0 0.0002994 2295.63574 3107.26514
4216.0 0.0002372 2292.19507 3643.48169
5329.0 0.0001877 2288.74976 4750.91260
7314.0 0.0001367 2285.30054 6819.37451
10266.0 0.0000974 2281.84741 10159.09766
14410.0 0.0000694 2278.39111 14648.50293
18946.0 0.0000528 2274.93188 19391.58594
23162.0 0.0000432 2271.46973 22780.85742
23742.0 0.0000421 2268.00513 23191.38086
20667.0 0.0000484 2264.53833 20273.87500
15710.0 0.0000637 2261.07007 15510.31934
10524.0 0.0000950 2257.59961 10762.41016
7029.0 0.0001423 2254.12817 7131.74902
4724.0 0.0002117 2250.65576 4857.96045
3621.0 0.0002762 2247.18262 3647.54224
3024.0 0.0003307 2243.70923 3071.97705
2777.0 0.000360 2240.23535 2804.92114
2664.0 0.000375 2236.76172 2667.86816
2541.0 0.000394 2233.28906 2583.47217
2492.0 0.000401 2229.81689 2522.97290
2374.0 0.000421 2226.34570 2475.95532
2374.0 0.000421 2222.87573 2437.99976
2307.0 0.000433 2219.40771 2406.67749
2314.0 0.000432 2215.94116 2380.39038
2261.0 0.000442 2212.47681 2358.00342
2186.0 0.000457 2209.01514 2338.68384
2261.0 0.000442 2205.55640 2321.80835
2321.0 0.000431 2202.10010 2306.90308
2177.0 0.000459 2198.64722 2293.60400
2178.0 0.000459 2195.19775 2281.62720
2222.0 0.000450 2191.75220 2270.74878
2304.0 0.000434 2188.31104 2260.78955
2127.0 0.000470 2184.87378 2251.60645
2221.0 0.000450 2181.44116 2243.08252
2204.0 0.000454 2178.01318 2235.12305
2141.0 0.000467 2174.59106 2227.64941
2094.0 0.000478 2171.17358 2220.59595
2143.0 0.000467 2167.76196 2213.90869
2109.0 0.000474 2164.35596 2207.54150
2154.0 0.000464 2160.95630 2201.45630
2183.0 0.000458 2157.56274 2195.61938
2271.0 0.000440 2154.17578 2190.00342
2184.0 0.000458 2150.79590 2184.59766
2053.0 0.000487 2147.42310 2179.35522
2051.0 0.000488 2144.05713 2174.27075
2192.0 0.000456 2140.69897 2169.32886
2143.0 0.000467 2137.34839 2164.51611
2104.0 0.000475 2134.00610 2159.82080
2096.0 0.000477 2130.67188 2155.23242
2119.0 0.000472 2127.34595 2150.74146
2111.0 0.000474 2124.02856 2146.34033
2168.0 0.000461 2120.72046 2142.02222
2182.0 0.000458 2117.42090 2137.78027
2126.0 0.000470 2114.13086 2114.15430
2113.0 0.000473 2110.85034 2110.87524
2105.0 0.000475 2107.57935 2107.60596
2093.0 0.000478 2104.31860 2104.34668
2143.0 0.000467 2101.06763 2101.09766
2088.0 0.000479 2097.82690 2097.85889
2093.0 0.000478 2094.59692 2094.63086
2121.0 0.000471 2091.37769 2091.41455
2107.0 0.000475 2088.16895 2088.20850
2139.0 0.000468 2084.97144 2085.01392
2073.0 0.000482 2081.78491 2081.83081
2049.0 0.000488 2078.61035 2078.66016
2061.0 0.000485 2075.44702 2075.50122
2089.0 0.000479 2072.29517 2072.35449
2097.0 0.000477 2069.15552 2069.22046
2012.0 0.000497 2066.02808 2066.09985
2055.0 0.000487 2062.91260 2062.99194
2069.0 0.000483 2059.80981 2059.89795
2049.0 0.000488 2056.71924 2056.81812
2025.0 0.000494 2053.64185 2053.75342
2009.0 0.000498 2050.57715 2050.70337
2065.0 0.000484 2047.52515 2047.66992
2044.0 0.000489 2044.48645 2044.65369
2011.0 0.000497 2041.46155 2041.65686
2081.0 0.000481 2038.44971 2038.68164
2016.0 0.000496 2035.45142 2035.73340
1994.0 0.000502 2032.46680 2032.82703
2059.0 0.000486 2029.49597 2029.99976
1979.0 0.000505 2026.53955 2027.33997
1975.0 0.000506 2023.59692 2025.01758
2021.0 0.000495 2020.66846 2023.28894
1939.0 0.000516 2017.75427 2022.40710
1994.0 0.000502 2014.85486 2022.40747
2096.0 0.000477 2011.96960 2022.84387
2037.0 0.000491 2009.09924 2022.71240
1962.0 0.000510 2006.24353 2020.80127
1998.0 0.000501 2003.40295 2016.53040
2037.0 0.000491 2000.57703 2010.64600
2059.0 0.000486 1997.76611 2004.47583
1943.0 0.000515 1994.97058 1998.94312
1997.0 0.000501 1992.19031 1994.35583
2023.0 0.000494 1989.42529 1990.58582
1981.0 0.000505 1986.67542 1987.34448
1987.0 0.000503 1983.94116 1984.38245
2045.0 0.000489 1981.22278 1981.55176
2003.0 0.000499 1978.51965 1978.78381
2036.0 0.000491 1975.83240 1976.05212
1990.0 0.000503 1973.16077 1973.34717
1927.0 0.000519 1970.50525 1970.66541
1944.0 0.000514 1967.86523 1968.00427
1995.0 0.000501 1965.24121 1965.36304
1959.0 0.000510 1962.63342 1962.74097
1941.0 0.000515 1960.04138 1960.13708
2017.0 0.000496 1957.46582 1957.55151
2007.0 0.000498 1954.90613 1954.98328
1983.0 0.000504 1952.36255 1952.43225
1928.0 0.000519 1949.83533 1949.89880
1968.0 0.000508 1947.32434 1947.38220
1867.0 0.000536 1944.82971 1944.88281
1979.0 0.000505 1942.35120 1942.40002
2003.0 0.000499 1939.88904 1939.93408
1928.0 0.000519 1937.44348 1937.48523
1914.0 0.000522 1935.01404 1935.05273
2027.0 0.000493 1932.60120 1932.63721
2002.0 0.000500 1930.20459 1930.23816
1857.0 0.000539 1927.82458 1927.85620
1927.0 0.000519 1925.46082 1925.49036
1957.0 0.000511 1923.11353 1923.14124
1940.0 0.000515 1920.78271 1920.80884
1959.0 0.000510 1918.46851 1918.49304
1909.0 0.000524 1916.17053 1916.19385
1969.0 0.000508 1913.88892 1913.92993
2013.0 0.000497 1911.62378 1911.66418
1964.0 0.000509 1909.37524 1910.20032
1926.0 0.000519 1907.14294 1907.99597
1881.0 0.000532 1904.92712 1905.81006
1927.0 0.000519 1902.72742 1903.64209
1859.0 0.000538 1900.54419 1901.49219
1929.0 0.000518 1898.37744 1899.53394
1901.0 0.000526 1896.22681 1897.42725
1932.0 0.000518 1894.09253 1895.32568
1954.0 0.000512 1891.97424 1893.25781
1974.0 0.000507 1889.87244 1891.20959
1932.0 0.000518 1887.78662 1889.18042
1944.0 0.000514 1885.71680 1887.17126
1886.0 0.000530 1883.66321 1885.18237
1905.0 0.000525 1881.62561 1883.21387
1961.0 0.000510 1879.60413 1881.26599
1884.0 0.000531 1877.59827 1879.33948
1845.0 0.000542 1875.60840 1877.43433
1876.0 0.000533 1873.63452 1875.55188
1897.0 0.000527 1871.67615 1873.69177
1953.0 0.000512 1869.73364 1871.85522
1899.0 0.000527 1867.80664 1870.04297
1908.0 0.000524 1865.89539 1868.25586
1862.0 0.000537 1863.99939 1866.49475
1852.0 0.000540 1862.11902 1864.76111
1873.0 0.000534 1860.25403 1863.05615
1952.0 0.000512 1858.40442 1861.38159
1816.0 0.000551 1856.56982 1859.73901
1945.0 0.000514 1854.75037 1858.13074
1879.0 0.000532 1852.94592 1856.55920
1918.0 0.000521 1851.15674 1855.02795
1747.0 0.000572 1849.38232 1853.54016
1767.0 0.000566 1847.62268 1852.09998
1908.0 0.000524 1845.87769 1850.71301
1857.0 0.000539 1844.14746 1849.38513
1892.0 0.000529 1842.43188 1848.12451
1909.0 0.000524 1840.73059 1846.94006
1808.0 0.000553 1839.04382 1845.84375
1823.0 0.000549 1837.37122 1844.84985
1864.0 0.000536 1835.71289 1843.97693
1900.0 0.000526 1834.06848 1843.24829
1912.0 0.000523 1832.43799 1842.69397
1843.0 0.000543 1830.82153 1842.35413
1836.0 0.000545 1829.21899 1842.28101
1817.0 0.000550 1827.62988 1842.54553
1953.0 0.000512 1826.05420 1843.24792
1887.0 0.000530 1824.49207 1844.55701
1908.0 0.000524 1822.94348 1846.70898
1916.0 0.000522 1821.40808 1850.31494
1804.0 0.000554 1819.88562 1856.88440
1880.0 0.000532 1818.37610 1870.21838
1927.0 0.000519 1816.87976 1898.83826
1907.0 0.000524 1815.39587 1958.53528
2025.0 0.000494 1813.92480 2071.65259
2227.0 0.000449 1812.46619 2258.03223
2460.0 0.000407 1811.01990 2516.13696
2687.0 0.000372 1809.58606 2802.81909
2856.0 0.0003501 1808.16431 3031.05688
2907.0 0.0003440 1806.75452 3105.55225
2815.0 0.000355 1805.35681 2997.00000
2715.0 0.000368 1803.97083 2781.58643
2340.0 0.000427 1802.59644 2558.61450
2270.0 0.000441 1801.23352 2376.90991
2263.0 0.000442 1799.88208 2234.92310
2064.0 0.000484 1798.54199 2116.10938
2025.0 0.000494 1797.21301 2016.19202
1900.0 0.000526 1795.89502 1938.18896
1938.0 0.000516 1794.58777 1883.43201
1855.0 0.000539 1793.29150 1849.07288
1848.0 0.000541 1792.00562 1829.27490
1846.0 0.000542 1790.73035 1818.05750
1869.0 0.000535 1789.46533 1811.18665
1863.0 0.000537 1788.21057 1806.35950
1956.0 0.000511 1786.96582 1802.53784
1871.0 0.000534 1785.73083 1799.29456
1926.0 0.000519 1784.50586 1796.44336
1954.0 0.000512 1783.29053 1793.88574
1833.0 0.000546 1782.08472 1791.55713
1879.0 0.000532 1780.88818 1789.41235
1919.0 0.000521 1779.70081 1787.41724
1841.0 0.000543 1778.52271 1785.54578
1811.0 0.000552 1777.35352 1783.83228
1830.0 0.000546 1776.19324 1782.15393
1845.0 0.000542 1775.04138 1780.55090
1789.0 0.000559 1773.89807 1779.01343
1807.0 0.000553 1772.76331 1777.53369
1826.0 0.000548 1771.63672 1776.10535
1798.0 0.000556 1770.51831 1774.72314
1747.0 0.000572 1769.40771 1773.38416
1707.0 0.000586 1768.30505 1772.08606
1839.0 0.000544 1767.20996 1770.82678
1840.0 0.000543 1766.12231 1769.60754
1729.0 0.000578 1765.04236 1768.43201
1828.0 0.000547 1763.96936 1767.31250
1768.0 0.000566 1762.90369 1766.28491
1754.0 0.000570 1761.84473 1765.44299
1717.0 0.000582 1760.79272 1765.77173
1753.0 0.000570 1759.74744 1766.12451
1806.0 0.000554 1758.70862 1767.74280
1749.0 0.000572 1757.67627 1770.98523
1800.0 0.000556 1756.65015 1775.62512
1777.0 0.000563 1755.63013 1780.43958
1763.0 0.000567 1754.61609 1783.29626
1823.0 0.000549 1753.60779 1782.19458
1722.0 0.000581 1752.60535 1777.08105
1804.0 0.000554 1751.60815 1770.05688
1773.0 0.000564 1750.61670 1763.33606
1742.0 0.000574 1749.63037 1758.09375
1732.0 0.000577 1748.64905 1754.50073
1793.0 0.000558 1747.67297 1752.15637
1702.0 0.000588 1746.70154 1750.54834
1719.0 0.000582 1745.73499 1749.30334
1747.0 0.000572 1744.77295 1748.22119
1714.0 0.000583 1743.81519 1747.19702
1753.0 0.000570 1742.86206 1746.23755
1722.0 0.000581 1741.91284 1744.54053
1706.0 0.000586 1740.96777 1743.66992
1721.0 0.000581 1740.02661 1742.82507
1685.0 0.000593 1739.08923 1742.00610
1730.0 0.000578 1738.15540 1741.03992
1786.0 0.000560 1737.22510 1740.28064
1786.0 0.000560 1736.29822 1739.55176
1742.0 0.000574 1735.37451 1738.85657
1689.0 0.000592 1734.45410 1738.19983
1717.0 0.000582 1733.53650 1737.58826
1705.0 0.000587 1732.62183 1737.03137
1752.0 0.000571 1731.70996 1736.54285
1741.0 0.000574 1730.80054 1736.14648
1671.0 0.000598 1729.89380 1735.89404
1669.0 0.000599 1728.98914 1735.91455
1756.0 0.000569 1728.08691 1736.52734
1685.0 0.000593 1727.18677 1738.41858
1785.0 0.000560 1726.28857 1742.78040
1715.0 0.000583 1725.39246 1751.12976
1811.0 0.000552 1724.49780 1764.48291
1788.0 0.000559 1723.60498 1781.96741
1874.0 0.000534 1722.71362 1799.64185
1891.0 0.000529 1721.82349 1810.92041
1832.0 0.000546 1720.93494 1810.03162
1843.0 0.000543 1720.04736 1797.56567
1833.0 0.000546 1719.16101 1780.29712
1744.0 0.000573 1718.27539 1764.85950
1705.0 0.000587 1717.39075 1754.75525
1777.0 0.000563 1716.50684 1750.81604
1719.0 0.000582 1715.62354 1753.08948
1752.0 0.000571 1714.74072 1763.47998
1817.0 0.000550 1713.85840 1788.75830
1899.0 0.000527 1712.97632 1843.10095
1964.0 0.000509 1712.09436 1947.19653
2189.0 0.000457 1711.21252 2119.29297
2348.0 0.000426 1710.33081 2356.94458
2556.0 0.000391 1709.44910 2617.39844
2726.0 0.000367 1708.56689 2814.13965
2764.0 0.000362 1707.68445 2851.88940
2647.0 0.000378 1706.80164 2704.76611
2361.0 0.000424 1705.91846 2450.93848
2153.0 0.000464 1705.03479 2192.31494
1994.0 0.000502 1704.15015 1990.37268
1785.0 0.000560 1703.26489 1860.58923
1753.0 0.000570 1702.37878 1789.16736
1765.0 0.000567 1701.49182 1758.29614
1695.0 0.000590 1700.60364 1741.17834
1755.0 0.000570 1699.71460 1731.99231
1656.0 0.000604 1698.82422 1726.12952
1682.0 0.000595 1697.93274 1721.84961
1705.0 0.000587 1697.03979 1718.39807
1699.0 0.000589 1696.14526 1715.53320
1577.0 0.000634 1695.24951 1713.10010
1628.0 0.000614 1694.35217 1710.99841
1673.0 0.000598 1693.45300 1709.15686
1688.0 0.000592 1692.55212 1707.52417
1644.0 0.000608 1691.64941 1706.06213
1694.0 0.000590 1690.74500 1704.74255
1698.0 0.000589 1689.83875 1703.54382
1605.0 0.000623 1688.93030 1702.44958
1685.0 0.000593 1688.01965 1701.44800
1759.0 0.000569 1687.10718 1700.53052
1691.0 0.000591 1686.19226 1699.69019
1636.0 0.000611 1685.27527 1698.92334
1591.0 0.000629 1684.35583 1698.22656
1639.0 0.000610 1683.43408 1697.59973
1686.0 0.000593 1682.51001 1697.04272
1708.0 0.000585 1681.58325 1697.30896
1681.0 0.000595 1680.65405 1696.92529
1616.0 0.000619 1679.72241 1696.62231
1632.0 0.000613 1678.78809 1696.40564
1679.0 0.000596 1677.85095 1696.28308
1667.0 0.000600 1676.91113 1696.26379
1571.0 0.000637 1675.96838 1696.35950
1687.0 0.000593 1675.02307 1696.58435
1622.0 0.000617 1674.07495 1696.95447
1659.0 0.000603 1673.12378 1697.49036
1689.0 0.000592 1672.16956 1698.21667
1711.0 0.000584 1671.21252 1699.16309
1689.0 0.000592 1670.25244 1700.31213
1665.0 0.000601 1669.28931 1701.81812
1641.0 0.000609 1668.32300 1703.68054
1675.0 0.000597 1667.35376 1705.96863
1664.0 0.000601 1666.38123 1708.76868
1784.0 0.000561 1665.40552 1712.19116
1683.0 0.000594 1664.42676 1716.37793
1726.0 0.000579 1663.44458 1721.51331
1677.0 0.000596 1662.45935 1727.84045
1726.0 0.000579 1661.47070 1735.68506
1628.0 0.000614 1660.47876 1745.49438
1777.0 0.000563 1659.48340 1758.16565
1730.0 0.000578 1658.48499 1774.20166
1824.0 0.000548 1657.48315 1795.79285
1848.0 0.000541 1656.47778 1827.55981
1921.0 0.000521 1655.46912 1881.56213
2038.0 0.000491 1654.45715 1986.71887
2324.0 0.000430 1653.44165 2206.94409
2774.0 0.000360 1652.42297 2645.52002
3528.0 0.0002834 1651.40063 3425.84448
4679.0 0.0002137 1650.37512 4613.82666
6120.0 0.0001634 1649.34595 6101.49512
7566.0 0.0001322 1648.31335 7520.94727
8501.0 0.0001176 1647.27747 8305.57227
8231.0 0.0001215 1646.23804 8025.72998
6806.0 0.0001469 1645.19531 6833.49854
5198.0 0.0001924 1644.14905 5310.72705
3926.0 0.0002547 1643.09924 3949.61450
2913.0 0.0003433 1642.04626 2973.34497
2334.0 0.000428 1640.98962 2383.84863
2017.0 0.000496 1639.92981 2072.27246
1910.0 0.000524 1638.86633 1919.63623
1794.0 0.000557 1637.79980 1844.17517
1786.0 0.000560 1636.72961 1803.04468
1718.0 0.000582 1635.65613 1777.59070
1639.0 0.000610 1634.57935 1760.60291
1712.0 0.000584 1633.49915 1749.70923
1711.0 0.000584 1632.41589 1745.26636
1763.0 0.000567 1631.32898 1750.93213
1728.0 0.000579 1630.23889 1775.76416
1878.0 0.000532 1629.14575 1835.81873
2001.0 0.000500 1628.04919 1951.15198
2020.0 0.000495 1626.94946 2134.10620
2300.0 0.000435 1625.84644 2370.63208
2443.0 0.000409 1624.74036 2604.20972
2630.0 0.000380 1623.63123 2743.07861
2615.0 0.000382 1622.51880 2710.09839
2427.0 0.000412 1621.40344 2519.77051
2211.0 0.000452 1620.28491 2265.82275
2019.0 0.000495 1619.16357 2033.86792
1853.0 0.000540 1618.03906 1865.09558
1757.0 0.000569 1616.91162 1762.01770
1657.0 0.000604 1615.78125 1706.91724
1658.0 0.000603 1614.64807 1679.42261
1612.0 0.000620 1613.51208 1665.25623
1619.0 0.000618 1612.37317 1656.93115
1651.0 0.000606 1611.23145 1651.26221
1529.0 0.000654 1610.08716 1647.54358
1589.0 0.000629 1608.94006 1644.49097
1612.0 0.000620 1607.79041 1642.60095
1665.0 0.000601 1606.63818 1642.45203
1619.0 0.000618 1605.48328 1645.69177
1726.0 0.000579 1604.32593 1655.86011
1709.0 0.000585 1603.16614 1678.80908
1734.0 0.000577 1602.00391 1721.28369
1832.0 0.000546 1600.83923 1786.46606
1981.0 0.000505 1599.67236 1867.51343
1984.0 0.000504 1598.50317 1943.04248
2229.0 0.000449 1597.33167 1981.12549
2233.0 0.000448 1596.15808 1959.19751
2222.0 0.000450 1594.98230 1888.23010
2186.0 0.000457 1593.80469 1801.33215
2156.0 0.000464 1592.62476 1725.18347
2068.0 0.000484 1591.44287 1671.21045
1945.0 0.000514 1590.25940 1638.68701
1987.0 0.000503 1589.07385 1621.16321
1893.0 0.000528 1587.88660 1611.99585
1792.0 0.000558 1586.69751 1606.76794
1786.0 0.000560 1585.50696 1603.24255
1706.0 0.000586 1584.31458 1600.48328
1746.0 0.000573 1583.12061 1593.53674
1673.0 0.000598 1581.92529 1591.62268
1677.0 0.000596 1580.72864 1589.91016
1621.0 0.000617 1579.53040 1588.31873
1637.0 0.000611 1578.33081 1586.91663
1569.0 0.000637 1577.13000 1585.64722
1580.0 0.000633 1575.92822 1584.50806
1650.0 0.000606 1574.72522 1583.50537
1655.0 0.000604 1573.52112 1582.65540
1636.0 0.000611 1572.31592 1581.99121
1534.0 0.000652 1571.10986 1581.58301
1629.0 0.000614 1569.90308 1581.60571
1607.0 0.000622 1568.69543 1582.51428
1711.0 0.000584 1567.48706 1585.40991
1671.0 0.000598 1566.27795 1592.55359
1658.0 0.000603 1565.06836 1607.60315
1699.0 0.000589 1563.85815 1634.69153
1681.0 0.000595 1562.64746 1675.65332
1788.0 0.000559 1561.43652 1726.08777
1834.0 0.000545 1560.22522 1772.68640
1769.0 0.000565 1559.01367 1795.84521
1698.0 0.000589 1557.80176 1782.26025
1731.0 0.000578 1556.58984 1738.72754
1673.0 0.000598 1555.37805 1743.93506
1625.0 0.000615 1554.16614 1702.28943
1674.0 0.000597 1552.95435 1676.00684
1631.0 0.000613 1551.74268 1666.65967
1705.0 0.000587 1550.53149 1675.09326
1752.0 0.000571 1549.32031 1705.96460
1811.0 0.000552 1548.10974 1768.28296
1881.0 0.000532 1546.89941 1869.81213
1923.0 0.000520 1545.68970 2006.29236
2098.0 0.000477 1544.48083 2150.92212
2268.0 0.000441 1543.27234 2253.39697
2257.0 0.000443 1542.06470 2262.46899
2160.0 0.000463 1540.85791 2172.51538
2020.0 0.000495 1539.65210 2032.44910
1878.0 0.000532 1538.44702 1896.22144
1800.0 0.000556 1537.24304 1793.60559
1706.0 0.000586 1536.04016 1730.38318
1653.0 0.000605 1534.83862 1698.08508
1673.0 0.000598 1533.63843 1684.71606
1657.0 0.000604 1532.43933 1681.07788
1666.0 0.000600 1531.24158 1682.04333
1627.0 0.000615 1530.04553 1685.34180
1622.0 0.000617 1528.85083 1689.86658
1700.0 0.000588 1527.65796 1695.87598
1721.0 0.000581 1526.46655 1703.02979
1738.0 0.000575 1525.27710 1711.34180
1697.0 0.000589 1524.08936 1720.87134
1738.0 0.000575 1522.90356 1731.71375
1696.0 0.000590 1521.71985 1743.99963
1744.0 0.000573 1520.53796 1757.89490
1726.0 0.000579 1519.35840 1773.60693
1727.0 0.000579 1518.18091 1791.38916
1800.0 0.000556 1517.00562 1811.55200
1760.0 0.000568 1515.83276 1834.49438
1806.0 0.000554 1514.66235 1860.63989
1743.0 0.000574 1513.49451 1890.57874
1848.0 0.000541 1512.32898 1925.01892
1884.0 0.000531 1511.16614 1964.84387
1951.0 0.000513 1510.00610 2011.16760
1933.0 0.000517 1508.84863 2065.40918
2021.0 0.000495 1507.69421 2129.39502
2053.0 0.000487 1506.54248 2205.50830
2141.0 0.000467 1505.39380 2296.90039
2289.0 0.000437 1504.24817 2407.80933
2380.0 0.000420 1503.10547 2544.07642
2625.0 0.000381 1501.96606 2714.16284
2954.0 0.0003385 1500.82983 2931.82349
3141.0 0.0003184 1499.69702 3224.48315
3731.0 0.0002680 1498.56738 3658.71606
4650.0 0.0002151 1497.44116 4406.04395
6230.0 0.0001605 1496.31860 5873.97900
9314.0 0.0001074 1495.19934 8877.70313
14762.0 0.0000677 1494.08398 14690.93945
23669.0 0.0000422 1492.97205 24671.62109
37534.0 0.0000266 1491.86401 39266.45313
55278.0 0.0000181 1490.75977 56694.16016
72169.0 0.0000139 1489.65918 72143.20313
81455.0 0.0000123 1488.56274 78895.55469
75921.0 0.0000132 1487.47009 72997.34375
59851.0 0.0000167 1486.38184 57762.78516
40571.0 0.0000246 1485.29724 40152.87891
24841.0 0.0000403 1484.21704 25242.11133
14771.0 0.0000677 1483.14111 14978.53906
8874.0 0.0001127 1482.06921 8990.05469
5952.0 0.0001680 1481.00195 5906.30078
4433.0 0.0002256 1479.93884 4409.94141
3646.0 0.0002743 1478.88025 3653.03809
3211.0 0.0003114 1477.82617 3213.29297
2937.0 0.0003405 1476.77661 2916.30835
2620.0 0.000382 1475.73169 2694.57813
2472.0 0.000405 1474.69141 2520.74268
2267.0 0.000441 1473.65588 2381.04126
2197.0 0.000455 1472.62500 2266.95361
2109.0 0.000474 1471.59900 2172.57642
1996.0 0.000501 1470.57788 2093.62280
1929.0 0.000518 1469.56165 2026.90515
1913.0 0.000523 1468.55042 1970.01477
1852.0 0.000540 1467.54407 1921.10559
1810.0 0.000552 1466.54272 1878.74609
1752.0 0.000571 1465.54675 1841.81506
1734.0 0.000577 1464.55579 1809.43079
1743.0 0.000574 1463.56995 1780.91162
1693.0 0.000591 1462.58936 1755.76721
1754.0 0.000570 1461.61401 1734.81494
1773.0 0.000564 1460.64417 1715.88928
1558.0 0.000642 1459.67944 1700.21033
1577.0 0.000634 1458.72034 1687.89844
1656.0 0.000604 1457.76660 1678.58765
1618.0 0.000618 1456.81836 1670.99316
1672.0 0.000598 1455.87549 1662.83777
1673.0 0.000598 1454.93823 1651.76514
1609.0 0.000622 1454.00671 1637.35352
1574.0 0.000635 1453.08057 1621.55518
1575.0 0.000635 1452.16016 1606.58618
1630.0 0.000613 1451.24573 1593.65833
1655.0 0.000604 1450.33679 1582.97607
1588.0 0.000630 1449.43359 1574.13916
1538.0 0.000650 1448.53613 1566.59070
1479.0 0.000676 1447.64465 1559.88940
1521.0 0.000657 1446.75891 1553.76941
1517.0 0.000659 1445.87903 1548.09265
1508.0 0.000663 1445.00513 1542.78796
1557.0 0.000642 1444.13721 1537.81201
1506.0 0.000664 1443.27515 1533.13379
1469.0 0.000681 1442.41919 1528.72827
1515.0 0.000660 1441.56921 1524.57397
1493.0 0.000670 1440.72522 1520.65271
1511.0 0.000662 1439.88721 1516.94849
1554.0 0.000644 1439.05542 1513.44751
1491.0 0.000671 1438.22961 1510.13794
1490.0 0.000671 1437.40991 1507.01001
1542.0 0.000649 1436.59668 1504.05518
1512.0 0.000661 1435.78931 1501.26672
1490.0 0.000671 1434.98804 1498.63989
1461.0 0.000684 1434.19324 1439.49316
1504.0 0.000665 1433.40430 1439.11450
1467.0 0.000682 1432.62170 1438.79541
1402.0 0.000713 1431.84534 1438.54480
1514.0 0.000661 1431.07544 1438.37390
1451.0 0.000689 1430.31165 1438.29663
1537.0 0.000651 1429.55408 1438.32947
1496.0 0.000668 1428.80298 1438.49451
1528.0 0.000654 1428.05786 1438.81897
1488.0 0.000672 1427.31921 1439.33826
1519.0 0.000658 1426.58679 1440.09875
1456.0 0.000687 1425.86084 1441.16138
1461.0 0.000684 1425.14099 1442.60828
1490.0 0.000671 1424.42761 1444.55310
1476.0 0.000678 1423.72058 1447.16040
1506.0 0.000664 1423.01978 1450.69971
1494.0 0.000669 1422.32520 1455.71204
1459.0 0.000685 1421.63721 1466.12915
1452.0 0.000689 1420.95532 1480.15271
1491.0 0.000671 1420.27979 1508.14966
1642.0 0.000609 1419.61060 1565.52771
1753.0 0.000570 1418.94775 1675.86707
1914.0 0.000522 1418.29138 1863.52197
2224.0 0.000450 1417.64111 2135.12646
2393.0 0.000418 1416.99731 2455.92334
2624.0 0.000381 1416.35962 2735.71802
2665.0 0.000375 1415.72827 2850.50244
2649.0 0.000378 1415.10327 2732.05615
2497.0 0.000400 1414.48462 2447.26440
2103.0 0.000476 1413.87207 2123.87720
1846.0 0.000542 1413.26587 1852.07898
1703.0 0.000587 1412.66602 1665.39880
1596.0 0.000627 1412.07214 1556.20068
1503.0 0.000665 1411.48462 1499.54578
1497.0 0.000668 1410.90332 1471.65576
1535.0 0.000651 1410.32825 1457.25928
1523.0 0.000657 1409.75916 1448.73401
1467.0 0.000682 1409.19641 1442.88965
1451.0 0.000689 1408.63989 1438.49487
1406.0 0.000711 1408.08923 1435.49146
1353.0 0.000739 1407.54480 1432.74243
1431.0 0.000699 1407.00647 1430.52515
1379.0 0.000725 1406.47412 1428.73279
1402.0 0.000713 1405.94788 1427.28943
1357.0 0.000737 1405.42761 1426.14185
1437.0 0.000696 1404.91333 1425.25244
1374.0 0.000728 1404.40503 1424.59497
1455.0 0.000687 1403.90271 1424.15332
1383.0 0.000723 1403.40637 1423.91956
1387.0 0.000721 1402.91577 1423.89258
1420.0 0.000704 1402.43115 1424.07776
1417.0 0.000706 1401.95239 1424.48755
1418.0 0.000705 1401.47925 1425.14148
1439.0 0.000695 1401.01196 1426.06812
1433.0 0.000698 1400.55054 1427.30615
1408.0 0.000710 1400.09485 1428.92053
1393.0 0.000718 1399.64465 1430.95154
1419.0 0.000705 1399.20020 1433.50232
1458.0 0.000686 1398.76135 1436.69165
1422.0 0.000703 1398.32825 1440.67969
1418.0 0.000705 1397.90051 1445.68396
1430.0 0.000699 1397.47827 1452.01050
1442.0 0.000693 1397.06165 1460.12207
1499.0 0.000667 1396.65039 1470.83203
1497.0 0.000668 1396.24463 1485.91455
1486.0 0.000673 1395.84424 1509.82141
1590.0 0.000629 1395.44910 1553.62292
1637.0 0.000611 1395.05920 1641.61047
1911.0 0.000523 1394.67456 1817.30676
2213.0 0.000452 1394.29529 2139.05933
2755.0 0.000363 1393.92102 2652.95435
3428.0 0.0002917 1393.55200 3342.98828
4174.0 0.0002396 1393.18811 4080.67651
4709.0 0.0002124 1392.82910 4614.04297
4695.0 0.0002130 1392.47522 4673.31055
4258.0 0.0002349 1392.12622 4217.85498
3414.0 0.0002929 1391.78210 3492.96436
2736.0 0.000365 1391.44299 2775.17822
2128.0 0.000470 1391.10852 2220.05200
1839.0 0.000544 1390.77893 1862.46338
1661.0 0.000602 1390.45410 1663.55396
1538.0 0.000650 1390.13391 1563.50586
1493.0 0.000670 1389.81836 1514.46228
1446.0 0.000692 1389.50745 1487.56641
1507.0 0.000664 1389.20093 1472.15564
1484.0 0.000674 1388.89893 1462.01929
1495.0 0.000669 1388.60156 1455.43054
1529.0 0.000654 1388.30835 1452.28113
1539.0 0.000650 1388.01965 1454.04004
1553.0 0.000644 1387.73523 1464.65295
1576.0 0.000635 1387.45496 1491.42419
1706.0 0.000586 1387.17883 1544.06519
1782.0 0.000561 1386.90686 1629.86206
1893.0 0.000528 1386.63904 1745.15552
1967.0 0.000508 1386.37524 1867.01770
2005.0 0.000499 1386.11536 1951.95520
2031.0 0.000492 1385.85950 1955.20691
1857.0 0.000539 1385.60742 1872.89282
1772.0 0.000564 1385.35913 1747.97681
1705.0 0.000587 1385.11462 1626.33826
1545.0 0.000647 1384.87378 1533.00061
1526.0 0.000655 1384.63672 1472.98059
1460.0 0.000685 1384.40308 1439.36401
1403.0 0.000713 1384.17310 1422.09180
1417.0 0.000706 1383.94641 1413.29333
1464.0 0.000683 1383.72327 1408.53186
1434.0 0.000697 1383.50354 1405.91516
1385.0 0.000722 1383.28699 1404.89050
1419.0 0.000705 1383.07385 1405.36829
1398.0 0.000715 1382.86377 1407.13635
1546.0 0.000647 1382.65686 1409.47656
1418.0 0.000705 1382.45300 1411.04517
1389.0 0.000720 1382.25220 1410.35791
1435.0 0.000697 1382.05432 1407.06885
1451.0 0.000689 1381.85938 1402.38245
1321.0 0.000757 1381.66724 1397.74939
1380.0 0.000725 1381.47778 1394.00940
1461.0 0.000684 1381.29126 1391.36731
1393.0 0.000718 1381.10718 1389.62878
1401.0 0.000714 1380.92578 1388.47546
1391.0 0.000719 1380.74707 1387.64441
1385.0 0.000722 1380.57068 1386.97839
1414.0 0.000707 1380.39673 1386.40051
1326.0 0.000754 1380.22522 1385.87805
1360.0 0.000735 1380.05591 1385.39636
1416.0 0.000706 1379.88879 1384.94763
1353.0 0.000739 1379.72400 1384.52661
1308.0 0.000765 1379.56116 1384.12988
1412.0 0.000708 1379.40051 1383.75415
1338.0 0.000747 1379.24182 1389.63208
1430.0 0.000699 1379.08508 1386.88037
1373.0 0.000728 1378.93030 1386.88501
1337.0 0.000748 1378.77722 1386.91187
1281.0 0.000781 1378.62598 1386.96143
1392.0 0.000718 1378.47632 1387.03369
1387.0 0.000721 1378.32837 1387.12952
1437.0 0.000696 1378.18188 1387.24939
1375.0 0.000727 1378.03711 1387.39478
1369.0 0.000730 1377.89368 1387.56616
1426.0 0.000701 1377.75171 1387.76563
1328.0 0.000753 1377.61096 1387.99451
1379.0 0.000725 1377.47156 1388.25500
1408.0 0.000710 1377.33337 1388.54907
1322.0 0.000756 1377.19629 1403.79456
1374.0 0.000728 1377.06030 1404.70642
1362.0 0.000734 1376.92529 1405.69067
1354.0 0.000739 1376.79138 1406.75415
1364.0 0.000733 1376.65833 1407.90320
1437.0 0.000696 1376.52625 1409.14575
1367.0 0.000732 1376.39478 1410.49036
1382.0 0.000724 1376.26404 1411.94690
1377.0 0.000726 1376.13416 1413.52698
1345.0 0.000743 1376.00476 1414.79248
1395.0 0.000717 1375.87598 1416.67468
1424.0 0.000702 1375.74768 1418.72314
1416.0 0.000706 1375.61987 1420.95740
1428.0 0.000700 1375.49231 1423.39966
1406.0 0.000711 1375.36511 1426.07568
1407.0 0.000711 1375.23828 1429.01550
1381.0 0.000724 1375.11157 1432.25415
1391.0 0.000719 1374.98511 1435.83374
1409.0 0.000710 1374.85864 1439.80310
1364.0 0.000733 1374.73230 1444.22107
1385.0 0.000722 1374.60596 1449.15857
1454.0 0.000688 1374.47949 1454.70178
1331.0 0.000751 1374.35303 1460.95496
1440.0 0.000694 1374.22620 1468.04834
1482.0 0.000675 1374.09924 1476.27393
1428.0 0.000700 1373.97192 1485.56494
1510.0 0.000662 1373.84436 1496.33691
1373.0 0.000728 1373.71643 1508.91187
1459.0 0.000685 1373.58789 1523.73303
1441.0 0.000694 1373.45898 1541.39465
1442.0 0.000693 1373.32947 1562.72375
1592.0 0.000628 1373.19934 1588.96533
1617.0 0.000618 1373.06860 1622.32849
1717.0 0.000582 1372.93701 1667.63904
1756.0 0.000569 1372.80481 1736.81177
1914.0 0.000522 1372.67163 1858.53564
2266.0 0.000441 1372.53772 2093.21533
2724.0 0.000367 1372.40283 2543.87622
3651.0 0.0002739 1372.26709 3339.81250
4699.0 0.0002128 1372.13013 4568.88281
6251.0 0.0001600 1371.99231 6165.92480
7658.0 0.0001306 1371.85327 7809.27637
8599.0 0.0001163 1371.71313 8913.44922
8513.0 0.0001175 1371.57166 8911.44922
7399.0 0.0001352 1371.42908 7817.11475
6153.0 0.0001625 1371.28516 6225.90430
4618.0 0.0002165 1371.13977 4726.59766
3540.0 0.0002825 1370.99316 3635.32422
3061.0 0.0003267 1370.84497 3033.52808
3066.0 0.0003262 1370.69543 2898.83154
3491.0 0.0002865 1370.54431 3251.36401
4390.0 0.0002278 1370.39160 4241.35498
6245.0 0.0001601 1370.23718 6115.58936
8964.0 0.0001116 1370.08118 9034.62207
12777.0 0.0000783 1369.92358 12790.56641
16316.0 0.0000613 1369.76416 16564.83789
18480.0 0.0000541 1369.60303 18928.76172
17874.0 0.0000559 1369.43994 18599.75781
15463.0 0.0000647 1369.27502 15747.43945
11231.0 0.0000890 1369.10828 11822.65332
7649.0 0.0001307 1368.93945 8160.71289
4981.0 0.0002008 1368.76880 5426.30029
3556.0 0.0002812 1368.59607 3703.60596
2627.0 0.000381 1368.42126 2754.08325
2262.0 0.000442 1368.24438 2271.94141
2034.0 0.000492 1368.06543 2026.96118
1774.0 0.000564 1367.88416 1889.68933
1772.0 0.000564 1367.70081 1800.75159
1667.0 0.000600 1367.51514 1736.11096
1674.0 0.000597 1367.32727 1686.10461
1643.0 0.000609 1367.13708 1646.26086
1556.0 0.000643 1366.94470 1614.05652
1521.0 0.000657 1366.74963 1587.92615
1544.0 0.000648 1366.55237 1567.04907
1586.0 0.000631 1366.35266 1551.45239
1591.0 0.000629 1366.15051 1542.21387
1494.0 0.000669 1365.94592 1541.35059
1566.0 0.000639 1365.73865 1550.83728
1557.0 0.000642 1365.52893 1570.56226
1545.0 0.000647 1365.31665 1595.94971
1568.0 0.000638 1365.10181 1616.64819
1640.0 0.000610 1364.88416 1619.25598
1645.0 0.000608 1364.66394 1597.82642
1580.0 0.000633 1364.44116 1560.92383
1473.0 0.000679 1364.21545 1521.88489
1478.0 0.000677 1363.98730 1489.42285
1519.0 0.000658 1363.75610 1466.48474
1417.0 0.000706 1363.52234 1452.03369
1484.0 0.000674 1363.28564 1443.43494
1462.0 0.000684 1363.04614 1438.25098
1529.0 0.000654 1362.80383 1434.92151
1456.0 0.000687 1362.55872 1432.66748
1390.0 0.000719 1362.31067 1431.17114
1387.0 0.000721 1362.05969 1430.33167
1487.0 0.000672 1361.80579 1430.14124
1447.0 0.000691 1361.54907 1430.64319
1459.0 0.000685 1361.28931 1431.92102
1477.0 0.000677 1361.02649 1434.10425
1479.0 0.000676 1360.76074 1437.38391
1526.0 0.000655 1360.49207 1435.82288
1493.0 0.000670 1360.22021 1442.51526
1455.0 0.000687 1359.94543 1451.83264
1554.0 0.000644 1359.66760 1466.44592
1499.0 0.000667 1359.38672 1489.22046
1628.0 0.000614 1359.10278 1531.87256
1659.0 0.000603 1358.81567 1617.24976
1856.0 0.000539 1358.52563 1784.16223
2109.0 0.000474 1358.23230 2081.19531
2658.0 0.000376 1357.93591 2541.46875
3231.0 0.0003095 1357.63647 3141.12988
4028.0 0.0002483 1357.33386 3760.32104
4393.0 0.0002276 1357.02808 4177.90186
4436.0 0.0002254 1356.71924 4174.53125
3835.0 0.0002608 1356.40710 3733.99829
3171.0 0.0003154 1356.09192 3109.50781
2536.0 0.000394 1355.77356 2511.30786
2083.0 0.000480 1355.45203 2052.48096
1766.0 0.000566 1355.12732 1757.50598
1612.0 0.000620 1354.79944 1592.14404
1533.0 0.000652 1354.46826 1507.35144
1525.0 0.000656 1354.13416 1464.38879
1538.0 0.000650 1353.79663 1440.69824
1397.0 0.000716 1353.45605 1425.64526
1464.0 0.000683 1353.11230 1414.85059
1493.0 0.000670 1352.76526 1406.55591
1469.0 0.000681 1352.41516 1399.96313
1522.0 0.000657 1352.06177 1394.62683
1490.0 0.000671 1351.70532 1390.45776
1478.0 0.000677 1351.34558 1386.84961
1372.0 0.000729 1350.98279 1383.84766
1467.0 0.000682 1350.61682 1381.33972
1450.0 0.000690 1350.24756 1379.24109
1347.0 0.000742 1349.87537 1377.48938
1372.0 0.000729 1349.49976 1376.03601
1475.0 0.000678 1349.12122 1374.84668
1492.0 0.000670 1348.73938 1373.89514
1372.0 0.000729 1348.35449 1373.16479
1382.0 0.000724 1347.96655 1372.64539
1485.0 0.000673 1347.57544 1372.20447
1394.0 0.000717 1347.18127 1372.10779
1475.0 0.000678 1346.78394 1372.23181
1469.0 0.000681 1346.38354 1372.59412
1389.0 0.000720 1345.98010 1373.22168
1414.0 0.000707 1345.57349 1374.15320
1383.0 0.000723 1345.16394 1375.44263
1481.0 0.000675 1344.75146 1377.16443
1402.0 0.000713 1344.33582 1379.42419
1418.0 0.000705 1343.91724 1382.38025
1369.0 0.000730 1343.49561 1386.30542
1451.0 0.000689 1343.07104 1391.77417
1476.0 0.000678 1342.64343 1400.17041
1392.0 0.000718 1342.21289 1414.81116
1488.0 0.000672 1341.77954 1442.75256
1558.0 0.000642 1341.34314 1496.31409
1649.0 0.000606 1340.90405 1591.67139
1767.0 0.000566 1340.46191 1741.41663
1992.0 0.000502 1340.01697 1941.30090
2154.0 0.000464 1339.56921 2156.67163
2257.0 0.000443 1339.11865 2317.75684
2233.0 0.000448 1338.66516 2346.48291
2170.0 0.000461 1338.20898 2228.44141
1971.0 0.000507 1337.75000 2032.47217
1821.0 0.000549 1337.28845 1838.55176
1674.0 0.000597 1336.82410 1695.14917
1602.0 0.000624 1336.35693 1622.07800
1644.0 0.000608 1335.88721 1627.77356
1732.0 0.000577 1335.41492 1728.45178
1943.0 0.000515 1334.93982 1955.98560
2297.0 0.000435 1334.46228 2340.73438
2841.0 0.000352 1333.98218 2884.54419
3419.0 0.0002925 1333.49951 3502.76050
3998.0 0.0002501 1333.01428 4010.51953
4103.0 0.0002437 1332.52649 4169.85938
3771.0 0.0002652 1332.03638 3882.68140
3210.0 0.0003115 1331.54370 3310.68848
2473.0 0.000404 1331.04871 2693.45557
2089.0 0.000479 1330.55127 2185.53418
1752.0 0.000571 1330.05139 1840.11609
1671.0 0.000598 1329.54932 1641.51880
1588.0 0.000630 1329.04504 1547.04675
1431.0 0.000699 1328.53833 1517.57788
1467.0 0.000682 1328.02954 1527.32739
1586.0 0.000631 1327.51831 1558.95654
1608.0 0.000622 1327.00500 1595.11414
1597.0 0.000626 1326.48962 1614.44861
1570.0 0.000637 1325.97205 1599.82214
1550.0 0.000645 1325.45239 1554.48950
1470.0 0.000680 1324.93066 1497.46338
1476.0 0.000678 1324.40698 1445.32898
1491.0 0.000671 1323.88123 1406.01941
1379.0 0.000725 1323.35352 1380.26123
1313.0 0.000762 1322.82397 1364.84937
1340.0 0.000746 1322.29236 1355.80505
1293.0 0.000773 1321.75916 1350.13000
1355.0 0.000738 1321.22388 1346.10925
1426.0 0.000701 1320.68701 1342.93140
1371.0 0.000729 1320.14819 1340.24622
1327.0 0.000754 1319.60779 1337.89868
1333.0 0.000750 1319.06567 1335.80664
1319.0 0.000758 1318.52185 1333.91882
1326.0 0.000754 1317.97644 1332.19653
1338.0 0.000747 1317.42944 1330.61206
1266.0 0.000790 1316.88086 1329.15027
1312.0 0.000762 1316.33093 1327.77820
1377.0 0.000726 1315.77954 1326.48901
1287.0 0.000777 1315.22644 1325.27100
1285.0 0.000778 1314.67212 1324.11475
1261.0 0.000793 1314.11646 1323.01221
1237.0 0.000808 1313.55933 1321.95679
1303.0 0.000767 1313.00098 1320.94360
1290.0 0.000775 1312.44153 1319.96863
1260.0 0.000794 1311.88074 1319.02917
1286.0 0.000778 1311.31873 1318.30505
1365.0 0.000733 1310.75574 1317.43787
1292.0 0.000774 1310.19153 1316.59888
1276.0 0.000784 1309.62622 1314.92419
1290.0 0.000775 1309.05994 1314.14612
1215.0 0.000823 1308.49268 1313.36768
1311.0 0.000763 1307.92444 1312.58862
1243.0 0.000805 1307.35535 1311.81567
1280.0 0.000781 1306.78540 1311.05664
1277.0 0.000783 1306.21472 1310.31421
1326.0 0.000754 1305.64307 1310.95850
1267.0 0.000789 1305.07068 1310.29590
1224.0 0.000817 1304.49756 1309.64807
1286.0 0.000778 1303.92395 1309.21387
1259.0 0.000794 1303.34949 1308.59753
1284.0 0.000779 1302.77454 1307.99280
1350.0 0.000741 1302.19910 1307.39966
1278.0 0.000782 1301.62305 1304.37073
1275.0 0.000784 1301.04663 1303.88342
1276.0 0.000784 1300.46960 1303.40356
1297.0 0.000771 1299.89233 1302.93152
1303.0 0.000767 1299.31470 1302.46863
1276.0 0.000784 1298.73657 1302.01477
1302.0 0.000768 1298.15833 1301.57153
1243.0 0.000805 1297.57983 1301.13953
1294.0 0.000773 1297.00122 1300.72034
1248.0 0.000801 1296.42236 1300.31494
1257.0 0.000796 1295.84338 1299.92517
1311.0 0.000763 1295.26440 1299.55273
1269.0 0.000788 1294.68518 1298.99133
1327.0 0.000754 1294.10608 1298.66663
1255.0 0.000797 1293.52710 1298.36646
1313.0 0.000762 1292.94812 1298.11121
1227.0 0.000815 1292.36938 1297.87085
1267.0 0.000789 1291.79065 1297.66675
1228.0 0.000814 1291.21216 1297.50562
1280.0 0.000781 1290.63391 1297.39502
1323.0 0.000756 1290.05591 1297.34827
1335.0 0.000749 1289.47827 1297.38794
1314.0 0.000761 1288.90100 1297.55835
1297.0 0.000771 1288.32410 1297.94226
1274.0 0.000785 1287.74756 1298.67090
1282.0 0.000780 1287.17163 1299.90491
1360.0 0.000735 1286.59619 1301.75818
1252.0 0.000799 1286.02124 1304.18311
1303.0 0.000767 1285.44690 1306.86218
1330.0 0.000752 1284.87317 1309.19958
1330.0 0.000752 1284.30005 1310.65564
1285.0 0.000778 1283.72778 1311.47144
1307.0 0.000765 1283.15613 1312.84229
1342.0 0.000745 1282.58533 1316.56226
1304.0 0.000767 1282.01538 1325.08521
1285.0 0.000778 1281.44617 1341.57861
1417.0 0.000706 1280.87781 1369.09705
1422.0 0.000703 1280.31042 1408.75977
1464.0 0.000683 1279.74402 1456.05469
1441.0 0.000694 1279.17859 1500.44470
1493.0 0.000670 1278.61426 1526.38037
1537.0 0.000651 1278.05103 1525.63953
1469.0 0.000681 1277.48877 1510.88074
1488.0 0.000672 1276.92773 1509.61902
1573.0 0.000636 1276.36780 1552.93530
1747.0 0.000572 1275.80920 1670.69299
1943.0 0.000515 1275.25171 1883.01196
2244.0 0.000446 1274.69556 2181.46240
2502.0 0.000400 1274.14075 2516.36914
2728.0 0.000367 1273.58728 2784.92310
2871.0 0.0003483 1273.03528 2866.78809
2686.0 0.000372 1272.48462 2729.12085
2399.0 0.000417 1271.93542 2457.94214
2051.0 0.000488 1271.38757 2153.65576
1844.0 0.000542 1270.84131 1878.65906
1578.0 0.000634 1270.29663 1665.25537
1500.0 0.000667 1269.75354 1519.01770
1394.0 0.000717 1269.21204 1427.48010
1374.0 0.000728 1268.67236 1373.50098
1345.0 0.000743 1268.13416 1342.55579
1300.0 0.000769 1267.59766 1324.57886
1317.0 0.000759 1267.06299 1313.47827
1278.0 0.000782 1266.53003 1306.10767
1255.0 0.000797 1265.99890 1300.63586
1266.0 0.000790 1265.46948 1296.50940
1327.0 0.000754 1264.94202 1293.51941
1312.0 0.000762 1264.41663 1291.71790
1285.0 0.000778 1263.89294 1291.27051
1323.0 0.000756 1263.37122 1292.24561
1269.0 0.000788 1262.85144 1294.34253
1321.0 0.000757 1262.33374 1296.65979
1237.0 0.000808 1261.81799 1297.69299
1236.0 0.000809 1261.30432 1296.11060
1267.0 0.000789 1260.79272 1292.12415
1291.0 0.000775 1260.28333 1287.22339
1207.0 0.000829 1259.77612 1282.74170
1345.0 0.000743 1259.27087 1279.34375
1290.0 0.000775 1258.76794 1277.12988
1279.0 0.000782 1258.26721 1275.88318
1265.0 0.000791 1257.76868 1275.31628
1324.0 0.000755 1257.27234 1275.21606
1287.0 0.000777 1256.77832 1275.47827
1338.0 0.000747 1256.28674 1276.09045
1298.0 0.000770 1255.79749 1277.11633
1265.0 0.000791 1255.31042 1278.72937
1290.0 0.000775 1254.82581 1281.35303
1266.0 0.000790 1254.34351 1285.94983
1338.0 0.000747 1253.86377 1294.53870
1334.0 0.000750 1253.38635 1310.50586
1357.0 0.000737 1252.91150 1338.20789
1377.0 0.000726 1252.43921 1380.98364
1446.0 0.000692 1251.96924 1437.75891
1508.0 0.000663 1251.50195 1499.61670
1533.0 0.000652 1251.03711 1548.55530
1596.0 0.000627 1250.57483 1564.82446
1595.0 0.000627 1250.11511 1547.85791
1558.0 0.000642 1249.65796 1523.62915
1593.0 0.000628 1249.20349 1526.92566
1639.0 0.000610 1248.75159 1588.61340
1874.0 0.000534 1248.30237 1725.66248
1948.0 0.000513 1247.85596 1933.05591
2222.0 0.000450 1247.41199 2170.97583
2416.0 0.000414 1246.97083 2361.15259
2648.0 0.000378 1246.53235 2411.71460
2400.0 0.000417 1246.09656 2289.39355
2161.0 0.000463 1245.66357 2057.99146
1922.0 0.000520 1245.23340 1808.46497
1588.0 0.000630 1244.80579 1603.05920
1571.0 0.000637 1244.38123 1460.72205
1419.0 0.000705 1243.95923 1375.23840
1340.0 0.000746 1243.54016 1329.15491
1363.0 0.000734 1243.12378 1306.55298
1311.0 0.000763 1242.71045 1296.97107
1366.0 0.000732 1242.29968 1296.12952
1305.0 0.000766 1241.89197 1303.46851
1292.0 0.000774 1241.48694 1319.41736
1398.0 0.000715 1241.08496 1342.75623
1383.0 0.000723 1240.68579 1368.50525
1394.0 0.000717 1240.28943 1387.10620
1349.0 0.000741 1239.89600 1387.90674
1359.0 0.000736 1239.50549 1368.96741
1406.0 0.000711 1239.11792 1339.47168
1356.0 0.000737 1238.73315 1309.85803
1288.0 0.000776 1238.35132 1286.11584
1246.0 0.000803 1237.97253 1269.88049
1319.0 0.000758 1237.59656 1260.01099
1265.0 0.000791 1237.22363 1254.38110
1244.0 0.000804 1236.85364 1251.12231
1296.0 0.000772 1236.48645 1249.03247
1309.0 0.000764 1236.12231 1247.54675
1279.0 0.000782 1235.76099 1246.37512
1240.0 0.000806 1235.40271 1245.41028
1256.0 0.000796 1235.04749 1244.60413
1208.0 0.000828 1234.69519 1243.93298
1197.0 0.000835 1234.34570 1243.38696
1269.0 0.000788 1233.99927 1242.96875
1256.0 0.000796 1233.65588 1242.69397
1237.0 0.000808 1233.31531 1242.59326
1182.0 0.000846 1232.97778 1242.70374
1306.0 0.000766 1232.64319 1243.05127
1178.0 0.000849 1232.31152 1243.62915
1208.0 0.000828 1231.98291 1244.38293
1214.0 0.000824 1231.65710 1245.23169
1203.0 0.000831 1231.33447 1246.19946
1300.0 0.000769 1231.01453 1247.62402
1252.0 0.000799 1230.69763 1250.27563
1230.0 0.000813 1230.38379 1255.50122
1322.0 0.000756 1230.07275 1265.48499
1320.0 0.000758 1229.76465 1283.37378
1291.0 0.000775 1229.45959 1312.94336
1344.0 0.000744 1229.15735 1357.16455
1329.0 0.000752 1228.85803 1416.78943
1577.0 0.000634 1228.56165 1485.72949
1616.0 0.000619 1228.26831 1552.33789
1569.0 0.000637 1227.97766 1601.58728
1586.0 0.000631 1227.68994 1613.78943
1604.0 0.000623 1227.40515 1576.36340
1509.0 0.000663 1227.12317 1503.33008
1382.0 0.000724 1226.84424 1422.43457
1329.0 0.000752 1226.56799 1353.20959
1267.0 0.000789 1226.29468 1302.74829
1193.0 0.000838 1226.02417 1271.84204
1255.0 0.000797 1225.75647 1254.45215
1237.0 0.000808 1225.49158 1245.14050
1246.0 0.000803 1225.22949 1239.99609
1188.0 0.000842 1224.97034 1236.82739
1231.0 0.000812 1224.71387 1234.60388
1227.0 0.000815 1224.46008 1232.88733
1239.0 0.000807 1224.20911 1231.48975
1194.0 0.000838 1223.96094 1230.31775
1205.0 0.000830 1223.71545 1229.31519
1201.0 0.000833 1223.47278 1228.44458
1223.0 0.000818 1223.23267 1227.67773
1225.0 0.000816 1222.99536 1226.99487
1188.0 0.000842 1222.76062 1226.37976
1241.0 0.000806 1222.52869 1225.69116
1237.0 0.000808 1222.29932 1225.18323
1241.0 0.000806 1222.07263 1224.71411
1244.0 0.000804 1221.84851 1224.27856
1160.0 0.000862 1221.62695 1224.71326
1218.0 0.000821 1221.40808 1224.35596
1225.0 0.000816 1221.19165 1224.02637
1163.0 0.000860 1220.97791 1223.71216
1177.0 0.000850 1220.76660 1223.41699
1260.0 0.000794 1220.55786 1223.13879
1248.0 0.000801 1220.35168 1222.87708
1183.0 0.000845 1220.14783 1222.63049
1140.0 0.000877 1219.94653 1222.48767
1190.0 0.000840 1219.74756 1222.27563
1213.0 0.000824 1219.55103 1222.08289
1234.0 0.000810 1219.35706 1221.91833
1234.0 0.000810 1219.16541 1221.80151
1210.0 0.000826 1218.97595 1221.77222
1197.0 0.000835 1218.78906 1221.89429
1180.0 0.000847 1218.60425 1222.24390
1248.0 0.000801 1218.42188 1222.86768
1200.0 0.000833 1218.24182 1223.72009
1251.0 0.000799 1218.06396 1224.60657
1204.0 0.000831 1217.88831 1225.16650
1206.0 0.000829 1217.71497 1225.03491
1226.0 0.000816 1217.54370 1224.21033
1243.0 0.000805 1217.37463 1223.05518
1222.0 0.000818 1217.20776 1221.93420
1272.0 0.000786 1217.04297 1221.04309
1185.0 0.000844 1216.88025 1220.42786
1210.0 0.000826 1216.71960 1220.04224
1254.0 0.000797 1216.56104 1219.81030
1237.0 0.000808 1216.40442 1219.66797
1237.0 0.000808 1216.25000 1219.57617
1206.0 0.000829 1216.09741 1219.42749
1180.0 0.000847 1215.94678 1219.39136
1276.0 0.000784 1215.79797 1219.37512
1216.0 0.000822 1215.65125 1219.05444
1282.0 0.000780 1215.50623 1219.08838
1290.0 0.000775 1215.36316 1219.14282
1214.0 0.000824 1215.22192 1219.21912
1259.0 0.000794 1215.08252 1219.31921
1223.0 0.000818 1214.94470 1219.44592
1209.0 0.000827 1214.80872 1219.60181
1228.0 0.000814 1214.67456 1219.79065
1204.0 0.000831 1214.54199 1220.09900
1224.0 0.000817 1214.41113 1220.36963
1226.0 0.000816 1214.28198 1220.68848
1221.0 0.000819 1214.15430 1221.06250
1204.0 0.000831 1214.02832 1221.50122
1202.0 0.000832 1213.90381 1222.01489
1258.0 0.000795 1213.78088 1222.61658
1272.0 0.000786 1213.65942 1223.32275
1229.0 0.000814 1213.53943 1224.15283
1261.0 0.000793 1213.42090 1225.13318
1228.0 0.000814 1213.30371 1226.29565
1236.0 0.000809 1213.18799 1227.68164
1237.0 0.000808 1213.07361 1229.34534
1229.0 0.000814 1212.96069 1231.35828
1267.0 0.000789 1212.84888 1233.81653
1254.0 0.000797 1212.73853 1236.86267
1216.0 0.000822 1212.62927 1240.68164
1230.0 0.000813 1212.52124 1245.63074
1262.0 0.000792 1212.41443 1252.43909
1238.0 0.000808 1212.30884 1262.81482
1287.0 0.000777 1212.20435 1280.71289
1293.0 0.000773 1212.10095 1314.30066
1375.0 0.000727 1211.99866 1377.57617
1587.0 0.000630 1211.89734 1488.92261
1726.0 0.000579 1211.79712 1663.44641
1937.0 0.000516 1211.69775 1899.09863
2223.0 0.000450 1211.59949 2161.50122
2378.0 0.000421 1211.50220 2374.78857
2410.0 0.000415 1211.40564 2441.32520
2227.0 0.000449 1211.30994 2323.11230
2015.0 0.000496 1211.21521 2088.93286
1812.0 0.000552 1211.12122 1837.33508
1603.0 0.000624 1211.02808 1632.68396
1462.0 0.000684 1210.93567 1499.09131
1383.0 0.000723 1210.84399 1430.77563
1440.0 0.000694 1210.75293 1405.79712
1402.0 0.000713 1210.66260 1397.71655
1347.0 0.000742 1210.57288 1384.61865
1339.0 0.000747 1210.48376 1358.63977
1295.0 0.000772 1210.39526 1325.67896
1285.0 0.000778 1210.30725 1294.16943
1250.0 0.000800 1210.21985 1269.05554
1249.0 0.000801 1210.13281 1251.56982
1265.0 0.000791 1210.04626 1240.51990
1281.0 0.000781 1209.96021 1233.84180
1276.0 0.000784 1209.87451 1229.71021
1264.0 0.000791 1209.78918 1226.93835
1228.0 0.000814 1209.70435 1224.89380
1239.0 0.000807 1209.61963 1223.27588
1232.0 0.000812 1209.53528 1221.95313
1263.0 0.000792 1209.45117 1220.85217
1193.0 0.000838 1209.36719 1219.93127
1230.0 0.000813 1209.28357 1219.16260
1208.0 0.000828 1209.20007 1218.52808
1262.0 0.000792 1209.11670 1218.01526
1227.0 0.000815 1209.03345 1217.61938
1268.0 0.000789 1208.95032 1217.34033
1205.0 0.000830 1208.86719 1221.60657
1189.0 0.000841 1208.78406 1221.73584
1246.0 0.000803 1208.70105 1222.08105
1234.0 0.000810 1208.61804 1222.79028
1250.0 0.000800 1208.53479 1224.21301
1241.0 0.000806 1208.45154 1227.08167
1220.0 0.000820 1208.36829 1232.67371
1307.0 0.000765 1208.28479 1242.71057
1265.0 0.000791 1208.20117 1258.69238
1194.0 0.000838 1208.11743 1280.63403
1420.0 0.000704 1208.03333 1305.62109
1329.0 0.000752 1207.94910 1327.44299
1292.0 0.000774 1207.86450 1335.50061
1258.0 0.000795 1207.77966 1325.68933
1318.0 0.000759 1207.69446 1303.63403
1321.0 0.000757 1207.60901 1278.75513
1318.0 0.000759 1207.52307 1257.45544
1237.0 0.000808 1207.43689 1242.25867
1223.0 0.000818 1207.35022 1232.91565
1230.0 0.000813 1207.26294 1227.86218
1236.0 0.000809 1207.17542 1225.45056
1304.0 0.000767 1207.08728 1224.56152
1205.0 0.000830 1206.99854 1224.66833
1209.0 0.000827 1206.90942 1225.63184
1245.0 0.000803 1206.81970 1227.42627
1276.0 0.000784 1206.72925 1229.88953
1281.0 0.000781 1206.63831 1232.53625
1228.0 0.000814 1206.54663 1234.49365
1241.0 0.000806 1206.45435 1234.85730
1254.0 0.000797 1206.36133 1233.57104
1256.0 0.000796 1206.26770 1231.49524
1310.0 0.000763 1206.17322 1229.51965
1248.0 0.000801 1206.07800 1228.13843
1251.0 0.000799 1205.98206 1227.48315
1241.0 0.000806 1205.88525 1227.46021
1178.0 0.000849 1205.78772 1227.89746
1245.0 0.000803 1205.68933 1228.64417
1245.0 0.000803 1205.58997 1229.60913
1215.0 0.000823 1205.48975 1230.75378
1243.0 0.000805 1205.38867 1232.07568
1242.0 0.000805 1205.28662 1232.76013
1214.0 0.000824 1205.18359 1234.53601
1248.0 0.000801 1205.07959 1236.59326
1274.0 0.000785 1204.97461 1238.97498
1293.0 0.000773 1204.86865 1241.72034
1244.0 0.000804 1204.76160 1244.98901
1203.0 0.000831 1204.65356 1248.38062
1243.0 0.000805 1204.54443 1251.99121
1188.0 0.000842 1204.43433 1255.85278
1294.0 0.000773 1204.32300 1260.07751
1286.0 0.000778 1204.21057 1265.10596
1301.0 0.000769 1204.09705 1271.08911
1255.0 0.000797 1203.98230 1278.25830
1292.0 0.000774 1203.86633 1286.86707
1328.0 0.000753 1203.74927 1297.23413
1291.0 0.000775 1203.63098 1309.79517
1330.0 0.000752 1203.51147 1325.16760
1349.0 0.000741 1203.39063 1344.27319
1373.0 0.000728 1203.26868 1368.65820
1403.0 0.000713 1203.14539 1401.41101
1429.0 0.000700 1203.02087 1449.57874
1570.0 0.000637 1202.89490 1529.52795
1778.0 0.000562 1202.76782 1675.59192
2037.0 0.000491 1202.63928 1949.29590
2491.0 0.000401 1202.50940 2437.11182
3421.0 0.0002923 1202.37817 3221.99243
4577.0 0.0002185 1202.24561 4323.24170
5836.0 0.0001714 1202.11169 5622.56055
6986.0 0.0001431 1201.97632 6805.58594
7364.0 0.0001358 1201.83960 7392.37646
7124.0 0.0001404 1201.70142 7054.44922
5957.0 0.0001679 1201.56177 5991.19629
4660.0 0.0002146 1201.42078 4692.98145
3368.0 0.0002969 1201.27832 3535.93652
2742.0 0.000365 1201.13440 2694.90112
2236.0 0.000447 1200.98901 2192.05151
2041.0 0.000490 1200.84204 1966.91650
1917.0 0.000522 1200.69373 1935.84363
1975.0 0.000506 1200.54382 2019.54114
2038.0 0.000491 1200.39246 2141.64697
2140.0 0.000467 1200.23950 2219.51782
2118.0 0.000472 1200.08508 2184.83081
1956.0 0.000511 1199.92920 2038.80737
1723.0 0.000580 1199.77173 1843.13708
1575.0 0.000635 1199.61267 1656.62903
1453.0 0.000688 1199.45203 1510.11096
1388.0 0.000720 1199.28992 1410.17700
1370.0 0.000730 1199.12622 1348.73987
1369.0 0.000730 1198.96082 1312.93677
1293.0 0.000773 1198.79395 1291.72559
1247.0 0.000802 1198.62561 1278.06262
1201.0 0.000833 1198.45557 1268.26062
1220.0 0.000820 1198.28394 1260.61646
1230.0 0.000813 1198.11072 1254.36475
1225.0 0.000816 1197.93591 1249.12805
1194.0 0.000838 1197.75952 1244.68591
1243.0 0.000805 1197.58142 1240.88953
1194.0 0.000838 1197.40173 1237.62390
1248.0 0.000801 1197.22058 1234.82678
1264.0 0.000791 1197.03772 1232.43262
1210.0 0.000826 1196.85327 1230.40198
1239.0 0.000807 1196.66711 1228.71069
1232.0 0.000812 1196.47949 1227.35205
1192.0 0.000839 1196.29016 1226.33862
1252.0 0.000799 1196.09924 1225.72180
1187.0 0.000842 1195.90662 1225.63806
1209.0 0.000827 1195.71252 1226.43335
1210.0 0.000826 1195.51672 1228.91101
1217.0 0.000822 1195.31946 1234.69861
1220.0 0.000820 1195.12036 1246.51233
1277.0 0.000783 1194.91980 1267.81738
1289.0 0.000776 1194.71753 1301.34473
1347.0 0.000742 1194.51379 1346.51965
1423.0 0.000703 1194.30835 1396.68909
1413.0 0.000708 1194.10132 1437.33557
1446.0 0.000692 1193.89270 1449.61914
1426.0 0.000701 1193.68262 1425.90063
1373.0 0.000728 1193.47070 1379.07007
1242.0 0.000805 1193.25732 1328.27222
1249.0 0.000801 1193.04236 1284.91541
1269.0 0.000788 1192.82581 1253.98230
1242.0 0.000805 1192.60779 1234.83728
1271.0 0.000787 1192.38806 1224.49744
1184.0 0.000845 1192.16699 1220.04358
1232.0 0.000812 1191.94409 1219.81250
1254.0 0.000797 1191.71985 1223.41309
1189.0 0.000841 1191.49402 1231.00061
1227.0 0.000815 1191.26660 1242.23682
1242.0 0.000805 1191.03784 1255.30212
1222.0 0.000818 1190.80737 1266.25793
1213.0 0.000824 1190.57544 1269.77881
1237.0 0.000808 1190.34216 1263.25098
1234.0 0.000810 1190.10718 1249.87390
1188.0 0.000842 1189.87097 1234.92944
1119.0 0.000894 1189.63306 1222.00256
1191.0 0.000840 1189.39380 1212.53186
1161.0 0.000861 1189.15308 1206.42383
1169.0 0.000855 1188.91101 1202.83533
1175.0 0.000851 1188.66736 1196.38196
1198.0 0.000835 1188.42249 1195.40881
1191.0 0.000840 1188.17603 1194.92065
1201.0 0.000833 1187.92834 1194.69556
1205.0 0.000830 1187.67908 1194.70459
1151.0 0.000869 1187.42859 1194.78979
1145.0 0.000873 1187.17676 1195.19946
1170.0 0.000855 1186.92346 1196.12305
1153.0 0.000867 1186.66895 1197.55334
1233.0 0.000811 1186.41321 1199.14563
1186.0 0.000843 1186.15613 1200.18750
1136.0 0.000880 1185.89758 1199.90796
1169.0 0.000855 1185.63794 1197.71765
1152.0 0.000868 1185.37708 1195.39307
1161.0 0.000861 1185.11487 1193.16785
1242.0 0.000805 1184.85144 1191.48865
1227.0 0.000815 1184.58679 1190.48096
1184.0 0.000845 1184.32104 1190.02844
1248.0 0.000801 1184.05420 1189.87122
1145.0 0.000873 1183.78601 1189.69885
1200.0 0.000833 1183.51672 1189.29712
1209.0 0.000827 1183.24634 1188.68445
1126.0 0.000888 1182.97485 1188.01831
1181.0 0.000847 1182.70227 1187.43054
1200.0 0.000833 1182.42859 1186.98438
1136.0 0.000880 1182.15381 1186.68762
1198.0 0.000835 1181.87805 1186.51807
1147.0 0.000872 1181.60132 1186.44727
1175.0 0.000851 1181.32349 1186.45483
1149.0 0.000870 1181.04480 1186.53271
1183.0 0.000845 1180.76501 1186.68250
1151.0 0.000869 1180.48438 1186.91321
1230.0 0.000813 1180.20288 1187.24036
1143.0 0.000875 1179.92029 1187.68433
1181.0 0.000847 1179.63696 1188.29541
1246.0 0.000803 1179.35278 1189.06738
1116.0 0.000896 1179.06763 1190.07385
1152.0 0.000868 1178.78174 1191.39111
1184.0 0.000845 1178.49512 1193.14404
1156.0 0.000865 1178.20752 1195.57813
1204.0 0.000831 1177.91931 1199.24011
1247.0 0.000802 1177.63037 1205.38110
1209.0 0.000827 1177.34058 1216.63086
1249.0 0.000801 1177.05029 1237.71594
1298.0 0.000770 1176.75928 1275.42517
1400.0 0.000714 1176.46753 1336.63684
1408.0 0.000710 1176.17517 1423.70911
1563.0 0.000640 1175.88220 1529.43445
1636.0 0.000611 1175.58875 1630.91870
1571.0 0.000637 1175.29456 1690.39746
1565.0 0.000639 1175.00000 1675.89661
1598.0 0.000626 1174.70496 1595.70862
1468.0 0.000681 1174.40930 1488.40466
1445.0 0.000692 1174.11316 1387.23132
1362.0 0.000734 1173.81665 1308.89355
1378.0 0.000726 1173.51965 1256.57800
1412.0 0.000708 1173.22241 1225.50269
1356.0 0.000737 1172.92468 1208.42175
1357.0 0.000737 1172.62659 1203.53564
1321.0 0.000757 1172.32825 1198.41150
1292.0 0.000774 1172.02954 1195.24866
1286.0 0.000778 1171.73059 1193.09351
1213.0 0.000824 1171.43140 1191.68274
1270.0 0.000787 1171.13196 1190.84900
1230.0 0.000813 1170.83240 1190.65002
1203.0 0.000831 1170.53259 1191.37158
1182.0 0.000846 1170.23254 1193.66638
1249.0 0.000801 1169.93250 1198.66614
1257.0 0.000796 1169.63245 1207.85974
1218.0 0.000821 1169.33215 1222.56873
1281.0 0.000781 1169.03186 1242.63391
1273.0 0.000786 1168.73157 1265.62549
1327.0 0.000754 1168.43127 1285.75684
1285.0 0.000778 1168.13110 1295.05713
1328.0 0.000753 1167.83081 1289.75964
1249.0 0.000801 1167.53076 1275.77881
1238.0 0.000808 1167.23071 1263.15723
1257.0 0.000796 1166.93091 1259.25842
1251.0 0.000799 1166.63110 1266.72437
1252.0 0.000799 1166.33167 1283.02747
1202.0 0.000832 1166.03235 1300.57678
1277.0 0.000783 1165.73315 1308.49390
1275.0 0.000784 1165.43433 1299.53992
1257.0 0.000796 1165.13586 1277.27124
1233.0 0.000811 1164.83765 1250.86548
1272.0 0.000786 1164.53992 1227.29492
1179.0 0.000848 1164.24243 1209.70740
1184.0 0.000845 1163.94531 1198.33264
1102.0 0.000907 1163.64868 1191.80566
1167.0 0.000857 1163.35254 1188.40442
1207.0 0.000829 1163.05676 1186.76392
1145.0 0.000873 1162.76147 1186.05676
1190.0 0.000840 1162.46692 1185.87231
1097.0 0.000912 1162.17273 1186.04297
1188.0 0.000842 1161.87927 1186.53040
1166.0 0.000858 1161.58630 1187.38940
1125.0 0.000889 1161.29407 1188.78162
1159.0 0.000863 1161.00244 1190.99805
1232.0 0.000812 1160.71155 1194.43262
1185.0 0.000844 1160.42126 1199.43530
1200.0 0.000833 1160.13184 1206.04932
1253.0 0.000798 1159.84314 1213.69873
1200.0 0.000833 1159.55530 1220.94556
1175.0 0.000851 1159.26819 1225.66882
1222.0 0.000818 1158.98193 1226.56616
1218.0 0.000821 1158.69666 1224.72266
1193.0 0.000838 1158.41211 1222.39929
1215.0 0.000823 1158.12866 1221.30652
1278.0 0.000782 1157.84607 1222.28821
1219.0 0.000820 1157.56458 1225.55176
1249.0 0.000801 1157.28406 1230.98767
1270.0 0.000787 1157.00439 1238.46411
1239.0 0.000807 1156.72595 1248.01599
1310.0 0.000763 1156.44861 1259.91980
1413.0 0.000708 1156.17236 1274.73230
1353.0 0.000739 1155.89722 1293.40466
1277.0 0.000783 1155.62317 1317.66882
1429.0 0.000700 1155.35046 1351.15039
1424.0 0.000702 1155.07886 1402.07959
1538.0 0.000650 1154.80859 1488.23035
1669.0 0.000599 1154.53943 1646.07239
1998.0 0.000501 1154.27173 1933.76953
2499.0 0.000400 1154.00525 2425.61353
3237.0 0.0003089 1153.74011 3181.32666
4390.0 0.0002278 1153.47632 4193.61182
5464.0 0.0001830 1153.21399 5330.05615
6395.0 0.0001564 1152.95300 6290.49121
6723.0 0.0001487 1152.69348 6661.31055
6087.0 0.0001643 1152.43542 6230.69971
5000.0 0.0002000 1152.17883 5240.45898
3988.0 0.0002508 1151.92383 4105.22217
3076.0 0.0003251 1151.67029 3112.04663
2384.0 0.000419 1151.41833 2382.01782
1908.0 0.000524 1151.16785 1915.76965
1773.0 0.000564 1150.91907 1651.52356
1595.0 0.000627 1150.67200 1515.53015
1547.0 0.000646 1150.42651 1449.51013
1480.0 0.000676 1150.18262 1415.48816
1441.0 0.000694 1149.94055 1390.34949
1356.0 0.000737 1149.70007 1362.06873
1381.0 0.000724 1149.46143 1345.62354
1320.0 0.000758 1149.22449 1313.82336
1321.0 0.000757 1148.98938 1286.11511
1295.0 0.000772 1148.75610 1264.33093
1253.0 0.000798 1148.52454 1248.24719
1254.0 0.000797 1148.29492 1236.72021
1279.0 0.000782 1148.06726 1228.37756
1228.0 0.000814 1147.84131 1222.09998
1279.0 0.000782 1147.61743 1217.15552
1271.0 0.000787 1147.39539 1213.12354
1204.0 0.000831 1147.17529 1217.17871
1235.0 0.000810 1146.95728 1214.59204
1222.0 0.000818 1146.74121 1212.46912
1203.0 0.000831 1146.52710 1210.74536
1233.0 0.000811 1146.31506 1209.37268
1144.0 0.000874 1146.10510 1208.31213
1181.0 0.000847 1145.89722 1207.53369
1171.0 0.000854 1145.69141 1207.01318
1151.0 0.000869 1145.48767 1206.73242
1242.0 0.000805 1145.28613 1206.67676
1192.0 0.000839 1145.08679 1206.83618
1239.0 0.000807 1144.88953 1207.20300
1205.0 0.000830 1144.69458 1207.77271
1230.0 0.000813 1144.50171 1208.54407
1155.0 0.000866 1144.31104 1209.51685
1196.0 0.000836 1144.12268 1210.69446
1172.0 0.000853 1143.93652 1212.08179
1220.0 0.000820 1143.75269 1213.68628
1236.0 0.000809 1143.57129 1215.51794
1183.0 0.000845 1143.39197 1217.58838
1259.0 0.000794 1143.21509 1219.91284
1229.0 0.000814 1143.04041 1222.50916
1203.0 0.000831 1142.86829 1225.37585
1216.0 0.000822 1142.69836 1228.58313
1209.0 0.000827 1142.53088 1232.13672
1184.0 0.000845 1142.36584 1236.06995
1186.0 0.000843 1142.20325 1240.42249
1213.0 0.000824 1142.04297 1245.23975
1254.0 0.000797 1141.88525 1250.57507
1236.0 0.000809 1141.72986 1256.49072
1273.0 0.000786 1141.57703 1263.06006
1201.0 0.000833 1141.42664 1270.36963
1212.0 0.000825 1141.27881 1278.52197
1323.0 0.000756 1141.13354 1287.63892
1341.0 0.000746 1140.99060 1297.87866
1312.0 0.000762 1140.85034 1309.39441
1344.0 0.000744 1140.71252 1322.41321
1328.0 0.000753 1140.57739 1337.19897
1389.0 0.000720 1140.44470 1354.08447
1395.0 0.000717 1140.31470 1373.50256
1292.0 0.000774 1140.18726 1396.04822
1405.0 0.000712 1140.06238 1422.58838
1477.0 0.000677 1139.94006 1454.44775
1515.0 0.000660 1139.82043 1493.48120
1564.0 0.000639 1139.70349 1542.22205
1559.0 0.000641 1139.58911 1603.50745
1678.0 0.000596 1139.47742 1675.60632
1692.0 0.000591 1139.36841 1769.22119
1751.0 0.000571 1139.26196 1881.75110
1965.0 0.000509 1139.15820 2018.86121
2157.0 0.000464 1139.05713 2203.13501
2484.0 0.000403 1138.95886 2496.87134
3131.0 0.0003194 1138.86316 3024.43750
3993.0 0.0002504 1138.77026 3986.13086
5721.0 0.0001748 1138.67993 5638.71777
8411.0 0.0001189 1138.59253 8203.46484
11809.0 0.0000847 1138.50769 11697.84082
16135.0 0.0000620 1138.42554 15739.10645
19282.0 0.0000519 1138.34619 19379.86914
21074.0 0.0000475 1138.26965 21191.91992
19942.0 0.0000501 1138.19580 20213.17578
16944.0 0.0000590 1138.12463 17057.52734
12954.0 0.0000772 1138.05627 13218.54004
9563.0 0.0001046 1137.99060 9887.69238
7573.0 0.0001320 1137.92773 7699.62207
6790.0 0.0001473 1137.86768 6842.38574
7245.0 0.0001380 1137.81030 7187.41309
8612.0 0.0001161 1137.75574 8383.18359
9980.0 0.0001002 1137.70398 9883.80273
10976.0 0.0000911 1137.65491 10949.54492
10678.0 0.0000937 1137.60876 10881.92871
9519.0 0.0001051 1137.56519 9608.77832
7635.0 0.0001310 1137.52454 7714.24756
5640.0 0.0001773 1137.48657 5815.91797
4053.0 0.0002467 1137.45142 4265.35303
3129.0 0.0003196 1137.41895 3170.26660
2438.0 0.000410 1137.38940 2479.97388
2100.0 0.000476 1137.36255 2077.09082
1858.0 0.000538 1137.33850 1849.70776
1772.0 0.000564 1137.31726 1712.91309
1613.0 0.000620 1137.29871 1622.78345
1576.0 0.000635 1137.28296 1557.26917
1507.0 0.000664 1137.27002 1506.16785
1463.0 0.000684 1137.25977 1464.69666
1426.0 0.000701 1137.25232 1430.29834
1353.0 0.000739 1137.24768 1401.36719
1361.0 0.000735 1137.24573 1376.77722
1347.0 0.000742 1137.24646 1355.90344
1366.0 0.000732 1137.25012 1338.35669
1338.0 0.000747 1137.25635 1322.53137
1312.0 0.000762 1137.26538 1308.68762
1327.0 0.000754 1137.27722 1296.51514
1284.0 0.000779 1137.29175 1285.76831
1293.0 0.000773 1137.30896 1276.25122
1355.0 0.000738 1137.32886 1267.81287
1299.0 0.000770 1137.35156 1260.35193
1253.0 0.000798 1137.37695 1253.82458
1213.0 0.000824 1137.40503 1248.25818
1275.0 0.000784 1137.43579 1243.74341
1265.0 0.000791 1137.46912 1240.38562
1266.0 0.000790 1137.50525 1238.19641
1231.0 0.000812 1137.54407 1236.96753
1229.0 0.000814 1137.58557 1236.15503
1245.0 0.000803 1137.62964 1234.87720
1187.0 0.000842 1137.67627 1232.40393
1177.0 0.000850 1137.72571 1229.06580
1150.0 0.000870 1137.77771 1226.11743
1154.0 0.000867 1137.83228 1224.70923
1254.0 0.000797 1137.88953 1225.32983
1252.0 0.000799 1137.94934 1227.61694
1209.0 0.000827 1138.01172 1230.29065
1200.0 0.000833 1138.07666 1231.41736
1176.0 0.000850 1138.14417 1229.75037
1227.0 0.000815 1138.21423 1226.17078
1251.0 0.000799 1138.28687 1222.64746
1220.0 0.000820 1138.36206 1220.56799
1174.0 0.000852 1138.43970 1219.96973
1212.0 0.000825 1138.51990 1220.01074
1186.0 0.000843 1138.60254 1219.31470
1162.0 0.000861 1138.68762 1217.26465
1187.0 0.000842 1138.77515 1214.77844
1162.0 0.000861 1138.86523 1212.87927
1197.0 0.000835 1138.95764 1212.43799
1205.0 0.000830 1139.05261 1214.23401
1248.0 0.000801 1139.14990 1219.35315
1307.0 0.000765 1139.24963 1229.60559
1230.0 0.000813 1139.35168 1247.76025
1325.0 0.000755 1139.45605 1276.72595
1274.0 0.000785 1139.56287 1317.95618
1372.0 0.000729 1139.67188 1353.33167
1397.0 0.000716 1139.78333 1406.37927
1399.0 0.000715 1139.89709 1445.42615
1372.0 0.000729 1140.01306 1454.26709
1431.0 0.000699 1140.13135 1431.80151
1334.0 0.000750 1140.25183 1393.80884
1375.0 0.000727 1140.37463 1357.23596
1413.0 0.000708 1140.49963 1332.51416
1351.0 0.000740 1140.62671 1324.66882
1371.0 0.000729 1140.75598 1336.84619
1416.0 0.000706 1140.88757 1367.74792
1551.0 0.000645 1141.02124 1447.61096
1603.0 0.000624 1141.15698 1596.38660
1930.0 0.000518 1141.29480 1852.49060
2408.0 0.000415 1141.43469 2251.84204
2848.0 0.000351 1141.57678 2802.85889
3671.0 0.0002724 1141.72083 3455.82104
4153.0 0.0002408 1141.86682 4075.08325
4431.0 0.0002257 1142.01501 4443.42676
4365.0 0.0002291 1142.16504 4388.19482
3969.0 0.0002520 1142.31702 3955.88501
3336.0 0.0002998 1142.47107 3352.32300
2773.0 0.000361 1142.62695 2776.88770
2401.0 0.000416 1142.78479 2353.01782
2260.0 0.000442 1142.94446 2124.70239
2215.0 0.000451 1143.10608 2075.72852
2277.0 0.000439 1143.26941 2149.42236
2397.0 0.000417 1143.43457 2262.19556
2380.0 0.000420 1143.60168 2317.27197
2342.0 0.000427 1143.77039 2248.30249
2157.0 0.000464 1143.94092 2070.10376
1916.0 0.000522 1144.11316 1849.87354
1639.0 0.000610 1144.28723 1645.03491
1527.0 0.000655 1144.46289 1484.37720
1418.0 0.000705 1144.64014 1373.45886
1328.0 0.000753 1144.81909 1304.24475
1274.0 0.000785 1144.99963 1263.15979
1279.0 0.000782 1145.18176 1238.87744
1193.0 0.000838 1145.36548 1223.65979
1221.0 0.000819 1145.55078 1213.19348
1198.0 0.000835 1145.73755 1205.36646
1247.0 0.000802 1145.92590 1199.19409
1183.0 0.000845 1146.11560 1194.43066
1164.0 0.000859 1146.30676 1190.34534
1177.0 0.000850 1146.49939 1186.99292
1175.0 0.000851 1146.69348 1184.31396
1229.0 0.000814 1146.88879 1182.25208
1217.0 0.000822 1147.08557 1180.91675
1133.0 0.000883 1147.28357 1180.59912
1161.0 0.000861 1147.48291 1181.86609
1180.0 0.000847 1147.68359 1185.55969
1156.0 0.000865 1147.88538 1192.50488
1230.0 0.000813 1148.08850 1203.14575
1228.0 0.000814 1148.29285 1216.68457
1198.0 0.000835 1148.49829 1230.51367
1173.0 0.000853 1148.70483 1239.91260
1233.0 0.000811 1148.91248 1239.93616
1233.0 0.000811 1149.12134 1230.16516
1160.0 0.000862 1149.33118 1215.20569
1143.0 0.000875 1149.54211 1200.01111
1179.0 0.000848 1149.75403 1187.42383
1185.0 0.000844 1149.96692 1178.39233
1182.0 0.000846 1150.18079 1172.60583
1195.0 0.000837 1150.39563 1169.18848
1201.0 0.000833 1150.61133 1167.24377
1151.0 0.000869 1150.82788 1166.11890
1154.0 0.000867 1151.04529 1165.43103
1129.0 0.000886 1151.26355 1164.98840
1142.0 0.000876 1151.48254 1164.70447
1138.0 0.000879 1151.70239 1164.54517
1150.0 0.000870 1151.92297 1164.48950
1233.0 0.000811 1152.14429 1164.54297
1182.0 0.000846 1152.36621 1164.52026
1168.0 0.000856 1152.58875 1164.89331
1173.0 0.000853 1152.81213 1165.55237
1151.0 0.000869 1153.03601 1166.65076
1236.0 0.000809 1153.26038 1168.36279
1191.0 0.000840 1153.48535 1170.81567
1212.0 0.000825 1153.71094 1173.89783
1159.0 0.000863 1153.93701 1177.24585
1193.0 0.000838 1154.16345 1180.09912
1203.0 0.000831 1154.39038 1181.55139
1162.0 0.000861 1154.61768 1181.41284
1190.0 0.000840 1154.84546 1180.63708
1189.0 0.000841 1155.07361 1180.65686
1178.0 0.000849 1155.30200 1182.94763
1159.0 0.000863 1155.53076 1189.05273
1190.0 0.000840 1155.75977 1200.44543
1216.0 0.000822 1155.98901 1215.52637
1156.0 0.000865 1156.21838 1238.17078
1278.0 0.000782 1156.44812 1263.28528
1263.0 0.000792 1156.67798 1283.87463
1279.0 0.000782 1156.90796 1291.51501
1262.0 0.000792 1157.13794 1282.87317
1288.0 0.000776 1157.36816 1263.82690
1271.0 0.000787 1157.59839 1243.21472
1206.0 0.000829 1157.82861 1227.56433
1216.0 0.000822 1158.05884 1220.78345
1211.0 0.000826 1158.28906 1225.61914
1246.0 0.000803 1158.51917 1245.93848
1307.0 0.000765 1158.74927 1283.33521
1342.0 0.000745 1158.97925 1337.83142
1449.0 0.000690 1159.20911 1404.46411
1457.0 0.000686 1159.43872 1470.51526
1518.0 0.000659 1159.66821 1515.36487
1558.0 0.000642 1159.89746 1521.60278
1474.0 0.000678 1160.12646 1494.36963
1481.0 0.000675 1160.35522 1458.21533
1458.0 0.000686 1160.58362 1433.92310
1421.0 0.000704 1160.81177 1432.49658
1431.0 0.000699 1161.03943 1450.46680
1451.0 0.000689 1161.26685 1471.51782
1412.0 0.000708 1161.49377 1473.07031
1451.0 0.000689 1161.72034 1443.92212
1381.0 0.000724 1161.94641 1393.60364
1360.0 0.000735 1162.17200 1338.38733
1284.0 0.000779 1162.39697 1289.83472
1281.0 0.000781 1162.62158 1253.25012
1197.0 0.000835 1162.84558 1228.61292
1182.0 0.000846 1163.06885 1212.72290
1168.0 0.000856 1163.29163 1201.97766
1220.0 0.000820 1163.51367 1194.15881
1124.0 0.000890 1163.73511 1188.27625
1148.0 0.000871 1163.95581 1183.86865
1204.0 0.000831 1164.17578 1180.65674
1144.0 0.000874 1164.39514 1178.33191
1154.0 0.000867 1164.61365 1176.79175
1181.0 0.000847 1164.83130 1178.14478
1193.0 0.000838 1165.04822 1177.48889
1153.0 0.000867 1165.26416 1177.06348
1178.0 0.000849 1165.47937 1176.81665
1169.0 0.000855 1165.69360 1176.73376
1152.0 0.000868 1165.90686 1176.82593
1210.0 0.000826 1166.11926 1177.12134
1171.0 0.000854 1166.33069 1177.64294
1174.0 0.000852 1166.54102 1178.38513
1146.0 0.000873 1166.75049 1179.28625
1153.0 0.000867 1166.95874 1180.21411
1150.0 0.000870 1167.16602 1181.00330
1072.0 0.000933 1167.37219 1181.66284
1175.0 0.000851 1167.57727 1182.43616
1176.0 0.000850 1167.78125 1183.82434
1170.0 0.000855 1167.98401 1186.20300
1145.0 0.000873 1168.18555 1189.65808
1209.0 0.000827 1168.38586 1193.82874
1165.0 0.000858 1168.58508 1197.78003
1187.0 0.000842 1168.78296 1200.08215
1152.0 0.000868 1168.97949 1199.68860
1199.0 0.000834 1169.17480 1197.06189
1181.0 0.000847 1169.36890 1193.59790
1148.0 0.000871 1169.56152 1190.42371
1179.0 0.000848 1169.75281 1188.13794
1214.0 0.000824 1169.94275 1186.85852
1150.0 0.000870 1170.13123 1186.44861
1168.0 0.000856 1170.31824 1186.67529
1164.0 0.000859 1170.50391 1187.33044
1188.0 0.000842 1170.68799 1188.27942
1262.0 0.000792 1170.87073 1189.45801
1191.0 0.000840 1171.05188 1190.85181
1151.0 0.000869 1171.23145 1192.47327
1076.0 0.000929 1171.40955 1194.35950
1116.0 0.000896 1171.58606 1196.46313
1142.0 0.000876 1171.76099 1199.09021
1182.0 0.000846 1171.93420 1202.27319
1193.0 0.000838 1172.10596 1206.23828
1171.0 0.000854 1172.27588 1211.34534
1209.0 0.000827 1172.44434 1218.18677
1226.0 0.000816 1172.61096 1227.78296
1230.0 0.000813 1172.77588 1242.06091
1240.0 0.000806 1172.93909 1264.55737
1325.0 0.000755 1173.10071 1301.08655
1442.0 0.000693 1173.26038 1359.60522
1512.0 0.000661 1173.41833 1448.39270
1653.0 0.000605 1173.57458 1571.34521
1700.0 0.000588 1173.72900 1720.47266
1910.0 0.000524 1173.88147 1870.02917
2015.0 0.000496 1174.03210 1972.32031
1986.0 0.000504 1174.18103 1978.67505
1990.0 0.000503 1174.32800 1886.48608
1803.0 0.000555 1174.47302 1742.51428
1682.0 0.000595 1174.61621 1595.94226
1502.0 0.000666 1174.75745 1475.25439
1402.0 0.000713 1174.89673 1390.98975
1307.0 0.000765 1175.03406 1340.62976
1344.0 0.000744 1175.16943 1316.27063
1303.0 0.000767 1175.30286 1309.98560
1286.0 0.000778 1175.43433 1317.07288
1263.0 0.000792 1175.56372 1337.82520
1343.0 0.000745 1175.69104 1379.08081
1438.0 0.000695 1175.81628 1456.27795
1583.0 0.000632 1175.93958 1594.28491
1873.0 0.000534 1176.06079 1823.25073
2191.0 0.000456 1176.17993 2166.55054
2653.0 0.000377 1176.29700 2620.84399
3328.0 0.0003005 1176.41187 3134.08423
3780.0 0.0002646 1176.52478 3586.67627
3994.0 0.0002504 1176.63538 3803.27051
3884.0 0.0002575 1176.74402 3668.50464
3489.0 0.0002866 1176.85034 3255.92676
2844.0 0.000352 1176.95459 2742.09985
2347.0 0.000426 1177.05664 2264.59619
1948.0 0.000513 1177.15662 1890.83545
1676.0 0.000597 1177.25427 1634.35876
1479.0 0.000676 1177.34973 1476.64160
1355.0 0.000738 1177.44299 1387.65698
1280.0 0.000781 1177.53406 1340.21509
1290.0 0.000775 1177.62280 1315.17371
1294.0 0.000773 1177.70947 1300.67883
1259.0 0.000794 1177.79370 1289.44043
1217.0 0.000822 1177.87585 1277.41199
1256.0 0.000796 1177.95557 1264.16150
1250.0 0.000800 1178.03308 1250.87195
1228.0 0.000814 1178.10828 1239.93384
1239.0 0.000807 1178.18127 1230.30237
1150.0 0.000870 1178.25183 1223.01794
1214.0 0.000824 1178.32019 1217.42249
1228.0 0.000814 1178.38623 1213.18335
1210.0 0.000826 1178.44983 1209.90918
1226.0 0.000816 1178.51123 1207.27148
1217.0 0.000822 1178.57031 1205.12598
1204.0 0.000831 1178.62695 1203.27002
1154.0 0.000867 1178.68127 1201.68909
1185.0 0.000844 1178.73328 1200.35010
1198.0 0.000835 1178.78296 1199.22778
1187.0 0.000842 1178.83020 1198.29688
1153.0 0.000867 1178.87512 1197.52148
1201.0 0.000833 1178.91772 1196.85168
1163.0 0.000860 1178.95789 1196.23181
1196.0 0.000836 1178.99561 1195.65027
1143.0 0.000875 1179.03113 1195.17871
1181.0 0.000847 1179.06409 1194.92773
1170.0 0.000855 1179.09473 1194.99988
1236.0 0.000809 1179.12292 1195.34485
1116.0 0.000896 1179.14880 1195.87036
1180.0 0.000847 1179.17224 1196.31958
1269.0 0.000788 1179.19336 1196.33911
1171.0 0.000854 1179.21204 1195.73474
1260.0 0.000794 1179.22827 1194.68091
1216.0 0.000822 1179.24219 1193.51233
1249.0 0.000801 1179.25366 1192.47351
1270.0 0.000787 1179.26270 1191.66663
1240.0 0.000806 1179.26941 1191.13293
1260.0 0.000794 1179.27368 1190.82153
1265.0 0.000791 1179.27551 1190.68091
1251.0 0.000799 1179.27490 1190.65417
1306.0 0.000766 1179.27197 1190.71655
1281.0 0.000781 1179.26660 1190.14551
1294.0 0.000773 1179.25891 1190.37891
1354.0 0.000739 1179.24866 1190.69788
1253.0 0.000798 1179.23621 1191.12744
1217.0 0.000822 1179.22119 1191.74146
1262.0 0.000792 1179.20386 1192.61829
1205.0 0.000830 1179.18408 1193.99487
1200.0 0.000833 1179.16199 1196.23926
1259.0 0.000794 1179.13745 1199.85120
1179.0 0.000848 1179.11047 1205.33191
1299.0 0.000770 1179.08130 1212.90735
1218.0 0.000821 1179.04956 1222.16968
1232.0 0.000812 1179.01550 1231.71631
1216.0 0.000822 1178.97913 1238.95447
1260.0 0.000794 1178.94031 1241.01721
1223.0 0.000818 1178.89917 1237.48499
1174.0 0.000852 1178.85559 1230.70374
1230.0 0.000813 1178.80981 1223.75806
1221.0 0.000819 1178.76160 1218.60071
1250.0 0.000800 1178.71094 1213.80029
1196.0 0.000836 1178.65808 1214.63696
1260.0 0.000794 1178.60291 1218.70435
1250.0 0.000800 1178.54529 1226.01636
1127.0 0.000887 1178.48547 1236.51135
1269.0 0.000788 1178.42322 1249.98975
1228.0 0.000814 1178.35876 1266.09009
1196.0 0.000836 1178.29187 1284.95630
1264.0 0.000791 1178.22278 1309.25159
1375.0 0.000727 1178.15137 1346.74561
1436.0 0.000696 1178.07776 1409.42371
1502.0 0.000666 1178.00183 1509.51904
1619.0 0.000618 1177.92358 1654.17078
1864.0 0.000536 1177.84314 1838.39539
2068.0 0.000484 1177.76050 2039.30334
2203.0 0.000454 1177.67554 2216.23267
2268.0 0.000441 1177.58838 2315.45239
2152.0 0.000465 1177.49890 2293.91357
2094.0 0.000478 1177.40735 2161.44678
1985.0 0.000504 1177.31348 1970.05896
1819.0 0.000550 1177.21753 1772.89722
1593.0 0.000628 1177.11926 1605.60510
1545.0 0.000647 1177.01892 1481.68481
1400.0 0.000714 1176.91638 1397.21265
1383.0 0.000723 1176.81165 1340.26245
1323.0 0.000756 1176.70483 1300.22668
1311.0 0.000763 1176.59583 1271.09839
1269.0 0.000788 1176.48474 1249.73804
1288.0 0.000776 1176.37158 1234.35840
1229.0 0.000814 1176.25623 1223.85132
1204.0 0.000831 1176.13879 1217.39966
1238.0 0.000808 1176.01941 1214.30762
1206.0 0.000829 1175.89783 1213.91101
1217.0 0.000822 1175.77429 1215.41907
1208.0 0.000828 1175.64856 1217.70239
1247.0 0.000802 1175.52087 1219.10327
1209.0 0.000827 1175.39124 1217.89294
1189.0 0.000841 1175.25952 1213.66333
1187.0 0.000842 1175.12573 1207.71326
1234.0 0.000810 1174.99011 1201.63696
1202.0 0.000832 1174.85242 1196.45508
1125.0 0.000889 1174.71289 1192.58752
1176.0 0.000850 1174.57129 1190.05823
1136.0 0.000880 1174.42786 1188.67603
1165.0 0.000858 1174.28247 1188.18103
1192.0 0.000839 1174.13513 1188.31067
1182.0 0.000846 1173.98596 1188.79846
1124.0 0.000890 1173.83496 1189.35657
1180.0 0.000847 1173.68201 1189.76721
1149.0 0.000870 1173.52722 1190.13611
1179.0 0.000848 1173.37073 1190.90100
1225.0 0.000816 1173.21228 1192.47144
1159.0 0.000863 1173.05200 1194.92224
1268.0 0.000789 1172.89014 1197.81641
1253.0 0.000798 1172.72632 1200.13745
1249.0 0.000801 1172.56079 1200.65247
1173.0 0.000853 1172.39355 1199.03760
1179.0 0.000848 1172.22449 1196.39502
1230.0 0.000813 1172.05383 1194.34570
1208.0 0.000828 1171.88147 1194.36633
1200.0 0.000833 1171.70740 1197.82898
1184.0 0.000845 1171.53162 1205.47485
1231.0 0.000812 1171.35425 1217.66467
1261.0 0.000793 1171.17517 1233.43188
1213.0 0.000824 1170.99451 1249.93860
1268.0 0.000789 1170.81238 1262.25159
1248.0 0.000801 1170.62854 1264.58887
1247.0 0.000802 1170.44312 1255.41138
1207.0 0.000829 1170.25623 1239.15332
1233.0 0.000811 1170.06763 1221.47351
1183.0 0.000845 1169.87769 1206.03064
1233.0 0.000811 1169.68616 1194.33728
1197.0 0.000835 1169.49316 1186.41357
1172.0 0.000853 1169.29871 1181.47070
1115.0 0.000897 1169.10278 1185.42493
1141.0 0.000876 1168.90552 1183.82397
1173.0 0.000853 1168.70679 1182.87622
1263.0 0.000792 1168.50659 1182.26025
1192.0 0.000839 1168.30505 1181.91760
1152.0 0.000868 1168.10217 1181.78516
1134.0 0.000882 1167.89783 1181.91040
1143.0 0.000875 1167.69226 1182.41870
1174.0 0.000852 1167.48535 1183.51355
1176.0 0.000850 1167.27722 1185.46301
1200.0 0.000833 1167.06775 1188.42688
1207.0 0.000829 1166.85693 1192.40991
1193.0 0.000838 1166.64502 1196.18701
1228.0 0.000814 1166.43176 1200.60474
1193.0 0.000838 1166.21741 1203.29297
1137.0 0.000880 1166.00171 1203.65918
1181.0 0.000847 1165.78491 1202.09326
1174.0 0.000852 1165.56714 1199.95972
1250.0 0.000800 1165.34802 1210.07190
1194.0 0.000838 1165.12781 1208.82092
1216.0 0.000822 1164.90662 1207.41101
1155.0 0.000866 1164.68420 1205.48315
1154.0 0.000867 1164.46069 1203.40234
1148.0 0.000871 1164.23621 1201.76367
1186.0 0.000843 1164.01074 1201.05176
1219.0 0.000820 1163.78430 1201.59900
1209.0 0.000827 1163.55676 1203.57996
1193.0 0.000838 1163.32825 1206.95117
1233.0 0.000811 1163.09888 1211.35620
1178.0 0.000849 1162.86841 1216.00818
1198.0 0.000835 1162.63708 1219.62415
1156.0 0.000865 1162.40491 1220.85828
1174.0 0.000852 1162.17188 1219.76709
1252.0 0.000799 1161.93787 1217.09729
1218.0 0.000821 1161.70313 1214.31689
1213.0 0.000824 1161.46753 1212.18091
1190.0 0.000840 1161.23108 1210.96155
1177.0 0.000850 1160.99377 1210.68616
1172.0 0.000853 1160.75586 1211.27051
1205.0 0.000830 1160.51709 1212.60925
1198.0 0.000835 1160.27747 1214.55200
1191.0 0.000840 1160.03723 1216.89368
1165.0 0.000858 1159.79639 1219.34631
1228.0 0.000814 1159.55481 1221.55762
1213.0 0.000824 1159.31250 1223.35291
1254.0 0.000797 1159.06958 1224.89111
1233.0 0.000811 1158.82605 1226.49377
1183.0 0.000845 1158.58191 1228.40649
1229.0 0.000814 1158.33704 1230.76160
1205.0 0.000830 1158.09167 1233.60571
1212.0 0.000825 1157.84583 1236.91724
1249.0 0.000801 1157.59937 1240.74939
1328.0 0.000753 1157.35242 1245.01758
1232.0 0.000812 1157.10498 1249.76807
1219.0 0.000820 1156.85693 1255.04285
1270.0 0.000787 1156.60852 1260.90527
1210.0 0.000826 1156.35962 1267.44226
1216.0 0.000822 1156.11035 1274.77405
1301.0 0.000769 1155.86060 1283.07739
1257.0 0.000796 1155.61047 1292.62317
1309.0 0.000764 1155.35986 1303.89453
1215.0 0.000823 1155.10901 1317.61584
1292.0 0.000774 1154.85779 1335.23938
1304.0 0.000767 1154.60608 1358.39307
1397.0 0.000716 1154.35425 1388.82483
1381.0 0.000724 1154.10205 1427.67334
1422.0 0.000703 1153.84949 1474.41504
1434.0 0.000697 1153.59680 1525.88184
1498.0 0.000668 1153.34375 1575.57532
1637.0 0.000611 1153.09058 1615.68896
1562.0 0.000640 1152.83704 1644.73022
1675.0 0.000597 1152.58337 1671.97729
1742.0 0.000574 1152.32959 1712.22180
1869.0 0.000535 1152.07556 1783.32385
2077.0 0.000481 1151.82141 1911.74158
2383.0 0.000420 1151.56714 2141.98242
2764.0 0.000362 1151.31274 2544.66504
3450.0 0.0002899 1151.05823 3213.85547
4512.0 0.0002216 1150.80359 4242.57568
5924.0 0.0001688 1150.54895 5673.26855
7379.0 0.0001355 1150.29419 7427.99414
9019.0 0.0001109 1150.03943 9244.34180
10117.0 0.0000988 1149.78455 10626.53125
10788.0 0.0000927 1149.52979 10989.46680
9979.0 0.0001002 1149.27490 10152.65918
8818.0 0.0001134 1149.02014 8552.41602
7292.0 0.0001371 1148.76538 6780.36914
5516.0 0.0001813 1148.51074 5230.59961
4356.0 0.0002296 1148.25610 4077.37720
3524.0 0.0002838 1148.00146 3337.84790
3135.0 0.0003190 1147.74707 2940.32471
2873.0 0.0003481 1147.49268 2787.72778
2765.0 0.000362 1147.23840 2805.41382
2974.0 0.0003362 1146.98438 2976.41846
3253.0 0.0003074 1146.73035 3364.88965
3966.0 0.0002521 1146.47656 4109.92383
5234.0 0.0001911 1146.22302 5387.73779
7104.0 0.0001408 1145.96960 7342.92334
9741.0 0.0001027 1145.71631 9986.94043
13122.0 0.0000762 1145.46338 13081.78809
16082.0 0.0000622 1145.21057 16027.65527
17730.0 0.0000564 1144.95813 17846.97070
17695.0 0.0000565 1144.70581 17659.64453
15891.0 0.0000629 1144.45386 15556.06836
12598.0 0.0000794 1144.20215 12490.04980
9732.0 0.0001028 1143.95081 9389.37793
7077.0 0.0001413 1143.69958 6787.02100
5025.0 0.0001990 1143.44885 4872.34033
3781.0 0.0002645 1143.19849 3606.87988
2933.0 0.0003409 1142.94836 2840.06323
2484.0 0.000403 1142.69861 2403.99463
2219.0 0.000451 1142.44922 2165.71240
2095.0 0.000477 1142.20020 2038.37476
1983.0 0.000504 1141.95166 1969.69873
1877.0 0.000533 1141.70349 1925.27942
1819.0 0.000550 1141.45569 1878.05615
1808.0 0.000553 1141.20837 1811.69141
1734.0 0.000577 1140.96143 1728.87939
1655.0 0.000604 1140.71497 1643.18884
1649.0 0.000606 1140.46899 1565.58838
1570.0 0.000637 1140.22339 1501.00696
1500.0 0.000667 1139.97839 1449.81213
1402.0 0.000713 1139.73376 1410.10596
1438.0 0.000695 1139.48975 1379.40564
1393.0 0.000718 1139.24622 1355.37927
1388.0 0.000720 1139.00317 1336.22632
1324.0 0.000755 1138.76074 1320.79468
1356.0 0.000737 1138.51868 1308.49512
1335.0 0.000749 1138.27734 1299.12366
1279.0 0.000782 1138.03638 1292.68921
1297.0 0.000771 1137.79614 1289.17505
1327.0 0.000754 1137.55640 1288.24329
1273.0 0.000786 1137.31726 1288.92651
1273.0 0.000786 1137.07874 1289.36145
1340.0 0.000746 1136.84082 1286.97937
1316.0 0.000760 1136.60352 1280.16992
1254.0 0.000797 1136.36670 1270.02820
1281.0 0.000781 1136.13062 1259.14124
1239.0 0.000807 1135.89514 1249.58350
1272.0 0.000786 1135.66040 1242.42676
1228.0 0.000814 1135.42615 1237.90320
1244.0 0.000804 1135.19263 1235.65344
1168.0 0.000856 1134.95984 1235.11292
1262.0 0.000792 1134.72766 1235.79089
1207.0 0.000829 1134.49609 1237.01819
1209.0 0.000827 1134.26526 1237.62646
1180.0 0.000847 1134.03516 1236.37732
1194.0 0.000838 1133.80566 1233.19421
1203.0 0.000831 1133.57703 1229.34644
1175.0 0.000851 1133.34888 1226.29309
1181.0 0.000847 1133.12158 1225.09619
1145.0 0.000873 1132.89502 1226.59546
1226.0 0.000816 1132.66919 1231.78455
1258.0 0.000795 1132.44397 1242.97900
1265.0 0.000791 1132.21960 1264.20007
1301.0 0.000769 1131.99585 1302.47974
1416.0 0.000706 1131.77295 1367.65186
1504.0 0.000665 1131.55078 1470.11902
1629.0 0.000614 1131.32935 1615.93616
1797.0 0.000556 1131.10876 1800.04651
1946.0 0.000514 1130.88879 1999.06531
2063.0 0.000485 1130.66968 2165.16870
2113.0 0.000473 1130.45129 2233.64795
2113.0 0.000473 1130.23376 2168.75513
2010.0 0.000498 1130.01685 2003.28784
1857.0 0.000539 1129.80090 1801.96814
1598.0 0.000626 1129.58557 1607.02576
1499.0 0.000667 1129.37122 1456.68237
1355.0 0.000738 1129.15747 1354.64294
1214.0 0.000824 1128.94458 1285.37134
1251.0 0.000799 1128.73254 1243.29846
1241.0 0.000806 1128.52124 1218.34900
1212.0 0.000825 1128.31079 1203.13159
1157.0 0.000864 1128.10107 1193.14307
1156.0 0.000865 1127.89221 1185.98328
1190.0 0.000840 1127.68420 1180.30298
1175.0 0.000851 1127.47693 1175.86572
1148.0 0.000871 1127.27051 1172.19568
1198.0 0.000835 1127.06494 1169.11255
1179.0 0.000848 1126.86011 1166.49353
1123.0 0.000890 1126.65601 1164.25037
1143.0 0.000875 1126.45288 1162.31714
1245.0 0.000803 1126.25049 1160.64368
1163.0 0.000860 1126.04907 1159.19189
1159.0 0.000863 1125.84827 1157.93335
1144.0 0.000874 1125.64832 1144.95667
1199.0 0.000834 1125.44922 1144.30627
1176.0 0.000850 1125.25098 1143.79846
1092.0 0.000916 1125.05359 1143.54871
1145.0 0.000873 1124.85693 1143.37964
1125.0 0.000889 1124.66113 1143.47644
1164.0 0.000859 1124.46606 1143.99255
1141.0 0.000876 1124.27197 1145.17810
1206.0 0.000829 1124.07849 1147.36023
1208.0 0.000828 1123.88599 1150.85315
1141.0 0.000876 1123.69421 1155.78552
1168.0 0.000856 1123.50342 1161.96973
1208.0 0.000828 1123.31335 1168.32532
1134.0 0.000882 1123.12402 1173.07605
1164.0 0.000859 1122.93555 1174.51379
1144.0 0.000874 1122.74780 1171.74744
1173.0 0.000853 1122.56104 1166.19543
1201.0 0.000833 1122.37488 1159.90808
1159.0 0.000863 1122.18970 1154.29688
1075.0 0.000930 1122.00525 1150.00464
1151.0 0.000869 1121.82166 1147.14856
1135.0 0.000881 1121.63879 1145.49878
1224.0 0.000817 1121.45667 1144.72034
1160.0 0.000862 1121.27539 1144.50684
1209.0 0.000827 1121.09485 1144.64221
1132.0 0.000883 1120.91528 1144.99951
1196.0 0.000836 1120.73633 1145.51550
1110.0 0.000901 1120.55823 1146.16223
1186.0 0.000843 1120.38086 1146.93030
1102.0 0.000907 1120.20422 1147.81921
1185.0 0.000844 1120.02844 1148.83313
1093.0 0.000915 1119.85339 1149.97925
1107.0 0.000903 1119.67920 1151.23718
1172.0 0.000853 1119.50562 1152.68103
1075.0 0.000930 1119.33289 1154.29578
1185.0 0.000844 1119.16077 1156.09863
1173.0 0.000853 1118.98950 1158.11230
1123.0 0.000890 1118.81909 1160.36328
1163.0 0.000860 1118.64929 1162.88184
1106.0 0.000904 1118.48022 1165.70105
1150.0 0.000870 1118.31189 1168.87256
1190.0 0.000840 1118.14429 1172.44519
1178.0 0.000849 1117.97742 1176.48145
1135.0 0.000881 1117.81128 1181.05750
1163.0 0.000860 1117.64587 1186.24939
1184.0 0.000845 1117.48108 1192.20483
1189.0 0.000841 1117.31702 1199.04724
1212.0 0.000825 1117.15369 1206.95129
1170.0 0.000855 1116.99109 1216.13806
1288.0 0.000776 1116.82910 1226.88647
1214.0 0.000824 1116.66772 1239.55750
1195.0 0.000837 1116.50708 1254.62329
1289.0 0.000776 1116.34717 1272.71912
1225.0 0.000816 1116.18799 1294.75146
1304.0 0.000767 1116.02930 1322.14539
1345.0 0.000743 1115.87134 1357.44592
1382.0 0.000724 1115.71399 1405.68469
1438.0 0.000695 1115.55737 1477.09375
1683.0 0.000594 1115.40137 1591.48926
1779.0 0.000562 1115.24597 1783.35986
1998.0 0.000501 1115.09106 2103.35889
2585.0 0.000387 1114.93701 2615.24805
3418.0 0.0002926 1114.78345 3369.21143
4414.0 0.0002266 1114.63049 4372.92432
5630.0 0.0001776 1114.47815 5549.57275
6850.0 0.0001460 1114.32629 6697.60400
7742.0 0.0001292 1114.17517 7474.69141
7595.0 0.0001317 1114.02454 7535.31689
6975.0 0.0001434 1113.87451 6847.70605
5783.0 0.0001729 1113.72510 5730.60303
4733.0 0.0002113 1113.57617 4542.72217
3566.0 0.0002804 1113.42786 3505.95850
2694.0 0.000371 1113.28003 2713.91577
2163.0 0.000462 1113.13281 2169.25269
1831.0 0.000546 1112.98608 1824.57190
1614.0 0.000620 1112.83984 1617.94702
1524.0 0.000656 1112.69409 1495.78674
1436.0 0.000696 1112.54895 1421.34558
1375.0 0.000727 1112.40442 1373.44263
1413.0 0.000708 1112.26013 1341.59302
1308.0 0.000765 1112.11658 1321.41846
1362.0 0.000734 1111.97327 1311.47217
1382.0 0.000724 1111.83069 1311.18738
1385.0 0.000722 1111.68835 1319.42896
1362.0 0.000734 1111.54663 1333.38257
1344.0 0.000744 1111.40527 1347.65491
1349.0 0.000741 1111.26440 1354.46008
1310.0 0.000763 1111.12402 1347.98621
1320.0 0.000758 1110.98401 1330.77979
1349.0 0.000741 1110.84448 1311.62866
1287.0 0.000777 1110.70532 1298.28638
1323.0 0.000756 1110.56665 1294.30322
1327.0 0.000754 1110.42822 1298.69751
1343.0 0.000745 1110.29041 1306.07910
1341.0 0.000746 1110.15283 1308.29468
1316.0 0.000760 1110.01563 1299.65234
1250.0 0.000800 1109.87891 1280.74023
1181.0 0.000847 1109.74255 1255.59741
1236.0 0.000809 1109.60657 1228.91541
1264.0 0.000791 1109.47083 1204.65674
1191.0 0.000840 1109.33557 1185.04089
1157.0 0.000864 1109.20056 1170.41174
1105.0 0.000905 1109.06592 1160.10913
1123.0 0.000890 1108.93164 1153.04761
1137.0 0.000880 1108.79761 1148.17859
1156.0 0.000865 1108.66394 1144.69055
1188.0 0.000842 1108.53052 1142.04614
1139.0 0.000878 1108.39746 1139.92517
1122.0 0.000891 1108.26465 1138.15088
1133.0 0.000883 1108.13220 1136.62732
1130.0 0.000885 1107.99988 1135.30078
1117.0 0.000895 1107.86804 1134.13794
1155.0 0.000866 1107.73633 1133.11584
1155.0 0.000866 1107.60486 1132.21802
1159.0 0.000863 1107.47375 1131.43372
1155.0 0.000866 1107.34277 1130.75525
1099.0 0.000910 1107.21216 1130.17749
1134.0 0.000882 1107.08167 1129.69702
1139.0 0.000878 1106.95142 1129.31262
1175.0 0.000851 1106.82141 1129.02356
1103.0 0.000907 1106.69165 1128.83154
1091.0 0.000917 1106.56201 1128.74109
1097.0 0.000912 1106.43262 1128.75830
1108.0 0.000903 1106.30334 1128.89099
1139.0 0.000878 1106.17432 1129.15125
1191.0 0.000840 1106.04553 1129.55420
1107.0 0.000903 1105.91675 1130.16321
1164.0 0.000859 1105.78833 1130.91968
1178.0 0.000849 1105.65991 1131.89893
1126.0 0.000888 1105.53174 1133.14709
1086.0 0.000921 1105.40369 1134.72791
1179.0 0.000848 1105.27576 1136.73877
1111.0 0.000900 1105.14795 1139.34570
1143.0 0.000875 1105.02026 1142.86182
1101.0 0.000908 1104.89270 1147.89868
1140.0 0.000877 1104.76526 1155.60449
1224.0 0.000817 1104.63806 1167.93738
1190.0 0.000840 1104.51086 1187.79102
1289.0 0.000776 1104.38367 1218.62842
1276.0 0.000784 1104.25671 1263.46667
1337.0 0.000748 1104.12976 1322.96252
1299.0 0.000770 1104.00293 1393.55750
1458.0 0.000686 1103.87610 1465.35022
1583.0 0.000632 1103.74951 1521.34607
1601.0 0.000625 1103.62292 1544.38892
1598.0 0.000626 1103.49634 1534.87598
1567.0 0.000638 1103.36987 1515.64880
1561.0 0.000641 1103.24341 1514.85425
1597.0 0.000626 1103.11694 1552.41272
1646.0 0.000608 1102.99060 1635.46411
1750.0 0.000571 1102.86426 1750.64844
1945.0 0.000514 1102.73792 1881.22241
1928.0 0.000519 1102.61169 1976.26563
1929.0 0.000518 1102.48547 1987.75586
1913.0 0.000523 1102.35925 1905.23059
1795.0 0.000557 1102.23303 1764.17444
1608.0 0.000622 1102.10681 1608.54199
1469.0 0.000681 1101.98059 1467.42126
1370.0 0.000730 1101.85449 1354.93091
1251.0 0.000799 1101.72827 1273.95691
1254.0 0.000797 1101.60205 1220.14746
1202.0 0.000832 1101.47583 1186.24451
1131.0 0.000884 1101.34961 1165.28711
1137.0 0.000880 1101.22339 1152.06616
1114.0 0.000898 1101.09717 1143.38464
1099.0 0.000910 1100.97083 1137.10681
1114.0 0.000898 1100.84460 1132.34314
1125.0 0.000889 1100.71826 1128.56482
1107.0 0.000903 1100.59192 1125.48584
1103.0 0.000907 1100.46558 1122.82788
1101.0 0.000908 1100.33911 1120.71216
1111.0 0.000900 1100.21265 1118.95996
1096.0 0.000912 1100.08606 1117.53662
1114.0 0.000898 1099.95959 1116.44421
1100.0 0.000909 1099.83289 1115.72900
1122.0 0.000891 1099.70630 1115.53906
1109.0 0.000902 1099.57947 1115.99585
1094.0 0.000914 1099.45276 1117.24207
1091.0 0.000917 1099.32593 1119.67786
1149.0 0.000870 1099.19910 1123.25769
1071.0 0.000934 1099.07214 1127.83008
1149.0 0.000870 1098.94507 1132.69189
1065.0 0.000939 1098.81799 1136.51746
1154.0 0.000867 1098.69092 1137.59985
1146.0 0.000873 1098.56372 1135.10559
1171.0 0.000854 1098.43640 1129.98596
1107.0 0.000903 1098.30908 1123.95691
1155.0 0.000866 1098.18176 1118.31177
1142.0 0.000876 1098.05420 1113.69678
1090.0 0.000917 1097.92676 1110.28943
1094.0 0.000914 1097.79907 1107.96069
1134.0 0.000882 1097.67139 1106.44666
1126.0 0.000888 1097.54358 1105.47864
1073.0 0.000932 1097.41577 1104.84985
1129.0 0.000886 1097.28796 1104.42957
1105.0 0.000905 1097.15991 1104.14893
1093.0 0.000915 1097.03198 1103.97864
1135.0 0.000881 1096.90381 1103.91943
1119.0 0.000894 1096.77563 1103.99939
1083.0 0.000923 1096.64734 1104.28870
1137.0 0.000880 1096.51904 1104.92969
1094.0 0.000914 1096.39063 1106.19104
1101.0 0.000908 1096.26221 1108.40356
1058.0 0.000945 1096.13367 1112.03955
1112.0 0.000899 1096.00500 1117.49792
1097.0 0.000912 1095.87634 1124.89404
1094.0 0.000914 1095.74768 1133.78052
1104.0 0.000906 1095.61890 1142.85779
1163.0 0.000860 1095.48999 1149.76917
1240.0 0.000806 1095.36108 1151.75671
1152.0 0.000868 1095.23218 1147.86707
1157.0 0.000864 1095.10315 1140.06421
1157.0 0.000864 1094.97412 1131.17480
1150.0 0.000870 1094.84497 1123.33594
1118.0 0.000894 1094.71582 1117.71252
1119.0 0.000894 1094.58655 1114.80347
1121.0 0.000892 1094.45740 1114.70166
1069.0 0.000935 1094.32800 1117.26611
1127.0 0.000887 1094.19873 1122.14868
1104.0 0.000906 1094.06934 1130.37634
1079.0 0.000927 1093.93994 1137.44214
1171.0 0.000854 1093.81055 1143.43896
1073.0 0.000932 1093.68103 1146.50977
1123.0 0.000890 1093.55164 1145.27588
1148.0 0.000871 1093.42212 1140.27100
1110.0 0.000901 1093.29260 1133.61951
1149.0 0.000870 1093.16309 1127.28369
1153.0 0.000867 1093.03357 1121.99146
1110.0 0.000901 1092.90405 1118.54590
1119.0 0.000894 1092.77454 1116.37988
1169.0 0.000855 1092.64514 1115.28027
1157.0 0.000864 1092.51550 1115.36938
1042.0 0.000960 1092.38611 1116.90088
1163.0 0.000860 1092.25659 1119.90076
1128.0 0.000887 1092.12720 1124.08594
1135.0 0.000881 1091.99780 1128.67651
1146.0 0.000873 1091.86841 1131.70508
1115.0 0.000897 1091.73914 1133.35229
1171.0 0.000854 1091.60974 1133.11450
1149.0 0.000870 1091.48059 1132.86768
1127.0 0.000887 1091.35144 1135.12207
1154.0 0.000867 1091.22229 1142.01660
1180.0 0.000847 1091.09326 1154.97656
1218.0 0.000821 1090.96436 1174.18945
1225.0 0.000816 1090.83545 1197.99109
1222.0 0.000818 1090.70654 1222.20166
1188.0 0.000842 1090.57788 1239.79431
1212.0 0.000825 1090.44922 1243.26111
1183.0 0.000845 1090.32080 1230.87329
1198.0 0.000835 1090.19238 1208.59631
1119.0 0.000894 1090.06409 1184.28357
1172.0 0.000853 1089.93591 1163.47021
1139.0 0.000878 1089.80786 1149.07959
1240.0 0.000806 1089.68005 1142.06482
1158.0 0.000864 1089.55225 1141.94470
1180.0 0.000847 1089.42468 1147.19897
1121.0 0.000892 1089.29724 1155.43311
1164.0 0.000859 1089.17004 1163.33862
1160.0 0.000862 1089.04285 1167.09558
1184.0 0.000845 1088.91602 1164.24805
1170.0 0.000855 1088.78918 1155.58032
1182.0 0.000846 1088.66272 1144.12402
1122.0 0.000891 1088.53638 1132.76550
1156.0 0.000865 1088.41028 1123.21997
1116.0 0.000896 1088.28442 1116.15344
1108.0 0.000903 1088.15869 1111.52344
1106.0 0.000904 1088.03333 1108.87390
1080.0 0.000926 1087.90808 1107.70215
1074.0 0.000931 1087.78320 1107.45459
1095.0 0.000913 1087.65857 1107.68274
1123.0 0.000890 1087.53418 1108.00537
1104.0 0.000906 1087.41003 1108.16638
1082.0 0.000924 1087.28625 1108.15442
1074.0 0.000931 1087.16272 1108.14343
1121.0 0.000892 1087.03943 1108.33191
1115.0 0.000897 1086.91663 1108.87915
1108.0 0.000903 1086.79395 1109.94958
1064.0 0.000940 1086.67175 1111.65808
1078.0 0.000928 1086.54980 1114.21558
1095.0 0.000913 1086.42822 1117.82141
1071.0 0.000934 1086.30701 1122.61536
1159.0 0.000863 1086.18616 1128.56921
1127.0 0.000887 1086.06580 1135.36182
1105.0 0.000905 1085.94568 1142.25684
1112.0 0.000899 1085.82605 1148.12268
1143.0 0.000875 1085.70667 1152.07031
1132.0 0.000883 1085.58789 1154.49194
1135.0 0.000881 1085.46948 1157.06128
1222.0 0.000818 1085.35144 1161.21033
1211.0 0.000826 1085.23401 1168.46790
1215.0 0.000823 1085.11682 1180.06824
1143.0 0.000875 1085.00024 1197.44214
1195.0 0.000837 1084.88416 1222.79993
1271.0 0.000787 1084.76843 1260.36499
1383.0 0.000723 1084.65332 1317.44849
1385.0 0.000722 1084.53870 1405.48376
1484.0 0.000674 1084.42456 1540.57861
1703.0 0.000587 1084.31091 1738.71326
1923.0 0.000520 1084.19788 2006.70044
2290.0 0.000437 1084.08533 2331.77026
2681.0 0.000373 1083.97339 2671.25562
2820.0 0.000355 1083.86194 2944.28979
2923.0 0.0003421 1083.75122 3048.29150
2808.0 0.000356 1083.64099 2932.17261
2489.0 0.000402 1083.53137 2650.47803
2181.0 0.000459 1083.42236 2305.68408
1951.0 0.000513 1083.31396 1977.03723
1743.0 0.000574 1083.20618 1706.29688
1481.0 0.000675 1083.09912 1506.30652
1383.0 0.000723 1082.99268 1371.37781
1263.0 0.000792 1082.88684 1286.76904
1204.0 0.000831 1082.78174 1236.29919
1181.0 0.000847 1082.67725 1206.66931
1204.0 0.000831 1082.57349 1188.62952
1221.0 0.000819 1082.47058 1176.23047
1234.0 0.000810 1082.36816 1165.85144
1206.0 0.000829 1082.26672 1155.84924
1120.0 0.000893 1082.16577 1146.15710
1153.0 0.000867 1082.06567 1137.27014
1122.0 0.000891 1081.96643 1129.55420
1124.0 0.000890 1081.86792 1123.10742
1158.0 0.000864 1081.77014 1117.90649
1130.0 0.000885 1081.67310 1113.74316
1092.0 0.000916 1081.57703 1110.39331
1175.0 0.000851 1081.48169 1107.64954
1110.0 0.000901 1081.38708 1105.34839
1144.0 0.000874 1081.29346 1103.37622
1058.0 0.000945 1081.20068 1101.65710
1121.0 0.000892 1081.10864 1100.14148
1127.0 0.000887 1081.01758 1098.79553
1135.0 0.000881 1080.92737 1097.47168
1080.0 0.000926 1080.83801 1096.62976
1077.0 0.000929 1080.74963 1095.66992
1114.0 0.000898 1080.66223 1094.80688
1113.0 0.000898 1080.57568 1094.02905
1131.0 0.000884 1080.48999 1093.32947
1078.0 0.000928 1080.40540 1092.69995
1101.0 0.000908 1080.32166 1092.13574
1088.0 0.000919 1080.23889 1091.63159
1103.0 0.000907 1080.15710 1091.18958
1100.0 0.000909 1080.07629 1090.80127
1154.0 0.000867 1079.99658 1090.43481
1107.0 0.000903 1079.91785 1090.15527
1154.0 0.000867 1079.84009 1089.96887
1093.0 0.000915 1079.76343 1089.87158
1157.0 0.000864 1079.68774 1089.87573
1095.0 0.000913 1079.61316 1089.99060
1085.0 0.000922 1079.53955 1090.21411
1068.0 0.000936 1079.46716 1090.53296
1074.0 0.000931 1079.39575 1090.92053
1077.0 0.000929 1079.32544 1091.36414
1105.0 0.000905 1079.25635 1091.93237
1132.0 0.000883 1079.18823 1092.82544
1095.0 0.000913 1079.12134 1094.31848
1125.0 0.000889 1079.05554 1096.67993
1086.0 0.000921 1078.99084 1100.05249
1126.0 0.000888 1078.92737 1104.36511
1104.0 0.000906 1078.86511 1109.21765
1126.0 0.000888 1078.80396 1113.78113
1112.0 0.000899 1078.74402 1116.89648
1116.0 0.000896 1078.68530 1117.84497
1105.0 0.000905 1078.62769 1117.32385
1113.0 0.000898 1078.57141 1117.17859
1141.0 0.000876 1078.51636 1119.45740
1195.0 0.000837 1078.46240 1125.97864
1164.0 0.000859 1078.40979 1138.12341
1153.0 0.000867 1078.35852 1156.47351
1141.0 0.000876 1078.30835 1180.30920
1221.0 0.000819 1078.25952 1207.16675
1296.0 0.000772 1078.21204 1232.16846
1239.0 0.000807 1078.16577 1250.56555
1232.0 0.000812 1078.12085 1254.91833
1250.0 0.000800 1078.07715 1250.12585
1177.0 0.000850 1078.03479 1243.01270
1222.0 0.000818 1077.99390 1238.11206
1224.0 0.000817 1077.95410 1235.68457
1251.0 0.000799 1077.91589 1232.12622
1269.0 0.000788 1077.87891 1222.29004
1209.0 0.000827 1077.84326 1204.35181
1204.0 0.000831 1077.80908 1181.65125
1149.0 0.000870 1077.77625 1158.75916
1150.0 0.000870 1077.74475 1138.74939
1130.0 0.000885 1077.71472 1122.97498
1083.0 0.000923 1077.68604 1111.55396
1096.0 0.000912 1077.65869 1103.84827
1165.0 0.000858 1077.63293 1097.20422
1150.0 0.000870 1077.60840 1094.15125
1030.0 0.000971 1077.58545 1092.23840
1077.0 0.000929 1077.56396 1091.00513
1127.0 0.000887 1077.54382 1090.18213
1117.0 0.000895 1077.52515 1089.62708
1124.0 0.000890 1077.50793 1089.31506
1087.0 0.000920 1077.49219 1089.10999
1116.0 0.000896 1077.47791 1089.03821
1041.0 0.000961 1077.46521 1089.08728
1080.0 0.000926 1077.45386 1089.25354
1038.0 0.000963 1077.44409 1089.53979
1080.0 0.000926 1077.43579 1089.95679
1061.0 0.000943 1077.42896 1090.50500
1129.0 0.000886 1077.42371 1091.24084
1104.0 0.000906 1077.41992 1092.18701
1092.0 0.000916 1077.41772 1093.40942
1090.0 0.000917 1077.41699 1095.02747
1104.0 0.000906 1077.41785 1097.29077
1136.0 0.000880 1077.42017 1100.60266
1067.0 0.000937 1077.42407 1105.76758
1131.0 0.000884 1077.42957 1114.04761
1109.0 0.000902 1077.43665 1127.18848
1179.0 0.000848 1077.44519 1147.15430
1191.0 0.000840 1077.45532 1175.48218
1258.0 0.000795 1077.46704 1212.29272
1250.0 0.000800 1077.48035 1255.14380
1306.0 0.000766 1077.49524 1297.80115
1247.0 0.000802 1077.51160 1329.55457
1351.0 0.000740 1077.52966 1338.20081
1199.0 0.000834 1077.54932 1319.92993
1285.0 0.000778 1077.57056 1283.24060
1233.0 0.000811 1077.59326 1240.59290
1206.0 0.000829 1077.61768 1200.96838
1152.0 0.000868 1077.64380 1168.89514
1105.0 0.000905 1077.67139 1145.57227
1144.0 0.000874 1077.70056 1130.04761
1122.0 0.000891 1077.73145 1120.33362
1134.0 0.000882 1077.76392 1114.39331
1135.0 0.000881 1077.79797 1110.73914
1214.0 0.000824 1077.83374 1108.49768
1130.0 0.000885 1077.87109 1107.20105
1062.0 0.000942 1077.90991 1106.60889
1108.0 0.000903 1077.95056 1106.59607
1157.0 0.000864 1077.99280 1107.08948
1108.0 0.000903 1078.03662 1108.04370
1144.0 0.000874 1078.08203 1109.43286
1095.0 0.000913 1078.12915 1111.25500
1105.0 0.000905 1078.17786 1113.52930
1064.0 0.000940 1078.22827 1116.30579
1098.0 0.000911 1078.28027 1119.65649
1143.0 0.000875 1078.33386 1123.68542
1156.0 0.000865 1078.38916 1128.53674
1125.0 0.000889 1078.44604 1134.41309
1173.0 0.000853 1078.50464 1141.61389
1139.0 0.000878 1078.56482 1150.62915
1179.0 0.000848 1078.62659 1162.34192
1206.0 0.000829 1078.69006 1178.41711
1241.0 0.000806 1078.75513 1202.10156
1237.0 0.000808 1078.82190 1239.10034
1251.0 0.000799 1078.89026 1298.63062
1376.0 0.000727 1078.96021 1393.54590
1439.0 0.000695 1079.03186 1538.51843
1682.0 0.000595 1079.10510 1745.44446
1975.0 0.000506 1079.18005 2016.36584
2246.0 0.000445 1079.25659 2335.15967
2594.0 0.000386 1079.33472 2658.53564
2808.0 0.000356 1079.41443 2909.40381
2833.0 0.000353 1079.49585 2995.40747
2772.0 0.000361 1079.57886 2876.81201
2502.0 0.000400 1079.66345 2607.44653
2196.0 0.000455 1079.74963 2280.56201
1908.0 0.000524 1079.83752 1967.74902
1688.0 0.000592 1079.92700 1707.14844
1510.0 0.000662 1080.01794 1511.25989
1374.0 0.000728 1080.11072 1375.76306
1352.0 0.000740 1080.20483 1288.11633
1284.0 0.000779 1080.30066 1233.56421
1230.0 0.000813 1080.39819 1199.84912
1243.0 0.000805 1080.49719 1178.43652
1248.0 0.000801 1080.59778 1164.21692
1161.0 0.000861 1080.69995 1154.52051
1131.0 0.000884 1080.80371 1148.14807
1131.0 0.000884 1080.90906 1144.67932
1154.0 0.000867 1081.01587 1144.02820
1199.0 0.000834 1081.12439 1146.06885
1159.0 0.000863 1081.23438 1150.38184
1180.0 0.000847 1081.34583 1155.86133
1158.0 0.000864 1081.45898 1160.66016
1226.0 0.000816 1081.57361 1162.23401
1157.0 0.000864 1081.68970 1158.79932
1103.0 0.000907 1081.80737 1151.02466
1143.0 0.000875 1081.92651 1141.30811
1123.0 0.000890 1082.04724 1131.89575
1185.0 0.000844 1082.16943 1124.18542
1111.0 0.000900 1082.29321 1118.83704
1129.0 0.000886 1082.41833 1115.96460
1180.0 0.000847 1082.54504 1116.69287
1142.0 0.000876 1082.67322 1117.69824
1165.0 0.000858 1082.80286 1119.57971
1183.0 0.000845 1082.93384 1121.35388
1153.0 0.000867 1083.06641 1122.04773
1180.0 0.000847 1083.20032 1121.38428
1079.0 0.000927 1083.33582 1120.15955
1122.0 0.000891 1083.47266 1119.70764
1087.0 0.000920 1083.61096 1121.19263
1137.0 0.000880 1083.75061 1125.32703
1156.0 0.000865 1083.89172 1132.21521
1079.0 0.000927 1084.03418 1141.16858
1184.0 0.000845 1084.17798 1150.49512
1141.0 0.000876 1084.32324 1157.40186
1102.0 0.000907 1084.46985 1158.85083
1210.0 0.000826 1084.61780 1153.62366
1105.0 0.000905 1084.76709 1144.18115
1150.0 0.000870 1084.91772 1133.25500
1164.0 0.000859 1085.06970 1122.99121
1088.0 0.000919 1085.22302 1114.49426
1164.0 0.000859 1085.37756 1108.09875
1093.0 0.000915 1085.53345 1103.65002
1119.0 0.000894 1085.69067 1100.74060
1137.0 0.000880 1085.84912 1098.90735
1062.0 0.000942 1086.00891 1097.77100
1031.0 0.000970 1086.16980 1097.05469
1088.0 0.000919 1086.33203 1096.59070
1018.0 0.000982 1086.49548 1096.28271
1131.0 0.000884 1086.66016 1096.08069
1075.0 0.000930 1086.82605 1095.95215
1106.0 0.000904 1086.99316 1095.88196
1072.0 0.000933 1087.16138 1095.86060
1114.0 0.000898 1087.33081 1095.88049
1104.0 0.000906 1087.50146 1095.93689
1114.0 0.000898 1087.67322 1096.02612
1059.0 0.000944 1087.84607 1096.14539
1100.0 0.000909 1088.02014 1096.30151
1112.0 0.000899 1088.19519 1096.47729
1071.0 0.000934 1088.37146 1096.67993
1085.0 0.000922 1088.54871 1096.90979
1079.0 0.000927 1088.72705 1097.16797
1120.0 0.000893 1088.90649 1097.45557
1045.0 0.000957 1089.08704 1097.77527
1136.0 0.000880 1089.26843 1098.13062
1109.0 0.000902 1089.45105 1098.52869
1164.0 0.000859 1089.63452 1098.97888
1123.0 0.000890 1089.81909 1099.50244
1099.0 0.000910 1090.00464 1100.13232
1076.0 0.000929 1090.19104 1100.95227
1057.0 0.000946 1090.37842 1101.98987
1134.0 0.000882 1090.56677 1103.37903
1102.0 0.000907 1090.75610 1105.23706
1138.0 0.000879 1090.94629 1107.66602
1159.0 0.000863 1091.13733 1110.72290
1147.0 0.000872 1091.32922 1112.58301
1138.0 0.000879 1091.52197 1116.69861
1129.0 0.000886 1091.71570 1120.88611
1149.0 0.000870 1091.91016 1124.83887
1168.0 0.000856 1092.10547 1129.65063
1160.0 0.000862 1092.30164 1133.48230
1139.0 0.000878 1092.49854 1137.20203
1129.0 0.000886 1092.69617 1140.00208
1166.0 0.000858 1092.89453 1140.85181
1139.0 0.000878 1093.09375 1139.57922
1148.0 0.000871 1093.29358 1137.25757
1166.0 0.000858 1093.49414 1135.30627
1106.0 0.000904 1093.69543 1134.71790
1140.0 0.000877 1093.89746 1135.90063
1170.0 0.000855 1094.09998 1138.72498
1129.0 0.000886 1094.30334 1142.71155
1169.0 0.000855 1094.50720 1147.26697
1091.0 0.000917 1094.71167 1151.54138
1196.0 0.000836 1094.91675 1154.29211
1105.0 0.000905 1095.12244 1154.45056
1190.0 0.000840 1095.32874 1152.21631
1116.0 0.000896 1095.53552 1148.90381
1136.0 0.000880 1095.74280 1146.02637
1085.0 0.000922 1095.95068 1144.43311
1106.0 0.000904 1096.15906 1144.51904
1108.0 0.000903 1096.36780 1146.29700
1077.0 0.000929 1096.57703 1149.49866
1150.0 0.000870 1096.78674 1153.68384
1130.0 0.000885 1096.99695 1158.44495
1089.0 0.000918 1097.20752 1163.73438
1217.0 0.000822 1097.41846 1169.98877
1158.0 0.000864 1097.62988 1177.96387
1164.0 0.000859 1097.84143 1188.71753
1191.0 0.000840 1098.05347 1203.93457
1247.0 0.000802 1098.26587 1226.66272
1225.0 0.000816 1098.47852 1262.12695
1233.0 0.000811 1098.69153 1318.72083
1408.0 0.000710 1098.90466 1408.23267
1576.0 0.000635 1099.11829 1545.65466
1735.0 0.000576 1099.33191 1740.64868
1920.0 0.000521 1099.54590 1998.59106
2228.0 0.000449 1099.76001 2308.51733
2542.0 0.000393 1099.97437 2636.19727
2622.0 0.000381 1100.18896 2916.34033
2897.0 0.0003452 1100.40356 3060.31372
2980.0 0.0003356 1100.61841 3006.70581
2650.0 0.000377 1100.83325 2780.53711
2450.0 0.000408 1101.04834 2466.90576
2093.0 0.000478 1101.26343 2144.68799
1866.0 0.000536 1101.47864 1861.35291
1663.0 0.000601 1101.69385 1637.41846
1488.0 0.000672 1101.90906 1474.95032
1333.0 0.000750 1102.12427 1365.00500
1307.0 0.000765 1102.33948 1294.21057
1260.0 0.000794 1102.55469 1249.65430
1217.0 0.000822 1102.76990 1221.37500
1224.0 0.000817 1102.98499 1202.69153
1186.0 0.000843 1103.20007 1189.67627
1210.0 0.000826 1103.41492 1180.12512
1175.0 0.000851 1103.62976 1172.80872
1215.0 0.000823 1103.84448 1166.97803
1185.0 0.000844 1104.05908 1162.11182
1151.0 0.000869 1104.27344 1157.86548
1116.0 0.000896 1104.48767 1154.10132
1128.0 0.000887 1104.70166 1150.83179
1160.0 0.000862 1104.91541 1148.09766
1173.0 0.000853 1105.12891 1145.91675
1124.0 0.000890 1105.34216 1144.27954
1193.0 0.000838 1105.55518 1143.15344
1196.0 0.000836 1105.76794 1142.48425
1136.0 0.000880 1105.98035 1142.20129
1138.0 0.000879 1106.19250 1142.21960
1182.0 0.000846 1106.40430 1142.48779
1137.0 0.000880 1106.61560 1142.93042
1186.0 0.000843 1106.82666 1143.67627
1147.0 0.000872 1107.03723 1144.87329
1141.0 0.000876 1107.24744 1146.84717
1182.0 0.000846 1107.45728 1149.08057
1162.0 0.000861 1107.66663 1151.59851
1164.0 0.000859 1107.87549 1154.01453
1152.0 0.000868 1108.08386 1155.90259
1182.0 0.000846 1108.29187 1157.16382
1140.0 0.000877 1108.49927 1158.21118
1204.0 0.000831 1108.70605 1159.69458
1145.0 0.000873 1108.91248 1162.22949
1158.0 0.000864 1109.11816 1166.33960
1184.0 0.000845 1109.32349 1172.43835
1163.0 0.000860 1109.52808 1180.84509
1168.0 0.000856 1109.73206 1191.65845
1244.0 0.000804 1109.93542 1204.77783
1174.0 0.000852 1110.13818 1219.92273
1268.0 0.000789 1110.34021 1236.87268
1297.0 0.000771 1110.54150 1256.63416
1329.0 0.000752 1110.74231 1283.14612
1446.0 0.000692 1110.94226 1324.18469
1528.0 0.000654 1111.14148 1390.18396
1555.0 0.000643 1111.33997 1491.93005
1732.0 0.000577 1111.53784 1637.45386
1887.0 0.000530 1111.73474 1827.77502
1983.0 0.000504 1111.93103 2051.89355
2182.0 0.000458 1112.12634 2281.28833
2355.0 0.000425 1112.32092 2465.42822
2358.0 0.000424 1112.51477 2543.26221
2308.0 0.000433 1112.70764 2478.67505
2197.0 0.000455 1112.89978 2301.48633
2115.0 0.000473 1113.09094 2073.45337
1920.0 0.000521 1113.28125 1846.66553
1718.0 0.000582 1113.47058 1651.22925
1515.0 0.000660 1113.65894 1499.36377
1394.0 0.000717 1113.84656 1391.10657
1389.0 0.000720 1114.03308 1319.44165
1311.0 0.000763 1114.21875 1274.75635
1222.0 0.000818 1114.40332 1247.95496
1223.0 0.000818 1114.58704 1231.91882
1215.0 0.000823 1114.76965 1221.71741
1234.0 0.000810 1114.95129 1214.37268
1238.0 0.000808 1115.13184 1208.56885
1212.0 0.000825 1115.31140 1204.06165
1235.0 0.000810 1115.48987 1200.98047
1203.0 0.000831 1115.66724 1199.47644
1247.0 0.000802 1115.84363 1199.66333
1312.0 0.000762 1116.01880 1201.64563
1200.0 0.000833 1116.19299 1205.59045
1231.0 0.000812 1116.36597 1211.85596
1217.0 0.000822 1116.53784 1221.22412
1264.0 0.000791 1116.70850 1235.27966
1306.0 0.000766 1116.87805 1256.96692
1258.0 0.000795 1117.04639 1291.39624
1377.0 0.000726 1117.21362 1346.17517
1404.0 0.000712 1117.37964 1431.24854
1539.0 0.000650 1117.54431 1557.13867
1721.0 0.000581 1117.70789 1731.45776
1954.0 0.000512 1117.87024 1954.03809
2304.0 0.000434 1118.03125 2211.37524
2580.0 0.000388 1118.19116 2470.42969
2662.0 0.000376 1118.34973 2674.28418
2720.0 0.000368 1118.50708 2756.08423
2709.0 0.000369 1118.66296 2686.02222
2364.0 0.000423 1118.81775 2501.22290
2364.0 0.000423 1118.97107 2269.26782
2030.0 0.000493 1119.12329 2042.80554
1885.0 0.000531 1119.27405 1848.04980
1731.0 0.000578 1119.42334 1689.07739
1553.0 0.000644 1119.57153 1563.77502
1518.0 0.000659 1119.71826 1464.98267
1390.0 0.000719 1119.86365 1388.85718
1353.0 0.000739 1120.00757 1331.86560
1380.0 0.000725 1120.15027 1290.48853
1272.0 0.000786 1120.29138 1261.67224
1270.0 0.000787 1120.43127 1242.73218
1214.0 0.000824 1120.56970 1231.19446
1221.0 0.000819 1120.70667 1224.56665
1219.0 0.000820 1120.84229 1220.26794
1230.0 0.000813 1120.97644 1215.85425
1233.0 0.000811 1121.10913 1209.86340
1194.0 0.000838 1121.24036 1202.45630
1211.0 0.000826 1121.37012 1194.73547
1170.0 0.000855 1121.49854 1187.72510
1181.0 0.000847 1121.62537 1182.04468
1214.0 0.000824 1121.75073 1177.97449
1136.0 0.000880 1121.87463 1175.60315
1205.0 0.000830 1121.99707 1174.93994
1212.0 0.000825 1122.11804 1176.07422
1174.0 0.000852 1122.23755 1179.48730
1202.0 0.000832 1122.35535 1185.34033
1163.0 0.000860 1122.47180 1194.72119
1222.0 0.000818 1122.58679 1208.84363
1256.0 0.000796 1122.70007 1229.10718
1302.0 0.000768 1122.81201 1256.71924
1288.0 0.000776 1122.92236 1292.03479
1353.0 0.000739 1123.03113 1334.03577
1464.0 0.000683 1123.13831 1380.42700
1398.0 0.000715 1123.24402 1427.22253
1357.0 0.000737 1123.34827 1466.74500
1431.0 0.000699 1123.45081 1487.20068
1459.0 0.000685 1123.55188 1479.10425
1396.0 0.000716 1123.65137 1444.55457
1352.0 0.000740 1123.74927 1395.60376
1364.0 0.000733 1123.84558 1344.61450
1279.0 0.000782 1123.94043 1299.52063
1236.0 0.000809 1124.03357 1264.15491
1233.0 0.000811 1124.12524 1239.14648
1248.0 0.000801 1124.21533 1223.62952
1252.0 0.000799 1124.30383 1215.73291
1227.0 0.000815 1124.39075 1213.77832
1207.0 0.000829 1124.47607 1216.43188
1147.0 0.000872 1124.55981 1223.06592
1267.0 0.000789 1124.64185 1233.73303
1198.0 0.000835 1124.72241 1249.28235
1264.0 0.000791 1124.80139 1271.66077
1320.0 0.000758 1124.87891 1304.40479
1376.0 0.000727 1124.95459 1353.43152
1410.0 0.000709 1125.02881 1427.49829
1495.0 0.000669 1125.10144 1537.97986
1591.0 0.000629 1125.17249 1696.13123
1830.0 0.000546 1125.24194 1908.09387
2115.0 0.000473 1125.30981 2169.13062
2397.0 0.000417 1125.37610 2457.75366
2727.0 0.000367 1125.44067 2729.15137
2833.0 0.000353 1125.50378 2913.45459
2779.0 0.000360 1125.56531 2940.44678
2704.0 0.000370 1125.62524 2798.80054
2542.0 0.000393 1125.68359 2543.39551
2244.0 0.000446 1125.74036 2249.31396
1930.0 0.000518 1125.79553 1971.05859
1731.0 0.000578 1125.84912 1737.49585
1577.0 0.000634 1125.90112 1558.38000
1369.0 0.000730 1125.95154 1430.82739
1365.0 0.000733 1126.00049 1345.12964
1347.0 0.000742 1126.04773 1289.66638
1267.0 0.000789 1126.09351 1254.06738
1188.0 0.000842 1126.13770 1230.67896
1151.0 0.000869 1126.18042 1214.50806
1207.0 0.000829 1126.22144 1202.63721
1183.0 0.000845 1126.26099 1193.43384
1191.0 0.000840 1126.29907 1186.01489
1145.0 0.000873 1126.33545 1179.91028
1137.0 0.000880 1126.37036 1174.76318
1200.0 0.000833 1126.40381 1170.39563
1206.0 0.000829 1126.43567 1166.66077
1162.0 0.000861 1126.46606 1163.44592
1155.0 0.000866 1126.49487 1160.66333
1112.0 0.000899 1126.52222 1158.24353
1159.0 0.000863 1126.54797 1156.13599
1161.0 0.000861 1126.57239 1154.28638
1160.0 0.000862 1126.59509 1152.68506
1152.0 0.000868 1126.61646 1151.25793
1148.0 0.000871 1126.63635 1150.00220
1153.0 0.000867 1126.65479 1148.89771
1171.0 0.000854 1126.67163 1147.92981
1173.0 0.000853 1126.68713 1147.08557
1090.0 0.000917 1126.70117 1146.35632
1116.0 0.000896 1126.71375 1145.73486
1162.0 0.000861 1126.72485 1145.21912
1099.0 0.000910 1126.73462 1143.61633
1170.0 0.000855 1126.74280 1143.74719
1103.0 0.000907 1126.74963 1143.61743
1139.0 0.000878 1126.75513 1143.65955
1133.0 0.000883 1126.75916 1143.93066
1180.0 0.000847 1126.76184 1144.50891
1139.0 0.000878 1126.76318 1145.36499
1176.0 0.000850 1126.76306 1146.81470
1132.0 0.000883 1126.76160 1148.76123
1163.0 0.000860 1126.75879 1151.14172
1142.0 0.000876 1126.75464 1153.75671
1189.0 0.000841 1126.74915 1156.22681
1157.0 0.000864 1126.74231 1158.03748
1064.0 0.000940 1126.73425 1158.82300
1158.0 0.000864 1126.72473 1158.77063
1235.0 0.000810 1126.71399 1158.54834
1150.0 0.000870 1126.70203 1158.97180
1123.0 0.000890 1126.68872 1160.86609
1110.0 0.000901 1126.67407 1165.26843
1190.0 0.000840 1126.65833 1173.38086
1162.0 0.000861 1126.64124 1186.64612
1222.0 0.000818 1126.62292 1206.48328
1284.0 0.000779 1126.60339 1233.80469
1249.0 0.000801 1126.58264 1268.33875
1239.0 0.000807 1126.56067 1307.86304
1359.0 0.000736 1126.53760 1347.37988
1380.0 0.000725 1126.51331 1378.51135
1419.0 0.000705 1126.48779 1391.28491
1335.0 0.000749 1126.46118 1380.61572
1374.0 0.000728 1126.43335 1351.20715
1321.0 0.000757 1126.40442 1313.13538
1293.0 0.000773 1126.37439 1275.09680
1253.0 0.000798 1126.34326 1242.32666
1202.0 0.000832 1126.31104 1217.23022
1207.0 0.000829 1126.27783 1200.33997
1189.0 0.000841 1126.24341 1191.35864
1166.0 0.000858 1126.20801 1189.75659
1189.0 0.000841 1126.17151 1195.35876
1176.0 0.000850 1126.13403 1208.17456
1277.0 0.000783 1126.09558 1229.11292
1292.0 0.000774 1126.05603 1257.90381
1298.0 0.000770 1126.01550 1293.25317
1354.0 0.000739 1125.97400 1331.63586
1387.0 0.000721 1125.93152 1366.59937
1459.0 0.000685 1125.88818 1389.81250
1423.0 0.000703 1125.84387 1394.98547
1426.0 0.000701 1125.79858 1381.29480
1329.0 0.000752 1125.75244 1352.98889
1300.0 0.000769 1125.70532 1316.76660
1327.0 0.000754 1125.65747 1278.97888
1260.0 0.000794 1125.60864 1244.24402
1241.0 0.000806 1125.55908 1215.22253
1129.0 0.000886 1125.50854 1192.76575
1189.0 0.000841 1125.45728 1176.42371
1159.0 0.000863 1125.40503 1165.08850
1180.0 0.000847 1125.35217 1157.49695
1095.0 0.000913 1125.29846 1152.52600
1166.0 0.000858 1125.24402 1149.38953
1124.0 0.000890 1125.18884 1147.48083
1174.0 0.000852 1125.13293 1146.54639
1160.0 0.000862 1125.07629 1146.49927
1148.0 0.000871 1125.01892 1147.42346
1159.0 0.000863 1124.96094 1149.44067
1101.0 0.000908 1124.90222 1152.66711
1164.0 0.000859 1124.84290 1155.70313
1175.0 0.000851 1124.78284 1161.16248
1206.0 0.000829 1124.72217 1167.05969
1150.0 0.000870 1124.66089 1172.42554
1154.0 0.000867 1124.59912 1176.08521
1196.0 0.000836 1124.53674 1177.42078
1141.0 0.000876 1124.47363 1176.89551
1106.0 0.000904 1124.41016 1175.57324
1214.0 0.000824 1124.34607 1174.31580
1104.0 0.000906 1124.28149 1173.28552
1114.0 0.000898 1124.21631 1172.53638
1177.0 0.000850 1124.15076 1172.30591
1159.0 0.000863 1124.08472 1172.98718
1127.0 0.000887 1124.01819 1174.66235
1163.0 0.000860 1123.95117 1176.83508
1186.0 0.000843 1123.88379 1178.47327
1159.0 0.000863 1123.81604 1178.56067
1143.0 0.000875 1123.74780 1177.03345
1178.0 0.000849 1123.67932 1174.93762
1172.0 0.000853 1123.61047 1173.58301
1180.0 0.000847 1123.54114 1173.88013
1137.0 0.000880 1123.47156 1176.20764
1163.0 0.000860 1123.40161 1180.47034
1174.0 0.000852 1123.33142 1186.23889
1207.0 0.000829 1123.26099 1193.01184
1148.0 0.000871 1123.19019 1200.93921
1269.0 0.000788 1123.11914 1211.53650
1269.0 0.000788 1123.04797 1227.99146
1354.0 0.000739 1122.97644 1254.08508
1278.0 0.000782 1122.90491 1293.07397
1378.0 0.000726 1122.83301 1346.38501
1450.0 0.000690 1122.76099 1412.40857
1527.0 0.000655 1122.68884 1485.12292
1598.0 0.000626 1122.61646 1552.56958
1618.0 0.000618 1122.54407 1596.95618
1651.0 0.000606 1122.47156 1601.67090
1564.0 0.000639 1122.39893 1564.28625
1532.0 0.000653 1122.32617 1498.79858
1453.0 0.000688 1122.25342 1423.53088
1380.0 0.000725 1122.18066 1351.89172
1277.0 0.000783 1122.10779 1291.16785
1236.0 0.000809 1122.03491 1244.01990
1278.0 0.000782 1121.96204 1209.99011
1175.0 0.000851 1121.88928 1186.84119
1168.0 0.000856 1121.81641 1171.68994
1137.0 0.000880 1121.74365 1161.81702
1164.0 0.000859 1121.67102 1155.08032
1145.0 0.000873 1121.59827 1150.11511
1157.0 0.000864 1121.52588 1146.17383
1145.0 0.000873 1121.45337 1142.91992
1152.0 0.000868 1121.38110 1140.19690
1107.0 0.000903 1121.30896 1137.91479
1115.0 0.000897 1121.23694 1136.01013
1175.0 0.000851 1121.16516 1134.42273
1157.0 0.000864 1121.09351 1133.09534
1114.0 0.000898 1121.02197 1131.97717
1126.0 0.000888 1120.95081 1131.02356
1157.0 0.000864 1120.87976 1130.20898
1142.0 0.000876 1120.80896 1129.49097
1150.0 0.000870 1120.73853 1128.85632
1078.0 0.000928 1120.66821 1128.29285
1075.0 0.000930 1120.59827 1127.58936
1136.0 0.000880 1120.52856 1127.14661
1094.0 0.000914 1120.45923 1126.75342
1146.0 0.000873 1120.39026 1126.72852
1146.0 0.000873 1120.32153 1126.43835
1148.0 0.000871 1120.25330 1126.19739
1064.0 0.000940 1120.18530 1126.00818
1146.0 0.000873 1120.11768 1125.86938
1114.0 0.000898 1120.05054 1125.78027
1184.0 0.000845 1119.98376 1125.72998
1232.0 0.000812 1119.91736 1125.69873
1133.0 0.000883 1119.85144 1125.65759
1192.0 0.000839 1119.78601 1125.57617
1131.0 0.000884 1119.72095 1125.44421
1155.0 0.000866 1119.65649 1125.28345
1133.0 0.000883 1119.59241 1125.12952
1137.0 0.000880 1119.52881 1125.01489
1048.0 0.000954 1119.46582 1124.85754
1095.0 0.000913 1119.40332 1124.86792
1115.0 0.000897 1119.34131 1124.96509
1166.0 0.000858 1119.27991 1125.30823
1150.0 0.000870 1119.21899 1125.89624
1165.0 0.000858 1119.15869 1126.89246
1173.0 0.000853 1119.09900 1128.44165
1119.0 0.000894 1119.03992 1130.71667
1133.0 0.000883 1118.98132 1133.85132
1176.0 0.000850 1118.92346 1137.86560
1176.0 0.000850 1118.86621 1142.58484
1132.0 0.000883 1118.80957 1148.64038
1085.0 0.000922 1118.75354 1153.02527
1162.0 0.000861 1118.69824 1155.67993
1125.0 0.000889 1118.64355 1155.76660
1164.0 0.000859 1118.58960 1153.48425
1184.0 0.000845 1118.53638 1149.92700
1147.0 0.000872 1118.48376 1146.28162
1108.0 0.000903 1118.43201 1143.39502
1165.0 0.000858 1118.38074 1141.76819
1164.0 0.000859 1118.33044 1141.88599
1205.0 0.000830 1118.28076 1143.42590
1129.0 0.000886 1118.23181 1146.49353
1153.0 0.000867 1118.18372 1151.10828
1152.0 0.000868 1118.13635 1157.08862
1208.0 0.000828 1118.08972 1164.01465
1181.0 0.000847 1118.04395 1170.90051
1163.0 0.000860 1117.99890 1176.09692
1187.0 0.000842 1117.95471 1177.72998
1172.0 0.000853 1117.91125 1174.93652
1193.0 0.000838 1117.86865 1168.71362
1178.0 0.000849 1117.82690 1160.94592
1135.0 0.000881 1117.78601 1153.26892
1159.0 0.000863 1117.74597 1146.69727
1180.0 0.000847 1117.70679 1141.74573
1114.0 0.000898 1117.66833 1138.60620
1143.0 0.000875 1117.63086 1137.26184
1149.0 0.000870 1117.59424 1137.71790
1183.0 0.000845 1117.55847 1139.90430
1168.0 0.000856 1117.52368 1143.78430
1181.0 0.000847 1117.48975 1149.25952
1203.0 0.000831 1117.45667 1156.03870
1179.0 0.000848 1117.42444 1163.48340
1228.0 0.000814 1117.39319 1170.55310
1140.0 0.000877 1117.36292 1176.06030
1195.0 0.000837 1117.33350 1179.00256
1110.0 0.000901 1117.30493 1178.83215
1202.0 0.000832 1117.27747 1175.39661
1213.0 0.000824 1117.25073 1169.32019
1161.0 0.000861 1117.22510 1161.93445
1189.0 0.000841 1117.20032 1154.62207
1143.0 0.000875 1117.17664 1148.28088
1102.0 0.000907 1117.15369 1143.28320
1136.0 0.000880 1117.13184 1139.62207
1172.0 0.000853 1117.11096 1137.05530
1099.0 0.000910 1117.09094 1134.87402
1116.0 0.000896 1117.07202 1133.68384
1142.0 0.000876 1117.05396 1132.86060
1150.0 0.000870 1117.03699 1132.38989
1149.0 0.000870 1117.02087 1132.23218
1205.0 0.000830 1117.00586 1132.35034
1111.0 0.000900 1116.99170 1132.70154
1103.0 0.000907 1116.97852 1133.28540
1132.0 0.000883 1116.96643 1133.91492
1155.0 0.000866 1116.95532 1134.59070
1026.0 0.000975 1116.94507 1135.31372
1081.0 0.000925 1116.93591 1136.14771
1205.0 0.000830 1116.92773 1137.19812
1095.0 0.000913 1116.92065 1138.56995
1110.0 0.000901 1116.91443 1140.38330
1049.0 0.000953 1116.90918 1142.78650
1169.0 0.000855 1116.90503 1145.96851
1196.0 0.000836 1116.90186 1155.07751
1166.0 0.000858 1116.89966 1160.80994
1173.0 0.000853 1116.89844 1168.51367
1162.0 0.000861 1116.89819 1179.00415
1172.0 0.000853 1116.89905 1193.38782
1260.0 0.000794 1116.90076 1213.03186
1223.0 0.000818 1116.90356 1239.49622
1341.0 0.000746 1116.90735 1274.27258
1319.0 0.000758 1116.91199 1318.03186
1380.0 0.000725 1116.91772 1369.46619
1427.0 0.000701 1116.92444 1424.06384
1439.0 0.000695 1116.93225 1473.01746
1454.0 0.000688 1116.94092 1503.71631
1535.0 0.000651 1116.95056 1505.31567
1486.0 0.000673 1116.96118 1477.38306
1451.0 0.000689 1116.97290 1430.30566
1419.0 0.000705 1116.98547 1376.87488
1266.0 0.000790 1116.99902 1328.59753
1283.0 0.000779 1117.01355 1286.21460
1244.0 0.000804 1117.02905 1253.88391
1184.0 0.000845 1117.04553 1231.47937
1254.0 0.000797 1117.06299 1217.66663
1203.0 0.000831 1117.08130 1210.66589
1206.0 0.000829 1117.10059 1208.88904
1226.0 0.000816 1117.12085 1211.29041
1162.0 0.000861 1117.14209 1217.59399
1235.0 0.000810 1117.16431 1228.47668
1275.0 0.000784 1117.18738 1245.79858
1224.0 0.000817 1117.21130 1272.85156
1336.0 0.000749 1117.23621 1314.48682
1371.0 0.000729 1117.26208 1376.81238
1419.0 0.000705 1117.28882 1466.18787
1519.0 0.000658 1117.31641 1587.36511
1686.0 0.000593 1117.34497 1740.97229
1882.0 0.000531 1117.37439 1920.63855
2036.0 0.000491 1117.40466 2109.70874
2276.0 0.000439 1117.43591 2277.95898
2335.0 0.000428 1117.46790 2384.01392
2397.0 0.000417 1117.50085 2394.86157
2295.0 0.000436 1117.53455 2313.39526
2136.0 0.000468 1117.56921 2176.99390
2060.0 0.000485 1117.60474 2028.55286
1895.0 0.000528 1117.64099 1897.46338
1809.0 0.000553 1117.67810 1797.08582
1776.0 0.000563 1117.71606 1727.24500
1727.0 0.000579 1117.75476 1677.22742
1670.0 0.000599 1117.79431 1631.44482
1516.0 0.000660 1117.83472 1578.57263
1540.0 0.000649 1117.87585 1517.29456
1464.0 0.000683 1117.91772 1453.16602
1417.0 0.000706 1117.96045 1392.62134
1323.0 0.000756 1118.00391 1339.98792
1315.0 0.000760 1118.04810 1297.23535
1309.0 0.000764 1118.09302 1264.48999
1348.0 0.000742 1118.13867 1240.61584
1235.0 0.000810 1118.18506 1223.98169
1194.0 0.000838 1118.23218 1212.70435
1187.0 0.000842 1118.27991 1205.18176
1205.0 0.000830 1118.32849 1200.20569
1203.0 0.000831 1118.37756 1196.93311
1231.0 0.000812 1118.42749 1194.85010
1143.0 0.000875 1118.47791 1193.64929
1241.0 0.000806 1118.52917 1193.15564
1196.0 0.000836 1118.58093 1193.27429
1121.0 0.000892 1118.63330 1193.95740
1189.0 0.000841 1118.68640 1195.20142
1203.0 0.000831 1118.73999 1196.98804
1189.0 0.000841 1118.79431 1199.35413
1120.0 0.000893 1118.84912 1202.34241
1224.0 0.000817 1118.90454 1205.99512
1211.0 0.000826 1118.96045 1210.41260
1223.0 0.000818 1119.01697 1215.66516
1250.0 0.000800 1119.07397 1221.90222
1248.0 0.000801 1119.13159 1229.24878
1241.0 0.000806 1119.18970 1237.98901
1330.0 0.000752 1119.24829 1248.44214
1269.0 0.000788 1119.30737 1261.05945
1273.0 0.000786 1119.36682 1276.25916
1266.0 0.000790 1119.42688 1294.27332
1336.0 0.000749 1119.48730 1315.02576
1299.0 0.000770 1119.54822 1338.00562
1385.0 0.000722 1119.60962 1362.31445
1323.0 0.000756 1119.67126 1387.24902
1387.0 0.000721 1119.73340 1413.50427
1467.0 0.000682 1119.79602 1443.63879
1443.0 0.000693 1119.85876 1481.41467
1509.0 0.000663 1119.92212 1531.52942
1609.0 0.000622 1119.98572 1600.72424
1699.0 0.000589 1120.04968 1698.77368
1757.0 0.000569 1120.11389 1842.33179
2060.0 0.000485 1120.17847 2055.24048
2311.0 0.000433 1120.24329 2365.69165
2720.0 0.000368 1120.30835 2799.11938
3330.0 0.0003003 1120.37378 3368.54077
4055.0 0.0002466 1120.43933 4063.58813
4865.0 0.0002055 1120.50525 4838.18066
5597.0 0.0001787 1120.57129 5596.25391
6322.0 0.0001582 1120.63770 6183.75732
6527.0 0.0001532 1120.70410 6425.12061
6337.0 0.0001578 1120.77075 6231.87207
5769.0 0.0001733 1120.83765 5680.11084
4987.0 0.0002005 1120.90466 4943.56592
4343.0 0.0002303 1120.97168 4181.70947
3441.0 0.0002906 1121.03894 3497.78638
2798.0 0.000357 1121.10632 2945.77026
2484.0 0.000403 1121.17371 2545.44922
2232.0 0.000448 1121.24121 2295.39575
2074.0 0.000482 1121.30884 2183.67188
2123.0 0.000471 1121.37646 2195.31592
2350.0 0.000426 1121.44409 2315.29224
2475.0 0.000404 1121.51172 2526.94629
2839.0 0.000352 1121.57935 2808.67261
3231.0 0.0003095 1121.64709 3120.68579
3374.0 0.0002964 1121.71472 3406.88281
3732.0 0.0002680 1121.78223 3588.99878
3651.0 0.0002739 1121.84985 3597.26489
3394.0 0.0002946 1121.91724 3420.75757
3190.0 0.0003135 1121.98462 3116.14233
2793.0 0.000358 1122.05188 2760.86890
2446.0 0.000409 1122.11902 2414.38940
2094.0 0.000478 1122.18604 2111.06885
1863.0 0.000537 1122.25293 1865.76440
1688.0 0.000592 1122.31970 1679.79248
1509.0 0.000663 1122.38623 1545.99438
1458.0 0.000686 1122.45251 1453.28210
1326.0 0.000754 1122.51868 1390.18030
1357.0 0.000737 1122.58459 1346.99182
1362.0 0.000734 1122.65027 1316.56030
1317.0 0.000759 1122.71570 1294.15173
1253.0 0.000798 1122.78088 1276.88123
1242.0 0.000805 1122.84570 1263.05444
1271.0 0.000787 1122.91028 1251.63489
1242.0 0.000805 1122.97461 1241.91211
1222.0 0.000818 1123.03857 1233.34729
1213.0 0.000824 1123.10205 1225.58435
1244.0 0.000804 1123.16528 1218.47729
1220.0 0.000820 1123.22827 1213.04565
1225.0 0.000816 1123.29065 1207.49536
1216.0 0.000822 1123.35278 1202.75586
1149.0 0.000870 1123.41443 1198.81506
1187.0 0.000842 1123.47571 1195.61011
1239.0 0.000807 1123.53650 1193.02417
1149.0 0.000870 1123.59680 1190.87769
1203.0 0.000831 1123.65674 1188.93274
1201.0 0.000833 1123.71606 1188.16333
1187.0 0.000842 1123.77502 1186.02551
1199.0 0.000834 1123.83337 1183.92651
1201.0 0.000833 1123.89124 1181.96777
1192.0 0.000839 1123.94849 1180.27454
1127.0 0.000887 1124.00525 1178.87378
1211.0 0.000826 1124.06140 1177.72144
1137.0 0.000880 1124.11694 1176.78137
1173.0 0.000853 1124.17188 1176.07251
1154.0 0.000867 1124.22632 1175.63086
1232.0 0.000812 1124.28003 1175.43103
1156.0 0.000865 1124.33313 1175.35864
1174.0 0.000852 1124.38550 1175.26465
1187.0 0.000842 1124.43726 1175.10522
1181.0 0.000847 1124.48840 1175.01270
1177.0 0.000850 1124.53870 1175.18457
1149.0 0.000870 1124.58850 1175.71765
1257.0 0.000796 1124.63745 1176.54138
1161.0 0.000861 1124.68567 1177.35535
1145.0 0.000873 1124.73315 1177.73975
1129.0 0.000886 1124.77991 1177.33997
1200.0 0.000833 1124.82581 1176.15540
1133.0 0.000883 1124.87097 1174.53418
1184.0 0.000845 1124.91541 1172.89697
1178.0 0.000849 1124.95886 1171.56189
1127.0 0.000887 1125.00159 1170.72351
1146.0 0.000873 1125.04358 1170.48901
1139.0 0.000878 1125.08459 1170.92065
1213.0 0.000824 1125.12476 1172.06433
1181.0 0.000847 1125.16406 1174.02844
1184.0 0.000845 1125.20251 1177.01416
1196.0 0.000836 1125.24011 1181.40125
1194.0 0.000838 1125.27673 1187.79504
1185.0 0.000844 1125.31250 1197.06836
1190.0 0.000840 1125.34729 1210.31934
1163.0 0.000860 1125.38110 1228.68188
1256.0 0.000796 1125.41406 1252.90967
1322.0 0.000756 1125.44604 1283.09607
1401.0 0.000714 1125.47693 1318.26001
1412.0 0.000708 1125.50696 1354.45605
1368.0 0.000731 1125.53601 1386.42517
1428.0 0.000700 1125.56409 1406.69080
1442.0 0.000693 1125.59106 1409.16321
1462.0 0.000684 1125.61707 1394.06335
1399.0 0.000715 1125.64197 1367.23193
1344.0 0.000744 1125.66589 1336.03870
1288.0 0.000776 1125.68884 1306.33655
1343.0 0.000745 1125.71057 1281.84668
1320.0 0.000758 1125.73132 1264.34827
1221.0 0.000819 1125.75098 1254.05566
1317.0 0.000759 1125.76953 1249.92749
1246.0 0.000803 1125.78711 1250.09155
1274.0 0.000785 1125.80347 1247.14343
1231.0 0.000812 1125.81873 1248.37476
1251.0 0.000799 1125.83289 1247.13928
1238.0 0.000808 1125.84595 1243.53491
1254.0 0.000797 1125.85779 1238.83875
1251.0 0.000799 1125.86853 1234.39563
1286.0 0.000778 1125.87817 1231.11523
1233.0 0.000811 1125.88660 1229.52893
1220.0 0.000820 1125.89392 1229.92322
1264.0 0.000791 1125.90002 1232.38928
1225.0 0.000816 1125.90491 1236.84229
1248.0 0.000801 1125.90869 1243.08154
1239.0 0.000807 1125.91125 1250.90320
1197.0 0.000835 1125.91260 1260.28979
1225.0 0.000816 1125.91284 1271.63000
1250.0 0.000800 1125.91174 1285.83997
1309.0 0.000764 1125.90955 1304.47180
1368.0 0.000731 1125.90601 1327.86658
1471.0 0.000680 1125.90137 1364.47937
1472.0 0.000679 1125.89539 1418.31873
1550.0 0.000645 1125.88831 1498.21753
1655.0 0.000604 1125.87988 1615.43445
1822.0 0.000549 1125.87024 1782.31018
2073.0 0.000482 1125.85938 2009.44812
2379.0 0.000420 1125.84729 2301.67261
2676.0 0.000374 1125.83386 2653.10083
3012.0 0.0003320 1125.81921 3041.59692
3322.0 0.0003010 1125.80334 3422.25684
3536.0 0.0002828 1125.78613 3723.65625
3638.0 0.0002749 1125.76782 3862.90552
3819.0 0.0002618 1125.74805 3792.90137
3576.0 0.0002796 1125.72717 3541.25146
3194.0 0.0003131 1125.70483 3186.59399
2896.0 0.0003453 1125.68127 2806.60278
2579.0 0.000388 1125.65649 2453.54199
2208.0 0.000453 1125.63049 2155.05249
2014.0 0.000497 1125.60315 1921.00635
1844.0 0.000542 1125.57446 1749.58179
1610.0 0.000621 1125.54456 1632.22852
1640.0 0.000610 1125.51331 1557.79285
1533.0 0.000652 1125.48083 1515.70508
1491.0 0.000671 1125.44702 1498.01135
1447.0 0.000691 1125.41187 1500.37122
1530.0 0.000654 1125.37549 1522.48999
1547.0 0.000646 1125.33789 1568.29346
1583.0 0.000632 1125.29895 1645.70386
1666.0 0.000600 1125.25867 1765.67322
1840.0 0.000543 1125.21716 1940.25854
2067.0 0.000484 1125.17444 2179.49023
2465.0 0.000406 1125.13025 2487.31250
2708.0 0.000369 1125.08496 2856.92627
3317.0 0.0003015 1125.03821 3265.55591
3638.0 0.0002749 1124.99036 3668.43115
3922.0 0.0002550 1124.94116 3996.86353
4043.0 0.0002473 1124.89063 4177.87500
4057.0 0.0002465 1124.83887 4183.04443
4039.0 0.0002476 1124.78589 4057.80298
3817.0 0.0002620 1124.73157 3886.78320
3662.0 0.0002731 1124.67603 3741.01099
3718.0 0.0002690 1124.61914 3654.75391
3607.0 0.0002772 1124.56104 3623.40161
3661.0 0.0002731 1124.50171 3606.70898
3555.0 0.0002813 1124.44116 3542.57910
3399.0 0.0002942 1124.37927 3382.75586
3037.0 0.0003293 1124.31628 3127.60181
2832.0 0.000353 1124.25195 2818.19385
2522.0 0.000397 1124.18640 2501.56250
2253.0 0.000444 1124.11951 2210.77881
1948.0 0.000513 1124.05151 1963.58936
1711.0 0.000584 1123.98230 1766.15894
1651.0 0.000606 1123.91187 1616.61511
1544.0 0.000648 1123.84021 1508.17810
1404.0 0.000712 1123.76733 1431.98474
1417.0 0.000706 1123.69336 1379.29260
1366.0 0.000732 1123.61804 1342.77954
1305.0 0.000766 1123.54163 1316.97937
1267.0 0.000789 1123.46399 1298.11951
1264.0 0.000791 1123.38525 1283.68213
1284.0 0.000779 1123.30530 1271.95911
1273.0 0.000786 1123.22424 1261.78308
1288.0 0.000776 1123.14197 1252.49329
1251.0 0.000799 1123.05859 1244.01831
1219.0 0.000820 1122.97412 1236.37769
1185.0 0.000844 1122.88843 1229.84558
1225.0 0.000816 1122.80164 1224.57520
1254.0 0.000797 1122.71375 1220.67859
1235.0 0.000810 1122.62488 1218.27734
1172.0 0.000853 1122.53479 1217.68225
1222.0 0.000818 1122.44360 1219.06982
1239.0 0.000807 1122.35144 1223.23071
1262.0 0.000792 1122.25806 1231.31274
1220.0 0.000820 1122.16370 1245.00293
1277.0 0.000783 1122.06836 1266.43042
1350.0 0.000741 1121.97192 1297.76428
1391.0 0.000719 1121.87439 1340.70996
1399.0 0.000715 1121.77600 1395.70984
1450.0 0.000690 1121.67651 1461.08923
1557.0 0.000642 1121.57605 1532.03052
1495.0 0.000669 1121.47461 1599.42078
1594.0 0.000627 1121.37207 1649.68298
1683.0 0.000594 1121.26868 1668.83008
1598.0 0.000626 1121.16431 1651.19006
1614.0 0.000620 1121.05908 1603.64172
1579.0 0.000633 1120.95276 1539.37988
1451.0 0.000689 1120.84570 1470.21094
1370.0 0.000730 1120.73755 1404.43982
1329.0 0.000752 1120.62854 1347.29797
1277.0 0.000783 1120.51880 1301.27490
1271.0 0.000787 1120.40808 1266.49890
1275.0 0.000784 1120.29651 1241.43665
1215.0 0.000823 1120.18408 1223.65918
1218.0 0.000821 1120.07080 1210.53625
1183.0 0.000845 1119.95667 1199.92798
1225.0 0.000816 1119.84180 1190.64868
1202.0 0.000832 1119.72620 1182.32898
1144.0 0.000874 1119.60962 1174.95886
1145.0 0.000873 1119.49243 1168.57483
1195.0 0.000837 1119.37451 1163.24097
1151.0 0.000869 1119.25574 1158.76880
1190.0 0.000840 1119.13623 1155.12976
1142.0 0.000876 1119.01611 1152.19043
1186.0 0.000843 1118.89514 1149.84619
1056.0 0.000947 1118.77356 1147.97571
1165.0 0.000858 1118.65137 1146.49976
1120.0 0.000893 1118.52844 1145.37109
1100.0 0.000909 1118.40491 1144.57446
1234.0 0.000810 1118.28064 1144.11755
1150.0 0.000870 1118.15588 1143.97681
1138.0 0.000879 1118.03052 1144.23193
1129.0 0.000886 1117.90454 1144.82520
1123.0 0.000890 1117.77795 1145.69434
1109.0 0.000902 1117.65076 1146.71179
1127.0 0.000887 1117.52319 1147.68250
1109.0 0.000902 1117.39490 1148.39941
1105.0 0.000905 1117.26624 1148.79944
1108.0 0.000903 1117.13696 1149.04163
1196.0 0.000836 1117.00732 1149.37854
1176.0 0.000850 1116.87720 1149.96130
1149.0 0.000870 1116.74658 1150.74939
1177.0 0.000850 1116.61560 1151.54822
1164.0 0.000859 1116.48401 1152.10046
1129.0 0.000886 1116.35217 1152.12366
1185.0 0.000844 1116.21997 1151.82898
1132.0 0.000883 1116.08728 1148.06018
1151.0 0.000869 1115.95435 1145.52966
1164.0 0.000859 1115.82104 1142.65112
1125.0 0.000889 1115.68738 1139.85474
1156.0 0.000865 1115.55334 1137.41174
1078.0 0.000928 1115.41919 1135.43738
1165.0 0.000858 1115.28455 1133.91309
1175.0 0.000851 1115.14978 1132.76355
1138.0 0.000879 1115.01477 1131.82104
1106.0 0.000904 1114.87952 1130.94287
1061.0 0.000943 1114.74402 1130.06396
1154.0 0.000867 1114.60828 1129.19995
1106.0 0.000904 1114.47241 1128.39441
1126.0 0.000888 1114.33643 1127.68481
1079.0 0.000927 1114.20032 1127.08875
1090.0 0.000917 1114.06396 1127.65442
1122.0 0.000891 1113.92761 1127.35205
1090.0 0.000917 1113.79102 1127.19580
1111.0 0.000900 1113.65454 1127.19775
1130.0 0.000885 1113.51782 1127.37805
1119.0 0.000894 1113.38110 1127.76221
1125.0 0.000889 1113.24451 1128.37671
1119.0 0.000894 1113.10767 1129.24438
1146.0 0.000873 1112.97095 1130.33960
1131.0 0.000884 1112.83423 1131.62012
1114.0 0.000898 1112.69751 1130.94446
1127.0 0.000887 1112.56091 1132.21973
1118.0 0.000894 1112.42432 1133.12634
1129.0 0.000886 1112.28784 1133.45105
1183.0 0.000845 1112.15149 1133.17053
1166.0 0.000858 1112.01514 1132.47644
1126.0 0.000888 1111.87903 1131.63672
1154.0 0.000867 1111.74304 1130.90649
1166.0 0.000858 1111.60718 1130.35913
1164.0 0.000859 1111.47156 1128.67822
1151.0 0.000869 1111.33618 1128.78638
1177.0 0.000850 1111.20093 1129.23828
1101.0 0.000908 1111.06592 1130.04468
1099.0 0.000910 1110.93115 1131.21704
1066.0 0.000938 1110.79675 1132.79651
1129.0 0.000886 1110.66248 1134.86926
1141.0 0.000876 1110.52856 1137.58215
1155.0 0.000866 1110.39490 1141.16406
1131.0 0.000884 1110.26172 1145.94263
1166.0 0.000858 1110.12878 1152.36084
1155.0 0.000866 1109.99622 1160.97546
1182.0 0.000846 1109.86401 1172.41663
1239.0 0.000807 1109.73218 1187.35486
1269.0 0.000788 1109.60071 1206.41223
1241.0 0.000806 1109.46973 1230.08276
1281.0 0.000781 1109.33923 1258.58118
1252.0 0.000799 1109.20911 1291.68958
1263.0 0.000792 1109.07947 1328.65454
1400.0 0.000714 1108.95032 1368.76563
1472.0 0.000679 1108.82166 1411.99072
1499.0 0.000667 1108.69348 1458.19568
1527.0 0.000655 1108.56592 1504.96130
1553.0 0.000644 1108.43884 1545.74500
1609.0 0.000622 1108.31226 1570.24634
1520.0 0.000658 1108.18628 1568.87097
1581.0 0.000633 1108.06091 1539.73804
1450.0 0.000690 1107.93616 1490.30701
1432.0 0.000698 1107.81189 1431.54028
1365.0 0.000733 1107.68835 1372.32373
1266.0 0.000790 1107.56555 1318.19580
1253.0 0.000798 1107.44324 1272.14697
1251.0 0.000799 1107.32166 1235.34668
1172.0 0.000853 1107.20081 1207.57898
1204.0 0.000831 1107.08057 1187.71143
1173.0 0.000853 1106.96106 1174.20520
1137.0 0.000880 1106.84229 1165.45532
1179.0 0.000848 1106.72424 1159.69263
1180.0 0.000847 1106.60693 1156.50452
1213.0 0.000824 1106.49036 1154.53967
1176.0 0.000850 1106.37451 1153.02344
1096.0 0.000912 1106.25964 1151.44983
1199.0 0.000834 1106.14539 1149.83813
1157.0 0.000864 1106.03198 1148.47107
1155.0 0.000866 1105.91943 1147.80554
1156.0 0.000865 1105.80774 1148.30664
1174.0 0.000852 1105.69690 1150.62927
1203.0 0.000831 1105.58679 1154.60889
1121.0 0.000892 1105.47766 1160.69275
1171.0 0.000854 1105.36938 1168.83789
1217.0 0.000822 1105.26196 1178.75488
1217.0 0.000822 1105.15540 1189.72473
1185.0 0.000844 1105.04980 1200.54224
1175.0 0.000851 1104.94507 1209.36584
1215.0 0.000823 1104.84143 1214.01929
1226.0 0.000816 1104.73865 1213.10498
1167.0 0.000857 1104.63672 1207.09058
1331.0 0.000751 1104.53589 1197.94934
1213.0 0.000824 1104.43591 1187.86731
1238.0 0.000808 1104.33704 1178.44373
1241.0 0.000806 1104.23901 1170.61377
1230.0 0.000813 1104.14209 1164.81445
1209.0 0.000827 1104.04614 1161.16028
1164.0 0.000859 1103.95117 1159.59460
1227.0 0.000815 1103.85730 1160.02710
1141.0 0.000876 1103.76440 1162.41736
1190.0 0.000840 1103.67261 1166.96667
1211.0 0.000826 1103.58179 1174.20715
1170.0 0.000855 1103.49207 1185.12756
1290.0 0.000775 1103.40332 1201.24243
1238.0 0.000808 1103.31580 1224.55957
1268.0 0.000789 1103.22925 1257.44202
1294.0 0.000773 1103.14380 1302.03442
1331.0 0.000751 1103.05945 1359.82605
1415.0 0.000707 1102.97620 1430.73572
1515.0 0.000660 1102.89404 1512.24951
1641.0 0.000609 1102.81299 1598.35181
1770.0 0.000565 1102.73303 1678.40186
1681.0 0.000595 1102.65417 1737.22754
1720.0 0.000581 1102.57654 1759.82922
1775.0 0.000563 1102.50000 1740.70557
1640.0 0.000610 1102.42456 1688.51904
1548.0 0.000646 1102.35034 1619.71667
1534.0 0.000652 1102.27722 1549.88623
1464.0 0.000683 1102.20520 1490.46875
1374.0 0.000728 1102.13440 1449.38623
1362.0 0.000734 1102.06470 1432.34998
1398.0 0.000715 1101.99622 1443.64331
1448.0 0.000691 1101.92883 1486.41382
1517.0 0.000659 1101.86267 1562.33154
1686.0 0.000593 1101.79761 1670.83350
1764.0 0.000567 1101.73389 1807.80725
1976.0 0.000506 1101.67114 1963.93567
2120.0 0.000472 1101.60974 2122.23413
2228.0 0.000449 1101.54944 2256.51196
2276.0 0.000439 1101.49023 2334.28735
2279.0 0.000439 1101.43237 2330.89404
2194.0 0.000456 1101.37561 2246.71313
2053.0 0.000487 1101.31995 2106.70166
1888.0 0.000530 1101.26563 1942.78296
1757.0 0.000569 1101.21240 1780.06641
1635.0 0.000612 1101.16040 1633.90784
1524.0 0.000656 1101.10962 1511.76563
1462.0 0.000684 1101.05994 1415.53723
1301.0 0.000769 1101.01147 1343.55701
1303.0 0.000767 1100.96423 1292.23328
1233.0 0.000811 1100.91809 1257.26880
1207.0 0.000829 1100.87329 1234.48792
1243.0 0.000805 1100.82959 1220.28308
1190.0 0.000840 1100.78699 1211.74109
1197.0 0.000835 1100.74573 1206.44861
1184.0 0.000845 1100.70557 1202.31177
1192.0 0.000839 1100.66650 1197.57458
1214.0 0.000824 1100.62866 1191.23022
1211.0 0.000826 1100.59204 1183.34656
1177.0 0.000850 1100.55652 1174.73035
1177.0 0.000850 1100.52222 1166.28943
1172.0 0.000853 1100.48914 1159.11096
1177.0 0.000850 1100.45715 1152.72400
1206.0 0.000829 1100.42627 1147.70007
1140.0 0.000877 1100.39661 1144.01196
1129.0 0.000886 1100.36804 1141.49451
1148.0 0.000871 1100.34070 1139.88098
1149.0 0.000870 1100.31445 1138.81897
1196.0 0.000836 1100.28931 1137.90186
1122.0 0.000891 1100.26526 1136.82886
1123.0 0.000890 1100.24231 1135.26147
1163.0 0.000860 1100.22058 1133.34705
1130.0 0.000885 1100.19995 1131.32263
1155.0 0.000866 1100.18042 1129.43188
1065.0 0.000939 1100.16199 1127.83997
1160.0 0.000862 1100.14465 1126.64368
1107.0 0.000903 1100.12830 1125.85352
1137.0 0.000880 1100.11316 1125.35229
1152.0 0.000868 1100.09900 1125.17615
1145.0 0.000873 1100.08594 1125.10535
1120.0 0.000893 1100.07397 1124.98828
1145.0 0.000873 1100.06299 1124.75134
1149.0 0.000870 1100.05310 1124.44373
1167.0 0.000857 1100.04419 1123.85938
1171.0 0.000854 1100.03638 1123.83789
1118.0 0.000894 1100.02954 1124.17041
1177.0 0.000850 1100.02368 1124.97278
1138.0 0.000879 1100.01880 1126.32764
1137.0 0.000880 1100.01501 1128.33923
1168.0 0.000856 1100.01208 1131.05481
1087.0 0.000920 1100.01025 1134.52502
1137.0 0.000880 1100.00940 1138.80310
1129.0 0.000886 1100.00928 1143.97046
1184.0 0.000845 1100.01025 1150.19238
1183.0 0.000845 1100.01221 1157.86548
1181.0 0.000847 1100.01501 1167.80396
1158.0 0.000864 1100.01868 1181.24121
1176.0 0.000850 1100.02332 1199.51001
1286.0 0.000778 1100.02881 1223.62024
1253.0 0.000798 1100.03516 1253.82532
1287.0 0.000777 1100.04248 1289.26343
1295.0 0.000772 1100.05054 1327.45789
1337.0 0.000748 1100.05945 1363.87305
1310.0 0.000763 1100.06921 1391.81360
1379.0 0.000725 1100.07983 1404.00684
1417.0 0.000706 1100.09119 1396.45813
1352.0 0.000740 1100.10339 1371.39783
1326.0 0.000754 1100.11633 1335.56152
1246.0 0.000803 1100.13000 1296.06689
1216.0 0.000822 1100.14453 1258.10315
1222.0 0.000818 1100.15979 1224.71851
1212.0 0.000825 1100.17566 1197.31628
1211.0 0.000826 1100.19238 1176.13379
1144.0 0.000874 1100.20972 1160.57166
1123.0 0.000890 1100.22778 1149.82617
1134.0 0.000882 1100.24646 1142.77661
1177.0 0.000850 1100.26587 1138.47888
1145.0 0.000873 1100.28589 1136.19727
1164.0 0.000859 1100.30652 1135.39502
1199.0 0.000834 1100.32776 1135.67041
1156.0 0.000865 1100.34961 1136.68713
1160.0 0.000862 1100.37219 1138.11438
1106.0 0.000904 1100.39514 1139.66455
1143.0 0.000875 1100.41870 1141.21033
1144.0 0.000874 1100.44287 1142.84033
1101.0 0.000908 1100.46753 1144.72241
1134.0 0.000882 1100.49268 1146.89465
1095.0 0.000913 1100.51843 1149.11475
1104.0 0.000906 1100.54456 1150.81348
1151.0 0.000869 1100.57117 1151.24097
1135.0 0.000881 1100.59827 1149.87939
1154.0 0.000867 1100.62573 1146.82446
1134.0 0.000882 1100.65369 1142.71033
1175.0 0.000851 1100.68201 1138.30066
1115.0 0.000897 1100.71069 1134.21448
1092.0 0.000916 1100.73975 1130.87183
1160.0 0.000862 1100.76929 1128.52356
1187.0 0.000842 1100.79895 1126.79004
1173.0 0.000853 1100.82910 1126.74927
1143.0 0.000875 1100.85950 1127.88599
1126.0 0.000888 1100.89026 1130.18787
1096.0 0.000912 1100.92114 1133.64307
1115.0 0.000897 1100.95239 1138.19104
1071.0 0.000934 1100.98389 1143.72424
1132.0 0.000883 1101.01563 1149.99268
1143.0 0.000875 1101.04749 1156.71106
1132.0 0.000883 1101.07959 1163.58679
1181.0 0.000847 1101.11182 1170.28345
1228.0 0.000814 1101.14429 1176.24817
1164.0 0.000859 1101.17676 1180.53064
1218.0 0.000821 1101.20947 1181.94800
1204.0 0.000831 1101.24219 1179.77161
1150.0 0.000870 1101.27515 1174.38855
1181.0 0.000847 1101.30811 1167.08728
1183.0 0.000845 1101.34106 1158.25745
1117.0 0.000895 1101.37415 1151.01880
1111.0 0.000900 1101.40710 1144.95703
1105.0 0.000905 1101.44019 1140.37866
1116.0 0.000896 1101.47327 1137.37866
1148.0 0.000871 1101.50623 1135.92773
1132.0 0.000883 1101.53918 1135.96655
1070.0 0.000935 1101.57214 1137.48792
1165.0 0.000858 1101.60498 1140.65881
1142.0 0.000876 1101.63770 1145.86230
1134.0 0.000882 1101.67029 1153.80188
1118.0 0.000894 1101.70276 1165.53491
1178.0 0.000849 1101.73499 1182.45703
1203.0 0.000831 1101.76721 1206.11597
1297.0 0.000771 1101.79907 1238.02002
1250.0 0.000800 1101.83093 1279.18652
1286.0 0.000778 1101.86243 1329.63232
1389.0 0.000720 1101.89368 1387.95496
1537.0 0.000651 1101.92480 1450.48364
1607.0 0.000622 1101.95557 1510.65894
1550.0 0.000645 1101.98608 1558.77185
1600.0 0.000625 1102.01624 1584.07385
1591.0 0.000629 1102.04614 1580.32800
1597.0 0.000626 1102.07568 1550.41052
1496.0 0.000668 1102.10486 1504.21313
1511.0 0.000662 1102.13367 1452.47498
1453.0 0.000688 1102.16211 1402.89929
1348.0 0.000742 1102.19019 1359.49915
1329.0 0.000752 1102.21777 1323.18457
1282.0 0.000780 1102.24500 1292.64771
1269.0 0.000788 1102.27173 1265.80481
1244.0 0.000804 1102.29797 1241.22888
1189.0 0.000841 1102.32373 1218.70459
1208.0 0.000828 1102.34900 1198.60107
1158.0 0.000864 1102.37378 1181.22180
1181.0 0.000847 1102.39807 1166.62878
1222.0 0.000818 1102.42175 1154.69763
1164.0 0.000859 1102.44495 1145.18860
1215.0 0.000823 1102.46753 1138.16296
1134.0 0.000882 1102.48950 1132.50244
1130.0 0.000885 1102.51086 1128.20862
1127.0 0.000887 1102.53162 1124.95288
1159.0 0.000863 1102.55176 1122.44714
1130.0 0.000885 1102.57117 1120.47253
1128.0 0.000887 1102.58997 1118.87207
1118.0 0.000894 1102.60815 1117.54163
1113.0 0.000898 1102.62561 1116.41797
1098.0 0.000911 1102.64221 1115.46387
1114.0 0.000898 1102.65820 1114.65686
1080.0 0.000926 1102.67358 1113.98364
1063.0 0.000941 1102.68811 1113.43164
1093.0 0.000915 1102.70178 1112.99109
1141.0 0.000876 1102.71484 1112.65552
1110.0 0.000901 1102.72705 1112.38696
1099.0 0.000910 1102.73840 1112.15186
1101.0 0.000908 1102.74902 1111.93494
1090.0 0.000917 1102.75879 1111.67688
1159.0 0.000863 1102.76770 1111.34521
1152.0 0.000868 1102.77576 1110.93506
1127.0 0.000887 1102.78296 1110.47583
1083.0 0.000923 1102.78918 1110.00464
1092.0 0.000916 1102.79468 1109.55334
1136.0 0.000880 1102.79919 1109.14160
1140.0 0.000877 1102.80286 1108.77783
1072.0 0.000933 1102.80554 1108.46838
1101.0 0.000908 1102.80725 1107.96753
1120.0 0.000893 1102.80811 1107.75696
1100.0 0.000909 1102.80798 1107.58301
1133.0 0.000883 1102.80688 1107.43689
1081.0 0.000925 1102.80481 1107.30920
1079.0 0.000927 1102.80176 1107.19104
1106.0 0.000904 1102.79761 1107.08313
1105.0 0.000905 1102.79260 1106.97058
1125.0 0.000889 1102.78650 1106.86145
1104.0 0.000906 1102.77942 1106.75696
1084.0 0.000923 1102.77124 1106.66016
1118.0 0.000894 1102.76208 1106.57397
1073.0 0.000932 1102.75183 1106.49915
1140.0 0.000877 1102.74048 1106.43481
1064.0 0.000940 1102.72815 1107.63586
1029.0 0.000972 1102.71472 1107.61365
1086.0 0.000921 1102.70020 1107.60291
1034.0 0.000967 1102.68457 1107.59277
1107.0 0.000903 1102.66785 1107.60620
1059.0 0.000944 1102.65002 1107.63135
1052.0 0.000951 1102.63110 1107.67383
1080.0 0.000926 1102.61108 1107.73755
1165.0 0.000858 1102.58984 1107.82544
1123.0 0.000890 1102.56750 1107.94946
1125.0 0.000889 1102.54407 1108.12610
1089.0 0.000918 1102.51953 1108.34973
1078.0 0.000928 1102.49377 1108.71533
1066.0 0.000938 1102.46680 1109.22852
1092.0 0.000916 1102.43872 1109.94556
1111.0 0.000900 1102.40955 1110.91772
1140.0 0.000877 1102.37915 1112.18738
1122.0 0.000891 1102.34753 1113.77722
1167.0 0.000857 1102.31482 1115.67053
1128.0 0.000887 1102.28088 1117.78906
1099.0 0.000910 1102.24585 1119.97559
1148.0 0.000871 1102.20947 1121.97595
1117.0 0.000895 1102.17200 1123.47876
1171.0 0.000854 1102.13342 1124.19690
1090.0 0.000917 1102.09351 1123.97791
1120.0 0.000893 1102.05237 1125.12146
1099.0 0.000910 1102.01013 1123.40039
1138.0 0.000879 1101.96667 1121.35779
1079.0 0.000927 1101.92200 1119.30164
1118.0 0.000894 1101.87610 1117.42908
1129.0 0.000886 1101.82910 1115.85217
1085.0 0.000922 1101.78076 1114.61475
1126.0 0.000888 1101.73132 1113.66248
1105.0 0.000905 1101.68066 1113.07666
1144.0 0.000874 1101.62878 1112.76599
1130.0 0.000885 1101.57568 1112.69470
1145.0 0.000873 1101.52136 1112.83740
1099.0 0.000910 1101.46582 1113.18262
1141.0 0.000876 1101.40918 1113.73181
1129.0 0.000886 1101.35120 1114.49316
1142.0 0.000876 1101.29224 1115.47351
1161.0 0.000861 1101.23193 1116.68860
1103.0 0.000907 1101.17041 1118.08325
1081.0 0.000925 1101.10767 1119.64441
1136.0 0.000880 1101.04382 1121.32068
1156.0 0.000865 1100.97876 1123.01196
1080.0 0.000926 1100.91260 1124.53723
1109.0 0.000902 1100.84521 1125.64868
1171.0 0.000854 1100.77661 1126.12415
1135.0 0.000881 1100.70679 1125.91431
1122.0 0.000891 1100.63599 1125.17725
1156.0 0.000865 1100.56384 1124.16187
1091.0 0.000917 1100.49060 1123.08594
1137.0 0.000880 1100.41626 1122.08167
1081.0 0.000925 1100.34070 1121.22363
1086.0 0.000921 1100.26404 1120.56335
1176.0 0.000850 1100.18616 1120.13965
1175.0 0.000851 1100.10730 1119.55334
1073.0 0.000932 1100.02722 1119.65869
1132.0 0.000883 1099.94604 1120.00073
1085.0 0.000922 1099.86377 1120.52954
1138.0 0.000879 1099.78052 1121.17078
1044.0 0.000958 1099.69592 1121.83398
1120.0 0.000893 1099.61047 1122.43811
1118.0 0.000894 1099.52380 1122.95801
1092.0 0.000916 1099.43616 1123.36829
1077.0 0.000929 1099.34741 1123.90833
1090.0 0.000917 1099.25757 1124.59558
1095.0 0.000913 1099.16675 1125.50134
1100.0 0.000909 1099.07483 1126.67126
1111.0 0.000900 1098.98193 1128.12927
1150.0 0.000870 1098.88806 1129.87622
1143.0 0.000875 1098.79309 1132.14978
1143.0 0.000875 1098.69727 1134.40857
1081.0 0.000925 1098.60034 1136.88098
1064.0 0.000940 1098.50244 1139.60535
1119.0 0.000894 1098.40356 1142.75464
1127.0 0.000887 1098.30383 1146.67188
1162.0 0.000861 1098.20313 1151.88330
1148.0 0.000871 1098.10144 1159.12329
1170.0 0.000855 1097.99890 1169.37805
1196.0 0.000836 1097.89539 1183.90356
1214.0 0.000824 1097.79102 1204.17566
1240.0 0.000806 1097.68579 1231.74036
1239.0 0.000807 1097.57971 1267.91968
1284.0 0.000779 1097.47266 1313.45728
1362.0 0.000734 1097.36487 1368.04712
1477.0 0.000677 1097.25623 1429.81995
1636.0 0.000611 1097.14673 1494.73035
1634.0 0.000612 1097.03650 1555.87207
1702.0 0.000588 1096.92542 1603.38782
1655.0 0.000604 1096.81360 1626.65137
1675.0 0.000597 1096.70093 1619.43774
1641.0 0.000609 1096.58765 1584.15723
1546.0 0.000647 1096.47351 1530.13806
1503.0 0.000665 1096.35876 1468.12683
1416.0 0.000706 1096.24329 1406.55286
1355.0 0.000738 1096.12708 1350.80994
1274.0 0.000785 1096.01025 1303.67688
1267.0 0.000789 1095.89270 1266.16565
1225.0 0.000816 1095.77454 1237.94788
1278.0 0.000782 1095.65576 1217.85193
1204.0 0.000831 1095.53638 1204.27722
1222.0 0.000818 1095.41638 1195.51575
1127.0 0.000887 1095.29578 1190.00537
1184.0 0.000845 1095.17468 1186.81714
1186.0 0.000843 1095.05298 1184.66467
1203.0 0.000831 1094.93079 1183.54651
1213.0 0.000824 1094.80798 1183.45581
1212.0 0.000825 1094.68481 1184.49133
1265.0 0.000791 1094.56104 1186.77319
1206.0 0.000829 1094.43689 1190.41931
1191.0 0.000840 1094.31226 1195.50671
1169.0 0.000855 1094.18726 1202.11133
1171.0 0.000854 1094.06177 1210.29309
1199.0 0.000834 1093.93591 1220.13892
1245.0 0.000803 1093.80969 1231.85339
1222.0 0.000818 1093.68311 1245.93481
1261.0 0.000793 1093.55627 1263.45227
1288.0 0.000776 1093.42896 1286.33765
1296.0 0.000772 1093.30139 1317.55676
1385.0 0.000722 1093.17346 1361.04602
1422.0 0.000703 1093.04541 1421.43335
1561.0 0.000641 1092.91711 1503.53845
1695.0 0.000590 1092.78845 1611.64063
1809.0 0.000553 1092.65967 1748.46631
1952.0 0.000512 1092.53064 1913.86157
2158.0 0.000463 1092.40149 2103.28271
2296.0 0.000436 1092.27209 2305.91870
2527.0 0.000396 1092.14258 2502.58301
2648.0 0.000378 1092.01294 2664.72900
2859.0 0.0003498 1091.88330 2759.03906
2786.0 0.000359 1091.75354 2761.44751
2782.0 0.000359 1091.62366 2672.38989
2564.0 0.000390 1091.49365 2516.53174
2389.0 0.000419 1091.36377 2327.33691
2179.0 0.000459 1091.23376 2133.27710
1962.0 0.000510 1091.10388 1953.52209
1763.0 0.000567 1090.97400 1798.99170
1677.0 0.000596 1090.84412 1674.56592
1603.0 0.000624 1090.71423 1580.90198
1467.0 0.000682 1090.58459 1516.11377
1411.0 0.000709 1090.45496 1477.27161
1491.0 0.000671 1090.32544 1461.76489
1446.0 0.000692 1090.19604 1468.41931
1451.0 0.000689 1090.06689 1498.25305
1491.0 0.000671 1089.93787 1554.75903
1574.0 0.000635 1089.80908 1643.63428
1700.0 0.000588 1089.68054 1771.88965
1905.0 0.000525 1089.55212 1946.45032
2134.0 0.000469 1089.42395 2172.13623
2404.0 0.000416 1089.29614 2449.30566
2772.0 0.000361 1089.16858 2771.23169
3256.0 0.0003071 1089.04138 3121.08057
3630.0 0.0002755 1088.91443 3468.32422
3947.0 0.0002534 1088.78784 3766.16113
4141.0 0.0002415 1088.66174 3956.53076
4252.0 0.0002352 1088.53589 3990.95557
4037.0 0.0002477 1088.41040 3858.97266
3636.0 0.0002750 1088.28552 3595.58667
3355.0 0.0002981 1088.16089 3257.83447
2849.0 0.000351 1088.03687 2898.90869
2495.0 0.000401 1087.91321 2556.19824
2153.0 0.000464 1087.79004 2251.95410
1959.0 0.000510 1087.66748 1996.72949
1808.0 0.000553 1087.54541 1792.70105
1633.0 0.000612 1087.42383 1636.27075
1528.0 0.000654 1087.30286 1520.54504
1508.0 0.000663 1087.18237 1437.28210
1449.0 0.000690 1087.06262 1378.41516
1364.0 0.000733 1086.94348 1336.92798
1249.0 0.000801 1086.82483 1307.19763
1352.0 0.000740 1086.70691 1284.95300
1244.0 0.000804 1086.58972 1267.12817
1225.0 0.000816 1086.47314 1251.76318
1218.0 0.000821 1086.35730 1237.88770
1152.0 0.000868 1086.24207 1225.21936
1140.0 0.000877 1086.12769 1213.77979
1253.0 0.000798 1086.01404 1203.66113
1205.0 0.000830 1085.90112 1194.77673
1154.0 0.000867 1085.78894 1187.08398
1210.0 0.000826 1085.67761 1180.42212
1279.0 0.000782 1085.56714 1174.63440
1168.0 0.000856 1085.45740 1169.58911
1143.0 0.000875 1085.34851 1165.21838
1192.0 0.000839 1085.24048 1161.51111
1153.0 0.000867 1085.13342 1158.48767
1162.0 0.000861 1085.02710 1156.19189
1192.0 0.000839 1084.92175 1154.70557
1247.0 0.000802 1084.81738 1154.17322
1180.0 0.000847 1084.71387 1154.83325
1144.0 0.000874 1084.61121 1157.05359
1217.0 0.000822 1084.50964 1161.35742
1138.0 0.000879 1084.40894 1168.42554
1186.0 0.000843 1084.30933 1179.06592
1182.0 0.000846 1084.21057 1194.13257
1215.0 0.000823 1084.11292 1214.32361
1207.0 0.000829 1084.01624 1240.05090
1270.0 0.000787 1083.92065 1271.33740
1282.0 0.000780 1083.82605 1306.79529
1364.0 0.000733 1083.73254 1344.43689
1376.0 0.000727 1083.64001 1380.54553
1417.0 0.000706 1083.54871 1409.73926
1472.0 0.000679 1083.45837 1425.88940
1400.0 0.000714 1083.36914 1424.69812
1434.0 0.000697 1083.28113 1406.35974
1385.0 0.000722 1083.19421 1375.44202
1321.0 0.000757 1083.10828 1338.09790
1314.0 0.000761 1083.02356 1299.62915
1272.0 0.000786 1082.94006 1263.63513
1222.0 0.000818 1082.85767 1232.18896
1188.0 0.000842 1082.77649 1206.20154
1192.0 0.000839 1082.69641 1185.79285
1136.0 0.000880 1082.61768 1170.34497
1178.0 0.000849 1082.53992 1159.06799
1153.0 0.000867 1082.46350 1151.01807
1153.0 0.000867 1082.38831 1145.36255
1133.0 0.000883 1082.31433 1141.51746
1115.0 0.000897 1082.24146 1139.13025
1190.0 0.000840 1082.16992 1138.06555
1198.0 0.000835 1082.09961 1138.30859
1156.0 0.000865 1082.03052 1139.92737
1094.0 0.000914 1081.96277 1143.05103
1132.0 0.000883 1081.89624 1147.46375
1128.0 0.000887 1081.83093 1154.14050
1121.0 0.000892 1081.76685 1162.92041
1212.0 0.000825 1081.70422 1174.03577
1171.0 0.000854 1081.64270 1187.68250
1154.0 0.000867 1081.58252 1204.03809
1179.0 0.000848 1081.52368 1223.33008
1236.0 0.000809 1081.46606 1246.09644
1261.0 0.000793 1081.40979 1273.02539
1290.0 0.000775 1081.35474 1304.46436
1311.0 0.000763 1081.30103 1339.79236
1312.0 0.000762 1081.24866 1376.88733
1373.0 0.000728 1081.19763 1411.74011
1412.0 0.000708 1081.14783 1438.49170
1387.0 0.000721 1081.09937 1450.81555
1381.0 0.000724 1081.05225 1444.82056
1416.0 0.000706 1081.00635 1421.54053
1299.0 0.000770 1080.96191 1386.16516
1301.0 0.000769 1080.91870 1344.99939
1315.0 0.000760 1080.87683 1303.16418
1223.0 0.000818 1080.83630 1264.04199
1272.0 0.000786 1080.79700 1229.51038
1177.0 0.000850 1080.75916 1200.48108
1158.0 0.000864 1080.72253 1177.10583
1178.0 0.000849 1080.68726 1158.99902
1190.0 0.000840 1080.65320 1145.43994
1110.0 0.000901 1080.62061 1135.58984
1115.0 0.000897 1080.58923 1128.58191
1140.0 0.000877 1080.55920 1123.70422
1142.0 0.000876 1080.53040 1120.34814
1087.0 0.000920 1080.50305 1118.04492
1149.0 0.000870 1080.47681 1116.42126
1169.0 0.000855 1080.45203 1115.15894
1157.0 0.000864 1080.42847 1113.97424
1135.0 0.000881 1080.40625 1112.66870
1076.0 0.000929 1080.38525 1111.15320
1164.0 0.000859 1080.36548 1109.47546
1119.0 0.000894 1080.34717 1107.75635
1082.0 0.000924 1080.32996 1106.11450
1107.0 0.000903 1080.31409 1104.63782
1098.0 0.000911 1080.29944 1102.12903
1091.0 0.000917 1080.28601 1101.13940
1078.0 0.000928 1080.27393 1100.41113
1134.0 0.000882 1080.26306 1099.94604
1068.0 0.000936 1080.25342 1099.74585
1127.0 0.000887 1080.24487 1099.81433
1114.0 0.000898 1080.23767 1100.16052
1060.0 0.000943 1080.23169 1100.80078
1068.0 0.000936 1080.22693 1101.76294
1120.0 0.000893 1080.22327 1103.06067
1164.0 0.000859 1080.22083 1104.71619
1111.0 0.000900 1080.21960 1106.74048
1096.0 0.000912 1080.21948 1109.13342
1130.0 0.000885 1080.22058 1111.90320
1163.0 0.000860 1080.22278 1115.05542
1096.0 0.000912 1080.22620 1118.63159
1114.0 0.000898 1080.23059 1122.76233
1137.0 0.000880 1080.23621 1127.75842
1157.0 0.000864 1080.24292 1134.16199
1196.0 0.000836 1080.25073 1142.62561
1173.0 0.000853 1080.25964 1153.79370
1149.0 0.000870 1080.26965 1168.09509
1168.0 0.000856 1080.28064 1185.62109
1182.0 0.000846 1080.29272 1205.98645
1205.0 0.000830 1080.30579 1228.17627
1264.0 0.000791 1080.31995 1250.35303
1222.0 0.000818 1080.33508 1267.50781
1246.0 0.000803 1080.35120 1281.03931
1294.0 0.000773 1080.36841 1285.45947
1329.0 0.000752 1080.38647 1280.31921
1287.0 0.000777 1080.40552 1267.37805
1274.0 0.000785 1080.42554 1249.66724
1204.0 0.000831 1080.44653 1230.01428
1236.0 0.000809 1080.46838 1210.42322
1191.0 0.000840 1080.49109 1192.08289
1223.0 0.000818 1080.51477 1175.70776
1113.0 0.000898 1080.53931 1161.81335
1166.0 0.000858 1080.56470 1150.76160
1135.0 0.000881 1080.59094 1142.69434
1141.0 0.000876 1080.61804 1137.56311
1148.0 0.000871 1080.64587 1135.15674
1162.0 0.000861 1080.67456 1135.15808
1084.0 0.000923 1080.70398 1137.15662
1116.0 0.000896 1080.73425 1140.64624
1114.0 0.000898 1080.76526 1144.97449
1129.0 0.000886 1080.79688 1149.25415
1151.0 0.000869 1080.82935 1152.51099
1148.0 0.000871 1080.86243 1153.87610
1156.0 0.000865 1080.89624 1152.96948
1101.0 0.000908 1080.93079 1150.06775
1147.0 0.000872 1080.96582 1145.91138
1176.0 0.000850 1081.00159 1141.39355
1152.0 0.000868 1081.03796 1137.36914
1134.0 0.000882 1081.07495 1134.57898
1106.0 0.000904 1081.11255 1133.64551
1133.0 0.000883 1081.15063 1135.15002
1185.0 0.000844 1081.18921 1139.63062
1162.0 0.000861 1081.22839 1147.58435
1200.0 0.000833 1081.26819 1159.42432
1195.0 0.000837 1081.30823 1175.45337
1191.0 0.000840 1081.34888 1195.51135
1242.0 0.000805 1081.39001 1219.30981
1247.0 0.000802 1081.43152 1245.50793
1278.0 0.000782 1081.47351 1272.36206
1199.0 0.000834 1081.51587 1297.07349
1300.0 0.000769 1081.55859 1316.05090
1269.0 0.000788 1081.60168 1325.68469
1314.0 0.000761 1081.64514 1323.89050
1309.0 0.000764 1081.68884 1311.40784
1340.0 0.000746 1081.73291 1291.46204
1258.0 0.000795 1081.77722 1268.08777
1305.0 0.000766 1081.82190 1244.70898
1161.0 0.000861 1081.86670 1223.39343
1235.0 0.000810 1081.91187 1205.95166
1191.0 0.000840 1081.95715 1192.61670
1130.0 0.000885 1082.00256 1183.32288
1185.0 0.000844 1082.04822 1177.67981
1144.0 0.000874 1082.09399 1175.09143
1163.0 0.000860 1082.14001 1174.73315
1130.0 0.000885 1082.18604 1175.49475
1192.0 0.000839 1082.23218 1176.01758
1182.0 0.000846 1082.27832 1174.98621
1160.0 0.000862 1082.32458 1171.61951
1120.0 0.000893 1082.37097 1165.97168
1148.0 0.000871 1082.41724 1158.71606
1142.0 0.000876 1082.46362 1150.69751
1140.0 0.000877 1082.50989 1142.61768
1147.0 0.000872 1082.55615 1135.02551
1128.0 0.000887 1082.60229 1128.33960
1125.0 0.000889 1082.64844 1122.83594
1109.0 0.000902 1082.69446 1118.64160
1137.0 0.000880 1082.74036 1115.73865
1068.0 0.000936 1082.78613 1113.99548
1109.0 0.000902 1082.83179 1113.19739
1168.0 0.000856 1082.87720 1113.05627
1178.0 0.000849 1082.92249 1113.22046
1071.0 0.000934 1082.96753 1113.31824
1061.0 0.000943 1083.01233 1112.97766
1086.0 0.000921 1083.05688 1112.02502
1132.0 0.000883 1083.10120 1110.60767
1150.0 0.000870 1083.14526 1108.95459
1126.0 0.000888 1083.18896 1107.36560
1096.0 0.000912 1083.23230 1106.09729
1100.0 0.000909 1083.27539 1105.33228
1103.0 0.000907 1083.31812 1105.18652
1125.0 0.000889 1083.36047 1105.70837
1127.0 0.000887 1083.40247 1106.59363
1093.0 0.000915 1083.44397 1108.32251
1171.0 0.000854 1083.48511 1110.43921
1124.0 0.000890 1083.52576 1112.65100
1104.0 0.000906 1083.56604 1114.59949
1090.0 0.000917 1083.60583 1115.89392
1074.0 0.000931 1083.64502 1116.25989
1176.0 0.000850 1083.68384 1115.69849
1165.0 0.000858 1083.72205 1114.42358
1151.0 0.000869 1083.75977 1112.72192
1105.0 0.000905 1083.79688 1110.80676
1117.0 0.000895 1083.83350 1108.78174
1079.0 0.000927 1083.86951 1106.69482
1157.0 0.000864 1083.90491 1104.58545
1115.0 0.000897 1083.93970 1102.54944
1098.0 0.000911 1083.97375 1100.68750
1131.0 0.000884 1084.00732 1099.07153
1097.0 0.000912 1084.04016 1097.73523
1109.0 0.000902 1084.07227 1096.68530
1054.0 0.000949 1084.10376 1095.90161
1038.0 0.000963 1084.13452 1095.35645
1051.0 0.000951 1084.16467 1095.08459
1091.0 0.000917 1084.19397 1094.96753
1122.0 0.000891 1084.22253 1095.03210
1149.0 0.000870 1084.25037 1095.26440
1166.0 0.000858 1084.27747 1095.65649
1103.0 0.000907 1084.30371 1096.20581
1108.0 0.000903 1084.32922 1096.90894
1119.0 0.000894 1084.35388 1097.76367
1074.0 0.000931 1084.37769 1098.76501
1086.0 0.000921 1084.40076 1099.89880
1131.0 0.000884 1084.42297 1102.28455
1092.0 0.000916 1084.44421 1103.62610
1108.0 0.000903 1084.46472 1105.01831
1160.0 0.000862 1084.48438 1106.46411
1154.0 0.000867 1084.50305 1108.02161
1118.0 0.000894 1084.52087 1109.81140
1140.0 0.000877 1084.53784 1112.00354
1128.0 0.000887 1084.55383 1114.80322
1088.0 0.000919 1084.56885 1118.45178
1121.0 0.000892 1084.58301 1123.24390
1109.0 0.000902 1084.59631 1129.51892
1158.0 0.000864 1084.60852 1137.66663
1202.0 0.000832 1084.61987 1148.13220
1147.0 0.000872 1084.63013 1161.38135
1141.0 0.000876 1084.63953 1177.88770
1237.0 0.000808 1084.64795 1197.99524
1204.0 0.000831 1084.65540 1221.72241
1246.0 0.000803 1084.66174 1248.55090
1276.0 0.000784 1084.66724 1277.21362
1291.0 0.000775 1084.67163 1305.46741
1320.0 0.000758 1084.67493 1329.98181
1383.0 0.000723 1084.67737 1346.72522
1342.0 0.000745 1084.67871 1352.12830
1352.0 0.000740 1084.67896 1345.43860
1348.0 0.000742 1084.67834 1328.39099
1297.0 0.000771 1084.67651 1304.66919
1313.0 0.000762 1084.67383 1278.01099
1213.0 0.000824 1084.66992 1251.35278
1198.0 0.000835 1084.66504 1226.72754
1195.0 0.000837 1084.65918 1205.38953
1165.0 0.000858 1084.65210 1188.00488
1152.0 0.000868 1084.64404 1174.64734
1168.0 0.000856 1084.63501 1165.00134
1149.0 0.000870 1084.62476 1158.51416
1162.0 0.000861 1084.61353 1154.52576
1153.0 0.000867 1084.60120 1153.32678
1120.0 0.000893 1084.58789 1152.20972
1190.0 0.000840 1084.57349 1151.47449
1143.0 0.000875 1084.55798 1150.59644
1137.0 0.000880 1084.54138 1149.31409
1101.0 0.000908 1084.52380 1147.68286
1164.0 0.000859 1084.50500 1146.04614
1130.0 0.000885 1084.48523 1144.90137
1162.0 0.000861 1084.46448 1144.91919
1115.0 0.000897 1084.44250 1146.61084
1150.0 0.000870 1084.41956 1150.46667
1149.0 0.000870 1084.39551 1156.86060
1187.0 0.000842 1084.37036 1166.05420
1177.0 0.000850 1084.34424 1178.17285
1202.0 0.000832 1084.31714 1193.17688
1201.0 0.000833 1084.28882 1210.77881
1272.0 0.000786 1084.25952 1230.28113
1261.0 0.000793 1084.22913 1252.12390
1296.0 0.000772 1084.19775 1270.92371
1288.0 0.000776 1084.16528 1285.88818
1274.0 0.000785 1084.13184 1294.48828
1293.0 0.000773 1084.09741 1294.87134
1288.0 0.000776 1084.06189 1286.65588
1274.0 0.000785 1084.02527 1271.14807
1205.0 0.000830 1083.98779 1250.86572
1217.0 0.000822 1083.94922 1228.56921
1160.0 0.000862 1083.90967 1206.26306
1163.0 0.000860 1083.86902 1185.81348
1184.0 0.000845 1083.82751 1167.87024
1161.0 0.000861 1083.78491 1152.78638
1181.0 0.000847 1083.74146 1140.56494
1089.0 0.000918 1083.69702 1130.97522
1066.0 0.000938 1083.65149 1123.65222
1168.0 0.000856 1083.60510 1118.17749
1042.0 0.000960 1083.55774 1114.14441
1149.0 0.000870 1083.50952 1111.18347
1097.0 0.000912 1083.46033 1109.02734
1129.0 0.000886 1083.41016 1107.44812
1123.0 0.000890 1083.35913 1106.28967
1130.0 0.000885 1083.30725 1105.44861
1114.0 0.000898 1083.25439 1104.94006
1087.0 0.000920 1083.20068 1104.51587
1098.0 0.000911 1083.14612 1104.34595
1065.0 0.000939 1083.09058 1104.37109
1091.0 0.000917 1083.03430 1104.59631
1104.0 0.000906 1082.97717 1105.02380
1065.0 0.000939 1082.91919 1105.67847
1073.0 0.000932 1082.86035 1106.55701
1117.0 0.000895 1082.80078 1107.66248
1110.0 0.000901 1082.74036 1108.99426
1070.0 0.000935 1082.67908 1110.54639
1168.0 0.000856 1082.61707 1112.29822
1077.0 0.000929 1082.55432 1114.19189
1151.0 0.000869 1082.49084 1116.11267
1102.0 0.000907 1082.42651 1117.87488
1110.0 0.000901 1082.36157 1119.23633
1151.0 0.000869 1082.29590 1119.97388
1136.0 0.000880 1082.22937 1119.98486
1115.0 0.000897 1082.16235 1119.40747
1112.0 0.000899 1082.09448 1118.48071
1080.0 0.000926 1082.02600 1117.48962
1059.0 0.000944 1081.95691 1116.66296
1091.0 0.000917 1081.88721 1116.14563
1096.0 0.000912 1081.81677 1116.00574
1172.0 0.000853 1081.74573 1116.25610
1144.0 0.000874 1081.67419 1116.78906
1176.0 0.000850 1081.60193 1117.49170
1095.0 0.000913 1081.52917 1118.19739
1221.0 0.000819 1081.45581 1118.76355
1047.0 0.000955 1081.38196 1119.14270
1166.0 0.000858 1081.30750 1119.40417
1132.0 0.000883 1081.23267 1119.67505
1131.0 0.000884 1081.15710 1120.15515
1156.0 0.000865 1081.08118 1120.95667
1132.0 0.000883 1081.00476 1122.17603
1111.0 0.000900 1080.92786 1124.04431
1103.0 0.000907 1080.85059 1126.24072
1131.0 0.000884 1080.77271 1128.93347
1175.0 0.000851 1080.69458 1132.11450
1102.0 0.000907 1080.61597 1135.82483
1179.0 0.000848 1080.53699 1140.11316
1170.0 0.000855 1080.45764 1145.01147
1147.0 0.000872 1080.37781 1150.46204
1134.0 0.000882 1080.29773 1156.26208
1207.0 0.000829 1080.21729 1162.02478
1122.0 0.000891 1080.13660 1167.17908
1188.0 0.000842 1080.05554 1171.07764
1222.0 0.000818 1079.97412 1173.23389
1219.0 0.000820 1079.89258 1173.59644
1182.0 0.000846 1079.81067 1172.58972
1154.0 0.000867 1079.72852 1170.89453
1142.0 0.000876 1079.64612 1169.17896
1166.0 0.000858 1079.56348 1167.97693
1190.0 0.000840 1079.48071 1168.47168
1170.0 0.000855 1079.39771 1169.34143
1173.0 0.000853 1079.31458 1171.57397
1189.0 0.000841 1079.23120 1175.34692
1150.0 0.000870 1079.14771 1180.87207
1183.0 0.000845 1079.06409 1188.46057
1209.0 0.000827 1078.98035 1198.59143
1211.0 0.000826 1078.89648 1212.01587
1245.0 0.000803 1078.81262 1229.81531
1252.0 0.000799 1078.72852 1253.53650
1314.0 0.000761 1078.64453 1285.23572
1380.0 0.000725 1078.56030 1327.48413
1420.0 0.000704 1078.47620 1383.21973
1530.0 0.000654 1078.39197 1455.41992
1553.0 0.000644 1078.30774 1546.61890
1795.0 0.000557 1078.22351 1658.30481
1796.0 0.000557 1078.13928 1790.23938
1934.0 0.000517 1078.05518 1939.73914
2048.0 0.000488 1077.97095 2100.75659
2203.0 0.000454 1077.88696 2262.85742
2330.0 0.000429 1077.80298 2410.29614
2343.0 0.000427 1077.71899 2522.72168
2537.0 0.000394 1077.63513 2579.68286
2650.0 0.000377 1077.55139 2569.04321
2498.0 0.000400 1077.46777 2493.62695
2447.0 0.000409 1077.38428 2369.57983
2246.0 0.000445 1077.30090 2217.94214
2134.0 0.000469 1077.21765 2058.19775
1989.0 0.000503 1077.13464 1903.94385
1847.0 0.000541 1077.05176 1763.94800
1674.0 0.000597 1076.96899 1642.94202
1580.0 0.000633 1076.88660 1542.66187
1458.0 0.000686 1076.80420 1462.60242
1412.0 0.000708 1076.72217 1400.79382
1298.0 0.000770 1076.64026 1354.46790
1314.0 0.000761 1076.55872 1320.66125
1326.0 0.000754 1076.47729 1296.64807
1310.0 0.000763 1076.39624 1280.20618
1302.0 0.000768 1076.31543 1269.65698
1283.0 0.000779 1076.23486 1263.85950
1298.0 0.000770 1076.15454 1262.19360
1268.0 0.000789 1076.07458 1264.49695
1276.0 0.000784 1075.99487 1271.11584
1258.0 0.000795 1075.91553 1282.80872
1285.0 0.000778 1075.83655 1300.85986
1334.0 0.000750 1075.75781 1326.98596
1305.0 0.000766 1075.67944 1363.31372
1305.0 0.000766 1075.60144 1412.21057
1405.0 0.000712 1075.52368 1476.01318
1548.0 0.000646 1075.44641 1556.64124
1663.0 0.000601 1075.36951 1655.11475
1744.0 0.000573 1075.29297 1771.00452
1899.0 0.000527 1075.21667 1901.81628
2103.0 0.000476 1075.14099 2042.29517
2204.0 0.000454 1075.06555 2183.53491
2338.0 0.000428 1074.99060 2312.35718
2501.0 0.000400 1074.91602 2412.07788
2526.0 0.000396 1074.84192 2466.51099
2512.0 0.000398 1074.76819 2466.89917
2460.0 0.000407 1074.69482 2417.38135
2349.0 0.000426 1074.62195 2332.97021
2305.0 0.000434 1074.54956 2233.69702
2116.0 0.000473 1074.47754 2137.94824
1973.0 0.000507 1074.40601 2060.64404
1896.0 0.000527 1074.33484 2013.06592
1910.0 0.000524 1074.26428 2003.35852
1918.0 0.000521 1074.19409 2036.81079
1923.0 0.000520 1074.12439 2115.72583
2197.0 0.000455 1074.05518 2239.23169
2372.0 0.000422 1073.98633 2402.76172
2652.0 0.000377 1073.91809 2597.39771
2799.0 0.000357 1073.85022 2808.84253
3078.0 0.0003249 1073.78296 3016.18604
3315.0 0.0003017 1073.71606 3191.61328
3392.0 0.0002948 1073.64966 3303.97852
3411.0 0.0002932 1073.58374 3328.20605
3169.0 0.0003156 1073.51843 3256.77100
3152.0 0.0003173 1073.45349 3103.39453
2730.0 0.000366 1073.38916 2895.20239
2564.0 0.000390 1073.32520 2660.98047
2337.0 0.000428 1073.26184 2423.99707
2142.0 0.000467 1073.19885 2200.33838
2038.0 0.000491 1073.13647 1999.86377
1790.0 0.000559 1073.07458 1827.61487
1649.0 0.000606 1073.01318 1685.02478
1570.0 0.000637 1072.95227 1570.93970
1454.0 0.000688 1072.89185 1482.52734
1424.0 0.000702 1072.83191 1416.07422
1386.0 0.000722 1072.77258 1367.64697
1371.0 0.000729 1072.71362 1333.53198
1268.0 0.000789 1072.65527 1310.48669
1297.0 0.000771 1072.59729 1295.80835
1269.0 0.000788 1072.53992 1287.27271
1277.0 0.000783 1072.48303 1282.98474
1272.0 0.000786 1072.42664 1281.20679
1307.0 0.000765 1072.37073 1280.17810
1300.0 0.000769 1072.31531 1278.17688
1314.0 0.000761 1072.26038 1273.65942
1253.0 0.000798 1072.20593 1265.79028
1276.0 0.000784 1072.15210 1254.72449
1248.0 0.000801 1072.09863 1241.41089
1269.0 0.000788 1072.04565 1227.06152
1286.0 0.000778 1071.99316 1212.76147
1257.0 0.000796 1071.94116 1199.29077
1167.0 0.000857 1071.88977 1187.13855
1177.0 0.000850 1071.83862 1176.56641
1149.0 0.000870 1071.78809 1167.66833
1193.0 0.000838 1071.73804 1160.40820
1173.0 0.000853 1071.68848 1154.70166
1171.0 0.000854 1071.63928 1150.39661
1145.0 0.000873 1071.59070 1147.34363
1102.0 0.000907 1071.54248 1145.40454
1175.0 0.000851 1071.49475 1144.47095
1097.0 0.000912 1071.44751 1144.46472
1119.0 0.000894 1071.40063 1145.34058
1140.0 0.000877 1071.35425 1147.06689
1209.0 0.000827 1071.30835 1149.64148
1164.0 0.000859 1071.26294 1153.09277
1176.0 0.000850 1071.21790 1157.38843
1166.0 0.000858 1071.17334 1162.93542
1193.0 0.000838 1071.12915 1169.00085
1133.0 0.000883 1071.08545 1176.02942
1193.0 0.000838 1071.04224 1184.23267
1122.0 0.000891 1070.99927 1194.00647
1173.0 0.000853 1070.95691 1205.86365
1148.0 0.000871 1070.91492 1220.27405
1277.0 0.000783 1070.87329 1237.42285
1300.0 0.000769 1070.83215 1257.17859
1343.0 0.000745 1070.79138 1278.91406
1323.0 0.000756 1070.75110 1301.42200
1363.0 0.000734 1070.71106 1322.82629
1409.0 0.000710 1070.67163 1340.68982
1399.0 0.000715 1070.63245 1352.56750
1380.0 0.000725 1070.59363 1357.04260
1343.0 0.000745 1070.55542 1354.63501
1302.0 0.000768 1070.51746 1347.81287
1354.0 0.000739 1070.47986 1340.11743
1346.0 0.000743 1070.44263 1335.23022
1284.0 0.000779 1070.40588 1336.49963
1340.0 0.000746 1070.36938 1346.82886
1384.0 0.000723 1070.33337 1368.65344
1384.0 0.000723 1070.29773 1403.86267
1375.0 0.000727 1070.26245 1453.62073
1472.0 0.000679 1070.22754 1518.12683
1568.0 0.000638 1070.19299 1596.31799
1731.0 0.000578 1070.15881 1685.52502
1791.0 0.000558 1070.12500 1781.44836
1859.0 0.000538 1070.09155 1875.88977
2050.0 0.000488 1070.05835 1959.06140
2123.0 0.000471 1070.02563 2018.71094
2014.0 0.000497 1069.99329 2043.61084
1977.0 0.000506 1069.96118 2028.17761
1915.0 0.000522 1069.92957 1975.32715
1866.0 0.000536 1069.89819 1894.83801
1724.0 0.000580 1069.86719 1798.83264
1617.0 0.000618 1069.83655 1697.98328
1510.0 0.000662 1069.80627 1600.09888
1481.0 0.000675 1069.77637 1510.19360
1442.0 0.000693 1069.74683 1431.07861
1288.0 0.000776 1069.71753 1363.91907
1262.0 0.000792 1069.68860 1308.64404
1248.0 0.000801 1069.66003 1264.44531
1155.0 0.000866 1069.63184 1229.89917
1140.0 0.000877 1069.60388 1203.37891
1212.0 0.000825 1069.57642 1183.24927
1160.0 0.000862 1069.54919 1168.02307
1099.0 0.000910 1069.52234 1156.43884
1168.0 0.000856 1069.49585 1147.48364
1185.0 0.000844 1069.46973 1140.37341
1102.0 0.000907 1069.44385 1134.53027
1116.0 0.000896 1069.41846 1129.55261
1153.0 0.000867 1069.39331 1125.18335
1128.0 0.000887 1069.36853 1121.28479
1116.0 0.000896 1069.34412 1116.65295
1177.0 0.000850 1069.31995 1113.53589
1103.0 0.000907 1069.29626 1110.76404
1079.0 0.000927 1069.27283 1108.36963
1048.0 0.000954 1069.24988 1106.24463
1127.0 0.000887 1069.22717 1104.42517
1086.0 0.000921 1069.20483 1102.90088
1084.0 0.000923 1069.18286 1101.66003
1141.0 0.000876 1069.16138 1100.69128
1086.0 0.000921 1069.14001 1099.97925
1061.0 0.000943 1069.11914 1099.50500
1056.0 0.000947 1069.09875 1099.23535
1157.0 0.000864 1069.07861 1099.13770
1080.0 0.000926 1069.05884 1099.15796
1102.0 0.000907 1069.03943 1099.22168
1165.0 0.000858 1069.02039 1099.25122
1123.0 0.000890 1069.00183 1099.18774
1104.0 0.000906 1068.98352 1098.99866
1152.0 0.000868 1068.96570 1098.67383
1083.0 0.000923 1068.94824 1098.20251
1184.0 0.000845 1068.93115 1097.56335
1080.0 0.000926 1068.91443 1096.73474
1121.0 0.000892 1068.89819 1095.72705
1140.0 0.000877 1068.88232 1094.59131
1193.0 0.000838 1068.86682 1093.40771
1135.0 0.000881 1068.85181 1092.26099
1130.0 0.000885 1068.83716 1091.22241
1090.0 0.000917 1068.82288 1090.34229
1100.0 0.000909 1068.80908 1089.65881
1056.0 0.000947 1068.79578 1089.19946
1091.0 0.000917 1068.78271 1088.98816
1155.0 0.000866 1068.77026 1089.04480
1080.0 0.000926 1068.75806 1089.39038
1117.0 0.000895 1068.74646 1090.04163
1157.0 0.000864 1068.73523 1091.01001
1119.0 0.000894 1068.72437 1091.30774
1086.0 0.000921 1068.71411 1092.91748
1122.0 0.000891 1068.70410 1094.80530
1116.0 0.000896 1068.69470 1096.92114
1061.0 0.000943 1068.68579 1099.28711
1091.0 0.000917 1068.67725 1101.60864
1112.0 0.000899 1068.66907 1103.82703
1114.0 0.000898 1068.66150 1105.77417
1109.0 0.000902 1068.65442 1107.20386
1129.0 0.000886 1068.64771 1108.03320
1107.0 0.000903 1068.64148 1108.28589
1082.0 0.000924 1068.63574 1108.09338
1030.0 0.000971 1068.63049 1107.60083
1112.0 0.000899 1068.62573 1106.90662
1145.0 0.000873 1068.62134 1106.04871
1044.0 0.000958 1068.61755 1105.00757
1085.0 0.000922 1068.61414 1103.83032
1072.0 0.000933 1068.61133 1100.75647
1119.0 0.000894 1068.60889 1099.36145
1120.0 0.000893 1068.60706 1097.92322
1093.0 0.000915 1068.60559 1096.45496
1138.0 0.000879 1068.60461 1094.98779
1088.0 0.000919 1068.60413 1093.53992
1034.0 0.000967 1068.60413 1092.18323
1180.0 0.000847 1068.60461 1090.96912
1171.0 0.000854 1068.60559 1089.94995
1067.0 0.000937 1068.60706 1089.16089
1159.0 0.000863 1068.60901 1088.59363
1049.0 0.000953 1068.61133 1088.25928
1040.0 0.000962 1068.61426 1088.16003
1101.0 0.000908 1068.61755 1088.29175
1102.0 0.000907 1068.62134 1088.64966
1100.0 0.000909 1068.62549 1089.23010
1139.0 0.000878 1068.63025 1090.03259
1061.0 0.000943 1068.63538 1091.05518
1074.0 0.000931 1068.64099 1092.30188
1078.0 0.000928 1068.64697 1093.76489
1164.0 0.000859 1068.65344 1095.44421
1086.0 0.000921 1068.66028 1097.33130
1100.0 0.000909 1068.66760 1099.41333
1092.0 0.000916 1068.67529 1101.59509
1108.0 0.000903 1068.68347 1104.02075
1075.0 0.000930 1068.69189 1106.63586
1102.0 0.000907 1068.70081 1109.49512
1106.0 0.000904 1068.71008 1112.78577
1164.0 0.000859 1068.71973 1116.79895
1095.0 0.000913 1068.72961 1121.93506
1107.0 0.000903 1068.73999 1128.69421
1142.0 0.000876 1068.75061 1137.66479
1165.0 0.000858 1068.76160 1149.50903
1176.0 0.000850 1068.77283 1164.93372
1194.0 0.000838 1068.78442 1184.63086
1197.0 0.000835 1068.79626 1209.19507
1282.0 0.000780 1068.80835 1239.00745
1355.0 0.000738 1068.82068 1274.10815
1312.0 0.000762 1068.83313 1314.05273
1338.0 0.000747 1068.84595 1357.75610
1454.0 0.000688 1068.85889 1403.30615
1456.0 0.000687 1068.87207 1447.77112
1495.0 0.000669 1068.88538 1487.11475
1613.0 0.000620 1068.89880 1516.52979
1568.0 0.000638 1068.91235 1531.54895
1591.0 0.000629 1068.92590 1529.72400
1576.0 0.000635 1068.93970 1512.22949
1502.0 0.000666 1068.95349 1481.71985
1462.0 0.000684 1068.96729 1443.41321
1460.0 0.000685 1068.98096 1401.72522
1370.0 0.000730 1068.99475 1360.05920
1335.0 0.000749 1069.00854 1320.78674
1286.0 0.000778 1069.02222 1285.48987
1187.0 0.000842 1069.03564 1255.16943
1229.0 0.000814 1069.04919 1230.37402
1221.0 0.000819 1069.06238 1211.29688
1227.0 0.000815 1069.07544 1197.90759
1156.0 0.000865 1069.08838 1190.08228
1118.0 0.000894 1069.10095 1187.54907
1131.0 0.000884 1069.11328 1190.66760
1129.0 0.000886 1069.12537 1199.40369
1173.0 0.000853 1069.13708 1214.00403
1185.0 0.000844 1069.14844 1234.72485
1241.0 0.000806 1069.15930 1261.71436
1286.0 0.000778 1069.16992 1294.85974
1330.0 0.000752 1069.17993 1333.62695
1372.0 0.000729 1069.18945 1376.88501
1386.0 0.000722 1069.19836 1422.68787
1441.0 0.000694 1069.20679 1468.04077
1502.0 0.000666 1069.21460 1508.74902
1560.0 0.000641 1069.22168 1539.67639
1577.0 0.000634 1069.22815 1555.80786
1568.0 0.000638 1069.23389 1554.03784
1562.0 0.000640 1069.23877 1534.61340
1519.0 0.000658 1069.24292 1501.00024
1467.0 0.000682 1069.24622 1458.28479
1382.0 0.000724 1069.24854 1410.65039
1342.0 0.000745 1069.25000 1363.63013
1240.0 0.000806 1069.25049 1319.13208
1194.0 0.000838 1069.24988 1278.82544
1274.0 0.000785 1069.24829 1243.58179
1218.0 0.000821 1069.24561 1213.69031
1209.0 0.000827 1069.24182 1188.98218
1148.0 0.000871 1069.23682 1169.04688
1120.0 0.000893 1069.23047 1153.31848
1078.0 0.000928 1069.22302 1141.15771
1070.0 0.000935 1069.21411 1131.94507
1132.0 0.000883 1069.20398 1125.13098
1141.0 0.000876 1069.19238 1120.26428
1129.0 0.000886 1069.17932 1116.99976
1103.0 0.000907 1069.16467 1115.09204
1144.0 0.000874 1069.14868 1114.36938
1109.0 0.000902 1069.13098 1114.71375
1158.0 0.000864 1069.11169 1116.02344
1067.0 0.000937 1069.09070 1118.19751
1091.0 0.000917 1069.06799 1121.10132
1112.0 0.000899 1069.04358 1124.56494
1136.0 0.000880 1069.01733 1128.34351
1154.0 0.000867 1068.98926 1132.08533
1080.0 0.000926 1068.95935 1135.33545
1131.0 0.000884 1068.92737 1137.54675
1113.0 0.000898 1068.89355 1138.20837
1136.0 0.000880 1068.85767 1137.02954
1090.0 0.000917 1068.81970 1134.07678
1145.0 0.000873 1068.77966 1129.73840
1137.0 0.000880 1068.73755 1124.55322
1150.0 0.000870 1068.69324 1119.03772
1053.0 0.000950 1068.64661 1113.59741
1157.0 0.000864 1068.59790 1108.51416
1088.0 0.000919 1068.54675 1103.96313
1147.0 0.000872 1068.49341 1100.03784
1151.0 0.000869 1068.43762 1096.76904
1131.0 0.000884 1068.37952 1094.14185
1125.0 0.000889 1068.31885 1092.10901
1152.0 0.000868 1068.25586 1090.60303
1065.0 0.000939 1068.19031 1089.55908
1079.0 0.000927 1068.12231 1088.90564
1114.0 0.000898 1068.05176 1088.57788
1082.0 0.000924 1067.97864 1088.52942
1086.0 0.000921 1067.90295 1088.71997
1105.0 0.000905 1067.82458 1089.14246
1067.0 0.000937 1067.74353 1089.80115
1129.0 0.000886 1067.65991 1090.73157
999.0 0.001001 1067.57361 1092.01404
1121.0 0.000892 1067.48462 1093.77649
1083.0 0.000923 1067.39282 1096.16602
1082.0 0.000924 1067.29846 1099.37073
1122.0 0.000891 1067.20129 1103.58154
1082.0 0.000924 1067.10132 1108.97668
1097.0 0.000912 1066.99878 1115.70020
1152.0 0.000868 1066.89331 1123.83228
1108.0 0.000903 1066.78516 1133.36719
1103.0 0.000907 1066.67419 1144.15601
1210.0 0.000826 1066.56055 1155.89441
1200.0 0.000833 1066.44409 1168.05713
1173.0 0.000853 1066.32507 1179.85791
1212.0 0.000825 1066.20313 1190.25818
1238.0 0.000808 1066.07861 1198.29639
1185.0 0.000844 1065.95142 1202.63440
1188.0 0.000842 1065.82141 1203.01721
1170.0 0.000855 1065.68884 1199.67700
1227.0 0.000815 1065.55359 1193.40356
1183.0 0.000845 1065.41577 1185.23364
1212.0 0.000825 1065.27527 1176.25049
1176.0 0.000850 1065.13232 1167.29321
1242.0 0.000805 1064.98694 1158.98145
1108.0 0.000903 1064.83899 1151.50562
1171.0 0.000854 1064.68872 1144.91919
1101.0 0.000908 1064.53601 1139.02283
1157.0 0.000864 1064.38110 1133.55566
1069.0 0.000935 1064.22375 1128.28503
1146.0 0.000873 1064.06433 1123.14673
1104.0 0.000906 1063.90271 1118.22559
1097.0 0.000912 1063.73901 1113.66357
1118.0 0.000894 1063.57324 1109.60339
1050.0 0.000952 1063.40564 1106.14319
1155.0 0.000866 1063.23621 1103.30835
1089.0 0.000918 1063.06482 1101.07776
1063.0 0.000941 1062.89185 1099.39465
1093.0 0.000915 1062.71729 1098.18079
1132.0 0.000883 1062.54114 1097.35217
1124.0 0.000890 1062.36365 1096.83337
1146.0 0.000873 1062.18481 1096.56091
1095.0 0.000913 1062.00488 1096.51111
1105.0 0.000905 1061.82361 1096.58459
1083.0 0.000923 1061.64148 1096.75757
1099.0 0.000910 1061.45850 1096.97546
1085.0 0.000922 1061.27466 1097.17993
1117.0 0.000895 1061.09021 1097.33972
1096.0 0.000912 1060.90540 1097.47168
1051.0 0.000951 1060.72009 1097.65686
1127.0 0.000887 1060.53455 1098.00867
1134.0 0.000882 1060.34900 1098.63745
1094.0 0.000914 1060.16333 1099.60388
1143.0 0.000875 1059.97803 1100.90344
1134.0 0.000882 1059.79297 1102.45105
1099.0 0.000910 1059.60852 1104.07788
1079.0 0.000927 1059.42468 1105.56287
1076.0 0.000929 1059.24170 1106.61768
1105.0 0.000905 1059.05969 1107.01257
1163.0 0.000860 1058.87891 1106.63770
1122.0 0.000891 1058.69946 1105.55469
1154.0 0.000867 1058.52148 1103.96973
1078.0 0.000928 1058.34534 1102.15662
1138.0 0.000879 1058.17102 1100.37354
1102.0 0.000907 1057.99890 1098.82996
1097.0 0.000912 1057.82898 1097.63306
1054.0 0.000949 1057.66150 1096.85962
1073.0 0.000932 1057.49683 1096.52795
1130.0 0.000885 1057.33496 1096.62537
1098.0 0.000911 1057.17615 1097.87830
1129.0 0.000886 1057.02075 1098.75244
1116.0 0.000896 1056.86877 1099.93469
1114.0 0.000898 1056.72058 1101.32141
1108.0 0.000903 1056.57629 1102.86084
1111.0 0.000900 1056.43616 1104.07617
1081.0 0.000925 1056.30042 1105.72046
1101.0 0.000908 1056.16931 1107.52368
1139.0 0.000878 1056.04297 1109.72876
1095.0 0.000913 1055.92175 1112.68689
1156.0 0.000865 1055.80566 1116.83411
1119.0 0.000894 1055.69519 1122.66577
1081.0 0.000925 1055.59033 1130.80457
1085.0 0.000922 1055.49158 1141.89575
1069.0 0.000935 1055.39893 1156.65674
1087.0 0.000920 1055.31274 1175.81946
1224.0 0.000817 1055.23315 1200.06238
1194.0 0.000838 1055.16040 1229.91931
1277.0 0.000783 1055.09473 1265.67151
1259.0 0.000794 1055.03638 1307.22119
1317.0 0.000759 1054.98560 1353.96436
1385.0 0.000722 1054.94250 1404.61890
1510.0 0.000662 1054.90747 1457.04138
1584.0 0.000631 1054.88062 1508.01672
1600.0 0.000625 1054.86218 1553.17310
1596.0 0.000627 1054.85229 1587.30933
1668.0 0.000600 1054.85132 1605.46521
1715.0 0.000583 1054.85925 1604.58594
1626.0 0.000615 1054.87646 1584.83289
1561.0 0.000641 1054.90308 1549.53955
1534.0 0.000652 1054.93933 1503.68262
1489.0 0.000672 1054.98535 1452.43005
1408.0 0.000710 1055.04138 1399.58923
1330.0 0.000752 1055.10754 1349.11841
1351.0 0.000740 1055.18396 1302.59717
1196.0 0.000836 1055.27087 1261.20764
1232.0 0.000812 1055.36829 1225.48267
1201.0 0.000833 1055.47656 1195.46753
1093.0 0.000915 1055.59570 1171.23169
1171.0 0.000854 1055.72583 1151.47156
1106.0 0.000904 1055.86707 1135.88440
1137.0 0.000880 1056.01953 1123.76160
1141.0 0.000876 1056.18335 1114.41699
1123.0 0.000890 1056.35840 1107.25037
1097.0 0.000912 1056.54504 1101.75415
1039.0 0.000962 1056.74316 1097.52869
1099.0 0.000910 1056.95288 1094.27014
1026.0 0.000975 1057.17407 1091.75977
1144.0 0.000874 1057.40686 1089.84448
1125.0 0.000889 1057.65137 1088.42456
1095.0 0.000913 1057.90735 1087.43945
1077.0 0.000929 1058.17493 1086.84277
1086.0 0.000921 1058.45398 1086.61316
1056.0 0.000947 1058.74463 1086.73193
1104.0 0.000906 1059.04639 1087.17908
1093.0 0.000915 1059.35938 1087.92493
1159.0 0.000863 1059.68372 1088.92908
1102.0 0.000907 1060.01892 1090.13062
1079.0 0.000927 1060.36511 1091.44128
1073.0 0.000932 1060.72180 1092.73987
1090.0 0.000917 1061.08911 1093.87671
1075.0 0.000930 1061.46643 1094.68909
1179.0 0.000848 1061.85400 1094.99756
1095.0 0.000913 1062.25110 1094.84729
1034.0 0.000967 1062.65759 1094.23828
1044.0 0.000958 1063.07336 1093.29651
1096.0 0.000912 1063.49780 1092.18005
1102.0 0.000907 1063.93079 1091.03113
1148.0 0.000871 1064.37170 1089.96057
1084.0 0.000923 1064.82031 1089.04333
1063.0 0.000941 1065.27600 1088.32397
1101.0 0.000908 1065.73853 1087.82202
1143.0 0.000875 1066.20715 1087.53589
1064.0 0.000940 1066.68140 1087.44763
1134.0 0.000882 1067.16089 1087.53259
1102.0 0.000907 1067.64478 1087.73022
1111.0 0.000900 1068.13281 1087.99475
1094.0 0.000914 1068.62390 1088.27393
1046.0 0.000956 1069.11792 1088.52478
1128.0 0.000887 1069.61353 1088.72620
1079.0 0.000927 1070.11047 1088.88586
1091.0 0.000917 1070.60791 1089.02869
1074.0 0.000931 1071.10486 1089.18420
1119.0 0.000894 1071.60083 1089.38367
1055.0 0.000948 1072.09460 1089.64893
1089.0 0.000918 1072.58557 1089.99719
1091.0 0.000917 1073.07251 1090.43835
1010.0 0.000990 1073.55505 1090.98987
1080.0 0.000926 1074.03149 1091.64282
1117.0 0.000895 1074.50122 1092.41138
1106.0 0.000904 1074.96326 1093.30188
1053.0 0.000950 1075.41638 1094.32312
1133.0 0.000883 1075.85974 1095.48682
1093.0 0.000915 1076.29175 1096.80627
1105.0 0.000905 1076.71179 1098.30176
1135.0 0.000881 1077.11829 1099.99585
1045.0 0.000957 1077.51038 1101.91882
1103.0 0.000907 1077.88647 1104.10583
1111.0 0.000900 1078.24548 1106.50781
1113.0 0.000898 1078.58618 1109.37512
1124.0 0.000890 1078.90723 1112.68347
1145.0 0.000873 1079.20740 1116.49463
1112.0 0.000899 1079.48499 1120.98035
1091.0 0.000917 1079.73914 1126.22607
1107.0 0.000903 1079.96814 1132.40002
1090.0 0.000917 1080.17078 1139.69910
1146.0 0.000873 1080.34546 1148.36658
1090.0 0.000917 1080.49097 1158.67627
1137.0 0.000880 1080.60583 1170.89490
1203.0 0.000831 1080.68848 1185.21838
1208.0 0.000828 1080.73767 1201.71729
1232.0 0.000812 1080.75183 1220.28528
1206.0 0.000829 1080.72961 1240.59961
1231.0 0.000812 1080.66956 1262.07117
1238.0 0.000808 1080.57031 1283.77820
1310.0 0.000763 1080.43042 1304.40259
1403.0 0.000713 1080.24841 1322.24463
1330.0 0.000752 1080.02307 1335.45337
1347.0 0.000742 1079.75305 1342.50366
1353.0 0.000739 1079.43677 1342.74951
1379.0 0.000725 1079.07336 1336.66052
1308.0 0.000765 1078.66125 1325.55408
1303.0 0.000767 1078.19958 1311.35986
1314.0 0.000761 1077.68689 1294.77966
1312.0 0.000762 1077.12207 1277.12744
1260.0 0.000794 1076.50439 1259.04541
1290.0 0.000775 1075.83252 1241.04077
1208.0 0.000828 1075.10608 1223.60999
1195.0 0.000837 1074.32361 1207.25146
1287.0 0.000777 1073.48511 1192.38708
1136.0 0.000880 1072.58948 1179.28760
1158.0 0.000864 1071.63611 1168.06274
1136.0 0.000880 1070.62512 1158.69312
1142.0 0.000876 1069.55554 1151.06250
1170.0 0.000855 1068.42810 1145.04285
1119.0 0.000894 1067.24182 1140.49158
1154.0 0.000867 1065.99792 1137.26233
1117.0 0.000895 1064.69568 1135.19263
1146.0 0.000873 1063.33655 1134.09802
1188.0 0.000842 1061.92078 1133.75732
1143.0 0.000875 1060.44873 1133.91016
1133.0 0.000883 1058.92261 1134.25647
1223.0 0.000818 1057.34253 1134.47888
1118.0 0.000894 1055.71130 1134.30017
1116.0 0.000896 1054.02954 1133.55530
1131.0 0.000884 1052.30054 1132.25195
1128.0 0.000887 1050.52539 1130.56775
1144.0 0.000874 1048.70813 1128.78955
1177.0 0.000850 1046.85120 1127.24719
1108.0 0.000903 1044.95703 1126.24805
1143.0 0.000875 1043.03088 1126.18311
1200.0 0.000833 1041.07544 1127.37170
1111.0 0.000900 1039.09644 1130.19629
1097.0 0.000912 1037.09753 1135.10205
1181.0 0.000847 1035.08545 1142.61633
1130.0 0.000885 1033.06519 1153.36169
1115.0 0.000897 1031.04236 1168.05994
1275.0 0.000784 1029.02515 1187.52466
1272.0 0.000786 1027.01953 1212.62622
1253.0 0.000798 1025.03491 1244.23584
1261.0 0.000793 1023.07813 1283.13611
1309.0 0.000764 1021.15991 1330.29150
1314.0 0.000761 1019.28845 1385.09778
1444.0 0.000693 1017.47565 1447.54138
1473.0 0.000679 1015.73199 1516.50146
1525.0 0.000656 1014.06866 1589.94067
1657.0 0.000604 1012.49957 1664.69666
1731.0 0.000578 1011.03705 1736.26648
1711.0 0.000584 1009.69653 1798.76538
1845.0 0.000542 1008.49219 1845.39136
1872.0 0.000534 1007.44104 1869.78027
1793.0 0.000558 1006.55939 1867.97522
1894.0 0.000528 1005.86615 1840.02869
1846.0 0.000542 1005.37994 1790.01062
1718.0 0.000582 1005.12103 1724.43237
1645.0 0.000608 1005.11102 1650.24036
1646.0 0.000608 1005.37250 1573.42908
1476.0 0.000678 1005.92896 1498.58044
1442.0 0.000693 1006.80621 1428.85315
1320.0 0.000758 1008.02979 1366.25562
1293.0 0.000773 1009.62793 1311.88611
1336.0 0.000749 1011.63074 1266.13574
1169.0 0.000855 1014.06763 1228.86340
1210.0 0.000826 1016.97272 1199.58118
1155.0 0.000866 1020.37799 1177.50024
1162.0 0.000861 1024.32166 1161.80078
1220.0 0.000820 1028.83826 1151.63733
1128.0 . . .
loop_
_refln_index_h
_refln_index_k
_refln_index_l
_pd_refln_phase_id
_refln_observed_status
_refln_F_squared_meas
_refln_F_squared_calc
_refln_phase_calc
_refln_d_spacing
_gsas_i100_meas
1 1 0 1 o 13096.425 13354.459 180.00 6.93338 16.46
1 0 1 2 o 24749.188 17505.010 135.00 5.89360 1.11
0 0 1 1 o 2232.998 2768.849 180.00 4.93889 0.36
2 0 0 1 o 1585.863 1989.761 0.00 4.90264 1.21
1 1 0 2 o 24210.322 10587.101 180.00 4.75735 0.37
1 0 2 2 o 2740.573 51.627 0.00 4.52296 0.09
1 1 1 2 o 14295.793 7697.939 -90.00 4.43320 0.36
1 1 1 1 o 29743.064 29769.127 0.00 4.02265 26.57
1 1 2 2 o 3943.603 1040.778 -180.00 3.75360 0.08
1 0 3 2 o 3920.994 3000.638 -135.00 3.48429 0.05
2 0 1 1 o 2189.666 2020.026 180.00 3.47944 1.68
2 2 0 1 o 1987.009 1837.640 0.00 3.46669 0.40
2 0 0 2 o 4448.762 4691.252 180.00 3.36395 0.03
2 1 1 1 o 90.818 71.556 0.00 3.27910 0.13
2 0 1 2 o 93225.55 105376.49 45.00 3.24329 1.26
3 1 0 1 o 16767.561 16882.627 0.00 3.10070 8.42
1 1 3 2 o 8210.476 8422.676 90.00 3.09399 0.08
0 0 4 2 o 427935.4 458248.9 180.00 3.05479 1.29
2 1 0 2 o 79343.06 37072.23 0.00 3.00881 1.07
2 0 2 2 o 30081.914 25048.729 90.00 2.94680 0.36
2 1 1 2 o 38051.63 37435.32 -47.04 2.92154 0.84
2 2 1 1 o 220173.31 219812.58 180.00 2.83747 100.00
1 0 4 2 o 3623.147 3853.427 -90.00 2.78150 0.03
2 1 2 2 o 108618.69 103680.03 90.95 2.69924 1.97
3 1 1 1 o 6571.271 6486.540 180.00 2.62606 4.41
2 0 3 2 o 104364.10 87401.92 -45.00 2.59371 0.91
1 1 4 2 o 5320.995 3903.245 0.00 2.57048 0.04
0 0 2 1 o 118282.26 120672.09 0.00 2.46945 9.61
4 0 0 1 o 138749.64 142202.78 0.00 2.45132 22.69
2 1 3 2 o 14279.741 14336.233 60.50 2.42010 0.20
3 2 1 1 o 5655.852 5004.375 0.00 2.38223 4.29
2 2 0 2 o 0.567 0.106 -180.00 2.37867 0.00
2 2 1 2 o 25.665 22.459 90.00 2.33485 0.00
1 1 2 1 o 5184.287 5094.622 180.00 2.32630 1.33
3 3 0 1 o 25015.254 26194.887 180.00 2.31113 3.57
1 0 5 2 o 42395.66 45716.27 -45.00 2.29699 0.29
2 0 4 2 o 22.419 40.647 0.00 2.26148 0.00
2 2 2 2 o 1771.826 2023.746 0.00 2.21660 0.01
3 0 1 2 o 15182.051 16757.342 135.00 2.20579 0.09
2 0 2 1 o 464.320 524.572 0.00 2.20547 0.15
4 0 1 1 o 8774.978 9094.417 180.00 2.19574 1.90
4 2 0 1 o 877.135 968.236 0.00 2.19253 0.27
1 1 5 2 o 3095.082 4732.307 90.00 2.17379 0.01
2 1 2 1 o 654.644 585.554 0.00 2.15171 0.41
2 1 4 2 o 20930.561 18645.410 -174.24 2.14362 0.27
4 1 1 1 o 2509.358 2186.107 0.00 2.14267 1.55
3 1 0 2 o 37315.47 32682.490 0.00 2.12755 0.22
3 0 2 2 o -52.069 308.519 0.00 2.10528 0.00
3 1 1 2 o 10480.364 11113.625 156.30 2.09602 0.12
3 3 1 1 o 2124.763 2364.295 0.00 2.09328 0.39
2 2 3 2 o 687.832 1071.515 -90.00 2.05405 0.00
2 2 2 1 o 9225.937 9016.107 0.00 2.01132 1.76
3 1 2 2 o 1054.493 1056.305 -119.50 2.00921 0.01
4 2 1 1 o 326.261 325.722 180.00 2.00394 0.18
2 0 5 2 o 36316.55 32103.996 -135.00 1.97716 0.19
3 0 3 2 o 6459.335 4101.209 -135.00 1.96453 0.03
1 0 6 2 o 373.773 389.586 180.00 1.94918 0.00
3 1 2 1 o 21286.223 20949.264 0.00 1.93169 8.88
5 1 0 1 o 5809.073 6230.603 180.00 1.92297 1.12
2 1 5 2 o 33544.828 36878.45 129.84 1.89695 0.31
3 1 3 2 o 5798.398 11437.958 -158.82 1.88578 0.03
2 2 4 2 o 59.114 432.458 0.00 1.87680 0.00
1 1 6 2 o 979.520 3659.477 0.00 1.87220 0.00
3 2 0 2 o 327.851 358.544 0.00 1.86599 0.00
3 2 1 2 o 91525.67 81856.82 41.94 1.84460 0.85
3 2 2 1 o 402.552 341.641 0.00 1.82819 0.18
4 3 1 1 o 300.638 392.098 180.00 1.82263 0.14
3 0 4 2 o 8433.851 9599.084 90.00 1.80778 0.04
5 1 1 1 o 22946.801 22559.348 0.00 1.79194 8.16
3 2 2 2 o 18145.537 16313.229 -92.71 1.78461 0.14
3 1 4 2 o 18352.750 18968.119 -166.01 1.74585 0.13
2 0 6 2 o 11542.783 11504.055 -90.00 1.74215 0.05
4 0 2 1 o 164112.70 164877.53 0.00 1.73972 28.89
4 4 0 1 o 155283.98 156371.83 0.00 1.73334 13.55
4 1 2 1 o 40.078 49.778 180.00 1.71296 0.02
5 2 1 1 o 79.224 95.749 180.00 1.70839 0.03
2 2 5 2 o 4714.402 6137.822 -90.00 1.70455 0.02
3 2 3 2 o 46303.09 47665.18 -45.57 1.69643 0.35
1 0 7 2 o 12.926 8.875 -135.00 1.68965 0.00
3 3 2 1 o 27723.279 26904.424 180.00 1.68741 4.53
2 1 6 2 o 85597.88 83434.61 -90.18 1.68652 0.64
4 0 0 2 o 215541.81 201361.20 180.00 1.68198 0.41
5 3 0 1 o 8358.695 7839.201 0.00 1.68159 1.28
4 0 1 2 o 23605.467 29817.195 -135.00 1.66627 0.08
3 0 5 2 o 8343.362 6722.453 -45.00 1.65234 0.03
0 0 3 1 o 5532.196 5925.587 180.00 1.64630 0.16
4 2 2 1 o 1317.846 1313.240 0.00 1.63955 0.48
1 1 7 2 o 11079.025 11138.133 -90.00 1.63876 0.03
4 4 1 1 o 3665.656 3849.431 180.00 1.63554 0.38
6 0 0 1 o 168.177 194.990 0.00 1.63421 0.02
4 1 0 2 o 3812.594 5633.850 0.00 1.63176 0.01
4 0 2 2 o 297.981 1464.061 -90.00 1.62165 0.00
4 1 1 2 o 2176.549 5144.997 -115.49 1.61740 0.01
3 1 5 2 o 2827.395 2891.276 -31.88 1.60466 0.02
1 1 3 1 o 9180.636 8949.088 0.00 1.60176 1.24
3 2 4 2 o 1656.457 1568.301 -140.90 1.59240 0.02
5 3 1 1 o 14738.597 14127.944 180.00 1.59185 4.22
3 3 0 2 o 27340.463 31545.242 -180.00 1.58578 0.04
4 1 2 2 o -46.661 83.750 123.07 1.57650 0.00
3 3 1 2 o 4399.841 2315.647 90.00 1.57260 0.02
2 0 3 1 o 552.927 417.176 180.00 1.56066 0.09
4 0 3 2 o 15538.540 17463.025 135.00 1.55464 0.05
6 0 1 1 o 1488.525 1465.651 180.00 1.55149 0.24
6 2 0 1 o 11557.339 11424.603 0.00 1.55035 1.43
2 0 7 2 o 84701.95 82627.87 135.00 1.54941 0.27
2 2 6 2 o 26845.633 23801.754 -180.00 1.54700 0.09
2 1 3 1 o 98.446 118.185 0.00 1.54126 0.03
4 3 2 1 o -0.599 22.812 0.00 1.53572 0.00
3 3 2 2 o 114.230 263.217 -180.00 1.53492 0.00
6 1 1 1 o 131.154 90.585 180.00 1.53242 0.04
0 0 8 2 o 167033.30 180300.30 0.00 1.52739 0.13
5 1 2 1 o 290.475 324.936 180.00 1.51722 0.03
4 1 3 2 o 1984.831 3024.527 76.35 1.51472 0.01
2 1 7 2 o 4178.850 5635.733 -119.49 1.50989 0.02
3 0 6 2 o 532.276 695.058 0.00 1.50765 0.00
4 2 0 2 o 2151.412 2624.641 0.00 1.50441 0.01
4 2 1 2 o 36240.70 38553.91 -47.22 1.49313 0.22
1 0 8 2 o 7488.444 7129.640 90.00 1.48949 0.02
2 2 3 1 o 118318.63 117115.03 180.00 1.48713 15.56
3 2 5 2 o 62510.21 61897.85 -134.31 1.48309 0.38
6 2 1 1 o 104287.54 103714.94 180.00 1.47918 27.03
3 3 3 2 o 2738.941 2688.541 -90.00 1.47773 0.01
4 0 4 2 o 145121.38 142355.92 0.00 1.47340 0.43
3 1 6 2 o 3166.798 2926.542 6.76 1.47117 0.02
5 2 2 1 o 227.339 212.544 0.00 1.46550 0.07
5 4 1 1 o 27.338 30.066 180.00 1.46264 0.01
4 2 2 2 o 5177.942 6553.255 82.43 1.46077 0.03
1 1 8 2 o 622.596 628.329 180.00 1.45428 0.00
3 1 3 1 o 7196.411 7348.708 180.00 1.45406 1.69
4 1 4 2 o 10800.830 10084.553 -154.83 1.43929 0.06
4 4 2 1 o 90816.50 89611.69 0.00 1.41873 10.89
4 2 3 2 o 45250.05 43494.91 51.72 1.41122 0.25
3 2 3 1 o 643.830 620.105 180.00 1.40834 0.19
3 3 4 2 o 22625.943 22799.604 0.00 1.40744 0.06
2 2 7 2 o 122.213 125.121 90.00 1.40731 0.00
6 3 1 1 o 0.117 0.096 0.00 1.40159 0.00
2 0 8 2 o 710.980 685.838 -180.00 1.39075 0.00
5 3 2 1 o 3381.578 3254.965 0.00 1.38993 0.66
5 5 0 1 o 2153.215 2170.280 0.00 1.38668 0.21
7 1 0 1 o 11278.813 11328.201 0.00 1.38668 1.21
4 0 5 2 o 16422.410 16757.971 45.00 1.38553 0.04
3 0 7 2 o 487.386 645.244 45.00 1.37749 0.00
3 2 6 2 o 10574.605 11043.011 88.13 1.37580 0.05
4 0 3 1 o 1388.677 1367.430 180.00 1.36668 0.09
6 0 2 1 o 58.219 87.801 180.00 1.36282 0.01
2 1 8 2 o 9176.583 11682.807 2.16 1.36196 0.05
6 4 0 1 o 89.834 62.665 0.00 1.35975 0.02
4 1 5 2 o 11195.171 9724.087 39.94 1.35705 0.06
4 1 3 1 o 857.961 877.974 180.00 1.35360 0.24
6 1 2 1 o 209.563 185.081 180.00 1.34984 0.06
4 2 4 2 o 5041.619 4571.265 128.48 1.34962 0.03
3 1 7 2 o 8750.391 8071.116 17.25 1.34950 0.04
4 3 0 2 o 1730.798 2638.660 0.00 1.34558 0.00
3 3 3 1 o 575.318 647.986 0.00 1.34088 0.03
4 3 1 2 o 6389.802 6445.354 173.38 1.33750 0.03
5 0 1 2 o 9072.193 9143.145 -45.00 1.33750 0.02
7 1 1 1 o 1836.296 1873.698 180.00 1.33505 0.32
5 5 1 1 o 26897.877 27597.404 0.00 1.33505 2.97
1 0 9 2 o 15887.061 13601.941 135.00 1.33086 0.04
3 3 5 2 o 0.509 0.471 90.01 1.33026 0.00
5 1 0 2 o 1609.896 1281.609 0.00 1.31945 0.00
4 2 3 1 o 180.114 144.021 180.00 1.31649 0.05
4 3 2 2 o 80.529 75.906 -63.22 1.31409 0.00
5 0 2 2 o 182.484 145.271 180.00 1.31409 0.00
6 2 2 1 o 2006.976 1941.674 0.00 1.31303 0.27
5 1 1 2 o 3357.016 3290.802 89.33 1.31183 0.01
6 4 1 1 o 825.703 760.118 180.00 1.31097 0.21
1 1 9 2 o 62.230 68.837 -90.00 1.30556 0.00
5 4 2 1 o 1.650 1.516 180.00 1.30142 0.00
7 2 1 1 o 1625.642 1667.511 180.00 1.29941 0.43
4 0 6 2 o 3074.412 2383.946 90.00 1.29686 0.01
5 1 2 2 o 271.299 271.261 54.57 1.28972 0.00
7 3 0 1 o 30909.748 31626.381 180.00 1.28750 3.33
2 2 8 2 o 7.729 5.377 0.00 1.28524 0.00
4 2 5 2 o 21845.813 18900.447 123.44 1.28112 0.11
4 3 3 2 o 9388.551 6488.229 -157.95 1.27767 0.05
5 0 3 2 o 1446.589 1109.108 45.00 1.27767 0.00
3 2 7 2 o 22847.947 22984.947 136.06 1.27476 0.11
4 1 6 2 o 174.979 158.169 13.01 1.27341 0.00
3 0 8 2 o 15447.705 10418.110 -90.00 1.26241 0.04
4 3 3 1 o 264.484 206.506 0.00 1.26089 0.07
5 1 3 2 o 3004.990 3956.470 -75.08 1.25523 0.01
2 0 9 2 o 5891.766 5738.471 45.00 1.25901 0.01
6 3 2 1 o 190.302 225.969 0.00 1.25785 0.05
3 3 6 2 o 344.236 359.964 0.00 1.25120 0.00
5 1 3 1 o 17070.781 17794.842 0.00 1.25059 3.41
5 2 0 2 o 6418.662 6457.320 -180.00 1.24934 0.01
7 3 1 1 o 31.946 29.497 0.00 1.24586 0.01
5 2 1 2 o 1176.654 916.222 151.82 1.24286 0.01
3 1 8 2 o 5931.564 5280.421 13.07 1.24076 0.02
2 1 9 2 o 17507.398 15762.240 -41.63 1.23753 0.08
0 0 4 1 o 103822.86 102693.23 0.00 1.23472 2.66
5 0 4 2 o 211.600 196.433 90.00 1.23141 0.00
4 3 4 2 o 5328.658 4854.230 118.98 1.23141 0.02
8 0 0 1 o 62568.85 61197.98 0.00 1.22566 3.05
5 2 2 2 o 69865.55 66708.41 88.72 1.22401 0.31
5 2 3 1 o 258.525 241.895 0.00 1.22115 0.06
6 5 1 1 o 308.582 294.870 0.00 1.21674 0.08
1 1 4 1 o 6112.006 6336.363 180.00 1.21560 0.57
5 1 4 2 o 1069.214 1111.081 -167.94 1.21129 0.00
4 0 7 2 o 12926.881 13580.938 -45.00 1.21120 0.03
4 2 6 2 o 4990.559 5231.813 -68.21 1.21005 0.02
7 1 2 1 o 16183.138 16821.400 0.00 1.20909 3.14
5 5 2 1 o 1631.710 1689.396 180.00 1.20909 0.14
1 0 10 2 o 6.632 7.022 0.00 1.20225 0.00
2 0 4 1 o 173.985 199.319 0.00 1.19734 0.02
5 2 3 2 o 1034.712 1076.187 -154.17 1.19442 0.00
4 4 3 1 o 5903.784 5996.331 180.00 1.19370 0.47
4 1 7 2 o 816.989 833.999 -142.77 1.19204 0.00
6 4 2 1 o 0.068 0.156 0.00 1.19112 0.00
8 0 1 1 o 3839.390 3685.927 180.00 1.18958 0.27
4 4 0 2 o 72864.23 69393.43 0.00 1.18934 0.08
8 2 0 1 o 1546.068 1470.022 0.00 1.18906 0.17
2 1 4 1 o 179.127 174.932 180.00 1.18851 0.04
4 4 1 2 o 19297.893 22410.002 90.00 1.18374 0.04
1 1 10 2 o 6585.496 8003.480 -180.00 1.18350 0.01
7 2 2 1 o 81.581 137.244 180.00 1.18242 0.02
3 2 8 2 o 64.538 154.987 17.28 1.18193 0.00
7 4 1 1 o 83.389 113.799 0.00 1.18092 0.02
8 1 1 1 o 105.902 144.522 180.00 1.18092 0.03
2 2 9 2 o 4273.523 4518.071 90.00 1.17913 0.01
4 3 5 2 o 2818.275 2795.517 9.20 1.17872 0.01
5 0 5 2 o 18599.559 18437.842 135.00 1.17872 0.04
5 3 3 1 o 5919.504 5546.653 180.00 1.17639 1.02
3 3 7 2 o 3876.100 3775.432 90.00 1.17376 0.01
4 4 2 2 o 2645.023 613.253 180.00 1.16742 0.01
2 2 4 1 o 1269.834 1145.261 0.00 1.16315 0.08
3 0 9 2 o 3736.181 2984.506 135.00 1.16143 0.01
5 1 5 2 o 1884.604 1565.910 -78.14 1.16104 0.01
6 0 3 1 o 1140.252 914.161 180.00 1.15981 0.13
5 2 4 2 o 8975.249 6906.094 -1.35 1.15637 0.04
8 2 1 1 o 192.679 158.739 0.00 1.15603 0.04
6 6 0 1 o 2303.765 2120.021 0.00 1.15556 0.07
5 3 0 2 o 3047.995 2985.878 180.00 1.15383 0.01
6 1 3 1 o 6.705 13.963 180.00 1.15178 0.00
5 3 1 2 o 5155.976 5210.854 -146.45 1.14872 0.02
2 0 10 2 o 3139.685 3137.556 90.00 1.14850 0.01
3 1 4 1 o 4544.582 4578.677 0.00 1.14712 0.72
3 1 9 2 o 43.917 47.425 -29.18 1.14450 0.00
4 4 3 2 o 16946.725 17256.316 -90.00 1.14166 0.04
7 3 2 1 o 13555.784 13797.712 180.00 1.14165 2.39
7 5 0 1 o 6339.563 6198.818 0.00 1.13984 0.54
4 2 7 2 o 36030.12 35015.527 -129.52 1.13959 0.15
5 3 2 2 o 2104.924 2027.694 -68.06 1.13378 0.01
2 1 10 2 o 24990.615 25510.920 82.07 1.13212 0.10
4 0 8 2 o 60805.94 62215.73 -180.00 1.13074 0.13
6 2 3 1 o 58991.82 58977.39 180.00 1.12866 10.78
6 6 1 1 o 53334.80 53031.03 180.00 1.12518 4.85
3 2 4 1 o 68.789 68.671 180.00 1.12427 0.02
5 0 6 2 o 835.312 834.919 180.00 1.12266 0.00
4 3 6 2 o 660.159 659.867 147.65 1.12266 0.00
6 0 0 2 o 9301.603 9224.211 0.00 1.12132 0.01
5 4 3 1 o 6.290 6.215 0.00 1.12126 0.00
6 5 2 1 o 57.645 55.986 0.00 1.11912 0.01
8 3 1 1 o 30.091 30.816 180.00 1.11784 0.01
6 0 1 2 o 7081.237 6953.376 -135.00 1.11663 0.01
4 1 8 2 o 6592.273 7170.081 47.65 1.11510 0.03
5 2 5 2 o 1008.657 1015.385 -86.45 1.11241 0.00
7 5 1 1 o 3331.815 3124.988 180.00 1.11065 0.54
5 1 6 2 o 2187.161 2079.980 -165.16 1.10735 0.01
5 3 3 2 o 8307.711 7699.036 152.06 1.11014 0.03
6 1 0 2 o 6762.341 6897.074 -180.00 1.10606 0.01
4 4 4 2 o 58116.54 54475.96 180.00 1.10830 0.12
6 0 2 2 o 43795.30 43459.16 -90.00 1.10290 0.10
4 0 4 1 o 62117.63 61628.06 0.00 1.10273 5.66
6 1 1 2 o 9246.050 8991.587 111.34 1.10156 0.04
3 3 8 2 o 8717.543 8848.557 180.00 1.10009 0.02
8 0 2 1 o 60241.33 61501.36 0.00 1.09787 5.52
3 2 9 2 o 27860.268 28392.426 46.53 1.09784 0.11
8 4 0 1 o 46067.69 46200.94 0.00 1.09626 4.10
1 0 11 2 o 729.947 731.192 45.00 1.09599 0.00
4 1 4 1 o 39.368 39.408 0.00 1.09583 0.01
6 3 3 1 o 109.882 109.621 0.00 1.09303 0.03
7 4 2 1 o 1.094 1.062 0.00 1.09105 0.00
8 1 2 1 o 19.541 18.971 0.00 1.09105 0.00
3 3 4 1 o 11696.624 11893.243 180.00 1.08905 1.03
6 1 2 2 o 22433.623 22862.420 -91.28 1.08837 0.09
2 2 10 2 o 23704.313 23548.395 0.00 1.08690 0.05
9 1 0 1 o -39.117 30.125 0.00 1.08281 0.01
1 1 11 2 o 6924.709 6957.290 90.00 1.08174 0.01
6 0 3 2 o 16378.020 16069.519 135.00 1.08110 0.04
5 3 4 2 o 1369.844 1982.902 -27.42 1.07940 0.00
4 2 4 1 o 100.087 79.015 0.00 1.07586 0.02
3 0 10 2 o 882.053 903.801 -180.00 1.07298 0.00
4 2 8 2 o 3356.236 3132.544 -59.43 1.07181 0.01
8 2 2 1 o 951.431 896.386 0.00 1.07134 0.20
8 4 1 1 o 6205.871 6121.152 180.00 1.07022 0.95
4 4 5 2 o 17211.006 17266.492 -90.00 1.06942 0.04
6 1 3 2 o 8148.218 6998.770 -100.63 1.06740 0.03
4 3 7 2 o 1865.721 1647.653 39.05 1.06571 0.01
5 0 7 2 o 102.899 92.425 -135.00 1.06571 0.00
5 2 6 2 o 53174.82 44960.03 -86.70 1.06492 0.23
6 2 0 2 o 1354.540 971.982 0.00 1.06378 0.00
7 1 3 1 o 858.854 856.515 180.00 1.06058 0.11
5 5 3 1 o 14300.553 14245.272 0.00 1.06058 1.27
6 2 1 2 o 1744.069 1810.137 -65.70 1.05977 0.01
3 1 10 2 o 1516.082 1574.087 174.04 1.05959 0.01
9 1 1 1 o 15030.890 15239.035 0.00 1.05769 2.71
4 0 9 2 o 10100.532 10140.694 -135.00 1.05645 0.02
2 0 11 2 o 47148.55 44194.76 -45.00 1.05481 0.10
6 0 4 2 o 5118.188 4420.733 -180.00 1.05264 0.01
5 1 7 2 o 5162.714 4503.674 98.94 1.05259 0.02
5 4 0 2 o 7629.526 5386.646 -180.00 1.05072 0.02
6 4 3 1 o 149.239 129.446 180.00 1.04839 0.04
6 2 2 2 o 754.068 701.533 -164.56 1.04801 0.00
5 4 1 2 o 3989.787 4025.453 134.25 1.04686 0.02
6 6 2 1 o 8012.583 8131.852 0.00 1.04664 0.65
4 3 4 1 o 18.761 15.963 180.00 1.04487 0.00
4 1 9 2 o 7726.222 7425.688 -142.48 1.04367 0.03
5 3 5 2 o 1074.402 1120.039 11.59 1.04338 0.00
7 2 3 1 o 269.189 316.496 0.00 1.04245 0.06
2 1 11 2 o 858.413 882.669 72.40 1.04208 0.00
8 3 2 1 o 8.634 8.271 180.00 1.04073 0.00
6 1 4 2 o 4307.176 4984.598 7.32 1.03999 0.02
7 6 1 1 o 32.267 38.221 0.00 1.03970 0.01
9 2 1 1 o 28.405 33.647 180.00 1.03970 0.01
5 1 4 1 o 977.663 1022.857 180.00 1.03898 0.13
5 4 2 2 o 164.931 166.138 -104.25 1.03552 0.00
7 5 2 1 o 6433.921 6330.066 0.00 1.03491 1.12
9 3 0 1 o 2423.835 2342.618 0.00 1.03357 0.20
3 3 9 2 o 308.948 310.784 -90.00 1.03133 0.00
6 2 3 2 o 936.381 829.884 41.98 1.02925 0.00
4 4 6 2 o 21.173 170.607 0.00 1.02702 0.00
3 2 10 2 o 4748.795 4730.963 -111.02 1.02224 0.02
5 2 4 1 o 95.674 103.976 180.00 1.02192 0.02
6 0 5 2 o 2014.982 1526.946 45.00 1.01916 0.00
0 0 12 2 o 60742.06 56834.04 180.00 1.01826 0.03
5 4 3 2 o 1049.245 1100.291 -134.30 1.01741 0.00
8 5 1 1 o 4.321 4.972 0.00 1.01708 0.00
7 3 3 1 o 109.785 127.327 0.00 1.01418 0.01
5 2 7 2 o 1087.605 2164.185 0.16 1.01595 0.00
9 3 1 1 o 7412.447 7172.521 180.00 1.01165 1.30
5 0 8 2 o 1076.186 1041.814 -90.00 1.00966 0.00
4 3 8 2 o 7021.252 6792.760 -66.65 1.00966 0.03
4 2 9 2 o 3093.980 3123.356 -57.13 1.00792 0.01
6 1 5 2 o 7768.508 7829.498 -65.19 1.00766 0.03
1 0 12 2 o 9026.032 8847.091 -90.00 1.00680 0.02
2 2 11 2 o 204.374 200.429 90.00 1.00649 0.00
4 4 4 1 o 44593.94 43890.99 0.00 1.00566 4.09
6 2 4 2 o 1182.723 1193.352 -159.29 1.00461 0.01
5 3 6 2 o 2628.197 2700.172 131.70 1.00390 0.01
6 3 0 2 o 26.634 27.297 180.00 1.00294 0.00
8 4 2 1 o 39938.09 39271.31 0.00 1.00197 7.35
6 3 1 2 o 14440.722 14594.166 -27.26 0.99958 0.06
5 1 8 2 o 877.670 821.300 18.99 0.99848 0.00
6 5 3 1 o 39.041 34.309 180.00 0.99829 0.01
1 1 12 2 o 297.400 295.653 0.00 0.99571 0.00
3 0 11 2 o 2.583 2.465 -135.00 0.99541 0.00
5 3 4 1 o 4511.729 4463.229 0.00 0.99525 0.81
5 4 4 2 o 3860.640 3778.824 -6.25 0.99359 0.02
9 1 2 1 o 639.863 684.486 180.00 0.99167 0.09
7 7 0 1 o 17299.432 18541.770 180.00 0.99048 0.81
6 3 2 2 o 4646.104 4698.971 -81.57 0.98969 0.02
4 0 10 2 o 694.085 600.884 -90.00 0.98858 0.00
0 0 5 1 o 1542.054 1344.807 180.00 0.98778 0.03
6 0 4 1 o 24.191 21.328 180.00 0.98515 0.00
3 1 11 2 o 8017.005 7106.819 -159.86 0.98469 0.03
8 0 3 1 o 5716.880 5645.262 180.00 0.98312 0.48
4 4 7 2 o 10185.358 10002.666 90.00 0.98288 0.02
6 0 6 2 o 24359.500 24011.119 90.00 0.98227 0.05
8 6 0 1 o 102.037 111.809 0.00 0.98053 0.01
10 0 0 1 o 1785.883 1927.970 180.00 0.98053 0.10
6 1 4 1 o 78.481 81.778 0.00 0.98021 0.02
7 4 3 1 o 40.689 40.612 180.00 0.97821 0.01
8 1 3 1 o 126.882 126.641 0.00 0.97821 0.03
4 1 10 2 o 247.918 250.214 138.07 0.97808 0.00
1 1 5 1 o 6130.207 6204.692 0.00 0.97790 0.56
7 6 2 1 o 107.095 115.417 0.00 0.97679 0.03
9 2 2 1 o 25.621 27.612 180.00 0.97679 0.01
9 4 1 1 o 591.561 647.691 0.00 0.97594 0.15
6 2 5 2 o 4706.443 4860.317 116.16 0.97538 0.02
2 0 12 2 o 185.387 180.322 0.00 0.97459 0.00
6 3 3 2 o 11435.667 10584.915 28.55 0.97385 0.05
6 1 6 2 o 17287.672 13882.772 82.82 0.97196 0.08
7 7 1 1 o 101.619 51.070 180.00 0.97115 0.03
2 0 5 1 o 116.388 69.860 180.00 0.96832 0.02
3 3 10 2 o 612.850 476.660 -180.00 0.96791 0.00
5 2 8 2 o 5389.577 4864.940 173.54 0.96704 0.03
6 2 4 1 o 4169.794 4124.650 0.00 0.96584 0.69
5 4 5 2 o 7431.503 7556.318 -34.74 0.96528 0.03
2 1 12 2 o 3254.508 3410.402 -173.07 0.96453 0.02
8 2 3 1 o 209.393 219.266 0.00 0.96393 0.04
2 1 5 1 o 171.775 183.519 180.00 0.96363 0.04
5 3 7 2 o 5195.621 5220.416 -31.46 0.96255 0.02
8 6 1 1 o 22.632 22.836 0.00 0.96176 0.00
10 0 1 1 o 1427.761 1443.208 180.00 0.96176 0.17
10 2 0 1 o 4608.907 4708.805 0.00 0.96149 0.37
5 4 4 1 o 0.341 0.362 0.00 0.96119 0.00
7 0 1 2 o 1570.972 1905.280 -45.00 0.95817 0.00
8 5 2 1 o 4.392 5.679 180.00 0.95797 0.00
10 1 1 1 o 173.661 187.387 0.00 0.95716 0.05
5 0 9 2 o 13637.832 11522.575 -45.00 0.95572 0.03
4 3 9 2 o 1271.053 1105.558 -146.43 0.95572 0.00
6 3 4 2 o 300.123 286.045 -92.05 0.95289 0.00
9 5 0 1 o 65.961 65.199 180.00 0.95237 0.00
3 2 11 2 o 4476.140 4039.900 -45.97 0.95450 0.02
5 5 0 2 o 51.640 49.470 180.00 0.95147 0.00
7 1 0 2 o 7476.152 7189.866 180.00 0.95147 0.02
9 3 2 1 o 945.612 899.473 0.00 0.95343 0.14
2 2 5 1 o 42164.63 41528.77 180.00 0.94997 4.23
7 0 2 2 o 97.038 94.451 0.00 0.94945 0.00
5 5 1 2 o 1672.299 1644.734 -90.00 0.94860 0.00
7 1 1 2 o 3707.767 3613.753 -54.22 0.94860 0.02
4 2 10 2 o 2460.271 2400.332 131.03 0.94847 0.01
5 1 9 2 o 670.459 673.012 116.97 0.94622 0.00
6 6 3 1 o 35483.68 35515.01 180.00 0.94582 3.58
10 2 1 1 o 30716.201 30936.020 180.00 0.94377 6.15
6 0 7 2 o 10956.047 11050.269 -45.00 0.94344 0.02
6 3 4 1 o 117.398 119.011 180.00 0.94323 0.03
6 2 6 2 o 2718.458 2740.420 6.37 0.94289 0.01
8 3 3 1 o 2.848 2.710 0.00 0.94145 0.00
3 1 5 1 o 1772.258 1695.792 180.00 0.94118 0.30
7 1 2 2 o 12.270 10.080 -54.36 0.94014 0.00
5 5 2 2 o 48.185 46.799 180.00 0.94014 0.00
4 4 8 2 o 27057.213 27237.912 0.00 0.93840 0.06
7 5 3 1 o 3263.724 3183.826 180.00 0.93714 0.63
2 2 12 2 o 14.403 14.542 0.00 0.93610 0.00
7 0 3 2 o 2141.887 2162.783 45.00 0.93544 0.00
9 5 1 1 o 13191.661 13453.867 0.00 0.93515 2.72
6 1 7 2 o 3246.527 3436.952 87.81 0.93430 0.01
5 4 6 2 o 272.237 284.673 27.48 0.93377 0.00
6 4 0 2 o 5170.913 5128.742 180.00 0.93299 0.01
1 0 13 2 o 9400.172 6898.884 -45.00 0.93089 0.02
6 4 1 2 o 6527.711 3961.429 66.51 0.93029 0.04
3 2 5 1 o 24.996 17.739 0.00 0.92843 0.01
6 3 5 2 o 12946.652 12258.553 145.60 0.92784 0.06
3 0 12 2 o 11233.790 11276.254 90.00 0.92717 0.03
4 0 11 2 o 3480.255 3292.578 135.00 0.92693 0.01
5 5 3 2 o 1721.873 1519.019 90.00 0.92653 0.00
7 1 3 2 o 3767.726 3172.761 43.35 0.92653 0.02
7 2 0 2 o 8329.482 8130.367 0.00 0.92415 0.02
9 4 2 1 o 3.179 3.016 180.00 0.92336 0.00
10 3 1 1 o 44.575 41.360 0.00 0.92264 0.01
6 4 2 2 o 15459.978 14703.983 86.95 0.92230 0.08
7 1 4 1 o 6317.796 6044.423 0.00 0.92214 1.31
5 5 4 1 o 58.504 47.062 0.00 0.92214 0.03
1 1 13 2 o 61.926 58.382 -90.00 0.92211 0.00
7 2 1 2 o 11897.681 11913.153 -141.58 0.92152 0.06
5 3 8 2 o 1194.022 1300.499 152.18 0.92066 0.00
5 2 9 2 o 958.936 992.206 67.33 0.91934 0.00
7 7 2 1 o 12786.130 13267.241 180.00 0.91929 1.38
3 1 12 2 o 2085.220 2216.580 -164.15 0.91849 0.01
4 1 11 2 o 1705.693 1859.422 -5.92 0.91825 0.01
7 0 4 2 o 1687.042 1772.361 -90.00 0.91682 0.00
4 0 5 1 o 1936.787 1927.553 180.00 0.91619 0.16
6 4 4 1 o 8.631 8.676 0.00 0.91409 0.01
7 2 2 2 o 18.803 24.414 -121.76 0.91375 0.00
8 4 3 1 o 2028.094 1985.214 180.00 0.91247 0.32
4 1 5 1 o 305.363 291.017 0.00 0.91222 0.09
3 3 11 2 o 3990.160 3657.702 -90.00 0.90982 0.01
6 4 3 2 o 7908.527 7198.629 -65.17 0.90944 0.04
10 0 2 1 o 94.239 94.810 180.00 0.91132 0.01
8 6 2 1 o 290.005 293.946 0.00 0.91132 0.09
7 1 4 2 o 6138.411 5542.115 13.95 0.90843 0.03
5 5 4 2 o 433.932 377.522 0.00 0.90843 0.00
10 4 0 1 o 121.572 116.314 180.00 0.91040 0.01
6 2 7 2 o 20.077 13.698 -125.98 0.90839 0.00
3 3 5 1 o 841.811 771.322 0.00 0.90830 0.08
7 2 4 1 o 48.944 43.463 0.00 0.91015 0.01
10 1 2 1 o 42.472 38.614 0.00 0.90741 0.01
8 7 1 1 o 142.902 138.919 0.00 0.90672 0.04
2 0 13 2 o 104.180 109.967 -135.00 0.90526 0.00
9 1 3 1 o 8007.890 7917.816 0.00 0.90467 1.80
5 0 10 2 o 1134.849 1121.424 0.00 0.90459 0.00
4 3 10 2 o 1193.473 1177.651 -11.71 0.90459 0.01
6 0 8 2 o 2264.250 2283.229 0.00 0.90389 0.01
7 2 3 2 o 11018.506 10245.521 137.23 0.90124 0.06
4 2 5 1 o 2.592 1.604 0.00 0.90060 0.00
5 4 7 2 o 396.720 327.978 118.73 0.90022 0.00
6 3 6 2 o 3094.756 2852.447 111.94 0.89975 0.02
2 1 13 2 o 4884.658 5433.928 132.55 0.89718 0.02
5 1 10 2 o 3546.797 3778.580 0.24 0.89653 0.02
10 2 2 1 o 3682.518 3689.902 0.00 0.89597 0.73
6 1 8 2 o 1546.865 1537.083 -165.70 0.89584 0.01
10 4 1 1 o 596.534 576.653 180.00 0.89531 0.18
4 4 9 2 o 7457.225 7200.044 90.00 0.89462 0.02
7 0 5 2 o 259.064 253.107 135.00 0.89444 0.00
3 2 12 2 o 90.925 78.295 -171.86 0.89384 0.00
4 2 11 2 o 20001.355 18419.230 52.38 0.89362 0.12
9 2 3 1 o 0.009 0.008 0.00 0.89333 0.00
7 6 3 1 o 16.179 14.515 0.00 0.89333 0.01
6 4 4 2 o 4335.176 4231.106 15.88 0.89230 0.02
9 6 1 1 o 124.738 125.821 0.00 0.89160 0.04
7 3 4 1 o 11331.588 11375.188 180.00 0.89115 2.88
