#------------------------------------------------------------------------------
#$Date: 2021-06-21 12:14:47 +0300 (Mon, 21 Jun 2021) $
#$Revision: 266610 $
#$URL: file:///home/coder/svn-repositories/cod/cif/1/56/36/1563642.cif $
#------------------------------------------------------------------------------
#
# This file is available in the Crystallography Open Database (COD),
# http://www.crystallography.net/
#
# All data on this site have been placed in the public domain by the
# contributors.
#
data_1563642
loop_
_publ_author_name
'Zubkov, Vladimir G.'
'Tarakina, Nadezda V.'
'Leonidov, Ivan I.'
'Tyutyunnik, Alexander P.'
'Surat, Ludmila L.'
'Melkozerova, Marina A.'
'Zabolotskaya, Elena V.'
'Kellerman, Dina G.'
_publ_section_title
;
 Synthesis and crystal structure of Ln2M2+Ge4O12, Ln=rare-earth element or
 Y; M=Ca, Mn, Zn
;
_journal_issue                   5
_journal_name_full               'Journal of Solid State Chemistry'
_journal_page_first              1186
_journal_page_last               1193
_journal_paper_doi               10.1016/j.jssc.2010.03.027
_journal_volume                  183
_journal_year                    2010
_chemical_formula_sum            'Ca Ge4 O12 Yb2'
_chemical_formula_weight         868.51
_space_group_IT_number           125
_space_group_name_Hall           '-P 4a 2b'
_space_group_name_H-M_alt        'P 4/n b m :2'
_symmetry_cell_setting           tetragonal
_symmetry_space_group_name_H-M   'P 4/n b m :2'
_cell_angle_alpha                90.0
_cell_angle_beta                 90.0
_cell_angle_gamma                90.0
_cell_formula_units_Z            2
_cell_length_a                   9.92787(7)
_cell_length_b                   9.92787
_cell_length_c                   5.03951(4)
_cell_volume                     496.707(5)
_computing_structure_refinement  GSAS
_diffrn_radiation_polarisn_ratio 0.8
_diffrn_radiation_probe          x-ray
_diffrn_radiation_wavelength     1.54056
_exptl_absorpt_correction_T_max  3.12777
_exptl_absorpt_correction_T_min  1.73248
_exptl_absorpt_process_details
;   GSAS Absorption/surface roughness correction: function number 4
 Flat plate transmission absorption correction
Terms =    -0.35457         0.0000    
Correction is refined.
;
_pd_calc_method                  'Rietveld Refinement'
_pd_instr_location               ' ?'
_pd_meas_2theta_range_inc        0.02
_pd_meas_2theta_range_max        119.98
_pd_meas_2theta_range_min        2.0
_pd_meas_number_of_points        5900
_pd_proc_2theta_range_inc        0.02
_pd_proc_2theta_range_max        119.95223
_pd_proc_2theta_range_min        1.97223
_pd_proc_info_datetime           2010-02-27T13:07:31
_pd_proc_info_excluded_regions   ' ?'
_pd_proc_ls_background_function
;   GSAS Background function number 1 with 36 terms.
 Shifted Chebyshev function of 1st kind
      1:    1712.26     2:   -2158.78     3:    1241.36     4:   -561.456    
      5:    174.115     6:   -29.5776     7:   0.142022     8:   -37.5034    
      9:    64.8865    10:   -87.1156    11:    72.1918    12:   -52.1321    
     13:    62.9466    14:   -53.4133    15:    26.5140    16:   -14.6542    
     17:    19.5747    18:   -18.0519    19:    18.7956    20:   -13.6257    
     21:    13.6440    22:   -22.7338    23:    38.3596    24:   -49.0194    
     25:    36.4904    26:   -5.78488    27:   -24.5821    28:    34.3930    
     29:   -35.8478    30:    14.1674    31:    17.9179    32:   -41.8089    
     33:    32.9422    34:   -13.2378    35:   -1.34101    36:    9.37558    
;
_pd_proc_ls_peak_cutoff          0.00200
_pd_proc_ls_profile_function
;
 CW Profile function number 2 with  18 terms
 Profile coefficients for Simpson's rule integration of pseudovoigt function
 C.J. Howard (1982). J. Appl. Cryst.,15,615-620.
 P. Thompson, D.E. Cox & J.B. Hastings (1987). J. Appl. Cryst.,20,79-83.
 #1(GU)   =   41.395 #2(GV)   =  -16.792 #3(GW)   =   16.540
 #4(LX)   =    1.774 #5(LY)   =    9.147 #6(trns) =    0.000
 #7(asym) =   2.3789 #8(shft) =   0.0000 #9(GP)   =    0.000
 #10(stec)=     0.00 #11(ptec)=     0.00 #12(sfec)=     0.00
 #13(L11) =    0.000 #14(L22) =    0.000 #15(L33) =    0.000
 #16(L12) =    0.000 #17(L13) =    0.000 #18(L23) =    0.000
 Peak tails are ignored  where the intensity is below 0.0020 times the peak
   Aniso. broadening axis   0.0   0.0   1.0
;
_pd_proc_ls_prof_R_factor        0.0424
_pd_proc_ls_prof_wR_expected     0.0214
_pd_proc_ls_prof_wR_factor       0.0643
_pd_proc_number_of_points        5900
_pd_spec_mounting                ' ?'
_refine_ls_goodness_of_fit_all   2.43
_refine_ls_matrix_type           full
_refine_ls_number_parameters     70
_refine_ls_number_restraints     0
_refine_ls_R_Fsqd_factor         0.02672
_refine_ls_shift/su_max          0.01
_refine_ls_shift/su_mean         0.00
_reflns_d_resolution_high        0.892
_reflns_d_resolution_low         7.020
_reflns_limit_h_max              11
_reflns_limit_h_min              0
_reflns_limit_k_max              8
_reflns_limit_k_min              0
_reflns_limit_l_max              5
_reflns_limit_l_min              0
_reflns_number_total             207
_cod_data_source_file            YB2CAGe4O12.cif
_cod_data_source_block           YB2CA(VO3)4_publ
_cod_depositor_comments
;
The following automatic conversions were performed:

data item '_geom_angle_publ_flag' value 'N' was changed to 'n' in
accordance with the built-in table derived from the CIF Core
dictionary named 'cif_core.dic' version 2.4.5 last updated on
2014-11-21 (194 times).

data item '_geom_bond_publ_flag' value 'N' was changed to 'n' in
accordance with the built-in table derived from the CIF Core
dictionary named 'cif_core.dic' version 2.4.5 last updated on
2014-11-21 (68 times).

Automatic conversion script
Id: cif_fix_values 8369 2020-08-20 11:38:08Z andrius 
;
_cod_original_cell_volume        496.708(9)
_cod_original_sg_symbol_H-M      'P 4/n b m'
_cod_original_formula_sum        'Ca1.00 Ge4 O12 Yb2.00'
_cod_database_code               1563642
_gsas_exptl_extinct_corr_t_min   1.00000
_gsas_exptl_extinct_corr_t_max   1.00000
loop_
_symmetry_equiv_pos_site_id
_symmetry_equiv_pos_as_xyz
1 +x,+y,+z
2 -y+1/2,+x,+z
3 -x+1/2,-y+1/2,+z
4 +y,-x+1/2,+z
5 -x,+y+1/2,+z
6 -y,-x,+z
7 +x+1/2,-y,+z
8 +y+1/2,+x+1/2,+z
-1 -x,-y,-z
-2 +y+1/2,-x,-z
-3 +x+1/2,+y+1/2,-z
-4 -y,+x+1/2,-z
-5 +x,-y+1/2,-z
-6 +y,+x,-z
-7 -x+1/2,+y,-z
-8 -y+1/2,-x+1/2,-z
loop_
_atom_site_aniso_label
_atom_site_aniso_U_11
_atom_site_aniso_U_12
_atom_site_aniso_U_13
_atom_site_aniso_U_22
_atom_site_aniso_U_23
_atom_site_aniso_U_33
Ca 0.0305(11) -0.0062(7) -0.0038(13) 0.0305(11) 0.0038(13) 0.0295(15)
Yb1 0.0305(11) -0.0062(7) -0.0038(13) 0.0305(11) 0.0038(13) 0.0295(15)
Yb2 0.0251(11) 0.0 0.0 0.0251(11) 0.0 0.0250(13)
Ge 0.0276(14) 0.0 0.0 0.0223(14) -0.0080(17) 0.0250(12)
O1 0.0227(29) 0.005(4) -0.0079(33) 0.0227(29) 0.0079(33) 0.016(5)
O2 0.025(4) -0.0030(23) 0.0030(33) 0.014(4) 0.0039(29) 0.0182(31)
loop_
_atom_site_type_symbol
_atom_site_label
_atom_site_fract_x
_atom_site_fract_y
_atom_site_fract_z
_atom_site_occupancy
_atom_site_thermal_displace_type
_atom_site_U_iso_or_equiv
_atom_site_symmetry_multiplicity
Ca Ca 0.0 0.0 0.5 0.5 Uani 0.03016 4
Yb Yb1 0.0 0.0 0.5 0.5 Uani 0.03016 4
Yb Yb2 0.25 0.25 0.5 1.0 Uani 0.02506 2
Ge Ge 0.52012(14) 0.25 0.0 1.0 Uani 0.02495 8
O O1 0.6258(5) 0.3742(5) 0.1571(12) 1.0 Uani 0.02036 8
O O2 0.1733(5) 0.0642(4) 0.2575(10) 1.0 Uani 0.0192 16
loop_
_atom_type_symbol
_atom_type_number_in_cell
_atom_type_scat_dispersion_real
_atom_type_scat_dispersion_imag
_atom_type_scat_Cromer_Mann_a1
_atom_type_scat_Cromer_Mann_a2
_atom_type_scat_Cromer_Mann_a3
_atom_type_scat_Cromer_Mann_a4
_atom_type_scat_Cromer_Mann_b1
_atom_type_scat_Cromer_Mann_b2
_atom_type_scat_Cromer_Mann_b3
_atom_type_scat_Cromer_Mann_b4
_atom_type_scat_Cromer_Mann_c
_atom_type_scat_source
Ca 2.0 0.000 0.000 8.62660 10.4421 7.38730 0.65990 1.58990 85.7484 1.02110
178.437 1.37510 International_Tables_Vol_C
Yb 4.0 0.000 0.000 28.6641 1.98890 15.4345 0.25712 15.3087 10.6647 2.98963
100.417 7.56672 International_Tables_Vol_C
Ge 8.0 0.000 0.000 16.0816 2.85090 6.37470 0.25160 3.70680 11.4468 3.68300
54.7625 2.13130 International_Tables_Vol_C
O 24.0 0.000 0.000 3.04850 13.2771 2.28680 5.70110 1.54630 0.32390 0.86700
32.9089 0.25080 International_Tables_Vol_C
loop_
_geom_angle_atom_site_label_1
_geom_angle_atom_site_label_2
_geom_angle_atom_site_label_3
_geom_angle
_geom_angle_site_symmetry_1
_geom_angle_site_symmetry_2
_geom_angle_site_symmetry_3
_geom_angle_publ_flag
Yb2 Ca Yb2 180.0 1_555 . 5_545 n
Yb2 Ca O1 89.999 1_555 . 3_555 n
Yb2 Ca O1 90.001 1_555 . -3_456 n
Yb2 Ca O2 40.87(12) 1_555 . 1_555 n
Yb2 Ca O2 139.13(12) 1_555 . 6_555 n
Yb2 Ca O2 139.13(12) 1_555 . -1_556 n
Yb2 Ca O2 40.87(12) 1_555 . -6_556 n
Yb2 Ca O1 90.001 5_545 . 3_555 n
Yb2 Ca O1 89.999 5_545 . -3_456 n
Yb2 Ca O2 139.13(12) 5_545 . 1_555 n
Yb2 Ca O2 40.87(12) 5_545 . 6_555 n
Yb2 Ca O2 40.87(12) 5_545 . -1_556 n
Yb2 Ca O2 139.13(12) 5_545 . -6_556 n
O1 Ca O1 180.0 3_555 . -3_456 n
O1 Ca O2 82.00(17) 3_555 . 1_555 n
O1 Ca O2 82.00(17) 3_555 . 6_555 n
O1 Ca O2 98.00(17) 3_555 . -1_556 n
O1 Ca O2 98.00(17) 3_555 . -6_556 n
O1 Ca O2 98.00(17) -3_446 . 1_555 n
O1 Ca O2 98.00(17) -3_446 . 6_555 n
O1 Ca O2 82.00(17) -3_446 . -1_556 n
O1 Ca O2 82.00(17) -3_446 . -6_556 n
O2 Ca O2 98.27(25) 1_555 . 6_555 n
O2 Ca O2 180.0 1_555 . -1_556 n
O2 Ca O2 81.73(25) 1_555 . -6_556 n
O2 Ca O2 81.73(25) 6_555 . -1_556 n
O2 Ca O2 180.0 6_555 . -6_556 n
O2 Ca O2 98.27(25) -1_556 . -6_556 n
Yb2 Yb1 Yb2 180.0 1_555 . 5_545 n
Yb2 Yb1 O1 89.999 1_555 . 3_555 n
Yb2 Yb1 O1 90.001 1_555 . -3_456 n
Yb2 Yb1 O2 40.87(12) 1_555 . 1_555 n
Yb2 Yb1 O2 139.13(12) 1_555 . 6_555 n
Yb2 Yb1 O2 139.13(12) 1_555 . -1_556 n
Yb2 Yb1 O2 40.87(12) 1_555 . -6_556 n
Yb2 Yb1 O1 90.001 5_545 . 3_555 n
Yb2 Yb1 O1 89.999 5_545 . -3_456 n
Yb2 Yb1 O2 139.13(12) 5_545 . 1_555 n
Yb2 Yb1 O2 40.87(12) 5_545 . 6_555 n
Yb2 Yb1 O2 40.87(12) 5_545 . -1_556 n
Yb2 Yb1 O2 139.13(12) 5_545 . -6_556 n
O1 Yb1 O1 180.0 3_555 . -3_456 n
O1 Yb1 O2 82.00(17) 3_555 . 1_555 n
O1 Yb1 O2 82.00(17) 3_555 . 6_555 n
O1 Yb1 O2 98.00(17) 3_555 . -1_556 n
O1 Yb1 O2 98.00(17) 3_555 . -6_556 n
O1 Yb1 O2 98.00(17) -3_446 . 1_555 n
O1 Yb1 O2 98.00(17) -3_446 . 6_555 n
O1 Yb1 O2 82.00(17) -3_446 . -1_556 n
O1 Yb1 O2 82.00(17) -3_446 . -6_556 n
O2 Yb1 O2 98.27(25) 1_555 . 6_555 n
O2 Yb1 O2 180.0 1_555 . -1_556 n
O2 Yb1 O2 81.73(25) 1_555 . -6_556 n
O2 Yb1 O2 81.73(25) 6_555 . -1_556 n
O2 Yb1 O2 180.0 6_555 . -6_556 n
O2 Yb1 O2 98.27(25) -1_556 . -6_556 n
Ca Yb2 Ca 90.0 1_555 . 2_555 n
Ca Yb2 Ca 180.0 1_555 . 3_555 n
Ca Yb2 Ca 90.0 1_555 . 4_555 n
Ca Yb2 Yb1 0.0 1_555 . 1_555 n
Ca Yb2 Yb1 90.0 1_555 . 2_555 n
Ca Yb2 Yb1 180.0 1_555 . 3_555 n
Ca Yb2 Yb1 90.0 1_555 . 4_555 n
Ca Yb2 O2 38.05(12) 1_555 . 1_555 n
Ca Yb2 O2 109.10(11) 1_555 . 2_555 n
Ca Yb2 O2 141.95(12) 1_555 . 3_555 n
Ca Yb2 O2 70.90(11) 1_555 . 4_555 n
Ca Yb2 O2 109.10(11) 1_555 . -5_456 n
Ca Yb2 O2 38.05(12) 1_555 . -6_556 n
Ca Yb2 O2 70.90(11) 1_555 . -7_546 n
Ca Yb2 O2 141.95(12) 1_555 . -8_556 n
Ca Yb2 Ca 90.0 2_555 . 3_555 n
Ca Yb2 Ca 180.0 2_555 . 4_555 n
Ca Yb2 Yb1 90.0 2_555 . 1_555 n
Ca Yb2 Yb1 0.0 2_555 . 2_555 n
Ca Yb2 Yb1 90.0 2_555 . 3_555 n
Ca Yb2 Yb1 180.0 2_555 . 4_555 n
Ca Yb2 O2 70.90(11) 2_555 . 1_555 n
Ca Yb2 O2 38.05(12) 2_555 . 2_555 n
Ca Yb2 O2 109.10(11) 2_555 . 3_555 n
Ca Yb2 O2 141.95(12) 2_555 . 4_555 n
Ca Yb2 O2 141.95(12) 2_555 . -5_456 n
Ca Yb2 O2 109.10(11) 2_555 . -6_556 n
Ca Yb2 O2 38.05(12) 2_555 . -7_546 n
Ca Yb2 O2 70.90(11) 2_555 . -8_556 n
Ca Yb2 Ca 90.0 3_555 . 4_555 n
Ca Yb2 Yb1 180.0 3_555 . 1_555 n
Ca Yb2 Yb1 90.0 3_555 . 2_555 n
Ca Yb2 Yb1 0.0 3_555 . 3_555 n
Ca Yb2 Yb1 90.0 3_555 . 4_555 n
Ca Yb2 O2 141.95(12) 3_555 . 1_555 n
Ca Yb2 O2 70.90(11) 3_555 . 2_555 n
Ca Yb2 O2 38.05(12) 3_555 . 3_555 n
Ca Yb2 O2 109.10(11) 3_555 . 4_555 n
Ca Yb2 O2 70.90(11) 3_555 . -5_456 n
Ca Yb2 O2 141.95(12) 3_555 . -6_556 n
Ca Yb2 O2 109.10(11) 3_555 . -7_546 n
Ca Yb2 O2 38.05(12) 3_555 . -8_556 n
Ca Yb2 Yb1 90.0 4_555 . 1_555 n
Ca Yb2 Yb1 180.0 4_555 . 2_555 n
Ca Yb2 Yb1 90.0 4_555 . 3_555 n
Ca Yb2 Yb1 0.0 4_555 . 4_555 n
Ca Yb2 O2 109.10(11) 4_555 . 1_555 n
Ca Yb2 O2 141.95(12) 4_555 . 2_555 n
Ca Yb2 O2 70.90(11) 4_555 . 3_555 n
Ca Yb2 O2 38.05(12) 4_555 . 4_555 n
Ca Yb2 O2 38.05(12) 4_555 . -5_456 n
Ca Yb2 O2 70.90(11) 4_555 . -6_556 n
Ca Yb2 O2 141.95(12) 4_555 . -7_546 n
Ca Yb2 O2 109.10(11) 4_555 . -8_556 n
Yb1 Yb2 Yb1 90.0 1_555 . 2_555 n
Yb1 Yb2 Yb1 180.0 1_555 . 3_555 n
Yb1 Yb2 Yb1 90.0 1_555 . 4_555 n
Yb1 Yb2 O2 38.05(12) 1_555 . 1_555 n
Yb1 Yb2 O2 109.10(11) 1_555 . 2_555 n
Yb1 Yb2 O2 141.95(12) 1_555 . 3_555 n
Yb1 Yb2 O2 70.90(11) 1_555 . 4_555 n
Yb1 Yb2 O2 109.10(11) 1_555 . -5_456 n
Yb1 Yb2 O2 38.05(12) 1_555 . -6_556 n
Yb1 Yb2 O2 70.90(11) 1_555 . -7_546 n
Yb1 Yb2 O2 141.95(12) 1_555 . -8_556 n
Yb1 Yb2 Yb1 90.0 2_555 . 3_555 n
Yb1 Yb2 Yb1 180.0 2_555 . 4_555 n
Yb1 Yb2 O2 70.90(11) 2_555 . 1_555 n
Yb1 Yb2 O2 38.05(12) 2_555 . 2_555 n
Yb1 Yb2 O2 109.10(11) 2_555 . 3_555 n
Yb1 Yb2 O2 141.95(12) 2_555 . 4_555 n
Yb1 Yb2 O2 141.95(12) 2_555 . -5_456 n
Yb1 Yb2 O2 109.10(11) 2_555 . -6_556 n
Yb1 Yb2 O2 38.05(12) 2_555 . -7_546 n
Yb1 Yb2 O2 70.90(11) 2_555 . -8_556 n
Yb1 Yb2 Yb1 90.0 3_555 . 4_555 n
Yb1 Yb2 O2 141.95(12) 3_555 . 1_555 n
Yb1 Yb2 O2 70.90(11) 3_555 . 2_555 n
Yb1 Yb2 O2 38.05(12) 3_555 . 3_555 n
Yb1 Yb2 O2 109.10(11) 3_555 . 4_555 n
Yb1 Yb2 O2 70.90(11) 3_555 . -5_456 n
Yb1 Yb2 O2 141.95(12) 3_555 . -6_556 n
Yb1 Yb2 O2 109.10(11) 3_555 . -7_546 n
Yb1 Yb2 O2 38.05(12) 3_555 . -8_556 n
Yb1 Yb2 O2 109.10(11) 4_555 . 1_555 n
Yb1 Yb2 O2 141.95(12) 4_555 . 2_555 n
Yb1 Yb2 O2 70.90(11) 4_555 . 3_555 n
Yb1 Yb2 O2 38.05(12) 4_555 . 4_555 n
Yb1 Yb2 O2 38.05(12) 4_555 . -5_456 n
Yb1 Yb2 O2 70.90(11) 4_555 . -6_556 n
Yb1 Yb2 O2 141.95(12) 4_555 . -7_546 n
Yb1 Yb2 O2 109.10(11) 4_555 . -8_556 n
O2 Yb2 O2 74.17(11) 1_555 . 2_555 n
O2 Yb2 O2 117.04(23) 1_555 . 3_555 n
O2 Yb2 O2 74.17(11) 1_555 . 4_555 n
O2 Yb2 O2 142.02(22) 1_555 . -5_456 n
O2 Yb2 O2 76.09(24) 1_555 . -6_556 n
O2 Yb2 O2 75.95(22) 1_555 . -7_546 n
O2 Yb2 O2 141.79(21) 1_555 . -8_556 n
O2 Yb2 O2 74.17(11) 2_555 . 3_555 n
O2 Yb2 O2 117.04(23) 2_555 . 4_555 n
O2 Yb2 O2 141.79(21) 2_555 . -5_456 n
O2 Yb2 O2 142.02(22) 2_555 . -6_556 n
O2 Yb2 O2 76.09(24) 2_555 . -7_546 n
O2 Yb2 O2 75.95(22) 2_555 . -8_556 n
O2 Yb2 O2 74.17(11) 3_555 . 4_555 n
O2 Yb2 O2 75.95(22) 3_555 . -5_456 n
O2 Yb2 O2 141.79(21) 3_555 . -6_556 n
O2 Yb2 O2 142.02(22) 3_555 . -7_546 n
O2 Yb2 O2 76.09(24) 3_555 . -8_556 n
O2 Yb2 O2 76.09(24) 4_555 . -5_456 n
O2 Yb2 O2 75.95(22) 4_555 . -6_556 n
O2 Yb2 O2 141.79(21) 4_555 . -7_546 n
O2 Yb2 O2 142.02(22) 4_555 . -8_556 n
O2 Yb2 O2 74.17(11) -5_456 . -6_556 n
O2 Yb2 O2 117.04(23) -5_456 . -7_546 n
O2 Yb2 O2 74.17(11) -5_456 . -8_556 n
O2 Yb2 O2 74.17(11) -6_556 . -7_546 n
O2 Yb2 O2 117.04(23) -6_556 . -8_556 n
O2 Yb2 O2 74.17(11) -7_546 . -8_556 n
O1 Ge O1 108.8(5) 1_555 . -4_555 n
O1 Ge O2 104.74(25) 1_555 . 2_555 n
O1 Ge O2 108.16(30) 1_555 . -8_555 n
O1 Ge O2 108.16(30) -4_545 . 2_555 n
O1 Ge O2 104.74(25) -4_545 . -8_555 n
O2 Ge O2 121.83(33) 2_555 . -8_555 n
Ca O1 Yb1 0.0 3_555 . 3_555 n
Ca O1 Ge 111.01(25) 3_555 . 1_555 n
Ca O1 Ge 111.01(25) 3_555 . 6_665 n
Yb1 O1 Ge 111.01(25) 3_555 . 1_555 n
Yb1 O1 Ge 111.01(25) 3_555 . 6_665 n
Ge O1 Ge 127.1(4) 1_555 . 6_665 n
Ca O2 Yb1 0.0 1_555 . 1_555 n
Ca O2 Yb2 101.09(18) 1_555 . 1_555 n
Ca O2 Ge 128.50(27) 1_555 . 4_555 n
Yb1 O2 Yb2 101.09(18) 1_555 . 1_555 n
Yb1 O2 Ge 128.50(27) 1_555 . 4_555 n
Yb2 O2 Ge 129.26(27) 1_555 . 4_555 n
loop_
_geom_bond_atom_site_label_1
_geom_bond_atom_site_label_2
_geom_bond_distance
_geom_bond_site_symmetry_1
_geom_bond_site_symmetry_2
_geom_bond_publ_flag
Ca Yb2 3.510030(20) . 1_555 n
Ca Yb2 3.510030(20) . 5_545 n
Ca Ge 3.54249(8) . 3_555 n
Ca Ge 3.54249(8) . 3_556 n
Ca Ge 3.54249(8) . 4_555 n
Ca Ge 3.54249(8) . 4_556 n
Ca Ge 3.54249(8) . 7_455 n
Ca Ge 3.54249(8) . 7_456 n
Ca Ge 3.54249(8) . 8_445 n
Ca Ge 3.54249(8) . 8_446 n
Ca O1 2.471(7) . 3_555 n
Ca O1 2.471(7) . -3_446 n
Ca O2 2.204(5) . 1_555 n
Ca O2 2.204(5) . 6_555 n
Ca O2 2.204(5) . -1_556 n
Ca O2 2.204(5) . -6_556 n
Yb1 Yb2 3.510030(20) . 1_555 n
Yb1 Yb2 3.510030(20) . 5_545 n
Yb1 Ge 3.54249(8) . 3_555 n
Yb1 Ge 3.54249(8) . 3_556 n
Yb1 Ge 3.54249(8) . 4_555 n
Yb1 Ge 3.54249(8) . 4_556 n
Yb1 Ge 3.54249(8) . 7_455 n
Yb1 Ge 3.54249(8) . 7_456 n
Yb1 Ge 3.54249(8) . 8_445 n
Yb1 Ge 3.54249(8) . 8_446 n
Yb1 O1 2.471(7) . 3_555 n
Yb1 O1 2.471(7) . -3_446 n
Yb1 O2 2.204(5) . 1_555 n
Yb1 O2 2.204(5) . 6_555 n
Yb1 O2 2.204(5) . -1_556 n
Yb1 O2 2.204(5) . -6_556 n
Yb2 Ca 3.510030(20) . 1_555 n
Yb2 Ca 3.510030(20) . 2_555 n
Yb2 Ca 3.510030(20) . 3_555 n
Yb2 Ca 3.510030(20) . 4_555 n
Yb2 Yb1 3.510030(20) . 1_555 n
Yb2 Yb1 3.510030(20) . 2_555 n
Yb2 Yb1 3.510030(20) . 3_555 n
Yb2 Yb1 3.510030(20) . 4_555 n
Yb2 O2 2.340(5) . 1_555 n
Yb2 O2 2.340(5) . 2_555 n
Yb2 O2 2.340(5) . 3_555 n
Yb2 O2 2.340(5) . 4_555 n
Yb2 O2 2.340(5) . -5_556 n
Yb2 O2 2.340(5) . -6_556 n
Yb2 O2 2.340(5) . -7_556 n
Yb2 O2 2.340(5) . -8_556 n
Ge Ca 3.54249(8) . 2_554 n
Ge Ca 3.54249(8) . 2_555 n
Ge Ca 3.54249(8) . 3_554 n
Ge Ca 3.54249(8) . 3_555 n
Ge Yb1 3.54249(8) . 2_554 n
Ge Yb1 3.54249(8) . 2_555 n
Ge Yb1 3.54249(8) . 3_554 n
Ge Yb1 3.54249(8) . 3_555 n
Ge O1 1.8022(27) . 1_555 n
Ge O1 1.8022(27) . -4_645 n
Ge O2 1.722(5) . 2_555 n
Ge O2 1.722(5) . -8_555 n
O1 Ca 2.471(7) . 3_555 n
O1 Yb1 2.471(7) . 3_555 n
O1 Ge 1.8022(27) . 1_555 n
O1 Ge 1.8022(27) . 6_665 n
O2 Ca 2.204(5) . 1_555 n
O2 Yb1 2.204(5) . 1_555 n
O2 Yb2 2.340(5) . 1_555 n
O2 Ge 1.722(5) . 4_555 n
loop_
_pd_meas_counts_total
_pd_proc_ls_weight
_pd_proc_intensity_bkg_calc
_pd_calc_intensity_total
6473.0 0.0000772 6571.32813 6571.32813
6379.0 0.0000784 6510.35498 6510.35498
6333.0 0.0000790 6452.41016 6452.41016
6294.0 0.0000794 6397.34131 6397.34131
6380.0 0.0000784 6345.00391 6345.00439
6315.0 0.0000792 6295.25684 6295.25732
6290.0 0.0000795 6247.97119 6247.97168
6246.0 0.0000801 6203.01611 6203.01611
6071.0 0.0000824 6160.27344 6160.27393
6252.0 0.0000800 6119.62598 6119.62646
6091.0 0.0000821 6080.96338 6080.96387
6056.0 0.0000826 6044.17920 6044.17969
6104.0 0.0000819 6009.17383 6009.17432
5964.0 0.0000838 5975.84863 5975.84912
6097.0 0.0000820 5944.11475 5944.11523
6028.0 0.0000829 5913.88477 5913.88525
5870.0 0.0000852 5885.07275 5885.07324
5812.0 0.0000860 5857.60205 5857.60254
5748.0 0.0000870 5831.39648 5831.39648
5967.0 0.0000838 5806.38379 5806.38379
5830.0 0.0000858 5782.49609 5782.49658
5719.0 0.0000874 5759.66895 5759.66943
5812.0 0.0000860 5737.84180 5737.84180
5714.0 0.0000875 5716.95459 5716.95508
5804.0 0.0000861 5696.95313 5696.95361
5619.0 0.0000890 5677.78467 5677.78467
5735.0 0.0000872 5659.39990 5659.39990
5574.0 0.0000897 5641.75098 5641.75098
5609.0 0.0000891 5624.79443 5624.79443
5798.0 0.0000862 5608.48730 5608.48730
5710.0 0.0000876 5592.79004 5592.79004
5586.0 0.0000895 5577.66602 5577.66602
5378.0 0.0000930 5563.07959 5563.07959
5548.0 0.0000901 5548.99805 5548.99756
5737.0 0.0000872 5535.38818 5535.38818
5467.0 0.0000915 5522.22168 5522.22168
5501.0 0.0000909 5509.47168 5509.47119
5402.0 0.0000926 5497.11035 5497.11035
5463.0 0.0000915 5485.11377 5485.11377
5586.0 0.0000895 5473.45996 5473.45996
5426.0 0.0000921 5462.12744 5462.12695
5436.0 0.0000920 5451.09521 5451.09473
5315.0 0.0000941 5440.34473 5440.34473
5424.0 0.0000922 5429.85986 5429.85938
5673.0 0.0000881 5419.62256 5419.62207
5452.0 0.0000917 5409.61865 5409.61816
5361.0 0.0000933 5399.83350 5399.83301
5342.0 0.0000936 5390.25488 5390.25488
5400.0 0.0000926 5380.87012 5380.87012
5491.0 0.0000911 5371.66895 5371.66846
5294.0 0.0000944 5362.63965 5362.63916
5294.0 0.0000944 5353.77344 5353.77344
5325.0 0.0000939 5345.06152 5345.06104
5308.0 0.0000942 5336.49609 5336.49561
5288.0 0.0000946 5328.06982 5328.06934
5230.0 0.0000956 5319.77490 5319.77441
5220.0 0.0000958 5311.60693 5311.60645
5161.0 0.0000969 5303.55908 5303.55859
5227.0 0.0000957 5295.62695 5295.62646
5474.0 0.0000913 5287.80615 5287.80615
5102.0 0.0000980 5280.09180 5280.09131
5249.0 0.0000953 5272.48096 5272.48047
5191.0 0.0000963 5264.96973 5264.96973
5183.0 0.0000965 5257.55615 5257.55566
5399.0 0.0000926 5250.23633 5250.23633
5189.0 0.0000964 5243.00977 5243.00977
5065.0 0.0000987 5235.87305 5235.87305
5291.0 0.0000945 5228.82520 5228.82471
5121.0 0.0000976 5221.86426 5221.86426
5315.0 0.0000941 5214.98975 5214.98975
5147.0 0.0000971 5208.19971 5208.19971
5251.0 0.0000952 5201.49316 5201.49316
5111.0 0.0000978 5194.87061 5194.87061
5097.0 0.0000981 5188.33105 5188.33105
5273.0 0.0000948 5181.87354 5181.87354
5157.0 0.0000970 5175.49854 5175.49854
5020.0 0.0000996 5169.20508 5169.20508
5053.0 0.0000990 5162.99414 5162.99414
5154.0 0.0000970 5156.86377 5156.86377
5332.0 0.0000938 5150.81543 5150.81592
5152.0 0.0000970 5144.84863 5144.84863
5176.0 0.0000966 5138.96387 5138.96387
5081.0 0.0000984 5133.16162 5133.16162
5108.0 0.0000979 5127.44092 5127.44092
5236.0 0.0000955 5121.80225 5121.80225
4991.0 0.0001002 5116.24609 5116.24609
5131.0 0.0000974 5110.77246 5110.77246
4980.0 0.0001004 5105.38184 5105.38184
5022.0 0.0000996 5100.07275 5100.07324
5095.0 0.0000981 5094.84717 5094.84717
5014.0 0.0000997 5089.70459 5089.70459
5103.0 0.0000980 5084.64453 5084.64453
5080.0 0.0000984 5079.66748 5079.66748
5010.0 0.0000998 5074.77246 5074.77295
5110.0 0.0000978 5069.96094 5069.96094
4992.0 0.0001002 5065.23145 5065.23145
4996.0 0.0001001 5060.58301 5060.58350
5119.0 0.0000977 5056.01758 5056.01807
4978.0 0.0001004 5051.53369 5051.53369
5196.0 0.0000962 5047.13037 5047.13086
4992.0 0.0001002 5042.80762 5042.80811
5132.0 0.0000974 5038.56543 5038.56543
5037.0 0.0000993 5034.40234 5034.40234
5056.0 0.0000989 5030.31787 5030.31787
5355.0 0.0000934 5026.31104 5026.31152
4950.0 0.0001010 5022.38184 5022.38232
5022.0 0.0000996 5018.52881 5018.52930
4970.0 0.0001006 5014.75146 5014.75146
5014.0 0.0000997 5011.04834 5011.04834
5151.0 0.0000971 5007.41846 5007.41895
5022.0 0.0000996 5003.86035 5003.86084
4891.0 0.0001022 5000.37402 5000.37402
5033.0 0.0000993 4996.95654 4996.95703
5033.0 0.0000993 4993.60791 4993.60791
5171.0 0.0000967 4990.32568 4990.32617
4934.0 0.0001013 4987.10986 4987.10986
4951.0 0.0001010 4983.95752 4983.95752
4827.0 0.0001036 4980.86768 4980.86816
4979.0 0.0001004 4977.83887 4977.83936
5277.0 0.0000948 4974.86914 4974.86963
4963.0 0.0001007 4971.95752 4971.95752
4879.0 0.0001025 4969.10059 4969.10107
4963.0 0.0001007 4966.29883 4966.29883
4844.0 0.0001032 4963.54834 4963.54883
5085.0 0.0000983 4960.84863 4960.84912
4900.0 0.0001020 4958.19727 4958.19727
4998.0 0.0001000 4955.59229 4955.59277
4976.0 0.0001005 4953.03174 4953.03223
5006.0 0.0000999 4950.51367 4950.51367
5049.0 0.0000990 4948.03564 4948.03613
5012.0 0.0000998 4945.59619 4945.59668
4916.0 0.0001017 4943.19287 4943.19336
5035.0 0.0000993 4940.82422 4940.82422
4845.0 0.0001032 4938.48730 4938.48730
5049.0 0.0000990 4936.18018 4936.18018
4926.0 0.0001015 4933.90088 4933.90088
4998.0 0.0001000 4931.64697 4931.64697
4964.0 0.0001007 4929.41650 4929.41650
4779.0 0.0001046 4927.20703 4927.20703
5120.0 0.0000977 4925.01660 4925.01709
4890.0 0.0001022 4922.84326 4922.84375
5026.0 0.0000995 4920.68457 4920.68506
4894.0 0.0001022 4918.53857 4918.53857
5081.0 0.0000984 4916.40283 4916.40283
5121.0 0.0000976 4914.27490 4914.27490
4877.0 0.0001025 4912.15332 4912.15332
4927.0 0.0001015 4910.03467 4910.03467
4936.0 0.0001013 4907.91846 4907.91846
4977.0 0.0001005 4905.80176 4905.80225
5012.0 0.0000998 4903.68311 4903.68311
4840.0 0.0001033 4901.55908 4901.55908
4888.0 0.0001023 4899.42920 4899.42920
4937.0 0.0001013 4897.29053 4897.29053
4923.0 0.0001016 4895.14111 4895.14111
5055.0 0.0000989 4892.97852 4892.97852
4827.0 0.0001036 4890.80225 4890.80225
4930.0 0.0001014 4888.60889 4888.60889
4875.0 0.0001026 4886.39795 4886.39795
4861.0 0.0001029 4884.16650 4884.16650
5038.0 0.0000992 4881.91309 4881.91309
4887.0 0.0001023 4879.63623 4879.63623
4868.0 0.0001027 4877.33350 4877.33350
4755.0 0.0001052 4875.00391 4875.00391
4893.0 0.0001022 4872.64502 4872.64502
4952.0 0.0001010 4870.25635 4870.25635
4851.0 0.0001031 4867.83594 4867.83545
4790.0 0.0001044 4865.38184 4865.38184
4888.0 0.0001023 4862.89258 4862.89258
4866.0 0.0001028 4860.36719 4860.36719
5139.0 0.0000973 4857.80420 4857.80420
5020.0 0.0000996 4855.20264 4855.20215
4775.0 0.0001047 4852.55957 4852.55957
4819.0 0.0001038 4849.87598 4849.87598
4945.0 0.0001011 4847.14941 4847.14941
5020.0 0.0000996 4844.37891 4844.37891
4911.0 0.0001018 4841.56396 4841.56348
4889.0 0.0001023 4838.70313 4838.70264
4827.0 0.0001036 4835.79492 4835.79492
4752.0 0.0001052 4832.83984 4832.83936
4895.0 0.0001021 4829.83496 4829.83496
4754.0 0.0001052 4826.78174 4826.78125
4849.0 0.0001031 4823.67773 4823.67773
4674.0 0.0001070 4820.52344 4820.52295
4897.0 0.0001021 4817.31738 4817.31738
4889.0 0.0001023 4814.05957 4814.05957
4653.0 0.0001075 4810.74902 4810.74854
4820.0 0.0001037 4807.38525 4807.38525
4689.0 0.0001066 4803.96826 4803.96826
4755.0 0.0001052 4800.49756 4800.49707
4877.0 0.0001025 4796.97266 4796.97266
4606.0 0.0001086 4793.39355 4793.39355
4820.0 0.0001037 4789.75977 4789.75977
4714.0 0.0001061 4786.07178 4786.07129
4769.0 0.0001048 4782.32861 4782.32861
4911.0 0.0001018 4778.53076 4778.53076
4648.0 0.0001076 4774.67773 4774.67773
4606.0 0.0001086 4770.77100 4770.77051
4702.0 0.0001063 4766.80908 4766.80859
4715.0 0.0001060 4762.79297 4762.79248
4831.0 0.0001035 4758.72266 4758.72217
4628.0 0.0001080 4754.59863 4754.59814
4625.0 0.0001081 4750.42090 4750.42041
4613.0 0.0001084 4746.18994 4746.18994
4620.0 0.0001082 4741.90674 4741.90625
4824.0 0.0001036 4737.57080 4737.57031
4657.0 0.0001074 4733.18311 4733.18262
4598.0 0.0001087 4728.74463 4728.74414
4733.0 0.0001056 4724.25537 4724.25537
4610.0 0.0001085 4719.71631 4719.71631
4745.0 0.0001054 4715.12842 4715.12842
4696.0 0.0001065 4710.49170 4710.49170
4529.0 0.0001104 4705.80762 4705.80762
4584.0 0.0001091 4701.07715 4701.07666
4530.0 0.0001104 4696.29980 4696.29980
4808.0 0.0001040 4691.47803 4691.47803
4558.0 0.0001097 4686.61230 4686.61182
4702.0 0.0001063 4681.70361 4681.70313
4589.0 0.0001090 4676.75244 4676.75244
4724.0 0.0001058 4671.76074 4671.76025
4603.0 0.0001086 4666.72900 4666.72900
4541.0 0.0001101 4661.65820 4661.65820
4577.0 0.0001092 4656.55029 4656.55029
4665.0 0.0001072 4651.40576 4651.40576
4594.0 0.0001088 4646.22656 4646.22607
4557.0 0.0001097 4641.01270 4641.01270
4547.0 0.0001100 4635.76660 4635.76660
4582.0 0.0001091 4630.48975 4630.48926
4606.0 0.0001086 4625.18213 4625.18213
4460.0 0.0001121 4619.84619 4619.84619
4766.0 0.0001049 4614.48242 4614.48242
4591.0 0.0001089 4609.09375 4609.09326
4532.0 0.0001103 4603.68018 4603.67969
4475.0 0.0001117 4598.24365 4598.24365
4484.0 0.0001115 4592.78564 4592.78564
4767.0 0.0001049 4587.30811 4587.30762
4596.0 0.0001088 4581.81152 4581.81104
4510.0 0.0001109 4576.29785 4576.29785
4575.0 0.0001093 4570.76904 4570.76904
4532.0 0.0001103 4565.22559 4565.22559
4674.0 0.0001070 4559.67090 4559.67041
4444.0 0.0001125 4554.10449 4554.10449
4509.0 0.0001109 4548.52930 4548.52930
4549.0 0.0001099 4542.94678 4542.94629
4521.0 0.0001106 4537.35791 4537.35742
4499.0 0.0001111 4531.76416 4531.76416
4454.0 0.0001123 4526.16797 4526.16797
4487.0 0.0001114 4520.57031 4520.57031
4480.0 0.0001116 4514.97363 4514.97363
4431.0 0.0001128 4509.37842 4509.37842
4562.0 0.0001096 4503.78711 4503.78711
4425.0 0.0001130 4498.20117 4498.20117
4455.0 0.0001122 4492.62207 4492.62207
4479.0 0.0001116 4487.05127 4487.05127
4473.0 0.0001118 4481.49023 4481.49023
4535.0 0.0001103 4475.94141 4475.94141
4503.0 0.0001110 4470.40527 4470.40527
4346.0 0.0001150 4464.88477 4464.88477
4441.0 0.0001126 4459.38037 4459.38037
4488.0 0.0001114 4453.89404 4453.89404
4523.0 0.0001105 4448.42773 4448.42773
4344.0 0.0001151 4442.98242 4442.98242
4408.0 0.0001134 4437.55957 4437.55957
4474.0 0.0001118 4432.16162 4432.16162
4400.0 0.0001136 4426.78857 4426.78857
4447.0 0.0001124 4421.44336 4421.44385
4340.0 0.0001152 4416.12744 4416.12744
4367.0 0.0001145 4410.84131 4410.84180
4402.0 0.0001136 4405.58740 4405.58789
4456.0 0.0001122 4400.36670 4400.36719
4495.0 0.0001112 4395.18066 4395.18115
4355.0 0.0001148 4390.03076 4390.03076
4473.0 0.0001118 4384.91846 4384.91846
4359.0 0.0001147 4379.84473 4379.84521
4397.0 0.0001137 4374.81152 4374.81201
4407.0 0.0001135 4369.82031 4369.82031
4365.0 0.0001145 4364.87158 4364.87207
4422.0 0.0001131 4359.96729 4359.96777
4358.0 0.0001147 4355.10889 4355.10889
4399.0 0.0001137 4350.29688 4350.29688
4504.0 0.0001110 4345.53223 4345.53223
4386.0 0.0001140 4340.81738 4340.81738
4350.0 0.0001149 4336.15283 4336.15332
4265.0 0.0001172 4331.54004 4331.54004
4386.0 0.0001140 4326.97949 4326.97949
4419.0 0.0001131 4322.47314 4322.47314
4486.0 0.0001115 4318.02100 4318.02148
4429.0 0.0001129 4313.62500 4313.62549
4244.0 0.0001178 4309.28564 4309.28613
4426.0 0.0001130 4305.00439 4305.00439
4480.0 0.0001116 4300.78174 4300.78174
4195.0 0.0001192 4296.61865 4296.61914
4302.0 0.0001162 4292.51660 4292.51709
4371.0 0.0001144 4288.47607 4288.47607
4179.0 0.0001196 4284.49756 4284.49756
4431.0 0.0001128 4280.58203 4280.58203
4272.0 0.0001170 4276.73047 4276.73047
4318.0 0.0001158 4272.94336 4272.94336
4325.0 0.0001156 4269.22168 4269.22217
4357.0 0.0001148 4265.56592 4265.56641
4377.0 0.0001142 4261.97705 4261.97754
4322.0 0.0001157 4258.45557 4258.45557
4356.0 0.0001148 4255.00146 4255.00195
4257.0 0.0001175 4251.61621 4251.61621
4367.0 0.0001145 4248.29883 4248.29932
4397.0 0.0001137 4245.05176 4245.05176
4225.0 0.0001183 4241.87402 4241.87402
4270.0 0.0001171 4238.76660 4238.76709
4254.0 0.0001175 4235.72998 4235.72998
4272.0 0.0001170 4232.76416 4232.76416
4312.0 0.0001160 4229.86914 4229.86963
4300.0 0.0001163 4227.04639 4227.04639
4201.0 0.0001190 4224.29443 4224.29492
4203.0 0.0001190 4221.61523 4221.61523
4232.0 0.0001181 4219.00781 4219.00830
4399.0 0.0001137 4216.47266 4216.47314
4214.0 0.0001187 4214.01025 4214.01025
4268.0 0.0001172 4211.62012 4211.62012
4261.0 0.0001173 4209.30225 4209.30273
4166.0 0.0001200 4207.05713 4207.05762
4312.0 0.0001160 4204.88428 4204.88477
4237.0 0.0001180 4202.78418 4202.78467
4253.0 0.0001176 4200.75586 4200.75635
4218.0 0.0001185 4198.80029 4198.80029
4272.0 0.0001170 4196.91650 4196.91650
4297.0 0.0001164 4195.10449 4195.10498
4168.0 0.0001200 4193.36475 4193.36475
4159.0 0.0001202 4191.69580 4191.69580
4110.0 0.0001217 4190.09814 4190.09814
4300.0 0.0001163 4188.57080 4188.57129
4453.0 0.0001123 4187.11475 4187.11475
4216.0 0.0001186 4185.72803 4185.72852
4241.0 0.0001179 4184.41162 4184.41211
4085.0 0.0001224 4183.16406 4183.16455
4284.0 0.0001167 4181.98535 4181.98584
4390.0 0.0001139 4180.87500 4180.87549
4013.0 0.0001246 4179.83252 4179.83252
4089.0 0.0001223 4178.85693 4178.85693
4238.0 0.0001180 4177.94775 4177.94824
4182.0 0.0001196 4177.10498 4177.10498
4392.0 0.0001138 4176.32764 4176.32764
4092.0 0.0001222 4175.61475 4175.61475
4237.0 0.0001180 4174.96582 4174.96582
4068.0 0.0001229 4174.37988 4174.38037
4219.0 0.0001185 4173.85693 4173.85693
4192.0 0.0001193 4173.39551 4173.39600
4143.0 0.0001207 4172.99561 4172.99561
4302.0 0.0001162 4172.65479 4172.65527
4155.0 0.0001203 4172.37354 4172.37402
4138.0 0.0001208 4172.15137 4172.15137
4233.0 0.0001181 4171.98633 4171.98633
4153.0 0.0001204 4171.87793 4171.87793
4152.0 0.0001204 4171.82520 4171.82520
4209.0 0.0001188 4171.82666 4171.82715
4077.0 0.0001226 4171.88232 4171.88232
4327.0 0.0001156 4171.99023 4171.99023
4167.0 0.0001200 4172.15039 4172.15039
4201.0 0.0001190 4172.36084 4172.36084
4181.0 0.0001196 4172.62109 4172.62109
4158.0 0.0001203 4172.92969 4172.92969
4324.0 0.0001156 4173.28564 4173.28564
4089.0 0.0001223 4173.68799 4173.68799
4170.0 0.0001199 4174.13525 4174.13525
4107.0 0.0001217 4174.62646 4174.62646
4191.0 0.0001193 4175.16064 4175.16064
4244.0 0.0001178 4175.73584 4175.73584
4096.0 0.0001221 4176.35205 4176.35205
4127.0 0.0001212 4177.00732 4177.00732
4226.0 0.0001183 4177.70068 4177.70068
4107.0 0.0001217 4178.43018 4178.43018
4230.0 0.0001182 4179.19580 4179.19580
4036.0 0.0001239 4179.99512 4179.99512
4165.0 0.0001200 4180.82715 4180.82715
4105.0 0.0001218 4181.69092 4181.69092
4198.0 0.0001191 4182.58496 4182.58496
4294.0 0.0001164 4183.50830 4183.50781
4181.0 0.0001196 4184.45898 4184.45898
4053.0 0.0001234 4185.43604 4185.43604
4192.0 0.0001193 4186.43799 4186.43750
4119.0 0.0001214 4187.46289 4187.46289
4161.0 0.0001202 4188.51074 4188.51074
4121.0 0.0001213 4189.57910 4189.57910
4190.0 0.0001193 4190.66748 4190.66748
4183.0 0.0001195 4191.77344 4191.77344
4091.0 0.0001222 4192.89648 4192.89648
4184.0 0.0001195 4194.03467 4194.03467
4146.0 0.0001206 4195.18701 4195.18652
4011.0 0.0001247 4196.35107 4196.35107
4156.0 0.0001203 4197.52686 4197.52686
4182.0 0.0001196 4198.71240 4198.71240
4159.0 0.0001202 4199.90625 4199.90625
4108.0 0.0001217 4201.10693 4201.10693
4128.0 0.0001211 4202.31348 4202.31299
4187.0 0.0001194 4203.52344 4203.52344
4129.0 0.0001211 4204.73633 4204.73633
4202.0 0.0001190 4205.95068 4205.95068
4174.0 0.0001198 4207.16504 4207.16455
4193.0 0.0001192 4208.37744 4208.37695
4216.0 0.0001186 4209.58691 4209.58691
4236.0 0.0001180 4210.79248 4210.79199
4253.0 0.0001176 4211.99170 4211.99170
4153.0 0.0001204 4213.18408 4213.18408
4115.0 0.0001215 4214.36816 4214.36768
4215.0 0.0001186 4215.54199 4215.54150
4245.0 0.0001178 4216.70459 4216.70410
4221.0 0.0001185 4217.85449 4217.85400
4155.0 0.0001203 4218.99023 4218.99023
4079.0 0.0001226 4220.11084 4220.11035
4164.0 0.0001201 4221.21436 4221.21436
4139.0 0.0001208 4222.30029 4222.29980
4269.0 0.0001171 4223.36621 4223.36621
4204.0 0.0001189 4224.41162 4224.41162
4114.0 0.0001215 4225.43457 4225.43457
4225.0 0.0001183 4226.43457 4226.43408
4256.0 0.0001175 4227.40967 4227.40967
4135.0 0.0001209 4228.35889 4228.35889
4054.0 0.0001233 4229.28076 4229.28076
4172.0 0.0001198 4230.17432 4230.17383
4224.0 0.0001184 4231.03760 4231.03760
4195.0 0.0001192 4231.87012 4231.86963
4372.0 0.0001144 4232.66992 4232.66992
4171.0 0.0001199 4233.43652 4233.43652
4278.0 0.0001169 4234.16797 4234.16797
4185.0 0.0001195 4234.86377 4234.86377
4261.0 0.0001173 4235.52295 4235.52246
4317.0 0.0001158 4236.14307 4236.14307
4230.0 0.0001182 4236.72412 4236.72412
4202.0 0.0001190 4237.26465 4237.26416
4277.0 0.0001169 4237.76318 4237.76318
4284.0 0.0001167 4238.21875 4238.21875
4349.0 0.0001150 4238.63086 4238.63037
4283.0 0.0001167 4238.99756 4238.99756
4098.0 0.0001220 4239.31885 4239.31836
4231.0 0.0001182 4239.59229 4239.59229
4165.0 0.0001200 4239.81787 4239.81787
4232.0 0.0001181 4239.99463 4239.99414
4152.0 0.0001204 4240.12109 4240.12061
4155.0 0.0001203 4240.19580 4240.19580
4113.0 0.0001216 4240.21924 4240.21875
4177.0 0.0001197 4240.18945 4240.18896
4439.0 0.0001126 4240.10547 4240.10547
4164.0 0.0001201 4239.96680 4239.96680
4120.0 0.0001214 4239.77246 4239.77246
4286.0 0.0001167 4239.52197 4239.52148
4182.0 0.0001196 4239.21338 4239.21338
4248.0 0.0001177 4238.84668 4238.84619
4059.0 0.0001232 4238.42139 4238.42090
4196.0 0.0001192 4237.93555 4237.93555
4219.0 0.0001185 4237.38965 4237.38916
4213.0 0.0001187 4236.78223 4236.78174
4341.0 0.0001152 4236.11279 4236.11230
4240.0 0.0001179 4235.38037 4235.38037
4305.0 0.0001161 4234.58496 4234.58447
4156.0 0.0001203 4233.72510 4233.72461
4237.0 0.0001180 4232.80029 4232.79980
4299.0 0.0001163 4231.81006 4231.81006
4121.0 0.0001213 4230.75439 4230.75439
4235.0 0.0001181 4229.63184 4229.63184
4192.0 0.0001193 4228.44238 4228.44238
4181.0 0.0001196 4227.18506 4227.18506
4328.0 0.0001155 4225.85986 4225.85986
4155.0 0.0001203 4224.46582 4224.46582
4136.0 0.0001209 4223.00244 4223.00244
4199.0 0.0001191 4221.46973 4221.46973
4185.0 0.0001195 4219.86719 4219.86719
4232.0 0.0001181 4218.19434 4218.19434
4213.0 0.0001187 4216.45068 4216.45020
4110.0 0.0001217 4214.63574 4214.63574
4166.0 0.0001200 4212.74951 4212.74951
4153.0 0.0001204 4210.79150 4210.79102
4318.0 0.0001158 4208.76123 4208.76074
4238.0 0.0001180 4206.65869 4206.65869
4187.0 0.0001194 4204.48340 4204.48340
4161.0 0.0001202 4202.23584 4202.23535
4157.0 0.0001203 4199.91504 4199.91455
4330.0 0.0001155 4197.52100 4197.52100
4134.0 0.0001209 4195.05371 4195.05322
4202.0 0.0001190 4192.51270 4192.51270
4020.0 0.0001244 4189.89844 4189.89844
4253.0 0.0001176 4187.20996 4187.20996
4199.0 0.0001191 4184.44824 4184.44824
4055.0 0.0001233 4181.61279 4181.61279
4076.0 0.0001227 4178.70361 4178.70313
4116.0 0.0001215 4175.72021 4175.72021
4189.0 0.0001194 4172.66309 4172.66309
4274.0 0.0001170 4169.53223 4169.53223
4144.0 0.0001207 4166.32764 4166.32764
4172.0 0.0001198 4163.04932 4163.04932
4132.0 0.0001210 4159.69775 4159.69775
4181.0 0.0001196 4156.27246 4156.27246
4256.0 0.0001175 4152.77393 4152.77393
4152.0 0.0001204 4149.20264 4149.20264
4144.0 0.0001207 4145.55811 4145.55811
4141.0 0.0001207 4141.84131 4141.84131
4070.0 0.0001229 4138.05176 4138.05127
4416.0 0.0001132 4134.18945 4185.17236
4030.0 0.0001241 4130.25586 4184.23291
4074.0 0.0001227 4126.25049 4183.49316
4099.0 0.0001220 4122.17334 4182.98877
4155.0 0.0001203 4118.02539 4182.75781
4258.0 0.0001174 4113.80713 4182.84814
4130.0 0.0001211 4109.51807 4183.31250
4016.0 0.0001245 4105.15918 4184.21582
4148.0 0.0001205 4100.73047 4185.63281
4161.0 0.0001202 4096.23242 4187.65430
4268.0 0.0001172 4091.66650 4190.38965
4216.0 0.0001186 4087.03174 4193.96680
4160.0 0.0001202 4082.32959 4198.54688
4252.0 0.0001176 4077.56006 4204.32373
4143.0 0.0001207 4072.72363 4211.53809
4211.0 0.0001187 4067.82104 4220.49219
4198.0 0.0001191 4062.85303 4231.56592
4191.0 0.0001193 4057.81934 4245.24463
4254.0 0.0001175 4052.72144 4262.15771
4344.0 0.0001151 4047.55933 4283.13037
4550.0 0.0001099 4042.33447 4309.26318
4491.0 0.0001113 4037.04639 4342.05908
4675.0 0.0001070 4031.69653 4383.67432
4879.0 0.0001025 4026.28516 4437.56201
5171.0 0.0000967 4020.81299 4510.46533
5657.0 0.0000884 4015.28052 4618.19971
6040.0 0.0000828 4009.68921 4799.47412
6633.0 0.0000754 4004.03906 5140.92285
7136.0 0.0000701 3998.33130 5808.28418
8243.0 0.0000607 3992.56592 7064.35791
9937.0 0.0000503 3986.74463 9242.01758
11746.0 0.0000426 3980.86743 12630.22852
14627.0 0.0000342 3974.93555 17261.38867
18736.0 0.0000267 3968.94971 22768.95898
23764.0 0.0000210 3962.91016 28247.83203
30758.0 0.0000163 3956.81885 32189.96289
34483.0 0.0000145 3950.67578 33360.94531
35114.0 0.0000142 3944.48193 31060.16406
29394.0 0.0000170 3938.23853 25612.21484
20974.0 0.0000238 3931.94604 18956.40625
14201.0 0.0000352 3925.60547 13125.88281
8997.0 0.0000556 3919.21777 9049.03027
6594.0 0.0000758 3912.78320 6672.70166
5313.0 0.0000941 3906.30396 5473.40381
4851.0 0.0001031 3899.78003 4911.75049
4690.0 0.0001066 3893.21289 4636.91650
4150.0 0.0001205 3886.60254 4478.86670
4318.0 0.0001158 3879.95117 4370.65186
4093.0 0.0001222 3873.25879 4288.30566
4127.0 0.0001212 3866.52686 4222.44189
4219.0 0.0001185 3859.75562 4168.33008
4110.0 0.0001217 3852.94727 4123.00684
3852.0 0.0001298 3846.10205 4084.41064
3833.0 0.0001304 3839.22119 4051.05273
3851.0 0.0001298 3832.30542 4021.82983
3919.0 0.0001276 3825.35596 3995.91431
3805.0 0.0001314 3818.37354 3972.67236
3867.0 0.0001293 3811.35962 3951.61499
3728.0 0.0001341 3804.31494 3932.35840
3736.0 0.0001338 3797.24023 3914.59839
3910.0 0.0001279 3790.13745 3898.09326
3764.0 0.0001328 3783.00708 3882.64575
3704.0 0.0001350 3775.85010 3868.09644
3719.0 0.0001344 3768.66748 3854.31470
3694.0 0.0001354 3761.46069 3841.19165
3789.0 0.0001320 3754.23022 3828.63745
3738.0 0.0001338 3746.97778 3816.57690
3698.0 0.0001352 3739.70337 3804.94556
3603.0 0.0001388 3732.40942 3793.69141
3622.0 0.0001380 3725.09619 3782.76758
3820.0 0.0001309 3717.76514 3772.13599
3520.0 0.0001420 3710.41650 3710.41675
3577.0 0.0001398 3703.05249 3703.05273
3641.0 0.0001373 3695.67358 3695.67383
3737.0 0.0001338 3688.28101 3688.28125
3739.0 0.0001337 3680.87500 3680.87524
3641.0 0.0001373 3673.45801 3673.45825
3526.0 0.0001418 3666.03027 3666.03052
3578.0 0.0001397 3658.59326 3658.59351
3478.0 0.0001438 3651.14771 3651.14795
3689.0 0.0001355 3643.69507 3643.69531
3532.0 0.0001416 3636.23584 3636.23608
3496.0 0.0001430 3628.77148 3628.77173
3515.0 0.0001422 3621.30322 3621.30347
3577.0 0.0001398 3613.83130 3613.83179
3687.0 0.0001356 3606.35815 3606.35840
3605.0 0.0001387 3598.88354 3598.88379
3642.0 0.0001373 3591.40967 3591.40991
3630.0 0.0001377 3583.93628 3583.93652
3736.0 0.0001338 3576.46582 3576.46606
3693.0 0.0001354 3568.99805 3568.99829
3451.0 0.0001449 3561.53491 3561.53540
3583.0 0.0001395 3554.07666 3554.07690
3588.0 0.0001394 3546.62549 3546.62573
3506.0 0.0001426 3539.18115 3539.18164
3580.0 0.0001397 3531.74585 3531.74609
3505.0 0.0001427 3524.31958 3524.31982
3404.0 0.0001469 3516.90405 3516.90430
3566.0 0.0001402 3509.49976 3509.50000
3487.0 0.0001434 3502.10815 3502.10864
3486.0 0.0001434 3494.72974 3494.72998
3447.0 0.0001451 3487.36621 3487.36646
3469.0 0.0001441 3480.01782 3480.01807
3420.0 0.0001462 3472.68628 3472.68652
3483.0 0.0001436 3465.37183 3465.37207
3482.0 0.0001436 3458.07593 3458.07642
3388.0 0.0001476 3450.79932 3450.79956
3471.0 0.0001441 3443.54248 3443.54272
3457.0 0.0001446 3436.30786 3436.30811
3530.0 0.0001416 3429.09448 3429.09473
3483.0 0.0001436 3421.90479 3421.90503
3390.0 0.0001475 3414.73877 3414.73901
3391.0 0.0001474 3407.59790 3407.59814
3379.0 0.0001480 3400.48267 3400.48291
3343.0 0.0001496 3393.39429 3393.39453
3335.0 0.0001499 3386.33325 3386.33350
3268.0 0.0001530 3379.30103 3379.30127
3293.0 0.0001518 3372.29736 3372.29761
3308.0 0.0001511 3365.32446 3365.32471
3327.0 0.0001503 3358.38232 3358.38257
3444.0 0.0001452 3351.47217 3351.47241
3302.0 0.0001514 3344.59448 3344.59473
3269.0 0.0001530 3337.75049 3337.75073
3276.0 0.0001526 3330.94067 3330.94092
3185.0 0.0001570 3324.16602 3324.16602
3436.0 0.0001455 3317.42651 3317.42676
3282.0 0.0001523 3310.72437 3310.72461
3236.0 0.0001545 3304.05908 3304.05933
3297.0 0.0001517 3297.43237 3297.43262
3198.0 0.0001563 3290.84399 3290.84424
3362.0 0.0001487 3284.29565 3284.29565
3166.0 0.0001579 3277.78711 3277.78735
3201.0 0.0001562 3271.31934 3271.31958
3228.0 0.0001549 3264.89404 3264.89429
3112.0 0.0001607 3258.51025 3258.51050
3280.0 0.0001524 3252.16992 3252.17017
3242.0 0.0001542 3245.87305 3245.87329
3158.0 0.0001583 3239.62061 3239.62085
3206.0 0.0001560 3233.41284 3233.41309
3157.0 0.0001584 3227.25098 3227.25098
3182.0 0.0001571 3221.13477 3221.13477
3088.0 0.0001619 3215.06543 3215.06567
3210.0 0.0001558 3209.04297 3209.04321
3171.0 0.0001577 3203.06885 3203.06909
3214.0 0.0001556 3197.14282 3197.14307
3282.0 0.0001523 3191.26611 3191.26611
3271.0 0.0001529 3185.43848 3185.43848
3143.0 0.0001591 3179.66089 3179.66113
3250.0 0.0001538 3173.93384 3173.93384
3331.0 0.0001501 3168.25757 3168.25757
3459.0 0.0001446 3162.63232 3162.63232
3509.0 0.0001425 3157.05957 3157.05957
3607.0 0.0001386 3151.53882 3151.53882
3803.0 0.0001315 3146.07080 3146.07080
4139.0 0.0001208 3140.65601 3140.65601
4387.0 0.0001140 3135.29468 3135.29468
4262.0 0.0001173 3129.98730 3129.98730
3972.0 0.0001259 3124.73364 3124.73364
3664.0 0.0001365 3119.53540 3119.53540
3467.0 0.0001442 3114.39185 3114.39185
3361.0 0.0001488 3109.30371 3109.30371
3096.0 0.0001615 3104.27124 3104.27124
3056.0 0.0001636 3099.29492 3099.29492
3092.0 0.0001617 3094.37451 3094.37451
3062.0 0.0001633 3089.51099 3089.51099
3152.0 0.0001586 3084.70386 3084.70386
3147.0 0.0001589 3079.95410 3079.95410
3093.0 0.0001617 3075.26099 3075.26099
3082.0 0.0001622 3070.62598 3070.62598
3001.0 0.0001666 3066.04858 3066.04858
3061.0 0.0001633 3061.52905 3061.52905
3092.0 0.0001617 3057.06763 3057.06738
2995.0 0.0001669 3052.66455 3052.66431
3095.0 0.0001616 3048.31958 3048.31958
3114.0 0.0001606 3044.03345 3044.03320
3199.0 0.0001563 3039.80542 3039.80542
2941.0 0.0001700 3035.63672 3035.63647
3043.0 0.0001643 3031.52661 3031.52661
3003.0 0.0001665 3027.47583 3027.47559
3086.0 0.0001620 3023.48364 3023.48364
3083.0 0.0001622 3019.55078 3019.55078
2993.0 0.0001671 3015.67700 3015.67700
2976.0 0.0001680 3011.86206 3011.86182
2914.0 0.0001716 3008.10669 3008.10669
2897.0 0.0001726 3004.41040 3004.41016
3040.0 0.0001645 3000.77344 3000.77319
2979.0 0.0001678 2997.19556 2997.19531
2972.0 0.0001682 2993.67676 2993.67651
2976.0 0.0001680 2990.21680 2990.21655
2901.0 0.0001724 2986.81616 2986.81592
3041.0 0.0001644 2983.47437 2983.47412
2887.0 0.0001732 2980.19141 2980.19116
2967.0 0.0001685 2976.96680 2976.96655
2945.0 0.0001698 2973.80127 2973.80078
2968.0 0.0001685 2970.69409 2970.69385
3030.0 0.0001650 2967.64526 2967.64502
2979.0 0.0001678 2964.65479 2964.65454
2936.0 0.0001703 2961.72241 2961.72192
2759.0 0.0001812 2958.84766 2958.84717
2805.0 0.0001783 2956.03076 2956.03027
2992.0 0.0001671 2953.27100 2953.27051
2904.0 0.0001722 2950.56885 2950.56836
2947.0 0.0001697 2947.92358 2947.92334
2996.0 0.0001669 2945.33521 2945.33496
2871.0 0.0001742 2942.80347 2942.80298
3041.0 0.0001644 2940.32813 2940.32764
2915.0 0.0001715 2937.90869 2937.90820
2978.0 0.0001679 2935.54468 2935.54419
2858.0 0.0001749 2933.23633 2933.23584
2904.0 0.0001722 2930.98340 2930.98291
2949.0 0.0001695 2928.78516 2928.78467
2875.0 0.0001739 2926.64160 2926.64111
2823.0 0.0001771 2924.55200 2924.55151
2959.0 0.0001690 2922.51636 2922.51587
2853.0 0.0001753 2920.53418 2920.53369
2997.0 0.0001668 2918.60522 2918.60474
2835.0 0.0001764 2916.72852 2916.72803
2901.0 0.0001724 2914.90479 2914.90430
2875.0 0.0001739 2913.13257 2913.13208
2853.0 0.0001753 2911.41211 2911.41138
3033.0 0.0001649 2909.74268 2909.74219
2794.0 0.0001790 2908.12402 2908.12354
2853.0 0.0001753 2906.55542 2906.55493
2846.0 0.0001757 2905.03687 2905.03638
2784.0 0.0001796 2903.56738 2903.56689
2991.0 0.0001672 2902.14746 2902.14673
2895.0 0.0001727 2900.77539 2900.77466
2808.0 0.0001781 2899.45117 2899.45068
2842.0 0.0001759 2898.17480 2898.17407
2880.0 0.0001736 2896.94507 2896.94458
3019.0 0.0001656 2895.76196 2895.76147
2880.0 0.0001736 2894.62476 2894.62427
2864.0 0.0001746 2893.53271 2893.53223
2836.0 0.0001763 2892.48584 2892.48535
2777.0 0.0001801 2891.48340 2891.48267
2968.0 0.0001685 2890.52466 2890.52393
2804.0 0.0001783 2889.60913 2889.60840
2833.0 0.0001765 2888.73633 2888.73560
2761.0 0.0001811 2887.90552 2887.90479
2802.0 0.0001784 2887.11621 2887.11548
2879.0 0.0001737 2886.36816 2886.36743
2784.0 0.0001796 2885.65991 2885.65918
2854.0 0.0001752 2884.99194 2884.99121
2731.0 0.0001831 2884.36279 2884.36206
2825.0 0.0001770 2883.77271 2883.77197
2805.0 0.0001783 2883.22021 2883.21948
2821.0 0.0001772 2882.70508 2882.70435
2797.0 0.0001788 2882.22681 2882.22607
2811.0 0.0001779 2881.78467 2881.78394
2773.0 0.0001803 2881.37769 2881.37671
2988.0 0.0001673 2881.00586 2881.56104
2818.0 0.0001774 2880.66772 2881.25562
2835.0 0.0001764 2880.36353 2880.98730
2810.0 0.0001779 2880.09229 2880.75488
2765.0 0.0001808 2879.85278 2880.55859
2888.0 0.0001731 2879.64526 2880.39795
2757.0 0.0001814 2879.46851 2880.27319
2708.0 0.0001846 2879.32178 2880.18408
2767.0 0.0001807 2879.20459 2880.13135
2856.0 0.0001751 2879.11646 2880.11426
2830.0 0.0001767 2879.05640 2880.13452
2677.0 0.0001868 2879.02393 2880.19214
2762.0 0.0001810 2879.01831 2880.28809
2783.0 0.0001797 2879.03857 2880.42383
2809.0 0.0001780 2879.08447 2884.55127
2879.0 0.0001737 2879.15503 2885.01025
2771.0 0.0001804 2879.24927 2885.53833
2766.0 0.0001808 2879.36743 2886.14380
2769.0 0.0001806 2879.50757 2886.83569
2814.0 0.0001777 2879.67017 2887.62598
2873.0 0.0001740 2879.85376 2888.53052
2690.0 0.0001859 2880.05762 2889.56982
2715.0 0.0001842 2880.28174 2890.77197
2777.0 0.0001801 2880.52466 2892.17725
2825.0 0.0001770 2880.78589 2893.85425
2947.0 0.0001697 2881.06494 2895.94287
2800.0 0.0001786 2881.36060 2898.76929
2768.0 0.0001806 2881.67261 2903.08545
2740.0 0.0001825 2882.00024 2910.41113
2756.0 0.0001814 2882.34253 2923.32422
2890.0 0.0001730 2882.69897 2945.40723
2858.0 0.0001749 2883.06885 2980.49878
2862.0 0.0001747 2883.45117 3030.52051
2851.0 0.0001754 2883.84546 3091.92480
3199.0 0.0001563 2884.25098 3154.90405
3218.0 0.0001554 2884.66699 3202.64014
3159.0 0.0001583 2885.09277 3211.24414
3066.0 0.0001631 2885.52759 3173.20776
3057.0 0.0001636 2885.97070 3111.04077
2948.0 0.0001696 2886.42163 3053.64966
2968.0 0.0001685 2886.87915 3019.63135
3009.0 0.0001662 2887.34302 3018.55591
2967.0 0.0001685 2887.81250 3059.10229
3168.0 0.0001578 2888.28638 3156.32690
3377.0 0.0001481 2888.76465 3332.65991
3539.0 0.0001413 2889.24634 3608.97388
3776.0 0.0001324 2889.73047 3982.02222
4163.0 0.0001201 2890.21680 4403.08643
4602.0 0.0001086 2890.70459 4781.31348
4750.0 0.0001053 2891.19238 4968.23633
4991.0 0.0001002 2891.68066 4826.94043
4360.0 0.0001147 2892.16772 4414.63428
3853.0 0.0001298 2892.65356 3925.92725
3433.0 0.0001456 2893.13721 3514.65332
3212.0 0.0001557 2893.61792 3238.54590
3082.0 0.0001622 2894.09521 3083.45557
2852.0 0.0001753 2894.56836 3006.96802
2876.0 0.0001739 2895.03638 2971.05444
2832.0 0.0001766 2895.49902 2952.98242
2880.0 0.0001736 2895.95557 2942.31616
2963.0 0.0001687 2896.40527 2935.02295
2754.0 0.0001816 2896.84766 2929.61035
2801.0 0.0001785 2897.28174 2925.44189
2788.0 0.0001793 2897.70679 2922.17139
2816.0 0.0001776 2898.12256 2919.57397
2873.0 0.0001740 2898.52832 2917.49121
2875.0 0.0001739 2898.92334 2915.80737
2809.0 0.0001780 2899.30737 2914.43701
2786.0 0.0001795 2899.67896 2913.31470
2898.0 0.0001725 2900.03833 2912.39185
3019.0 0.0001656 2900.38452 2911.62866
2805.0 0.0001783 2900.71680 2910.44946
2712.0 0.0001844 2901.03467 2909.95068
2890.0 0.0001730 2901.33765 2909.53540
2848.0 0.0001756 2901.62500 2909.18774
3027.0 0.0001652 2901.89648 2908.89478
2847.0 0.0001756 2902.15063 2908.64575
2895.0 0.0001727 2902.38794 2908.43188
2857.0 0.0001750 2902.60742 2908.24536
2864.0 0.0001746 2902.80835 2908.08008
2960.0 0.0001689 2902.99023 2907.93042
2850.0 0.0001754 2903.15283 2907.79126
2962.0 0.0001688 2903.29492 2907.65845
2965.0 0.0001686 2903.41675 2907.52930
2925.0 0.0001709 2903.51733 2907.39990
3099.0 0.0001613 2903.59619 2903.59546
3108.0 0.0001609 2903.65308 2903.65210
3060.0 0.0001634 2903.68726 2903.68628
3036.0 0.0001647 2903.69800 2903.69702
2967.0 0.0001685 2903.68530 2903.68433
3000.0 0.0001667 2903.64795 2903.64697
2950.0 0.0001695 2903.58643 2903.58545
2852.0 0.0001753 2903.49976 2903.49878
2914.0 0.0001716 2903.38696 2903.38623
2913.0 0.0001716 2903.24854 2903.24756
3015.0 0.0001658 2903.08350 2903.08276
2952.0 0.0001694 2902.89136 2902.89063
2945.0 0.0001698 2902.67212 2902.67114
2870.0 0.0001742 2902.42480 2902.42383
2882.0 0.0001735 2902.14893 2902.14819
3016.0 0.0001658 2901.84497 2901.84399
2938.0 0.0001702 2901.51123 2901.51050
3043.0 0.0001643 2901.14844 2901.14771
3029.0 0.0001651 2900.75562 2900.75488
2982.0 0.0001677 2900.33252 2900.33179
3096.0 0.0001615 2899.87891 2899.87793
3061.0 0.0001633 2899.39404 2899.39331
2993.0 0.0001671 2898.87769 2898.87695
3024.0 0.0001653 2898.32983 2898.32886
3031.0 0.0001650 2897.74976 2897.74878
3057.0 0.0001636 2897.13721 2897.13647
2963.0 0.0001687 2896.49194 2896.49097
3010.0 0.0001661 2895.81348 2895.81274
3024.0 0.0001653 2895.10156 2895.10083
2981.0 0.0001677 2894.35596 2894.35522
3164.0 0.0001580 2893.57617 2893.57544
2941.0 0.0001700 2892.76221 2892.76147
3026.0 0.0001652 2891.91406 2891.91333
2968.0 0.0001685 2891.03027 2891.02954
3088.0 0.0001619 2890.11182 2890.11108
2994.0 0.0001670 2889.15771 2889.15698
3050.0 0.0001639 2888.16797 2888.16724
3036.0 0.0001647 2887.14258 2887.14185
3136.0 0.0001594 2886.08081 2886.08008
3091.0 0.0001618 2884.98242 2884.98169
3030.0 0.0001650 2883.84814 2883.84741
2918.0 0.0001714 2882.67627 2882.67554
2918.0 0.0001714 2881.46777 2881.46729
3013.0 0.0001659 2880.22217 2880.22168
2880.0 0.0001736 2878.93921 2878.93848
3022.0 0.0001655 2877.61865 2877.61792
3035.0 0.0001647 2876.26025 2876.25977
3008.0 0.0001662 2874.86377 2874.86328
2965.0 0.0001686 2873.42969 2873.42896
2945.0 0.0001698 2871.95728 2871.95654
3077.0 0.0001625 2870.44653 2870.44604
2941.0 0.0001700 2868.89746 2868.89673
2906.0 0.0001721 2867.30981 2867.30908
3059.0 0.0001635 2865.68335 2865.68262
2938.0 0.0001702 2864.01807 2864.01758
3030.0 0.0001650 2862.31396 2862.31323
2895.0 0.0001727 2860.57080 2860.57031
2892.0 0.0001729 2858.78906 2858.78833
2866.0 0.0001745 2856.96777 2856.96729
2913.0 0.0001716 2855.10767 2855.10718
2956.0 0.0001691 2853.20825 2853.20776
2852.0 0.0001753 2851.26953 2851.26904
2938.0 0.0001702 2849.29150 2849.29102
2865.0 0.0001745 2847.27417 2847.27368
2923.0 0.0001711 2845.21729 2845.21680
3038.0 0.0001646 2843.12158 2843.12109
2934.0 0.0001704 2840.98584 2840.98535
2945.0 0.0001698 2838.81104 2838.81055
3038.0 0.0001646 2836.59692 2836.59644
3111.0 0.0001607 2834.34375 2834.34326
3198.0 0.0001563 2832.05103 2832.05054
2998.0 0.0001668 2829.71899 2829.71851
2910.0 0.0001718 2827.34741 2827.34717
2903.0 0.0001722 2824.93701 2824.93677
2874.0 0.0001740 2822.48755 2822.48730
3035.0 0.0001647 2819.99902 2819.99878
2923.0 0.0001711 2817.47168 2817.47119
2865.0 0.0001745 2814.90527 2814.90479
2818.0 0.0001774 2812.30005 2812.29980
2762.0 0.0001810 2809.65625 2809.65576
2903.0 0.0001722 2806.97339 2806.97314
2754.0 0.0001816 2804.25220 2804.25195
2766.0 0.0001808 2801.49292 2801.49268
2747.0 0.0001820 2798.69531 2798.69507
2733.0 0.0001829 2795.85962 2795.85938
2854.0 0.0001752 2792.98584 2792.98560
2805.0 0.0001783 2790.07422 2790.07397
2690.0 0.0001859 2787.12500 2787.12476
2749.0 0.0001819 2784.13818 2784.13794
2852.0 0.0001753 2781.11377 2781.11353
2884.0 0.0001734 2778.05273 2778.05249
2745.0 0.0001821 2774.95410 2774.95410
2773.0 0.0001803 2771.81909 2771.81885
2769.0 0.0001806 2768.64722 2768.64722
2854.0 0.0001752 2765.43921 2765.43896
2772.0 0.0001804 2762.19482 2762.19458
2743.0 0.0001823 2758.91455 2758.91431
2701.0 0.0001851 2755.59814 2755.59790
2784.0 0.0001796 2752.24634 2752.24609
2792.0 0.0001791 2748.85938 2748.85938
2814.0 0.0001777 2745.43726 2745.43726
2682.0 0.0001864 2741.98047 2741.98022
2761.0 0.0001811 2738.48877 2738.48877
2700.0 0.0001852 2734.96313 2734.96313
2656.0 0.0001883 2731.40332 2731.40332
2831.0 0.0001766 2727.80933 2727.80933
2662.0 0.0001878 2724.18213 2724.18213
2751.0 0.0001818 2720.52197 2720.52197
2819.0 0.0001774 2716.82861 2716.82861
2735.0 0.0001828 2713.10254 2713.10254
2784.0 0.0001796 2709.34424 2770.14282
2807.0 0.0001781 2705.55396 2769.08398
2760.0 0.0001812 2701.73169 2768.18115
2759.0 0.0001812 2697.87817 2767.45264
2707.0 0.0001847 2693.99316 2766.91846
2741.0 0.0001824 2690.07813 2766.60205
2737.0 0.0001827 2686.13184 2766.52710
2762.0 0.0001810 2682.15576 2766.72339
2689.0 0.0001859 2678.14990 2767.22290
2764.0 0.0001809 2674.11475 2768.06274
2773.0 0.0001803 2670.05029 2769.28418
2680.0 0.0001866 2665.95703 2770.93530
2650.0 0.0001887 2661.83521 2773.07031
2769.0 0.0001806 2657.68555 2775.75342
2679.0 0.0001866 2653.50854 2779.05762
2765.0 0.0001808 2649.30396 2783.06714
2778.0 0.0001800 2645.07251 2787.88135
2749.0 0.0001819 2640.81445 2793.61670
2727.0 0.0001834 2636.53052 2800.41089
2766.0 0.0001808 2632.22046 2808.42651
2753.0 0.0001816 2627.88501 2817.85718
2775.0 0.0001802 2623.52441 2828.93726
2761.0 0.0001811 2619.13989 2841.94922
2749.0 0.0001819 2614.73071 2857.23706
2845.0 0.0001757 2610.29761 2875.22339
2812.0 0.0001778 2605.84131 2896.43335
2838.0 0.0001762 2601.36230 2921.52271
2891.0 0.0001730 2596.86035 2951.32080
2848.0 0.0001756 2592.33643 2986.88843
2871.0 0.0001742 2587.79053 3029.59888
3013.0 0.0001659 2583.22388 3081.25488
2910.0 0.0001718 2578.63574 3144.25806
3197.0 0.0001564 2574.02734 3221.87451
3269.0 0.0001530 2569.39893 3318.68408
3443.0 0.0001452 2564.75122 3441.56812
3821.0 0.0001309 2560.08423 3602.44312
4206.0 0.0001189 2555.39819 3826.37329
4709.0 0.0001062 2550.69385 4173.20361
5764.0 0.0000867 2545.97192 4784.50146
7386.0 0.0000677 2541.23291 5960.09766
9955.0 0.0000502 2536.47681 8236.19043
13297.0 0.0000376 2531.70410 12378.48535
18526.0 0.0000270 2526.91528 19142.51758
26411.0 0.0000189 2522.11108 28653.71680
37080.0 0.0000135 2517.29175 39595.05469
49076.0 0.0000102 2512.45728 49139.08594
54056.0 9.25e-6 2507.60889 53465.07813
51478.0 9.71e-6 2502.74707 49577.42969
40765.0 0.0000123 2497.87158 39274.63672
27669.0 0.0000181 2492.98340 27419.63867
17948.0 0.0000279 2488.08276 17573.78906
10672.0 0.0000469 2483.17041 10973.03613
7255.0 0.0000689 2478.24658 7231.57520
5327.0 0.0000939 2473.31128 5348.14160
4372.0 0.0001144 2468.36572 4434.01416
3905.0 0.0001280 2463.41089 3954.48657
3384.0 0.0001478 2458.44531 3660.27783
3282.0 0.0001523 2453.47119 3452.82983
3097.0 0.0001614 2448.48828 3294.61328
2969.0 0.0001684 2443.49756 3169.23901
3024.0 0.0001653 2438.49878 3067.66992
2777.0 0.0001801 2433.49292 2984.01294
2751.0 0.0001818 2428.47974 2914.12085
2738.0 0.0001826 2423.46069 2854.97876
2627.0 0.0001903 2418.43628 2804.34888
2662.0 0.0001878 2413.40601 2760.54272
2554.0 0.0001958 2408.37085 2722.26904
2579.0 0.0001939 2403.33130 2688.52661
2546.0 0.0001964 2398.28809 2658.53027
2554.0 0.0001958 2393.24097 2631.65625
2603.0 0.0001921 2388.19067 2607.40576
2539.0 0.0001969 2383.13818 2585.37573
2467.0 0.0002027 2378.08374 2565.23730
2444.0 0.0002046 2373.02734 2546.71973
2478.0 0.0002018 2367.96997 2529.59937
2484.0 0.0002013 2362.91187 2513.69019
2375.0 0.0002105 2357.85376 2498.83594
2399.0 0.0002084 2352.79541 2484.90454
2360.0 0.0002119 2347.73779 2471.78418
2390.0 0.0002092 2342.68140 2459.38013
2431.0 0.0002057 2337.62720 2447.61133
2438.0 0.0002051 2332.57422 2436.40625
2455.0 0.0002037 2327.52393 2425.70557
2392.0 0.0002090 2322.47681 2415.45605
2312.0 0.0002163 2317.43335 2405.61255
2442.0 0.0002048 2312.39331 2396.13477
2327.0 0.0002149 2307.35767 2386.98755
2229.0 0.0002243 2302.32666 2378.13989
2247.0 0.0002225 2297.30078 2369.56567
2295.0 0.0002179 2292.28101 2361.24023
2380.0 0.0002101 2287.26709 2353.14233
2299.0 0.0002175 2282.25977 2345.25317
2153.0 0.0002322 2277.25928 2277.25977
2206.0 0.0002267 2272.26636 2272.26709
2258.0 0.0002214 2267.28101 2267.28174
2294.0 0.0002180 2262.30371 2262.30444
2162.0 0.0002313 2257.33545 2257.33594
2203.0 0.0002270 2252.37646 2252.37695
2208.0 0.0002264 2247.42651 2247.42725
2222.0 0.0002250 2242.48682 2242.48730
2325.0 0.0002151 2237.55737 2237.55786
2208.0 0.0002264 2232.63892 2232.63940
2193.0 0.0002280 2227.73120 2227.73193
2198.0 0.0002275 2222.83496 2222.83569
2170.0 0.0002304 2217.95093 2217.95166
2183.0 0.0002290 2213.08008 2213.08057
2241.0 0.0002231 2208.22095 2208.22144
2176.0 0.0002298 2203.37524 2203.37573
2148.0 0.0002328 2198.54297 2198.54370
2155.0 0.0002320 2193.72510 2193.72583
2306.0 0.0002168 2188.92139 2188.92188
2171.0 0.0002303 2184.13208 2184.13281
2139.0 0.0002338 2179.35791 2179.35864
2200.0 0.0002273 2174.59937 2174.60010
2184.0 0.0002289 2169.85693 2169.85767
2176.0 0.0002298 2165.13062 2165.13110
2034.0 0.0002458 2160.42065 2160.42114
2166.0 0.0002308 2155.72754 2155.72827
2104.0 0.0002376 2151.05225 2151.05298
2078.0 0.0002406 2146.39429 2146.39478
2171.0 0.0002303 2141.75391 2141.75439
2113.0 0.0002366 2137.13208 2137.13281
2102.0 0.0002379 2132.52930 2132.53003
1988.0 0.0002515 2127.94531 2127.94604
2103.0 0.0002378 2123.38062 2123.38135
2177.0 0.0002297 2118.83569 2118.83643
2065.0 0.0002421 2114.31104 2114.31152
2133.0 0.0002344 2109.80640 2109.80688
2103.0 0.0002378 2105.32202 2105.32275
2041.0 0.0002450 2100.85889 2100.85962
2151.0 0.0002325 2096.41772 2096.41821
2089.0 0.0002393 2091.99707 2091.99780
2063.0 0.0002424 2087.59888 2087.59961
2071.0 0.0002414 2083.22266 2083.22339
2074.0 0.0002411 2078.86914 2078.86987
2101.0 0.0002380 2074.53833 2074.53882
1958.0 0.0002554 2070.23022 2070.23096
1998.0 0.0002503 2065.94531 2065.94604
1999.0 0.0002501 2061.68433 2061.68506
1970.0 0.0002538 2057.44727 2057.44800
2120.0 0.0002358 2053.23438 2053.23486
2015.0 0.0002481 2049.04565 2049.04614
2113.0 0.0002366 2044.88159 2044.88220
2039.0 0.0002452 2040.74255 2040.74329
1967.0 0.0002542 2036.62854 2036.62915
2026.0 0.0002468 2032.53955 2032.54028
2056.0 0.0002432 2028.47644 2028.47717
1955.0 0.0002558 2024.43958 2024.44019
2008.0 0.0002490 2020.42834 2020.42908
1968.0 0.0002541 2016.44348 2016.44421
2040.0 0.0002451 2012.48511 2012.48584
2049.0 0.0002440 2008.55371 2008.55444
2027.0 0.0002467 2004.64917 2004.64978
1968.0 0.0002541 2000.77136 2000.77197
1961.0 0.0002550 1996.92114 1996.92175
2020.0 0.0002475 1993.09875 1993.09937
1920.0 0.0002604 1989.30383 1989.30457
1927.0 0.0002595 1985.53687 1985.53748
2014.0 0.0002483 1981.79797 1981.79858
2025.0 0.0002469 1978.08752 1978.08826
1989.0 0.0002514 1974.40540 1974.40601
1986.0 0.0002518 1970.75171 1970.75244
1923.0 0.0002600 1967.12671 1967.12744
1939.0 0.0002579 1963.53076 1963.53149
1933.0 0.0002587 1959.96423 1959.96484
2099.0 0.0002382 1956.42664 1956.42725
1996.0 0.0002505 1952.91833 1952.91907
1947.0 0.0002568 1949.43970 1949.44031
2045.0 0.0002445 1945.99072 1945.99133
2011.0 0.0002486 1942.57141 1942.57202
2159.0 0.0002316 1939.18176 1939.18237
2094.0 0.0002388 1935.82227 1935.82288
2088.0 0.0002395 1932.49304 1932.49377
2059.0 0.0002428 1929.19397 1929.19458
2100.0 0.0002381 1925.92517 1928.40796
2088.0 0.0002395 1922.68665 1925.28186
2032.0 0.0002461 1919.47900 1922.19409
1963.0 0.0002547 1916.30176 1919.14526
1960.0 0.0002551 1913.15479 1916.13623
1988.0 0.0002515 1910.03894 1913.16846
2040.0 0.0002451 1906.95410 1910.24304
1962.0 0.0002548 1903.90002 1907.36084
2000.0 0.0002500 1900.87683 1904.52344
1926.0 0.0002596 1897.88464 1901.73242
1863.0 0.0002684 1894.92371 1899.17859
1961.0 0.0002550 1891.99377 1896.49438
1831.0 0.0002731 1889.09497 1893.86340
1860.0 0.0002688 1886.22705 1891.28784
1796.0 0.0002784 1883.39075 1888.77173
1933.0 0.0002587 1880.58582 1886.31824
1844.0 0.0002711 1877.81201 1883.93164
1886.0 0.0002651 1875.06958 1881.61694
1850.0 0.0002703 1872.35840 1879.38000
1915.0 0.0002611 1869.67871 1877.22815
1881.0 0.0002658 1867.03015 1875.16907
1855.0 0.0002695 1864.41284 1873.21301
1838.0 0.0002720 1861.82703 1871.37256
1870.0 0.0002674 1859.27271 1869.66223
1790.0 0.0002793 1856.74951 1868.10022
1776.0 0.0002815 1854.25781 1866.70923
1926.0 0.0002596 1851.79724 1865.51733
1816.0 0.0002753 1849.36804 1864.56079
1799.0 0.0002779 1846.96997 1863.88525
1784.0 0.0002803 1844.60278 1863.54993
1848.0 0.0002706 1842.26709 1863.63391
1871.0 0.0002672 1839.96265 1864.24146
1832.0 0.0002729 1837.68909 1865.51465
1894.0 0.0002640 1835.44653 1867.65479
1882.0 0.0002657 1833.23486 1870.96619
1850.0 0.0002703 1831.05420 1875.98181
1885.0 0.0002653 1828.90430 1883.82983
1868.0 0.0002677 1826.78516 1897.20081
1898.0 0.0002634 1824.69653 1922.42749
1956.0 0.0002556 1822.63855 1972.80530
2040.0 0.0002451 1820.61133 2071.58105
2430.0 0.0002058 1818.61426 2250.05762
2562.0 0.0001952 1816.64771 2534.25122
2959.0 0.0001690 1814.71130 2916.91309
3407.0 0.0001468 1812.80518 3327.59937
3762.0 0.0001329 1810.92896 3636.06177
4065.0 0.0001230 1809.08240 3693.51172
3656.0 0.0001368 1807.26599 3446.90723
3128.0 0.0001598 1805.47937 3028.29321
2679.0 0.0001866 1803.72217 2612.35156
2262.0 0.0002210 1801.99438 2298.13159
2232.0 0.0002240 1800.29602 2107.81421
2046.0 0.0002444 1798.62683 2017.89954
2011.0 0.0002486 1796.98682 1990.12341
1953.0 0.0002560 1795.37549 1989.44373
1942.0 0.0002575 1793.79309 1989.49670
2062.0 0.0002425 1792.23938 1973.40955
1857.0 0.0002693 1790.71411 1939.75537
1878.0 0.0002662 1789.21716 1900.07422
1874.0 0.0002668 1787.74854 1865.06238
1824.0 0.0002741 1786.30786 1839.28857
1883.0 0.0002655 1784.89502 1822.47925
1765.0 0.0002833 1783.50989 1812.07800
1799.0 0.0002779 1782.15210 1805.40991
1789.0 0.0002795 1780.82178 1800.66309
1684.0 0.0002969 1779.51880 1796.89124
1800.0 0.0002778 1778.24268 1793.67163
1720.0 0.0002907 1776.99341 1790.82141
1722.0 0.0002904 1775.77075 1788.24951
1701.0 0.0002939 1774.57471 1785.90088
1700.0 0.0002941 1773.40466 1783.73694
1766.0 0.0002831 1772.26062 1781.72839
1748.0 0.0002860 1771.14270 1779.85291
1740.0 0.0002874 1770.05017 1778.09277
1716.0 0.0002914 1768.98328 1776.43384
1763.0 0.0002836 1767.94165 1774.86450
1761.0 0.0002839 1766.92505 1773.37512
1719.0 0.0002909 1765.93323 1771.95837
1668.0 0.0002998 1764.96606 1770.60742
1690.0 0.0002959 1764.02307 1769.47644
1732.0 0.0002887 1763.10437 1768.24902
1706.0 0.0002931 1762.20972 1767.07373
1677.0 0.0002982 1761.33875 1765.94727
1641.0 0.0003047 1760.49133 1764.86694
1642.0 0.0003045 1759.66711 1763.82983
1679.0 0.0002978 1758.86597 1762.83411
1821.0 0.0002746 1758.08765 1761.87744
1750.0 0.0002857 1757.33167 1760.95801
1642.0 0.0003045 1756.59827 1760.07495
1604.0 0.0003117 1755.88684 1759.22668
1662.0 0.0003008 1755.19727 1758.41187
1797.0 0.0002782 1754.52942 1755.12573
1718.0 0.0002910 1753.88281 1754.48132
1632.0 0.0003064 1753.25745 1753.86096
1676.0 0.0002983 1752.65271 1753.26465
1693.0 0.0002953 1752.06873 1752.69214
1717.0 0.0002912 1751.50488 1752.14343
1760.0 0.0002841 1750.96130 1751.61865
1661.0 0.0003010 1750.43738 1751.11768
1669.0 0.0002996 1749.93323 1750.64111
1716.0 0.0002914 1749.44836 1750.18921
1728.0 0.0002894 1748.98254 1749.57739
1693.0 0.0002953 1748.53540 1749.18372
1621.0 0.0003085 1748.10681 1748.81604
1667.0 0.0002999 1747.69629 1748.47534
1674.0 0.0002987 1747.30396 1748.16357
1697.0 0.0002946 1746.92908 1747.88269
1744.0 0.0002867 1746.57190 1747.63525
1745.0 0.0002865 1746.23193 1747.42505
1682.0 0.0002973 1745.90869 1747.25696
1714.0 0.0002917 1745.60205 1747.13708
1709.0 0.0002926 1745.31177 1747.07483
1607.0 0.0003111 1745.03735 1747.08313
1695.0 0.0002950 1744.77893 1747.18188
1646.0 0.0003038 1744.53601 1747.40674
1748.0 0.0002860 1744.30823 1747.83325
1744.0 0.0002867 1744.09546 1748.64368
1768.0 0.0002828 1743.89722 1750.26318
1808.0 0.0002765 1743.71350 1753.57495
1913.0 0.0002614 1743.54370 1760.09009
2049.0 0.0002440 1743.38782 1771.76868
2065.0 0.0002421 1743.24524 1790.08301
1960.0 0.0002551 1743.11597 1814.22437
2095.0 0.0002387 1742.99976 1839.32922
2113.0 0.0002366 1742.89612 1856.85425
2010.0 0.0002488 1742.80493 1857.79602
2181.0 0.0002293 1742.72583 1840.53064
1828.0 0.0002735 1742.65833 1814.22302
1869.0 0.0002675 1742.60254 1789.03174
1725.0 0.0002899 1742.55774 1770.14038
1716.0 0.0002914 1742.52405 1758.29065
1733.0 0.0002885 1742.50085 1751.81384
1647.0 0.0003036 1742.48816 1748.54712
1694.0 0.0002952 1742.48547 1746.88550
1747.0 0.0002862 1742.49255 1745.94849
1596.0 0.0003133 1742.50916 1745.34387
1670.0 0.0002994 1742.53491 1744.91553
1658.0 0.0003016 1742.56934 1744.59900
1680.0 0.0002976 1742.61267 1744.36365
1607.0 0.0003111 1742.66431 1744.18970
1635.0 0.0003058 1742.72388 1744.06409
1598.0 0.0003129 1742.79126 1743.97791
1622.0 0.0003083 1742.86609 1743.92395
1575.0 0.0003175 1742.94812 1743.89709
1655.0 0.0003021 1743.03699 1743.89294
1578.0 0.0003169 1743.13245 1743.90833
1682.0 0.0002973 1743.23413 1743.94055
1615.0 0.0003096 1743.34204 1743.98779
1617.0 0.0003092 1743.45557 1744.04834
1738.0 0.0002877 1743.57458 1744.12061
1786.0 0.0002800 1743.69897 1744.20337
1785.0 0.0002801 1743.82813 1744.29553
1821.0 0.0002746 1743.96179 1744.39612
2047.0 0.0002443 1744.09985 1744.50464
2488.0 0.0002010 1744.24182 1744.61987
2931.0 0.0001706 1744.38770 1744.74158
3550.0 0.0001408 1744.53699 1744.86902
3865.0 0.0001294 1744.68970 1745.00171
3952.0 0.0001265 1744.84534 1745.13904
3722.0 0.0001343 1745.00354 1745.28052
3142.0 0.0001591 1745.16406 1745.42590
2715.0 0.0001842 1745.32678 1745.57458
2250.0 0.0002222 1745.49121 1768.20935
1972.0 0.0002535 1745.65747 1769.37231
1802.0 0.0002775 1745.82483 1770.60657
1806.0 0.0002769 1745.99329 1771.91846
1765.0 0.0002833 1746.16260 1773.31506
1672.0 0.0002990 1746.33240 1774.80420
1653.0 0.0003025 1746.50220 1776.39429
1585.0 0.0003155 1746.67236 1778.09619
1558.0 0.0003209 1746.84192 1779.76123
1660.0 0.0003012 1747.01099 1781.72827
1600.0 0.0003125 1747.17932 1783.84583
1624.0 0.0003079 1747.34656 1786.13086
1576.0 0.0003173 1747.51245 1788.60315
1587.0 0.0003151 1747.67688 1791.28552
1652.0 0.0003027 1747.83948 1794.20410
1613.0 0.0003100 1747.99988 1797.38965
1646.0 0.0003038 1748.15808 1800.87830
1594.0 0.0003137 1748.31348 1804.71179
1658.0 0.0003016 1748.46631 1808.94031
1639.0 0.0003051 1748.61584 1813.62244
1617.0 0.0003092 1748.76233 1818.82898
1688.0 0.0002962 1748.90527 1824.64417
1648.0 0.0003034 1749.04431 1831.17041
1671.0 0.0002992 1749.17932 1838.53223
1777.0 0.0002814 1749.31006 1846.88269
1597.0 0.0003131 1749.43628 1856.41064
1594.0 0.0003137 1749.55786 1867.35303
1714.0 0.0002917 1749.67456 1880.00781
1686.0 0.0002966 1749.78589 1894.75562
1832.0 0.0002729 1749.89209 1912.08777
1834.0 0.0002726 1749.99255 1932.64636
1777.0 0.0002814 1750.08704 1957.28394
1885.0 0.0002653 1750.17578 1987.15283
1940.0 0.0002577 1750.25806 2023.84998
1994.0 0.0002508 1750.33374 2069.70850
2012.0 0.0002485 1750.40283 2128.53711
2168.0 0.0002306 1750.46497 2207.76221
2382.0 0.0002099 1750.52014 2324.38062
2761.0 0.0001811 1750.56787 2518.97021
3246.0 0.0001540 1750.60815 2881.14160
3962.0 0.0001262 1750.64063 3579.37891
5281.0 0.0000947 1750.66528 4864.18994
7153.0 0.0000699 1750.68164 6990.68750
10052.0 0.0000497 1750.68982 10022.35254
13856.0 0.0000361 1750.68945 13561.02832
16374.0 0.0000305 1750.68042 16616.57227
17713.0 0.0000282 1750.66260 17872.61523
16227.0 0.0000308 1750.63574 16515.70703
13000.0 0.0000385 1750.59949 13268.78613
9610.0 0.0000520 1750.55383 9635.30273
6113.0 0.0000818 1750.49854 6631.39014
4235.0 0.0001181 1750.43359 4592.11768
3368.0 0.0001485 1750.35876 3404.13965
2763.0 0.0001810 1750.27368 2782.27637
2345.0 0.0002132 1750.17834 2467.36865
2184.0 0.0002289 1750.07275 2297.06055
2044.0 0.0002446 1749.95618 2191.57739
1909.0 0.0002619 1749.82922 2117.45801
1834.0 0.0002726 1749.69128 2061.28589
1878.0 0.0002662 1749.54211 2017.06384
1780.0 0.0002809 1749.38184 1981.49548
1801.0 0.0002776 1749.21008 1952.44458
1745.0 0.0002865 1749.02698 1928.40967
1835.0 0.0002725 1748.83215 1908.29663
1799.0 0.0002779 1748.62561 1891.29187
1696.0 0.0002948 1748.40698 1876.78003
1658.0 0.0003016 1748.17651 1864.28955
1650.0 0.0003030 1747.93347 1853.45410
1617.0 0.0003092 1747.67847 1843.98584
1667.0 0.0002999 1747.41077 1835.65625
1602.0 0.0003121 1747.13062 1828.28162
1669.0 0.0002996 1746.83777 1821.71375
1694.0 0.0002952 1746.53223 1815.83142
1703.0 0.0002936 1746.21350 1810.53479
1783.0 0.0002804 1745.88196 1805.74133
1829.0 0.0002734 1745.53699 1801.38196
1985.0 0.0002519 1745.17883 1797.39929
2249.0 0.0002223 1744.80750 1793.74426
2606.0 0.0001919 1744.42261 1790.37524
3203.0 0.0001561 1744.02417 1787.25696
3463.0 0.0001444 1743.61194 1784.35913
3806.0 0.0001314 1743.18591 1781.65527
3642.0 0.0001373 1742.74634 1779.12341
3226.0 0.0001550 1742.29260 1776.74341
2848.0 0.0001756 1741.82471 1774.49780
2228.0 0.0002244 1741.34290 1772.37231
2024.0 0.0002470 1740.84680 1770.35352
1784.0 0.0002803 1740.33655 1768.42969
1659.0 0.0003014 1739.81189 1766.59058
1654.0 0.0003023 1739.27295 1764.82715
1672.0 0.0002990 1738.71936 1763.13110
1677.0 0.0002982 1738.15125 1761.49536
1621.0 0.0003085 1737.56836 1737.56873
1679.0 0.0002978 1736.97107 1736.97144
1688.0 0.0002962 1736.35901 1736.35925
1661.0 0.0003010 1735.73206 1735.73242
1630.0 0.0003067 1735.09045 1735.09070
1599.0 0.0003127 1734.43384 1734.43420
1712.0 0.0002921 1733.76221 1733.76257
1713.0 0.0002919 1733.07568 1733.07605
1655.0 0.0003021 1732.37390 1732.37427
1802.0 0.0002775 1731.65735 1731.65759
1931.0 0.0002589 1730.92566 1730.92590
2042.0 0.0002449 1730.17871 1730.17908
2196.0 0.0002277 1729.41675 1729.41699
2254.0 0.0002218 1728.63953 1728.63989
2293.0 0.0002181 1727.84692 1727.84717
2012.0 0.0002485 1727.03943 1727.03967
1830.0 0.0002732 1726.21619 1726.21655
1909.0 0.0002619 1725.37805 1725.37830
1667.0 0.0002999 1724.52441 1724.52478
1613.0 0.0003100 1723.65564 1723.65601
1610.0 0.0003106 1722.77148 1722.77185
1638.0 0.0003053 1721.87207 1721.87231
1765.0 0.0002833 1720.95715 1720.95752
1664.0 0.0003005 1720.02698 1720.02734
1656.0 0.0003019 1719.08142 1719.08179
1649.0 0.0003032 1718.12048 1718.12085
1638.0 0.0003053 1717.14429 1717.14453
1796.0 0.0002784 1716.15283 1716.15308
1636.0 0.0003056 1715.14600 1715.14636
1578.0 0.0003169 1714.12390 1714.12427
1634.0 0.0003060 1713.08655 1713.08679
1596.0 0.0003133 1712.03381 1712.03418
1620.0 0.0003086 1710.96594 1710.96631
1575.0 0.0003175 1709.88257 1709.88293
1586.0 0.0003153 1708.78430 1708.78455
1628.0 0.0003071 1707.67078 1707.67114
1626.0 0.0003075 1706.54211 1706.54248
1658.0 0.0003016 1705.39832 1705.39868
1629.0 0.0003069 1704.23950 1704.23987
1672.0 0.0002990 1703.06543 1962.81274
1696.0 0.0002948 1701.87671 1973.28149
1793.0 0.0002789 1700.67261 1984.53650
1942.0 0.0002575 1699.45386 1996.65369
1942.0 0.0002575 1698.22021 2009.71704
2039.0 0.0002452 1696.97168 2023.82080
2113.0 0.0002366 1695.70850 2039.07178
2023.0 0.0002472 1694.43042 2055.58984
2160.0 0.0002315 1693.13782 2073.51099
2276.0 0.0002197 1691.83057 2092.98950
2389.0 0.0002093 1690.50879 2114.20190
2668.0 0.0001874 1689.17224 2137.34888
2782.0 0.0001797 1687.82153 2162.66187
3081.0 0.0001623 1686.45630 2190.40747
3057.0 0.0001636 1685.07690 2220.89307
3287.0 0.0001521 1683.68335 2254.47705
3413.0 0.0001465 1682.27551 2291.57715
3505.0 0.0001427 1680.85364 2332.68335
3821.0 0.0001309 1679.41772 2378.37378
3842.0 0.0001301 1677.96765 2429.33350
3654.0 0.0001368 1676.50403 2486.37988
3438.0 0.0001454 1675.02649 2550.49365
3235.0 0.0001546 1673.53540 2622.86035
2879.0 0.0001737 1672.03052 2704.92261
2714.0 0.0001842 1670.51233 2798.45068
2577.0 0.0001940 1668.98035 2905.63354
2537.0 0.0001971 1667.43555 3029.20654
2687.0 0.0001861 1665.87695 3172.61670
2679.0 0.0001866 1664.30554 3340.26172
2898.0 0.0001725 1662.72095 3537.81226
3017.0 0.0001657 1661.12354 3772.68213
3424.0 0.0001460 1659.51318 4054.70337
3639.0 0.0001374 1657.89001 4397.15088
4170.0 0.0001199 1656.25415 4818.43018
4733.0 0.0001056 1654.60583 5345.45801
5523.0 0.0000905 1652.94507 6022.25000
6547.0 0.0000764 1651.27173 6934.61084
8363.0 0.0000598 1649.58630 8277.68750
11465.0 0.0000436 1647.88879 10512.32227
16278.0 0.0000307 1646.17920 14642.23926
24296.0 0.0000206 1644.45776 22522.73047
37800.0 0.0000132 1642.72449 36850.16797
59246.0 8.44e-6 1640.97961 60269.03516
92483.0 5.41e-6 1639.22314 93271.07031
130651.0 3.83e-6 1637.45508 131409.09375
166527.0 3.003e-6 1635.67578 163801.06250
181443.0 2.756e-6 1633.88525 176063.53125
166246.0 3.008e-6 1632.08386 160271.65625
131022.0 3.82e-6 1630.27136 125107.14844
84513.0 5.92e-6 1628.44800 86440.15625
51887.0 9.64e-6 1626.61377 54591.96875
30795.0 0.0000162 1624.76953 32877.78125
19332.0 0.0000259 1622.91431 20090.70117
13750.0 0.0000364 1621.04883 13289.31641
9526.0 0.0000525 1619.17334 9782.97461
7512.0 0.0000666 1617.28784 7859.94336
6302.0 0.0000793 1615.39233 6661.16406
5384.0 0.0000929 1613.48694 5817.48047
4967.0 0.0001007 1611.57202 5177.72607
4303.0 0.0001162 1609.64758 4673.68799
3959.0 0.0001263 1607.71375 4267.94482
3624.0 0.0001380 1605.77051 3936.32495
3311.0 0.0001510 1603.81824 3661.84937
3087.0 0.0001620 1601.85718 3432.13574
2764.0 0.0001809 1599.88721 3237.96143
2605.0 0.0001919 1597.90845 3072.34521
2500.0 0.0002000 1595.92126 2929.92822
2364.0 0.0002115 1593.92578 2806.54517
2365.0 0.0002114 1591.92188 2698.91919
2114.0 0.0002365 1589.90979 2604.44678
2102.0 0.0002379 1587.88977 2521.03784
2072.0 0.0002413 1585.86206 2446.99951
1932.0 0.0002588 1583.82666 2380.94995
1916.0 0.0002610 1581.78369 2321.75122
1823.0 0.0002743 1579.73328 2268.46069
1716.0 0.0002914 1577.67566 2220.29224
1697.0 0.0002946 1575.61121 2176.58472
1831.0 0.0002731 1573.53967 2136.78101
1786.0 0.0002800 1571.46106 2100.40723
1675.0 0.0002985 1569.37610 2067.05981
1595.0 0.0003135 1567.28479 2036.39221
1598.0 0.0003129 1565.18701 2008.10583
1644.0 0.0003041 1563.08289 1981.94238
1583.0 0.0003159 1560.97290 1957.67822
1508.0 0.0003316 1558.85718 1935.11768
1522.0 0.0003285 1556.73547 1914.08936
1641.0 0.0003047 1554.60828 1894.44348
1529.0 0.0003270 1552.47571 1876.04785
1577.0 0.0003171 1550.33801 1858.78564
1524.0 0.0003281 1548.19495 1842.55273
1512.0 0.0003307 1546.04700 1827.25769
1447.0 0.0003455 1543.89417 1812.81824
1517.0 0.0003296 1541.73706 1541.73730
1572.0 0.0003181 1539.57507 1539.57532
1511.0 0.0003309 1537.40894 1537.40918
1472.0 0.0003397 1535.23840 1535.23865
1482.0 0.0003374 1533.06396 1533.06421
1447.0 0.0003455 1530.88562 1530.88574
1589.0 0.0003147 1528.70361 1528.70386
1439.0 0.0003475 1526.51831 1526.51843
1493.0 0.0003349 1524.32922 1524.32947
1405.0 0.000356 1522.13708 1522.13721
1540.0 0.0003247 1519.94165 1519.94177
1463.0 0.0003418 1517.74329 1517.74341
1436.0 0.0003482 1515.54199 1515.54224
1482.0 0.0003374 1513.33813 1513.33838
1462.0 0.0003420 1511.13208 1511.13220
1477.0 0.0003385 1508.92383 1508.92407
1595.0 0.0003135 1506.71301 1506.71313
1603.0 0.0003119 1504.50012 1504.50024
1583.0 0.0003159 1502.28540 1502.28552
1696.0 0.0002948 1500.06897 1500.06921
1641.0 0.0003047 1497.85083 1497.85107
1635.0 0.0003058 1495.63147 1495.63171
1558.0 0.0003209 1493.41077 1493.41089
1544.0 0.0003238 1491.18945 1491.18958
1606.0 0.0003113 1488.96643 1488.96655
1513.0 0.0003305 1486.74292 1486.74304
1539.0 0.0003249 1484.51855 1484.51868
1403.0 0.000356 1482.29382 1482.29395
1390.0 0.000360 1480.06848 1480.06860
1414.0 0.000354 1477.84314 1477.84326
1444.0 0.0003463 1475.61755 1475.61768
1416.0 0.000353 1473.39221 1473.39233
1344.0 0.000372 1471.16736 1471.16748
1403.0 0.000356 1468.94250 1468.94263
1459.0 0.0003427 1466.71814 1466.71826
1374.0 0.000364 1464.49438 1464.49451
1481.0 0.0003376 1462.27148 1462.27161
1375.0 0.000364 1460.04944 1471.07996
1436.0 0.0003482 1457.82849 1469.35266
1509.0 0.0003313 1455.60901 1467.66052
1446.0 0.0003458 1453.39111 1466.00720
1467.0 0.0003408 1451.17419 1464.39526
1449.0 0.0003451 1448.95898 1462.82947
1494.0 0.0003347 1446.74561 1461.31470
1467.0 0.0003408 1444.53406 1459.85559
1541.0 0.0003245 1442.32471 1458.45837
1612.0 0.0003102 1440.11755 1457.12976
1510.0 0.0003311 1437.91248 1455.87683
1519.0 0.0003292 1435.71057 1454.70898
1625.0 0.0003077 1433.51050 1453.63489
1799.0 0.0002779 1431.31360 1452.66650
1951.0 0.0002563 1429.11926 1451.81665
2336.0 0.0002140 1426.92798 1451.10059
2777.0 0.0001801 1424.73975 1450.53577
3373.0 0.0001482 1422.55493 1450.14294
3818.0 0.0001310 1420.37329 1449.94617
4142.0 0.0001207 1418.19543 1449.97449
3789.0 0.0001320 1416.02124 1450.26196
3211.0 0.0001557 1413.85071 1450.84900
2662.0 0.0001878 1411.68384 1451.78540
2123.0 0.0002355 1409.52112 1453.13123
1833.0 0.0002728 1407.36243 1454.95984
1569.0 0.0003187 1405.20801 1457.36206
1555.0 0.0003215 1403.05798 1460.45093
1486.0 0.0003365 1400.91248 1464.36914
1433.0 0.0003489 1398.77197 1469.29797
1457.0 0.0003432 1396.63574 1475.46973
1388.0 0.000360 1394.50427 1483.18872
1417.0 0.000353 1392.37781 1492.85706
1461.0 0.0003422 1390.25659 1505.01563
1470.0 0.0003401 1388.14026 1520.41077
1546.0 0.0003234 1386.02930 1540.12646
1552.0 0.0003222 1383.92371 1565.91089
1574.0 0.0003177 1381.82410 1601.10193
1584.0 0.0003157 1379.72949 1653.13965
1754.0 0.0002851 1377.64087 1739.39661
2024.0 0.0002470 1375.55786 1897.58923
2304.0 0.0002170 1373.48083 2197.69263
2875.0 0.0001739 1371.40991 2742.62354
3595.0 0.0001391 1369.34509 3636.88550
4787.0 0.0001044 1367.28638 4910.72119
6414.0 0.0000780 1365.23401 6415.96582
7500.0 0.0000667 1363.18835 7751.94580
8328.0 0.0000600 1361.14905 8346.40332
7660.0 0.0000653 1359.11621 7836.30811
6338.0 0.0000789 1357.09009 6502.57861
4825.0 0.0001036 1355.07080 4965.31152
3406.0 0.0001468 1353.05823 3657.16943
2550.0 0.0001961 1351.05273 2736.35840
2021.0 0.0002474 1349.05432 2175.87305
1824.0 0.0002741 1347.06335 1868.35498
1641.0 0.0003047 1345.07935 1706.25720
1477.0 0.0003385 1343.10254 1616.68103
1386.0 0.000361 1341.13318 1560.98389
1435.0 0.0003484 1339.17114 1521.81152
1401.0 0.000357 1337.21692 1491.90771
1441.0 0.0003470 1335.27014 1468.04407
1336.0 0.000374 1333.33118 1448.51099
1316.0 0.000380 1331.40027 1432.23206
1287.0 0.000389 1329.47681 1418.45874
1317.0 0.000380 1327.56140 1406.64832
1441.0 0.0003470 1325.65381 1396.39648
1338.0 0.000374 1323.75452 1387.39807
1274.0 0.000392 1321.86304 1379.41821
1237.0 0.000404 1319.98010 1372.27551
1325.0 0.000377 1318.10522 1365.82666
1272.0 0.000393 1316.23865 1359.95825
1241.0 0.000403 1314.38086 1354.57947
1202.0 0.000416 1312.53125 1349.61584
1180.0 0.000424 1310.69006 1345.00781
1252.0 0.000399 1308.85742 1340.70581
1267.0 0.000395 1307.03345 1336.66870
1227.0 0.000407 1305.21814 1332.86243
1308.0 0.000382 1303.41150 1329.25867
1232.0 0.000406 1301.61377 1325.83276
1222.0 0.000409 1299.82507 1322.56482
1221.0 0.000410 1298.04504 1319.43652
1311.0 0.000381 1296.27380 1316.43335
1281.0 0.000390 1294.51172 1313.54260
1307.0 0.000383 1292.75842 1310.75269
1473.0 0.0003394 1291.01440 1308.05420
1619.0 0.0003088 1289.27930 1305.43848
1747.0 0.0002862 1287.55347 1302.89844
1939.0 0.0002579 1285.83716 1300.42798
2256.0 0.0002216 1284.12964 1298.02051
2237.0 0.0002235 1282.43152 1295.67139
2277.0 0.0002196 1280.74255 1293.37610
1980.0 0.0002525 1279.06299 1291.13086
1728.0 0.0002894 1277.39270 1288.93225
1536.0 0.0003255 1275.73193 1275.73169
1402.0 0.000357 1274.08044 1274.08020
1351.0 0.000370 1272.43848 1272.43823
1167.0 0.000428 1270.80627 1270.80603
1269.0 0.000394 1269.18323 1269.18298
1231.0 0.000406 1267.56958 1267.56934
1226.0 0.000408 1265.96570 1265.96545
1256.0 0.000398 1264.37122 1264.37097
1226.0 0.000408 1262.78650 1290.82031
1270.0 0.000394 1261.21106 1290.50403
1222.0 0.000409 1259.64551 1290.28430
1252.0 0.000399 1258.08972 1290.16907
1210.0 0.000413 1256.54346 1290.16711
1207.0 0.000414 1255.00659 1290.28882
1132.0 0.000442 1253.47961 1290.54590
1228.0 0.000407 1251.96204 1290.95105
1200.0 0.000417 1250.45435 1291.51929
1211.0 0.000413 1248.95618 1292.26709
1144.0 0.000437 1247.46790 1293.21375
1186.0 0.000422 1245.98950 1294.38098
1158.0 0.000432 1244.52051 1295.79346
1197.0 0.000418 1243.06116 1297.47998
1259.0 0.000397 1241.61157 1299.47412
1255.0 0.000398 1240.17175 1301.81470
1277.0 0.000392 1238.74133 1304.54651
1260.0 0.000397 1237.32092 1307.72290
1130.0 0.000442 1235.91003 1311.40601
1189.0 0.000421 1234.50891 1315.67029
1137.0 0.000440 1233.11755 1320.60388
1270.0 0.000394 1231.73560 1326.31274
1244.0 0.000402 1230.36328 1332.92505
1255.0 0.000398 1229.00073 1340.59668
1332.0 0.000375 1227.64771 1349.51892
1253.0 0.000399 1226.30420 1359.92810
1239.0 0.000404 1224.97046 1372.11987
1326.0 0.000377 1223.64624 1386.46619
1341.0 0.000373 1222.33167 1469.88501
1316.0 0.000380 1221.02649 1493.08191
1421.0 0.000352 1219.73071 1520.52234
1366.0 0.000366 1218.44458 1553.28430
1414.0 0.000354 1217.16785 1592.81763
1511.0 0.0003309 1215.90063 1641.13354
1603.0 0.0003119 1214.64270 1701.19141
1678.0 0.0002980 1213.39429 1777.90686
1859.0 0.0002690 1212.15540 1880.96960
2007.0 0.0002491 1210.92542 2032.19104
2301.0 0.0002173 1209.70496 2281.46655
2950.0 0.0001695 1208.49377 2732.78955
3758.0 0.0001330 1207.29175 3568.80347
5238.0 0.0000955 1206.09888 5039.35449
7521.0 0.0000665 1204.91528 7367.75049
10612.0 0.0000471 1203.74084 10559.70703
14169.0 0.0000353 1202.57544 14166.13867
16361.0 0.0000306 1201.41919 17139.96289
17319.0 0.0000289 1200.27185 18120.58984
15625.0 0.0000320 1199.13354 16488.47656
12481.0 0.0000401 1198.00415 13164.20410
9520.0 0.0000525 1196.88354 9581.34375
6575.0 0.0000760 1195.77185 6631.81348
4635.0 0.0001079 1194.66882 4600.21924
3482.0 0.0001436 1193.57483 3385.36743
2834.0 0.0001764 1192.48962 2732.79102
2535.0 0.0001972 1191.41296 2402.65503
2229.0 0.0002243 1190.34473 2236.66919
2138.0 0.0002339 1189.28528 2152.25732
2130.0 0.0002347 1188.23425 2113.10400
2162.0 0.0002313 1187.19177 2105.02783
2185.0 0.0002288 1186.15759 2123.18408
2185.0 0.0002288 1185.13196 2166.94800
2356.0 0.0002122 1184.11475 2238.43262
2424.0 0.0002063 1183.10559 2342.70898
2612.0 0.0001914 1182.10461 2489.83789
3043.0 0.0001643 1181.11182 2701.17578
3380.0 0.0001479 1180.12720 3026.08618
4051.0 0.0001234 1179.15051 3578.38721
5192.0 0.0000963 1178.18188 4596.02783
7181.0 0.0000696 1177.22119 6498.16016
10778.0 0.0000464 1176.26831 9861.32910
15401.0 0.0000325 1175.32336 15208.64453
22522.0 0.0000222 1174.38611 22575.54102
30156.0 0.0000166 1173.45630 30963.88672
37016.0 0.0000135 1172.53430 37986.67969
40226.0 0.0000124 1171.61987 40464.51563
35788.0 0.0000140 1170.71289 36838.58984
28157.0 0.0000178 1169.81335 29140.11133
19664.0 0.0000254 1168.92114 20715.57227
13325.0 0.0000375 1168.03638 13697.75977
8966.0 0.0000558 1167.15881 8809.92480
5792.0 0.0000863 1166.28821 5827.21484
4290.0 0.0001166 1165.42493 4177.67676
3375.0 0.0001481 1164.56848 3296.77197
3011.0 0.0001661 1163.71912 2803.97314
2673.0 0.0001871 1162.87659 2496.11816
2255.0 0.0002217 1162.04089 2280.47974
2138.0 0.0002339 1161.21216 2117.41992
2058.0 0.0002430 1160.38989 1988.93774
1858.0 0.0002691 1159.57434 1885.38037
1965.0 0.0002545 1158.76514 1800.64160
1735.0 0.0002882 1157.96252 1730.46802
1648.0 0.0003034 1157.16626 1642.87732
1645.0 0.0003040 1156.37634 1594.56616
1572.0 0.0003181 1155.59265 1553.59229
1552.0 0.0003222 1154.81519 1518.62305
1467.0 0.0003408 1154.04382 1488.62793
1427.0 0.0003504 1153.27856 1462.80103
1455.0 0.0003436 1152.51904 1440.50928
1418.0 0.000353 1151.76563 1421.25403
1367.0 0.000366 1151.01782 1404.64136
1342.0 0.000373 1150.27576 1390.36316
1398.0 0.000358 1149.53931 1378.18091
1324.0 0.000378 1148.80859 1367.91687
1281.0 0.000390 1148.08325 1359.44629
1333.0 0.000375 1147.36340 1352.69385
1228.0 0.000407 1146.64880 1347.63306
1268.0 0.000394 1145.93958 1344.29004
1307.0 0.000383 1145.23547 1342.74658
1256.0 0.000398 1144.53638 1343.15454
1305.0 0.000383 1143.84229 1345.75024
1258.0 0.000397 1143.15344 1350.88257
1370.0 0.000365 1142.46936 1359.05469
1370.0 0.000365 1141.79004 1370.99866
1499.0 0.0003336 1141.11523 1387.83655
1612.0 0.0003102 1140.44519 1411.50452
1633.0 0.0003062 1139.77979 1445.92725
1706.0 0.0002931 1139.11877 1503.16492
1882.0 0.0002657 1138.46216 1597.07275
1996.0 0.0002505 1137.80981 1771.47961
2303.0 0.0002171 1137.16174 2027.14417
2970.0 0.0001684 1136.51794 2595.76685
3711.0 0.0001347 1135.87805 3481.67114
4834.0 0.0001034 1135.24219 4675.59424
6387.0 0.0000783 1134.61035 5999.05664
7596.0 0.0000658 1133.98230 7055.72070
7576.0 0.0000660 1133.35791 7348.93799
6986.0 0.0000716 1132.73718 6689.09033
5599.0 0.0000893 1132.12024 5443.15527
4206.0 0.0001189 1131.50671 4126.17871
3182.0 0.0001571 1130.89673 3047.30688
2351.0 0.0002127 1130.28992 2301.36670
1838.0 0.0002720 1129.68665 1849.16125
1643.0 0.0003043 1129.08618 1598.89600
1606.0 0.0003113 1128.48926 1464.44397
1406.0 0.000356 1127.89502 1388.54028
1363.0 0.000367 1127.30396 1340.77161
1341.0 0.000373 1126.71594 1307.23987
1308.0 0.000382 1126.13049 1281.96094
1272.0 0.000393 1125.54773 1262.19202
1291.0 0.000387 1124.96777 1246.45398
1179.0 0.000424 1124.39026 1233.81641
1265.0 0.000395 1123.81531 1223.64160
1243.0 0.000402 1123.24280 1224.88000
1207.0 0.000414 1122.67249 1218.83545
1210.0 0.000413 1122.10461 1214.29980
1195.0 0.000418 1121.53906 1211.14185
1215.0 0.000412 1120.97546 1209.30334
1149.0 0.000435 1120.41370 1208.79639
1221.0 0.000410 1119.85425 1209.71460
1245.0 0.000402 1119.29639 1212.25647
1180.0 0.000424 1118.74048 1216.80725
1218.0 0.000411 1118.18628 1224.15796
1231.0 0.000406 1117.63379 1236.10071
1232.0 0.000406 1117.08276 1256.76575
1285.0 0.000389 1116.53345 1294.95813
1402.0 0.000357 1115.98535 1366.77686
1447.0 0.0003455 1115.43884 1495.77734
1733.0 0.0002885 1114.89343 1706.30627
1988.0 0.0002515 1114.34937 2007.48535
2353.0 0.0002125 1113.80640 2370.85327
2589.0 0.0001931 1113.26453 2710.51221
2709.0 0.0001846 1112.72375 2890.70752
2610.0 0.0001916 1112.18384 2808.94043
2387.0 0.0002095 1111.64465 2510.75439
2103.0 0.0002378 1111.10645 2140.31104
1794.0 0.0002787 1110.56885 1809.53455
1591.0 0.0003143 1110.03210 1566.19263
1424.0 0.000351 1109.49573 1411.93506
1359.0 0.000368 1108.95996 1325.25049
1371.0 0.000365 1108.42468 1280.63342
1372.0 0.000364 1107.88989 1247.75818
1245.0 0.000402 1107.35535 1238.33423
1261.0 0.000397 1106.82092 1235.51978
1271.0 0.000393 1106.28699 1237.27380
1296.0 0.000386 1105.75293 1243.01807
1277.0 0.000392 1105.21899 1252.89417
1252.0 0.000399 1104.68506 1267.59692
1263.0 0.000396 1104.15112 1288.64221
1360.0 0.000368 1103.61707 1319.36731
1419.0 0.000352 1103.08289 1367.49072
1523.0 0.0003283 1102.54834 1450.34753
1647.0 0.0003036 1102.01355 1602.69812
1951.0 0.0002563 1101.47827 1882.69067
2382.0 0.0002099 1100.94275 2365.23462
3119.0 0.0001603 1100.40662 3110.64868
4092.0 0.0001222 1099.87000 4107.51953
5143.0 0.0000972 1099.33289 5205.40283
6054.0 0.0000826 1098.79504 6074.72168
6245.0 0.0000801 1098.25647 6305.27686
5616.0 0.0000890 1097.71716 5748.49219
4540.0 0.0001101 1097.17700 4712.35547
3483.0 0.0001436 1096.63599 3618.87158
2552.0 0.0001959 1096.09412 2720.31348
2050.0 0.0002439 1095.55127 2095.02661
1639.0 0.0003051 1095.00732 1712.43323
1416.0 0.000353 1094.46240 1498.29797
1320.0 0.000379 1093.91638 1381.91223
1276.0 0.000392 1093.36902 1315.54541
1208.0 0.000414 1092.82056 1273.43250
1207.0 0.000414 1092.27075 1243.60779
1175.0 0.000426 1091.71973 1220.85425
1152.0 0.000434 1091.16711 1202.76563
1089.0 0.000459 1090.61328 1188.04285
1107.0 0.000452 1090.05811 1175.86279
1106.0 0.000452 1089.50134 1165.65100
1134.0 0.000441 1088.94287 1156.98755
1084.0 0.000461 1088.38293 1149.55884
1099.0 0.000455 1087.82129 1140.04150
1091.0 0.000458 1087.25806 1134.55029
1137.0 0.000440 1086.69299 1129.71924
1079.0 0.000463 1086.12634 1125.43542
1077.0 0.000464 1085.55798 1121.60913
1119.0 0.000447 1084.98767 1118.16785
1102.0 0.000454 1084.41541 1115.05298
1270.0 0.000394 1083.84143 1112.21667
1154.0 0.000433 1083.26526 1109.61902
1349.0 0.000371 1082.68738 1107.22717
1479.0 0.0003381 1082.10730 1105.01379
1523.0 0.0003283 1081.52527 1102.95569
1676.0 0.0002983 1080.94116 1101.03320
1447.0 0.0003455 1080.35510 1099.23022
1364.0 0.000367 1079.76685 1097.53186
1228.0 0.000407 1079.17627 1095.92615
1147.0 0.000436 1078.58362 1094.40283
1072.0 0.000466 1077.98877 1092.95239
994.0 0.000503 1077.39160 1091.79858
1011.0 0.000495 1076.79224 1090.48193
1009.0 0.000496 1076.19043 1089.21838
988.0 0.000506 1075.58643 1088.00244
1051.0 0.000476 1074.98010 1086.82959
974.0 0.000513 1074.37122 1085.69556
964.0 0.000519 1073.76013 1084.59692
954.0 0.000524 1073.14648 1083.53052
977.0 0.000512 1072.53064 1072.86914
1039.0 0.000481 1071.91211 1072.26917
967.0 0.000517 1071.29114 1071.66821
990.0 0.000505 1070.66772 1071.06665
990.0 0.000505 1070.04175 1070.46448
1020.0 0.000490 1069.41333 1069.86194
1097.0 0.000456 1068.78235 1069.25940
1035.0 0.000483 1068.14868 1068.65686
1064.0 0.000470 1067.51257 1068.05505
1024.0 0.000488 1066.87366 1067.45398
1061.0 0.000471 1066.23242 1066.85474
1042.0 0.000480 1065.58838 1071.07031
966.0 0.000518 1064.94189 1070.69177
950.0 0.000526 1064.29272 1070.33167
1055.0 0.000474 1063.64075 1069.99243
988.0 0.000506 1062.98633 1069.67688
1039.0 0.000481 1062.32910 1069.38843
984.0 0.000508 1061.66931 1069.13098
995.0 0.000503 1061.00659 1069.53931
1021.0 0.000490 1060.34143 1069.38721
1045.0 0.000478 1059.67358 1069.28491
1071.0 0.000467 1059.00317 1069.24097
973.0 0.000514 1058.32983 1069.26538
1052.0 0.000475 1057.65393 1069.37195
1007.0 0.000497 1056.97522 1069.57690
989.0 0.000506 1056.29382 1069.90283
989.0 0.000506 1055.60974 1070.38074
927.0 0.000539 1054.92310 1071.06067
976.0 0.000512 1054.23364 1072.03564
948.0 0.000527 1053.54150 1073.50232
976.0 0.000512 1052.84668 1075.88110
1015.0 0.000493 1052.14917 1079.99255
1003.0 0.000499 1051.44897 1087.18774
992.0 0.000504 1050.74622 1099.19861
1024.0 0.000488 1050.04065 1117.44055
1051.0 0.000476 1049.33252 1141.75427
1210.0 0.000413 1048.62170 1168.90063
1186.0 0.000422 1047.90845 1191.53687
1186.0 0.000422 1047.19238 1200.14307
1131.0 0.000442 1046.47363 1190.78052
1083.0 0.000462 1045.75232 1170.18396
1103.0 0.000453 1045.02844 1148.32373
1005.0 0.000498 1044.30188 1131.50732
1019.0 0.000491 1043.57288 1122.06775
1044.0 0.000479 1042.84131 1119.83655
1063.0 0.000470 1042.10730 1125.01428
1089.0 0.000459 1041.37061 1134.19690
1044.0 0.000479 1040.63135 1149.18665
1110.0 0.000450 1039.88965 1173.05530
1116.0 0.000448 1039.14551 1213.64636
1200.0 0.000417 1038.39893 1286.96851
1441.0 0.0003470 1037.64978 1419.87463
1607.0 0.0003111 1036.89844 1647.30151
2054.0 0.0002434 1036.14453 2002.16394
2588.0 0.0001932 1035.38831 2476.30688
3121.0 0.0001602 1034.62964 3010.77441
3701.0 0.0001351 1033.86877 3459.99951
3795.0 0.0001318 1033.10547 3629.09741
3580.0 0.0001397 1032.33997 3427.93213
3138.0 0.0001593 1031.57202 2986.55884
2633.0 0.0001899 1030.80212 2510.04053
2294.0 0.0002180 1030.02979 2124.71997
1957.0 0.0002555 1029.25562 1862.83691
1708.0 0.0002927 1028.47888 1692.30676
1620.0 0.0003086 1027.70020 1561.54504
1443.0 0.0003465 1026.91931 1443.69873
1387.0 0.000360 1026.13647 1339.57507
1271.0 0.000393 1025.35156 1255.39624
1245.0 0.000402 1024.56458 1193.39294
1219.0 0.000410 1023.77563 1151.36438
1227.0 0.000407 1022.98474 1124.43311
1191.0 0.000420 1022.19202 1107.38000
1106.0 0.000452 1021.39716 1096.19165
1176.0 0.000425 1020.60059 1088.39893
1090.0 0.000459 1019.80219 1082.70166
1035.0 0.000483 1019.00201 1078.47021
1089.0 0.000459 1018.20007 1075.40735
1062.0 0.000471 1017.39642 1073.37769
1050.0 0.000476 1016.59113 1072.34021
1013.0 0.000494 1015.78412 1072.34143
965.0 0.000518 1014.97546 1073.55615
1133.0 0.000441 1014.16534 1076.42627
1031.0 0.000485 1013.35352 1082.00415
1018.0 0.000491 1012.54034 1092.38757
1074.0 0.000466 1011.72559 1112.63562
1078.0 0.000464 1010.90942 1149.95703
1232.0 0.000406 1010.09186 1213.73083
1272.0 0.000393 1009.27319 1311.33203
1362.0 0.000367 1008.45294 1441.24731
1563.0 0.0003199 1007.63147 1584.96643
1731.0 0.0002889 1006.80890 1701.38452
1809.0 0.0002764 1005.98505 1737.68250
1658.0 0.0003016 1005.16003 1672.67371
1549.0 0.0003228 1004.33392 1543.68665
1402.0 0.000357 1003.50677 1404.86487
1229.0 0.000407 1002.67877 1289.94299
1233.0 0.000406 1001.84961 1210.75439
1123.0 0.000445 1001.01953 1165.11023
1113.0 0.000449 1000.18860 1144.82166
1121.0 0.000446 999.35675 1142.02783
1091.0 0.000458 998.52423 1152.82495
1229.0 0.000407 997.69092 1179.25269
1235.0 0.000405 996.85687 1231.52869
1358.0 0.000368 996.02234 1326.08264
1513.0 0.0003305 995.18713 1505.96375
1779.0 0.0002811 994.35120 1800.95300
2344.0 0.0002133 993.51483 2231.68188
2910.0 0.0001718 992.67792 2772.18750
3492.0 0.0001432 991.84070 3319.67090
3793.0 0.0001318 991.00299 3684.45337
3716.0 0.0001346 990.16504 3678.49414
3390.0 0.0001475 989.32678 3299.37402
2739.0 0.0001825 988.48846 2741.86279
2255.0 0.0002217 987.64978 2198.13110
1765.0 0.0002833 986.81097 1767.74792
1496.0 0.0003342 985.97205 1473.75842
1376.0 0.000363 985.13312 1294.54468
1224.0 0.000408 984.29413 1193.03687
1131.0 0.000442 983.45532 1136.31128
1114.0 0.000449 982.61652 1102.71643
1118.0 0.000447 981.77814 1080.61755
1098.0 0.000455 980.93976 1064.54395
1083.0 0.000462 980.10168 1052.04639
1005.0 0.000498 979.26385 1041.95581
1039.0 0.000481 978.42639 1033.62341
980.0 0.000510 977.58936 1026.63135
989.0 0.000506 976.75281 1020.68628
979.0 0.000511 975.91675 1015.57202
1107.0 0.000452 975.08136 1011.12683
1109.0 0.000451 974.24652 1007.22717
1192.0 0.000419 973.41223 1003.77808
1250.0 0.000400 972.57886 1000.70569
1262.0 0.000396 971.74603 997.95178
1237.0 0.000404 970.91418 995.47113
1262.0 0.000396 970.08313 993.22760
1201.0 0.000416 969.25305 991.19324
1090.0 0.000459 968.42389 987.97717
1093.0 0.000457 967.59601 986.35956
1028.0 0.000486 966.76886 984.89716
974.0 0.000513 965.94299 983.58301
997.0 0.000502 965.11823 982.41394
987.0 0.000507 964.29480 981.39117
945.0 0.000529 963.47260 980.51996
990.0 0.000505 962.65173 979.81134
1002.0 0.000499 961.83221 979.28192
989.0 0.000506 961.01434 978.95746
1147.0 0.000436 960.19781 978.87280
1159.0 0.000431 959.38275 979.07843
1173.0 0.000426 958.56927 979.64661
1187.0 0.000421 957.75751 980.68744
1208.0 0.000414 956.94739 982.39050
1180.0 0.000424 956.13910 985.13330
1100.0 0.000455 955.33252 989.74194
1124.0 0.000445 954.52789 998.00275
990.0 0.000505 953.72516 1013.40637
1041.0 0.000480 952.92419 1041.71741
1083.0 0.000462 952.12531 1090.40588
1162.0 0.000430 951.32843 1165.85266
1276.0 0.000392 950.53369 1268.18201
1335.0 0.000375 949.74109 1384.89575
1448.0 0.0003453 948.95081 1485.56213
1599.0 0.0003127 948.16254 1526.86865
1444.0 0.0003463 947.37689 1484.22144
1369.0 0.000365 946.59332 1380.97034
1204.0 0.000415 945.81219 1261.71753
1059.0 0.000472 945.03345 1157.27112
1062.0 0.000471 944.25726 1076.46533
904.0 0.000553 943.48358 1026.17297
942.0 0.000531 942.71252 996.28015
963.0 0.000519 941.94403 979.23877
878.0 0.000569 941.17847 969.25586
960.0 0.000521 940.41547 962.84833
929.0 0.000538 939.65515 958.25012
921.0 0.000543 938.89771 954.65076
910.0 0.000549 938.14307 951.67975
913.0 0.000548 937.39148 949.14941
968.0 0.000517 936.64270 946.94794
895.0 0.000559 935.89716 945.00031
959.0 0.000521 935.15454 943.25232
959.0 0.000521 934.41498 941.66357
1008.0 0.000496 933.67853 940.20380
1113.0 0.000449 932.94531 938.84961
1028.0 0.000486 932.21539 937.58264
1084.0 0.000461 931.48871 936.38861
1027.0 0.000487 930.76526 935.25592
976.0 0.000512 930.04523 934.17560
1056.0 0.000473 929.32855 933.14014
971.0 0.000515 928.61548 935.12469
947.0 0.000528 927.90570 934.26984
932.0 0.000536 927.19952 933.45081
883.0 0.000566 926.49695 932.66443
945.0 0.000529 925.79791 931.90833
884.0 0.000566 925.10254 931.18060
866.0 0.000577 924.41089 930.47998
841.0 0.000595 923.72284 929.80493
885.0 0.000565 923.03888 929.15546
917.0 0.000545 922.35858 928.53027
866.0 0.000577 921.68201 927.92944
887.0 0.000564 921.00940 927.35297
880.0 0.000568 920.34064 926.80115
861.0 0.000581 919.67596 926.27466
910.0 0.000549 919.01514 925.77380
888.0 0.000563 918.35846 925.29987
925.0 0.000541 917.70587 924.85406
958.0 0.000522 917.05737 924.62408
937.0 0.000534 916.41290 924.24579
948.0 0.000527 915.77271 923.90137
918.0 0.000545 915.13654 923.59326
941.0 0.000531 914.50482 923.32458
930.0 0.000538 913.87726 923.09875
894.0 0.000559 913.25403 922.91968
888.0 0.000563 912.63513 922.79218
887.0 0.000564 912.02075 922.72180
907.0 0.000551 911.41058 922.71472
866.0 0.000577 910.80493 922.77875
896.0 0.000558 910.20361 922.92255
911.0 0.000549 909.60693 923.15686
864.0 0.000579 909.01465 923.49408
846.0 0.000591 908.42700 923.20667
815.0 0.000613 907.84387 923.82294
903.0 0.000554 907.26544 924.59576
856.0 0.000584 906.69165 925.55164
844.0 0.000592 906.12231 926.72327
884.0 0.000566 905.55780 928.15125
830.0 0.000602 904.99799 929.88617
904.0 0.000553 904.44281 931.99194
900.0 0.000556 903.89252 934.55005
889.0 0.000562 903.34692 937.66565
892.0 0.000561 902.80615 941.47650
880.0 0.000568 902.27026 946.16577
917.0 0.000545 901.73914 951.98358
913.0 0.000548 901.21289 959.29120
903.0 0.000554 900.69147 968.66437
943.0 0.000530 900.17511 981.16797
978.0 0.000511 899.66345 999.03241
1002.0 0.000499 899.15692 1027.09119
1055.0 0.000474 898.65533 1075.15833
1185.0 0.000422 898.15881 1160.60315
1308.0 0.000382 897.66711 1308.55188
1569.0 0.0003187 897.18048 1545.78662
1886.0 0.0002651 896.69885 1885.99207
2396.0 0.0002087 896.22241 2308.57910
2784.0 0.0001796 895.75085 2736.17529
3134.0 0.0001595 895.28448 3025.88940
2990.0 0.0001672 894.82312 3031.77441
2697.0 0.0001854 894.36700 2747.80127
2416.0 0.0002070 893.91602 2319.04004
1875.0 0.0002667 893.46997 1893.14026
1532.0 0.0003264 893.02911 1549.39429
1326.0 0.000377 892.59332 1309.31238
1186.0 0.000422 892.16290 1159.62292
1087.0 0.000460 891.73755 1073.48962
1013.0 0.000494 891.31738 1025.63525
954.0 0.000524 890.90247 998.82526
944.0 0.000530 890.49268 983.89771
983.0 0.000509 890.08801 977.27380
1007.0 0.000497 889.68866 978.40784
966.0 0.000518 889.29449 987.72931
932.0 0.000536 888.90564 1004.84760
1082.0 0.000462 888.52173 1026.88159
1095.0 0.000457 888.14331 1047.06433
1115.0 0.000448 887.77002 1055.28369
1069.0 0.000468 887.40210 1044.59558
1032.0 0.000484 887.03925 1018.92834
980.0 0.000510 886.68176 988.44403
943.0 0.000530 886.32941 960.83142
1037.0 0.000482 885.98236 939.48810
887.0 0.000564 885.64038 924.74133
924.0 0.000541 885.30389 915.26849
867.0 0.000577 884.97247 909.30743
905.0 0.000552 884.64642 905.39832
932.0 0.000536 884.32550 902.60437
928.0 0.000539 884.00977 900.42047
933.0 0.000536 883.69946 898.60114
866.0 0.000577 883.39410 897.02814
893.0 0.000560 883.09418 895.63995
902.0 0.000554 882.79926 894.39807
940.0 0.000532 882.50977 893.27655
882.0 0.000567 882.22534 892.25531
828.0 0.000604 881.94617 891.31909
831.0 0.000602 881.67212 890.45575
914.0 0.000547 881.40332 889.65558
841.0 0.000595 881.13953 888.91046
846.0 0.000591 880.88098 888.21411
856.0 0.000584 880.62762 906.68268
869.0 0.000575 880.37939 906.75751
910.0 0.000549 880.13623 906.90491
832.0 0.000601 879.89825 907.12469
916.0 0.000546 879.66528 907.41681
842.0 0.000594 879.43738 907.78241
859.0 0.000582 879.21460 908.22302
865.0 0.000578 878.99689 908.74097
838.0 0.000597 878.78412 909.33911
892.0 0.000561 878.57654 910.02106
875.0 0.000571 878.37378 910.79102
872.0 0.000573 878.17621 911.65405
936.0 0.000534 877.98346 912.61584
881.0 0.000568 877.79565 913.68323
847.0 0.000590 877.61285 914.86389
884.0 0.000566 877.43500 916.16675
863.0 0.000579 877.26196 914.61835
933.0 0.000536 877.09381 916.29932
899.0 0.000556 876.93048 918.13147
874.0 0.000572 876.77209 920.13037
877.0 0.000570 876.61847 922.31311
875.0 0.000571 876.46960 924.69952
932.0 0.000536 876.32562 927.31244
887.0 0.000564 876.18616 932.58508
845.0 0.000592 876.05164 935.81970
929.0 0.000538 875.92169 939.37616
886.0 0.000564 875.79645 943.29510
974.0 0.000513 875.67584 947.62396
983.0 0.000509 875.55981 952.41840
1033.0 0.000484 875.44849 957.74414
1051.0 0.000476 875.34161 963.67859
1109.0 0.000451 875.23932 970.31439
1066.0 0.000469 875.14154 977.76245
1129.0 0.000443 875.04822 986.15649
1143.0 0.000437 874.95947 995.47162
1199.0 0.000417 874.87506 1006.28882
1215.0 0.000412 874.79498 1018.65961
1175.0 0.000426 874.71930 1032.89075
1098.0 0.000455 874.64801 1049.36731
1108.0 0.000451 874.58087 1068.57959
1063.0 0.000470 874.51819 1091.15759
1081.0 0.000463 874.45959 1117.92224
1191.0 0.000420 874.40533 1149.96008
1196.0 0.000418 874.35516 1188.74646
1216.0 0.000411 874.30914 1236.38452
1274.0 0.000392 874.26721 1296.16479
1311.0 0.000381 874.22937 1374.00720
1492.0 0.0003351 874.19562 1482.00671
1723.0 0.0002902 874.16571 1646.01050
2016.0 0.0002480 874.13983 1918.51538
2430.0 0.0002058 874.11780 2393.72339
3274.0 0.0001527 874.09979 3212.18701
4856.0 0.0001030 874.08557 4533.86133
6678.0 0.0000749 874.07520 6463.72070
9377.0 0.0000533 874.06854 8937.48535
12110.0 0.0000413 874.06573 11591.59863
13799.0 0.0000362 874.06647 13668.89355
14712.0 0.0000340 874.07098 14228.82617
12815.0 0.0000390 874.07898 12942.41992
10242.0 0.0000488 874.09076 10498.89355
7810.0 0.0000640 874.10590 7846.22266
5613.0 0.0000891 874.12463 5576.97607
4183.0 0.0001195 874.14679 3911.11060
2927.0 0.0001708 874.17230 2824.97363
2311.0 0.0002164 874.20135 2177.22070
1992.0 0.0002510 874.23358 1809.02136
1688.0 0.0002962 874.26917 1598.15613
1647.0 0.0003036 874.30798 1469.90747
1468.0 0.0003406 874.35010 1385.59509
1458.0 0.0003429 874.39520 1327.55505
1338.0 0.000374 874.44354 1288.97852
1295.0 0.000386 874.49493 1269.42883
1271.0 0.000393 874.54932 1274.15259
1347.0 0.000371 874.60669 1314.76404
1429.0 0.0003499 874.66705 1408.46948
1595.0 0.0003135 874.73035 1572.86987
1712.0 0.0002921 874.79639 1815.07861
2133.0 0.0002344 874.86530 2116.94385
2390.0 0.0002092 874.93695 2419.37842
2590.0 0.0001931 875.01129 2616.66846
2534.0 0.0001973 875.08838 2604.25244
2300.0 0.0002174 875.16797 2381.91113
2151.0 0.0002325 875.25024 2055.83496
1666.0 0.0003001 875.33496 1731.98584
1522.0 0.0003285 875.42218 1467.57532
1188.0 0.000421 875.51190 1278.94580
1154.0 0.000433 875.60400 1157.53064
1165.0 0.000429 875.69836 1084.43750
1016.0 0.000492 875.79504 1041.11694
1010.0 0.000495 875.89392 1014.25189
967.0 0.000517 875.99512 996.04480
959.0 0.000521 876.09833 982.52698
931.0 0.000537 876.20361 971.81726
888.0 0.000563 876.31104 963.00378
891.0 0.000561 876.42041 955.58990
892.0 0.000561 876.53174 949.26343
920.0 0.000543 876.64502 943.80548
920.0 0.000543 876.76007 939.05341
894.0 0.000559 876.87695 934.88318
901.0 0.000555 876.99554 931.19788
896.0 0.000558 877.11584 927.92120
948.0 0.000527 877.23792 924.99200
887.0 0.000564 877.36139 922.36053
853.0 0.000586 877.48651 919.98657
854.0 0.000585 877.61316 917.83667
866.0 0.000577 877.74121 915.88287
866.0 0.000577 877.87061 914.10181
918.0 0.000545 878.00146 912.47375
830.0 0.000602 878.13354 910.98181
839.0 0.000596 878.26685 909.61145
863.0 0.000579 878.40143 908.35040
838.0 0.000597 878.53705 907.18750
896.0 0.000558 878.67377 906.11359
813.0 0.000615 878.81158 905.12030
917.0 0.000545 878.95044 885.36206
813.0 0.000615 879.09015 885.14874
839.0 0.000596 879.23071 884.96454
936.0 0.000534 879.37207 884.80658
831.0 0.000602 879.51440 884.67230
787.0 0.000635 879.65729 884.55914
835.0 0.000599 879.80096 884.46533
830.0 0.000602 879.94513 884.38885
863.0 0.000579 880.09003 884.32837
869.0 0.000575 880.23547 884.28229
861.0 0.000581 880.38123 884.24921
836.0 0.000598 880.52753 884.22827
869.0 0.000575 880.67419 884.21826
916.0 0.000546 880.82117 884.21826
833.0 0.000600 880.96826 884.22736
878.0 0.000569 881.11578 884.24512
897.0 0.000557 881.26337 884.27051
942.0 0.000531 881.41113 884.30310
935.0 0.000535 881.55902 884.34235
1038.0 0.000482 881.70679 884.38745
1113.0 0.000449 881.85461 884.43811
1212.0 0.000413 882.00232 884.49390
1210.0 0.000413 882.14990 882.14954
1273.0 0.000393 882.29730 882.29694
1218.0 0.000411 882.44440 882.44403
1106.0 0.000452 882.59131 882.59094
1067.0 0.000469 882.73785 883.15009
997.0 0.000502 882.88403 883.31110
1007.0 0.000497 883.02966 883.47229
929.0 0.000538 883.17499 883.63409
898.0 0.000557 883.31964 883.79620
892.0 0.000561 883.46368 883.95868
908.0 0.000551 883.60724 884.12170
929.0 0.000538 883.75000 884.28516
930.0 0.000538 883.89209 884.44922
951.0 0.000526 884.03345 884.61389
994.0 0.000503 884.17389 884.77917
994.0 0.000503 884.31354 884.94531
994.0 0.000503 884.45221 885.11212
997.0 0.000502 884.58984 885.27997
997.0 0.000502 884.72656 885.44885
998.0 0.000501 884.86218 885.61914
992.0 0.000504 884.99670 885.79077
903.0 0.000554 885.13000 886.45563
935.0 0.000535 885.26215 886.64862
910.0 0.000549 885.39307 886.84479
887.0 0.000564 885.52271 887.04443
836.0 0.000598 885.65094 887.24805
908.0 0.000551 885.77777 887.45618
808.0 0.000619 885.90326 887.66943
854.0 0.000585 886.02716 887.88843
815.0 0.000613 886.14960 888.11407
846.0 0.000591 886.27045 888.34723
838.0 0.000597 886.38965 888.58893
823.0 0.000608 886.50720 888.84058
842.0 0.000594 886.62299 889.10352
817.0 0.000612 886.73712 889.37970
861.0 0.000581 886.84943 889.67102
885.0 0.000565 886.95996 889.98016
843.0 0.000593 887.06848 890.30975
835.0 0.000599 887.17523 890.66388
876.0 0.000571 887.27991 891.04657
855.0 0.000585 887.38263 891.46332
874.0 0.000572 887.48334 891.92090
833.0 0.000600 887.58185 892.42737
837.0 0.000597 887.67834 892.99341
897.0 0.000557 887.77258 893.63214
898.0 0.000557 887.86469 894.36102
842.0 0.000594 887.95453 895.20251
837.0 0.000597 888.04205 896.18689
858.0 0.000583 888.12732 897.35712
874.0 0.000572 888.21008 898.77911
854.0 0.000585 888.29053 900.56903
893.0 0.000560 888.36853 902.95776
856.0 0.000584 888.44403 906.42554
842.0 0.000594 888.51703 911.93060
838.0 0.000597 888.58746 921.17969
870.0 0.000575 888.65533 936.73645
912.0 0.000548 888.72046 961.61371
940.0 0.000532 888.78302 998.05627
1026.0 0.000487 888.84283 1045.59155
1062.0 0.000471 888.89996 1098.71692
1130.0 0.000442 888.95428 1144.75134
1148.0 0.000436 889.00586 1165.50476
1109.0 0.000451 889.05450 1150.06946
1077.0 0.000464 889.10028 1107.25952
1038.0 0.000482 889.14319 1055.61670
1023.0 0.000489 889.18317 1008.83313
1006.0 0.000497 889.22015 990.70752
973.0 0.000514 889.25415 967.96259
1003.0 0.000499 889.28503 955.89319
1130.0 0.000442 889.31293 952.40179
1211.0 0.000413 889.33771 956.52667
1447.0 0.0003455 889.35944 969.13928
1688.0 0.0002962 889.37781 992.61072
1777.0 0.0002814 889.39313 1029.43201
1898.0 0.0002634 889.40521 1079.95947
1852.0 0.0002700 889.41406 1139.72266
1885.0 0.0002653 889.41968 1196.70081
1542.0 0.0003243 889.42200 1231.01367
1443.0 0.0003465 889.42090 1225.47778
1269.0 0.000394 889.41650 1183.38220
1152.0 0.000434 889.40863 1124.80884
1085.0 0.000461 889.39746 1067.89050
927.0 0.000539 889.38281 1022.08606
941.0 0.000531 889.36475 989.98047
937.0 0.000534 889.34314 970.00385
902.0 0.000554 889.31805 958.85901
889.0 0.000562 889.28937 953.29828
863.0 0.000579 889.25720 950.95917
872.0 0.000573 889.22144 950.43658
913.0 0.000548 889.18207 951.01080
899.0 0.000556 889.13910 952.34998
897.0 0.000557 889.09253 954.31122
889.0 0.000562 889.04224 956.83807
863.0 0.000579 888.98828 959.91681
893.0 0.000560 888.93054 963.55927
853.0 0.000586 888.86920 967.79767
963.0 0.000519 888.80408 972.68219
939.0 0.000532 888.73517 978.28265
917.0 0.000545 888.66241 984.68939
930.0 0.000538 888.58600 992.01764
919.0 0.000544 888.50574 1000.41162
998.0 0.000501 888.42157 1010.05194
985.0 0.000508 888.33368 1021.16479
1015.0 0.000493 888.24182 1034.03467
1011.0 0.000495 888.14606 1049.02185
1034.0 0.000484 888.04645 1066.58704
1069.0 0.000468 887.94293 1087.32507
1055.0 0.000474 887.83551 1112.01440
1141.0 0.000438 887.72418 1141.69434
1215.0 0.000412 887.60876 1177.80493
1250.0 0.000400 887.48962 1222.48816
1373.0 0.000364 887.36627 1279.32471
1370.0 0.000365 887.23914 1355.13318
1469.0 0.0003404 887.10791 1463.93530
1662.0 0.0003008 886.97266 1634.26392
1916.0 0.0002610 886.83344 1919.37476
2416.0 0.0002070 886.69019 2405.33667
3157.0 0.0001584 886.54297 3205.61963
4481.0 0.0001116 886.39154 4428.40137
6433.0 0.0000777 886.23621 6115.06348
8344.0 0.0000599 886.07678 8154.27686
10580.0 0.0000473 885.91327 10192.68164
11550.0 0.0000433 885.74579 11590.78320
11595.0 0.0000431 885.57416 11685.77832
10301.0 0.0000485 885.39844 10419.20215
8231.0 0.0000607 885.21869 8414.50684
6314.0 0.0000792 885.03479 6346.45703
4481.0 0.0001116 884.84692 4604.62891
3362.0 0.0001487 884.65479 3323.96069
2533.0 0.0001974 884.45856 2477.25146
2035.0 0.0002457 884.25836 1959.80701
1825.0 0.0002740 884.05396 1655.93811
1528.0 0.0003272 883.84552 1475.28198
1322.0 0.000378 883.63293 1360.84314
1266.0 0.000395 883.41626 1281.23462
1213.0 0.000412 883.19550 1222.20068
1162.0 0.000430 882.97064 1175.86426
1129.0 0.000443 882.74152 1138.40417
1078.0 0.000464 882.50842 1107.56677
1048.0 0.000477 882.27124 1145.19971
1026.0 0.000487 882.02991 1125.81897
1017.0 0.000492 881.78448 1109.80151
964.0 0.000519 881.53503 1096.54077
1002.0 0.000499 881.28149 1085.56946
884.0 0.000566 881.02380 1076.52478
966.0 0.000518 880.76208 1069.12207
984.0 0.000508 880.49622 1063.13770
955.0 0.000524 880.22626 1058.39465
935.0 0.000535 879.95233 1054.75354
951.0 0.000526 879.67426 1052.10449
958.0 0.000522 879.39227 1050.36194
1011.0 0.000495 879.10614 1049.46033
966.0 0.000518 878.81598 1049.35132
957.0 0.000522 878.52179 1050.00122
949.0 0.000527 878.22357 1051.38892
937.0 0.000534 877.92133 1053.50549
951.0 0.000526 877.61517 1056.35291
952.0 0.000525 877.30487 1059.94360
1030.0 0.000485 876.99078 1064.30078
1044.0 0.000479 876.67261 1069.45850
1059.0 0.000472 876.35046 1106.36621
1146.0 0.000436 876.02448 1114.39380
1115.0 0.000448 875.69440 1123.45850
1125.0 0.000444 875.36047 1133.65198
1102.0 0.000454 875.02271 1145.08386
1075.0 0.000465 874.68097 1157.88477
1163.0 0.000430 874.33533 1172.21033
1074.0 0.000466 873.98596 1188.24524
1120.0 0.000446 873.63263 1206.20923
1107.0 0.000452 873.27545 1226.36462
1104.0 0.000453 872.91449 1249.02612
1138.0 0.000439 872.54974 1274.57202
1171.0 0.000427 872.18121 1303.46021
1180.0 0.000424 871.80884 1336.24829
1187.0 0.000421 871.43274 1373.62036
1278.0 0.000391 871.05292 1416.42126
1308.0 0.000382 870.66943 1465.70447
1389.0 0.000360 870.28217 1522.79529
1464.0 0.0003415 869.89124 1589.37891
1561.0 0.0003203 869.49664 1650.04004
1655.0 0.0003021 869.09839 1743.37683
1731.0 0.0002889 868.69653 1854.94604
1896.0 0.0002637 868.29114 1989.99512
2098.0 0.0002383 867.88214 2156.39185
2333.0 0.0002143 867.46954 2367.42847
2519.0 0.0001985 867.05334 2648.49316
3119.0 0.0001603 866.63373 3051.31396
3697.0 0.0001352 866.21057 3679.21411
4648.0 0.0001076 865.78394 4720.70801
6506.0 0.0000769 865.35388 6473.28271
9026.0 0.0000554 864.92035 9319.61719
14030.0 0.0000356 864.48346 13615.05664
19873.0 0.0000252 864.04321 19477.45117
27287.0 0.0000183 863.59961 26514.67188
33988.0 0.0000147 863.15259 33525.02734
38238.0 0.0000131 862.70227 38350.47656
38853.0 0.0000129 862.24872 38751.42578
33322.0 0.0000150 861.79193 34504.08203
26743.0 0.0000187 861.33185 27687.09570
19974.0 0.0000250 860.86865 20589.83594
14414.0 0.0000347 860.40222 14559.48242
10469.0 0.0000478 859.93268 10087.10254
7338.0 0.0000681 859.45996 7112.20313
5505.0 0.0000908 858.98419 5300.50293
4617.0 0.0001083 858.50525 4266.75439
3954.0 0.0001265 858.02332 3704.17188
3684.0 0.0001357 857.53839 3422.56958
3380.0 0.0001479 857.05048 3335.94580
3605.0 0.0001387 856.55975 3441.13843
3801.0 0.0001315 856.06592 3806.71411
4648.0 0.0001076 855.56921 4566.53955
5885.0 0.0000850 855.06970 5896.30908
8005.0 0.0000625 854.56726 7950.93115
11008.0 0.0000454 854.06207 10759.28516
14501.0 0.0000345 853.55408 14092.97559
17367.0 0.0000288 853.04333 17324.55078
19593.0 0.0000255 852.52985 19384.45508
18797.0 0.0000266 852.01385 19261.20117
16494.0 0.0000303 851.49500 16990.86914
13265.0 0.0000377 850.97363 13623.75586
10065.0 0.0000497 850.44958 10211.76563
7463.0 0.0000670 849.92297 7347.19385
5296.0 0.0000944 849.39392 5230.77686
3867.0 0.0001293 848.86230 3815.38623
2937.0 0.0001702 848.32825 2934.98462
2421.0 0.0002065 847.79181 2405.91553
2215.0 0.0002257 847.25287 2093.85767
1834.0 0.0002726 846.71161 1884.49487
1686.0 0.0002966 846.16803 1736.69104
1548.0 0.0003230 845.62213 1624.45007
1549.0 0.0003228 845.07404 1534.97168
1385.0 0.000361 844.52368 1461.56030
1279.0 0.000391 843.97101 1400.26172
1262.0 0.000396 843.41638 1348.44336
1226.0 0.000408 842.85950 1304.20923
1182.0 0.000423 842.30060 1266.13477
1104.0 0.000453 841.73950 1233.12122
1119.0 0.000447 841.17651 1204.30444
1120.0 0.000446 840.61151 1178.98975
1052.0 0.000475 840.04443 1156.60962
1099.0 0.000455 839.47559 1136.70764
1048.0 0.000477 838.90479 1118.93994
1000.0 0.000500 838.33221 1103.05115
1002.0 0.000499 837.75775 1088.83618
943.0 0.000530 837.18152 1076.12549
970.0 0.000515 836.60358 1064.78650
942.0 0.000531 836.02380 1057.62720
923.0 0.000542 835.44250 1048.94324
936.0 0.000534 834.85956 1041.58325
915.0 0.000546 834.27496 1035.66882
949.0 0.000527 833.68890 1031.33582
1004.0 0.000498 833.10126 1028.62878
921.0 0.000543 832.51208 963.69421
979.0 0.000511 831.92145 965.49286
942.0 0.000531 831.32947 966.97656
972.0 0.000514 830.73602 966.86829
889.0 0.000562 830.14130 964.74664
937.0 0.000534 829.54523 961.55945
893.0 0.000560 828.94806 958.64496
855.0 0.000585 828.34949 956.91534
873.0 0.000573 827.74982 956.81244
921.0 0.000543 827.14886 958.46808
894.0 0.000559 826.54681 961.86035
877.0 0.000570 825.94373 966.94775
925.0 0.000541 825.33960 973.76141
850.0 0.000588 824.73444 982.45154
953.0 0.000525 824.12830 993.30457
920.0 0.000543 823.52136 1006.75720
899.0 0.000556 822.91339 1023.43066
946.0 0.000529 822.30457 1044.22058
980.0 0.000510 821.69495 1070.51196
1008.0 0.000496 821.08447 1104.71082
1059.0 0.000472 820.47327 1151.46863
1153.0 0.000434 819.86133 1189.34387
1275.0 0.000392 819.24878 1299.29028
1453.0 0.0003441 818.63568 1481.51538
1758.0 0.0002844 818.02185 1784.75757
2264.0 0.0002208 817.40753 2268.87427
3006.0 0.0001663 816.79260 2985.69336
4107.0 0.0001217 816.17719 3946.04858
5286.0 0.0000946 815.56134 5078.45898
6381.0 0.0000784 814.94507 6183.66846
6926.0 0.0000722 814.32843 6916.86865
6769.0 0.0000739 813.71155 6937.98291
6184.0 0.0000809 813.09424 6234.56055
5167.0 0.0000968 812.47675 5139.17285
4135.0 0.0001209 811.85889 4004.96411
3005.0 0.0001664 811.24091 3037.77246
2252.0 0.0002220 810.62274 2314.09033
1784.0 0.0002803 810.00439 1825.93835
1607.0 0.0003111 809.38599 1522.71582
1450.0 0.0003448 808.76758 1344.78027
1242.0 0.000403 808.14923 1243.57239
1244.0 0.000402 807.53082 1188.13037
1094.0 0.000457 806.91241 1163.52051
1139.0 0.000439 806.29413 1167.08740
1196.0 0.000418 805.67596 1205.32397
1293.0 0.000387 805.05792 1290.90735
1425.0 0.000351 804.44012 1437.88794
1609.0 0.0003108 803.82257 1653.76111
2009.0 0.0002489 803.20538 1929.04102
2437.0 0.0002052 802.58832 2225.43555
2524.0 0.0001981 801.97168 2465.47778
2754.0 0.0001816 801.35535 2548.24316
2694.0 0.0001856 800.73938 2425.42603
2503.0 0.0001998 800.12396 2155.61768
2161.0 0.0002314 799.50897 1840.13062
1829.0 0.0002734 798.89447 1551.29053
1503.0 0.0003327 798.28064 1322.50891
1330.0 0.000376 797.66730 1159.75256
1296.0 0.000386 797.05444 1053.12109
1160.0 0.000431 796.44232 987.78320
1048.0 0.000477 795.83087 946.85895
1024.0 0.000488 795.22015 920.63092
1036.0 0.000483 794.61023 902.50464
1050.0 0.000476 794.00098 888.94873
1106.0 0.000452 793.39246 878.18420
1149.0 0.000435 792.78510 869.30969
1284.0 0.000389 792.17834 861.82819
1417.0 0.000353 791.57251 855.43018
1458.0 0.0003429 790.96759 849.90259
1507.0 0.0003318 790.36371 845.08881
1509.0 0.0003313 789.76074 840.87103
1389.0 0.000360 789.15887 837.15961
1328.0 0.000377 788.55804 833.88611
1229.0 0.000407 787.95837 830.99963
1212.0 0.000413 787.35974 828.97009
1224.0 0.000408 786.76227 826.77686
1246.0 0.000401 786.16595 824.89795
1310.0 0.000382 785.57086 823.33575
1335.0 0.000375 784.97699 822.11377
1382.0 0.000362 784.38440 821.29388
1265.0 0.000395 783.79309 821.01611
1191.0 0.000420 783.20325 821.57922
1069.0 0.000468 782.61462 823.56195
985.0 0.000508 782.02740 827.96063
945.0 0.000529 781.44159 836.23505
912.0 0.000548 780.85718 850.09625
916.0 0.000546 780.27429 870.90497
912.0 0.000548 779.69281 887.90063
955.0 0.000524 779.11292 920.63110
960.0 0.000521 778.53455 951.69360
938.0 0.000533 777.95789 970.86792
958.0 0.000522 777.38269 968.90704
860.0 0.000581 776.80908 946.58368
883.0 0.000566 776.23712 913.87500
857.0 0.000583 775.66693 880.65338
773.0 0.000647 775.09839 852.55591
806.0 0.000620 774.53149 831.61292
818.0 0.000611 773.96649 817.54437
753.0 0.000664 773.40332 808.90912
814.0 0.000614 772.84174 804.02881
770.0 0.000649 772.28210 801.53870
774.0 0.000646 771.72424 800.55670
803.0 0.000623 771.16827 800.62701
901.0 0.000555 770.61426 801.60077
876.0 0.000571 770.06213 803.56995
817.0 0.000612 769.51190 806.91058
877.0 0.000570 768.96375 812.47168
908.0 0.000551 768.41748 821.91882
819.0 0.000611 767.87317 835.25751
868.0 0.000576 767.33087 862.62341
889.0 0.000562 766.79071 906.15735
914.0 0.000547 766.25256 970.15472
1081.0 0.000463 765.71649 1055.31116
1236.0 0.000405 765.18256 1155.29309
1224.0 0.000408 764.65076 1252.91663
1333.0 0.000375 764.12109 1318.55249
1289.0 0.000388 763.59363 1322.58105
1168.0 0.000428 763.06818 1265.67566
1164.0 0.000430 762.54510 1170.44299
1081.0 0.000463 762.02411 1070.52881
981.0 0.000510 761.50543 984.75024
881.0 0.000568 760.98895 920.85065
866.0 0.000577 760.47473 879.55133
856.0 0.000584 759.96301 858.22754
821.0 0.000609 759.45337 853.84875
861.0 0.000581 758.94611 864.51190
832.0 0.000601 758.44110 889.26038
924.0 0.000541 757.93854 926.60022
957.0 0.000522 757.43829 972.41559
1007.0 0.000497 756.94043 1017.72235
1011.0 0.000495 756.44501 1047.65479
1014.0 0.000493 755.95203 1047.48669
1018.0 0.000491 755.46136 1016.07910
951.0 0.000526 754.97314 967.15143
904.0 0.000553 754.48737 915.85638
830.0 0.000602 754.00409 871.34570
776.0 0.000644 753.52325 837.22162
748.0 0.000668 753.04486 813.44006
722.0 0.000693 752.56903 798.01239
842.0 0.000594 752.09570 788.40186
741.0 0.000675 751.62494 782.41577
703.0 0.000711 751.15662 778.53296
684.0 0.000731 750.69086 775.85107
677.0 0.000739 750.22766 773.88965
697.0 0.000717 749.76703 772.40717
708.0 0.000706 749.30890 771.28192
705.0 0.000709 748.85339 770.44794
768.0 0.000651 748.40045 769.53949
772.0 0.000648 747.95020 769.20349
752.0 0.000665 747.50244 769.08905
741.0 0.000675 747.05731 769.19427
731.0 0.000684 746.61481 769.52551
753.0 0.000664 746.17487 770.09692
784.0 0.000638 745.73767 770.93091
849.0 0.000589 745.30304 772.05939
784.0 0.000638 744.87103 773.52576
847.0 0.000590 744.44183 775.38757
769.0 0.000650 744.01514 787.97992
778.0 0.000643 743.59113 791.25482
795.0 0.000629 743.16974 795.25537
746.0 0.000670 742.75110 800.16809
772.0 0.000648 742.33502 806.26868
764.0 0.000654 741.92169 814.00739
823.0 0.000608 741.51105 824.20825
826.0 0.000605 741.10309 838.48303
788.0 0.000635 740.69781 859.96924
841.0 0.000595 740.29523 894.36200
944.0 0.000530 739.89526 950.82819
1008.0 0.000496 739.49805 1041.84424
1249.0 0.000400 739.10345 1180.70300
1406.0 0.000356 738.71161 1376.02283
1651.0 0.0003028 738.32251 1623.87720
1834.0 0.0002726 737.93604 1897.51843
2094.0 0.0002388 737.55231 2141.83325
2251.0 0.0002221 737.17120 2270.75977
2069.0 0.0002417 736.79279 2222.29785
1879.0 0.0002661 736.41705 2021.45947
1689.0 0.0002960 736.04407 1752.57642
1487.0 0.0003362 735.67377 1488.60730
1391.0 0.000359 735.30615 1268.78491
1043.0 0.000479 734.94116 1105.84900
982.0 0.000509 734.57898 995.89282
881.0 0.000568 734.21936 926.92444
828.0 0.000604 733.86249 885.60406
894.0 0.000559 733.50818 861.11945
792.0 0.000631 733.15662 846.27942
810.0 0.000617 732.80768 836.94293
744.0 0.000672 732.46143 830.44525
751.0 0.000666 732.11780 826.75800
757.0 0.000661 731.77679 824.82764
773.0 0.000647 731.43860 824.38641
831.0 0.000602 731.10291 825.30078
795.0 0.000629 730.76984 827.52081
763.0 0.000655 730.43945 831.06293
851.0 0.000588 730.11169 836.00232
875.0 0.000571 729.78644 842.47723
829.0 0.000603 729.46387 850.69733
881.0 0.000568 729.14386 860.95947
874.0 0.000572 728.82654 873.67517
956.0 0.000523 728.51178 889.42133
892.0 0.000561 728.19952 909.22113
973.0 0.000514 727.88983 934.08801
915.0 0.000546 727.58270 966.62158
986.0 0.000507 727.27814 1011.51556
1082.0 0.000462 726.97614 1077.93811
1178.0 0.000424 726.67657 1182.83691
1219.0 0.000410 726.37964 1354.37488
1576.0 0.0003173 726.08521 1632.76294
1964.0 0.0002546 725.79315 2064.37549
2648.0 0.0001888 725.50372 2686.03223
3501.0 0.0001428 725.21661 3500.31152
4535.0 0.0001103 724.93207 4445.47705
5286.0 0.0000946 724.64996 5361.60547
5699.0 0.0000877 724.37030 5976.92236
5961.0 0.0000839 724.09302 6020.46875
5272.0 0.0000948 723.81830 5468.64990
4209.0 0.0001188 723.54578 4573.17725
3558.0 0.0001405 723.27576 3618.16138
2693.0 0.0001857 723.00812 2779.34277
2013.0 0.0002484 722.74280 2129.52124
1629.0 0.0003069 722.47992 1672.84680
1384.0 0.000361 722.21924 1375.44275
1136.0 0.000440 721.96094 1191.00000
1082.0 0.000462 721.70502 1077.87891
1087.0 0.000460 721.45135 1006.21240
986.0 0.000507 721.19989 957.71637
920.0 0.000543 720.95074 922.78558
830.0 0.000602 720.70386 895.49640
918.0 0.000545 720.45917 873.64355
894.0 0.000559 720.21667 855.62585
852.0 0.000587 719.97644 842.43567
777.0 0.000644 719.73840 826.97021
772.0 0.000648 719.50244 816.31519
842.0 0.000594 719.26868 807.18921
859.0 0.000582 719.03711 799.32050
803.0 0.000623 718.80756 792.49603
785.0 0.000637 718.58008 786.54761
738.0 0.000678 718.35480 781.34155
789.0 0.000634 718.13153 776.77094
823.0 0.000608 717.91028 772.75018
778.0 0.000643 717.69110 769.21136
766.0 0.000653 717.47394 766.10156
753.0 0.000664 717.25873 763.38043
775.0 0.000645 717.04547 761.02155
793.0 0.000631 716.83423 759.01495
774.0 0.000646 716.62488 757.37726
743.0 0.000673 716.41742 756.17303
754.0 0.000663 716.21191 755.55426
707.0 0.000707 716.00830 755.81488
774.0 0.000646 715.80652 757.44043
735.0 0.000680 715.60657 761.10364
726.0 0.000689 715.40845 767.53961
773.0 0.000647 715.21204 777.31335
788.0 0.000635 715.01746 790.20758
805.0 0.000621 714.82465 805.02539
806.0 0.000620 714.63361 818.84955
828.0 0.000604 714.44427 827.04413
829.0 0.000603 714.25659 825.53662
847.0 0.000590 714.07062 814.71289
852.0 0.000587 713.88629 799.00061
786.0 0.000636 713.70355 782.85211
785.0 0.000637 713.52240 768.89282
743.0 0.000673 713.34290 758.15143
695.0 0.000719 713.16492 750.61047
693.0 0.000722 712.98846 745.68695
689.0 0.000726 712.81366 742.63037
685.0 0.000730 712.64020 740.97321
656.0 0.000762 712.46832 739.86932
724.0 0.000691 712.29785 739.22418
724.0 0.000691 712.12878 738.88708
722.0 0.000693 711.96118 728.47778
705.0 0.000709 711.79492 728.93445
637.0 0.000785 711.63007 729.56616
691.0 0.000724 711.46655 730.37518
675.0 0.000741 711.30432 731.37195
714.0 0.000700 711.14337 732.57367
658.0 0.000760 710.98376 734.00525
680.0 0.000735 710.82538 735.69983
695.0 0.000719 710.66815 737.70062
701.0 0.000713 710.51221 740.06342
754.0 0.000663 710.35742 742.86127
726.0 0.000689 710.20374 746.19110
694.0 0.000720 710.05121 750.18805
691.0 0.000724 709.89978 755.05402
743.0 0.000673 709.74951 761.11621
744.0 0.000672 709.60022 768.94031
717.0 0.000697 709.45197 779.51617
772.0 0.000648 709.30475 794.51239
745.0 0.000671 709.15851 816.53735
843.0 0.000593 709.01324 849.28613
833.0 0.000600 708.86890 897.45709
905.0 0.000552 708.72552 966.40167
1063.0 0.000470 708.58301 1061.46643
1159.0 0.000431 708.44135 1186.36841
1339.0 0.000373 708.30048 1340.46790
1535.0 0.0003257 708.16046 1516.97375
1772.0 0.0002822 708.02124 1707.96667
1871.0 0.0002672 707.88281 1907.19727
2047.0 0.0002443 707.74518 2095.99146
2174.0 0.0002300 707.60815 2226.67969
2125.0 0.0002353 707.47192 2234.69849
2010.0 0.0002488 707.33630 2095.49536
1845.0 0.0002710 707.20129 1856.94043
1500.0 0.0003333 707.06696 1591.82971
1402.0 0.000357 706.93323 1351.04834
1108.0 0.000451 706.80011 1158.17249
989.0 0.000506 706.66748 1017.75482
874.0 0.000572 706.53540 923.08600
820.0 0.000610 706.40381 862.67316
797.0 0.000627 706.27271 825.05280
736.0 0.000679 706.14209 801.32867
712.0 0.000702 706.01178 785.69794
720.0 0.000694 705.88196 774.86407
695.0 0.000719 705.75250 767.00195
778.0 0.000643 705.62341 761.76263
657.0 0.000761 705.49469 758.74377
707.0 0.000707 705.36621 757.90002
690.0 0.000725 705.23804 759.12079
693.0 0.000722 705.11011 762.00861
697.0 0.000717 704.98248 765.65533
706.0 0.000708 704.85498 768.45807
731.0 0.000684 704.72766 768.45746
718.0 0.000696 704.60052 764.74670
782.0 0.000639 704.47351 758.42401
766.0 0.000653 704.34668 751.47034
731.0 0.000684 704.21985 745.46899
774.0 0.000646 704.09314 741.44080
786.0 0.000636 703.96637 740.11914
880.0 0.000568 703.83978 742.20880
978.0 0.000511 703.71307 748.50677
1005.0 0.000498 703.58636 759.79333
1026.0 0.000487 703.45959 776.43799
1051.0 0.000476 703.33276 797.78864
987.0 0.000507 703.20587 821.41748
1007.0 0.000497 703.07880 842.31531
886.0 0.000564 702.95154 853.20197
947.0 0.000528 702.82416 848.69733
918.0 0.000545 702.69666 830.64630
885.0 0.000565 702.56885 806.11041
864.0 0.000579 702.44080 781.49005
787.0 0.000635 702.31256 760.40558
694.0 0.000720 702.18396 744.20361
746.0 0.000670 702.05505 732.75836
693.0 0.000722 701.92590 725.16010
715.0 0.000699 701.79626 720.27893
736.0 0.000679 701.66638 717.12891
656.0 0.000762 701.53607 715.00861
663.0 0.000754 701.40527 739.11224
663.0 0.000754 701.27417 738.70544
692.0 0.000723 701.14246 738.57776
672.0 0.000744 701.01038 738.68164
741.0 0.000675 700.87769 739.01337
665.0 0.000752 700.74457 739.61047
717.0 0.000697 700.61084 740.55597
669.0 0.000747 700.47650 741.98077
695.0 0.000719 700.34167 744.04510
703.0 0.000711 700.20624 746.88928
747.0 0.000669 700.07007 750.55579
770.0 0.000649 699.93335 754.88904
736.0 0.000679 699.79590 759.42004
715.0 0.000699 699.65778 763.27026
698.0 0.000716 699.51892 765.35175
768.0 0.000651 699.37927 765.16772
774.0 0.000646 699.23895 763.34528
734.0 0.000681 699.09784 760.59204
713.0 0.000701 698.95593 758.54846
660.0 0.000758 698.81323 757.16907
736.0 0.000679 698.66962 756.71289
701.0 0.000713 698.52521 757.05951
741.0 0.000675 698.37994 756.17987
731.0 0.000684 698.23383 757.74506
737.0 0.000678 698.08667 759.68927
750.0 0.000667 697.93866 761.93378
720.0 0.000694 697.78967 764.43829
787.0 0.000635 697.63977 767.18976
834.0 0.000600 697.48883 770.19159
840.0 0.000595 697.33698 773.45679
892.0 0.000561 697.18402 777.00464
894.0 0.000559 697.03003 780.85956
917.0 0.000545 696.87500 785.05029
902.0 0.000554 696.71893 789.61090
906.0 0.000552 696.56177 794.58008
837.0 0.000597 696.40344 800.00336
817.0 0.000612 696.24402 805.93262
815.0 0.000613 696.08344 812.42847
776.0 0.000644 695.92169 864.12506
786.0 0.000636 695.75885 873.29272
776.0 0.000644 695.59473 883.33356
866.0 0.000577 695.42950 894.36310
866.0 0.000577 695.26294 906.51709
854.0 0.000585 695.09528 919.90668
854.0 0.000585 694.92627 934.82373
874.0 0.000572 694.75598 951.44513
905.0 0.000552 694.58447 970.04596
904.0 0.000553 694.41156 990.95923
925.0 0.000541 694.23743 1014.59167
982.0 0.000509 694.06195 1041.44421
981.0 0.000510 693.88513 1072.13867
960.0 0.000521 693.70697 1107.45459
1077.0 0.000464 693.52747 1148.38110
1081.0 0.000463 693.34656 1196.19116
1170.0 0.000427 693.16418 1252.56531
1285.0 0.000389 692.98047 1319.82300
1287.0 0.000389 692.79529 1401.41333
1374.0 0.000364 692.60870 1503.01550
1549.0 0.0003228 692.42065 1634.70605
1737.0 0.0002879 692.23120 1816.28735
2067.0 0.0002419 692.04022 2083.64307
2425.0 0.0002062 691.84778 2499.21558
3232.0 0.0001547 691.65381 3159.52808
4268.0 0.0001172 691.45837 4192.62207
5984.0 0.0000836 691.26135 5733.46240
8177.0 0.0000611 691.06287 7875.67090
11110.0 0.0000450 690.86279 10599.87891
14368.0 0.0000348 690.66119 13689.85156
16535.0 0.0000302 690.45807 16636.00586
18154.0 0.0000275 690.25330 18604.56445
17967.0 0.0000278 690.04700 18780.52148
16231.0 0.0000308 689.83905 17080.93555
14112.0 0.0000354 689.62952 14246.87305
10840.0 0.0000461 689.41840 11150.91016
8389.0 0.0000596 689.20563 8360.16699
6429.0 0.0000778 688.99121 6132.69238
4985.0 0.0001003 688.77521 4514.38965
3954.0 0.0001265 688.55750 3425.38989
3099.0 0.0001613 688.33820 2736.13135
2661.0 0.0001879 688.11713 2309.51978
2279.0 0.0002194 687.89441 2046.32190
2106.0 0.0002374 687.67010 1879.12549
1972.0 0.0002535 687.44397 1768.55713
1802.0 0.0002775 687.21625 1693.46960
1772.0 0.0002822 686.98676 1643.07458
1765.0 0.0002833 686.75562 1611.76538
1697.0 0.0002946 686.52264 1596.61462
1792.0 0.0002790 686.28802 1596.13440
1695.0 0.0002950 686.05170 1609.76978
1609.0 0.0003108 685.81360 1637.71777
1773.0 0.0002820 685.57373 1680.90137
1794.0 0.0002787 685.33215 1741.06091
1873.0 0.0002670 685.08881 1821.01282
2018.0 0.0002478 684.84369 1925.25171
2109.0 0.0002371 684.59680 2061.33984
2335.0 0.0002141 684.34814 2242.96118
2589.0 0.0001931 684.09772 2496.04395
2974.0 0.0001681 683.84546 2869.35791
3431.0 0.0001457 683.59149 3449.40649
4299.0 0.0001163 683.33569 4374.98438
5625.0 0.0000889 683.07806 5839.98047
7758.0 0.0000644 682.81879 8068.11768
11006.0 0.0000454 682.55756 11247.32813
15421.0 0.0000324 682.29456 15426.24023
20772.0 0.0000241 682.02979 20386.36133
25643.0 0.0000195 681.76312 25491.89844
29522.0 0.0000169 681.49475 29561.47070
30999.0 0.0000161 681.22449 31119.66992
28366.0 0.0000176 680.95239 29439.21484
24941.0 0.0000200 680.67859 25293.18945
19759.0 0.0000253 680.40295 20163.82031
15302.0 0.0000327 680.12537 15214.19238
11649.0 0.0000429 679.84601 11061.16406
8114.0 0.0000616 679.56488 7910.16455
6034.0 0.0000829 679.28186 5704.81445
4598.0 0.0001087 678.99701 4253.88281
3733.0 0.0001339 678.71039 3333.58472
3117.0 0.0001604 678.42194 2751.65674
2548.0 0.0001962 678.13165 2371.28638
2235.0 0.0002237 677.83948 2107.55542
1969.0 0.0002539 677.54547 1912.68713
1792.0 0.0002790 677.24969 1761.27441
1710.0 0.0002924 676.95209 1639.89648
1598.0 0.0003129 676.65265 1541.21167
1508.0 0.0003316 676.35132 1461.04321
1455.0 0.0003436 676.04828 1397.02856
1497.0 0.0003340 675.74341 1347.87476
1508.0 0.0003316 675.43658 1312.72571
1363.0 0.000367 675.12805 1290.46387
1464.0 0.0003415 674.81769 1278.94421
1530.0 0.0003268 674.50549 1274.14624
1459.0 0.0003427 674.19147 1269.40613
1594.0 0.0003137 673.87567 1256.42944
1494.0 0.0003347 673.55798 1230.49731
1500.0 0.0003333 673.23865 1195.00464
1466.0 0.0003411 672.91742 1158.01526
1359.0 0.000368 672.59436 1126.80322
1315.0 0.000380 672.26953 1106.75977
1207.0 0.000414 671.94293 1102.80310
1183.0 0.000423 671.61450 1095.41492
1199.0 0.000417 671.28430 1145.82813
1255.0 0.000398 670.95239 1239.67981
1475.0 0.0003390 670.61859 1390.32825
1599.0 0.0003127 670.28320 1607.60425
1899.0 0.0002633 669.94586 1890.68018
2158.0 0.0002317 669.60687 2219.47046
2442.0 0.0002048 669.26605 2544.77173
2584.0 0.0001935 668.92358 2782.48389
2602.0 0.0001922 668.57922 2839.21191
2421.0 0.0002065 668.23328 2684.65820
2225.0 0.0002247 667.88550 2383.70264
2016.0 0.0002480 667.53613 2033.34241
1906.0 0.0002623 667.18494 1703.91638
1695.0 0.0002950 666.83203 1430.97083
1554.0 0.0003218 666.47742 1224.87744
1523.0 0.0003283 666.12109 1080.26477
1413.0 0.000354 665.76306 984.00000
1360.0 0.000368 665.40344 921.48993
1313.0 0.000381 665.04205 880.47803
1106.0 0.000452 664.67908 852.34229
1013.0 0.000494 664.31433 831.75446
875.0 0.000571 663.94800 815.70856
894.0 0.000559 663.57996 802.58643
766.0 0.000653 663.21033 791.50891
805.0 0.000621 662.83905 781.96484
721.0 0.000693 662.46613 773.62616
750.0 0.000667 662.09161 766.26227
742.0 0.000674 661.71552 759.70062
778.0 0.000643 661.33783 753.80774
761.0 0.000657 660.95856 748.47815
745.0 0.000671 660.57770 743.62726
742.0 0.000674 660.19519 739.18652
750.0 0.000667 659.81116 735.10028
699.0 0.000715 659.42560 731.32202
708.0 0.000706 659.03845 727.81329
687.0 0.000728 658.64984 724.54205
655.0 0.000763 658.25977 676.96667
708.0 0.000706 657.86804 675.35107
696.0 0.000718 657.47485 692.24445
689.0 0.000726 657.08020 691.38147
667.0 0.000750 656.68408 690.63074
681.0 0.000734 656.28644 689.98315
735.0 0.000680 655.88733 689.43152
697.0 0.000717 655.48676 688.96991
698.0 0.000716 655.08484 688.59332
699.0 0.000715 654.68152 688.29785
740.0 0.000676 654.27667 688.08069
730.0 0.000685 653.87048 687.93945
635.0 0.000787 653.46283 687.87268
714.0 0.000700 653.05383 687.87976
667.0 0.000750 652.64343 687.96051
616.0 0.000812 652.23175 688.11530
643.0 0.000778 651.81866 688.34503
605.0 0.000826 651.40430 688.65155
652.0 0.000767 650.98859 689.21564
655.0 0.000763 650.57153 689.68774
665.0 0.000752 650.15320 690.24512
644.0 0.000776 649.73358 690.89166
646.0 0.000774 649.31268 691.63214
613.0 0.000816 648.89050 692.47192
610.0 0.000820 648.46710 693.41724
648.0 0.000772 648.04254 694.23206
660.0 0.000758 647.61670 695.41748
642.0 0.000779 647.18964 696.73267
663.0 0.000754 646.76135 698.18756
643.0 0.000778 646.33191 699.79401
641.0 0.000780 645.90131 701.56512
654.0 0.000765 645.46954 703.51587
618.0 0.000809 645.03656 705.66302
650.0 0.000769 644.60266 708.02600
654.0 0.000765 644.16748 710.62628
666.0 0.000751 643.73120 713.48865
696.0 0.000718 643.29388 716.64160
670.0 0.000746 642.85541 720.11743
649.0 0.000770 642.41602 723.95343
665.0 0.000752 641.97540 728.16547
655.0 0.000763 641.53394 732.85791
749.0 0.000668 641.09125 735.03003
659.0 0.000759 640.64777 740.89569
726.0 0.000689 640.20306 747.41382
713.0 0.000701 639.75769 754.67767
742.0 0.000674 639.31104 762.79675
746.0 0.000670 638.86371 771.90210
744.0 0.000672 638.41541 782.14966
733.0 0.000682 637.96594 793.72772
786.0 0.000636 637.51587 806.86462
799.0 0.000626 637.06470 821.83850
852.0 0.000587 636.61279 838.99249
855.0 0.000585 636.15991 858.75177
896.0 0.000558 635.70630 881.64966
906.0 0.000552 635.25195 908.39618
950.0 0.000526 634.79651 939.79865
1020.0 0.000490 634.34052 977.05548
953.0 0.000525 633.88348 1021.80664
1012.0 0.000494 633.42590 1076.56079
1136.0 0.000440 632.96741 1145.53296
1241.0 0.000403 632.50836 1236.33374
1294.0 0.000386 632.04840 1362.97571
1482.0 0.0003374 631.58789 1550.39978
1743.0 0.0002869 631.12671 1839.67786
2193.0 0.0002280 630.66467 2291.18970
2852.0 0.0001753 630.20215 2981.10278
3975.0 0.0001258 629.73877 3986.28320
5375.0 0.0000930 629.27502 5355.94092
7382.0 0.0000677 628.81042 7073.12842
9581.0 0.0000522 628.34540 9009.17090
11378.0 0.0000439 627.87964 10870.12891
12867.0 0.0000389 627.41345 12174.46875
12682.0 0.0000394 626.94672 12424.66113
11530.0 0.0000434 626.47925 11506.48535
9815.0 0.0000509 626.01147 9807.36426
7791.0 0.0000642 625.54303 7854.94336
6122.0 0.0000817 625.07428 6024.08887
4413.0 0.0001133 624.60480 4504.88818
3436.0 0.0001455 624.13513 3355.56177
2634.0 0.0001898 623.66492 2547.42334
2024.0 0.0002470 623.19421 2012.50525
1806.0 0.0002769 622.72314 1672.46423
1522.0 0.0003285 622.25159 1460.02197
1360.0 0.000368 621.77979 1326.42651
1274.0 0.000392 621.30750 1239.98767
1190.0 0.000420 620.83496 1180.77612
1157.0 0.000432 620.36194 1135.18066
1088.0 0.000460 619.88879 1092.87305
1110.0 0.000450 619.41528 1047.76038
968.0 0.000517 618.94135 999.78247
960.0 0.000521 618.46735 952.49213
891.0 0.000561 617.99292 909.19385
828.0 0.000604 617.51837 871.62488
786.0 0.000636 617.04346 840.21606
827.0 0.000605 616.56848 814.54431
740.0 0.000676 616.09314 793.71674
777.0 0.000644 615.61786 778.99365
757.0 0.000661 615.14233 764.90564
683.0 0.000732 614.66650 752.93878
717.0 0.000697 614.19080 742.56281
696.0 0.000718 613.71472 733.41974
677.0 0.000739 613.23871 725.27142
699.0 0.000715 612.76245 717.95325
658.0 0.000760 612.28625 711.34564
613.0 0.000816 611.81006 705.35620
657.0 0.000761 611.33368 699.91040
652.0 0.000767 610.85736 694.94745
700.0 0.000714 610.38092 690.41669
676.0 0.000740 609.90460 686.27612
655.0 0.000763 609.42822 682.49115
642.0 0.000779 608.95203 679.03546
607.0 0.000824 608.47565 675.89105
588.0 0.000850 607.99957 673.05292
656.0 0.000762 607.52356 670.53369
633.0 0.000790 607.04742 668.37207
624.0 0.000801 606.57166 666.64105
625.0 0.000800 606.09576 665.44647
587.0 0.000852 605.62024 664.91370
594.0 0.000842 605.14471 665.14929
594.0 0.000842 604.66943 666.18652
596.0 0.000839 604.19427 667.91418
580.0 0.000862 603.71948 669.99585
623.0 0.000803 603.24487 671.78308
627.0 0.000797 602.77026 672.37848
623.0 0.000803 602.29620 671.13538
669.0 0.000747 601.82208 668.25952
668.0 0.000749 601.34851 664.61261
639.0 0.000782 600.87500 661.03729
644.0 0.000776 600.40204 658.06580
682.0 0.000733 599.92938 655.95551
708.0 0.000706 599.45679 654.78174
798.0 0.000627 598.98480 654.56848
733.0 0.000682 598.51294 655.15863
838.0 0.000597 598.04169 656.57318
849.0 0.000589 597.57068 658.86725
899.0 0.000556 597.10016 662.24323
913.0 0.000548 596.62994 667.15082
877.0 0.000570 596.16028 674.45709
886.0 0.000564 595.69116 685.68390
851.0 0.000588 595.22223 703.24835
880.0 0.000568 594.75397 730.54675
893.0 0.000560 594.28607 753.02203
866.0 0.000577 593.81879 812.20874
927.0 0.000539 593.35187 890.90710
1032.0 0.000484 592.88562 987.25208
1138.0 0.000439 592.41980 1093.19141
1279.0 0.000391 591.95465 1191.77405
1272.0 0.000393 591.49011 1256.92957
1274.0 0.000392 591.02594 1264.50513
1195.0 0.000418 590.56250 1212.54395
1083.0 0.000462 590.09955 1123.43164
1043.0 0.000479 589.63745 1024.34546
894.0 0.000559 589.17572 934.10272
838.0 0.000597 588.71484 862.54541
794.0 0.000630 588.25464 813.38629
827.0 0.000605 587.79486 787.15088
816.0 0.000613 587.33606 783.49860
771.0 0.000649 586.87769 804.10651
888.0 0.000563 586.42023 852.71515
898.0 0.000557 585.96332 935.46594
1029.0 0.000486 585.50739 1058.56653
1296.0 0.000386 585.05188 1224.64014
1450.0 0.0003448 584.59741 1428.16980
1629.0 0.0003069 584.14368 1650.20776
1844.0 0.0002711 583.69061 1852.51709
1930.0 0.0002591 583.23846 1978.07458
1901.0 0.0002630 582.78693 1976.81653
1769.0 0.0002826 582.33643 1848.29761
1568.0 0.0003189 581.88660 1642.66248
1377.0 0.000363 581.43768 1415.95935
1156.0 0.000433 580.98962 1206.99084
1068.0 0.000468 580.54248 1034.57886
864.0 0.000579 580.09619 903.77295
847.0 0.000590 579.65070 811.05640
733.0 0.000682 579.20624 748.59528
673.0 0.000743 578.76257 707.67682
631.0 0.000792 578.31989 680.83539
650.0 0.000769 577.87805 662.65424
662.0 0.000755 577.43726 649.65930
632.0 0.000791 576.99750 639.81226
585.0 0.000855 576.55853 631.97839
580.0 0.000862 576.12073 625.53131
550.0 0.000909 575.68365 620.10773
581.0 0.000861 575.24780 615.48022
549.0 0.000911 574.81281 611.49316
535.0 0.000935 574.37897 608.03387
548.0 0.000912 573.94604 605.01825
542.0 0.000923 573.51428 602.38489
581.0 0.000861 573.08362 600.09344
589.0 0.000849 572.65375 598.12616
570.0 0.000877 572.22522 596.64240
552.0 0.000906 571.79755 595.40503
577.0 0.000867 571.37115 594.65546
553.0 0.000904 570.94568 594.50354
573.0 0.000873 570.52148 595.18176
599.0 0.000835 570.09827 596.79114
593.0 0.000843 569.67633 599.36285
604.0 0.000828 569.25549 602.73163
539.0 0.000928 568.83569 606.42609
573.0 0.000873 568.41718 609.55646
543.0 0.000921 567.99969 610.89398
588.0 0.000850 567.58356 609.52374
641.0 0.000780 567.16840 605.66010
604.0 0.000828 566.75464 600.43048
582.0 0.000859 566.34204 594.97748
653.0 0.000766 565.93054 590.05750
636.0 0.000786 565.52039 585.95215
551.0 0.000907 565.11127 582.76563
534.0 0.000936 564.70361 580.40997
537.0 0.000931 564.29700 578.72003
552.0 0.000906 563.89185 577.52252
554.0 0.000903 563.48773 576.67822
573.0 0.000873 563.08508 576.09839
610.0 0.000820 562.68372 575.74719
553.0 0.000904 562.28345 575.63348
531.0 0.000942 561.88464 575.80261
569.0 0.000879 561.48700 576.32007
550.0 0.000909 561.09076 576.20044
582.0 0.000859 560.69580 577.61017
553.0 0.000904 560.30219 579.43799
568.0 0.000880 559.90985 581.54865
589.0 0.000849 559.51898 583.65729
633.0 0.000790 559.12946 585.33221
586.0 0.000853 558.74115 586.20197
599.0 0.000835 558.35431 586.31616
584.0 0.000856 557.96869 586.20471
646.0 0.000774 557.58459 586.59302
572.0 0.000874 557.20178 588.25403
585.0 0.000855 556.82050 592.10260
597.0 0.000838 556.44055 599.34283
628.0 0.000796 556.06189 611.53094
688.0 0.000727 555.68475 630.44952
687.0 0.000728 555.30896 657.71149
707.0 0.000707 554.93469 694.09296
699.0 0.000715 554.56171 738.66779
796.0 0.000628 554.19025 785.47455
775.0 0.000645 553.82019 831.54901
762.0 0.000656 553.45166 862.77209
785.0 0.000637 553.08453 867.83710
837.0 0.000597 552.71881 844.77722
728.0 0.000687 552.35468 802.68079
711.0 0.000703 551.99182 759.58142
709.0 0.000705 551.63062 712.56494
659.0 0.000759 551.27081 672.41077
637.0 0.000785 550.91254 641.02325
604.0 0.000828 550.55566 618.21173
641.0 0.000780 550.20044 602.60614
601.0 0.000832 549.84668 592.44104
582.0 0.000859 549.49426 586.09998
564.0 0.000887 549.14355 582.39191
547.0 0.000914 548.79425 580.61932
586.0 0.000853 548.44653 580.53235
559.0 0.000894 548.10022 582.22681
565.0 0.000885 547.75562 586.01434
605.0 0.000826 547.41254 592.24988
569.0 0.000879 547.07080 601.11548
675.0 0.000741 546.73083 612.37122
630.0 0.000794 546.39227 625.07458
627.0 0.000797 546.05536 637.25360
595.0 0.000840 545.71985 645.79584
599.0 0.000835 545.38611 647.51074
641.0 0.000780 545.05377 641.53741
624.0 0.000801 544.72314 630.18286
629.0 0.000795 544.39404 616.84741
628.0 0.000796 544.06647 604.11230
582.0 0.000859 543.74060 593.41260
650.0 0.000769 543.41614 585.33069
628.0 0.000796 543.09344 579.90039
613.0 0.000816 542.77222 576.84473
692.0 0.000723 542.45270 575.76373
629.0 0.000795 542.13464 576.19287
587.0 0.000852 541.81830 577.83209
646.0 0.000774 541.50366 580.20087
602.0 0.000831 541.19043 582.75677
600.0 0.000833 540.87891 584.79504
562.0 0.000890 540.56903 585.63788
599.0 0.000835 540.26074 585.09949
596.0 0.000839 539.95404 583.63971
570.0 0.000877 539.64911 581.94397
571.0 0.000876 539.34576 580.55652
581.0 0.000861 539.04388 579.73322
618.0 0.000809 538.74384 579.61957
672.0 0.000744 538.44531 580.22998
616.0 0.000812 538.14856 581.51978
638.0 0.000784 537.85333 583.42639
689.0 0.000726 537.55975 585.90143
662.0 0.000755 537.26788 588.92603
610.0 0.000820 536.97766 592.51648
602.0 0.000831 536.68921 596.72382
629.0 0.000795 536.40216 601.63055
676.0 0.000740 536.11694 607.35278
675.0 0.000741 535.83331 614.04150
641.0 0.000780 535.55145 621.87396
668.0 0.000749 535.27112 631.14923
618.0 0.000809 534.99255 642.20001
639.0 0.000782 534.71558 655.53955
684.0 0.000731 534.44043 671.97906
706.0 0.000708 534.16687 692.89856
761.0 0.000657 533.89496 720.74384
771.0 0.000649 533.62482 759.82153
799.0 0.000626 533.35620 817.35400
962.0 0.000520 533.08942 904.69073
956.0 0.000523 532.82416 1036.89819
1178.0 0.000424 532.56079 1232.53052
1536.0 0.0003255 532.29901 1509.11353
1829.0 0.0002734 532.03882 1876.95569
2430.0 0.0002058 531.78046 2330.89697
2779.0 0.0001799 531.52368 2840.04004
3286.0 0.0001522 531.26868 3338.12622
3837.0 0.0001303 531.01532 3713.50317
3792.0 0.0001319 530.76373 3841.39063
3732.0 0.0001340 530.51373 3669.20117
3206.0 0.0001560 530.26550 3266.16992
2644.0 0.0001891 530.01904 2759.61450
2147.0 0.0002329 529.77405 2254.84375
1748.0 0.0002860 529.53101 1812.22485
1478.0 0.0003383 529.28949 1457.86523
1126.0 0.000444 529.04980 1193.98401
1029.0 0.000486 528.81165 1008.67749
906.0 0.000552 528.57538 883.93597
808.0 0.000619 528.34064 801.65088
775.0 0.000645 528.10779 747.00452
692.0 0.000723 527.87659 709.47870
708.0 0.000706 527.64697 682.36578
645.0 0.000775 527.41925 661.70581
598.0 0.000836 527.19305 645.25781
641.0 0.000780 526.96863 631.75330
607.0 0.000824 526.74591 620.43896
600.0 0.000833 526.52496 610.83130
593.0 0.000843 526.30573 602.44440
577.0 0.000867 526.08807 595.32947
580.0 0.000862 525.87219 589.14136
565.0 0.000885 525.65802 583.72833
572.0 0.000874 525.44562 578.96979
544.0 0.000919 525.23480 574.76959
584.0 0.000856 525.02576 571.05066
591.0 0.000846 524.81836 567.75360
583.0 0.000858 524.61273 564.84100
631.0 0.000792 524.40881 562.27588
583.0 0.000858 524.20660 560.05682
594.0 0.000842 524.00610 558.19733
612.0 0.000817 523.80725 556.72772
654.0 0.000765 523.61017 555.68646
611.0 0.000818 523.41473 555.10156
618.0 0.000809 523.22107 554.93628
658.0 0.000760 523.02899 555.18127
615.0 0.000813 522.83881 555.63574
619.0 0.000808 522.65021 555.99329
593.0 0.000843 522.46332 555.83356
657.0 0.000761 522.27814 554.82355
577.0 0.000867 522.09460 553.61816
577.0 0.000867 521.91284 551.34436
611.0 0.000818 521.73273 549.01459
539.0 0.000928 521.55432 546.90643
517.0 0.000967 521.37762 545.16736
552.0 0.000906 521.20264 543.85358
590.0 0.000847 521.02936 542.96912
501.0 0.000998 520.85767 542.49951
562.0 0.000890 520.68781 542.44989
537.0 0.000931 520.51959 542.88104
572.0 0.000874 520.35303 543.94666
594.0 0.000842 520.18817 545.92297
567.0 0.000882 520.02502 549.22064
582.0 0.000859 519.86359 554.35333
582.0 0.000859 519.70380 561.84125
577.0 0.000867 519.54572 572.04523
613.0 0.000816 519.38922 584.94415
636.0 0.000786 519.23456 599.87311
604.0 0.000828 519.08142 615.20709
706.0 0.000708 518.93011 628.08435
696.0 0.000718 518.78033 634.86707
715.0 0.000699 518.63239 633.26337
642.0 0.000779 518.48602 624.46478
647.0 0.000773 518.34137 612.23907
606.0 0.000825 518.19836 600.44684
602.0 0.000831 518.05695 591.92114
630.0 0.000794 517.91730 588.52600
599.0 0.000835 517.77924 591.35077
571.0 0.000876 517.64294 600.74445
619.0 0.000808 517.50830 610.24945
615.0 0.000813 517.37524 630.41833
679.0 0.000736 517.24390 652.15240
680.0 0.000735 517.11414 670.68079
696.0 0.000718 516.98608 680.02924
681.0 0.000734 516.85968 676.13446
673.0 0.000743 516.73492 660.20624
660.0 0.000758 516.61176 637.48602
619.0 0.000808 516.49036 613.29724
622.0 0.000804 516.37054 591.12213
616.0 0.000812 516.25232 572.68835
552.0 0.000906 516.13574 558.48822
537.0 0.000931 516.02087 554.51813
498.0 0.001004 515.90759 547.65332
535.0 0.000935 515.79596 543.18048
510.0 0.000980 515.68591 540.35498
508.0 0.000984 515.57751 538.61182
526.0 0.000951 515.47076 537.57422
547.0 0.000914 515.36566 537.01660
534.0 0.000936 515.26208 536.81903
514.0 0.000973 515.16022 536.92737
523.0 0.000956 515.05981 537.32538
554.0 0.000903 514.96118 538.01550
514.0 0.000973 514.86407 539.00659
563.0 0.000888 514.76862 540.30499
511.0 0.000978 514.67474 541.90851
528.0 0.000947 514.58246 543.80499
581.0 0.000861 514.49176 545.99054
532.0 0.000940 514.40265 548.54132
536.0 0.000933 514.31512 551.74707
564.0 0.000887 514.22919 556.21582
582.0 0.000859 514.14490 562.90497
571.0 0.000876 514.06207 573.13000
553.0 0.000904 513.98096 588.52216
586.0 0.000853 513.90131 610.82678
593.0 0.000843 513.82330 641.47791
686.0 0.000729 513.74683 680.97052
685.0 0.000730 513.67194 728.09503
716.0 0.000698 513.59857 779.01971
777.0 0.000644 513.52679 826.20905
808.0 0.000619 513.45660 858.44440
818.0 0.000611 513.38782 864.88965
813.0 0.000615 513.32074 843.25122
768.0 0.000651 513.25519 801.90234
693.0 0.000722 513.19110 752.76910
653.0 0.000766 513.12860 704.98541
620.0 0.000806 513.06757 663.70697
631.0 0.000792 513.00812 631.04999
593.0 0.000843 512.95013 607.09235
586.0 0.000853 512.89380 590.69708
594.0 0.000842 512.83893 580.20605
562.0 0.000890 512.78552 573.96289
574.0 0.000871 512.73364 570.60858
590.0 0.000847 512.68323 569.17621
550.0 0.000909 512.63434 569.05212
566.0 0.000883 512.58698 569.88586
594.0 0.000842 512.54108 571.49921
577.0 0.000867 512.49670 573.81891
547.0 0.000914 512.45386 576.83508
579.0 0.000864 512.41241 580.57971
575.0 0.000870 512.37244 585.11829
563.0 0.000888 512.33398 590.36658
629.0 0.000795 512.29694 596.82648
623.0 0.000803 512.26135 604.49005
619.0 0.000808 512.22723 613.59766
663.0 0.000754 512.19464 624.48474
612.0 0.000817 512.16339 637.64587
697.0 0.000717 512.13367 653.86713
710.0 0.000704 512.10541 674.60114
687.0 0.000728 512.07849 701.91260
702.0 0.000712 512.05304 739.89276
746.0 0.000670 512.02905 795.04053
839.0 0.000596 512.00641 877.19904
904.0 0.000553 511.98523 999.79938
1075.0 0.000465 511.96542 1178.52380
1299.0 0.000385 511.94708 1429.49854
1749.0 0.0002859 511.93011 1762.55042
2209.0 0.0002263 511.91455 2175.85278
2642.0 0.0001893 511.90033 2647.93750
3156.0 0.0001584 511.88751 3128.27612
3431.0 0.0001457 511.87610 3528.90063
3555.0 0.0001406 511.86606 3737.06079
3622.0 0.0001380 511.85736 3675.88916
3107.0 0.0001609 511.85004 3369.34961
2743.0 0.0001823 511.84406 2920.22046
2313.0 0.0002162 511.83954 2434.77124
2004.0 0.0002495 511.83624 1984.06238
1555.0 0.0003215 511.83435 1604.55701
1316.0 0.000380 511.83371 1308.03931
1032.0 0.000484 511.83450 1090.28210
944.0 0.000530 511.83655 937.88190
846.0 0.000591 511.83997 834.68414
810.0 0.000617 511.84460 765.59003
721.0 0.000693 511.85062 718.70776
630.0 0.000794 511.85794 685.74103
614.0 0.000814 511.86658 661.41241
645.0 0.000775 511.87643 642.57635
631.0 0.000792 511.88766 627.41296
617.0 0.000810 511.90009 614.87915
573.0 0.000873 511.91385 604.32635
561.0 0.000891 511.92877 595.33228
561.0 0.000891 511.94504 587.59784
590.0 0.000847 511.96255 580.89886
532.0 0.000940 511.98129 575.06073
587.0 0.000852 512.00122 574.55609
567.0 0.000882 512.02246 570.16364
535.0 0.000935 512.04492 566.29474
521.0 0.000960 512.06860 562.87476
562.0 0.000890 512.09344 559.84216
564.0 0.000887 512.11951 557.14587
520.0 0.000962 512.14679 554.11017
541.0 0.000924 512.17523 551.98303
551.0 0.000907 512.20496 550.08276
584.0 0.000856 512.23572 548.38342
513.0 0.000975 512.26776 546.86346
483.0 0.001035 512.30090 545.50427
519.0 0.000963 512.33521 544.29004
536.0 0.000933 512.37067 543.20721
513.0 0.000975 512.40729 542.24396
520.0 0.000962 512.44507 541.39044
499.0 0.001002 512.48395 540.63837
513.0 0.000975 512.52393 539.98022
598.0 0.000836 512.56506 539.41022
500.0 0.001000 512.60730 538.92334
508.0 0.000984 512.65057 538.51526
535.0 0.000935 512.69495 538.18292
543.0 0.000921 512.74048 537.92407
535.0 0.000935 512.78705 537.73706
486.0 0.001029 512.83466 537.62152
492.0 0.001016 512.88336 537.57751
548.0 0.000912 512.93311 537.60638
543.0 0.000921 512.98389 537.71063
559.0 0.000894 513.03571 537.89404
498.0 0.001004 513.08856 538.16205
531.0 0.000942 513.14246 538.52289
550.0 0.000909 513.19733 538.98822
541.0 0.000924 513.25323 539.57709
598.0 0.000836 513.31012 540.31982
560.0 0.000893 513.36798 541.31476
573.0 0.000873 513.42688 542.56110
619.0 0.000808 513.48663 544.24969
610.0 0.000820 513.54742 546.60712
605.0 0.000826 513.60919 549.95068
598.0 0.000836 513.67188 554.67706
579.0 0.000864 513.73553 561.20605
631.0 0.000792 513.79999 573.32715
578.0 0.000865 513.86548 584.32709
664.0 0.000753 513.93188 597.27386
612.0 0.000817 513.99915 611.24115
595.0 0.000840 514.06732 624.42969
603.0 0.000829 514.13635 634.13464
629.0 0.000795 514.20630 631.44312
657.0 0.000761 514.27710 628.16547
605.0 0.000826 514.34875 619.73126
595.0 0.000840 514.42126 609.06976
598.0 0.000836 514.49463 598.58160
646.0 0.000774 514.56873 589.71301
613.0 0.000816 514.64374 583.14484
651.0 0.000768 514.71954 579.03784
637.0 0.000785 514.79614 577.23663
625.0 0.000800 514.87354 577.44543
615.0 0.000813 514.95166 579.37585
703.0 0.000711 515.03058 582.84711
631.0 0.000792 515.11029 587.83539
644.0 0.000776 515.19080 594.47449
660.0 0.000758 515.27197 603.01508
680.0 0.000735 515.35394 613.74908
679.0 0.000736 515.43658 626.90967
621.0 0.000805 515.51996 642.55786
687.0 0.000728 515.60400 660.46271
670.0 0.000746 515.68878 679.96924
635.0 0.000787 515.77423 699.94684
691.0 0.000724 515.86035 719.22876
689.0 0.000726 515.94714 737.93048
745.0 0.000671 516.03455 758.76862
713.0 0.000701 516.12268 787.09302
751.0 0.000666 516.21143 830.40961
845.0 0.000592 516.30078 898.53418
892.0 0.000561 516.39075 1003.89954
1104.0 0.000453 516.48126 1160.96777
1349.0 0.000371 516.57239 1384.06287
1562.0 0.0003201 516.66412 1683.46216
2129.0 0.0002349 516.75647 2060.09668
2466.0 0.0002028 516.84930 2499.24048
2938.0 0.0001702 516.94269 2962.79688
3325.0 0.0001504 517.03668 3380.82495
3546.0 0.0001410 517.13110 3653.88623
3616.0 0.0001383 517.22614 3692.18506
3358.0 0.0001489 517.32166 3481.36694
2951.0 0.0001694 517.41766 3095.30713
2490.0 0.0002008 517.51410 2636.73267
2083.0 0.0002400 517.61108 2185.44678
1790.0 0.0002793 517.70850 1787.88000
1364.0 0.000367 517.80640 1464.45972
1263.0 0.000396 517.90472 1217.86060
1071.0 0.000467 518.00342 1039.70386
923.0 0.000542 518.10260 916.25598
887.0 0.000564 518.20215 832.90759
815.0 0.000613 518.30212 776.98840
765.0 0.000654 518.40253 738.92615
736.0 0.000679 518.50317 712.21124
709.0 0.000705 518.60431 692.75964
689.0 0.000726 518.70575 678.14990
662.0 0.000755 518.80756 666.98608
654.0 0.000765 518.90961 658.46130
628.0 0.000796 519.01208 652.09735
656.0 0.000762 519.11481 647.60394
660.0 0.000758 519.21783 644.80951
687.0 0.000728 519.32117 643.63196
619.0 0.000808 519.42474 644.06915
596.0 0.000839 519.52856 646.38293
641.0 0.000780 519.63269 650.40625
683.0 0.000732 519.73700 656.62585
671.0 0.000745 519.84155 669.26654
664.0 0.000753 519.94641 681.71265
674.0 0.000742 520.05133 698.80658
668.0 0.000749 520.15649 723.30823
772.0 0.000648 520.26184 756.59998
786.0 0.000636 520.36731 804.15143
871.0 0.000574 520.47296 872.53241
982.0 0.000509 520.57874 970.18097
1121.0 0.000446 520.68469 1106.79370
1302.0 0.000384 520.79077 1291.80261
1512.0 0.0003307 520.89691 1531.24695
1692.0 0.0002955 521.00323 1823.14539
2129.0 0.0002349 521.10950 2152.18164
2306.0 0.0002168 521.21594 2483.65942
2659.0 0.0001880 521.32245 2758.66626
2568.0 0.0001947 521.42896 2903.02417
2520.0 0.0001984 521.53552 2865.58350
2390.0 0.0002092 521.64209 2659.19751
2097.0 0.0002384 521.74866 2349.37354
1934.0 0.0002585 521.85529 2007.39111
1566.0 0.0003193 521.96191 1683.21729
1323.0 0.000378 522.06842 1403.96069
1211.0 0.000413 522.17499 1180.39807
1043.0 0.000479 522.28143 1011.70947
1033.0 0.000484 522.38788 890.48206
915.0 0.000546 522.49420 806.40350
754.0 0.000663 522.60046 749.14209
729.0 0.000686 522.70660 710.03528
725.0 0.000690 522.81268 682.67834
702.0 0.000712 522.91858 662.77039
622.0 0.000804 523.02441 647.62622
655.0 0.000763 523.13007 635.76440
645.0 0.000775 523.23560 626.00494
646.0 0.000774 523.34094 617.89886
615.0 0.000813 523.44604 611.08508
602.0 0.000831 523.55109 605.31726
577.0 0.000867 523.65582 600.41577
651.0 0.000768 523.76031 596.24359
584.0 0.000856 523.86469 592.69354
595.0 0.000840 523.96875 589.68011
570.0 0.000877 524.07257 587.13477
578.0 0.000865 524.17609 585.00256
556.0 0.000899 524.27936 583.15564
572.0 0.000874 524.38239 581.72748
627.0 0.000797 524.48511 580.60455
517.0 0.000967 524.58746 579.76483
605.0 0.000826 524.68951 579.19196
600.0 0.000833 524.79120 578.87408
563.0 0.000888 524.89264 578.80402
622.0 0.000804 524.99359 578.97852
560.0 0.000893 525.09424 579.39789
542.0 0.000923 525.19452 580.06677
567.0 0.000882 525.29437 580.99390
580.0 0.000862 525.39386 582.19171
573.0 0.000873 525.49292 588.44476
592.0 0.000845 525.59143 590.35876
582.0 0.000859 525.68970 592.61731
579.0 0.000864 525.78735 590.72253
599.0 0.000835 525.88464 593.89331
622.0 0.000804 525.98132 597.54010
615.0 0.000813 526.07764 601.73090
643.0 0.000778 526.17340 606.54852
643.0 0.000778 526.26868 612.09607
600.0 0.000833 526.36340 618.50208
645.0 0.000775 526.45758 625.93103
678.0 0.000737 526.55127 634.59808
618.0 0.000809 526.64447 644.80011
659.0 0.000759 526.73694 656.96973
686.0 0.000729 526.82892 671.77887
718.0 0.000696 526.92029 690.31885
738.0 0.000678 527.01105 714.39270
778.0 0.000643 527.10120 746.93811
803.0 0.000623 527.19073 792.54852
825.0 0.000606 527.27960 857.95972
905.0 0.000552 527.36792 952.27625
1056.0 0.000473 527.45551 1086.39905
1262.0 0.000396 527.54248 1271.73291
1445.0 0.0003460 527.62866 1517.42126
1721.0 0.0002905 527.71423 1826.61877
2169.0 0.0002305 527.79907 2191.89185
2627.0 0.0001903 527.88318 2590.08105
2940.0 0.0001701 527.96667 2977.24585
3207.0 0.0001559 528.04932 3287.52295
3379.0 0.0001480 528.13129 3448.81714
3301.0 0.0001515 528.21246 3422.43213
3089.0 0.0001619 528.29291 3228.96680
2635.0 0.0001898 528.37262 2923.91992
2498.0 0.0002002 528.45148 2562.16455
2155.0 0.0002320 528.52954 2189.10913
1884.0 0.0002654 528.60687 1841.23999
1527.0 0.0003274 528.68329 1542.15698
1341.0 0.000373 528.75897 1301.05322
1138.0 0.000439 528.83374 1116.38330
1019.0 0.000491 528.90771 980.38654
1009.0 0.000496 528.98083 883.07727
854.0 0.000585 529.05310 814.63226
855.0 0.000585 529.12445 766.67883
729.0 0.000686 529.19501 732.75470
775.0 0.000645 529.26453 704.73615
732.0 0.000683 529.33331 686.61609
742.0 0.000674 529.40106 672.82739
691.0 0.000724 529.46796 662.16302
741.0 0.000675 529.53387 653.92053
671.0 0.000745 529.59894 648.23297
706.0 0.000708 529.66296 643.96118
704.0 0.000710 529.72614 641.62451
702.0 0.000712 529.78821 641.37006
693.0 0.000722 529.84943 643.40668
698.0 0.000716 529.90961 647.91937
652.0 0.000767 529.96881 655.02576
713.0 0.000701 530.02698 664.39124
764.0 0.000654 530.08423 675.46344
769.0 0.000650 530.14038 687.03748
761.0 0.000657 530.19556 697.20709
797.0 0.000627 530.24969 703.74286
719.0 0.000695 530.30280 705.32544
756.0 0.000661 530.35486 702.64545
738.0 0.000678 530.40582 697.90198
716.0 0.000698 530.45575 693.42377
728.0 0.000687 530.50464 690.94183
745.0 0.000671 530.55243 691.60028
688.0 0.000727 530.59912 696.19873
726.0 0.000689 530.64478 705.47430
769.0 0.000650 530.68921 720.44690
842.0 0.000594 530.73267 742.88647
807.0 0.000620 530.77496 775.85779
877.0 0.000570 530.81616 824.41107
950.0 0.000526 530.85620 896.07349
1020.0 0.000490 530.89514 1000.95392
1167.0 0.000428 530.93286 1150.99927
1442.0 0.0003467 530.96954 1358.06775
1733.0 0.0002885 531.00500 1630.74792
2049.0 0.0002440 531.03937 1970.19617
2583.0 0.0001936 531.07257 2365.24731
3054.0 0.0001637 531.10455 2786.48608
3428.0 0.0001459 531.13538 3179.40332
3486.0 0.0001434 531.16498 3463.56006
3547.0 0.0001410 531.19348 3556.87476
3357.0 0.0001489 531.22076 3426.55957
3130.0 0.0001597 531.24683 3117.02246
2596.0 0.0001926 531.27167 2713.45264
2191.0 0.0002282 531.29535 2292.93530
1839.0 0.0002719 531.31787 1904.83691
1595.0 0.0003135 531.33911 1575.28271
1369.0 0.000365 531.35907 1312.98474
1136.0 0.000440 531.37793 1115.21069
1033.0 0.000484 531.39545 972.54193
898.0 0.000557 531.41180 872.89423
870.0 0.000575 531.42694 804.48431
786.0 0.000636 531.44080 757.52405
714.0 0.000700 531.45337 724.77209
710.0 0.000704 531.46472 701.32294
707.0 0.000707 531.47485 684.04547
648.0 0.000772 531.48370 670.97656
702.0 0.000712 531.49133 660.81824
649.0 0.000770 531.49768 652.57635
652.0 0.000767 531.50269 645.35065
647.0 0.000773 531.50653 638.33990
663.0 0.000754 531.50903 631.07410
637.0 0.000785 531.51031 623.64478
603.0 0.000829 531.51031 616.28650
617.0 0.000810 531.50903 609.42279
589.0 0.000849 531.50647 603.28766
603.0 0.000829 531.50256 597.98682
589.0 0.000849 531.49744 593.35596
581.0 0.000861 531.49103 589.70782
542.0 0.000923 531.48334 583.04309
557.0 0.000898 531.47430 580.83856
578.0 0.000865 531.46399 579.18604
618.0 0.000809 531.45239 577.17017
566.0 0.000883 531.43951 576.50616
570.0 0.000877 531.42529 576.33075
571.0 0.000876 531.40991 576.80731
601.0 0.000832 531.39307 579.20923
584.0 0.000856 531.37506 581.33881
585.0 0.000855 531.35571 584.91718
597.0 0.000838 531.33502 590.62823
639.0 0.000782 531.31305 599.41357
640.0 0.000781 531.28986 612.43646
651.0 0.000768 531.26532 630.94159
685.0 0.000730 531.23950 655.99731
684.0 0.000731 531.21234 688.13007
759.0 0.000659 531.18390 726.88214
755.0 0.000662 531.15417 770.28613
888.0 0.000563 531.12323 814.20245
824.0 0.000607 531.09088 851.78723
824.0 0.000607 531.05725 874.45825
863.0 0.000579 531.02240 875.97571
916.0 0.000546 530.98627 857.04510
841.0 0.000595 530.94879 824.58539
772.0 0.000648 530.91010 786.59082
676.0 0.000740 530.87012 748.57666
667.0 0.000750 530.82874 713.23151
666.0 0.000751 530.78619 681.59509
608.0 0.000822 530.74237 654.21924
600.0 0.000833 530.69720 631.47559
552.0 0.000906 530.65082 613.33997
560.0 0.000893 530.60321 599.24268
585.0 0.000855 530.55426 588.76733
610.0 0.000820 530.50415 581.11206
535.0 0.000935 530.45270 575.68213
549.0 0.000911 530.40002 571.98901
535.0 0.000935 530.34601 569.64252
534.0 0.000936 530.29089 568.33496
553.0 0.000904 530.23450 567.82275
524.0 0.000954 530.17682 567.90765
531.0 0.000942 530.11798 568.42645
594.0 0.000842 530.05786 569.27185
548.0 0.000912 529.99652 570.47211
540.0 0.000926 529.93390 572.27881
529.0 0.000945 529.87018 575.16736
532.0 0.000940 529.80524 579.76770
521.0 0.000960 529.73901 586.79755
573.0 0.000873 529.67163 597.00598
602.0 0.000831 529.60309 611.10956
624.0 0.000801 529.53333 629.54559
612.0 0.000817 529.46240 652.42181
637.0 0.000785 529.39026 679.10492
749.0 0.000668 529.31702 707.86102
725.0 0.000690 529.24249 735.69476
720.0 0.000694 529.16693 754.34686
782.0 0.000639 529.09015 770.97461
732.0 0.000683 529.01233 779.81146
771.0 0.000649 528.93329 780.07635
725.0 0.000690 528.85309 770.41431
684.0 0.000731 528.77179 750.67926
702.0 0.000712 528.68945 723.60785
642.0 0.000779 528.60590 693.66937
601.0 0.000832 528.52124 664.80243
619.0 0.000808 528.43561 639.44159
592.0 0.000845 528.34882 618.69891
580.0 0.000862 528.26099 602.80658
579.0 0.000864 528.17206 591.47296
530.0 0.000943 528.08197 584.14502
542.0 0.000923 527.99097 580.20117
547.0 0.000914 527.89886 579.07379
536.0 0.000933 527.80573 580.30090
559.0 0.000894 527.71167 583.51489
566.0 0.000883 527.61639 588.38660
612.0 0.000817 527.52026 594.54852
588.0 0.000850 527.42303 601.47876
539.0 0.000928 527.32489 608.56616
580.0 0.000862 527.22571 615.08563
571.0 0.000876 527.12555 620.96655
559.0 0.000894 527.02448 626.83203
605.0 0.000826 526.92242 634.84894
619.0 0.000808 526.81946 647.77637
666.0 0.000751 526.71552 668.75061
660.0 0.000758 526.61066 701.09332
699.0 0.000715 526.50488 747.99640
751.0 0.000666 526.39825 811.92786
857.0 0.000583 526.29071 893.77539
969.0 0.000516 526.18225 991.79248
1114.0 0.000449 526.07294 1100.35388
1243.0 0.000402 525.96277 1208.51917
1437.0 0.0003479 525.85181 1299.15710
1398.0 0.000358 525.73993 1351.35181
1385.0 0.000361 525.62726 1349.27148
1285.0 0.000389 525.51373 1293.02185
1330.0 0.000376 525.39948 1198.86719
1116.0 0.000448 525.28430 1088.12402
978.0 0.000511 525.16846 977.78503
934.0 0.000535 525.05188 878.28607
809.0 0.000618 524.93445 794.73364
763.0 0.000655 524.81635 728.48083
754.0 0.000663 524.69739 678.40472
666.0 0.000751 524.57782 641.98126
663.0 0.000754 524.45746 616.17688
649.0 0.000770 524.33649 598.09558
642.0 0.000779 524.21478 584.82404
634.0 0.000789 524.09241 575.61517
619.0 0.000808 523.96942 568.71484
595.0 0.000840 523.84576 563.33228
606.0 0.000825 523.72137 558.97833
578.0 0.000865 523.59644 555.35522
543.0 0.000921 523.47089 552.21368
557.0 0.000898 523.34479 549.56665
528.0 0.000947 523.21808 547.35718
539.0 0.000928 523.09076 545.41931
556.0 0.000899 522.96295 543.65210
499.0 0.001002 522.83459 542.09271
547.0 0.000914 522.70563 540.75403
517.0 0.000967 522.57623 539.53668
558.0 0.000896 522.44623 538.46588
572.0 0.000874 522.31586 538.41766
502.0 0.000996 522.18494 537.65192
520.0 0.000962 522.05353 537.04333
593.0 0.000843 521.92181 536.61743
538.0 0.000929 521.78949 536.41241
567.0 0.000882 521.65686 536.47546
539.0 0.000928 521.52380 536.84613
560.0 0.000893 521.39032 537.57825
560.0 0.000893 521.25641 538.67108
545.0 0.000917 521.12225 540.08398
604.0 0.000828 520.98761 541.70410
572.0 0.000874 520.85278 543.31818
566.0 0.000883 520.71759 544.59290
544.0 0.000919 520.58203 545.13214
572.0 0.000874 520.44623 544.66614
563.0 0.000888 520.31012 543.24530
559.0 0.000894 520.17377 541.19952
551.0 0.000907 520.03717 538.91858
521.0 0.000960 519.90033 536.69952
525.0 0.000952 519.76324 534.52753
567.0 0.000882 519.62598 532.88232
494.0 0.001012 519.48853 531.58765
539.0 0.000928 519.35089 530.62360
562.0 0.000890 519.21313 529.68243
545.0 0.000917 519.07513 529.25043
594.0 0.000842 518.93707 529.01172
531.0 0.000942 518.79889 528.93488
564.0 0.000887 518.66058 529.00684
555.0 0.000901 518.52228 529.23688
580.0 0.000862 518.38373 529.66071
583.0 0.000858 518.24530 530.35022
599.0 0.000835 518.10669 531.42236
561.0 0.000891 517.96814 533.04700
525.0 0.000952 517.82953 535.44775
528.0 0.000947 517.69092 538.88708
513.0 0.000975 517.55231 543.62854
575.0 0.000870 517.41382 549.87714
583.0 0.000858 517.27533 557.69781
540.0 0.000926 517.13684 566.92273
578.0 0.000865 516.99847 577.03833
556.0 0.000899 516.86017 587.04742
591.0 0.000846 516.72198 595.37292
575.0 0.000870 516.58392 600.03125
559.0 0.000894 516.44604 599.74298
631.0 0.000792 516.30829 594.55408
604.0 0.000828 516.17065 585.99347
537.0 0.000931 516.03326 575.98041
557.0 0.000898 515.89606 566.02576
549.0 0.000911 515.75903 557.06317
554.0 0.000903 515.62219 549.56061
537.0 0.000931 515.48566 546.82660
476.0 0.001050 515.34930 542.51538
485.0 0.001031 515.21332 539.51208
514.0 0.000973 515.07764 537.55658
534.0 0.000936 514.94208 536.30634
536.0 0.000933 514.80695 535.73389
489.0 0.001022 514.67212 534.29047
508.0 0.000984 514.53766 534.50812
524.0 0.000954 514.40350 534.99512
522.0 0.000958 514.26971 535.72760
510.0 0.000980 514.13629 536.70764
509.0 0.000982 514.00336 537.96240
524.0 0.000954 513.87079 539.54596
523.0 0.000956 513.73859 541.54742
553.0 0.000904 513.60693 544.10516
526.0 0.000951 513.47559 547.42249
558.0 0.000896 513.34479 552.61884
558.0 0.000896 513.21448 558.42395
557.0 0.000898 513.08466 566.12970
580.0 0.000862 512.95532 576.30591
536.0 0.000933 512.82654 589.59985
538.0 0.000929 512.69830 606.71088
606.0 0.000825 512.57056 628.33813
572.0 0.000874 512.44336 655.07019
663.0 0.000754 512.31677 687.19751
684.0 0.000731 512.19080 724.56305
684.0 0.000731 512.06537 766.69037
780.0 0.000641 511.94061 813.15979
854.0 0.000585 511.81647 863.64795
910.0 0.000549 511.69290 917.20636
997.0 0.000502 511.57007 970.97833
1034.0 0.000484 511.44785 1018.92963
1043.0 0.000479 511.32632 1051.55066
975.0 0.000513 511.20541 1058.48889
998.0 0.000501 511.08533 1034.72327
999.0 0.000501 510.96588 984.81287
952.0 0.000525 510.84720 919.76318
845.0 0.000592 510.72922 850.65344
731.0 0.000684 510.61200 785.29645
746.0 0.000670 510.49548 728.11499
672.0 0.000744 510.37982 680.99780
676.0 0.000740 510.26492 644.08948
660.0 0.000758 510.15082 616.41357
600.0 0.000833 510.03751 596.40015
633.0 0.000790 509.92505 582.31555
605.0 0.000826 509.81332 572.56244
553.0 0.000904 509.70255 565.81250
552.0 0.000906 509.59256 561.15607
570.0 0.000877 509.48349 573.25244
539.0 0.000928 509.37518 571.34882
575.0 0.000870 509.26785 570.17047
580.0 0.000862 509.16135 569.55957
552.0 0.000906 509.05582 569.42273
604.0 0.000828 508.95117 569.70575
522.0 0.000958 508.84738 570.39252
609.0 0.000821 508.74460 571.44196
527.0 0.000949 508.64273 572.86597
543.0 0.000921 508.54184 574.67358
592.0 0.000845 508.44186 576.88342
540.0 0.000926 508.34286 579.52484
582.0 0.000859 508.24478 582.63861
560.0 0.000893 508.14783 586.27911
599.0 0.000835 508.05176 590.51733
548.0 0.000912 507.95673 595.44739
580.0 0.000862 507.86267 601.19641
562.0 0.000890 507.76968 607.94440
621.0 0.000805 507.67767 615.95905
594.0 0.000842 507.58676 625.65784
603.0 0.000829 507.49686 637.70935
649.0 0.000770 507.40796 653.18677
689.0 0.000726 507.32016 673.77087
702.0 0.000712 507.23340 701.97925
686.0 0.000729 507.14771 741.35120
756.0 0.000661 507.06317 796.47681
823.0 0.000608 506.97958 872.72723
918.0 0.000545 506.89719 975.56757
1070.0 0.000467 506.81583 1109.28040
1246.0 0.000401 506.73560 1275.98157
1461.0 0.0003422 506.65652 1473.01257
1734.0 0.0002884 506.57846 1691.37378
2092.0 0.0002390 506.50159 1912.95483
2133.0 0.0002344 506.42575 2114.88110
2406.0 0.0002078 506.35114 2245.00732
2333.0 0.0002143 506.27759 2275.83545
2264.0 0.0002208 506.20523 2199.22266
2170.0 0.0002304 506.13400 2039.28027
1889.0 0.0002647 506.06390 1835.53906
1649.0 0.0003032 505.99496 1623.58789
1392.0 0.000359 505.92719 1427.80627
1277.0 0.000392 505.86053 1262.38074
1137.0 0.000440 505.79510 1134.04797
1039.0 0.000481 505.73074 1044.32715
1034.0 0.000484 505.66763 991.20850
1017.0 0.000492 505.60565 970.47131
1028.0 0.000486 505.54483 976.59631
1015.0 0.000493 505.48523 1003.17950
1029.0 0.000486 505.42682 1042.78638
1074.0 0.000466 505.36954 1086.33411
1079.0 0.000463 505.31348 1122.70496
1122.0 0.000446 505.25854 1140.38794
1155.0 0.000433 505.20483 1132.25769
1072.0 0.000466 505.15231 1099.82593
1013.0 0.000494 505.10095 1051.64746
978.0 0.000511 505.05081 997.77307
912.0 0.000548 505.00183 946.01239
927.0 0.000539 504.95407 901.18768
838.0 0.000597 504.90750 865.82111
846.0 0.000591 504.86209 840.75629
809.0 0.000618 504.81787 825.72803
856.0 0.000584 504.77487 819.74591
816.0 0.000613 504.73303 821.79053
794.0 0.000630 504.69238 830.89093
872.0 0.000573 504.65292 846.25952
867.0 0.000577 504.61465 867.60504
905.0 0.000552 504.57758 895.33307
941.0 0.000531 504.54163 930.47052
946.0 0.000529 504.50690 974.24286
999.0 0.000501 504.47336 1032.10364
1026.0 0.000487 504.44092 1109.11877
1163.0 0.000430 504.40976 1214.53223
1296.0 0.000386 504.37970 1361.82739
1424.0 0.000351 504.35086 1569.31470
1629.0 0.0003069 504.32312 1859.76526
1992.0 0.0002510 504.29660 2258.48267
2460.0 0.0002033 504.27115 2789.40332
3280.0 0.0001524 504.24692 3469.26099
4069.0 0.0001229 504.22379 4300.28125
5338.0 0.0000937 504.20187 5261.71387
6379.0 0.0000784 504.18109 6299.63037
7599.0 0.0000658 504.16141 7314.50684
8694.0 0.0000575 504.14285 8153.75146
8757.0 0.0000571 504.12540 8635.04102
8685.0 0.0000576 504.10913 8625.12891
8090.0 0.0000618 504.09387 8127.78223
7271.0 0.0000688 504.07980 7280.96240
6256.0 0.0000799 504.06686 6266.89844
5189.0 0.0000964 504.05496 5236.25098
4205.0 0.0001189 504.04413 4284.84961
3578.0 0.0001397 504.03439 3465.28491
2965.0 0.0001686 504.02576 2797.09497
2501.0 0.0001999 504.01816 2277.39429
2072.0 0.0002413 504.01166 1889.19287
1770.0 0.0002825 504.00616 1608.59802
1686.0 0.0002966 504.00180 1416.86523
1534.0 0.0003259 503.99835 1279.11365
1414.0 0.000354 503.99603 1183.65808
1333.0 0.000375 503.99472 1117.49561
1301.0 0.000384 503.99438 1071.92358
1172.0 0.000427 503.99506 1041.64832
1179.0 0.000424 503.99673 1023.96722
1194.0 0.000419 503.99939 1018.23077
1162.0 0.000430 504.00302 1025.63477
1189.0 0.000421 504.00766 1049.28101
1140.0 0.000439 504.01315 1094.36755
1215.0 0.000412 504.01968 1168.28296
1377.0 0.000363 504.02710 1280.33569
1388.0 0.000360 504.03549 1440.84888
1517.0 0.0003296 504.04477 1659.45886
1814.0 0.0002756 504.05496 1942.64453
2255.0 0.0002217 504.06604 2290.66968
2724.0 0.0001836 504.07797 2694.06274
3149.0 0.0001588 504.09082 3129.35181
3672.0 0.0001362 504.10452 3553.91406
4058.0 0.0001232 504.11902 3903.07153
4139.0 0.0001208 504.13443 4100.19531
4262.0 0.0001173 504.15060 4089.60229
3848.0 0.0001299 504.16760 3869.64844
3514.0 0.0001423 504.18542 3504.17334
3051.0 0.0001639 504.20401 3066.44214
2608.0 0.0001917 504.22336 2620.01343
2254.0 0.0002218 504.24344 2206.36230
1924.0 0.0002599 504.26431 1848.05237
1558.0 0.0003209 504.28592 1553.84729
1307.0 0.000383 504.30823 1322.92517
1248.0 0.000401 504.33124 1148.37109
1085.0 0.000461 504.35498 1020.19995
980.0 0.000510 504.37933 927.78174
910.0 0.000549 504.40439 861.48370
896.0 0.000558 504.43008 813.53333
862.0 0.000580 504.45639 778.06183
824.0 0.000607 504.48331 751.07355
809.0 0.000618 504.51089 729.90637
823.0 0.000608 504.53900 711.99963
770.0 0.000649 504.56772 697.95129
774.0 0.000646 504.59695 686.12830
789.0 0.000634 504.62680 675.94653
748.0 0.000668 504.65710 666.92230
762.0 0.000656 504.68799 658.68060
792.0 0.000631 504.71927 651.01080
737.0 0.000678 504.75107 643.87445
786.0 0.000636 504.78336 637.32501
690.0 0.000725 504.81610 631.42157
702.0 0.000712 504.84921 632.42279
671.0 0.000745 504.88278 627.99310
672.0 0.000744 504.91672 624.21301
647.0 0.000773 504.95102 621.04352
611.0 0.000818 504.98572 618.43707
635.0 0.000787 505.02072 616.34515
597.0 0.000838 505.05612 614.72131
586.0 0.000853 505.09174 613.52643
593.0 0.000843 505.12769 612.72998
604.0 0.000828 505.16391 612.30981
608.0 0.000822 505.20035 612.25299
593.0 0.000843 505.23706 612.55383
624.0 0.000801 505.27402 613.21362
557.0 0.000898 505.31110 614.23889
641.0 0.000780 505.34839 615.66846
575.0 0.000870 505.38583 617.46954
552.0 0.000906 505.42343 619.69183
623.0 0.000803 505.46115 626.48572
635.0 0.000787 505.49899 629.73535
636.0 0.000786 505.53687 633.52466
640.0 0.000781 505.57486 638.99432
611.0 0.000818 505.61288 644.07080
624.0 0.000801 505.65094 649.90228
630.0 0.000794 505.68900 641.26569
603.0 0.000829 505.72708 649.32239
609.0 0.000821 505.76508 658.55341
661.0 0.000756 505.80307 669.21014
663.0 0.000754 505.84100 681.64398
691.0 0.000724 505.87878 696.33875
643.0 0.000778 505.91650 714.02576
731.0 0.000684 505.95407 735.67035
738.0 0.000678 505.99149 762.60449
794.0 0.000630 506.02878 796.58478
789.0 0.000634 506.06586 839.86621
825.0 0.000606 506.10269 895.28168
891.0 0.000561 506.13934 966.39056
1010.0 0.000495 506.17569 1057.46204
1134.0 0.000441 506.21185 1173.81274
1328.0 0.000377 506.24765 1321.55225
1409.0 0.000355 506.28317 1507.05286
1672.0 0.0002990 506.31836 1735.90161
1923.0 0.0002600 506.35321 2012.13599
2196.0 0.0002277 506.38763 2338.85498
2791.0 0.0001791 506.42178 2719.02100
3119.0 0.0001603 506.45538 3152.55664
3700.0 0.0001351 506.48859 3628.70337
4222.0 0.0001184 506.52142 4117.02979
4498.0 0.0001112 506.55371 4560.60693
4949.0 0.0001010 506.58548 4877.92236
4775.0 0.0001047 506.61679 4986.41895
4734.0 0.0001056 506.64755 4846.87158
4319.0 0.0001158 506.67780 4490.74121
3856.0 0.0001297 506.70740 3998.29321
3548.0 0.0001409 506.73645 3454.37427
2777.0 0.0001801 506.76486 2922.63745
2309.0 0.0002165 506.79263 2442.24854
2038.0 0.0002453 506.81973 2026.33191
1816.0 0.0002753 506.84616 1694.48999
1623.0 0.0003081 506.87189 1436.32861
1373.0 0.000364 506.89694 1242.47717
1197.0 0.000418 506.92120 1100.89819
1132.0 0.000442 506.94467 999.35016
1030.0 0.000485 506.96747 926.99622
956.0 0.000523 506.98938 875.16357
865.0 0.000578 507.01047 837.44366
874.0 0.000572 507.03076 809.39655
868.0 0.000576 507.05017 788.09814
823.0 0.000608 507.06870 771.68823
785.0 0.000637 507.08630 759.00659
752.0 0.000665 507.10297 749.33307
783.0 0.000639 507.11874 742.21930
717.0 0.000697 507.13351 737.39014
797.0 0.000627 507.14737 734.68756
812.0 0.000616 507.16016 734.04059
737.0 0.000678 507.17194 735.44696
689.0 0.000726 507.18265 738.96136
786.0 0.000636 507.19235 744.68396
707.0 0.000707 507.20093 752.75049
784.0 0.000638 507.20847 763.32922
810.0 0.000617 507.21484 776.62463
729.0 0.000686 507.22006 792.90100
771.0 0.000649 507.22415 812.53650
815.0 0.000613 507.22708 836.14368
855.0 0.000585 507.22876 864.83649
873.0 0.000573 507.22925 900.71295
857.0 0.000583 507.22852 947.45636
892.0 0.000561 507.22650 1010.81342
1002.0 0.000499 507.22327 1098.59436
1090.0 0.000459 507.21866 1220.70667
1219.0 0.000410 507.21283 1388.48547
1359.0 0.000368 507.20560 1613.42932
1702.0 0.0002938 507.19711 1905.36877
2027.0 0.0002467 507.18716 2269.70898
2514.0 0.0001989 507.17593 2704.29248
2974.0 0.0001681 507.16324 3195.74365
3606.0 0.0001387 507.14914 3714.96704
4002.0 0.0001249 507.13361 4211.97363
4358.0 0.0001147 507.11667 4614.32129
4792.0 0.0001043 507.09821 4840.65234
4696.0 0.0001065 507.07828 4836.53223
4329.0 0.0001155 507.05685 4609.53467
4045.0 0.0001236 507.03394 4225.21533
3579.0 0.0001397 507.00943 3769.15430
3288.0 0.0001521 506.98343 3314.97852
2813.0 0.0001777 506.95587 2914.80859
2497.0 0.0002002 506.92667 2602.06836
2320.0 0.0002155 506.89594 2396.21240
2258.0 0.0002214 506.86353 2305.97949
2520.0 0.0001984 506.82953 2331.41748
2565.0 0.0001949 506.79385 2464.94604
2764.0 0.0001809 506.75653 2691.48438
3175.0 0.0001575 506.71753 2987.32520
3476.0 0.0001438 506.67688 3317.55688
3779.0 0.0001323 506.63446 3633.42017
3977.0 0.0001257 506.59039 3875.05640
4010.0 0.0001247 506.54453 3987.22461
3841.0 0.0001302 506.49695 3943.49219
3784.0 0.0001321 506.44763 3756.10010
3462.0 0.0001444 506.39651 3461.56860
3158.0 0.0001583 506.34360 3102.18506
2754.0 0.0001816 506.28891 2717.93066
2284.0 0.0002189 506.23236 2342.88672
1936.0 0.0002583 506.17407 2001.60767
1741.0 0.0002872 506.11386 1707.80127
1489.0 0.0003358 506.05188 1465.93958
1270.0 0.000394 505.98798 1274.04712
1158.0 0.000432 505.92221 1126.33569
1052.0 0.000475 505.85455 1015.28253
981.0 0.000510 505.78503 933.09943
904.0 0.000553 505.71359 872.64740
816.0 0.000613 505.64020 827.87714
814.0 0.000614 505.56491 793.92072
783.0 0.000639 505.48764 767.00916
803.0 0.000623 505.40851 744.39844
721.0 0.000693 505.32730 724.35565
684.0 0.000731 505.24420 706.04901
724.0 0.000691 505.15909 689.23303
709.0 0.000705 505.07199 673.89423
724.0 0.000691 504.98294 660.27832
710.0 0.000704 504.89185 647.89691
714.0 0.000700 504.79871 636.34357
673.0 0.000743 504.70361 626.64709
612.0 0.000817 504.60641 618.10120
620.0 0.000806 504.50723 610.56177
624.0 0.000801 504.40591 603.88483
617.0 0.000810 504.30264 597.93628
612.0 0.000817 504.19733 592.59821
638.0 0.000784 504.08990 581.44952
639.0 0.000782 503.98035 577.18292
579.0 0.000864 503.86884 573.28204
585.0 0.000855 503.75513 569.69720
604.0 0.000828 503.63937 567.19836
574.0 0.000871 503.52148 564.15228
574.0 0.000871 503.40158 561.32587
585.0 0.000855 503.27954 558.69720
603.0 0.000829 503.15530 556.24774
586.0 0.000853 503.02908 553.96112
658.0 0.000760 502.90063 551.82343
618.0 0.000809 502.77017 549.82269
557.0 0.000898 502.63745 547.94769
569.0 0.000879 502.50272 546.18988
524.0 0.000954 502.36581 544.54053
558.0 0.000896 502.22675 542.99292
533.0 0.000938 502.08560 541.54156
513.0 0.000975 501.94226 540.18134
508.0 0.000984 501.79684 538.90961
504.0 0.000992 501.64923 537.72437
473.0 0.001057 501.49948 536.62671
493.0 0.001014 501.34763 535.62067
457.0 0.001094 501.19360 534.71521
483.0 0.001035 501.03745 533.92657
504.0 0.000992 500.87915 533.28015
501.0 0.000998 500.71872 532.81342
512.0 0.000977 500.55612 532.57684
475.0 0.001053 500.39139 532.63391
506.0 0.000988 500.22449 533.05743
464.0 0.001078 500.05554 533.92212
463.0 0.001080 499.88437 535.29169
547.0 0.000914 499.71115 537.20374
492.0 0.001016 499.53577 539.64771
488.0 0.001025 499.35825 542.53894
507.0 0.000986 499.17859 545.68695
513.0 0.000975 498.99680 548.73297
537.0 0.000931 498.81296 551.29816
537.0 0.000931 498.62692 552.88873
502.0 0.000996 498.43884 553.19714
532.0 0.000940 498.24866 552.14783
443.0 0.001129 498.05634 551.24756
541.0 0.000924 497.86194 547.95044
508.0 0.000984 497.66544 543.98322
510.0 0.000980 497.46683 539.75671
490.0 0.001020 497.26617 535.63245
476.0 0.001050 497.06351 531.85791
543.0 0.000921 496.85870 528.56354
497.0 0.001006 496.65189 525.79095
450.0 0.001111 496.44302 523.52264
452.0 0.001106 496.23209 515.37024
477.0 0.001048 496.01917 514.06097
479.0 0.001044 495.80411 513.05475
478.0 0.001046 495.58719 512.28381
488.0 0.001025 495.36813 511.69077
494.0 0.001012 495.14716 511.23148
465.0 0.001075 494.92413 510.87320
505.0 0.000990 494.69919 510.59384
504.0 0.000992 494.47232 510.37866
535.0 0.000935 494.24338 510.21906
535.0 0.000935 494.01257 510.11005
567.0 0.000882 493.77972 510.04965
603.0 0.000829 493.54514 510.03784
575.0 0.000870 493.30841 510.07547
550.0 0.000909 493.06998 510.13922
595.0 0.000840 492.82956 510.28528
565.0 0.000885 492.58725 510.49167
615.0 0.000813 492.34314 506.66949
626.0 0.000799 492.09708 507.09775
527.0 0.000949 491.84927 507.60699
536.0 0.000933 491.59958 507.12039
553.0 0.000904 491.34811 507.85391
555.0 0.000901 491.09479 508.71878
512.0 0.000977 490.83975 509.74747
464.0 0.001078 490.58295 513.81958
512.0 0.000977 490.32431 515.40100
497.0 0.001006 490.06409 517.37207
517.0 0.000967 489.80194 519.88354
493.0 0.001014 489.53827 523.14392
481.0 0.001040 489.27271 527.42438
505.0 0.000990 489.00562 533.05609
506.0 0.000988 488.73679 540.40704
542.0 0.000923 488.46640 549.84302
542.0 0.000923 488.19437 561.66589
555.0 0.000901 487.92065 576.03882
534.0 0.000936 487.64545 592.86615
583.0 0.000858 487.36853 611.85364
647.0 0.000773 487.09018 632.16650
651.0 0.000768 486.81021 652.46979
665.0 0.000752 486.52881 670.91107
658.0 0.000760 486.24591 685.59167
674.0 0.000742 485.96143 695.63983
729.0 0.000686 485.67554 702.20270
666.0 0.000751 485.38812 708.29712
646.0 0.000774 485.09943 717.60980
670.0 0.000746 484.80920 733.32465
754.0 0.000663 484.51767 757.51825
753.0 0.000664 484.22464 790.91254
863.0 0.000579 483.93045 832.67944
889.0 0.000562 483.63492 880.15076
935.0 0.000535 483.33795 928.42334
1002.0 0.000499 483.03979 970.16650
1041.0 0.000480 482.74033 996.54962
1015.0 0.000493 482.43967 1000.24103
1021.0 0.000490 482.13776 979.25616
919.0 0.000544 481.83466 938.06561
918.0 0.000545 481.53033 884.71692
820.0 0.000610 481.22501 827.09186
740.0 0.000676 480.91849 771.03503
721.0 0.000693 480.61072 720.21130
617.0 0.000810 480.30206 676.62933
605.0 0.000826 479.99219 640.82428
601.0 0.000832 479.68143 612.64844
587.0 0.000852 479.36945 591.31122
574.0 0.000871 479.05667 575.72772
576.0 0.000868 478.74292 564.74536
567.0 0.000882 478.42813 557.31976
544.0 0.000919 478.11252 552.54602
537.0 0.000931 477.79581 549.77972
527.0 0.000949 477.47842 548.57214
536.0 0.000933 477.16010 548.66040
498.0 0.001004 476.84103 549.94586
533.0 0.000938 476.52103 552.48413
533.0 0.000938 476.20041 556.49738
520.0 0.000962 475.87903 562.40607
476.0 0.001050 475.55682 570.87885
477.0 0.001048 475.23395 582.88684
589.0 0.000849 474.91037 599.73877
622.0 0.000804 474.58627 623.06976
641.0 0.000780 474.26144 654.74915
664.0 0.000753 473.93604 697.29523
719.0 0.000695 473.61002 751.12268
794.0 0.000630 473.28357 817.77484
832.0 0.000601 472.95660 897.02551
925.0 0.000541 472.62897 986.93011
1080.0 0.000463 472.30106 1083.15625
1182.0 0.000423 471.97256 1178.14404
1286.0 0.000389 471.64380 1260.69458
1363.0 0.000367 471.31445 1316.85217
1367.0 0.000366 470.98495 1334.38391
1310.0 0.000382 470.65509 1309.13184
1301.0 0.000384 470.32477 1247.52222
1173.0 0.000426 469.99435 1162.70984
1015.0 0.000493 469.66348 1068.30200
973.0 0.000514 469.33252 974.81946
846.0 0.000591 469.00128 888.95062
793.0 0.000631 468.66998 814.51459
822.0 0.000608 468.33835 753.06342
742.0 0.000674 468.00674 704.56738
697.0 0.000717 467.67511 667.94910
642.0 0.000779 467.34326 641.66089
596.0 0.000839 467.01141 623.66992
620.0 0.000806 466.67950 612.37494
610.0 0.000820 466.34775 606.39331
608.0 0.000822 466.01590 604.77032
607.0 0.000824 465.68414 607.03162
621.0 0.000805 465.35248 613.21808
663.0 0.000754 465.02103 623.92749
612.0 0.000817 464.68973 640.37421
657.0 0.000761 464.35843 664.44830
691.0 0.000724 464.02753 698.73767
715.0 0.000699 463.69672 746.45282
816.0 0.000613 463.36627 811.19611
837.0 0.000597 463.03595 896.52954
884.0 0.000566 462.70612 1005.34015
1017.0 0.000492 462.37662 1139.04675
1308.0 0.000382 462.04736 1296.61133
1504.0 0.0003324 461.71863 1473.55859
1638.0 0.0003053 461.39014 1660.60205
1824.0 0.0002741 461.06226 1842.13025
2017.0 0.0002479 460.73474 1995.44604
2180.0 0.0002294 460.40784 2093.61353
2194.0 0.0002279 460.08130 2114.61548
2042.0 0.0002449 459.75543 2052.99414
1966.0 0.0002543 459.43018 1923.25208
1830.0 0.0002732 459.10544 1751.24023
1593.0 0.0003139 458.78134 1562.59631
1355.0 0.000369 458.45786 1376.71289
1301.0 0.000384 458.13519 1205.92078
1101.0 0.000454 457.81311 1057.05493
970.0 0.000515 457.49179 932.78168
900.0 0.000556 457.17117 832.81116
865.0 0.000578 456.85147 754.89240
787.0 0.000635 456.53256 695.68506
774.0 0.000646 456.21436 651.48773
728.0 0.000687 455.89713 618.77203
742.0 0.000674 455.58072 594.50299
749.0 0.000668 455.26529 576.26990
741.0 0.000675 454.95065 562.27740
692.0 0.000723 454.63715 551.02637
670.0 0.000746 454.32465 542.12775
624.0 0.000801 454.01300 534.78229
646.0 0.000774 453.70251 528.63080
677.0 0.000739 453.39291 523.44885
639.0 0.000782 453.08453 519.10358
619.0 0.000808 452.77719 515.52466
635.0 0.000787 452.47110 512.68909
596.0 0.000839 452.16592 510.60901
577.0 0.000867 451.86215 509.32144
581.0 0.000861 451.55954 508.87512
518.0 0.000965 451.25806 510.69168
504.0 0.000992 450.95786 511.26663
535.0 0.000935 450.65887 513.54303
510.0 0.000980 450.36127 516.60919
510.0 0.000980 450.06488 520.26886
562.0 0.000890 449.76990 524.18591
538.0 0.000929 449.47620 527.85980
562.0 0.000890 449.18396 530.67218
572.0 0.000874 448.89313 532.07538
510.0 0.000980 448.60352 531.86652
556.0 0.000899 448.31558 530.30988
563.0 0.000888 448.02893 527.97601
510.0 0.000980 447.74390 525.47919
534.0 0.000936 447.46014 523.34381
532.0 0.000940 447.17813 522.04266
497.0 0.001006 446.89761 522.10223
559.0 0.000894 446.61859 524.44275
505.0 0.000990 446.34122 529.26404
530.0 0.000943 446.06528 537.62860
537.0 0.000931 445.79108 550.30566
484.0 0.001033 445.51846 567.95581
587.0 0.000852 445.24759 591.01245
584.0 0.000856 444.97821 619.52954
647.0 0.000773 444.71066 653.00244
681.0 0.000734 444.44479 690.14807
699.0 0.000715 444.18060 728.63123
747.0 0.000669 443.91812 764.78058
867.0 0.000577 443.65741 793.59668
763.0 0.000655 443.39853 809.68250
795.0 0.000629 443.14133 809.36072
840.0 0.000595 442.88599 792.71625
727.0 0.000688 442.63242 763.56464
717.0 0.000697 442.38074 727.38068
662.0 0.000755 442.13092 689.20203
629.0 0.000795 441.88281 652.72717
604.0 0.000828 441.63672 620.31537
614.0 0.000814 441.39243 593.26312
618.0 0.000809 441.15012 570.66986
519.0 0.000963 440.90958 555.25372
570.0 0.000877 440.67108 545.04266
529.0 0.000945 440.43454 539.17468
584.0 0.000856 440.19986 536.58917
587.0 0.000852 439.96722 536.17065
565.0 0.000885 439.73642 536.93488
578.0 0.000865 439.50775 538.16443
578.0 0.000865 439.28094 539.35242
601.0 0.000832 439.05627 539.99017
598.0 0.000836 438.83347 539.42096
641.0 0.000780 438.61282 536.95892
566.0 0.000883 438.39420 532.24194
567.0 0.000882 438.17752 525.50586
534.0 0.000936 437.96295 517.48407
505.0 0.000990 437.75040 509.04785
508.0 0.000984 437.54001 500.92090
518.0 0.000965 437.33160 493.62247
523.0 0.000956 437.12534 487.35678
481.0 0.001040 436.92111 482.26978
498.0 0.001004 436.71906 478.35690
484.0 0.001033 436.51910 475.52737
455.0 0.001099 436.32111 473.63040
518.0 0.000965 436.12540 472.47418
469.0 0.001066 435.93173 471.84091
491.0 0.001018 435.74023 471.51031
494.0 0.001012 435.55075 471.29962
429.0 0.001166 435.36356 471.11786
442.0 0.001131 435.17847 470.99008
454.0 0.001101 434.99548 471.02640
455.0 0.001099 434.81467 471.36105
462.0 0.001082 434.63593 472.10440
445.0 0.001124 434.45944 473.32242
494.0 0.001012 434.28503 472.22324
509.0 0.000982 434.11288 474.42551
513.0 0.000975 433.94272 476.95062
489.0 0.001022 433.77484 479.60468
507.0 0.000986 433.60913 482.12415
453.0 0.001104 433.44553 484.23846
507.0 0.000986 433.28406 485.79034
483.0 0.001035 433.12482 486.84225
480.0 0.001042 432.96771 487.67181
471.0 0.001062 432.81274 488.67328
479.0 0.001044 432.65991 490.27252
434.0 0.001152 432.50928 492.91144
506.0 0.000988 432.36081 497.08679
464.0 0.001078 432.21451 503.40933
485.0 0.001031 432.07022 512.66040
490.0 0.001020 431.92819 525.83362
566.0 0.000883 431.78827 544.14264
582.0 0.000859 431.65054 568.97540
546.0 0.000916 431.51483 601.77887
605.0 0.000826 431.38132 643.86462
603.0 0.000829 431.24997 696.14246
693.0 0.000722 431.12067 758.80109
789.0 0.000634 430.99353 830.94312
806.0 0.000620 430.86841 910.15851
969.0 0.000516 430.74545 991.99426
1077.0 0.000464 430.62460 1069.39868
1162.0 0.000430 430.50583 1132.66467
1266.0 0.000395 430.38907 1171.01501
1159.0 0.000431 430.27448 1176.48767
1071.0 0.000467 430.16193 1148.11426
1114.0 0.000449 430.05139 1092.55859
970.0 0.000515 429.94290 1020.53394
980.0 0.000510 429.83646 942.52441
854.0 0.000585 429.73209 866.59589
730.0 0.000685 429.62967 798.12750
717.0 0.000697 429.52927 740.28644
679.0 0.000736 429.43088 694.46606
685.0 0.000730 429.33447 660.95874
646.0 0.000774 429.24008 638.84265
640.0 0.000781 429.14755 626.52075
623.0 0.000803 429.05707 621.84088
582.0 0.000859 428.96851 622.20172
674.0 0.000742 428.88190 624.60321
627.0 0.000797 428.79709 625.90576
594.0 0.000842 428.71429 623.30835
613.0 0.000816 428.63336 615.26605
627.0 0.000797 428.55429 601.96863
558.0 0.000896 428.47714 584.94232
544.0 0.000919 428.40173 566.13605
505.0 0.000990 428.32825 547.23077
504.0 0.000992 428.25653 529.40668
557.0 0.000898 428.18665 513.37964
507.0 0.000986 428.11847 499.50409
508.0 0.000984 428.05215 487.86682
479.0 0.001044 427.98761 478.36282
455.0 0.001099 427.92477 470.76306
429.0 0.001166 427.86362 464.77408
454.0 0.001101 427.80420 459.47479
490.0 0.001020 427.74652 455.81549
502.0 0.000996 427.69046 452.92404
460.0 0.001087 427.63605 450.60355
440.0 0.001136 427.58331 448.70514
472.0 0.001059 427.53217 447.12152
426.0 0.001174 427.48267 445.77881
396.0 0.001263 427.43469 445.67279
438.0 0.001142 427.38831 444.70078
445.0 0.001124 427.34348 443.87286
466.0 0.001073 427.30017 443.18283
484.0 0.001033 427.25833 442.63382
437.0 0.001144 427.21805 442.23764
430.0 0.001163 427.17920 442.01352
457.0 0.001094 427.14182 441.94000
461.0 0.001085 427.10580 445.36691
456.0 0.001096 427.07123 445.87839
450.0 0.001111 427.03806 446.66595
426.0 0.001174 427.00623 447.73608
395.0 0.001266 426.97577 448.96872
445.0 0.001124 426.94659 450.52765
462.0 0.001082 426.91873 452.21652
426.0 0.001174 426.89218 453.88922
468.0 0.001068 426.86688 455.33658
433.0 0.001155 426.84274 456.30484
453.0 0.001104 426.81992 456.56628
435.0 0.001149 426.79825 456.02121
447.0 0.001119 426.77774 454.75323
436.0 0.001147 426.75830 452.98145
437.0 0.001144 426.74011 450.95810
435.0 0.001149 426.72296 448.89438
411.0 0.001217 426.70691 446.93808
400.0 0.001250 426.69186 445.17981
417.0 0.001199 426.67792 443.66626
438.0 0.001142 426.66495 442.39679
434.0 0.001152 426.65295 441.39157
433.0 0.001155 426.64188 440.61121
412.0 0.001214 426.63177 440.02301
445.0 0.001124 426.62262 439.59195
453.0 0.001104 426.61432 439.28494
462.0 0.001082 426.60690 439.07343
437.0 0.001144 426.60028 438.93451
413.0 0.001211 426.59451 438.85077
423.0 0.001182 426.58951 438.80960
425.0 0.001176 426.58530 438.80237
442.0 0.001131 426.58176 438.82288
427.0 0.001171 426.57901 438.83182
412.0 0.001214 426.57693 438.89859
417.0 0.001199 426.57556 438.98508
432.0 0.001157 426.57474 439.09006
410.0 0.001220 426.57458 439.21301
459.0 0.001089 426.57504 439.35330
428.0 0.001168 426.57608 439.51074
437.0 0.001144 426.57758 439.68509
410.0 0.001220 426.57965 439.87643
458.0 0.001092 426.58224 440.08508
408.0 0.001225 426.58527 440.31104
458.0 0.001092 426.58871 440.55457
437.0 0.001144 426.59262 440.81638
430.0 0.001163 426.59692 441.09686
459.0 0.001089 426.60159 441.39667
410.0 0.001220 426.60654 441.71646
439.0 0.001139 426.61188 442.05716
443.0 0.001129 426.61749 442.41974
459.0 0.001089 426.62338 442.80524
421.0 0.001188 426.62952 449.27054
424.0 0.001179 426.63583 449.81284
446.0 0.001121 426.64240 450.38519
465.0 0.001075 426.64911 450.98926
457.0 0.001094 426.65591 450.27097
468.0 0.001068 426.66290 450.97281
426.0 0.001174 426.66998 451.71368
432.0 0.001157 426.67712 452.49734
431.0 0.001160 426.68430 453.32831
437.0 0.001144 426.69153 454.21240
462.0 0.001082 426.69876 455.15610
443.0 0.001129 426.70596 456.16711
433.0 0.001155 426.71307 457.25363
435.0 0.001149 426.72015 458.42468
429.0 0.001166 426.72717 459.75345
448.0 0.001116 426.73404 461.11923
449.0 0.001114 426.74078 462.59131
450.0 0.001111 426.74731 464.17200
448.0 0.001116 426.75369 465.85956
477.0 0.001048 426.75989 467.64618
462.0 0.001082 426.76581 470.01633
475.0 0.001053 426.77145 471.96893
452.0 0.001106 426.77689 473.96201
467.0 0.001071 426.78198 475.98206
511.0 0.000978 426.78677 478.03458
489.0 0.001022 426.79117 480.14801
472.0 0.001059 426.79523 482.36826
472.0 0.001059 426.79892 484.74832
435.0 0.001149 426.80222 487.33978
463.0 0.001080 426.80499 490.18979
506.0 0.000988 426.80743 493.34192
501.0 0.000998 426.80933 496.83844
474.0 0.001055 426.81076 500.72311
495.0 0.001010 426.81168 505.04468
529.0 0.000945 426.81207 509.86081
506.0 0.000988 426.81189 515.24298
544.0 0.000919 426.81119 521.28528
504.0 0.000992 426.80981 528.11414
579.0 0.000864 426.80789 535.90613
566.0 0.000883 426.80533 544.90979
520.0 0.000962 426.80212 555.47620
518.0 0.000965 426.79825 568.09686
586.0 0.000853 426.79367 583.44696
569.0 0.000879 426.78839 602.42865
591.0 0.000846 426.78244 626.20636
636.0 0.000786 426.77573 656.22467
644.0 0.000776 426.76822 694.19891
666.0 0.000751 426.75998 742.07031
782.0 0.000639 426.75098 801.92719
798.0 0.000627 426.74115 875.88739
972.0 0.000514 426.73047 965.94312
1127.0 0.000444 426.71899 1073.73621
1157.0 0.000432 426.70667 1200.22229
1332.0 0.000375 426.69351 1345.07495
1474.0 0.0003392 426.67938 1506.06140
1655.0 0.0003021 426.66446 1678.51880
1776.0 0.0002815 426.64856 1855.95435
1936.0 0.0002583 426.63181 2032.23181
2171.0 0.0002303 426.61404 2204.04810
2489.0 0.0002009 426.59540 2371.11133
2657.0 0.0001882 426.57578 2532.44629
2818.0 0.0001774 426.55521 2681.76660
2967.0 0.0001685 426.53357 2804.44800
3108.0 0.0001609 426.51102 2878.63599
3038.0 0.0001646 426.48746 2882.05908
2934.0 0.0001704 426.46289 2802.83936
2842.0 0.0001759 426.43729 2646.88306
2589.0 0.0001931 426.41055 2435.24268
2244.0 0.0002228 426.38290 2194.38501
1993.0 0.0002509 426.35413 1947.67969
1781.0 0.0002807 426.32434 1712.04712
1561.0 0.0003203 426.29340 1497.99268
1412.0 0.000354 426.26144 1311.22412
1228.0 0.000407 426.22836 1153.76587
1132.0 0.000442 426.19421 1025.02002
1118.0 0.000447 426.15891 922.60052
936.0 0.000534 426.12253 843.06262
865.0 0.000578 426.08505 782.52667
838.0 0.000597 426.04642 737.16779
794.0 0.000630 426.00665 703.54681
745.0 0.000671 425.96576 678.78760
720.0 0.000694 425.92374 660.62524
633.0 0.000790 425.88062 647.36652
698.0 0.000716 425.83624 637.80170
694.0 0.000720 425.79077 631.10089
610.0 0.000820 425.74417 626.71576
681.0 0.000734 425.69641 624.98962
642.0 0.000779 425.64740 624.34705
657.0 0.000761 425.59732 625.36078
651.0 0.000768 425.54605 628.00037
723.0 0.000692 425.49362 632.30444
640.0 0.000781 425.44003 638.36456
669.0 0.000747 425.38522 646.36469
663.0 0.000754 425.32932 656.59271
652.0 0.000767 425.27222 669.49237
712.0 0.000702 425.21399 685.73810
718.0 0.000696 425.15448 706.33923
708.0 0.000706 425.09390 732.77777
771.0 0.000649 425.03220 767.17212
783.0 0.000639 424.96927 812.44666
871.0 0.000574 424.90518 872.47253
859.0 0.000582 424.83994 952.12097
963.0 0.000519 424.77362 1057.16541
1047.0 0.000478 424.70609 1193.96301
1176.0 0.000425 424.63739 1368.87024
1383.0 0.000362 424.56760 1587.38965
1655.0 0.0003021 424.49673 1853.08008
1949.0 0.0002565 424.42468 2166.29590
2301.0 0.0002173 424.35147 2522.77246
2888.0 0.0001731 424.27722 2911.96875
3489.0 0.0001433 424.20184 3315.02588
3854.0 0.0001297 424.12537 3702.57202
4327.0 0.0001156 424.04776 4034.02466
4449.0 0.0001124 423.96912 4262.17969
4660.0 0.0001073 423.88937 4346.38086
4471.0 0.0001118 423.80862 4270.05371
4093.0 0.0001222 423.72681 4049.42261
3640.0 0.0001374 423.64386 3725.16040
3409.0 0.0001467 423.55994 3344.91943
2910.0 0.0001718 423.47498 2950.32275
2560.0 0.0001953 423.38907 2570.91797
2191.0 0.0002282 423.30200 2226.75098
1922.0 0.0002601 423.21408 1929.66663
1681.0 0.0002974 423.12518 1683.88184
1500.0 0.0003333 423.03525 1490.15845
1340.0 0.000373 422.94437 1345.36401
1251.0 0.000400 422.85257 1244.00806
1102.0 0.000454 422.75983 1179.23584
1151.0 0.000434 422.66617 1143.62805
1141.0 0.000438 422.57162 1129.76746
1134.0 0.000441 422.47617 1130.41577
1102.0 0.000454 422.37988 1138.28723
1091.0 0.000458 422.28275 1145.76172
1108.0 0.000451 422.18469 1145.23730
1075.0 0.000465 422.08591 1130.58923
1075.0 0.000465 421.98627 1099.14490
1035.0 0.000483 421.88586 1052.51538
960.0 0.000521 421.78461 995.38385
906.0 0.000552 421.68268 933.27393
882.0 0.000567 421.57999 870.93573
827.0 0.000605 421.47659 811.76392
778.0 0.000643 421.37250 757.88806
710.0 0.000704 421.26764 710.43774
668.0 0.000749 421.16223 669.79138
668.0 0.000749 421.05609 635.77942
622.0 0.000804 420.94940 607.85590
647.0 0.000773 420.84198 585.25140
638.0 0.000784 420.73407 567.10474
582.0 0.000859 420.62561 552.56476
621.0 0.000805 420.51657 540.86249
544.0 0.000919 420.40698 531.34784
588.0 0.000850 420.29691 523.50238
550.0 0.000909 420.18640 516.93231
550.0 0.000909 420.07538 511.34967
534.0 0.000936 419.96393 506.62534
555.0 0.000901 419.85208 502.47476
527.0 0.000949 419.73984 498.87543
520.0 0.000962 419.62726 495.85986
516.0 0.000969 419.51422 493.18616
506.0 0.000988 419.40097 490.91183
512.0 0.000977 419.28735 488.99890
510.0 0.000980 419.17352 487.40591
481.0 0.001040 419.05936 486.08139
507.0 0.000986 418.94504 484.96027
483.0 0.001035 418.83051 483.95886
522.0 0.000958 418.71579 482.98087
487.0 0.001027 418.60095 481.93591
499.0 0.001002 418.48590 480.77347
499.0 0.001002 418.37082 479.50986
476.0 0.001050 418.25562 478.22586
471.0 0.001062 418.14041 477.03836
507.0 0.000986 418.02509 475.01343
468.0 0.001068 417.90985 474.38934
489.0 0.001022 417.79465 474.18423
490.0 0.001020 417.67941 474.47238
484.0 0.001033 417.56430 475.33762
457.0 0.001094 417.44928 476.75677
470.0 0.001064 417.33441 478.76508
528.0 0.000947 417.21970 481.33859
448.0 0.001116 417.10513 481.22226
466.0 0.001073 416.99078 484.75781
472.0 0.001059 416.87674 488.54272
462.0 0.001082 416.76294 492.38773
470.0 0.001064 416.64932 496.11569
471.0 0.001062 416.53613 499.66730
487.0 0.001027 416.42325 503.22711
516.0 0.000969 416.31079 507.28427
516.0 0.000969 416.19861 512.57837
473.0 0.001057 416.08694 520.16589
489.0 0.001022 415.97571 530.58466
508.0 0.000984 415.86502 544.85919
503.0 0.000994 415.75482 563.71216
550.0 0.000909 415.64505 587.65820
559.0 0.000894 415.53595 616.91028
584.0 0.000856 415.42740 651.23309
709.0 0.000705 415.31952 689.84515
700.0 0.000714 415.21216 731.22119
809.0 0.000618 415.10562 772.89392
847.0 0.000590 414.99973 811.28821
877.0 0.000570 414.89456 841.84851
968.0 0.000517 414.79010 859.84888
907.0 0.000551 414.68643 861.95135
914.0 0.000547 414.58365 847.70740
828.0 0.000604 414.48166 819.76526
797.0 0.000627 414.38049 782.59711
802.0 0.000623 414.28027 740.85242
753.0 0.000664 414.18097 698.34698
681.0 0.000734 414.08261 657.79950
651.0 0.000768 413.98514 620.95044
612.0 0.000817 413.88876 588.76770
604.0 0.000828 413.79337 561.63214
564.0 0.000887 413.69904 539.49237
526.0 0.000951 413.60574 522.00098
500.0 0.001000 413.51358 508.63727
538.0 0.000929 413.42255 498.81625
519.0 0.000963 413.33270 491.97751
519.0 0.000963 413.24402 487.64920
475.0 0.001053 413.15643 485.49197
485.0 0.001031 413.07019 485.32281
512.0 0.000977 412.98517 487.12289
502.0 0.000996 412.90143 491.03494
523.0 0.000956 412.81891 497.34970
481.0 0.001040 412.73782 506.48154
534.0 0.000936 412.65808 518.98926
496.0 0.001008 412.57968 535.28265
547.0 0.000914 412.50262 555.90778
519.0 0.000963 412.42706 581.21838
607.0 0.000824 412.35294 611.32513
584.0 0.000856 412.28024 640.01392
698.0 0.000716 412.20901 678.49536
782.0 0.000639 412.13934 719.21167
769.0 0.000650 412.07123 760.29285
751.0 0.000666 412.00464 797.74286
785.0 0.000637 411.93958 828.53790
872.0 0.000573 411.87616 849.48096
854.0 0.000585 411.81433 858.23230
813.0 0.000615 411.75418 853.62677
796.0 0.000628 411.69562 835.91278
794.0 0.000630 411.63879 806.94409
719.0 0.000695 411.58362 769.92871
681.0 0.000734 411.53021 728.61707
662.0 0.000755 411.47852 686.42407
627.0 0.000797 411.42853 645.87988
660.0 0.000758 411.38034 608.82013
626.0 0.000799 411.33395 576.12897
566.0 0.000883 411.28934 548.18097
554.0 0.000903 411.24652 524.93512
516.0 0.000969 411.20557 506.06888
468.0 0.001068 411.16650 490.31323
486.0 0.001029 411.12927 478.66241
473.0 0.001057 411.09387 469.75156
488.0 0.001025 411.06046 463.05402
458.0 0.001092 411.02890 458.12537
459.0 0.001089 410.99930 454.61890
460.0 0.001087 410.97159 452.28888
485.0 0.001031 410.94586 450.98428
490.0 0.001020 410.92212 450.63541
439.0 0.001139 410.90033 451.23819
438.0 0.001142 410.88046 452.83557
472.0 0.001059 410.86267 455.49521
486.0 0.001029 410.84689 459.33682
510.0 0.000980 410.83310 464.30682
461.0 0.001085 410.82132 470.44888
481.0 0.001040 410.81158 477.67493
458.0 0.001092 410.80392 485.78036
525.0 0.000952 410.79831 494.40662
483.0 0.001035 410.79474 503.01221
510.0 0.000980 410.79324 510.86078
491.0 0.001018 410.79379 517.11267
521.0 0.000960 410.79648 520.96655
542.0 0.000923 410.80124 521.85547
519.0 0.000963 410.80804 519.60132
500.0 0.001000 410.81699 514.48047
504.0 0.000992 410.82800 507.15891
492.0 0.001016 410.84119 498.50735
489.0 0.001022 410.85638 489.38116
453.0 0.001104 410.87375 480.47888
494.0 0.001012 410.89319 472.29938
455.0 0.001099 410.91479 465.16162
457.0 0.001094 410.93845 459.23993
495.0 0.001010 410.96429 454.59888
473.0 0.001057 410.99219 451.20877
463.0 0.001080 411.02222 449.02054
473.0 0.001057 411.05435 447.90839
466.0 0.001073 411.08859 447.73788
492.0 0.001016 411.12497 448.36316
442.0 0.001131 411.16342 449.63315
423.0 0.001182 411.20398 451.39532
455.0 0.001099 411.24661 453.50970
447.0 0.001119 411.29138 455.88159
454.0 0.001101 411.33823 458.51108
431.0 0.001160 411.38715 461.52267
435.0 0.001149 411.43808 465.14111
464.0 0.001078 411.49115 469.61853
486.0 0.001029 411.54630 475.34027
457.0 0.001094 411.60345 482.02716
501.0 0.000998 411.66263 489.80200
442.0 0.001131 411.72388 498.42419
487.0 0.001027 411.78714 507.67392
481.0 0.001040 411.85242 516.36792
508.0 0.000984 411.91965 523.78113
508.0 0.000984 411.98895 528.83569
525.0 0.000952 412.06018 530.62305
501.0 0.000998 412.13342 528.75482
486.0 0.001029 412.20856 523.52863
497.0 0.001006 412.28568 515.76593
488.0 0.001025 412.36472 506.46985
452.0 0.001106 412.44562 496.54688
456.0 0.001096 412.52844 486.69812
476.0 0.001050 412.61316 477.42078
462.0 0.001082 412.69974 469.04242
458.0 0.001092 412.78818 461.75183
469.0 0.001066 412.87839 455.62360
433.0 0.001155 412.97043 450.64368
428.0 0.001168 413.06430 446.73557
463.0 0.001080 413.15991 443.09167
424.0 0.001179 413.25726 440.98175
454.0 0.001101 413.35635 439.57452
475.0 0.001053 413.45715 438.75137
443.0 0.001129 413.55969 438.43320
483.0 0.001035 413.66382 438.55319
449.0 0.001114 413.76962 439.07877
428.0 0.001168 413.87701 440.00729
497.0 0.001006 413.98602 441.36728
494.0 0.001012 414.09668 443.21948
508.0 0.000984 414.20877 445.65808
454.0 0.001101 414.32248 448.81436
477.0 0.001048 414.43759 452.85727
420.0 0.001190 414.55429 457.99649
479.0 0.001044 414.67230 464.47964
486.0 0.001029 414.79187 472.61069
488.0 0.001025 414.91275 482.64676
482.0 0.001037 415.03500 494.90692
466.0 0.001073 415.15857 509.64664
496.0 0.001008 415.28348 527.02570
479.0 0.001044 415.40970 550.80194
510.0 0.000980 415.53711 573.35822
560.0 0.000893 415.66577 598.00220
538.0 0.000929 415.79559 624.18695
615.0 0.000813 415.92664 651.18219
686.0 0.000729 416.05875 677.96667
681.0 0.000734 416.19193 703.07001
681.0 0.000734 416.32623 724.50757
665.0 0.000752 416.46149 739.94086
741.0 0.000675 416.59784 747.12372
732.0 0.000683 416.73511 744.57513
713.0 0.000701 416.87326 732.21283
687.0 0.000728 417.01236 711.18372
692.0 0.000723 417.15228 684.69232
648.0 0.000772 417.29312 655.18408
604.0 0.000828 417.43463 625.06091
604.0 0.000828 417.57700 595.66083
574.0 0.000871 417.72000 569.03760
535.0 0.000935 417.86380 545.54327
509.0 0.000982 418.00812 525.22931
552.0 0.000906 418.15317 508.23560
520.0 0.000962 418.29868 494.38162
497.0 0.001006 418.44479 483.35983
492.0 0.001016 418.59140 474.79709
496.0 0.001008 418.73840 468.30542
517.0 0.000967 418.88596 463.51996
467.0 0.001071 419.03381 460.12317
442.0 0.001131 419.18204 457.85709
465.0 0.001075 419.33057 456.52258
443.0 0.001129 419.47943 455.97351
484.0 0.001033 419.62845 456.10318
437.0 0.001144 419.77765 456.83093
431.0 0.001160 419.92703 458.08667
447.0 0.001119 420.07651 459.79678
429.0 0.001166 420.22614 461.86972
436.0 0.001147 420.37573 464.20535
476.0 0.001050 420.52533 466.58682
483.0 0.001035 420.67487 468.81335
431.0 0.001160 420.82434 470.61920
448.0 0.001116 420.97372 471.74637
508.0 0.000984 421.12286 472.02435
472.0 0.001059 421.27188 471.43848
451.0 0.001109 421.42062 470.13028
424.0 0.001179 421.56909 468.33145
502.0 0.000996 421.71713 466.28159
471.0 0.001062 421.86496 464.18094
516.0 0.000969 422.01227 462.17853
460.0 0.001087 422.15915 460.38229
447.0 0.001119 422.30557 458.79630
458.0 0.001092 422.45142 457.61880
468.0 0.001068 422.59680 456.70718
450.0 0.001111 422.74146 458.64804
455.0 0.001099 422.88553 458.62195
509.0 0.000982 423.02887 458.96854
476.0 0.001050 423.17154 459.87009
501.0 0.000998 423.31339 460.98123
482.0 0.001037 423.45441 462.51257
464.0 0.001078 423.59460 464.53638
467.0 0.001071 423.73392 467.11380
494.0 0.001012 423.87234 470.38339
530.0 0.000943 424.00967 474.50690
487.0 0.001027 424.14612 479.68304
512.0 0.000977 424.28146 486.14005
518.0 0.000965 424.41574 494.12573
465.0 0.001075 424.54886 503.88818
521.0 0.000960 424.68085 515.65045
540.0 0.000926 424.81165 529.57776
560.0 0.000893 424.94119 545.73553
538.0 0.000929 425.06946 564.03809
611.0 0.000818 425.19638 584.15753
649.0 0.000770 425.32202 605.57227
655.0 0.000763 425.44623 627.34735
680.0 0.000735 425.56900 648.27490
651.0 0.000768 425.69034 666.98492
661.0 0.000756 425.81015 682.17676
682.0 0.000733 425.92850 692.80365
688.0 0.000727 426.04520 698.11035
643.0 0.000778 426.16034 697.63550
689.0 0.000726 426.27383 691.34705
662.0 0.000755 426.38568 679.85675
666.0 0.000751 426.49579 664.43732
617.0 0.000810 426.60413 646.55255
624.0 0.000801 426.71078 628.18915
600.0 0.000833 426.81558 610.48297
578.0 0.000865 426.91861 594.37305
586.0 0.000853 427.01965 584.67834
524.0 0.000954 427.11893 573.32745
618.0 0.000809 427.21622 564.62354
560.0 0.000893 427.31155 558.54034
573.0 0.000873 427.40488 554.98645
516.0 0.000969 427.49622 553.83307
536.0 0.000933 427.58554 554.96149
523.0 0.000956 427.67276 558.30774
554.0 0.000903 427.75784 563.90442
553.0 0.000904 427.84088 571.92499
593.0 0.000843 427.92175 582.72943
582.0 0.000859 428.00043 596.91296
597.0 0.000838 428.07687 615.35449
604.0 0.000828 428.15112 639.25610
582.0 0.000859 428.22311 670.16437
694.0 0.000720 428.29288 709.95776
756.0 0.000661 428.36032 760.78632
795.0 0.000629 428.42542 824.94830
861.0 0.000581 428.48819 904.69946
999.0 0.000501 428.54865 1001.98926
1189.0 0.000421 428.60669 1118.13965
1222.0 0.000409 428.66229 1253.47766
1410.0 0.000355 428.71555 1406.93542
1572.0 0.0003181 428.76636 1575.60547
1750.0 0.0002857 428.81476 1754.22083
1997.0 0.0002504 428.86057 1934.53479
2147.0 0.0002329 428.90399 2104.74951
2284.0 0.0002189 428.94492 2249.56104
2412.0 0.0002073 428.98331 2351.86060
2477.0 0.0002019 429.01913 2396.79932
2441.0 0.0002048 429.05249 2377.05640
2328.0 0.0002148 429.08331 2296.00879
2091.0 0.0002391 429.11157 2166.23120
2041.0 0.0002450 429.13721 2004.86230
1816.0 0.0002753 429.16028 1828.38965
1735.0 0.0002882 429.18082 1650.22437
1385.0 0.000361 429.19873 1480.04370
1317.0 0.000380 429.21402 1324.10950
1292.0 0.000387 429.22668 1186.87341
1144.0 0.000437 429.23679 1068.38123
1104.0 0.000453 429.24423 970.10999
978.0 0.000511 429.24908 890.45294
896.0 0.000558 429.25128 827.43567
871.0 0.000574 429.25085 778.56873
825.0 0.000606 429.24783 741.11359
772.0 0.000648 429.24219 712.30402
743.0 0.000673 429.23383 689.55261
733.0 0.000682 429.22293 670.66815
679.0 0.000736 429.20938 654.04736
637.0 0.000785 429.19324 638.74927
675.0 0.000741 429.17438 624.39581
645.0 0.000775 429.15302 610.95984
640.0 0.000781 429.12900 598.55981
643.0 0.000778 429.10239 587.33447
595.0 0.000840 429.07315 577.38861
597.0 0.000838 429.04138 568.77979
615.0 0.000813 429.00699 561.51721
598.0 0.000836 428.97006 555.56610
568.0 0.000880 428.93054 550.85089
540.0 0.000926 428.88852 547.25970
563.0 0.000888 428.84393 544.64954
557.0 0.000898 428.79688 542.85089
550.0 0.000909 428.74731 541.67633
554.0 0.000903 428.69519 540.93744
558.0 0.000896 428.64066 540.47314
488.0 0.001025 428.58362 540.18213
543.0 0.000921 428.52420 540.04266
560.0 0.000893 428.46228 540.10242
535.0 0.000935 428.39801 540.45190
554.0 0.000903 428.33136 541.14185
544.0 0.000919 428.26239 542.37170
529.0 0.000945 428.19101 544.18146
538.0 0.000929 428.11734 546.66132
553.0 0.000904 428.04141 551.66968
539.0 0.000928 427.96320 555.82965
544.0 0.000919 427.88272 561.02496
609.0 0.000821 427.80002 567.47150
629.0 0.000795 427.71518 575.45728
577.0 0.000867 427.62820 585.39697
594.0 0.000842 427.53897 597.83405
589.0 0.000849 427.44775 613.52716
612.0 0.000817 427.35443 633.45276
613.0 0.000816 427.25909 658.83691
609.0 0.000821 427.16165 691.15399
651.0 0.000768 427.06235 732.09326
752.0 0.000665 426.96103 783.47906
736.0 0.000679 426.85785 847.14075
794.0 0.000630 426.75281 924.73083
881.0 0.000568 426.64584 1017.49530
951.0 0.000526 426.53717 1126.01001
1138.0 0.000439 426.42670 1249.88464
1286.0 0.000389 426.31451 1387.42786
1464.0 0.0003415 426.20056 1535.25232
1735.0 0.0002882 426.08505 1687.79712
2035.0 0.0002457 425.96790 1836.84521
2149.0 0.0002327 425.84921 1971.34753
2287.0 0.0002186 425.72894 2078.20581
2338.0 0.0002139 425.60721 2144.66309
2337.0 0.0002139 425.48407 2162.00366
2306.0 0.0002168 425.35947 2128.69995
2219.0 0.0002253 425.23355 2050.78955
1984.0 0.0002520 425.10629 1939.32031
1878.0 0.0002662 424.97784 1806.84216
1670.0 0.0002994 424.84814 1664.68396
1529.0 0.0003270 424.71716 1522.57153
1443.0 0.0003465 424.58521 1387.30176
1251.0 0.000400 424.45209 1263.69031
1200.0 0.000417 424.31796 1154.42773
1094.0 0.000457 424.18280 1061.58044
1047.0 0.000478 424.04675 985.22290
1057.0 0.000473 423.90982 924.93829
914.0 0.000547 423.77206 879.86041
887.0 0.000564 423.63351 848.97998
806.0 0.000620 423.49414 831.41327
837.0 0.000597 423.35419 826.62384
869.0 0.000575 423.21356 834.58411
817.0 0.000612 423.07239 855.87427
854.0 0.000585 422.93057 891.70392
859.0 0.000582 422.78842 943.85681
928.0 0.000539 422.64575 1014.54663
989.0 0.000506 422.50278 1106.18591
1080.0 0.000463 422.35944 1221.06921
1187.0 0.000421 422.21582 1360.98877
1303.0 0.000384 422.07205 1526.79407
1544.0 0.0003238 421.92807 1717.91565
1854.0 0.0002697 421.78400 1931.84180
2065.0 0.0002421 421.63986 2163.51831
2265.0 0.0002208 421.49579 2404.62622
2705.0 0.0001848 421.35178 2642.78442
2942.0 0.0001700 421.20779 2861.05396
3155.0 0.0001585 421.06409 3038.62598
3197.0 0.0001564 420.92053 3153.87866
3274.0 0.0001527 420.77731 3190.02393
3107.0 0.0001609 420.63434 3141.10205
3006.0 0.0001663 420.49185 3014.42749
2904.0 0.0001722 420.34979 2827.59033
2567.0 0.0001948 420.20825 2602.31836
2349.0 0.0002129 420.06726 2359.05420
2064.0 0.0002422 419.92682 2114.17651
1835.0 0.0002725 419.78714 1879.58264
1718.0 0.0002910 419.64813 1663.11536
1465.0 0.0003413 419.50995 1469.43884
1350.0 0.000370 419.37250 1300.71826
1252.0 0.000399 419.23605 1157.19824
1092.0 0.000458 419.10046 1033.99219
1006.0 0.000497 418.96597 936.44086
878.0 0.000569 418.83243 858.06415
850.0 0.000588 418.70004 795.94611
862.0 0.000580 418.56888 747.23541
738.0 0.000678 418.43884 709.33936
747.0 0.000669 418.31009 680.03986
720.0 0.000694 418.18265 657.54309
674.0 0.000742 418.05664 640.47974
674.0 0.000742 417.93204 627.87048
657.0 0.000761 417.80884 619.95477
644.0 0.000776 417.68726 614.62097
660.0 0.000758 417.56723 612.58795
580.0 0.000862 417.44882 613.85864
616.0 0.000812 417.33203 618.52618
629.0 0.000795 417.21707 626.71216
646.0 0.000774 417.10385 638.50476
616.0 0.000812 416.99246 653.77020
633.0 0.000790 416.88300 672.60358
655.0 0.000763 416.77533 694.49255
719.0 0.000695 416.66974 718.76135
775.0 0.000645 416.56613 744.35651
711.0 0.000703 416.46457 769.75690
771.0 0.000649 416.36508 792.92615
823.0 0.000608 416.26779 811.41382
862.0 0.000580 416.17267 822.72961
857.0 0.000583 416.07980 824.99799
802.0 0.000623 415.98920 817.61981
788.0 0.000635 415.90088 801.51019
756.0 0.000661 415.81497 778.73328
759.0 0.000659 415.73145 751.80389
701.0 0.000713 415.65030 723.08551
614.0 0.000814 415.57169 694.48395
674.0 0.000742 415.49557 667.39325
627.0 0.000797 415.42203 642.76154
558.0 0.000896 415.35095 621.15826
619.0 0.000808 415.28259 602.95355
572.0 0.000874 415.21686 588.24969
597.0 0.000838 415.15381 577.04199
590.0 0.000847 415.09341 569.26550
573.0 0.000873 415.03580 564.83423
575.0 0.000870 414.98096 563.73529
600.0 0.000833 414.92892 566.05817
596.0 0.000839 414.87970 572.04199
563.0 0.000888 414.83328 582.15643
571.0 0.000876 414.78979 596.89783
604.0 0.000828 414.74918 617.09369
621.0 0.000805 414.71149 643.65216
618.0 0.000809 414.67670 677.54468
647.0 0.000773 414.64490 719.70990
675.0 0.000741 414.61609 770.92999
780.0 0.000641 414.59027 831.68707
836.0 0.000598 414.56744 902.00580
877.0 0.000570 414.54767 981.27942
955.0 0.000524 414.53091 1068.07581
1159.0 0.000431 414.51724 1159.90405
1358.0 0.000368 414.50656 1252.94177
1365.0 0.000366 414.49905 1341.78857
1530.0 0.0003268 414.49460 1419.45691
1569.0 0.0003187 414.49319 1477.98254
1606.0 0.0003113 414.49490 1509.95972
1663.0 0.0003007 414.49973 1510.72729
1526.0 0.0003277 414.50769 1480.08618
1459.0 0.0003427 414.51874 1423.27905
1375.0 0.000364 414.53284 1345.72998
1269.0 0.000394 414.55011 1256.27307
1184.0 0.000422 414.57050 1161.96008
1090.0 0.000459 414.59396 1068.29443
956.0 0.000523 414.62051 979.20850
887.0 0.000564 414.65015 897.29706
836.0 0.000598 414.68286 824.07928
765.0 0.000654 414.71872 760.22559
698.0 0.000716 414.75760 705.74750
676.0 0.000740 414.79950 660.16797
635.0 0.000787 414.84448 622.67737
610.0 0.000820 414.89252 592.27277
631.0 0.000792 414.94348 567.87842
577.0 0.000867 414.99747 548.43854
522.0 0.000958 415.05444 532.98322
501.0 0.000998 415.11438 520.66620
553.0 0.000904 415.17725 510.78137
511.0 0.000978 415.24295 502.84653
512.0 0.000977 415.31161 496.24985
481.0 0.001040 415.38312 490.73965
491.0 0.001018 415.45743 486.07101
473.0 0.001057 415.53452 479.66895
461.0 0.001085 415.61441 476.20810
544.0 0.000919 415.69708 473.17145
481.0 0.001040 415.78241 470.48816
455.0 0.001099 415.87039 467.92462
455.0 0.001099 415.96100 465.80447
462.0 0.001082 416.05426 463.89871
470.0 0.001064 416.15005 462.21066
436.0 0.001147 416.24832 460.70551
455.0 0.001099 416.34909 459.36615
484.0 0.001033 416.45227 458.17831
487.0 0.001027 416.55789 457.13013
424.0 0.001179 416.66580 456.21121
421.0 0.001188 416.77603 455.41327
442.0 0.001131 416.88846 454.72894
442.0 0.001131 417.00314 454.15271
511.0 0.000978 417.11993 453.67947
444.0 0.001126 417.23874 453.30569
460.0 0.001087 417.35974 453.02893
452.0 0.001106 417.48264 452.84732
459.0 0.001089 417.60748 452.76007
473.0 0.001057 417.73413 452.76733
461.0 0.001085 417.86267 452.87048
480.0 0.001042 417.99292 453.07166
484.0 0.001033 418.12485 453.37411
464.0 0.001078 418.25839 453.78268
468.0 0.001068 418.39349 454.30359
469.0 0.001066 418.53015 454.94507
465.0 0.001075 418.66821 455.71762
477.0 0.001048 418.80762 456.63562
449.0 0.001114 418.94830 457.84299
481.0 0.001040 419.09030 459.11600
445.0 0.001124 419.23340 460.61279
481.0 0.001040 419.37756 462.40521
510.0 0.000980 419.52277 464.51044
441.0 0.001134 419.66888 462.82312
441.0 0.001134 419.81595 465.96310
474.0 0.001055 419.96375 469.81293
445.0 0.001124 420.11224 474.58026
475.0 0.001053 420.26141 480.53079
503.0 0.000994 420.41119 487.98987
488.0 0.001025 420.56137 497.34128
467.0 0.001071 420.71194 509.01862
464.0 0.001078 420.86295 523.48712
491.0 0.001018 421.01413 541.21313
520.0 0.000962 421.16556 562.62482
542.0 0.000923 421.31696 588.06024
564.0 0.000887 421.46848 617.71075
617.0 0.000810 421.61984 651.55408
632.0 0.000791 421.77109 689.28589
684.0 0.000731 421.92206 730.23755
754.0 0.000663 422.07269 773.27856
853.0 0.000586 422.22299 816.82739
839.0 0.000596 422.37274 858.26508
940.0 0.000532 422.52191 894.66498
978.0 0.000511 422.67038 922.56403
1035.0 0.000483 422.81821 938.71265
990.0 0.000505 422.96512 940.97302
967.0 0.000517 423.11108 929.06659
947.0 0.000528 423.25607 904.67828
924.0 0.000541 423.39993 870.84924
911.0 0.000549 423.54272 831.06415
745.0 0.000671 423.68414 788.52582
726.0 0.000689 423.82422 745.80493
708.0 0.000706 423.96286 704.78540
662.0 0.000755 424.10004 666.74677
686.0 0.000729 424.23553 632.47894
593.0 0.000843 424.36929 602.38354
581.0 0.000861 424.50137 576.56042
568.0 0.000880 424.63150 554.87952
545.0 0.000917 424.75977 537.07367
535.0 0.000935 424.88586 522.70007
553.0 0.000904 425.00998 511.34082
501.0 0.000998 425.13181 502.02954
505.0 0.000990 425.25134 495.39276
520.0 0.000962 425.36850 490.53363
518.0 0.000965 425.48322 487.14148
505.0 0.000990 425.59546 484.96719
455.0 0.001099 425.70505 483.81851
482.0 0.001037 425.81189 483.55051
477.0 0.001048 425.91599 484.05527
476.0 0.001050 426.01730 485.24939
474.0 0.001055 426.11560 487.06381
493.0 0.001014 426.21091 489.43405
468.0 0.001068 426.30310 492.29532
515.0 0.000971 426.39218 495.57941
507.0 0.000986 426.47803 499.21567
471.0 0.001062 426.56058 503.13284
514.0 0.000973 426.63971 507.26263
498.0 0.001004 426.71539 511.55362
550.0 0.000909 426.78760 516.00916
536.0 0.000933 426.85620 520.71222
519.0 0.000963 426.92108 525.91431
526.0 0.000951 426.98233 532.02747
521.0 0.000960 427.03976 539.60059
502.0 0.000996 427.09338 549.25891
534.0 0.000936 427.14301 561.63593
540.0 0.000926 427.18878 577.31812
565.0 0.000885 427.23047 596.79407
611.0 0.000818 427.26807 620.41156
626.0 0.000799 427.30154 648.32666
675.0 0.000741 427.33081 680.45166
676.0 0.000740 427.35590 716.39191
707.0 0.000707 427.37665 755.38879
792.0 0.000631 427.39304 796.16986
850.0 0.000588 427.40506 838.23926
905.0 0.000552 427.41269 876.57025
986.0 0.000507 427.41583 907.65320
964.0 0.000519 427.41446 931.75293
986.0 0.000507 427.40848 944.19257
994.0 0.000503 427.39798 943.30603
983.0 0.000509 427.38284 929.23816
888.0 0.000563 427.36307 903.88965
925.0 0.000541 427.33853 870.26550
819.0 0.000611 427.30936 831.68134
793.0 0.000631 427.27545 791.10260
731.0 0.000684 427.23679 750.89948
726.0 0.000689 427.19327 712.80634
685.0 0.000730 427.14499 677.99823
640.0 0.000781 427.09192 647.18719
646.0 0.000774 427.03403 620.70856
628.0 0.000796 426.97122 598.58923
535.0 0.000935 426.90359 580.60651
627.0 0.000797 426.83112 566.33722
563.0 0.000888 426.75381 555.20453
591.0 0.000846 426.67157 546.52130
562.0 0.000890 426.58450 539.54657
519.0 0.000963 426.49255 533.55664
557.0 0.000898 426.39581 527.93695
478.0 0.001046 426.29410 522.26318
513.0 0.000975 426.18765 516.33850
508.0 0.000984 426.07632 510.16147
507.0 0.000986 425.96024 503.85403
477.0 0.001048 425.83936 497.58545
454.0 0.001101 425.71359 491.51947
464.0 0.001078 425.58322 485.79129
501.0 0.000998 425.44803 480.49969
433.0 0.001155 425.30826 475.71118
450.0 0.001111 425.16370 471.46414
454.0 0.001101 425.01462 467.77545
456.0 0.001096 424.86087 464.64542
445.0 0.001124 424.70261 462.06375
417.0 0.001199 424.53989 460.01559
457.0 0.001094 424.37265 458.48627
415.0 0.001205 424.20108 457.46619
448.0 0.001116 424.02502 456.95407
449.0 0.001114 423.84476 456.95999
412.0 0.001214 423.66019 457.50415
444.0 0.001126 423.47153 458.61618
437.0 0.001144 423.27869 460.33090
426.0 0.001174 423.08170 462.68289
440.0 0.001136 422.88083 465.70001
451.0 0.001109 422.67596 469.39459
473.0 0.001057 422.46732 473.75543
473.0 0.001057 422.25473 478.73703
455.0 0.001099 422.03860 484.24963
534.0 0.000936 421.81876 490.14529
501.0 0.000998 421.59543 496.20432
509.0 0.000982 421.36865 502.12280
497.0 0.001006 421.13843 507.51379
526.0 0.000951 420.90503 511.93558
535.0 0.000935 420.66837 514.96106
517.0 0.000967 420.42862 516.27710
546.0 0.000916 420.18585 515.77173
554.0 0.000903 419.94031 513.56152
521.0 0.000960 419.69186 509.94760
553.0 0.000904 419.44077 505.33661
531.0 0.000942 419.18713 500.16559
499.0 0.001002 418.93097 494.85193
500.0 0.001000 418.67252 489.76468
508.0 0.000984 418.41168 485.20947
536.0 0.000933 418.14886 481.42413
487.0 0.001027 417.88391 478.57825
471.0 0.001062 417.61719 476.77771
490.0 0.001020 417.34866 476.06784
476.0 0.001050 417.07834 476.43643
510.0 0.000980 416.80664 477.81668
476.0 0.001050 416.53348 480.08609
551.0 0.000907 416.25912 483.06418
500.0 0.001000 415.98346 486.50693
495.0 0.001010 415.70694 490.10178
504.0 0.000992 415.42944 493.46774
528.0 0.000947 415.15131 496.18033
523.0 0.000956 414.87250 497.82660
509.0 0.000982 414.59317 498.09595
504.0 0.000992 414.31363 497.10001
524.0 0.000954 414.03381 494.46887
524.0 0.000954 413.75397 490.71649
473.0 0.001057 413.47412 485.33337
487.0 0.001027 413.19464 480.48233
481.0 0.001040 412.91544 475.59381
497.0 0.001006 412.63681 470.92355
466.0 0.001073 412.35889 466.65521
503.0 0.000994 412.08167 462.90817
496.0 0.001008 411.80551 459.74884
493.0 0.001014 411.53030 457.19708
505.0 0.000990 411.25647 455.23398
468.0 0.001068 410.98395 453.80551
446.0 0.001121 410.71307 452.82797
451.0 0.001109 410.44388 452.33362
459.0 0.001089 410.17636 451.92508
495.0 0.001010 409.91095 451.64218
448.0 0.001116 409.64764 451.35291
462.0 0.001082 409.38663 451.02563
450.0 0.001111 409.12793 450.65823
447.0 0.001119 408.87195 450.28986
502.0 0.000996 408.61856 449.98315
458.0 0.001092 408.36810 451.32489
462.0 0.001082 408.12061 451.37167
429.0 0.001166 407.87625 451.68365
455.0 0.001099 407.63522 452.32278
507.0 0.000986 407.39755 453.35175
466.0 0.001073 407.16345 454.84067
459.0 0.001089 406.93304 456.87286
449.0 0.001114 406.70651 459.55243
406.0 0.001232 406.48389 463.01202
450.0 0.001111 406.26541 467.42221
460.0 0.001087 406.05118 472.99344
490.0 0.001020 405.84128 480.00693
499.0 0.001002 405.63589 488.78394
470.0 0.001064 405.43503 499.71017
479.0 0.001044 405.23898 513.22656
475.0 0.001053 405.04779 529.81586
505.0 0.000990 404.86160 549.92755
565.0 0.000885 404.68051 574.15570
551.0 0.000907 404.50449 602.86627
564.0 0.000887 404.33389 636.35663
586.0 0.000853 404.16867 674.73730
639.0 0.000782 404.00906 717.86481
687.0 0.000728 403.85492 765.27045
803.0 0.000623 403.70663 816.07745
830.0 0.000602 403.56409 868.90271
904.0 0.000553 403.42755 921.74994
935.0 0.000535 403.29691 971.92548
1042.0 0.000480 403.17236 1016.06714
1084.0 0.000461 403.05402 1050.41248
1132.0 0.000442 402.94189 1071.40527
1058.0 0.000473 402.83606 1076.59094
1103.0 0.000453 402.73660 1065.22144
1040.0 0.000481 402.64362 1038.70618
986.0 0.000507 402.55710 1000.01221
974.0 0.000513 402.47711 951.94824
881.0 0.000568 402.40381 900.01465
868.0 0.000576 402.33710 846.42737
752.0 0.000665 402.27713 793.62762
746.0 0.000670 402.22382 743.38318
750.0 0.000667 402.17737 696.88904
671.0 0.000745 402.13766 654.87396
598.0 0.000836 402.10480 617.69269
618.0 0.000809 402.07874 585.40350
553.0 0.000904 402.05951 557.83759
559.0 0.000894 402.04718 534.66193
508.0 0.000984 402.04169 515.43530
521.0 0.000960 402.04303 499.66061
477.0 0.001048 402.05121 486.82684
463.0 0.001080 402.06622 476.44199
499.0 0.001002 402.08807 468.05618
470.0 0.001064 402.11667 461.27451
513.0 0.000975 402.15198 455.76337
444.0 0.001126 402.19406 451.24896
453.0 0.001104 402.24277 447.42712
463.0 0.001080 402.29816 444.29971
427.0 0.001171 402.36002 441.73868
435.0 0.001149 402.42844 439.46390
415.0 0.001205 402.50333 437.49814
443.0 0.001129 402.58456 435.78217
476.0 0.001050 402.67203 434.27472
428.0 0.001168 402.76572 432.94455
433.0 0.001155 402.86560 431.76794
427.0 0.001171 402.97137 430.72574
413.0 0.001211 403.08310 429.80307
469.0 0.001066 403.20065 428.98779
407.0 0.001229 403.32391 428.26947
403.0 0.001241 403.45270 427.63931
414.0 0.001208 403.58691 427.09006
418.0 0.001196 403.72644 426.61517
401.0 0.001247 403.87112 426.20914
392.0 0.001276 404.02090 425.86691
414.0 0.001208 404.17545 425.58414
408.0 0.001225 404.33472 425.35721
408.0 0.001225 404.49857 425.18274
446.0 0.001121 404.66681 425.90753
414.0 0.001208 404.83920 425.84692
448.0 0.001116 405.01556 425.82523
432.0 0.001157 405.19589 425.84680
446.0 0.001121 405.37976 425.90967
465.0 0.001075 405.56717 426.01273
461.0 0.001085 405.75766 426.15451
422.0 0.001185 405.95132 426.33456
409.0 0.001222 406.14771 426.55164
414.0 0.001208 406.34680 426.80585
467.0 0.001071 406.54810 427.09622
412.0 0.001214 406.75156 427.42325
419.0 0.001193 406.95706 427.78690
425.0 0.001176 407.16409 428.06277
421.0 0.001188 407.37262 428.50259
436.0 0.001147 407.58224 428.98038
424.0 0.001179 407.79288 429.47296
442.0 0.001131 408.00409 430.03082
457.0 0.001094 408.21570 430.63055
413.0 0.001211 408.42743 431.27289
417.0 0.001199 408.63904 431.96255
447.0 0.001119 408.85028 432.70120
445.0 0.001124 409.06076 433.49170
450.0 0.001111 409.27029 434.33792
449.0 0.001114 409.47852 435.24472
440.0 0.001136 409.68530 436.21771
421.0 0.001188 409.89014 437.26404
485.0 0.001031 410.09283 438.39267
424.0 0.001179 410.29321 439.61533
442.0 0.001131 410.49081 440.94669
443.0 0.001129 410.68546 442.40588
477.0 0.001048 410.87668 444.01788
438.0 0.001142 411.06439 445.81445
459.0 0.001089 411.24811 447.83566
432.0 0.001157 411.42764 450.13239
424.0 0.001179 411.60254 452.64420
406.0 0.001232 411.77271 455.69070
432.0 0.001157 411.93771 459.23462
447.0 0.001119 412.09729 463.37341
477.0 0.001048 412.25110 468.21371
479.0 0.001044 412.39883 474.80322
434.0 0.001152 412.54025 481.39246
436.0 0.001147 412.67499 489.00848
484.0 0.001033 412.80276 497.76025
493.0 0.001014 412.92328 507.66513
539.0 0.000928 413.03622 518.77136
520.0 0.000962 413.14142 531.06000
516.0 0.000969 413.23837 544.45532
591.0 0.000846 413.32690 558.81171
573.0 0.000873 413.40674 573.89813
624.0 0.000801 413.47763 589.38336
610.0 0.000820 413.53922 604.82928
666.0 0.000751 413.59125 619.71381
689.0 0.000726 413.63348 633.47614
673.0 0.000743 413.66565 645.74805
730.0 0.000685 413.68750 656.37152
721.0 0.000693 413.69870 665.62762
722.0 0.000693 413.69913 674.23334
731.0 0.000684 413.68851 683.24207
709.0 0.000705 413.66660 693.87769
695.0 0.000719 413.63306 707.37286
705.0 0.000709 413.58786 724.85559
731.0 0.000684 413.53067 747.27917
785.0 0.000637 413.46140 775.37561
757.0 0.000661 413.37967 809.61224
782.0 0.000639 413.28543 850.14972
838.0 0.000597 413.17850 896.81097
881.0 0.000568 413.05872 949.07269
991.0 0.000505 412.92590 1006.08661
1014.0 0.000493 412.77982 1066.70337
1155.0 0.000433 412.62048 1129.45361
1158.0 0.000432 412.44763 1192.44531
1259.0 0.000397 412.26132 1253.18726
1305.0 0.000383 412.06119 1308.47119
1349.0 0.000371 411.84747 1354.36597
1422.0 0.000352 411.61981 1386.61292
1456.0 0.0003434 411.37833 1401.39917
1399.0 0.000357 411.12283 1396.29565
1380.0 0.000362 410.85333 1371.07605
1319.0 0.000379 410.56989 1327.79626
1303.0 0.000384 410.27231 1270.21875
1163.0 0.000430 409.96069 1202.85791
1098.0 0.000455 409.63504 1130.11548
1026.0 0.000487 409.29550 1055.75745
1006.0 0.000497 408.94183 982.73181
905.0 0.000552 408.57437 913.19470
825.0 0.000606 408.19312 848.60846
780.0 0.000641 407.79797 789.92487
723.0 0.000692 407.38934 736.31171
684.0 0.000731 406.96698 690.49463
698.0 0.000716 406.53143 651.00446
614.0 0.000814 406.08252 617.47711
595.0 0.000840 405.62064 589.41223
614.0 0.000814 405.14587 566.22070
552.0 0.000906 404.65817 547.28113
556.0 0.000899 404.15823 531.97827
554.0 0.000903 403.64584 519.73065
524.0 0.000954 403.12164 510.01077
527.0 0.000949 402.58545 502.35199
499.0 0.001002 402.03802 496.37595
528.0 0.000947 401.47925 491.69037
507.0 0.000986 400.90985 488.02393
548.0 0.000912 400.32983 485.11938
542.0 0.000923 399.73947 482.74649
501.0 0.000998 399.13956 480.69513
498.0 0.001004 398.52991 478.77298
468.0 0.001068 397.91144 476.81662
482.0 0.001037 397.28412 474.70621
464.0 0.001078 396.64890 472.38403
496.0 0.001008 396.00558 469.85861
492.0 0.001016 395.35522 467.19669
434.0 0.001152 394.69803 464.49991
473.0 0.001057 394.03427 461.88303
481.0 0.001040 393.36493 459.45770
449.0 0.001114 392.68994 457.32312
488.0 0.001025 392.01044 455.56616
453.0 0.001104 391.32645 455.22906
444.0 0.001126 390.63901 454.44876
456.0 0.001096 389.94846 454.23331
476.0 0.001050 389.25504 454.62344
493.0 0.001014 388.56000 455.65015
453.0 0.001104 387.86328 457.33167
451.0 0.001109 387.16614 459.67529
469.0 0.001066 386.46860 462.67426
455.0 0.001099 385.77185 466.30954
443.0 0.001129 385.07602 470.54617
479.0 0.001044 384.38229 475.33401
475.0 0.001053 383.69098 480.60410
516.0 0.000969 383.00256 486.27008
496.0 0.001008 382.31824 492.23636
485.0 0.001031 381.63815 498.41696
492.0 0.001016 380.96344 504.77533
503.0 0.000994 380.29437 511.37137
507.0 0.000986 379.63202 518.40497
490.0 0.001020 378.97665 526.22589
509.0 0.000982 378.32941 535.30396
469.0 0.001066 377.69080 546.16736
510.0 0.000980 377.06119 559.33258
538.0 0.000929 376.44174 575.24628
559.0 0.000894 375.83270 594.23798
597.0 0.000838 375.23514 616.48926
617.0 0.000810 374.64938 642.00201
652.0 0.000767 374.07645 670.57025
660.0 0.000758 373.51669 701.74188
700.0 0.000714 372.97064 734.77643
727.0 0.000688 372.43930 768.59241
779.0 0.000642 371.92294 801.72064
825.0 0.000606 371.42245 832.29614
804.0 0.000622 370.93808 858.13898
891.0 0.000561 370.47079 876.98901
889.0 0.000562 370.02078 886.89600
852.0 0.000587 369.58884 886.67798
843.0 0.000593 369.17532 876.24329
763.0 0.000655 368.78067 856.61163
769.0 0.000650 368.40555 829.64996
787.0 0.000635 368.05014 797.50177
703.0 0.000711 367.71503 762.36530
721.0 0.000693 367.40051 726.12292
672.0 0.000744 367.10706 690.27850
650.0 0.000769 366.83481 655.96222
616.0 0.000812 366.58417 624.02795
588.0 0.000850 366.35541 594.91467
586.0 0.000853 366.14865 570.34814
592.0 0.000845 365.96414 547.77570
527.0 0.000949 365.80191 528.55035
550.0 0.000909 365.66223 512.58710
535.0 0.000935 365.54501 499.73822
493.0 0.001014 365.45038 489.82553
497.0 0.001006 365.37827 482.66965
542.0 0.000923 365.32849 478.11493
532.0 0.000940 365.30109 476.04993
524.0 0.000954 365.29584 476.41974
528.0 0.000947 365.31247 479.23343
543.0 0.000921 365.35074 484.56400
523.0 0.000956 365.41037 492.54102
565.0 0.000885 365.49100 503.33679
569.0 0.000879 365.59210 517.14679
555.0 0.000901 365.71320 534.16418
559.0 0.000894 365.85394 554.55109
587.0 0.000852 366.01355 578.40607
610.0 0.000820 366.19156 605.72888
627.0 0.000797 366.38699 636.38495
675.0 0.000741 366.59946 670.06635
711.0 0.000703 366.82782 706.26801
727.0 0.000688 367.07144 744.15271
782.0 0.000639 367.32922 782.62085
876.0 0.000571 367.60028 820.17474
807.0 0.000620 367.88373 854.92419
919.0 0.000544 368.17822 884.65753
943.0 0.000530 368.48279 907.05896
978.0 0.000511 368.79611 920.08521
914.0 0.000547 369.11722 922.41583
929.0 0.000538 369.44449 913.79901
836.0 0.000598 369.77679 895.11707
845.0 0.000592 370.11279 868.13721
799.0 0.000626 370.45090 835.08215
783.0 0.000639 370.78992 798.21600
713.0 0.000701 371.12808 759.56171
682.0 0.000733 371.46408 720.77643
650.0 0.000769 371.79620 683.13062
629.0 0.000795 372.12308 647.54706
604.0 0.000828 372.44293 614.65173
545.0 0.000917 372.75412 584.82697
603.0 0.000829 373.05539 558.25513
491.0 0.001018 373.34473 534.95770
539.0 0.000928 373.62085 514.59497
493.0 0.001014 373.88181 497.44623
468.0 0.001068 374.12640 483.01141
485.0 0.001031 374.35281 470.99353
461.0 0.001085 374.55966 461.08206
459.0 0.001089 374.74533 452.97110
446.0 0.001121 374.90854 446.37320
446.0 0.001121 375.04800 441.02875
447.0 0.001119 375.16226 436.71005
432.0 0.001157 375.25024 433.22363
422.0 0.001185 375.31082 430.40836
425.0 0.001176 375.34308 428.13266
417.0 0.001199 375.34610 426.29089
440.0 0.001136 375.31921 424.79825
411.0 0.001217 375.26184 423.44754
421.0 0.001188 375.17374 423.55054
400.0 0.001250 375.05463 422.73810
409.0 0.001222 374.90460 422.08304
399.0 0.001253 374.72375 421.52838
414.0 0.001208 374.51291 421.04034
413.0 0.001211 374.27264 420.58942
456.0 0.001096 374.00424 420.15417
412.0 0.001214 373.70895 418.20184
442.0 0.001131 373.38855 417.79922
427.0 0.001171 373.04538 417.42010
446.0 0.001121 372.68173 417.09042
423.0 0.001182 372.30078 416.84192
454.0 0.001101 371.90585 416.70895
429.0 0.001166 371.50107 416.72638
430.0 0.001163 371.09064 416.92883
408.0 0.001225 370.67987 417.35135
383.0 0.001305 370.27435 418.03018
395.0 0.001266 369.88016 419.00400
406.0 0.001232 369.50455 420.31650
426.0 0.001174 369.15494 422.01666
436.0 0.001147 368.84015 424.16299
399.0 0.001253 368.56918 426.82422
463.0 0.001080 368.35245 430.08389
455.0 0.001099 368.20087 434.04144
422.0 0.001185 368.12646 438.81589
443.0 0.001129 368.14246 444.54691
462.0 0.001082 368.26297 451.39532
487.0 0.001027 368.50327 459.54446
475.0 0.001053 368.88004 469.20087
448.0 0.001116 369.41080 480.59436
470.0 . . .
loop_
_refln_index_h
_refln_index_k
_refln_index_l
_refln_observed_status
_refln_F_squared_meas
_refln_F_squared_calc
_refln_phase_calc
_refln_d_spacing
_gsas_i100_meas
1 1 0 o 13260.791 13096.404 180.00 7.02007 17.90
0 0 1 o 768.711 1150.144 180.00 5.03951 0.00
2 0 0 o 953.598 1274.009 0.00 4.96394 0.88
1 1 1 o 29000.475 29020.113 0.00 4.09386 28.11
2 0 1 o 1181.109 1164.172 180.00 3.53645 1.07
2 2 0 o 499.754 581.167 0.00 3.51003 0.04
2 1 1 o 632.018 39.871 0.00 3.33140 0.98
3 1 0 o 17268.391 16835.125 0.00 3.13947 9.37
2 2 1 o 202603.78 201776.70 180.00 2.88026 100.00
3 1 1 o 7277.200 5818.760 180.00 2.66469 5.49
0 0 2 o 106819.80 110465.31 0.00 2.51975 9.45
4 0 0 o 130207.18 130637.62 0.00 2.48197 23.08
3 2 1 o 4859.063 4486.438 0.00 2.41634 4.01
1 1 2 o 3912.634 4012.558 180.00 2.37161 1.00
3 3 0 o 20881.584 20664.770 180.00 2.34002 3.18
2 0 2 o -31.206 181.562 0.00 2.24685 0.00
4 0 1 o 6861.925 6969.311 180.00 2.22658 1.52
4 2 0 o 584.860 546.859 0.00 2.21994 0.21
2 1 2 o 600.519 620.612 0.00 2.19143 0.41
4 1 1 o 2809.238 2495.632 0.00 2.17261 1.90
3 3 1 o 2111.756 1838.255 0.00 2.12238 0.44
2 2 2 o 6705.630 7076.767 0.00 2.04693 1.26
4 2 1 o 125.696 116.200 180.00 2.03156 0.09
3 1 2 o 19679.594 19279.770 0.00 1.96510 8.84
5 1 0 o 5202.059 5214.802 180.00 1.94702 1.06
3 2 2 o 454.625 354.124 0.00 1.85889 0.23
4 3 1 o 974.832 418.092 180.00 1.84736 0.48
5 1 1 o 19371.906 19474.199 0.00 1.81618 7.29
4 0 2 o 135852.97 136982.84 0.00 1.76822 25.72
4 4 0 o 132686.22 133852.86 0.00 1.75502 12.41
4 1 2 o 1.481 1.681 0.00 1.74083 0.00
5 2 1 o 21.606 31.259 180.00 1.73135 0.01
3 3 2 o 25784.889 24547.760 180.00 1.71467 4.56
5 3 0 o 9743.438 7376.397 0.00 1.70262 1.66
0 0 3 o 5596.629 4190.516 180.00 1.67984 0.20
4 2 2 o 983.113 932.368 0.00 1.66570 0.41
4 4 1 o 1940.146 2130.110 180.00 1.65739 0.16
6 0 0 o 4.040 4.545 180.00 1.65465 0.00
1 1 3 o 7250.982 7654.832 0.00 1.63371 1.01
5 3 1 o 12528.343 12899.979 180.00 1.61304 3.73
2 0 3 o 275.778 316.435 180.00 1.59119 0.06
6 0 1 o 1045.084 1192.260 180.00 1.57208 0.19
2 1 3 o 76.005 85.850 0.00 1.57114 0.03
6 2 0 o 7639.891 8241.600 0.00 1.56973 0.93
4 3 2 o 59.677 83.457 0.00 1.55956 0.02
6 1 1 o 594.411 300.767 180.00 1.55273 0.21
5 1 2 o 173.510 194.287 180.00 1.54066 0.01
2 2 3 o 97589.86 97288.29 180.00 1.51525 13.78
6 2 1 o 85236.82 84305.88 180.00 1.49871 23.52
5 2 2 o 510.230 370.298 0.00 1.48785 0.17
5 4 1 o 42.098 39.634 180.00 1.48192 0.01
3 1 3 o 6671.175 6291.817 180.00 1.48114 1.69
4 4 2 o 73677.48 73595.32 0.00 1.44013 9.39
3 2 3 o 263.390 268.322 180.00 1.43404 0.09
6 3 1 o 36.826 57.246 180.00 1.41999 0.01
5 3 2 o 2960.862 2694.597 0.00 1.41075 0.60
7 1 0 o 8064.278 8374.903 0.00 1.40401 0.87
5 5 0 o 1925.961 2067.414 0.00 1.40401 0.20
4 0 3 o 468.590 541.149 180.00 1.39116 0.01
6 0 2 o 108.048 104.544 180.00 1.38310 0.01
4 1 3 o 762.201 846.075 180.00 1.37770 0.23
6 4 0 o 22.964 28.212 0.00 1.37675 0.01
6 1 2 o 248.914 234.142 180.00 1.36987 0.07
3 3 3 o 351.832 302.244 0.00 1.36462 0.02
7 1 1 o 1736.139 1703.854 180.00 1.35250 0.31
5 5 1 o 21695.717 21172.213 0.00 1.35250 2.55
4 2 3 o 64.183 17.849 180.00 1.33955 0.02
6 2 2 o 990.183 878.963 0.00 1.33235 0.12
6 4 1 o 486.670 450.416 180.00 1.32808 0.14
5 4 2 o 9.832 10.930 180.00 1.32051 0.00
7 2 1 o 855.907 1010.339 180.00 1.31635 0.25
7 3 0 o 23776.893 24783.516 180.00 1.30359 2.69
4 3 3 o 345.686 284.319 0.00 1.28245 0.09
6 3 2 o 194.426 196.145 0.00 1.27613 0.05
5 1 3 o 13324.331 13530.197 0.00 1.27188 2.80
7 3 1 o 8.605 11.429 180.00 1.26205 0.03
0 0 4 o 75840.02 79353.14 0.00 1.25988 2.03
5 2 3 o 423.252 426.237 0.00 1.24168 0.11
8 0 0 o 44678.90 44789.07 0.00 1.24098 2.25
1 1 4 o 5296.308 5236.529 180.00 1.24007 0.52
6 5 1 o 348.860 263.453 0.00 1.23253 0.09
7 1 2 o 14128.942 13646.916 0.00 1.22647 2.91
5 5 2 o 565.081 550.749 180.00 1.22647 0.04
2 0 4 o 111.212 104.903 0.00 1.22116 0.02
4 4 3 o 3702.795 3791.038 180.00 1.21353 0.29
2 1 4 o 114.930 146.293 180.00 1.21202 0.03
6 4 2 o 24.678 34.959 180.00 1.20817 0.00
8 0 1 o 1693.329 1865.404 180.00 1.20499 0.09
8 2 0 o 984.062 1248.047 0.00 1.20393 0.12
7 2 2 o 93.520 138.767 180.00 1.19932 0.02
7 4 1 o 111.420 108.614 0.00 1.19621 0.03
8 1 1 o 96.425 94.043 180.00 1.19621 0.02
5 3 3 o 4570.671 4385.400 180.00 1.19580 0.80
2 2 4 o 512.534 411.812 0.00 1.18580 0.03
6 0 3 o 577.922 611.077 180.00 1.17882 0.07
8 2 1 o 253.092 292.352 0.00 1.17098 0.04
6 1 3 o 165.753 190.615 180.00 1.17059 0.04
6 6 0 o 959.259 992.791 0.00 1.17001 0.02
3 1 4 o 3012.187 3102.425 0.00 1.16924 0.47
7 3 2 o 9590.695 9508.348 180.00 1.15782 1.74
7 5 0 o 5221.563 5267.602 0.00 1.15409 0.45
6 2 3 o 44755.33 44164.82 180.00 1.14692 8.50
3 2 4 o 33.779 31.577 180.00 1.14565 0.01
6 6 1 o 40062.98 38775.95 180.00 1.13970 3.79
5 4 3 o 24.470 23.457 0.00 1.13934 0.01
8 3 1 o 0.030 0.029 0.00 1.13226 0.00
6 5 2 o 49.129 32.912 0.00 1.13490 0.01
7 5 1 o 2585.771 2643.761 180.00 1.12497 0.40
4 0 4 o 48365.75 48478.05 0.00 1.12343 4.57
4 1 4 o 105.889 114.532 0.00 1.11630 0.02
8 0 2 o 45206.67 47146.44 0.00 1.11329 4.26
6 3 3 o 64.692 63.393 0.00 1.11047 0.02
8 4 0 o 32579.547 32177.805 0.00 1.10997 2.97
3 3 4 o 8643.152 8539.186 180.00 1.10931 0.78
7 4 2 o 50.257 45.725 180.00 1.10635 0.01
8 1 2 o 94.147 85.903 0.00 1.10635 0.02
9 1 0 o -102.203 48.133 0.00 1.09635 0.01
4 2 4 o 1.292 57.161 0.00 1.09572 0.00
8 2 2 o 648.616 698.019 0.00 1.08630 0.15
8 4 1 o 3720.697 3737.187 180.00 1.08399 0.55
7 1 3 o 473.628 476.404 180.00 1.07728 0.05
5 5 3 o 9858.945 9959.358 0.00 1.07728 0.88
9 1 1 o 10990.570 10323.271 0.00 1.07129 2.04
6 4 3 o 225.589 177.613 180.00 1.06482 0.06
4 3 4 o 57.465 53.477 0.00 1.06380 0.01
6 6 2 o 5121.956 5079.620 0.00 1.06119 0.41
7 2 3 o 166.958 130.527 0.00 1.05875 0.04
5 1 4 o 663.885 564.889 180.00 1.05774 0.09
8 3 2 o 51.714 50.738 0.00 1.05518 0.01
9 2 1 o 77.953 78.182 180.00 1.05306 0.02
7 6 1 o 15.352 15.394 0.00 1.05306 0.00
7 5 2 o 4891.034 5080.208 0.00 1.04927 0.83
9 3 0 o 2147.329 2188.100 0.00 1.04649 0.17
5 2 4 o 42.177 89.396 180.00 1.04018 0.01
8 5 1 o 4.738 6.035 0.00 1.03013 0.00
7 3 3 o 30.929 32.165 0.00 1.02987 0.00
9 3 1 o 5107.610 5134.630 180.00 1.02463 0.87
4 4 4 o 30650.490 29555.473 0.00 1.02347 2.81
8 4 2 o 27075.299 26950.365 0.00 1.01578 4.96
6 5 3 o 241.842 242.352 180.00 1.01364 0.05
5 3 4 o 3562.005 3542.909 0.00 1.01276 0.63
0 0 5 o 854.658 795.205 180.00 1.00790 0.01
9 1 2 o 289.912 309.382 180.00 1.00531 0.03
7 7 0 o 12079.087 11641.853 180.00 1.00287 0.58
6 0 4 o 58.284 55.782 180.00 1.00238 0.00
8 0 3 o 3274.816 3304.684 180.00 0.99815 0.25
1 1 5 o 3928.199 3940.094 0.00 0.99767 0.34
6 1 4 o 10.737 10.602 0.00 0.99731 0.00
7 4 3 o 116.947 112.390 180.00 0.99314 0.03
8 1 3 o 119.196 114.342 0.00 0.99314 0.03
8 6 0 o 54.771 52.511 0.00 0.99279 0.01
10 0 0 o 1389.308 1348.418 180.00 0.99279 0.07
7 6 2 o 42.906 44.664 0.00 0.99020 0.01
9 2 2 o 36.692 38.082 180.00 0.99020 0.01
9 4 1 o 476.219 559.085 0.00 0.98844 0.12
2 0 5 o 24.524 28.443 180.00 0.98775 0.00
7 7 1 o 217.628 247.481 180.00 0.98358 0.04
2 1 5 o 319.528 341.184 180.00 0.98289 0.08
6 2 4 o 2254.023 2307.076 0.00 0.98255 0.33
8 2 3 o 217.790 223.140 0.00 0.97856 0.04
5 4 4 o 13.734 12.607 180.00 0.97777 0.00
8 6 1 o 22.197 21.957 0.00 0.97407 0.00
10 0 1 o 1174.937 1144.088 180.00 0.97407 0.14
10 2 0 o 2779.267 2793.446 0.00 0.97351 0.21
8 5 2 o 4.773 4.979 0.00 0.97107 0.00
10 1 1 o 55.798 55.477 0.00 0.96941 0.02
2 2 5 o 29064.730 28470.980 180.00 0.96875 2.82
9 3 2 o 761.756 704.261 0.00 0.96645 0.11
9 5 0 o 69.281 62.069 0.00 0.96428 0.02
6 6 3 o 23590.516 23189.355 180.00 0.96009 2.31
3 1 5 o 1157.057 1133.127 180.00 0.95966 0.18
6 3 4 o 48.849 46.904 180.00 0.95934 0.01
10 2 1 o 20447.547 20494.053 180.00 0.95584 3.97
8 3 3 o 13.171 13.094 0.00 0.95563 0.00
7 5 3 o 2610.682 2645.453 180.00 0.95123 0.48
9 5 1 o 8169.608 8057.583 0.00 0.94710 1.64
3 2 5 o 30.138 29.239 0.00 0.94649 0.01
5 5 4 o 108.639 105.045 0.00 0.93770 0.03
7 1 4 o 3990.511 3948.004 0.00 0.93770 0.76
9 4 2 o 0.069 0.066 180.00 0.93591 0.00
10 3 1 o 15.002 15.477 0.00 0.93443 0.01
4 0 5 o 763.368 779.609 180.00 0.93384 0.05
7 7 2 o 7704.571 7666.300 180.00 0.93178 0.80
4 1 5 o 239.880 258.731 0.00 0.92974 0.07
6 4 4 o 2.070 3.770 0.00 0.92944 0.00
8 4 3 o 932.225 899.543 180.00 0.92607 0.12
3 3 5 o 347.790 324.481 0.00 0.92569 0.02
7 2 4 o 4.141 3.336 0.00 0.92540 0.00
8 6 2 o 339.684 269.952 0.00 0.92368 0.10
10 0 2 o 283.529 247.721 180.00 0.92368 0.03
10 4 0 o 262.537 227.343 180.00 0.92178 0.03
10 1 2 o 16.313 18.361 0.00 0.91971 0.00
8 7 1 o 42.093 43.533 0.00 0.91830 0.01
9 1 3 o 5134.403 5202.683 0.00 0.91811 1.07
4 2 5 o 0.529 0.504 180.00 0.91774 0.00
10 2 2 o 1597.645 1562.538 0.00 0.90809 0.26
10 4 1 o 497.979 501.326 180.00 0.90674 0.14
9 2 3 o 18.838 18.944 0.00 0.90656 0.01
7 6 3 o 53.128 53.444 0.00 0.90656 0.02
7 3 4 o 6919.277 6889.160 180.00 0.90593 1.60
9 6 1 o 149.453 130.756 0.00 0.90298 0.04
9 5 2 o 171.324 189.253 0.00 0.90059 0.09
11 1 0 o 6895.000 7103.649 0.00 0.89883 0.83
4 3 5 o 18.103 18.743 180.00 0.89874 0.01
5 1 5 o 4116.319 4084.103 0.00 0.89508 0.95
6 5 4 o 69.820 70.059 180.00 0.89482 0.02
8 5 3 o 33.373 32.062 180.00 0.89181 0.01
