#------------------------------------------------------------------------------
#$Date: 2021-06-21 11:24:16 +0300 (Mon, 21 Jun 2021) $
#$Revision: 266602 $
#$URL: file:///home/coder/svn-repositories/cod/cif/1/56/36/1563631.cif $
#------------------------------------------------------------------------------
#
# This file is available in the Crystallography Open Database (COD),
# http://www.crystallography.net/
#
# All data on this site have been placed in the public domain by the
# contributors.
#
data_1563631
loop_
_publ_author_name
'Zubkov, Vladimir G.'
'Tarakina, Nadezda V.'
'Leonidov, Ivan I.'
'Tyutyunnik, Alexander P.'
'Surat, Ludmila L.'
'Melkozerova, Marina A.'
'Zabolotskaya, Elena V.'
'Kellerman, Dina G.'
_publ_section_title
;
 Synthesis and crystal structure of Ln2M2+Ge4O12, Ln=rare-earth element or
 Y; M=Ca, Mn, Zn
;
_journal_issue                   5
_journal_name_full               'Journal of Solid State Chemistry'
_journal_page_first              1186
_journal_page_last               1193
_journal_paper_doi               10.1016/j.jssc.2010.03.027
_journal_volume                  183
_journal_year                    2010
_chemical_formula_sum            'Ge4 Ho2 Mn O12'
_chemical_formula_weight         867.15
_space_group_IT_number           125
_space_group_name_Hall           '-P 4a 2b'
_space_group_name_H-M_alt        'P 4/n b m :2'
_symmetry_cell_setting           tetragonal
_symmetry_space_group_name_H-M   'P 4/n b m :2'
_cell_angle_alpha                90.0
_cell_angle_beta                 90.0
_cell_angle_gamma                90.0
_cell_formula_units_Z            2
_cell_length_a                   9.89565(5)
_cell_length_b                   9.89565
_cell_length_c                   4.977347(32)
_cell_volume                     487.401(4)
_computing_structure_refinement  GSAS
_diffrn_radiation_polarisn_ratio 0.8
_diffrn_radiation_probe          x-ray
_diffrn_radiation_wavelength     1.54056
_exptl_absorpt_correction_T_max  9.41902
_exptl_absorpt_correction_T_min  2.94423
_exptl_absorpt_process_details
;   GSAS Absorption/surface roughness correction: function number 4
 Flat plate transmission absorption correction
Terms =    -0.69668         0.0000    
Correction is refined.
;
_pd_calc_method                  'Rietveld Refinement'
_pd_instr_location               ' ?'
_pd_meas_2theta_range_inc        0.02
_pd_meas_2theta_range_max        119.98
_pd_meas_2theta_range_min        5.0
_pd_meas_number_of_points        5750
_pd_proc_2theta_range_inc        0.02
_pd_proc_2theta_range_max        119.9485
_pd_proc_2theta_range_min        4.9685
_pd_proc_info_datetime           2010-02-27T10:49:16
_pd_proc_info_excluded_regions   ' ?'
_pd_proc_ls_background_function
;   GSAS Background function number 1 with 36 terms.
 Shifted Chebyshev function of 1st kind
      1:    2331.07     2:   -1740.83     3:    1143.98     4:   -552.915    
      5:    160.349     6:    6.51199     7:   -44.9163     8:    28.7170    
      9:   -2.58166    10:   -33.6887    11:    25.7581    12:    3.63774    
     13:   -22.7043    14:    22.8767    15:   -9.72057    16:   -2.02485    
     17:    26.5052    18:   -24.1177    19:   0.958432    20:    14.2160    
     21:   -27.5362    22:    32.9766    23:   -28.5849    24:    2.81258    
     25:    10.0444    26:   -28.4293    27:    21.8292    28:   -20.2431    
     29:   2.117470E-0230:    16.5978    31:   -24.2073    32:    13.9960    
     33:   -5.84231    34:   -6.68854    35:    10.3236    36:   -4.93527    
;
_pd_proc_ls_peak_cutoff          0.00100
_pd_proc_ls_profile_function
;
 CW Profile function number 2 with  18 terms
 Profile coefficients for Simpson's rule integration of pseudovoigt function
 C.J. Howard (1982). J. Appl. Cryst.,15,615-620.
 P. Thompson, D.E. Cox & J.B. Hastings (1987). J. Appl. Cryst.,20,79-83.
 #1(GU)   =   15.263 #2(GV)   =  -14.900 #3(GW)   =   18.315
 #4(LX)   =    1.720 #5(LY)   =    6.681 #6(trns) =    0.000
 #7(asym) =   0.6428 #8(shft) =   0.0000 #9(GP)   =    0.000
 #10(stec)=     0.00 #11(ptec)=     0.00 #12(sfec)=     0.00
 #13(L11) =    0.000 #14(L22) =    0.000 #15(L33) =    0.000
 #16(L12) =    0.000 #17(L13) =    0.000 #18(L23) =    0.000
 Peak tails are ignored  where the intensity is below 0.0010 times the peak
   Aniso. broadening axis   0.0   0.0   1.0
;
_pd_proc_ls_prof_R_factor        0.0226
_pd_proc_ls_prof_wR_expected     0.0208
_pd_proc_ls_prof_wR_factor       0.0325
_pd_proc_number_of_points        5750
_pd_spec_mounting                ' ?'
_refine_ls_goodness_of_fit_all   1.57
_refine_ls_matrix_type           full
_refine_ls_number_parameters     56
_refine_ls_number_restraints     0
_refine_ls_R_Fsqd_factor         0.03045
_refine_ls_shift/su_max          0.01
_refine_ls_shift/su_mean         0.00
_reflns_d_resolution_high        0.896
_reflns_d_resolution_low         6.997
_reflns_limit_h_max              11
_reflns_limit_h_min              0
_reflns_limit_k_max              7
_reflns_limit_k_min              0
_reflns_limit_l_max              5
_reflns_limit_l_min              0
_reflns_number_total             203
_cod_data_source_file            HO2MNGE4O12.cif
_cod_data_source_block           HO2MNGE4O12_publ
_cod_depositor_comments
;
The following automatic conversions were performed:

data item '_geom_angle_publ_flag' value 'N' was changed to 'n' in
accordance with the built-in table derived from the CIF Core
dictionary named 'cif_core.dic' version 2.4.5 last updated on
2014-11-21 (115 times).

data item '_geom_bond_publ_flag' value 'N' was changed to 'n' in
accordance with the built-in table derived from the CIF Core
dictionary named 'cif_core.dic' version 2.4.5 last updated on
2014-11-21 (50 times).

Automatic conversion script
Id: cif_fix_values 8369 2020-08-20 11:38:08Z andrius 
;
_cod_original_cell_volume        487.401(6)
_cod_original_sg_symbol_H-M      'P 4/n b m'
_cod_original_formula_sum        'Ge4 Ho2.00 Mn1.00 O12'
_cod_database_code               1563631
_gsas_exptl_extinct_corr_t_min   1.00000
_gsas_exptl_extinct_corr_t_max   1.00000
loop_
_symmetry_equiv_pos_site_id
_symmetry_equiv_pos_as_xyz
1 +x,+y,+z
2 -y+1/2,+x,+z
3 -x+1/2,-y+1/2,+z
4 +y,-x+1/2,+z
5 -x,+y+1/2,+z
6 -y,-x,+z
7 +x+1/2,-y,+z
8 +y+1/2,+x+1/2,+z
-1 -x,-y,-z
-2 +y+1/2,-x,-z
-3 +x+1/2,+y+1/2,-z
-4 -y,+x+1/2,-z
-5 +x,-y+1/2,-z
-6 +y,+x,-z
-7 -x+1/2,+y,-z
-8 -y+1/2,-x+1/2,-z
loop_
_atom_site_type_symbol
_atom_site_label
_atom_site_fract_x
_atom_site_fract_y
_atom_site_fract_z
_atom_site_occupancy
_atom_site_thermal_displace_type
_atom_site_U_iso_or_equiv
_atom_site_symmetry_multiplicity
Mn Mn 0.0 0.0 0.5 0.5 Uiso 0.0333(8) 4
Ho Ho1 0.0 0.0 0.5 0.5 Uiso 0.0333(8) 4
Ho Ho2 0.25 0.25 0.5 1.0 Uiso 0.0308(9) 2
Ge GE 0.97800(10) 0.25 0.0 1.0 Uiso 0.0275(8) 8
O O1 0.1312(4) 0.8688(4) 0.8345(10) 1.0 Uiso 0.0184(17) 8
O O2 0.1687(4) 0.06227(34) 0.2569(8) 1.0 Uiso 0.0210(13) 16
loop_
_atom_type_symbol
_atom_type_number_in_cell
_atom_type_scat_dispersion_real
_atom_type_scat_dispersion_imag
_atom_type_scat_Cromer_Mann_a1
_atom_type_scat_Cromer_Mann_a2
_atom_type_scat_Cromer_Mann_a3
_atom_type_scat_Cromer_Mann_a4
_atom_type_scat_Cromer_Mann_b1
_atom_type_scat_Cromer_Mann_b2
_atom_type_scat_Cromer_Mann_b3
_atom_type_scat_Cromer_Mann_b4
_atom_type_scat_Cromer_Mann_c
_atom_type_scat_source
Mn 2.0 0.000 0.000 11.2819 5.34090 7.35730 0.34320 3.01930 17.8674 2.24410
83.7543 1.08960 International_Tables_Vol_C
Ho 4.0 0.000 0.000 26.9049 2.07051 17.2940 0.19794 14.5583 11.4407 3.63837
92.6566 4.56796 International_Tables_Vol_C
Ge 8.0 0.000 0.000 16.0816 2.85090 6.37470 0.25160 3.70680 11.4468 3.68300
54.7625 2.13130 International_Tables_Vol_C
O 24.0 0.000 0.000 3.04850 13.2771 2.28680 5.70110 1.54630 0.32390 0.86700
32.9089 0.25080 International_Tables_Vol_C
loop_
_geom_angle_atom_site_label_1
_geom_angle_atom_site_label_2
_geom_angle_atom_site_label_3
_geom_angle
_geom_angle_site_symmetry_1
_geom_angle_site_symmetry_2
_geom_angle_site_symmetry_3
_geom_angle_publ_flag
O2 Mn O2 97.35(19) 1_555 . 6_555 n
O2 Mn O2 180.0 1_555 . -1_556 n
O2 Mn O2 82.65(19) 1_555 . -6_556 n
O2 Mn O2 82.65(19) 6_555 . -1_556 n
O2 Mn O2 180.0 6_555 . -6_556 n
O2 Mn O2 97.35(19) -1_556 . -6_556 n
Ho2 Ho1 Ho2 180.0 1_555 . 5_545 n
Ho2 Ho1 O1 89.9992 1_555 . 1_545 n
Ho2 Ho1 O1 90.0008 1_555 . -1_566 n
Ho2 Ho1 O2 41.32(10) 1_555 . 1_555 n
Ho2 Ho1 O2 138.68(10) 1_555 . 6_555 n
Ho2 Ho1 O2 138.68(10) 1_555 . -1_556 n
Ho2 Ho1 O2 41.32(10) 1_555 . -6_556 n
Ho2 Ho1 O1 90.0008 5_545 . 1_545 n
Ho2 Ho1 O1 89.9992 5_545 . -1_566 n
Ho2 Ho1 O2 138.68(10) 5_545 . 1_555 n
Ho2 Ho1 O2 41.32(10) 5_545 . 6_555 n
Ho2 Ho1 O2 41.32(10) 5_545 . -1_556 n
Ho2 Ho1 O2 138.68(10) 5_545 . -6_556 n
O1 Ho1 O1 180.0 1_545 . -1_566 n
O1 Ho1 O2 96.97(13) 1_545 . 1_555 n
O1 Ho1 O2 96.97(13) 1_545 . 6_555 n
O1 Ho1 O2 83.03(13) 1_545 . -1_556 n
O1 Ho1 O2 83.03(13) 1_545 . -6_556 n
O1 Ho1 O2 83.03(13) -1_566 . 1_555 n
O1 Ho1 O2 83.03(13) -1_566 . 6_555 n
O1 Ho1 O2 96.97(13) -1_566 . -1_556 n
O1 Ho1 O2 96.97(13) -1_566 . -6_556 n
O2 Ho1 O2 97.35(19) 1_555 . 6_555 n
O2 Ho1 O2 180.0 1_555 . -1_556 n
O2 Ho1 O2 82.65(19) 1_555 . -6_556 n
O2 Ho1 O2 82.65(19) 6_555 . -1_556 n
O2 Ho1 O2 180.0 6_555 . -6_556 n
O2 Ho1 O2 97.35(19) -1_556 . -6_556 n
Ho1 Ho2 Ho1 90.0 1_555 . 2_555 n
Ho1 Ho2 Ho1 180.0 1_555 . 3_555 n
Ho1 Ho2 Ho1 90.0 1_555 . 4_555 n
Ho1 Ho2 O2 37.04(10) 1_555 . 1_555 n
Ho1 Ho2 O2 108.40(8) 1_555 . 2_555 n
Ho1 Ho2 O2 142.96(10) 1_555 . 3_555 n
Ho1 Ho2 O2 71.60(8) 1_555 . 4_555 n
Ho1 Ho2 O2 108.40(8) 1_555 . -5_456 n
Ho1 Ho2 O2 37.04(10) 1_555 . -6_556 n
Ho1 Ho2 O2 71.60(8) 1_555 . -7_546 n
Ho1 Ho2 O2 142.96(10) 1_555 . -8_556 n
Ho1 Ho2 Ho1 90.0 2_555 . 3_555 n
Ho1 Ho2 Ho1 180.0 2_555 . 4_555 n
Ho1 Ho2 O2 71.60(8) 2_555 . 1_555 n
Ho1 Ho2 O2 37.04(10) 2_555 . 2_555 n
Ho1 Ho2 O2 108.40(8) 2_555 . 3_555 n
Ho1 Ho2 O2 142.96(10) 2_555 . 4_555 n
Ho1 Ho2 O2 142.96(10) 2_555 . -5_456 n
Ho1 Ho2 O2 108.40(8) 2_555 . -6_556 n
Ho1 Ho2 O2 37.04(10) 2_555 . -7_546 n
Ho1 Ho2 O2 71.60(8) 2_555 . -8_556 n
Ho1 Ho2 Ho1 90.0 3_555 . 4_555 n
Ho1 Ho2 O2 142.96(10) 3_555 . 1_555 n
Ho1 Ho2 O2 71.60(8) 3_555 . 2_555 n
Ho1 Ho2 O2 37.04(10) 3_555 . 3_555 n
Ho1 Ho2 O2 108.40(8) 3_555 . 4_555 n
Ho1 Ho2 O2 71.60(8) 3_555 . -5_456 n
Ho1 Ho2 O2 142.96(10) 3_555 . -6_556 n
Ho1 Ho2 O2 108.40(8) 3_555 . -7_546 n
Ho1 Ho2 O2 37.04(10) 3_555 . -8_556 n
Ho1 Ho2 O2 108.40(8) 4_555 . 1_555 n
Ho1 Ho2 O2 142.96(10) 4_555 . 2_555 n
Ho1 Ho2 O2 71.60(8) 4_555 . 3_555 n
Ho1 Ho2 O2 37.04(10) 4_555 . 4_555 n
Ho1 Ho2 O2 37.04(10) 4_555 . -5_456 n
Ho1 Ho2 O2 71.60(8) 4_555 . -6_556 n
Ho1 Ho2 O2 142.96(10) 4_555 . -7_546 n
Ho1 Ho2 O2 108.40(8) 4_555 . -8_556 n
O2 Ho2 O2 74.74(9) 1_555 . 2_555 n
O2 Ho2 O2 118.26(19) 1_555 . 3_555 n
O2 Ho2 O2 74.74(9) 1_555 . 4_555 n
O2 Ho2 O2 140.10(17) 1_555 . -5_456 n
O2 Ho2 O2 74.09(19) 1_555 . -6_556 n
O2 Ho2 O2 76.07(17) 1_555 . -7_546 n
O2 Ho2 O2 143.19(16) 1_555 . -8_556 n
O2 Ho2 O2 74.74(9) 2_555 . 3_555 n
O2 Ho2 O2 118.26(19) 2_555 . 4_555 n
O2 Ho2 O2 143.19(16) 2_555 . -5_456 n
O2 Ho2 O2 140.10(17) 2_555 . -6_556 n
O2 Ho2 O2 74.09(19) 2_555 . -7_546 n
O2 Ho2 O2 76.07(17) 2_555 . -8_556 n
O2 Ho2 O2 74.74(9) 3_555 . 4_555 n
O2 Ho2 O2 76.07(17) 3_555 . -5_456 n
O2 Ho2 O2 143.19(16) 3_555 . -6_556 n
O2 Ho2 O2 140.10(17) 3_555 . -7_546 n
O2 Ho2 O2 74.09(19) 3_555 . -8_556 n
O2 Ho2 O2 74.09(19) 4_555 . -5_456 n
O2 Ho2 O2 76.07(17) 4_555 . -6_556 n
O2 Ho2 O2 143.19(16) 4_555 . -7_546 n
O2 Ho2 O2 140.10(17) 4_555 . -8_556 n
O2 Ho2 O2 74.74(9) -5_456 . -6_556 n
O2 Ho2 O2 118.26(19) -5_456 . -7_546 n
O2 Ho2 O2 74.74(9) -5_456 . -8_556 n
O2 Ho2 O2 74.74(9) -6_556 . -7_546 n
O2 Ho2 O2 118.26(19) -6_556 . -8_556 n
O2 Ho2 O2 74.74(9) -7_546 . -8_556 n
O1 GE O1 106.04(32) 4_554 . -1_666 n
O1 GE O2 108.99(23) 4_554 . 4_655 n
O1 GE O2 104.83(20) 4_554 . -6_655 n
O1 GE O2 104.84(20) -1_666 . 4_655 n
O1 GE O2 108.99(23) -1_666 . -6_655 n
O2 GE O2 122.20(27) 4_655 . -6_655 n
Ho1 O1 GE 109.61(17) 1_565 . 2_556 n
Ho1 O1 GE 109.60(17) 1_565 . 5_656 n
GE O1 GE 125.22(28) 2_556 . 5_656 n
Mn O2 Ho1 0.0 1_555 . 1_555 n
Mn O2 Ho2 101.63(15) 1_555 . 1_555 n
Mn O2 GE 129.80(21) 1_555 . 2_545 n
Ho1 O2 Ho2 101.63(15) 1_555 . 1_555 n
Ho1 O2 GE 129.80(21) 1_555 . 2_545 n
Ho2 O2 GE 126.99(21) 1_555 . 2_545 n
loop_
_geom_bond_atom_site_label_1
_geom_bond_atom_site_label_2
_geom_bond_distance
_geom_bond_site_symmetry_1
_geom_bond_site_symmetry_2
_geom_bond_publ_flag
Mn O1 2.479(5) . 1_545 n
Mn O1 2.479(5) . -1_566 n
Mn O2 2.152(4) . 1_555 n
Mn O2 2.152(4) . 6_555 n
Mn O2 2.152(4) . -1_556 n
Mn O2 2.152(4) . -6_556 n
Ho1 Ho2 3.498640(20) . 1_555 n
Ho1 Ho2 3.498640(20) . 5_545 n
Ho1 GE 3.51584(6) . 1_455 n
Ho1 GE 3.51584(6) . 1_456 n
Ho1 GE 3.51584(6) . 2_545 n
Ho1 GE 3.51584(6) . 2_546 n
Ho1 GE 3.51584(6) . 5_645 n
Ho1 GE 3.51584(6) . 5_646 n
Ho1 GE 3.51584(6) . 6_565 n
Ho1 GE 3.51584(6) . 6_566 n
Ho1 O1 2.479(5) . 1_545 n
Ho1 O1 2.479(5) . -1_566 n
Ho1 O2 2.152(4) . 1_555 n
Ho1 O2 2.152(4) . 6_555 n
Ho1 O2 2.152(4) . -1_556 n
Ho1 O2 2.152(4) . -6_556 n
Ho2 Ho1 3.498640(20) . 1_555 n
Ho2 Ho1 3.498640(20) . 2_555 n
Ho2 Ho1 3.498640(20) . 3_555 n
Ho2 Ho1 3.498640(20) . 4_555 n
Ho2 O2 2.359(4) . 1_555 n
Ho2 O2 2.359(4) . 2_555 n
Ho2 O2 2.359(4) . 3_555 n
Ho2 O2 2.359(4) . 4_555 n
Ho2 O2 2.359(4) . -5_556 n
Ho2 O2 2.359(4) . -6_556 n
Ho2 O2 2.359(4) . -7_556 n
Ho2 O2 2.359(4) . -8_556 n
GE Ho1 3.51584(6) . 1_654 n
GE Ho1 3.51584(6) . 1_655 n
GE Ho1 3.51584(6) . 4_654 n
GE Ho1 3.51584(6) . 4_655 n
GE O1 1.7968(22) . 4_554 n
GE O1 1.7968(22) . -1_666 n
GE O2 1.725(4) . 4_655 n
GE O2 1.725(4) . -6_655 n
O1 Mn 2.479(5) . 1_565 n
O1 Ho1 2.479(5) . 1_565 n
O1 GE 1.7968(22) . 2_556 n
O1 GE 1.7968(22) . 5_656 n
O2 Mn 2.152(4) . 1_555 n
O2 Ho1 2.152(4) . 1_555 n
O2 Ho2 2.359(4) . 1_555 n
O2 GE 1.725(4) . 2_545 n
loop_
_pd_meas_counts_total
_pd_proc_ls_weight
_pd_proc_intensity_bkg_calc
_pd_calc_intensity_total
5864.0 0.0001705 5836.27539 5836.27588
5903.0 0.0001694 5836.89844 5836.89893
5773.0 0.0001732 5837.37744 5837.37793
5806.0 0.0001722 5837.70605 5837.70557
5843.0 0.0001711 5837.87891 5837.87891
5852.0 0.0001709 5837.89111 5837.88867
5859.0 0.0001707 5837.73975 5837.74072
5884.0 0.0001700 5837.42188 5837.42188
5896.0 0.0001696 5836.93506 5836.93506
5790.0 0.0001727 5836.27930 5836.27979
5770.0 0.0001733 5835.45313 5835.45361
5807.0 0.0001722 5834.45703 5834.45703
5943.0 0.0001683 5833.29053 5833.29004
5612.0 0.0001782 5831.95557 5831.95605
5919.0 0.0001689 5830.45410 5830.45166
5864.0 0.0001705 5828.78662 5828.78662
5769.0 0.0001733 5826.95752 5826.95752
5730.0 0.0001745 5824.96729 5824.96777
5934.0 0.0001685 5822.82031 5822.82031
5811.0 0.0001721 5820.51953 5820.52002
5796.0 0.0001725 5818.06836 5818.06787
5828.0 0.0001716 5815.47021 5815.46973
5890.0 0.0001698 5812.72949 5812.72900
5787.0 0.0001728 5809.85010 5809.85010
5759.0 0.0001736 5806.83643 5806.83594
5844.0 0.0001711 5803.69189 5803.69336
5742.0 0.0001742 5800.42236 5800.42236
5788.0 0.0001728 5797.03076 5797.03174
5868.0 0.0001704 5793.52295 5793.52148
5750.0 0.0001739 5789.90283 5789.90430
5917.0 0.0001690 5786.17529 5786.17578
5792.0 0.0001727 5782.34473 5782.34473
5671.0 0.0001763 5778.41504 5778.41455
5761.0 0.0001736 5774.39209 5774.39307
5700.0 0.0001754 5770.27979 5770.27930
5845.0 0.0001711 5766.08301 5766.08447
5911.0 0.0001692 5761.80518 5761.80420
5714.0 0.0001750 5757.45166 5757.45361
5745.0 0.0001741 5753.02637 5753.02686
5738.0 0.0001743 5748.53369 5748.53467
5632.0 0.0001776 5743.97754 5743.97852
5756.0 0.0001737 5739.36230 5739.36230
5733.0 0.0001744 5734.69141 5734.69141
5764.0 0.0001735 5729.96924 5729.96826
5738.0 0.0001743 5725.19922 5725.19873
5742.0 0.0001742 5720.38525 5720.38525
5644.0 0.0001772 5715.53027 5715.53076
5656.0 0.0001768 5710.63916 5710.63867
5806.0 0.0001722 5705.71338 5705.71387
5678.0 0.0001761 5700.75635 5700.75537
5652.0 0.0001769 5695.77295 5695.77295
5699.0 0.0001755 5690.76416 5690.76318
5634.0 0.0001775 5685.73340 5685.73291
5691.0 0.0001757 5680.68359 5680.68408
5772.0 0.0001733 5675.61719 5675.61719
5583.0 0.0001791 5670.53711 5670.53711
5669.0 0.0001764 5665.44434 5665.44482
5573.0 0.0001794 5660.34277 5660.34375
5735.0 0.0001744 5655.23340 5655.23291
5611.0 0.0001782 5650.11865 5650.11816
5628.0 0.0001777 5645.00000 5644.99854
5694.0 0.0001756 5639.87988 5639.87939
5691.0 0.0001757 5634.75977 5634.75879
5664.0 0.0001766 5629.64063 5629.64063
5667.0 0.0001765 5624.52441 5624.52490
5647.0 0.0001771 5619.41211 5619.41113
5616.0 0.0001781 5614.30566 5614.30566
5624.0 0.0001778 5609.20605 5609.20459
5709.0 0.0001752 5604.11328 5604.11182
5612.0 0.0001782 5599.02979 5599.03027
5508.0 0.0001816 5593.95557 5593.95508
5531.0 0.0001808 5588.89160 5588.89160
5750.0 0.0001739 5583.83838 5583.83838
5547.0 0.0001803 5578.79688 5578.79541
5417.0 0.0001846 5573.76807 5573.76758
5564.0 0.0001797 5568.75098 5568.75146
5566.0 0.0001797 5563.74805 5563.74707
5472.0 0.0001827 5558.75781 5558.75684
5664.0 0.0001766 5553.78125 5553.78125
5560.0 0.0001799 5548.81885 5548.81641
5544.0 0.0001804 5543.87061 5543.87061
5704.0 0.0001753 5538.93604 5538.93555
5540.0 0.0001805 5534.01611 5534.01563
5571.0 0.0001795 5529.11084 5529.11035
5490.0 0.0001821 5524.21924 5524.21875
5559.0 0.0001799 5519.34180 5519.34180
5472.0 0.0001827 5514.47900 5514.47754
5449.0 0.0001835 5509.62939 5509.62842
5444.0 0.0001837 5504.79395 5504.79492
5548.0 0.0001802 5499.97168 5499.97168
5507.0 0.0001816 5495.16260 5495.16211
5499.0 0.0001819 5490.36719 5490.36719
5426.0 0.0001843 5485.58398 5485.58301
5425.0 0.0001843 5480.81348 5480.81104
5390.0 0.0001855 5476.05469 5476.05566
5500.0 0.0001818 5471.30762 5471.30713
5426.0 0.0001843 5466.57178 5466.57275
5575.0 0.0001794 5461.84717 5461.84717
5403.0 0.0001851 5457.13330 5457.13232
5485.0 0.0001823 5452.42871 5452.42920
5380.0 0.0001859 5447.73535 5447.73633
5486.0 0.0001823 5443.05029 5443.04932
5467.0 0.0001829 5438.37451 5438.37500
5431.0 0.0001841 5433.70752 5433.70752
5546.0 0.0001803 5429.04834 5429.04736
5458.0 0.0001832 5424.39746 5424.39697
5379.0 0.0001859 5419.75342 5419.75342
5464.0 0.0001830 5415.11719 5415.11768
5344.0 0.0001871 5410.48682 5410.48633
5387.0 0.0001856 5405.86328 5405.86279
5514.0 0.0001814 5401.24561 5401.24463
5367.0 0.0001863 5396.63330 5396.63184
5363.0 0.0001865 5392.02637 5392.02441
5363.0 0.0001865 5387.42432 5387.42383
5242.0 0.0001908 5382.82666 5382.82617
5353.0 0.0001868 5378.23389 5378.23438
5413.0 0.0001847 5373.64453 5373.64453
5230.0 0.0001912 5369.05957 5369.05859
5395.0 0.0001854 5364.47803 5364.47754
5285.0 0.0001892 5359.89941 5359.90088
5294.0 0.0001889 5355.32471 5355.32422
5284.0 0.0001893 5350.75244 5350.75391
5403.0 0.0001851 5346.18359 5346.18262
5404.0 0.0001850 5341.61670 5341.61621
5315.0 0.0001881 5337.05322 5337.05273
5325.0 0.0001878 5332.49121 5332.49170
5444.0 0.0001837 5327.93213 5327.93213
5254.0 0.0001903 5323.37549 5323.37500
5306.0 0.0001885 5318.82080 5318.82129
5389.0 0.0001856 5314.26904 5314.26904
5358.0 0.0001866 5309.71875 5309.71826
5259.0 0.0001902 5305.17139 5305.17090
5332.0 0.0001875 5300.62646 5300.62500
5291.0 0.0001890 5296.08350 5296.08398
5358.0 0.0001866 5291.54346 5291.54346
5230.0 0.0001912 5287.00586 5287.00635
5266.0 0.0001899 5282.47168 5282.47070
5329.0 0.0001877 5277.93994 5277.93701
5257.0 0.0001902 5273.41113 5273.41064
5214.0 0.0001918 5268.88623 5268.88428
5238.0 0.0001909 5264.36426 5264.36328
5327.0 0.0001877 5259.84717 5259.84766
5297.0 0.0001888 5255.33301 5255.33057
5272.0 0.0001897 5250.82373 5250.82568
5321.0 0.0001879 5246.31934 5246.31885
5209.0 0.0001920 5241.81934 5241.81934
5252.0 0.0001904 5237.32520 5237.32568
5301.0 0.0001886 5232.83643 5232.83838
5252.0 0.0001904 5228.35352 5228.35352
5231.0 0.0001912 5223.87695 5223.87695
5215.0 0.0001918 5219.40723 5219.40723
5143.0 0.0001944 5214.94482 5214.94580
5200.0 0.0001923 5210.48975 5210.48975
5148.0 0.0001943 5206.04248 5206.04248
5166.0 0.0001936 5201.60400 5201.60303
5149.0 0.0001942 5197.17432 5197.17529
5230.0 0.0001912 5192.75391 5192.75293
5362.0 0.0001865 5188.34326 5188.34131
5225.0 0.0001914 5183.94336 5183.94336
5258.0 0.0001902 5179.55371 5179.55322
5102.0 0.0001960 5175.17578 5175.17627
5120.0 0.0001953 5170.80908 5170.80762
5130.0 0.0001949 5166.45459 5166.45313
5212.0 0.0001919 5162.11328 5162.11426
5194.0 0.0001925 5157.78516 5157.78613
5073.0 0.0001971 5153.47119 5153.47070
5193.0 0.0001926 5149.17139 5149.17236
5071.0 0.0001972 5144.88623 5144.88477
5182.0 0.0001930 5140.61719 5140.61719
5204.0 0.0001922 5136.36328 5136.36377
5194.0 0.0001925 5132.12646 5132.12549
5026.0 0.0001990 5127.90625 5127.90674
5071.0 0.0001972 5123.70410 5123.70410
5113.0 0.0001956 5119.51953 5119.52051
5174.0 0.0001933 5115.35400 5115.35449
5169.0 0.0001935 5111.20703 5111.20605
5140.0 0.0001946 5107.07959 5107.08057
5088.0 0.0001965 5102.97314 5102.97363
5189.0 0.0001927 5098.88672 5098.88672
5170.0 0.0001934 5094.82178 5094.82178
5104.0 0.0001959 5090.77832 5090.77783
5160.0 0.0001938 5086.75684 5086.75635
5014.0 0.0001994 5082.75830 5082.75879
5110.0 0.0001957 5078.78271 5078.78369
5089.0 0.0001965 5074.83057 5074.83105
5026.0 0.0001990 5070.90283 5070.90381
5038.0 0.0001985 5066.99902 5066.99805
5038.0 0.0001985 5063.12109 5063.12109
5134.0 0.0001948 5059.26709 5059.26660
5127.0 0.0001950 5055.43994 5055.43994
4989.0 0.0002004 5051.63818 5051.63770
5016.0 0.0001994 5047.86328 5047.86328
5055.0 0.0001978 5044.11475 5044.11523
4938.0 0.0002025 5040.39355 5040.39355
5057.0 0.0001977 5036.70020 5036.70068
4962.0 0.0002015 5033.03467 5033.03467
5194.0 0.0001925 5029.39746 5029.39746
4907.0 0.0002038 5025.78809 5025.78809
5005.0 0.0001998 5022.20801 5022.20605
5098.0 0.0001962 5018.65674 5018.65527
5043.0 0.0001983 5015.13477 5015.13477
5040.0 0.0001984 5011.64209 5011.64355
4969.0 0.0002012 5008.17920 5008.17725
4994.0 0.0002002 5004.74658 5004.74756
5008.0 0.0001997 5001.34375 5001.34326
4838.0 0.0002067 4997.97070 4997.97119
4940.0 0.0002024 4994.62891 4994.62891
5020.0 0.0001992 4991.31689 4991.31738
4904.0 0.0002039 4988.03613 4988.03613
5099.0 0.0001961 4984.78564 4984.78564
4872.0 0.0002053 4981.56543 4981.56592
4924.0 0.0002031 4978.37695 4978.37598
4966.0 0.0002014 4975.21875 4975.21924
4964.0 0.0002015 4972.09131 4972.09229
4834.0 0.0002069 4968.99463 4968.99561
4793.0 0.0002086 4965.92920 4965.92920
5016.0 0.0001994 4962.89404 4962.89551
4981.0 0.0002008 4959.88965 4959.88916
4967.0 0.0002013 4956.91602 4956.91553
4863.0 0.0002056 4953.97266 4953.97168
4988.0 0.0002005 4951.05957 4951.05908
4918.0 0.0002033 4948.17676 4948.17676
4989.0 0.0002004 4945.32373 4945.32324
4951.0 0.0002020 4942.50049 4942.50146
4937.0 0.0002026 4939.70703 4939.70752
4863.0 0.0002056 4936.94287 4936.94189
4913.0 0.0002035 4934.20801 4934.20605
4944.0 0.0002023 4931.50146 4931.50146
4872.0 0.0002053 4928.82422 4928.82471
4918.0 0.0002033 4926.17480 4926.17432
4934.0 0.0002027 4923.55322 4923.55371
4986.0 0.0002006 4920.95947 4920.95898
4903.0 0.0002040 4918.39258 4918.39209
4875.0 0.0002051 4915.85303 4915.85400
4972.0 0.0002011 4913.33936 4913.34082
4889.0 0.0002045 4910.85205 4910.85254
4917.0 0.0002034 4908.39014 4908.39014
4919.0 0.0002033 4905.95410 4905.95361
4728.0 0.0002115 4903.54199 4903.54102
4899.0 0.0002041 4901.15430 4901.15430
4929.0 0.0002029 4898.79004 4898.79004
4868.0 0.0002054 4896.44922 4896.44824
4885.0 0.0002047 4894.13086 4894.13086
4905.0 0.0002039 4891.83447 4891.83398
4855.0 0.0002060 4889.55957 4889.56006
4932.0 0.0002028 4887.30615 4887.30664
4778.0 0.0002093 4885.07227 4885.07227
4989.0 0.0002004 4882.85889 4882.85986
4912.0 0.0002036 4880.66455 4880.66553
4759.0 0.0002101 4878.48828 4878.48779
4888.0 0.0002046 4876.33008 4876.32959
4880.0 0.0002049 4874.18848 4874.18945
4926.0 0.0002030 4872.06445 4872.06445
4798.0 0.0002084 4869.95508 4869.95508
4834.0 0.0002069 4867.86133 4867.86084
4990.0 0.0002004 4865.78223 4865.78125
4822.0 0.0002074 4863.71680 4863.71680
4892.0 0.0002044 4861.66357 4861.66406
4931.0 0.0002028 4859.62305 4859.62207
4899.0 0.0002041 4857.59424 4857.59473
4686.0 0.0002134 4855.57568 4855.57617
4774.0 0.0002095 4853.56689 4853.56787
4921.0 0.0002032 4851.56738 4851.56738
4982.0 0.0002007 4849.57666 4849.57373
4940.0 0.0002024 4847.59326 4847.59375
4827.0 0.0002072 4845.61621 4845.61670
4853.0 0.0002061 4843.64551 4843.64502
4898.0 0.0002042 4841.68018 4841.67773
4851.0 0.0002061 4839.71924 4839.71777
4980.0 0.0002008 4837.76123 4837.76074
4889.0 0.0002045 4835.80615 4835.80615
4910.0 0.0002037 4833.85303 4833.85352
4883.0 0.0002048 4831.90088 4831.89941
4839.0 0.0002067 4829.94873 4829.94873
4792.0 0.0002087 4827.99609 4827.99561
4963.0 0.0002015 4826.04150 4826.04053
4839.0 0.0002067 4824.08545 4824.08545
4938.0 0.0002025 4822.12598 4822.12695
4879.0 0.0002050 4820.16211 4820.16211
4919.0 0.0002033 4818.19336 4818.19385
4816.0 0.0002076 4816.21924 4816.22021
4836.0 0.0002068 4814.23828 4814.23877
4810.0 0.0002079 4812.25000 4812.25000
4819.0 0.0002075 4810.25391 4810.25342
4957.0 0.0002017 4808.24805 4808.24756
4934.0 0.0002027 4806.23291 4806.23291
4833.0 0.0002069 4804.20605 4804.20801
4719.0 0.0002119 4802.16846 4802.16650
4773.0 0.0002095 4800.11816 4800.11865
4797.0 0.0002085 4798.05420 4798.05371
4737.0 0.0002111 4795.97656 4795.97705
4784.0 0.0002090 4793.88379 4793.88525
4711.0 0.0002123 4791.77539 4791.77588
4773.0 0.0002095 4789.65088 4789.65137
4835.0 0.0002068 4787.50879 4787.50879
4709.0 0.0002124 4785.34863 4785.34863
4750.0 0.0002105 4783.16943 4783.16846
4879.0 0.0002050 4780.97070 4780.97119
4764.0 0.0002099 4778.75146 4778.75146
4806.0 0.0002081 4776.51123 4776.51123
4720.0 0.0002119 4774.24854 4774.25000
4793.0 0.0002086 4771.96338 4771.96289
4716.0 0.0002120 4769.65527 4769.65527
4824.0 0.0002073 4767.32227 4767.32373
4775.0 0.0002094 4764.96484 4764.96533
4701.0 0.0002127 4762.58154 4762.58252
4890.0 0.0002045 4760.17188 4760.17236
4855.0 0.0002060 4757.73584 4757.73682
4852.0 0.0002061 4755.27148 4755.27246
4761.0 0.0002100 4752.77881 4752.77783
4732.0 0.0002113 4750.25781 4750.25879
4703.0 0.0002126 4747.70654 4747.70557
4667.0 0.0002143 4745.12549 4745.12744
5009.0 0.0001996 4742.51367 4742.51465
4790.0 0.0002088 4739.87012 4739.87158
4669.0 0.0002142 4737.19482 4737.19531
4764.0 0.0002099 4734.48682 4734.48633
4793.0 0.0002086 4731.74561 4731.74609
4827.0 0.0002072 4728.97070 4728.97168
4871.0 0.0002053 4726.16162 4726.16162
4754.0 0.0002103 4723.31787 4723.31738
4690.0 0.0002132 4720.43896 4720.43994
4740.0 0.0002110 4717.52393 4717.52490
4757.0 0.0002102 4714.57275 4714.57471
4833.0 0.0002069 4711.58545 4711.58545
4517.0 0.0002214 4708.56006 4708.56104
4578.0 0.0002184 4705.49805 4705.49707
4701.0 0.0002127 4702.39795 4702.39746
4637.0 0.0002157 4699.25928 4699.25928
4762.0 0.0002100 4696.08252 4696.08301
4717.0 0.0002120 4692.86572 4692.86719
4639.0 0.0002156 4689.61035 4689.61133
4790.0 0.0002088 4686.31494 4686.31445
4607.0 0.0002171 4682.97949 4682.97998
4599.0 0.0002174 4679.60400 4679.60400
4537.0 0.0002204 4676.18750 4676.18652
4595.0 0.0002176 4672.73047 4672.72998
4657.0 0.0002147 4669.23193 4669.23242
4792.0 0.0002087 4665.69238 4673.10596
4704.0 0.0002126 4662.11133 4669.86182
4648.0 0.0002151 4658.48877 4666.60059
4593.0 0.0002177 4654.82422 4663.32324
4646.0 0.0002152 4651.11719 4660.03418
4675.0 0.0002139 4647.36865 4656.73291
4693.0 0.0002131 4643.57715 4653.42529
4556.0 0.0002195 4639.74414 4650.11328
4555.0 0.0002195 4635.86768 4646.80078
4589.0 0.0002179 4631.94971 4643.49170
4605.0 0.0002172 4627.98828 4640.19482
4596.0 0.0002176 4623.98486 4636.91260
4602.0 0.0002173 4619.93848 4633.65479
4569.0 0.0002189 4615.84912 4630.42676
4443.0 0.0002251 4611.71777 4627.24268
4457.0 0.0002244 4607.54395 4624.10791
4585.0 0.0002181 4603.32764 4621.03906
4504.0 0.0002220 4599.06885 4618.05420
4576.0 0.0002185 4594.76758 4615.16357
4665.0 0.0002144 4590.42383 4612.39795
4505.0 0.0002220 4586.03906 4609.77881
4483.0 0.0002231 4581.61133 4607.33594
4413.0 0.0002266 4577.14258 4605.11328
4524.0 0.0002210 4572.63184 4603.15430
4478.0 0.0002233 4568.08008 4601.51611
4624.0 0.0002163 4563.48682 4600.27393
4513.0 0.0002216 4558.85303 4599.51758
4531.0 0.0002207 4554.17822 4599.36182
4375.0 0.0002286 4549.46289 4599.95850
4486.0 0.0002229 4544.70801 4601.49756
4552.0 0.0002197 4539.91260 4604.23975
4618.0 0.0002165 4535.07861 4608.52441
4703.0 0.0002126 4530.20459 4614.83350
4767.0 0.0002098 4525.29199 4623.83154
4734.0 0.0002112 4520.34131 4636.55518
4872.0 0.0002053 4515.35205 4654.94092
5066.0 0.0001974 4510.32568 4683.72754
5322.0 0.0001879 4505.26172 4736.45996
5620.0 0.0001779 4500.16064 4850.34668
5980.0 0.0001672 4495.02344 5112.30029
6549.0 0.0001527 4489.85010 5681.35352
7350.0 0.0001361 4484.64160 6761.98096
8462.0 0.0001182 4479.39795 8476.28418
9932.0 0.0001007 4474.12012 10655.83887
11771.0 0.0000850 4468.80762 12696.24805
13202.0 0.0000757 4463.46191 13694.99902
12788.0 0.0000782 4458.08350 13058.68066
11050.0 0.0000905 4452.67236 11152.27441
8858.0 0.0001129 4447.22949 8906.23242
6977.0 0.0001433 4441.75586 7034.83643
5728.0 0.0001746 4436.25049 5801.88770
5088.0 0.0001965 4430.71631 5129.18018
4737.0 0.0002111 4425.15186 4810.02979
4647.0 0.0002152 4419.55908 4666.41357
4626.0 0.0002162 4413.93750 4595.94043
4445.0 0.0002250 4408.28906 4553.64258
4518.0 0.0002213 4402.61328 4523.13184
4410.0 0.0002268 4396.91162 4498.81250
4384.0 0.0002281 4391.18408 4478.49609
4337.0 0.0002306 4385.43213 4461.05371
4356.0 0.0002296 4379.65576 4445.76709
4369.0 0.0002289 4373.85596 4432.12891
4400.0 0.0002273 4368.03320 4419.77490
4412.0 0.0002267 4362.18848 4408.42871
4341.0 0.0002304 4356.32275 4397.89063
4357.0 0.0002295 4350.43701 4388.00293
4395.0 0.0002275 4344.53076 4378.64063
4245.0 0.0002356 4338.60547 4369.71582
4320.0 0.0002315 4332.66260 4361.14990
4258.0 0.0002349 4326.70166 4352.88135
4383.0 0.0002282 4320.72461 4344.86865
4290.0 0.0002331 4314.73096 4337.06494
4225.0 0.0002367 4308.72314 4329.44043
4266.0 0.0002344 4302.70020 4321.97217
4241.0 0.0002358 4296.66406 4314.63770
4341.0 0.0002304 4290.61523 4307.41455
4184.0 0.0002390 4284.55469 4300.29297
4217.0 0.0002371 4278.48340 4293.25732
4136.0 0.0002418 4272.40137 4286.29541
4204.0 0.0002379 4266.31006 4279.40137
4171.0 0.0002398 4260.21045 4272.56641
4253.0 0.0002351 4254.10303 4265.78223
4225.0 0.0002367 4247.98877 4259.04736
4220.0 0.0002370 4241.86865 4252.35596
4244.0 0.0002356 4235.74316 4245.70020
4142.0 0.0002414 4229.61328 4239.07959
4199.0 0.0002382 4223.48096 4232.49219
4151.0 0.0002409 4217.34473 4225.93066
4051.0 0.0002469 4211.20703 4219.40039
4224.0 0.0002367 4205.06934 4212.89404
4214.0 0.0002373 4198.93066 4206.41162
4245.0 0.0002356 4192.79395 4192.79395
4259.0 0.0002348 4186.65771 4186.65869
4115.0 0.0002430 4180.52490 4180.52393
4113.0 0.0002431 4174.39551 4174.39648
4172.0 0.0002397 4168.27002 4168.27148
4051.0 0.0002469 4162.14990 4162.14990
4114.0 0.0002431 4156.03613 4156.03516
4235.0 0.0002361 4149.92871 4149.92871
4138.0 0.0002417 4143.82959 4143.83057
4165.0 0.0002401 4137.73877 4137.73779
3994.0 0.0002504 4131.65771 4131.65820
4036.0 0.0002478 4125.58643 4125.58740
4131.0 0.0002421 4119.52734 4119.52637
4147.0 0.0002411 4113.47900 4113.47949
4125.0 0.0002424 4107.44434 4107.44287
4045.0 0.0002472 4101.42334 4101.42285
3943.0 0.0002536 4095.41675 4095.41675
3942.0 0.0002537 4089.42554 4089.42725
4017.0 0.0002489 4083.45044 4083.44995
4010.0 0.0002494 4077.49243 4077.49194
3956.0 0.0002528 4071.55249 4071.55371
3987.0 0.0002508 4065.63086 4065.63086
4048.0 0.0002470 4059.72900 4059.72949
3998.0 0.0002501 4053.84741 4053.84668
4040.0 0.0002475 4047.98657 4047.98682
4103.0 0.0002437 4042.14844 4042.14893
4104.0 0.0002437 4036.33203 4036.33203
4092.0 0.0002444 4030.53979 4030.54028
3994.0 0.0002504 4024.77124 4024.77173
4066.0 0.0002459 4019.02808 4019.02905
3942.0 0.0002537 4013.31030 4013.31079
3913.0 0.0002556 4007.61938 4007.61987
4037.0 0.0002477 4001.95557 4001.95581
4059.0 0.0002464 3996.31982 3996.31982
4011.0 0.0002493 3990.71265 3990.71216
4068.0 0.0002458 3985.13501 3985.13501
4056.0 0.0002465 3979.58740 3979.58716
3913.0 0.0002556 3974.07104 3974.07202
3932.0 0.0002543 3968.58569 3968.58594
3914.0 0.0002555 3963.13306 3963.13257
3953.0 0.0002530 3957.71313 3957.71240
3979.0 0.0002513 3952.32715 3952.32666
3840.0 0.0002604 3946.97461 3946.97534
4048.0 0.0002470 3941.65796 3941.65845
3969.0 0.0002520 3936.37598 3936.37549
3978.0 0.0002514 3931.13062 3931.13135
3955.0 0.0002528 3925.92212 3925.92212
3914.0 0.0002555 3920.75073 3920.75000
3886.0 0.0002573 3915.61743 3915.61743
3969.0 0.0002520 3910.52295 3910.52319
3985.0 0.0002509 3905.46753 3905.46680
3893.0 0.0002569 3900.45190 3900.45215
4039.0 0.0002476 3895.47656 3895.47559
3988.0 0.0002508 3890.54175 3890.54175
3800.0 0.0002632 3885.64893 3885.64893
3960.0 0.0002525 3880.79761 3880.79736
3873.0 0.0002582 3875.98901 3875.98901
3972.0 0.0002518 3871.22290 3871.22192
3764.0 0.0002657 3866.50049 3866.50024
4063.0 0.0002461 3861.82178 3861.82178
4051.0 0.0002469 3857.18774 3857.18774
4005.0 0.0002497 3852.59814 3852.59790
4007.0 0.0002496 3848.05371 3848.05322
4183.0 0.0002391 3843.55542 3843.55420
4169.0 0.0002399 3839.10278 3839.10205
4128.0 0.0002422 3834.69678 3834.69678
4057.0 0.0002465 3830.33740 3830.33716
4072.0 0.0002456 3826.02539 3826.02490
3926.0 0.0002547 3821.76123 3821.76123
3841.0 0.0002603 3817.54492 3817.54492
3806.0 0.0002627 3813.37695 3813.37695
3780.0 0.0002646 3809.25732 3809.25732
3788.0 0.0002640 3805.18652 3805.18604
3878.0 0.0002579 3801.16577 3801.16528
3921.0 0.0002550 3797.19385 3797.19336
3931.0 0.0002544 3793.27197 3793.27222
3800.0 0.0002632 3789.40015 3789.40015
3881.0 0.0002577 3785.57861 3785.57910
3889.0 0.0002571 3781.80762 3781.80786
3861.0 0.0002590 3778.08716 3778.08691
3698.0 0.0002704 3774.41797 3774.41797
3719.0 0.0002689 3770.79980 3770.79956
3794.0 0.0002636 3767.23315 3767.23291
3812.0 0.0002623 3763.71802 3763.71802
3874.0 0.0002581 3760.25415 3760.25439
3756.0 0.0002662 3756.84253 3756.84253
3779.0 0.0002646 3753.48267 3753.48242
3724.0 0.0002685 3750.17505 3750.17480
3645.0 0.0002743 3746.91943 3746.91895
3776.0 0.0002648 3743.71606 3743.71606
3864.0 0.0002588 3740.56494 3740.56543
3727.0 0.0002683 3737.46631 3737.46509
3760.0 0.0002660 3734.42017 3734.41895
3753.0 0.0002665 3731.42627 3731.42651
3854.0 0.0002595 3728.48511 3728.48413
3750.0 0.0002667 3725.59619 3725.59497
3653.0 0.0002737 3722.75977 3722.76050
3630.0 0.0002755 3719.97607 3719.97632
3824.0 0.0002615 3717.24463 3717.24512
3711.0 0.0002695 3714.56567 3714.56543
3787.0 0.0002641 3711.93896 3711.93799
3714.0 0.0002693 3709.36450 3709.36426
3734.0 0.0002678 3706.84253 3706.84180
3691.0 0.0002709 3704.37231 3704.37231
3767.0 0.0002655 3701.95435 3701.95435
3730.0 0.0002681 3699.58789 3699.58740
3655.0 0.0002736 3697.27368 3697.27319
3776.0 0.0002648 3695.01050 3695.01074
3767.0 0.0002655 3692.79932 3692.79858
3775.0 0.0002649 3690.63892 3690.63843
3797.0 0.0002634 3688.52979 3688.53003
3753.0 0.0002665 3686.47168 3686.47119
3739.0 0.0002675 3684.46411 3684.46387
3707.0 0.0002698 3682.50684 3682.50586
3851.0 0.0002597 3680.60010 3680.59937
3745.0 0.0002670 3678.74316 3678.74243
3733.0 0.0002679 3676.93628 3676.93604
3662.0 0.0002731 3675.17847 3675.17847
3714.0 0.0002693 3673.46997 3673.46997
3688.0 0.0002711 3671.81030 3671.81030
3705.0 0.0002699 3670.19946 3670.19971
3758.0 0.0002661 3668.63672 3668.63599
3783.0 0.0002643 3667.12207 3667.12207
3618.0 0.0002764 3665.65479 3665.65479
3550.0 0.0002817 3664.23535 3664.23486
3683.0 0.0002715 3662.86279 3662.86279
3577.0 0.0002796 3661.53638 3661.53662
3715.0 0.0002692 3660.25635 3660.25635
3561.0 0.0002808 3659.02246 3659.02173
3833.0 0.0002609 3657.83350 3657.83350
3660.0 0.0002732 3656.68994 3656.68994
3555.0 0.0002813 3655.59082 3655.59033
3687.0 0.0002712 3654.53613 3654.53564
3610.0 0.0002770 3653.52490 3653.52515
3741.0 0.0002673 3652.55688 3652.55615
3546.0 0.0002820 3651.63184 3651.63135
3590.0 0.0002786 3650.74951 3650.74976
3664.0 0.0002729 3649.90894 3649.90869
3768.0 0.0002654 3649.10962 3649.10913
3635.0 0.0002751 3648.35156 3648.35059
3641.0 0.0002746 3647.63379 3647.63306
3615.0 0.0002766 3646.95581 3646.95508
3541.0 0.0002824 3646.31787 3646.31689
3672.0 0.0002723 3645.71826 3645.71802
3758.0 0.0002661 3645.15747 3645.15674
3590.0 0.0002786 3644.63428 3644.63330
3542.0 0.0002823 3644.14819 3644.14771
3553.0 0.0002815 3643.69946 3643.69922
3707.0 0.0002698 3643.28662 3643.28564
3582.0 0.0002792 3642.90942 3642.90869
3628.0 0.0002756 3642.56714 3642.56665
3569.0 0.0002802 3642.25952 3642.25977
3680.0 0.0002717 3641.98584 3641.98511
3532.0 0.0002831 3641.74536 3641.74390
3664.0 0.0002729 3641.53760 3641.53760
3692.0 0.0002709 3641.36206 3641.36108
3626.0 0.0002758 3641.21802 3641.21777
3516.0 0.0002844 3641.10474 3641.10449
3517.0 0.0002843 3641.02173 3641.02124
3591.0 0.0002785 3640.96851 3640.96777
3535.0 0.0002829 3640.94409 3640.94409
3526.0 0.0002836 3640.94824 3640.94702
3592.0 0.0002784 3640.97974 3640.97974
3595.0 0.0002782 3641.03857 3641.03784
3598.0 0.0002779 3641.12402 3641.12378
3524.0 0.0002838 3641.23486 3641.23462
3524.0 0.0002838 3641.37109 3641.37109
3560.0 0.0002809 3641.53149 3641.72144
3467.0 0.0002884 3641.71582 3641.91382
3605.0 0.0002774 3641.92334 3642.13037
3579.0 0.0002794 3642.15308 3642.36987
3625.0 0.0002759 3642.40479 3642.63208
3618.0 0.0002764 3642.67749 3644.43213
3562.0 0.0002807 3642.97046 3644.80591
3644.0 0.0002744 3643.28320 3645.20459
3526.0 0.0002836 3643.61475 3645.62866
3561.0 0.0002808 3643.96509 3646.07715
3562.0 0.0002807 3644.33252 3646.55151
3586.0 0.0002789 3644.71729 3647.05054
3590.0 0.0002786 3645.11792 3647.57593
3596.0 0.0002781 3645.53442 3648.12500
3605.0 0.0002774 3645.96582 3648.70190
3685.0 0.0002714 3646.41064 3649.30371
3551.0 0.0002816 3646.86963 3649.93555
3700.0 0.0002703 3647.34106 3650.59424
3624.0 0.0002759 3647.82446 3651.28320
3528.0 0.0002834 3648.31909 3652.00220
3524.0 0.0002838 3648.82446 3652.75684
3574.0 0.0002798 3649.33984 3653.54590
3646.0 0.0002743 3649.86426 3654.37476
3540.0 0.0002825 3650.39722 3655.24658
3504.0 0.0002854 3650.93774 3656.16577
3541.0 0.0002824 3651.48535 3657.13672
3652.0 0.0002738 3652.03955 3658.16968
3634.0 0.0002752 3652.59888 3659.27100
3583.0 0.0002791 3653.16382 3660.45386
3553.0 0.0002815 3653.73242 3661.73218
3629.0 0.0002756 3654.30493 3663.12207
3650.0 0.0002740 3654.88037 3664.64966
3585.0 0.0002789 3655.45728 3666.34131
3572.0 0.0002800 3656.03638 3668.24072
3643.0 0.0002745 3656.61572 3670.40015
3588.0 0.0002787 3657.19531 3672.89941
3494.0 0.0002862 3657.77417 3675.86768
3634.0 0.0002752 3658.35181 3679.58008
3615.0 0.0002766 3658.92749 3684.69678
3675.0 0.0002721 3659.50024 3692.77881
3457.0 0.0002893 3660.06958 3706.98999
3695.0 0.0002706 3660.63477 3732.28198
3846.0 0.0002600 3661.19531 3773.98657
3895.0 0.0002567 3661.75073 3834.88843
3957.0 0.0002527 3662.29980 3913.83301
4182.0 0.0002391 3662.84204 4010.04956
4329.0 0.0002310 3663.37695 4135.84619
4409.0 0.0002268 3663.90356 4328.59473
4536.0 0.0002205 3664.42139 4623.68604
4825.0 0.0002073 3664.93018 4994.29053
5129.0 0.0001950 3665.42871 5318.87256
5356.0 0.0001867 3665.91650 5420.14746
5135.0 0.0001947 3666.39307 5216.22314
4797.0 0.0002085 3666.85767 4821.21875
4308.0 0.0002321 3667.30957 4409.89160
4010.0 0.0002494 3667.74829 4091.38574
3832.0 0.0002610 3668.17310 3892.76074
3653.0 0.0002737 3668.58350 3788.74292
3708.0 0.0002697 3668.97876 3740.45166
3613.0 0.0002768 3669.35840 3718.58545
3564.0 0.0002806 3669.72192 3707.57007
3583.0 0.0002791 3670.06836 3700.89258
3640.0 0.0002747 3670.39722 3696.21240
3696.0 0.0002706 3670.70825 3692.68213
3652.0 0.0002738 3671.00049 3689.93237
3532.0 0.0002831 3671.27344 3687.75146
3518.0 0.0002843 3671.52710 3685.99487
3624.0 0.0002759 3671.76001 3684.56323
3564.0 0.0002806 3671.97192 3683.38037
3474.0 0.0002879 3672.16260 3682.39087
3611.0 0.0002769 3672.33130 3681.55420
3743.0 0.0002672 3672.47729 3680.83374
3699.0 0.0002703 3672.60059 3680.20850
3594.0 0.0002782 3672.70020 3679.65552
3576.0 0.0002796 3672.77563 3679.15820
3717.0 0.0002690 3672.82642 3678.70459
3673.0 0.0002723 3672.85205 3678.28345
3716.0 0.0002691 3672.85229 3677.88428
3699.0 0.0002703 3672.82642 3677.50220
3665.0 0.0002729 3672.77393 3677.13086
3571.0 0.0002800 3672.69434 3676.76294
3579.0 0.0002794 3672.58716 3676.39551
3638.0 0.0002749 3672.45239 3676.02417
3634.0 0.0002752 3672.28906 3675.64771
3694.0 0.0002707 3672.09668 3675.25830
3670.0 0.0002725 3671.87500 3674.85669
3700.0 0.0002703 3671.62402 3674.44092
3709.0 0.0002696 3671.34229 3674.00830
3653.0 0.0002737 3671.03052 3673.55737
3787.0 0.0002641 3670.68750 3673.08545
3733.0 0.0002679 3670.31323 3672.59204
3720.0 0.0002688 3669.90698 3671.88477
3645.0 0.0002743 3669.46875 3671.35205
3712.0 0.0002694 3668.99780 3670.79272
3740.0 0.0002674 3668.49414 3670.20825
3705.0 0.0002699 3667.95752 3669.59473
3670.0 0.0002725 3667.38696 3667.38745
3584.0 0.0002790 3666.78247 3666.78247
3721.0 0.0002687 3666.14380 3666.14404
3751.0 0.0002666 3665.47021 3665.47021
3680.0 0.0002717 3664.76221 3664.76294
3800.0 0.0002632 3664.01855 3664.01855
3761.0 0.0002659 3663.23975 3663.23901
3726.0 0.0002684 3662.42480 3662.42432
3749.0 0.0002667 3661.57373 3661.57471
3743.0 0.0002672 3660.68677 3660.68677
3856.0 0.0002593 3659.76245 3659.76294
3629.0 0.0002756 3658.80176 3658.80151
3792.0 0.0002637 3657.80347 3657.80298
3841.0 0.0002603 3656.76807 3656.76733
3880.0 0.0002577 3655.69507 3655.69531
3758.0 0.0002661 3654.58398 3654.58398
3801.0 0.0002631 3653.43481 3653.43530
3850.0 0.0002597 3652.24731 3652.24756
3700.0 0.0002703 3651.02148 3651.02100
3681.0 0.0002717 3649.75708 3649.75708
3805.0 0.0002628 3648.45337 3648.45337
3846.0 0.0002600 3647.11108 3647.10986
3727.0 0.0002683 3645.72925 3645.72900
3641.0 0.0002746 3644.30811 3644.30762
3821.0 0.0002617 3642.84741 3642.84766
3729.0 0.0002682 3641.34692 3641.34790
3810.0 0.0002625 3639.80713 3639.80811
3773.0 0.0002650 3638.22681 3638.22705
3673.0 0.0002723 3636.60693 3636.60718
3737.0 0.0002676 3634.94653 3634.94678
3694.0 0.0002707 3633.24585 3633.24585
3803.0 0.0002630 3631.50537 3631.50513
3807.0 0.0002627 3629.72388 3629.72437
3778.0 0.0002647 3627.90234 3627.90137
3740.0 0.0002674 3626.03979 3626.03979
3681.0 0.0002717 3624.13672 3624.13672
3739.0 0.0002675 3622.19336 3622.19312
3798.0 0.0002633 3620.20898 3620.20972
3790.0 0.0002639 3618.18408 3618.18359
3675.0 0.0002721 3616.11816 3616.11890
3716.0 0.0002691 3614.01172 3614.01123
3616.0 0.0002765 3611.86401 3611.86401
3793.0 0.0002636 3609.67578 3609.67603
3715.0 0.0002692 3607.44678 3607.44775
3736.0 0.0002677 3605.17700 3605.17700
3644.0 0.0002744 3602.86670 3602.86621
3702.0 0.0002701 3600.51538 3600.51489
3680.0 0.0002717 3598.12329 3598.12329
3632.0 0.0002753 3595.69092 3595.69165
3639.0 0.0002748 3593.21777 3593.21875
3740.0 0.0002674 3590.70410 3590.70410
3727.0 0.0002683 3588.14990 3588.14990
3695.0 0.0002706 3585.55566 3585.55615
3619.0 0.0002763 3582.92090 3582.92139
3646.0 0.0002743 3580.24585 3580.24609
3650.0 0.0002740 3577.53101 3577.53076
3563.0 0.0002807 3574.77612 3574.77661
3576.0 0.0002796 3571.98120 3571.98120
3571.0 0.0002800 3569.14673 3569.14648
3591.0 0.0002785 3566.27222 3566.27197
3578.0 0.0002795 3563.35889 3563.35840
3593.0 0.0002783 3560.40576 3560.40527
3618.0 0.0002764 3557.41382 3557.41382
3564.0 0.0002806 3554.38257 3554.38184
3642.0 0.0002746 3551.31226 3551.31226
3652.0 0.0002738 3548.20386 3548.20386
3586.0 0.0002789 3545.05640 3545.05640
3632.0 0.0002753 3541.87109 3541.87158
3507.0 0.0002851 3538.64722 3538.64771
3491.0 0.0002865 3535.38599 3535.38623
3516.0 0.0002844 3532.08643 3532.08643
3575.0 0.0002797 3528.74951 3528.74902
3523.0 0.0002838 3525.37573 3525.37500
3568.0 0.0002803 3521.96460 3521.96509
3537.0 0.0002827 3518.51660 3518.51587
3449.0 0.0002899 3515.03174 3515.03174
3499.0 0.0002858 3511.51074 3511.51050
3508.0 0.0002851 3507.95386 3507.95361
3586.0 0.0002789 3504.36108 3504.36108
3487.0 0.0002868 3500.73242 3500.73169
3483.0 0.0002871 3497.06836 3497.06836
3534.0 0.0002830 3493.36963 3493.36890
3533.0 0.0002830 3489.63599 3489.63623
3485.0 0.0002869 3485.86743 3485.86694
3514.0 0.0002846 3482.06519 3482.06519
3460.0 0.0002890 3478.22876 3478.22827
3461.0 0.0002889 3474.35913 3474.35913
3462.0 0.0002889 3470.45557 3470.45557
3444.0 0.0002904 3466.51929 3466.51953
3450.0 0.0002899 3462.55029 3462.55054
3462.0 0.0002889 3458.54932 3458.54932
3387.0 0.0002952 3454.51563 3454.51538
3475.0 0.0002878 3450.45044 3450.45068
3454.0 0.0002895 3446.35376 3446.35376
3374.0 0.0002964 3442.22656 3442.22705
3421.0 0.0002923 3438.06836 3438.06763
3380.0 0.0002959 3433.87939 3433.88013
3487.0 0.0002868 3429.66064 3429.66089
3380.0 0.0002959 3425.41260 3425.41211
3398.0 0.0002943 3421.13477 3421.13428
3343.0 0.0002991 3416.82837 3416.82788
3403.0 0.0002939 3412.49292 3412.49292
3347.0 0.0002988 3408.12988 3408.12988
3353.0 0.0002982 3403.73853 3403.73755
3337.0 0.0002997 3399.31958 3399.31958
3358.0 0.0002978 3394.87378 3394.87378
3307.0 0.0003024 3390.40186 3390.40112
3446.0 0.0002902 3385.90308 3385.90210
3304.0 0.0003027 3381.37817 3381.37817
3399.0 0.0002942 3376.82788 3397.26147
3317.0 0.0003015 3372.25244 3393.61987
3459.0 0.0002891 3367.65283 3390.01953
3434.0 0.0002912 3363.02856 3386.46655
3325.0 0.0003008 3358.38013 3382.96704
3400.0 0.0002941 3353.70825 3379.53125
3355.0 0.0002981 3349.01367 3376.16748
3371.0 0.0002966 3344.29614 3372.88721
3326.0 0.0003007 3339.55640 3369.70068
3298.0 0.0003032 3334.79443 3366.62329
3202.0 0.0003123 3330.01172 3363.66943
3255.0 0.0003072 3325.20752 3360.85449
3384.0 0.0002955 3320.38281 3358.20215
3347.0 0.0002988 3315.53809 3355.73413
3344.0 0.0002990 3310.67358 3353.47656
3299.0 0.0003031 3305.78979 3351.46045
3316.0 0.0003016 3300.88696 3349.72266
3386.0 0.0002953 3295.96582 3348.30493
3271.0 0.0003057 3291.02710 3347.26172
3271.0 0.0003057 3286.07007 3346.64917
3296.0 0.0003034 3281.09644 3346.54175
3224.0 0.0003102 3276.10596 3347.02466
3361.0 0.0002975 3271.09961 3348.20581
3290.0 0.0003040 3266.07690 3350.21216
3300.0 0.0003030 3261.03882 3353.20410
3288.0 0.0003041 3255.98608 3357.37988
3402.0 0.0002939 3250.91846 3362.99023
3270.0 0.0003058 3245.83765 3370.35205
3344.0 0.0002990 3240.74243 3379.87329
3280.0 0.0003049 3235.63428 3392.08740
3353.0 0.0002982 3230.51367 3407.69629
3464.0 0.0002887 3225.38086 3427.64575
3341.0 0.0002993 3220.23633 3453.22461
3426.0 0.0002919 3215.07983 3486.25049
3461.0 0.0002889 3209.91260 3529.45337
3542.0 0.0002823 3204.73560 3587.61768
3717.0 0.0002690 3199.54785 3671.56055
4068.0 0.0002458 3194.35083 3810.72632
4640.0 0.0002155 3189.14429 4085.10742
5422.0 0.0001844 3183.92969 4682.41113
6714.0 0.0001489 3178.70654 5949.53613
8856.0 0.0001129 3173.47534 8338.60352
12414.0 0.0000806 3168.23706 12132.41113
16571.0 0.0000603 3162.99194 16992.05664
20908.0 0.0000478 3157.74048 21600.58203
23487.0 0.0000426 3152.48242 23837.33594
22408.0 0.0000446 3147.21899 22285.20117
18361.0 0.0000545 3141.95093 17942.79883
13007.0 0.0000769 3136.67773 12978.68652
8737.0 0.0001145 3131.40039 8911.43848
6212.0 0.0001610 3126.11890 6250.10059
4826.0 0.0002072 3120.83398 4793.48242
4041.0 0.0002475 3115.54688 4091.05078
3781.0 0.0002645 3110.25635 3764.65771
3548.0 0.0002818 3104.96436 3598.38745
3488.0 0.0002867 3099.67017 3496.90063
3371.0 0.0002966 3094.37549 3424.57666
3350.0 0.0002985 3089.07910 3368.55298
3242.0 0.0003085 3083.78247 3323.39087
3199.0 0.0003126 3078.48633 3286.11353
3129.0 0.0003196 3073.19043 3254.77686
3016.0 0.0003316 3067.89551 3228.00537
3207.0 0.0003118 3062.60156 3204.80200
3133.0 0.0003192 3057.30908 3184.42407
3086.0 0.0003240 3052.01953 3166.31250
3118.0 0.0003207 3046.73169 3150.03955
2992.0 0.0003342 3041.44727 3135.27002
3098.0 0.0003228 3036.16577 3121.74805
3052.0 0.0003277 3030.88867 3109.26489
3175.0 0.0003150 3025.61499 3097.65430
3007.0 0.0003326 3020.34570 3086.78296
3004.0 0.0003329 3015.08179 3076.54517
3034.0 0.0003296 3009.82349 3066.84839
3077.0 0.0003250 3004.57031 3057.62085
2958.0 0.0003381 2999.32300 3048.79810
2928.0 0.0003415 2994.08228 3040.33130
2870.0 0.0003484 2988.84863 3032.17554
2957.0 0.0003382 2983.62231 3024.29541
2953.0 0.0003386 2978.40356 3016.65967
2992.0 0.0003342 2973.19238 3009.23877
2873.0 0.0003481 2967.98950 3002.01270
3004.0 0.0003329 2962.79590 2994.96143
2899.0 0.0003449 2957.61084 2988.06641
3050.0 0.0003279 2952.43555 2981.31299
2895.0 0.0003454 2947.26953 2974.68945
2916.0 0.0003429 2942.11426 2968.18335
2884.0 0.0003467 2936.96899 2961.78467
2876.0 0.0003477 2931.83447 2955.48389
2874.0 0.0003479 2926.71118 2949.27710
2951.0 0.0003389 2921.59985 2943.15259
2862.0 0.0003494 2916.49976 2937.10693
2897.0 0.0003452 2911.41187 2911.41064
2899.0 0.0003449 2906.33643 2906.33545
2739.0 0.000365 2901.27417 2901.27319
2781.0 0.000360 2896.22485 2896.22461
2812.0 0.000356 2891.18872 2891.18848
2847.0 0.000351 2886.16626 2886.16626
2814.0 0.000355 2881.15845 2881.15820
2870.0 0.0003484 2876.16431 2876.16357
2905.0 0.0003442 2871.18481 2871.18433
2825.0 0.000354 2866.22070 2866.22144
2865.0 0.0003490 2861.27148 2861.27100
2863.0 0.0003493 2856.33813 2856.33740
2847.0 0.000351 2851.42041 2851.42017
2832.0 0.000353 2846.51855 2846.51831
2811.0 0.000356 2841.63330 2841.63354
2906.0 0.0003441 2836.76514 2836.76440
2757.0 0.000363 2831.91309 2831.91284
2773.0 0.000361 2827.07837 2827.07764
2847.0 0.000351 2822.26099 2822.26025
2778.0 0.000360 2817.46191 2817.46094
2851.0 0.000351 2812.68018 2812.68018
2761.0 0.000362 2807.91675 2807.91650
2785.0 0.000359 2803.17139 2803.17114
2693.0 0.000371 2798.44531 2798.44458
2782.0 0.000359 2793.73779 2793.73779
2733.0 0.000366 2789.04956 2789.04907
2760.0 0.000362 2784.38013 2784.38037
2749.0 0.000364 2779.73120 2779.73071
2677.0 0.000374 2775.10132 2775.10083
2794.0 0.000358 2770.49121 2770.49097
2739.0 0.000365 2765.90161 2765.90137
2698.0 0.000371 2761.33276 2761.33276
2754.0 0.000363 2756.78418 2756.78369
2811.0 0.000356 2752.25635 2752.25659
2713.0 0.000369 2747.74927 2747.74902
2767.0 0.000361 2743.26343 2743.26318
2789.0 0.000359 2738.79956 2738.79883
2684.0 0.000373 2734.35669 2734.35571
2693.0 0.000371 2729.93555 2729.93530
2745.0 0.000364 2725.53589 2725.53564
2706.0 0.000370 2721.15918 2721.15869
2728.0 0.000367 2716.80396 2716.80322
2787.0 0.000359 2712.47119 2712.47070
2601.0 0.000384 2708.16064 2708.16113
2748.0 0.000364 2703.87329 2703.87305
2762.0 0.000362 2699.60840 2699.60864
2741.0 0.000365 2695.36621 2695.36572
2563.0 0.000390 2691.14722 2691.14697
2761.0 0.000362 2686.95142 2686.95117
2712.0 0.000369 2682.77905 2682.77832
2738.0 0.000365 2678.62964 2678.62915
2754.0 0.000363 2674.50391 2674.50366
2714.0 0.000368 2670.40210 2670.40186
2701.0 0.000370 2666.32373 2666.32373
2665.0 0.000375 2662.26929 2662.26855
2714.0 0.000368 2658.23877 2658.23828
2691.0 0.000372 2654.23267 2654.23242
2689.0 0.000372 2650.25000 2650.25000
2598.0 0.000385 2646.29150 2646.29199
2740.0 0.000365 2642.35767 2642.35840
2690.0 0.000372 2638.44775 2638.44775
2627.0 0.000381 2634.56299 2634.56348
2647.0 0.000378 2630.70190 2630.70117
2635.0 0.000380 2626.86572 2626.86523
2552.0 0.000392 2623.05420 2623.05273
2633.0 0.000380 2619.26733 2619.26782
2538.0 0.000394 2615.50513 2615.50464
2547.0 0.000393 2611.76733 2611.76685
2627.0 0.000381 2608.05444 2608.05371
2769.0 0.000361 2604.36670 2604.36719
2615.0 0.000382 2600.70361 2600.70337
2717.0 0.000368 2597.06543 2598.24390
2585.0 0.000387 2593.45190 2594.67456
2566.0 0.000390 2589.86377 2591.13062
2565.0 0.000390 2586.30029 2587.84375
2596.0 0.000385 2582.76172 2584.36401
2560.0 0.000391 2579.24829 2580.91235
2639.0 0.000379 2575.75977 2577.48950
2629.0 0.000380 2572.29614 2574.09497
2616.0 0.000382 2568.85742 2570.73071
2602.0 0.000384 2565.44360 2567.39575
2604.0 0.000384 2562.05518 2564.09131
2517.0 0.000397 2558.69116 2560.81714
2550.0 0.000392 2555.35229 2557.57397
2603.0 0.000384 2552.03809 2554.36182
2620.0 0.000382 2548.74878 2551.18091
2619.0 0.000382 2545.48486 2548.03369
2624.0 0.000381 2542.24512 2544.91943
2647.0 0.000378 2539.03027 2541.84058
2607.0 0.000384 2535.84009 2538.79541
2541.0 0.000394 2532.67505 2535.78735
2591.0 0.000386 2529.53394 2532.81763
2531.0 0.000395 2526.41748 2529.88501
2600.0 0.000385 2523.32593 2526.99414
2542.0 0.000393 2520.25879 2524.14453
2544.0 0.000393 2517.21582 2521.33984
2498.0 0.000400 2514.19727 2518.58252
2582.0 0.000387 2511.20288 2515.87427
2600.0 0.000385 2508.23291 2513.21973
2496.0 0.000401 2505.28687 2510.62231
2588.0 0.000386 2502.36475 2508.08691
2508.0 0.000399 2499.46680 2505.61792
2546.0 0.000393 2496.59277 2503.22339
2547.0 0.000393 2493.74219 2500.91162
2517.0 0.000397 2490.91528 2498.69116
2599.0 0.000385 2488.11230 2496.57324
2518.0 0.000397 2485.33276 2494.57495
2472.0 0.000405 2482.57642 2492.71240
2429.0 0.000412 2479.84326 2491.00854
2455.0 0.000407 2477.13330 2489.49170
2506.0 0.000399 2474.44678 2488.20020
2455.0 0.000407 2471.78320 2487.18115
2386.0 0.000419 2469.14209 2486.49414
2518.0 0.000397 2466.52368 2486.22461
2493.0 0.000401 2463.92798 2486.48462
2469.0 0.000405 2461.35522 2487.42920
2414.0 0.000414 2458.80420 2489.28540
2473.0 0.000404 2456.27588 2492.42163
2432.0 0.000411 2453.76929 2497.57959
2574.0 0.000389 2451.28491 2506.65210
2508.0 0.000399 2448.82227 2524.74146
2569.0 0.000389 2446.38110 2564.31201
2746.0 0.000364 2443.96191 2650.10205
2990.0 0.0003344 2441.56421 2818.47974
3058.0 0.0003270 2439.18726 3101.38208
3398.0 0.0002943 2436.83154 3493.24805
3887.0 0.0002573 2434.49658 3917.26050
4155.0 0.0002407 2432.18311 4217.80518
4262.0 0.0002346 2429.88989 4241.72168
4030.0 0.0002481 2427.61719 4007.59766
3701.0 0.0002702 2425.36475 3670.53735
3400.0 0.0002941 2423.13281 3345.28198
3217.0 0.0003108 2420.92065 3068.96899
2920.0 0.0003425 2418.72852 2850.40234
2640.0 0.000379 2416.55591 2691.31250
2554.0 0.000392 2414.40283 2584.36523
2524.0 0.000396 2412.26953 2517.97705
2444.0 0.000409 2410.15503 2479.53198
2438.0 0.000410 2408.05933 2457.74194
2408.0 0.000415 2405.98291 2444.61304
2388.0 0.000419 2403.92529 2435.63794
2457.0 0.000407 2401.88599 2428.71313
2436.0 0.000411 2399.86475 2422.94971
2436.0 0.000411 2397.86182 2417.95850
2435.0 0.000411 2395.87695 2413.53564
2361.0 0.000424 2393.90991 2409.54761
2398.0 0.000417 2391.96021 2405.90723
2319.0 0.000431 2390.02808 2402.54321
2369.0 0.000422 2388.11328 2399.40723
2429.0 0.000412 2386.21533 2396.51074
2370.0 0.000422 2384.33447 2393.72168
2316.0 0.000432 2382.46997 2391.06421
2378.0 0.000421 2380.62231 2388.52148
2379.0 0.000420 2378.79053 2386.07739
2369.0 0.000422 2376.97485 2383.71826
2357.0 0.000424 2375.17529 2381.43506
2369.0 0.000422 2373.39160 2379.21875
2327.0 0.000430 2371.62329 2377.06372
2341.0 0.000427 2369.87012 2374.96118
2377.0 0.000421 2368.13208 2372.90845
2451.0 0.000408 2366.40894 2370.89868
2329.0 0.000429 2364.70068 2368.93164
2336.0 0.000428 2363.00708 2367.00073
2296.0 0.000436 2361.32764 2365.10571
2329.0 0.000429 2359.66211 2363.24219
2381.0 0.000420 2358.01099 2361.41016
2337.0 0.000428 2356.37329 2359.60522
2309.0 0.000433 2354.74902 2357.82910
2379.0 0.000420 2353.13818 2356.07764
2361.0 0.000424 2351.54077 2354.34985
2316.0 0.000432 2349.95581 2352.64673
2331.0 0.000429 2348.38354 2350.96411
2350.0 0.000426 2346.82422 2349.30273
2306.0 0.000434 2345.27710 2347.66284
2261.0 0.000442 2343.74219 2346.04102
2363.0 0.000423 2342.21875 2344.43945
2335.0 0.000428 2340.70728 2342.85498
2248.0 0.000445 2339.20752 2341.28931
2272.0 0.000440 2337.71875 2339.73975
2394.0 0.000418 2336.24146 2338.20874
2303.0 0.000434 2334.77466 2336.69336
2336.0 0.000428 2333.31885 2335.19531
2310.0 0.000433 2331.87354 2333.71338
2215.0 0.000451 2330.43823 2332.24731
2234.0 0.000448 2329.01343 2329.62866
2316.0 0.000432 2327.59839 2328.23560
2280.0 0.000439 2326.19312 2326.85962
2316.0 0.000432 2324.79712 2325.49902
2307.0 0.000433 2323.41040 2323.92212
2298.0 0.000435 2322.03320 2322.60425
2293.0 0.000436 2320.66455 2321.30615
2343.0 0.000427 2319.30493 2320.03076
2188.0 0.000457 2317.95337 2318.78076
2319.0 0.000431 2316.61035 2317.56323
2289.0 0.000437 2315.27563 2316.38330
2326.0 0.000430 2313.94849 2315.25098
2329.0 0.000429 2312.62939 2314.18604
2336.0 0.000428 2311.31763 2313.22852
2329.0 0.000429 2310.01343 2312.47974
2293.0 0.000436 2308.71631 2312.21484
2346.0 0.000426 2307.42603 2313.08496
2314.0 0.000432 2306.14258 2316.29736
2328.0 0.000430 2304.86572 2323.47681
2300.0 0.000435 2303.59521 2335.75269
2268.0 0.000441 2302.33105 2352.18628
2279.0 0.000439 2301.07251 2368.36987
2411.0 0.000415 2299.82031 2376.58276
2379.0 0.000420 2298.57349 2370.84326
2381.0 0.000420 2297.33228 2354.15332
2329.0 0.000429 2296.09619 2334.57397
2397.0 0.000417 2294.86523 2317.95190
2333.0 0.000429 2293.63940 2306.41187
2496.0 0.000401 2292.41797 2299.40039
2534.0 0.000395 2291.20142 2295.32300
2745.0 0.000364 2289.98901 2292.76050
2925.0 0.0003419 2288.78101 2290.86597
3163.0 0.0003162 2287.57690 2289.25171
3034.0 0.0003296 2286.37671 2287.76587
2914.0 0.0003432 2285.18018 2286.35645
2727.0 0.000367 2283.98730 2284.99341
2541.0 0.000394 2282.79785 2283.66943
2422.0 0.000413 2281.61108 2282.37305
2320.0 0.000431 2280.42773 2281.09937
2367.0 0.000422 2279.24731 2279.84351
2266.0 0.000441 2278.06934 2278.60181
2242.0 0.000446 2276.89429 2277.37256
2199.0 0.000455 2275.72119 2276.15356
2198.0 0.000455 2274.55054 2274.94385
2162.0 0.000463 2273.38184 2277.87524
2156.0 0.000464 2272.21509 2276.82813
2209.0 0.000453 2271.05005 2275.79492
2236.0 0.000447 2269.88696 2274.77588
2216.0 0.000451 2268.72485 2273.77051
2158.0 0.000463 2267.56421 2272.77905
2241.0 0.000446 2266.40454 2271.80176
2293.0 0.000436 2265.24609 2270.83984
2262.0 0.000442 2264.08862 2269.89209
2199.0 0.000455 2262.93164 2268.96167
2260.0 0.000442 2261.77539 2268.04956
2122.0 0.000471 2260.61938 2267.15332
2137.0 0.000468 2259.46411 2266.27808
2252.0 0.000444 2258.30859 2265.42407
2231.0 0.000448 2257.15332 2264.59253
2147.0 0.000466 2255.99780 2263.78564
2197.0 0.000455 2254.84229 2263.00610
2260.0 0.000442 2253.68628 2262.25439
2213.0 0.000452 2252.52979 2261.53687
2260.0 0.000442 2251.37280 2260.85449
2216.0 0.000451 2250.21533 2260.21118
2258.0 0.000443 2249.05664 2259.61304
2185.0 0.000458 2247.89697 2259.06299
2182.0 0.000458 2246.73608 2258.56689
2131.0 0.000469 2245.57446 2258.13184
2224.0 0.000450 2244.41162 2257.76807
2195.0 0.000456 2243.24707 2257.48169
2309.0 0.000433 2242.08081 2257.28369
2212.0 0.000452 2240.91333 2257.18896
2170.0 0.000461 2239.74390 2257.20996
2125.0 0.000471 2238.57275 2257.36499
2085.0 0.000480 2237.39941 2257.67700
2175.0 0.000460 2236.22437 2258.17065
2205.0 0.000454 2235.04712 2258.87744
2218.0 0.000451 2233.86743 2259.83496
2174.0 0.000460 2232.68555 2261.03809
2173.0 0.000460 2231.50146 2262.65283
2233.0 0.000448 2230.31494 2264.69775
2225.0 0.000449 2229.12549 2267.26758
2175.0 0.000460 2227.93359 2270.47827
2187.0 0.000457 2226.73877 2274.48853
2236.0 0.000447 2225.54126 2279.50049
2269.0 0.000441 2224.34082 2285.78809
2164.0 0.000462 2223.13745 2293.71997
2223.0 0.000450 2221.93091 2303.81543
2312.0 0.000433 2220.72144 2316.82666
2237.0 0.000447 2219.50854 2333.99707
2295.0 0.000436 2218.29248 2357.86450
2236.0 0.000447 2217.07300 2394.87012
2452.0 0.000408 2215.85034 2462.24536
2668.0 0.000375 2214.62402 2601.39355
3070.0 0.0003257 2213.39404 2893.04028
3477.0 0.0002876 2212.16089 3453.03394
4546.0 0.0002200 2210.92383 4377.77441
5515.0 0.0001813 2209.68335 5635.68311
7076.0 0.0001413 2208.43872 6956.79541
7629.0 0.0001311 2207.19043 7806.88281
7521.0 0.0001330 2205.93823 7670.66211
6726.0 0.0001487 2204.68237 6639.39160
5179.0 0.0001931 2203.42261 5289.70068
3853.0 0.0002595 2202.15869 4098.31152
3215.0 0.0003110 2200.89063 3267.28784
2777.0 0.000360 2199.61890 2784.15259
2492.0 0.000401 2198.34253 2538.78784
2418.0 0.000414 2197.06274 2421.35205
2350.0 0.000426 2195.77808 2361.92505
2305.0 0.000434 2194.48975 2326.80444
2350.0 0.000426 2193.19702 2302.52051
2354.0 0.000425 2191.89990 2284.06470
2484.0 0.000403 2190.59863 2269.37598
2548.0 0.000392 2189.29297 2257.37793
2813.0 0.000355 2187.98340 2247.39160
2989.0 0.0003346 2186.66895 2238.94409
2912.0 0.0003434 2185.35034 2231.69409
2777.0 0.000360 2184.02759 2225.38623
2657.0 0.000376 2182.70020 2219.83154
2318.0 0.000431 2181.36865 2214.88696
2237.0 0.000447 2180.03247 2210.43555
2198.0 0.000455 2178.69214 2206.39380
2225.0 0.000449 2177.34692 2202.69043
2232.0 0.000448 2175.99756 2199.27002
2052.0 0.000487 2174.64380 2196.08789
2130.0 0.000469 2173.28564 2193.10742
2045.0 0.000489 2171.92310 2190.30078
2069.0 0.000483 2170.55591 2187.63965
2130.0 0.000469 2169.18433 2185.10669
2154.0 0.000464 2167.80859 2182.68359
2102.0 0.000476 2166.42822 2180.35474
2074.0 0.000482 2165.04370 2178.11084
2090.0 0.000478 2163.65454 2175.93823
2166.0 0.000462 2162.26099 2173.82983
2086.0 0.000479 2160.86328 2171.77832
2150.0 0.000465 2159.46118 2169.77637
2233.0 0.000448 2158.05493 2167.81689
2340.0 0.000427 2156.64404 2165.89722
2401.0 0.000416 2155.22925 2164.01147
2413.0 0.000414 2153.80981 2162.15674
2503.0 0.000400 2152.38623 2160.32886
2326.0 0.000430 2150.95874 2158.52661
2310.0 0.000433 2149.52661 2156.74463
2272.0 0.000440 2148.09082 2154.98413
2175.0 0.000460 2146.65063 2153.23828
2182.0 0.000458 2145.20630 2151.51074
2097.0 0.000477 2143.75806 2149.79517
2014.0 0.000497 2142.30566 2148.09399
2075.0 0.000482 2140.84961 2146.40210
2017.0 0.000496 2139.38916 2144.72144
2110.0 0.000474 2137.92505 2143.04932
2113.0 0.000473 2136.45703 2141.38525
2029.0 0.000493 2134.98535 2139.72876
2083.0 0.000480 2133.50977 2138.07813
2051.0 0.000488 2132.03027 2136.43335
2074.0 0.000482 2130.54736 2134.79370
2068.0 0.000484 2129.06079 2129.06079
2077.0 0.000481 2127.57056 2127.57080
2028.0 0.000493 2126.07666 2126.07715
2023.0 0.000494 2124.57935 2124.57983
1997.0 0.000501 2123.07886 2123.07935
1995.0 0.000501 2121.57471 2121.57544
2017.0 0.000496 2120.06714 2120.06714
2067.0 0.000484 2118.55664 2118.55664
2057.0 0.000486 2117.04272 2117.04297
2101.0 0.000476 2115.52563 2115.52612
2067.0 0.000484 2114.00537 2114.00635
2105.0 0.000475 2112.48242 2112.48218
2065.0 0.000484 2110.95630 2110.95703
2150.0 0.000465 2109.42700 2109.42700
2183.0 0.000458 2107.89502 2107.89502
2213.0 0.000452 2106.36060 2106.36011
2178.0 0.000459 2104.82324 2104.82275
2223.0 0.000450 2103.28296 2103.28271
2026.0 0.000494 2101.74023 2101.73999
2086.0 0.000479 2100.19507 2100.19531
2134.0 0.000469 2098.64771 2098.64722
2088.0 0.000479 2097.09766 2097.09839
2098.0 0.000477 2095.54517 2095.54590
2081.0 0.000481 2093.99072 2154.17725
2157.0 0.000464 2092.43408 2154.80078
2279.0 0.000439 2090.87524 2155.54272
2374.0 0.000421 2089.31445 2156.41309
2458.0 0.000407 2087.75171 2157.42041
2552.0 0.000392 2086.18726 2158.57690
2517.0 0.000397 2084.62085 2159.89404
2465.0 0.000406 2083.05273 2161.38330
2390.0 0.000418 2081.48315 2163.06323
2166.0 0.000462 2079.91211 2164.94653
2159.0 0.000463 2078.33936 2167.05298
2105.0 0.000475 2076.76514 2169.40210
2194.0 0.000456 2075.18970 2172.01416
2011.0 0.000497 2073.61328 2174.91626
2117.0 0.000472 2072.03564 2178.13403
2055.0 0.000487 2070.45679 2181.69946
2100.0 0.000476 2068.87695 2185.64648
2030.0 0.000493 2067.29639 2190.01440
2019.0 0.000495 2065.71484 2194.84717
2094.0 0.000478 2064.13257 2200.19434
2137.0 0.000468 2062.54956 2206.11279
2085.0 0.000480 2060.96631 2212.66748
2058.0 0.000486 2059.38257 2219.93213
2087.0 0.000479 2057.79810 2227.99243
2099.0 0.000476 2056.21338 2236.94556
2154.0 0.000464 2054.62891 2246.90479
2110.0 0.000474 2053.04395 2258.00391
2194.0 0.000456 2051.45898 2270.39575
2191.0 0.000456 2049.87402 2284.26392
2162.0 0.000463 2048.28931 2299.82178
2171.0 0.000461 2046.70483 2317.32373
2252.0 0.000444 2045.12073 2337.07471
2345.0 0.000426 2043.53687 2359.44019
2269.0 0.000441 2041.95349 2384.86304
2244.0 0.000446 2040.37085 2413.88525
2193.0 0.000456 2038.78870 2447.17017
2376.0 0.000421 2037.20764 2485.54248
2269.0 0.000441 2035.62695 2530.03516
2412.0 0.000415 2034.04761 2581.95386
2362.0 0.000423 2032.46912 2642.96899
2622.0 0.000381 2030.89160 2715.24268
2651.0 0.000377 2029.31555 2801.61353
2770.0 0.000361 2027.74060 2905.85693
2782.0 0.000359 2026.16724 3033.09229
2998.0 0.0003336 2024.59509 3190.40356
3103.0 0.0003223 2023.02454 3388.02295
3453.0 0.0002896 2021.45569 3642.27808
3918.0 0.0002552 2019.88879 3984.95313
4409.0 0.0002268 2018.32361 4493.31738
5747.0 0.0001740 2016.76025 5371.62402
7505.0 0.0001332 2015.19885 7117.57471
11207.0 0.0000892 2013.63977 10732.72168
17502.0 0.0000571 2012.08264 17735.16211
28166.0 0.0000355 2010.52795 29562.17578
44149.0 0.0000227 2008.97546 46213.87109
63786.0 0.0000157 2007.42566 64696.49219
79559.0 0.0000126 2005.87817 78263.46875
82251.0 0.0000122 2004.33325 79118.45313
69397.0 0.0000144 2002.79114 66658.03906
49328.0 0.0000203 2001.25183 48316.55859
31027.0 0.0000322 1999.71545 31226.61133
18536.0 0.0000539 1998.18188 18800.32617
11495.0 0.0000870 1996.65137 11305.28027
7556.0 0.0001323 1995.12427 7386.48145
5640.0 0.0001773 1993.60010 5487.99951
4661.0 0.0002145 1992.07935 4541.72900
3992.0 0.0002505 1990.56201 4002.66650
3621.0 0.0002762 1989.04822 3643.53467
3347.0 0.0002988 1987.53772 3378.28027
3107.0 0.0003219 1986.03088 3172.16162
2999.0 0.0003334 1984.52795 3007.79980
2822.0 0.000354 1983.02856 2874.48511
2618.0 0.000382 1981.53345 2764.85229
2673.0 0.000374 1980.04199 2673.59839
2449.0 0.000408 1978.55457 2596.81958
2440.0 0.000410 1977.07141 2531.58545
2466.0 0.000406 1975.59229 2475.66870
2323.0 0.000430 1974.11768 2427.35059
2325.0 0.000430 1972.64709 2385.28809
2292.0 0.000436 1971.18115 2348.42334
2226.0 0.000449 1969.71973 2315.91016
2184.0 0.000458 1968.26270 2287.06763
2152.0 0.000465 1966.81055 2261.34302
2187.0 0.000457 1965.36292 2238.28394
2127.0 0.000470 1963.92041 2217.51563
2098.0 0.000477 1962.48242 2198.72827
2134.0 0.000469 1961.04944 2181.66260
2086.0 0.000479 1959.62170 2166.09937
2098.0 0.000477 1958.19873 2151.85425
2084.0 0.000480 1956.78125 2138.76929
2072.0 0.000483 1955.36877 2126.71191
2121.0 0.000471 1953.96155 2115.56396
2002.0 0.000500 1952.55994 2105.22803
2015.0 0.000496 1951.16357 2095.61743
2065.0 0.000484 1949.77271 2086.65576
2010.0 0.000498 1948.38733 2078.27905
2040.0 0.000490 1947.00757 2070.42969
2009.0 0.000498 1945.63379 2063.05591
2000.0 0.000500 1944.26550 2056.11548
2016.0 0.000496 1942.90320 2049.56714
2037.0 0.000491 1941.54675 2043.37634
1997.0 0.000501 1940.19617 2037.51306
2016.0 0.000496 1938.85132 2031.94922
2010.0 0.000498 1937.51270 2026.65881
1954.0 0.000512 1936.18042 2021.62097
1964.0 0.000509 1934.85400 2016.81482
2013.0 0.000497 1933.53381 2012.22363
1880.0 0.000532 1932.22034 2007.83069
1932.0 0.000518 1930.91272 2003.62073
1985.0 0.000504 1929.61157 1999.58130
2037.0 0.000491 1928.31677 1995.69922
1953.0 0.000512 1927.02869 1991.96533
1989.0 0.000503 1925.74695 1988.36816
1975.0 0.000506 1924.47180 1924.47168
1840.0 0.000543 1923.20349 1923.20337
1961.0 0.000510 1921.94177 1921.94141
1983.0 0.000504 1920.68665 1920.68689
1915.0 0.000522 1919.43848 1919.43799
1916.0 0.000522 1918.19690 1918.19653
1914.0 0.000522 1916.96228 1916.96252
1943.0 0.000515 1915.73450 1915.73438
1914.0 0.000522 1914.51379 1914.51343
2005.0 0.000499 1913.29993 1913.29932
1981.0 0.000505 1912.09302 1912.09277
2015.0 0.000496 1910.89355 1910.89307
1985.0 0.000504 1909.70081 1909.70068
1875.0 0.000533 1908.51514 1908.51514
2083.0 0.000480 1907.33691 1907.33679
2016.0 0.000496 1906.16565 1906.16541
2154.0 0.000464 1905.00159 1906.25208
2331.0 0.000429 1903.84485 1905.14087
2508.0 0.000399 1902.69556 1904.03833
2684.0 0.000373 1901.55347 1902.94727
2712.0 0.000369 1900.41882 1901.86572
2602.0 0.000384 1899.29150 1900.79443
2365.0 0.000423 1898.17139 1899.73462
2231.0 0.000448 1897.05884 1898.68469
2122.0 0.000471 1895.95361 1897.64685
2087.0 0.000479 1894.85620 1896.62036
1959.0 0.000510 1893.76587 1895.60608
1864.0 0.000536 1892.68335 1894.60449
1903.0 0.000525 1891.60840 1893.61658
1883.0 0.000531 1890.54089 1892.64136
1980.0 0.000505 1889.48083 1891.68018
1844.0 0.000542 1888.42859 1890.73413
1890.0 0.000529 1887.38379 1889.80310
1981.0 0.000505 1886.34656 1888.88904
1900.0 0.000526 1885.31702 1887.99133
1873.0 0.000534 1884.29529 1887.11218
1859.0 0.000538 1883.28125 1886.25256
1861.0 0.000537 1882.27466 1885.41406
1855.0 0.000539 1881.27576 1884.59705
1919.0 0.000521 1880.28467 1883.80432
1914.0 0.000522 1879.30115 1883.03735
1907.0 0.000524 1878.32532 1882.29883
1861.0 0.000537 1877.35730 1881.59119
1803.0 0.000555 1876.39697 1880.91748
1847.0 0.000541 1875.44446 1880.28186
1910.0 0.000524 1874.49951 1879.68799
1887.0 0.000530 1873.56226 1879.14124
1892.0 0.000529 1872.63281 1878.64819
1844.0 0.000542 1871.71106 1878.21619
1951.0 0.000513 1870.79688 1877.85352
1827.0 0.000547 1869.89050 1877.57092
1894.0 0.000528 1868.99182 1877.38318
1859.0 0.000538 1868.10107 1877.30518
1938.0 0.000516 1867.21777 1877.35803
1850.0 0.000541 1866.34204 1877.56836
1867.0 0.000536 1865.47424 1877.96863
1857.0 0.000539 1864.61401 1878.60156
1920.0 0.000521 1863.76135 1879.52429
1898.0 0.000527 1862.91638 1880.80969
1876.0 0.000533 1862.07910 1882.55981
1912.0 0.000523 1861.24939 1884.91150
1902.0 0.000526 1860.42737 1888.06323
1834.0 0.000545 1859.61292 1892.32288
1833.0 0.000546 1858.80591 1898.25818
1938.0 0.000516 1858.00659 1907.19446
1871.0 0.000534 1857.21484 1922.56909
1934.0 0.000517 1856.43042 1952.85278
2076.0 0.000482 1855.65356 2015.61926
2179.0 0.000459 1854.88428 2138.94214
2394.0 0.000418 1854.12256 2352.52344
2576.0 0.000388 1853.36792 2664.04248
3073.0 0.0003254 1852.62097 3028.65112
3365.0 0.0002972 1851.88123 3328.23975
3489.0 0.0002866 1851.14905 3402.04541
3206.0 0.0003119 1850.42407 3198.67847
2848.0 0.000351 1849.70630 2846.33301
2346.0 0.000426 1848.99597 2496.12207
2268.0 0.000441 1848.29285 2229.26587
2046.0 0.000489 1847.59692 2061.34131
1980.0 0.000505 1846.90820 1970.15637
1958.0 0.000511 1846.22656 1924.72668
1938.0 0.000516 1845.55200 1901.81934
1917.0 0.000522 1844.88452 1888.79370
1929.0 0.000518 1844.22424 1880.11462
2017.0 0.000496 1843.57080 1873.63599
2068.0 0.000484 1842.92456 1868.50256
2085.0 0.000480 1842.28528 1864.30725
2188.0 0.000457 1841.65271 1860.80359
2238.0 0.000447 1841.02698 1857.82849
2208.0 0.000453 1840.40820 1855.26404
2128.0 0.000470 1839.79614 1853.02258
1966.0 0.000509 1839.19092 1851.04004
1943.0 0.000515 1838.59229 1849.26746
1790.0 0.000559 1838.00037 1847.66663
1956.0 0.000511 1837.41492 1846.20813
1843.0 0.000543 1836.83618 1844.86865
1852.0 0.000540 1836.26416 1843.63013
1862.0 0.000537 1835.69836 1842.47766
1820.0 0.000549 1835.13904 1841.39807
1812.0 0.000552 1834.58606 1840.38257
1747.0 0.000572 1834.03955 1839.42297
1890.0 0.000529 1833.49927 1838.51160
1794.0 0.000557 1832.96533 1837.64343
1791.0 0.000558 1832.43750 1836.81470
1819.0 0.000550 1831.91577 1836.01904
1806.0 0.000554 1831.40015 1835.25513
1747.0 0.000572 1830.89063 1834.51868
1750.0 0.000571 1830.38708 1833.80774
1872.0 0.000534 1829.88953 1833.12012
1888.0 0.000530 1829.39771 1832.45361
1738.0 0.000575 1828.91187 1831.80701
1769.0 0.000565 1828.43188 1831.17798
1866.0 0.000536 1827.95740 1830.56628
1765.0 0.000567 1827.48877 1829.97046
1767.0 0.000566 1827.02563 1829.38867
1815.0 0.000551 1826.56812 1828.82104
1791.0 0.000558 1826.11584 1828.26672
1776.0 0.000563 1825.66931 1827.72412
1864.0 0.000536 1825.22803 1827.19336
1821.0 0.000549 1824.79224 1826.67358
1758.0 0.000569 1824.36157 1826.16455
1839.0 0.000544 1823.93604 1825.66541
1853.0 0.000540 1823.51587 1825.17566
1802.0 0.000555 1823.10059 1824.69531
1786.0 0.000560 1822.69055 1824.22400
1778.0 0.000562 1822.28516 1823.76074
1857.0 0.000539 1821.88489 1823.30591
1761.0 0.000568 1821.48950 1822.85840
1794.0 0.000557 1821.09875 1822.41870
1818.0 0.000550 1820.71277 1827.76587
1862.0 0.000537 1820.33142 1826.32117
1794.0 0.000557 1819.95471 1826.16626
1719.0 0.000582 1819.58240 1826.02710
1769.0 0.000565 1819.21472 1825.90723
1816.0 0.000551 1818.85132 1825.80627
1857.0 0.000539 1818.49231 1825.72485
1825.0 0.000548 1818.13745 1825.66443
1772.0 0.000564 1817.78699 1825.62708
1800.0 0.000556 1817.44055 1825.61389
1770.0 0.000565 1817.09814 1825.62610
1761.0 0.000568 1816.75977 1839.88818
1775.0 0.000563 1816.42529 1840.47217
1743.0 0.000574 1816.09473 1841.11731
1872.0 0.000534 1815.76807 1841.82727
1754.0 0.000570 1815.44507 1842.60876
1782.0 0.000561 1815.12573 1843.46509
1787.0 0.000560 1814.80994 1844.40515
1769.0 0.000565 1814.49780 1845.43445
1821.0 0.000549 1814.18896 1846.56226
1761.0 0.000568 1813.88367 1847.79785
1766.0 0.000566 1813.58154 1849.15100
1805.0 0.000554 1813.28296 1850.63452
1775.0 0.000563 1812.98730 1852.26086
1742.0 0.000574 1812.69482 1854.04565
1888.0 0.000530 1812.40552 1856.00610
1851.0 0.000540 1812.11914 1858.16235
1762.0 0.000568 1811.83557 1860.53748
1758.0 0.000569 1811.55505 1863.15906
1808.0 0.000553 1811.27710 1866.05786
1787.0 0.000560 1811.00195 1869.26978
1842.0 0.000543 1810.72949 1872.83875
1780.0 0.000562 1810.45959 1876.81519
1808.0 0.000553 1810.19226 1881.26050
1830.0 0.000546 1809.92725 1886.24683
1828.0 0.000547 1809.66467 1891.86353
1779.0 0.000562 1809.40442 1898.21729
1822.0 0.000549 1809.14636 1905.44104
1857.0 0.000539 1808.89050 1913.70056
1822.0 0.000549 1808.63660 1923.20203
1858.0 0.000538 1808.38489 1934.20996
1871.0 0.000534 1808.13501 1947.06519
1890.0 0.000529 1807.88708 1962.21289
1965.0 0.000509 1807.64111 1980.24744
1975.0 0.000506 1807.39661 2001.97961
2006.0 0.000499 1807.15393 2028.56616
1992.0 0.000502 1806.91296 2061.84644
2019.0 0.000495 1806.67346 2105.37354
2127.0 0.000470 1806.43542 2167.56909
2290.0 0.000437 1806.19885 2269.67065
2507.0 0.000399 1805.96362 2460.58228
2961.0 0.0003377 1805.72961 2832.81763
3650.0 0.0002740 1805.49683 3516.81421
4785.0 0.0002090 1805.26514 4621.69238
6158.0 0.0001624 1805.03479 6119.11963
7679.0 0.0001302 1804.80518 7718.83691
8609.0 0.0001162 1804.57666 8814.95117
8470.0 0.0001181 1804.34900 8778.76758
7633.0 0.0001310 1804.12219 7684.27734
6195.0 0.0001614 1803.89600 6223.56787
4974.0 0.0002010 1803.67053 5007.71484
4584.0 0.0002182 1803.44568 4390.13916
4772.0 0.0002096 1803.22144 4581.76758
5938.0 0.0001684 1802.99768 5775.98291
8214.0 0.0001217 1802.77441 8133.11475
11325.0 0.0000883 1802.55139 11558.95508
15233.0 0.0000656 1802.32874 15396.08887
17831.0 0.0000561 1802.10632 18217.08984
18219.0 0.0000549 1801.88416 18371.20898
15527.0 0.0000644 1801.66199 15729.60352
11189.0 0.0000894 1801.43994 11863.11523
7773.0 0.0001287 1801.21777 8254.97461
5400.0 0.0001852 1800.99573 5607.23877
3826.0 0.0002614 1800.77344 3982.72827
3071.0 0.0003256 1800.55090 3112.04590
2586.0 0.000387 1800.32825 2676.90771
2427.0 0.000412 1800.10522 2452.98682
2259.0 0.000443 1799.88184 2322.39282
2136.0 0.000468 1799.65796 2234.31177
2141.0 0.000467 1799.43372 2168.84204
2105.0 0.000475 1799.20874 2117.73755
2058.0 0.000486 1798.98340 2076.82910
2006.0 0.000499 1798.75732 2043.54175
2067.0 0.000484 1798.53052 2016.10352
2053.0 0.000487 1798.30286 1993.23267
2060.0 0.000485 1798.07446 1973.98584
2088.0 0.000479 1797.84509 1957.65100
1950.0 0.000513 1797.61487 1943.68701
1952.0 0.000512 1797.38367 1931.67566
2006.0 0.000499 1797.15149 1921.29028
1870.0 0.000535 1796.91809 1912.27344
1954.0 0.000512 1796.68359 1904.42273
1941.0 0.000515 1796.44788 1897.57288
1896.0 0.000527 1796.21094 1891.59497
1926.0 0.000519 1795.97266 1886.38525
1862.0 0.000537 1795.73291 1881.86108
1841.0 0.000543 1795.49194 1877.95740
1834.0 0.000545 1795.24951 1874.62354
1859.0 0.000538 1795.00549 1871.82385
1876.0 0.000533 1794.76001 1869.53613
1829.0 0.000547 1794.51282 1867.74744
1807.0 0.000553 1794.26404 1866.45959
1880.0 0.000532 1794.01367 1865.68652
1863.0 0.000537 1793.76147 1865.45874
1815.0 0.000551 1793.50745 1865.82153
1819.0 0.000550 1793.25159 1866.84607
1823.0 0.000549 1792.99402 1868.62903
1864.0 0.000536 1792.73438 1871.30603
1928.0 0.000519 1792.47290 1875.06458
1907.0 0.000524 1792.20923 1880.16077
1936.0 0.000517 1791.94360 1886.95581
1883.0 0.000531 1791.67590 1895.97266
1859.0 0.000538 1791.40601 1908.03442
1858.0 0.000538 1791.13416 1918.93640
1928.0 0.000519 1790.85999 1944.27039
1959.0 0.000510 1790.58350 1986.54651
2153.0 0.000464 1790.30481 2067.93091
2201.0 0.000454 1790.02368 2232.52710
2563.0 0.000390 1789.74023 2548.83936
3073.0 0.0003254 1789.45459 3086.87500
3882.0 0.0002576 1789.16626 3861.15210
5002.0 0.0001999 1788.87573 4758.62354
5720.0 0.0001748 1788.58252 5487.46973
5957.0 0.0001679 1788.28687 5653.17969
5116.0 0.0001955 1787.98853 5125.97266
4314.0 0.0002318 1787.68762 4260.37891
3466.0 0.0002885 1787.38416 3403.47974
2711.0 0.000369 1787.07800 2750.34961
2288.0 0.000437 1786.76917 2337.03760
2118.0 0.000472 1786.45752 2110.46265
2109.0 0.000474 1786.14319 1996.39917
1984.0 0.000504 1785.82617 1938.58875
1929.0 0.000518 1785.50623 1905.93860
1945.0 0.000514 1785.18347 1884.57300
1921.0 0.000521 1784.85791 1868.98621
1851.0 0.000540 1784.52942 1856.94995
1896.0 0.000527 1784.19800 1847.38403
1840.0 0.000543 1783.86365 1839.64587
1870.0 0.000535 1783.52637 1833.30225
1810.0 0.000552 1783.18604 1828.04309
1853.0 0.000540 1782.84277 1823.64026
1963.0 0.000509 1782.49646 1819.92493
1804.0 0.000554 1782.14709 1816.76965
1882.0 0.000531 1781.79468 1814.07727
1889.0 0.000529 1781.43921 1811.77209
1882.0 0.000531 1781.08057 1809.79810
1770.0 0.000565 1780.71887 1808.10889
1888.0 0.000530 1780.35388 1806.67065
1839.0 0.000544 1779.98596 1805.45703
1852.0 0.000540 1779.61475 1804.44897
1868.0 0.000535 1779.24036 1803.63379
1870.0 0.000535 1778.86279 1803.00342
1796.0 0.000557 1778.48181 1802.55396
1839.0 0.000544 1778.09790 1802.28967
1913.0 0.000523 1777.71045 1802.21582
1822.0 0.000549 1777.31995 1802.34851
1932.0 0.000518 1776.92603 1802.70764
1857.0 0.000539 1776.52893 1803.32312
1850.0 0.000541 1776.12866 1804.23755
1900.0 0.000526 1775.72473 1805.51062
1940.0 0.000515 1775.31787 1807.22742
1760.0 0.000568 1774.90747 1809.52393
1863.0 0.000537 1774.49377 1812.65833
1882.0 0.000531 1774.07678 1817.22668
1823.0 0.000549 1773.65625 1824.66150
1883.0 0.000531 1773.23279 1838.08923
1957.0 0.000511 1772.80566 1863.08508
1995.0 0.000501 1772.37524 1906.94153
1984.0 0.000504 1771.94153 1974.88672
2073.0 0.000482 1771.50427 2063.57666
2138.0 0.000468 1771.06384 2154.63159
2153.0 0.000464 1770.62000 2213.05811
2166.0 0.000462 1770.17273 2208.70020
2131.0 0.000469 1769.72217 2155.38525
2074.0 0.000482 1769.26819 2097.49243
2102.0 0.000476 1768.81091 2077.70166
2123.0 0.000471 1768.35022 2136.53052
2384.0 0.000419 1767.88611 2319.64990
2676.0 0.000374 1767.41858 2670.63721
3137.0 0.0003188 1766.94788 3198.45728
3750.0 0.0002667 1766.47388 3825.98340
4242.0 0.0002357 1765.99634 4363.68799
4380.0 0.0002283 1765.51563 4526.08447
4117.0 0.0002429 1765.03149 4199.67822
3540.0 0.0002825 1764.54395 3593.93140
2896.0 0.0003453 1764.05310 2976.19482
2599.0 0.000385 1763.55896 2494.69800
2198.0 0.000455 1763.06152 2183.76294
2144.0 0.000466 1762.56079 2010.11511
2048.0 0.000488 1762.05664 1921.40308
1970.0 0.000508 1761.54956 1876.09558
1859.0 0.000538 1761.03894 1850.48462
1898.0 0.000527 1760.52502 1833.71838
1846.0 0.000542 1760.00793 1821.42810
1822.0 0.000549 1759.48767 1811.84766
1846.0 0.000542 1758.96411 1804.13562
1781.0 0.000561 1758.43738 1797.79883
1756.0 0.000569 1757.90735 1792.50769
1862.0 0.000537 1757.37427 1788.02405
1869.0 0.000535 1756.83801 1784.17566
1789.0 0.000559 1756.29846 1780.83215
1792.0 0.000558 1755.75586 1777.89465
1772.0 0.000564 1755.21021 1775.28845
1738.0 0.000575 1754.66138 1772.95386
1757.0 0.000569 1754.10950 1770.84424
1780.0 0.000562 1753.55444 1768.92261
1695.0 0.000590 1752.99646 1767.15857
1718.0 0.000582 1752.43555 1765.52869
1795.0 0.000557 1751.87146 1764.01208
1735.0 0.000576 1751.30457 1762.59302
1738.0 0.000575 1750.73450 1761.25793
1769.0 0.000565 1750.16150 1759.99438
1728.0 0.000579 1749.58569 1758.79468
1753.0 0.000570 1749.00684 1757.64941
1715.0 0.000583 1748.42529 1756.55237
1760.0 0.000568 1747.84070 1755.49646
1693.0 0.000591 1747.25342 1754.47803
1766.0 0.000566 1746.66333 1753.49219
1781.0 0.000561 1746.07031 1752.53552
1766.0 0.000566 1745.47449 1751.60437
1677.0 0.000596 1744.87610 1750.69556
1721.0 0.000581 1744.27490 1749.80750
1737.0 0.000576 1743.67102 1748.93738
1687.0 0.000593 1743.06458 1748.08350
1729.0 0.000578 1742.45544 1747.38904
1740.0 0.000575 1741.84363 1746.56763
1632.0 0.000613 1741.22937 1745.75806
1698.0 0.000589 1740.61255 1744.95886
1738.0 0.000575 1739.99304 1743.83765
1712.0 0.000584 1739.37122 1743.06860
1755.0 0.000570 1738.74670 1742.30725
1704.0 0.000587 1738.12000 1741.88318
1701.0 0.000588 1737.49097 1741.14587
1793.0 0.000558 1736.85925 1740.41504
1740.0 0.000575 1736.22534 1739.96765
1706.0 0.000586 1735.58899 1739.25793
1777.0 0.000563 1734.95056 1738.55322
1658.0 0.000603 1734.30969 1737.85449
1768.0 0.000566 1733.66675 1737.16125
1749.0 0.000572 1733.02161 1734.07104
1722.0 0.000581 1732.37427 1733.46887
1681.0 0.000595 1731.72485 1732.86816
1720.0 0.000581 1731.07324 1732.26782
1645.0 0.000608 1730.41956 1731.66943
1719.0 0.000582 1729.76392 1731.07324
1752.0 0.000571 1729.10632 1730.47913
1661.0 0.000602 1728.44666 1729.88782
1653.0 0.000605 1727.78503 1729.29993
1681.0 0.000595 1727.12183 1728.71570
1726.0 0.000579 1726.45667 1728.13647
1673.0 0.000598 1725.78943 1727.56238
1757.0 0.000569 1725.12061 1726.99487
1726.0 0.000579 1724.44995 1726.43420
1771.0 0.000565 1723.77771 1725.88269
1636.0 0.000611 1723.10364 1725.34033
1662.0 0.000602 1722.42786 1724.80994
1700.0 0.000588 1721.75073 1724.29236
1667.0 0.000600 1721.07190 1723.79041
1708.0 0.000585 1720.39160 1723.30591
1735.0 0.000576 1719.70972 1722.84302
1744.0 0.000573 1719.02649 1722.40442
1612.0 0.000620 1718.34180 1721.99512
1747.0 0.000572 1717.65552 1721.62085
1697.0 0.000589 1716.96814 1721.28772
1754.0 0.000570 1716.27930 1721.00549
1730.0 0.000578 1715.58936 1720.78357
1660.0 0.000602 1714.89819 1720.63794
1617.0 0.000618 1714.20557 1720.58521
1738.0 0.000575 1713.51196 1720.65039
1695.0 0.000590 1712.81714 1720.86780
1746.0 0.000573 1712.12134 1721.28809
1721.0 0.000581 1711.42456 1722.00391
1738.0 0.000575 1710.72656 1723.21509
1736.0 0.000576 1710.02783 1725.39746
1710.0 0.000585 1709.32800 1729.61487
1759.0 0.000569 1708.62744 1737.86926
1697.0 0.000589 1707.92603 1753.02856
1695.0 0.000590 1707.22351 1778.02698
1797.0 0.000556 1706.52051 1812.13953
1846.0 0.000542 1705.81665 1850.35132
1838.0 0.000544 1705.11206 1880.53589
1783.0 0.000561 1704.40686 1889.20349
1848.0 0.000541 1703.70117 1878.83740
1770.0 0.000565 1702.99487 1870.27441
1832.0 0.000546 1702.28784 1886.84241
1955.0 0.000512 1701.58044 1939.94397
2035.0 0.000491 1700.87256 2031.53564
2102.0 0.000476 1700.16431 2144.13745
2202.0 0.000454 1699.45557 2239.87744
2352.0 0.000425 1698.74646 2281.12573
2153.0 0.000464 1698.03723 2260.23340
2144.0 0.000466 1697.32776 2183.61450
2007.0 0.000498 1696.61780 2069.95923
1911.0 0.000523 1695.90784 1954.04919
1773.0 0.000564 1695.19763 1860.54907
1770.0 0.000565 1694.48730 1796.30444
1781.0 0.000561 1693.77686 1757.30627
1742.0 0.000574 1693.06653 1735.56702
1710.0 0.000585 1692.35620 1723.69873
1740.0 0.000575 1691.64575 1716.78455
1645.0 0.000608 1690.93555 1712.22632
1700.0 0.000588 1690.22534 1708.85120
1662.0 0.000602 1689.51538 1706.16614
1700.0 0.000588 1688.80554 1703.94678
1663.0 0.000601 1688.09595 1702.07275
1753.0 0.000570 1687.38672 1700.46863
1659.0 0.000603 1686.67761 1699.08057
1690.0 0.000592 1685.96899 1697.87170
1737.0 0.000576 1685.26086 1696.81531
1691.0 0.000591 1684.55298 1695.89355
1700.0 0.000588 1683.84546 1695.09180
1715.0 0.000583 1683.13855 1694.40454
1727.0 0.000579 1682.43213 1693.82629
1684.0 0.000594 1681.72632 1693.35986
1662.0 0.000602 1681.02112 1693.00647
1674.0 0.000597 1680.31665 1692.77588
1650.0 0.000606 1679.61279 1692.67993
1656.0 0.000604 1678.90955 1692.73560
1660.0 0.000602 1678.20715 1692.96765
1644.0 0.000608 1677.50549 1693.40808
1736.0 0.000576 1676.80457 1694.10205
1610.0 0.000621 1676.10449 1695.10950
1663.0 0.000601 1675.40552 1696.51538
1686.0 0.000593 1674.70740 1698.45386
1738.0 0.000575 1674.01013 1701.17029
1679.0 0.000596 1673.31396 1705.20874
1702.0 0.000588 1672.61865 1711.85071
1758.0 0.000569 1671.92456 1723.87476
1865.0 0.000536 1671.23145 1746.28674
1858.0 0.000538 1670.53955 1785.84705
2070.0 0.000483 1669.84863 1847.98657
2108.0 0.000474 1669.15918 1931.20544
2176.0 0.000460 1668.47095 2021.33228
2291.0 0.000436 1667.78369 2089.60107
2367.0 0.000422 1667.09790 2110.52588
2174.0 0.000460 1666.41345 2102.98682
2212.0 0.000452 1665.73035 2124.47070
2236.0 0.000447 1665.04846 2226.39233
2483.0 0.000403 1664.36804 2427.46484
2933.0 0.0003409 1663.68921 2694.16870
3211.0 0.0003114 1663.01184 2929.11328
3184.0 0.0003141 1662.33582 2993.72705
2994.0 0.0003340 1661.66150 2832.46851
2605.0 0.000384 1660.98865 2543.30737
2279.0 0.000439 1660.31738 2250.13745
2059.0 0.000486 1659.64771 2020.57080
1915.0 0.000522 1658.97986 1871.01892
1850.0 0.000541 1658.31360 1785.75049
1799.0 0.000556 1657.64905 1741.25049
1760.0 0.000568 1656.98621 1717.81897
1737.0 0.000576 1656.32507 1704.16296
1763.0 0.000567 1655.66577 1694.99805
1695.0 0.000590 1655.00830 1688.14514
1640.0 0.000610 1654.35266 1682.70251
1643.0 0.000609 1653.69885 1678.23804
1730.0 0.000578 1653.04700 1674.49719
1687.0 0.000593 1652.39709 1671.30786
1599.0 0.000625 1651.74915 1668.54785
1691.0 0.000591 1651.10303 1666.12720
1685.0 0.000593 1650.45898 1663.97778
1614.0 0.000620 1649.81689 1662.04773
1600.0 0.000625 1649.17688 1660.29834
1598.0 0.000626 1648.53894 1658.69751
1652.0 0.000605 1647.90320 1657.22168
1573.0 0.000636 1647.26941 1655.85022
1640.0 0.000610 1646.63782 1654.56848
1654.0 0.000605 1646.00842 1653.36316
1638.0 0.000611 1645.38110 1652.22375
1624.0 0.000616 1644.75598 1651.14185
1608.0 0.000622 1644.13318 1650.10999
1624.0 0.000616 1643.51257 1649.12207
1653.0 0.000605 1642.89417 1648.17468
1631.0 0.000613 1642.27808 1647.26257
1681.0 0.000595 1641.66431 1646.38293
1616.0 0.000619 1641.05286 1645.53235
1651.0 0.000606 1640.44373 1644.71008
1595.0 0.000627 1639.83691 1643.91345
1686.0 0.000593 1639.23242 1643.14246
1737.0 0.000576 1638.63037 1642.39563
1708.0 0.000585 1638.03076 1641.67444
1764.0 0.000567 1637.43347 1640.97974
1717.0 0.000582 1636.83875 1640.31519
1719.0 0.000582 1636.24646 1639.68555
1675.0 0.000597 1635.65662 1639.10425
1620.0 0.000617 1635.06934 1638.60107
1693.0 0.000591 1634.48438 1638.25366
1684.0 0.000594 1633.90198 1638.23145
1669.0 0.000599 1633.32202 1638.84741
1627.0 0.000615 1632.74475 1640.52124
1616.0 0.000619 1632.17004 1643.58948
1577.0 0.000634 1631.59790 1647.59631
1594.0 0.000627 1631.02832 1652.27698
1670.0 0.000599 1630.46118 1655.24829
1716.0 0.000583 1629.89685 1654.35010
1647.0 0.000607 1629.33496 1649.77356
1623.0 0.000616 1628.77576 1643.79578
1661.0 0.000602 1628.21924 1638.31860
1647.0 0.000607 1627.66528 1634.17407
1694.0 0.000590 1627.11414 1630.17432
1611.0 0.000621 1626.56543 1628.43494
1609.0 0.000622 1626.01953 1627.27869
1670.0 0.000599 1625.47632 1626.41211
1650.0 0.000606 1624.93567 1625.67969
1618.0 0.000618 1624.39783 1625.01160
1619.0 0.000618 1623.86255 1624.37952
1653.0 0.000605 1623.33008 1623.77173
1609.0 0.000622 1622.80029 1623.18188
1629.0 0.000614 1622.27332 1622.60632
1640.0 0.000610 1621.74902 1622.04175
1611.0 0.000621 1621.22742 1621.48669
1622.0 0.000617 1620.70862 1620.94019
1635.0 0.000612 1620.19238 1620.40027
1731.0 0.000578 1619.67908 1619.86682
1565.0 0.000639 1619.16846 1619.33875
1591.0 0.000629 1618.66040 1618.81592
1635.0 0.000612 1618.15552 1618.29724
1636.0 0.000611 1617.65308 1617.97290
1631.0 0.000613 1617.15344 1617.46863
1634.0 0.000612 1616.65649 1616.96838
1500.0 0.000667 1616.16248 1616.47217
1630.0 0.000613 1615.67102 1615.98047
1572.0 0.000636 1615.18250 1615.49182
1611.0 0.000621 1614.69666 1615.00708
1553.0 0.000644 1614.21362 1614.64001
1597.0 0.000626 1613.73328 1614.16516
1608.0 0.000622 1613.25574 1613.69470
1652.0 0.000605 1612.78101 1613.22803
1583.0 0.000632 1612.30884 1612.76489
1539.0 0.000650 1611.83972 1612.30554
1618.0 0.000618 1611.37305 1611.85022
1600.0 0.000625 1610.90930 1611.39844
1552.0 0.000644 1610.44812 1610.95032
1556.0 0.000643 1609.98999 1610.50537
1643.0 0.000609 1609.53442 1610.06506
1618.0 0.000618 1609.08154 1609.62805
1606.0 0.000623 1608.63147 1609.19556
1682.0 0.000595 1608.18396 1608.76636
1595.0 0.000627 1607.73938 1608.34167
1591.0 0.000629 1607.29736 1607.92151
1583.0 0.000632 1606.85815 1607.50464
1557.0 0.000642 1606.42163 1607.09253
1600.0 0.000625 1605.98779 1606.68494
1664.0 0.000601 1605.55664 1606.28149
1614.0 0.000620 1605.12805 1605.88330
1565.0 0.000639 1604.70227 1605.48999
1636.0 0.000611 1604.27905 1605.10168
1528.0 0.000654 1603.85852 1604.71814
1553.0 0.000644 1603.44055 1604.34131
1562.0 0.000640 1603.02551 1603.96924
1532.0 0.000653 1602.61279 1603.58093
1664.0 0.000601 1602.20276 1603.22278
1570.0 0.000637 1601.79541 1602.87158
1639.0 0.000610 1601.39063 1602.52759
1613.0 0.000620 1600.98828 1602.19165
1635.0 0.000612 1600.58875 1601.86414
1574.0 0.000635 1600.19153 1601.54626
1553.0 0.000644 1599.79700 1601.23792
1597.0 0.000626 1599.40515 1600.94177
1559.0 0.000641 1599.01550 1600.65698
1573.0 0.000636 1598.62866 1600.38696
1524.0 0.000656 1598.24414 1600.13110
1619.0 0.000618 1597.86218 1599.89307
1590.0 0.000629 1597.48267 1599.67468
1626.0 0.000615 1597.10559 1599.47900
1657.0 0.000604 1596.73096 1599.30994
1587.0 0.000630 1596.35889 1599.17078
1571.0 0.000637 1595.98914 1599.06738
1515.0 0.000660 1595.62170 1599.00659
1573.0 0.000636 1595.25671 1598.99683
1599.0 0.000625 1594.89417 1599.04858
1609.0 0.000622 1594.53381 1599.17651
1639.0 0.000610 1594.17590 1599.39844
1621.0 0.000617 1593.82031 1599.74011
1595.0 0.000627 1593.46716 1600.23438
1585.0 0.000631 1593.11609 1600.92957
1558.0 0.000642 1592.76733 1601.90027
1649.0 0.000606 1592.42090 1603.28101
1575.0 0.000635 1592.07678 1605.37122
1628.0 0.000614 1591.73474 1608.88928
1591.0 0.000629 1591.39490 1615.46912
1587.0 0.000630 1591.05725 1628.26904
1626.0 0.000615 1590.72180 1652.03088
1677.0 0.000596 1590.38867 1691.51794
1660.0 0.000602 1590.05737 1747.82166
1789.0 0.000559 1589.72839 1813.67188
1787.0 0.000560 1589.40137 1869.61121
1839.0 0.000544 1589.07642 1888.20227
1822.0 0.000549 1588.75354 1860.99536
1824.0 0.000548 1588.43274 1812.83179
1791.0 0.000558 1588.11401 1773.16846
1736.0 0.000576 1587.79724 1756.99048
1646.0 0.000608 1587.48230 1763.21521
1774.0 0.000564 1587.16956 1776.88000
1675.0 0.000597 1586.85852 1775.97681
1751.0 0.000571 1586.54944 1750.14502
1803.0 0.000555 1586.24231 1710.04602
1629.0 0.000614 1585.93701 1670.43213
1564.0 0.000639 1585.63354 1639.42004
1573.0 0.000636 1585.33203 1618.81921
1611.0 0.000621 1585.03223 1606.68225
1623.0 0.000616 1584.73413 1599.93872
1616.0 0.000619 1584.43787 1596.08203
1611.0 0.000621 1584.14319 1593.62170
1602.0 0.000624 1583.85046 1591.83875
1570.0 0.000637 1583.55945 1590.42554
1675.0 0.000597 1583.26990 1589.24683
1621.0 0.000617 1582.98206 1588.23755
1564.0 0.000639 1582.69592 1587.35522
1520.0 0.000658 1582.41125 1586.57251
1577.0 0.000634 1582.12830 1585.86804
1649.0 0.000606 1581.84680 1585.22717
1658.0 0.000603 1581.56702 1584.63757
1643.0 0.000609 1581.28857 1584.09082
1563.0 0.000640 1581.01160 1583.58020
1540.0 0.000649 1580.73608 1586.85242
1713.0 0.000584 1580.46216 1586.50830
1639.0 0.000610 1580.18958 1586.19067
1638.0 0.000611 1579.91833 1585.89709
1646.0 0.000608 1579.64844 1585.62524
1654.0 0.000605 1579.37988 1585.37378
1573.0 0.000636 1579.11279 1585.14172
1681.0 0.000595 1578.84692 1584.92676
1623.0 0.000616 1578.58228 1584.72937
1593.0 0.000628 1578.31897 1584.83704
1549.0 0.000646 1578.05688 1584.68103
1580.0 0.000633 1577.79590 1584.54126
1578.0 0.000634 1577.53601 1584.41760
1622.0 0.000617 1577.27747 1584.31042
1635.0 0.000612 1577.01990 1584.22021
1604.0 0.000623 1576.76355 1584.14722
1567.0 0.000638 1576.50830 1584.09192
1574.0 0.000635 1576.25391 1584.05432
1637.0 0.000611 1576.00085 1584.03613
1643.0 0.000609 1575.74866 1584.03833
1645.0 0.000608 1575.49731 1584.06079
1692.0 0.000591 1575.24695 1584.10571
1578.0 0.000634 1574.99768 1584.17493
1613.0 0.000620 1574.74927 1584.26904
1574.0 0.000635 1574.50171 1584.39075
1511.0 0.000662 1574.25488 1584.54114
1636.0 0.000611 1574.00903 1584.72339
1594.0 0.000627 1573.76404 1584.94019
1522.0 0.000657 1573.51978 1585.19385
1546.0 0.000647 1573.27625 1585.48877
1596.0 0.000627 1573.03345 1585.82764
1637.0 0.000611 1572.79126 1586.21545
1606.0 0.000623 1572.54993 1586.65771
1560.0 0.000641 1572.30920 1587.15979
1628.0 0.000614 1572.06909 1587.72766
1520.0 0.000658 1571.82959 1588.36963
1603.0 0.000624 1571.59070 1589.09424
1580.0 0.000633 1571.35229 1589.91052
1596.0 0.000627 1571.11450 1590.83228
1572.0 0.000636 1570.87720 1591.87109
1583.0 0.000632 1570.64038 1593.04395
1628.0 0.000614 1570.40417 1594.17566
1600.0 0.000625 1570.16821 1595.68176
1641.0 0.000609 1569.93286 1597.38879
1610.0 0.000621 1569.69775 1599.32935
1585.0 0.000631 1569.46313 1601.54102
1576.0 0.000635 1569.22876 1604.07104
1623.0 0.000616 1568.99475 1606.97607
1589.0 0.000629 1568.76099 1610.21155
1622.0 0.000617 1568.52759 1614.09937
1640.0 0.000610 1568.29431 1618.63098
1590.0 0.000629 1568.06152 1623.94727
1657.0 0.000604 1567.82874 1630.22852
1618.0 0.000618 1567.59619 1637.70911
1581.0 0.000633 1567.36377 1646.70020
1637.0 0.000611 1567.13159 1657.61804
1656.0 0.000604 1566.89954 1671.03308
1697.0 0.000589 1566.66748 1687.75610
1736.0 0.000576 1566.43555 1709.03894
1622.0 0.000617 1566.20361 1737.13879
1780.0 0.000562 1565.97168 1776.97437
1860.0 0.000538 1565.73987 1840.34351
1974.0 0.000507 1565.50793 1954.29053
2179.0 0.000459 1565.27612 2172.01074
2659.0 0.000376 1565.04407 2576.02539
3361.0 0.0002975 1564.81201 3254.77905
4443.0 0.0002251 1564.57996 4241.27197
5634.0 0.0001775 1564.34753 5428.87012
6840.0 0.0001462 1564.11523 6492.90479
7202.0 0.0001389 1563.88269 6916.68896
6420.0 0.0001558 1563.64990 6418.12256
5441.0 0.0001838 1563.41699 5331.56982
4125.0 0.0002424 1563.18372 4170.41260
3261.0 0.0003067 1562.95032 3242.62451
2624.0 0.000381 1562.71655 2644.68970
2362.0 0.000423 1562.48254 2337.59058
2228.0 0.000449 1562.24841 2223.66846
2235.0 0.000447 1562.01367 2198.53174
2058.0 0.000486 1561.77881 2172.53809
2029.0 0.000493 1561.54346 2097.68750
1976.0 0.000506 1561.30774 1987.34705
1909.0 0.000524 1561.07153 1876.14648
1791.0 0.000558 1560.83508 1785.61243
1663.0 0.000601 1560.59814 1721.83972
1696.0 0.000590 1560.36072 1681.09082
1700.0 0.000588 1560.12280 1655.99011
1584.0 0.000631 1559.88440 1639.95361
1600.0 0.000625 1559.64563 1628.76038
1649.0 0.000606 1559.40613 1620.21387
1603.0 0.000624 1559.16614 1613.28442
1618.0 0.000618 1558.92566 1607.47998
1582.0 0.000632 1558.68445 1602.52881
1577.0 0.000634 1558.44275 1598.25208
1631.0 0.000613 1558.20044 1594.52307
1534.0 0.000652 1557.95752 1591.24280
1552.0 0.000644 1557.71399 1588.33582
1561.0 0.000641 1557.46973 1585.74121
1604.0 0.000623 1557.22473 1583.41150
1575.0 0.000635 1556.97913 1581.30676
1622.0 0.000617 1556.73279 1579.39539
1642.0 0.000609 1556.48584 1577.65039
1682.0 0.000595 1556.23804 1576.04956
1699.0 0.000589 1555.98950 1574.57556
1756.0 0.000569 1555.74023 1573.21240
1659.0 0.000603 1555.49011 1571.94592
1675.0 0.000597 1555.23926 1570.76575
1650.0 0.000606 1554.98755 1569.66187
1608.0 0.000622 1554.73499 1568.62610
1493.0 0.000670 1554.48157 1567.65112
1587.0 0.000630 1554.22742 1566.72925
1535.0 0.000651 1553.97241 1565.85681
1554.0 0.000644 1553.71655 1565.02905
1466.0 0.000682 1553.45972 1564.24072
1509.0 0.000663 1553.20203 1563.48779
1542.0 0.000649 1552.94336 1562.76758
1542.0 0.000649 1552.68396 1562.07703
1554.0 0.000644 1552.42334 1561.41370
1581.0 0.000633 1552.16199 1560.77429
1572.0 0.000636 1551.89966 1560.15784
1585.0 0.000631 1551.63635 1559.56177
1562.0 0.000640 1551.37207 1558.98438
1587.0 0.000630 1551.10669 1558.42419
1565.0 0.000639 1550.84045 1557.87964
1541.0 0.000649 1550.57312 1557.35034
1549.0 0.000646 1550.30481 1556.83398
1538.0 0.000650 1550.03552 1556.32959
1556.0 0.000643 1549.76514 1555.83777
1529.0 0.000654 1549.49377 1555.35535
1503.0 0.000665 1549.22131 1554.88330
1587.0 0.000630 1548.94788 1554.42017
1481.0 0.000675 1548.67322 1553.96509
1476.0 0.000678 1548.39758 1553.51794
1517.0 0.000659 1548.12085 1553.07800
1542.0 0.000649 1547.84302 1552.64478
1448.0 0.000691 1547.56421 1552.21741
1492.0 0.000670 1547.28418 1551.79565
1555.0 0.000643 1547.00305 1551.37976
1510.0 0.000662 1546.72083 1550.96777
1532.0 0.000653 1546.43738 1546.81763
1545.0 0.000647 1546.15295 1546.52100
1534.0 0.000652 1545.86731 1546.34888
1518.0 0.000659 1545.58057 1546.05432
1526.0 0.000655 1545.29272 1545.75964
1532.0 0.000653 1545.00366 1545.46497
1467.0 0.000682 1544.71350 1545.16870
1553.0 0.000644 1544.42212 1544.87219
1554.0 0.000644 1544.12964 1544.67578
1572.0 0.000636 1543.83594 1544.09375
1503.0 0.000665 1543.54114 1543.80762
1525.0 0.000656 1543.24512 1543.52014
1535.0 0.000651 1542.94788 1543.23181
1523.0 0.000657 1542.64966 1542.94287
1460.0 0.000685 1542.35010 1542.65344
1429.0 0.000700 1542.04932 1542.36304
1469.0 0.000681 1541.74744 1542.07202
1525.0 0.000656 1541.44434 1541.78088
1493.0 0.000670 1541.14014 1541.48840
1523.0 0.000657 1540.83459 1541.19568
1528.0 0.000654 1540.52795 1540.90295
1537.0 0.000651 1540.22021 1540.60938
1502.0 0.000666 1539.91113 1540.31494
1521.0 0.000657 1539.60095 1540.02100
1507.0 0.000664 1539.28955 1539.72705
1481.0 0.000675 1538.97693 1539.43250
1488.0 0.000672 1538.66309 1539.13831
1543.0 0.000648 1538.34802 1538.84351
1579.0 0.000633 1538.03186 1538.55005
1607.0 0.000622 1537.71460 1538.25574
1497.0 0.000668 1537.39612 1537.96216
1483.0 0.000674 1537.07629 1537.66992
1599.0 0.000625 1536.75549 1537.37732
1518.0 0.000659 1536.43335 1537.08679
1645.0 0.000608 1536.11011 1536.79663
1745.0 0.000573 1535.78564 1536.50830
1813.0 0.000552 1535.45996 1536.22180
1873.0 0.000534 1535.13318 1535.93713
1793.0 0.000558 1534.80530 1535.65552
1802.0 0.000555 1534.47620 1535.37622
1755.0 0.000570 1534.14587 1535.10071
1666.0 0.000600 1533.81445 1534.82874
1652.0 0.000605 1533.48181 1534.56140
1520.0 0.000658 1533.14807 1534.29968
1591.0 0.000629 1532.81323 1534.04529
1531.0 0.000653 1532.47717 1533.79724
1553.0 0.000644 1532.14001 1533.55786
1464.0 0.000683 1531.80176 1533.32922
1512.0 0.000661 1531.46228 1533.11304
1481.0 0.000675 1531.12183 1532.91125
1512.0 0.000661 1530.78015 1532.72607
1489.0 0.000672 1530.43738 1532.56201
1514.0 0.000661 1530.09351 1532.42297
1542.0 0.000649 1529.74854 1532.31384
1533.0 0.000652 1529.40247 1536.03259
1535.0 0.000651 1529.05554 1536.11877
1505.0 0.000664 1528.70728 1536.26733
1484.0 0.000674 1528.35803 1536.49268
1512.0 0.000661 1528.00769 1536.81653
1469.0 0.000681 1527.65625 1537.26721
1547.0 0.000646 1527.30383 1537.88770
1494.0 0.000669 1526.95044 1538.75085
1534.0 0.000652 1526.59583 1540.00586
1509.0 0.000663 1526.24036 1541.99622
1547.0 0.000646 1525.88391 1545.49585
1551.0 0.000645 1525.52637 1552.03625
1510.0 0.000662 1525.16785 1564.05469
1538.0 0.000650 1524.80835 1584.34485
1584.0 0.000631 1524.44775 1614.40686
1665.0 0.000601 1524.08630 1652.05420
1649.0 0.000606 1523.72400 1689.02844
1724.0 0.000580 1523.36060 1710.77234
1635.0 0.000612 1522.99634 1707.24036
1713.0 0.000584 1522.63110 1687.78027
1687.0 0.000593 1522.26489 1670.46228
1638.0 0.000611 1521.89795 1665.90161
1628.0 0.000614 1521.52991 1673.67590
1597.0 0.000626 1521.16101 1683.01135
1660.0 0.000602 1520.79138 1678.48633
1589.0 0.000629 1520.42078 1655.40344
1588.0 0.000630 1520.04932 1623.57507
1546.0 0.000647 1519.67712 1593.59839
1601.0 0.000625 1519.30396 1570.72449
1573.0 0.000636 1518.93005 1555.79004
1541.0 0.000649 1518.55530 1547.15112
1516.0 0.000660 1518.17969 1542.51648
1514.0 0.000661 1517.80334 1540.06604
1525.0 0.000656 1517.42627 1538.72290
1506.0 0.000664 1517.04846 1537.96399
1509.0 0.000663 1516.66992 1537.56506
1524.0 0.000656 1516.29053 1537.43115
1533.0 0.000652 1515.91040 1537.51917
1484.0 0.000674 1515.52966 1537.80737
1580.0 0.000633 1515.14819 1538.28735
1540.0 0.000649 1514.76599 1538.95850
1482.0 0.000675 1514.38318 1539.82690
1495.0 0.000669 1513.99963 1540.90552
1537.0 0.000651 1513.61548 1542.21313
1530.0 0.000654 1513.23071 1543.77686
1585.0 0.000631 1512.84534 1545.62793
1493.0 0.000670 1512.45935 1547.81152
1506.0 0.000664 1512.07263 1550.37952
1576.0 0.000635 1511.68555 1553.40039
1592.0 0.000628 1511.29785 1556.95886
1573.0 0.000636 1510.90942 1561.16321
1574.0 0.000635 1510.52075 1566.15112
1547.0 0.000646 1510.13135 1572.10120
1487.0 0.000672 1509.74158 1579.24500
1514.0 0.000661 1509.35120 1587.89014
1589.0 0.000629 1508.96033 1598.45032
1610.0 0.000621 1508.56897 1611.49170
1561.0 0.000641 1508.17725 1627.82422
1635.0 0.000612 1507.78503 1648.70850
1700.0 0.000588 1507.39246 1676.44250
1789.0 0.000559 1506.99951 1716.00879
1797.0 0.000556 1506.60608 1779.09607
1895.0 0.000528 1506.21228 1891.66272
2116.0 0.000473 1505.81812 2103.14575
2521.0 0.000397 1505.42371 2487.90234
3113.0 0.0003212 1505.02881 3123.14600
4107.0 0.0002435 1504.63367 4035.07764
5384.0 0.0001857 1504.23828 5125.96582
6222.0 0.0001607 1503.84265 6102.78027
6499.0 0.0001539 1503.44666 6496.00391
5989.0 0.0001670 1503.05029 6043.44678
5014.0 0.0001994 1502.65381 5042.24219
3832.0 0.0002610 1502.25708 3956.45435
2947.0 0.0003393 1501.86023 3062.82935
2381.0 0.000420 1501.46301 2447.29517
2066.0 0.000484 1501.06580 2077.44971
1920.0 0.000521 1500.66833 1874.79724
1771.0 0.000565 1500.27063 1766.44666
1740.0 0.000575 1499.87292 1704.93726
1708.0 0.000585 1499.47510 1665.69812
1610.0 0.000621 1499.07715 1637.75513
1608.0 0.000622 1498.67908 1616.42676
1582.0 0.000632 1498.28088 1613.80017
1534.0 0.000652 1497.88269 1600.53625
1566.0 0.000639 1497.48462 1589.71899
1536.0 0.000651 1497.08630 1580.79712
1490.0 0.000671 1496.68811 1573.23889
1532.0 0.000653 1496.28979 1567.00232
1554.0 0.000644 1495.89160 1561.72900
1587.0 0.000630 1495.49353 1557.24524
1612.0 0.000620 1495.09534 1553.41479
1571.0 0.000637 1494.69727 1556.91650
1513.0 0.000661 1494.29932 1554.29980
1558.0 0.000642 1493.90149 1551.98840
1556.0 0.000643 1493.50366 1550.13525
1511.0 0.000662 1493.10608 1548.59314
1517.0 0.000659 1492.70862 1547.32886
1520.0 0.000658 1492.31128 1546.31409
1548.0 0.000646 1491.91418 1545.52734
1580.0 0.000633 1491.51721 1544.95044
1552.0 0.000644 1491.12048 1544.57068
1592.0 0.000628 1490.72412 1544.37671
1598.0 0.000626 1490.32776 1544.36157
1508.0 0.000663 1489.93176 1544.52051
1443.0 0.000693 1489.53601 1544.84985
1563.0 0.000640 1489.14063 1545.34875
1533.0 0.000652 1488.74548 1546.01843
1511.0 0.000662 1488.35071 1546.86169
1541.0 0.000649 1487.95618 1547.88416
1567.0 0.000638 1487.56201 1549.09216
1465.0 0.000683 1487.16833 1550.49268
1572.0 0.000636 1486.77490 1552.09827
1490.0 0.000671 1486.38184 1553.92139
1550.0 0.000645 1485.98926 1555.97693
1539.0 0.000650 1485.59705 1558.28369
1580.0 0.000633 1485.20532 1560.86206
1563.0 0.000640 1484.81396 1563.73694
1558.0 0.000642 1484.42322 1566.93640
1553.0 0.000644 1484.03296 1570.49390
1518.0 0.000659 1483.64307 1574.44812
1507.0 0.000664 1483.25366 1578.84216
1598.0 0.000626 1482.86487 1583.73047
1626.0 0.000615 1482.47656 1589.17175
1619.0 0.000618 1482.08887 1595.23877
1525.0 0.000656 1481.70166 1602.01575
1579.0 0.000633 1481.31494 1609.60205
1607.0 0.000622 1480.92908 1618.12891
1627.0 0.000615 1480.54370 1627.71460
1631.0 0.000613 1480.15894 1638.54236
1677.0 0.000596 1479.77478 1650.82007
1692.0 0.000591 1479.39124 1664.80139
1587.0 0.000630 1479.00854 1680.80005
1723.0 0.000580 1478.62634 1699.21936
1711.0 0.000584 1478.24487 1720.52063
1745.0 0.000573 1477.86426 1745.33826
1819.0 0.000550 1477.48425 1774.46704
1763.0 0.000567 1477.10486 1808.94385
1846.0 0.000542 1476.72632 1850.13342
1868.0 0.000535 1476.34851 1896.08813
1835.0 0.000545 1475.97144 1957.00110
1937.0 0.000516 1475.59509 2032.63611
2060.0 0.000485 1475.21960 2128.87939
2243.0 0.000446 1474.84509 2256.95996
2434.0 0.000411 1474.47119 2441.77539
2692.0 0.000371 1474.09814 2740.50146
3213.0 0.0003112 1473.72595 3273.46191
4212.0 0.0002374 1473.35461 4252.95117
5986.0 0.0001671 1472.98413 5967.03125
8567.0 0.0001167 1472.61462 8664.33691
12415.0 0.0000805 1472.24585 12332.90527
16820.0 0.0000595 1471.87805 16432.66992
19870.0 0.0000503 1471.51111 19664.81445
20356.0 0.0000491 1471.14526 20334.70117
18106.0 0.0000552 1470.78015 18104.33008
14232.0 0.0000703 1470.41614 14541.04004
11125.0 0.0000899 1470.05286 11329.59961
9210.0 0.0001086 1469.69080 9390.56641
8926.0 0.0001120 1469.32959 8936.40723
9970.0 0.0001003 1468.96936 9621.25293
11092.0 0.0000902 1468.61023 10664.97949
11313.0 0.0000884 1468.25195 11028.74414
10029.0 0.0000997 1467.89478 10093.12695
8168.0 0.0001224 1467.53857 8264.52441
6184.0 0.0001617 1467.18347 6303.39697
4580.0 0.0002183 1466.82935 4677.84521
3508.0 0.0002851 1466.47632 3537.54858
2813.0 0.000355 1466.12427 2831.54785
2404.0 0.000416 1465.77356 2427.21240
2116.0 0.000473 1465.42371 2197.87744
2050.0 0.000488 1465.07495 2061.00977
1931.0 0.000518 1464.72729 1967.04126
1881.0 0.000532 1464.38086 1897.19971
1840.0 0.000543 1464.03552 1842.18542
1791.0 0.000558 1463.69116 1797.47632
1791.0 0.000558 1463.34802 1760.46582
1755.0 0.000570 1463.00610 1729.42090
1658.0 0.000603 1462.66528 1703.09399
1689.0 0.000592 1462.32556 1680.55591
1678.0 0.000596 1461.98718 1661.45251
1584.0 0.000631 1461.64978 1644.53943
1670.0 0.000599 1461.31360 1629.73218
1593.0 0.000628 1460.97864 1616.69202
1656.0 0.000604 1460.64490 1605.14673
1612.0 0.000620 1460.31226 1594.87854
1579.0 0.000633 1459.98096 1585.71106
1614.0 0.000620 1459.65088 1577.50146
1581.0 0.000633 1459.32190 1570.13733
1550.0 0.000645 1458.99414 1563.54285
1501.0 0.000666 1458.66772 1557.68884
1511.0 0.000662 1458.34253 1552.61755
1550.0 0.000645 1458.01855 1548.45886
1462.0 0.000684 1457.69580 1545.39746
1519.0 0.000658 1457.37439 1543.55896
1544.0 0.000648 1457.05420 1542.83008
1533.0 0.000652 1456.73523 1542.65991
1513.0 0.000661 1456.41760 1541.94739
1541.0 0.000649 1456.10120 1539.61670
1582.0 0.000632 1455.78613 1536.04663
1561.0 0.000641 1455.47229 1532.76868
1525.0 0.000656 1455.15967 1530.82153
1452.0 0.000689 1454.84851 1530.12341
1540.0 0.000649 1454.53870 1529.43884
1524.0 0.000656 1454.22998 1527.01746
1550.0 0.000645 1453.92273 1522.43384
1513.0 0.000661 1453.61670 1516.94983
1503.0 0.000665 1453.31201 1511.85095
1518.0 0.000659 1453.00867 1507.76294
1513.0 0.000661 1452.70654 1504.78442
1551.0 0.000645 1452.40588 1502.72437
1631.0 0.000613 1452.10645 1501.31140
1554.0 0.000644 1451.80835 1500.32690
1664.0 0.000601 1451.51160 1499.64417
1654.0 0.000605 1451.21619 1499.20398
1639.0 0.000610 1450.92224 1498.98889
1675.0 0.000597 1450.62939 1499.00220
1590.0 0.000629 1450.33801 1499.25745
1533.0 0.000652 1450.04797 1499.77869
1499.0 0.000667 1449.75928 1500.59546
1544.0 0.000648 1449.47205 1501.74988
1601.0 0.000625 1449.18591 1503.29382
1516.0 0.000660 1448.90125 1505.29529
1504.0 0.000665 1448.61792 1493.42761
1493.0 0.000670 1448.33594 1497.04150
1573.0 0.000636 1448.05530 1501.44958
1564.0 0.000639 1447.77612 1506.85315
1706.0 0.000586 1447.49817 1513.52405
1775.0 0.000563 1447.22168 1521.83826
1799.0 0.000556 1446.94641 1532.34619
1798.0 0.000556 1446.67261 1545.94556
1746.0 0.000573 1446.40015 1557.58765
1794.0 0.000557 1446.12891 1584.86853
1735.0 0.000576 1445.85913 1629.54968
1771.0 0.000565 1445.59070 1709.75366
1943.0 0.000515 1445.32361 1856.92847
2302.0 0.000434 1445.05786 2113.01709
2662.0 0.000376 1444.79346 2513.37622
3287.0 0.0003042 1444.53040 3054.82617
3951.0 0.0002531 1444.26868 3656.94434
4391.0 0.0002277 1444.00830 4127.70410
4344.0 0.0002302 1443.74927 4216.21777
3890.0 0.0002571 1443.49158 3868.92798
3291.0 0.0003039 1443.23523 3308.36523
2703.0 0.000370 1442.98022 2770.45459
2383.0 0.000420 1442.72656 2377.83447
2175.0 0.000460 1442.47424 2156.80396
2084.0 0.000480 1442.22314 2070.71802
2067.0 0.000484 1441.97351 2049.59497
2046.0 0.000489 1441.72510 2017.75598
1990.0 0.000503 1441.47803 1937.74182
1793.0 0.000558 1441.23230 1828.42944
1747.0 0.000572 1440.98792 1722.11719
1571.0 0.000637 1440.74487 1637.01709
1520.0 0.000658 1440.50305 1577.55457
1517.0 0.000659 1440.26245 1539.78210
1549.0 0.000646 1440.02332 1517.22253
1465.0 0.000683 1439.78540 1502.85864
1476.0 0.000678 1439.54883 1493.13342
1444.0 0.000693 1439.31348 1485.91809
1493.0 0.000670 1439.07947 1480.19568
1519.0 0.000658 1438.84668 1475.47900
1470.0 0.000680 1438.61523 1471.52466
1548.0 0.000646 1438.38501 1468.13135
1475.0 0.000678 1438.15613 1465.21875
1468.0 0.000681 1437.92834 1462.66382
1572.0 0.000636 1437.70190 1460.41809
1454.0 0.000688 1437.47668 1458.41614
1520.0 0.000658 1437.25281 1456.64270
1478.0 0.000677 1437.03015 1455.05151
1491.0 0.000671 1436.80872 1453.61548
1485.0 0.000673 1436.58850 1452.31262
1471.0 0.000680 1436.36951 1451.12683
1485.0 0.000673 1436.15173 1450.02747
1468.0 0.000681 1435.93518 1449.03101
1453.0 0.000688 1435.71973 1448.11206
1503.0 0.000665 1435.50562 1447.26331
1432.0 0.000698 1435.29260 1446.47522
1403.0 0.000713 1435.08093 1445.74292
1376.0 0.000727 1434.87036 1445.06042
1483.0 0.000674 1434.66101 1444.42310
1412.0 0.000708 1434.45264 1443.82690
1431.0 0.000699 1434.24561 1443.26855
1461.0 0.000684 1434.03967 1442.74536
1401.0 0.000714 1433.83484 1442.25378
1399.0 0.000715 1433.63123 1441.79407
1424.0 0.000702 1433.42883 1441.36157
1432.0 0.000698 1433.22742 1440.95728
1454.0 0.000688 1433.02722 1440.57861
1398.0 0.000715 1432.82800 1440.22449
1403.0 0.000713 1432.63000 1439.89551
1447.0 0.000691 1432.43298 1439.59106
1448.0 0.000691 1432.23718 1439.31006
1420.0 0.000704 1432.04248 1439.05408
1422.0 0.000703 1431.84888 1438.82227
1394.0 0.000717 1431.65625 1438.61755
1411.0 0.000709 1431.46472 1438.43896
1439.0 0.000695 1431.27417 1438.28992
1478.0 0.000677 1431.08472 1438.17114
1397.0 0.000716 1430.89624 1438.08752
1364.0 0.000733 1430.70886 1438.04077
1358.0 0.000736 1430.52258 1438.03662
1505.0 0.000664 1430.33716 1438.08093
1446.0 0.000692 1430.15295 1438.18079
1388.0 0.000720 1429.96960 1438.34692
1423.0 0.000703 1429.78711 1438.59265
1480.0 0.000676 1429.60571 1438.93750
1365.0 0.000733 1429.42529 1439.41638
1472.0 0.000679 1429.24585 1440.09375
1469.0 0.000681 1429.06738 1441.08948
1418.0 0.000705 1428.88977 1440.37268
1382.0 0.000724 1428.71326 1442.74231
1446.0 0.000692 1428.53760 1446.16541
1377.0 0.000726 1428.36279 1450.73328
1451.0 0.000689 1428.18884 1456.15808
1454.0 0.000688 1428.01587 1461.59912
1536.0 0.000651 1427.84387 1465.92041
1419.0 0.000705 1427.67261 1469.28296
1448.0 0.000691 1427.50232 1474.06616
1503.0 0.000665 1427.33276 1485.70715
1444.0 0.000693 1427.16418 1510.44971
1580.0 0.000633 1426.99646 1556.42993
1649.0 0.000606 1426.82959 1630.55786
1785.0 0.000560 1426.66333 1732.91174
1822.0 0.000549 1426.49805 1849.63232
1989.0 0.000503 1426.33362 1945.96265
1982.0 0.000505 1426.16992 1972.90881
1857.0 0.000539 1426.00708 1913.60950
1791.0 0.000558 1425.84485 1806.94092
1736.0 0.000576 1425.68347 1699.35510
1598.0 0.000626 1425.52295 1615.97876
1487.0 0.000672 1425.36316 1561.21802
1494.0 0.000669 1425.20398 1528.85657
1488.0 0.000672 1425.04565 1508.80554
1449.0 0.000690 1424.88794 1493.41333
1405.0 0.000712 1424.73096 1479.20215
1486.0 0.000673 1424.57471 1466.33069
1427.0 0.000701 1424.41919 1455.81079
1387.0 0.000721 1424.26440 1447.97021
1406.0 0.000711 1424.11011 1442.50293
1416.0 0.000706 1423.95654 1438.80469
1442.0 0.000693 1423.80371 1436.26660
1434.0 0.000697 1423.65149 1434.43091
1366.0 0.000732 1423.49988 1433.01514
1455.0 0.000687 1423.34888 1431.86267
1369.0 0.000730 1423.19849 1430.89368
1449.0 0.000690 1423.04871 1431.80688
1395.0 0.000717 1422.89954 1431.13318
1349.0 0.000741 1422.75098 1430.54871
1394.0 0.000717 1422.60291 1430.03821
1394.0 0.000717 1422.45557 1429.59070
1454.0 0.000688 1422.30859 1429.19556
1468.0 0.000681 1422.16223 1428.84680
1425.0 0.000702 1422.01648 1428.53894
1457.0 0.000686 1421.87109 1428.26611
1429.0 0.000700 1421.72644 1428.02612
1417.0 0.000706 1421.58203 1427.81519
1413.0 0.000708 1421.43835 1427.63062
1492.0 0.000670 1421.29504 1427.47253
1425.0 0.000702 1421.15222 1427.33716
1418.0 0.000705 1421.00989 1427.22522
1376.0 0.000727 1420.86804 1427.13513
1428.0 0.000700 1420.72656 1427.06775
1386.0 0.000722 1420.58557 1427.02209
1445.0 0.000692 1420.44495 1426.99854
1404.0 0.000712 1420.30481 1426.99829
1403.0 0.000713 1420.16504 1427.02100
1369.0 0.000730 1420.02576 1427.06848
1364.0 0.000733 1419.88672 1427.14185
1471.0 0.000680 1419.74829 1427.24353
1379.0 0.000725 1419.61011 1427.37488
1437.0 0.000696 1419.47217 1427.53918
1399.0 0.000715 1419.33472 1427.73901
1362.0 0.000734 1419.19751 1427.97888
1422.0 0.000703 1419.06079 1428.26233
1382.0 0.000724 1418.92432 1428.59509
1411.0 0.000709 1418.78809 1428.98401
1461.0 0.000684 1418.65234 1429.43652
1534.0 0.000652 1418.51672 1429.96228
1425.0 0.000702 1418.38147 1430.57312
1434.0 0.000697 1418.24646 1431.28247
1427.0 0.000701 1418.11182 1432.10938
1468.0 0.000681 1417.97729 1433.07434
1426.0 0.000701 1417.84314 1434.20752
1459.0 0.000685 1417.70923 1435.54419
1392.0 0.000718 1417.57544 1437.12000
1407.0 0.000711 1417.44202 1439.02502
1414.0 0.000707 1417.30872 1441.33398
1405.0 0.000712 1417.17566 1444.17822
1374.0 0.000728 1417.04285 1447.77698
1424.0 0.000702 1416.91016 1452.56958
1436.0 0.000696 1416.77759 1459.51685
1499.0 0.000667 1416.64526 1470.70520
1529.0 0.000654 1416.51318 1490.13928
1512.0 0.000661 1416.38123 1524.14368
1510.0 0.000662 1416.24939 1579.69324
1641.0 0.000609 1416.11768 1662.44250
1712.0 0.000584 1415.98608 1768.01648
1840.0 0.000543 1415.85461 1877.02014
1928.0 0.000519 1415.72339 1949.91174
1901.0 0.000526 1415.59216 1945.99805
1886.0 0.000530 1415.46106 1870.78137
1776.0 0.000563 1415.33008 1768.65417
1691.0 0.000591 1415.19910 1676.08179
1638.0 0.000611 1415.06836 1609.74268
1570.0 0.000637 1414.93750 1572.52893
1478.0 0.000677 1414.80688 1561.08179
1511.0 0.000662 1414.67615 1573.00439
1546.0 0.000647 1414.54565 1612.89685
1667.0 0.000600 1414.41504 1696.13281
1884.0 0.000531 1414.28455 1848.13538
2121.0 0.000471 1414.15405 2095.37964
2405.0 0.000416 1414.02356 2446.50244
2908.0 0.0003439 1413.89307 2866.86084
3398.0 0.0002943 1413.76270 3251.89331
3615.0 0.0002766 1413.63208 3426.85254
3265.0 0.0003063 1413.50171 3278.62573
2889.0 0.0003461 1413.37122 2903.16968
2496.0 0.000401 1413.24072 2477.73828
2004.0 0.000499 1413.11023 2114.70386
1805.0 0.000554 1412.97961 1853.95044
1668.0 0.000600 1412.84912 1689.54541
1562.0 0.000640 1412.71838 1595.00537
1542.0 0.000649 1412.58765 1542.56946
1483.0 0.000674 1412.45691 1512.39734
1448.0 0.000691 1412.32605 1493.29163
1459.0 0.000685 1412.19519 1479.86011
1469.0 0.000681 1412.06421 1469.91895
1398.0 0.000715 1411.93323 1461.89331
1412.0 0.000708 1411.80200 1455.69958
1453.0 0.000688 1411.67078 1450.37036
1383.0 0.000723 1411.53943 1445.93433
1414.0 0.000707 1411.40796 1442.19812
1468.0 0.000681 1411.27637 1439.02039
1440.0 0.000694 1411.14465 1436.29224
1426.0 0.000701 1411.01282 1433.93103
1470.0 0.000680 1410.88098 1431.87268
1471.0 0.000680 1410.74890 1430.06433
1426.0 0.000701 1410.61670 1428.46631
1369.0 0.000730 1410.48425 1427.04614
1410.0 0.000709 1410.35181 1425.77673
1385.0 0.000722 1410.21912 1424.63696
1406.0 0.000711 1410.08630 1423.60889
1357.0 0.000737 1409.95337 1422.67773
1335.0 0.000749 1409.82019 1421.83167
1447.0 0.000691 1409.68689 1421.05957
1399.0 0.000715 1409.55347 1420.35376
1445.0 0.000692 1409.41980 1419.70679
1383.0 0.000723 1409.28589 1419.11169
1422.0 0.000703 1409.15186 1418.56409
1358.0 0.000736 1409.01758 1418.06006
1416.0 0.000706 1408.88318 1417.59497
1376.0 0.000727 1408.74854 1417.16614
1364.0 0.000733 1408.61365 1416.81165
1380.0 0.000725 1408.47864 1416.44910
1395.0 0.000717 1408.34338 1416.11633
1385.0 0.000722 1408.20801 1415.81287
1368.0 0.000731 1408.07227 1415.53723
1415.0 0.000707 1407.93628 1415.28894
1410.0 0.000709 1407.80017 1415.06799
1334.0 0.000750 1407.66382 1414.87561
1400.0 0.000714 1407.52722 1414.71155
1390.0 0.000719 1407.39038 1414.58362
1419.0 0.000705 1407.25330 1414.48328
1480.0 0.000676 1407.11597 1414.41846
1406.0 0.000711 1406.97839 1414.39368
1406.0 0.000711 1406.84058 1414.41406
1417.0 0.000706 1406.70251 1414.48767
1370.0 0.000730 1406.56421 1414.64136
1444.0 0.000693 1406.42566 1414.42053
1371.0 0.000729 1406.28687 1414.74438
1393.0 0.000718 1406.14783 1415.19995
1436.0 0.000696 1406.00854 1415.85559
1402.0 0.000713 1405.86890 1416.85828
1401.0 0.000714 1405.72900 1418.52039
1425.0 0.000702 1405.58887 1421.43567
1507.0 0.000664 1405.44849 1426.53320
1491.0 0.000671 1405.30774 1434.90137
1504.0 0.000665 1405.16687 1447.24451
1475.0 0.000678 1405.02563 1463.03589
1471.0 0.000680 1404.88416 1479.51709
1462.0 0.000684 1404.74231 1490.96289
1522.0 0.000657 1404.60034 1491.25012
1524.0 0.000656 1404.45801 1480.84839
1448.0 0.000691 1404.31543 1464.48706
1474.0 0.000678 1404.17249 1451.28284
1516.0 0.000660 1404.02942 1442.07703
1498.0 0.000668 1403.88599 1437.48730
1595.0 0.000627 1403.74219 1437.23462
1554.0 0.000644 1403.59814 1441.26855
1578.0 0.000634 1403.45386 1450.81396
1563.0 0.000640 1403.30920 1469.14160
1492.0 0.000670 1403.16443 1501.75024
1602.0 0.000624 1403.01917 1555.24707
1677.0 0.000596 1402.87378 1634.29346
1745.0 0.000573 1402.72803 1736.42798
1915.0 0.000522 1402.58191 1845.34448
1901.0 0.000526 1402.43567 1929.33240
1850.0 0.000541 1402.28894 1957.99255
1864.0 0.000536 1402.14209 1919.09558
1743.0 0.000574 1401.99487 1825.69470
1584.0 0.000631 1401.84741 1713.69409
1567.0 0.000638 1401.69958 1613.89673
1454.0 0.000688 1401.55164 1539.00171
1493.0 0.000670 1401.40320 1489.45227
1466.0 0.000682 1401.25452 1459.57007
1450.0 0.000690 1401.10559 1442.43738
1429.0 0.000700 1400.95642 1432.53345
1414.0 0.000707 1400.80688 1426.41125
1431.0 0.000699 1400.65710 1422.26147
1437.0 0.000696 1400.50696 1419.23083
1436.0 0.000696 1400.35657 1416.93140
1406.0 0.000711 1400.20593 1415.18481
1399.0 0.000715 1400.05505 1413.92712
1402.0 0.000713 1399.90381 1413.20056
1403.0 0.000713 1399.75232 1413.20569
1420.0 0.000704 1399.60046 1414.33801
1367.0 0.000732 1399.44849 1417.16455
1375.0 0.000727 1399.29602 1422.21216
1388.0 0.000720 1399.14343 1429.55322
1471.0 0.000680 1398.99060 1438.26538
1477.0 0.000677 1398.83740 1445.86572
1463.0 0.000684 1398.68396 1448.50732
1430.0 0.000699 1398.53015 1444.19177
1418.0 0.000705 1398.37622 1435.43701
1421.0 0.000704 1398.22192 1426.05640
1428.0 0.000700 1398.06738 1418.36633
1392.0 0.000718 1397.91260 1413.19775
1434.0 0.000697 1397.75757 1410.44165
1453.0 0.000688 1397.60217 1409.52429
1410.0 0.000709 1397.44666 1409.74817
1464.0 0.000683 1397.29077 1410.44055
1482.0 0.000675 1397.13464 1411.15125
1458.0 0.000686 1396.97827 1412.04382
1510.0 0.000662 1396.82166 1413.64673
1456.0 0.000687 1396.66479 1416.07446
1499.0 0.000667 1396.50769 1418.60840
1461.0 0.000684 1396.35034 1419.67761
1443.0 0.000693 1396.19263 1417.98657
1429.0 0.000700 1396.03479 1414.12341
1422.0 0.000703 1395.87671 1409.69214
1359.0 0.000736 1395.71838 1405.80286
1344.0 0.000744 1395.55969 1402.88525
1405.0 0.000712 1395.40088 1400.92480
1375.0 0.000727 1395.24194 1399.69067
1398.0 0.000715 1395.08264 1398.91638
1398.0 0.000715 1394.92310 1398.40039
1402.0 0.000713 1394.76343 1398.02332
1386.0 0.000722 1394.60352 1397.72461
1375.0 0.000727 1394.44324 1397.47815
1457.0 0.000686 1394.28284 1397.27271
1378.0 0.000726 1394.12219 1397.03455
1383.0 0.000723 1393.96143 1396.89954
1413.0 0.000708 1393.80042 1396.79846
1409.0 0.000710 1393.63916 1396.73425
1359.0 0.000736 1393.47766 1396.71008
1365.0 0.000733 1393.31604 1396.73352
1417.0 0.000706 1393.15417 1396.81323
1456.0 0.000687 1392.99207 1396.96350
1382.0 0.000724 1392.82983 1397.20264
1365.0 0.000733 1392.66736 1397.56152
1374.0 0.000728 1392.50476 1398.09094
1392.0 0.000718 1392.34192 1398.89587
1463.0 0.000684 1392.17896 1400.20337
1393.0 0.000718 1392.01575 1402.50085
1366.0 0.000732 1391.85242 1406.70984
1446.0 0.000692 1391.68884 1414.04309
1443.0 0.000693 1391.52515 1426.68359
1451.0 0.000689 1391.36133 1445.24268
1488.0 0.000672 1391.19727 1469.62744
1527.0 0.000655 1391.03308 1495.39319
1585.0 0.000631 1390.86865 1513.66479
1528.0 0.000654 1390.70410 1522.40149
1439.0 0.000695 1390.53955 1504.98511
1484.0 0.000674 1390.37463 1479.30579
1428.0 0.000700 1390.20972 1454.55566
1481.0 0.000675 1390.04456 1435.17041
1412.0 0.000708 1389.87927 1422.04675
1371.0 0.000729 1389.71387 1414.11621
1425.0 0.000702 1389.54834 1409.67456
1419.0 0.000705 1389.38269 1407.24207
1373.0 0.000728 1389.21680 1405.86292
1399.0 0.000715 1389.05078 1405.02539
1378.0 0.000726 1388.88477 1404.49023
1444.0 0.000693 1388.71863 1404.14819
1397.0 0.000716 1388.55225 1403.94580
1421.0 0.000704 1388.38586 1403.85352
1406.0 0.000711 1388.21924 1417.62561
1463.0 0.000684 1388.05261 1418.10815
1427.0 0.000701 1387.88574 1418.67798
1384.0 0.000723 1387.71887 1419.33008
1360.0 0.000735 1387.55200 1420.02209
1440.0 0.000694 1387.38489 1420.83594
1418.0 0.000705 1387.21765 1421.72852
1388.0 0.000720 1387.05042 1422.70386
1471.0 0.000680 1386.88306 1423.76367
1377.0 0.000726 1386.71558 1424.91174
1381.0 0.000724 1386.54810 1426.15356
1426.0 0.000701 1386.38037 1427.49426
1354.0 0.000739 1386.21277 1428.94128
1432.0 0.000698 1386.04492 1430.50305
1406.0 0.000711 1385.87708 1432.18176
1504.0 0.000665 1385.70911 1433.99963
1394.0 0.000717 1385.54126 1435.96191
1417.0 0.000706 1385.37305 1438.08289
1474.0 0.000678 1385.20496 1440.37793
1464.0 0.000683 1385.03687 1442.86279
1464.0 0.000683 1384.86853 1445.54053
1470.0 0.000680 1384.70020 1448.46936
1505.0 0.000664 1384.53186 1451.65613
1481.0 0.000675 1384.36353 1455.13098
1566.0 0.000639 1384.19507 1458.92688
1589.0 0.000629 1384.02649 1463.08569
1553.0 0.000644 1383.85791 1467.65076
1590.0 0.000629 1383.68933 1472.67688
1594.0 0.000627 1383.52075 1478.22729
1553.0 0.000644 1383.35205 1484.37659
1615.0 0.000619 1383.18335 1491.21411
1512.0 0.000661 1383.01465 1498.84631
1532.0 0.000653 1382.84583 1507.40173
1595.0 0.000627 1382.67712 1517.03711
1462.0 0.000684 1382.50818 1527.99683
1466.0 0.000682 1382.33936 1540.41675
1500.0 0.000667 1382.17053 1554.64502
1618.0 0.000618 1382.00171 1571.05798
1560.0 0.000641 1381.83276 1590.13831
1628.0 0.000614 1381.66382 1612.52576
1653.0 0.000605 1381.49487 1639.01599
1620.0 0.000617 1381.32605 1670.73340
1662.0 0.000602 1381.15698 1709.23547
1766.0 0.000566 1380.98804 1756.87854
1861.0 0.000537 1380.81909 1817.74927
2001.0 0.000500 1380.65015 1900.03687
2098.0 0.000477 1380.48120 2021.39294
2387.0 0.000419 1380.31226 2218.52222
2880.0 0.0003472 1380.14319 2558.79443
3498.0 0.0002859 1379.97437 3143.86279
4465.0 0.0002240 1379.80542 4087.98169
5713.0 0.0001750 1379.63647 5459.00244
7330.0 0.0001364 1379.46753 7189.44580
8729.0 0.0001146 1379.29858 8970.32422
9760.0 0.0001025 1379.12964 10171.66211
9631.0 0.0001038 1378.96069 10130.01953
8577.0 0.0001166 1378.79187 8899.14551
6935.0 0.0001442 1378.62305 7179.53076
5441.0 0.0001838 1378.45410 5572.09863
4453.0 0.0002246 1378.28528 4360.62793
3768.0 0.0002654 1378.11646 3607.55518
3344.0 0.0002990 1377.94775 3268.22900
3389.0 0.0002951 1377.77893 3293.97607
3787.0 0.0002641 1377.61023 3706.13672
4542.0 0.0002202 1377.44141 4614.08936
5998.0 0.0001667 1377.27271 6170.23779
8381.0 0.0001193 1377.10413 8451.24707
11543.0 0.0000866 1376.93542 11298.39648
14236.0 0.0000702 1376.76685 14134.13965
16257.0 0.0000615 1376.59827 15856.41602
15258.0 0.0000655 1376.42969 15436.98535
12926.0 0.0000774 1376.26111 13136.24023
9710.0 0.0001030 1376.09265 10147.53418
7417.0 0.0001348 1375.92419 7400.02930
5214.0 0.0001918 1375.75574 5299.31836
3941.0 0.0002537 1375.58728 3892.92432
3137.0 0.0003188 1375.41895 3040.32227
2664.0 0.000375 1375.25061 2551.09155
2297.0 0.000435 1375.08228 2268.47681
2143.0 0.000467 1374.91406 2093.53052
1926.0 0.000519 1374.74585 1974.10486
1869.0 0.000535 1374.57764 1885.54175
1789.0 0.000559 1374.40942 1816.36584
1791.0 0.000558 1374.24133 1760.72266
1688.0 0.000592 1374.07324 1715.14917
1692.0 0.000591 1373.90515 1677.32349
1635.0 0.000612 1373.73706 1645.58313
1624.0 0.000616 1373.56909 1618.69336
1662.0 0.000602 1373.40112 1595.72205
1693.0 0.000591 1373.23315 1575.95557
1601.0 0.000625 1373.06531 1558.83936
1537.0 0.000651 1372.89746 1543.94507
1568.0 0.000638 1372.72961 1530.93970
1549.0 0.000646 1372.56189 1519.57629
1496.0 0.000668 1372.39404 1509.70386
1447.0 0.000691 1372.22632 1501.29529
1495.0 0.000669 1372.05872 1494.51392
1545.0 0.000647 1371.89099 1489.75305
1525.0 0.000656 1371.72339 1487.58740
1536.0 0.000651 1371.55579 1488.52686
1439.0 0.000695 1371.38818 1492.56299
1578.0 0.000634 1371.22070 1498.60107
1551.0 0.000645 1371.05310 1503.82507
1504.0 0.000665 1370.88562 1503.98242
1448.0 0.000691 1370.71826 1497.03149
1453.0 0.000688 1370.55078 1485.92749
1503.0 0.000665 1370.38342 1474.81140
1498.0 0.000668 1370.21594 1465.70276
1453.0 0.000688 1370.04858 1458.40161
1441.0 0.000694 1369.88123 1451.61377
1461.0 0.000684 1369.71399 1444.76709
1393.0 0.000718 1369.54663 1438.35388
1415.0 0.000707 1369.37927 1432.89343
1417.0 0.000706 1369.21204 1428.57544
1445.0 0.000692 1369.04480 1425.35071
1422.0 0.000703 1368.87756 1423.04224
1378.0 0.000726 1368.71033 1421.44824
1404.0 0.000712 1368.54321 1420.41431
1416.0 0.000706 1368.37598 1419.86353
1315.0 0.000760 1368.20874 1419.79089
1425.0 0.000702 1368.04150 1420.25098
1364.0 0.000733 1367.87439 1421.36414
1406.0 0.000711 1367.70715 1423.35913
1467.0 0.000682 1367.53992 1426.71204
1445.0 0.000692 1367.37280 1424.28943
1417.0 0.000706 1367.20569 1434.80798
1391.0 0.000719 1367.03845 1453.90039
1487.0 0.000672 1366.87122 1487.81592
1487.0 0.000672 1366.70398 1543.95007
1692.0 0.000591 1366.53687 1627.46826
1768.0 0.000566 1366.36963 1735.91565
1792.0 0.000558 1366.20239 1852.57617
1918.0 0.000521 1366.03516 1940.12939
1885.0 0.000531 1365.86792 1952.08411
1817.0 0.000550 1365.70056 1880.15698
1759.0 0.000569 1365.53333 1765.51025
1639.0 0.000610 1365.36597 1654.80005
1515.0 0.000660 1365.19861 1562.22095
1436.0 0.000696 1365.03113 1497.35742
1374.0 0.000728 1364.86377 1442.92773
1373.0 0.000728 1364.69629 1419.37024
1447.0 0.000691 1364.52881 1405.87415
1354.0 0.000739 1364.36133 1397.77747
1419.0 0.000705 1364.19385 1392.46069
1350.0 0.000741 1364.02625 1388.63892
1431.0 0.000699 1363.85852 1385.71411
1377.0 0.000726 1363.69080 1383.39392
1411.0 0.000709 1363.52307 1381.51465
1405.0 0.000712 1363.35522 1379.97192
1405.0 0.000712 1363.18750 1378.69153
1360.0 0.000735 1363.01953 1377.62097
1406.0 0.000711 1362.85168 1376.71936
1381.0 0.000724 1362.68359 1375.95642
1396.0 0.000716 1362.51550 1375.30835
1392.0 0.000718 1362.34729 1374.75647
1405.0 0.000712 1362.17920 1374.28735
1403.0 0.000713 1362.01074 1373.88965
1342.0 0.000745 1361.84241 1373.55383
1323.0 0.000756 1361.67407 1373.27319
1374.0 0.000728 1361.50549 1373.04138
1436.0 0.000696 1361.33691 1372.85559
1357.0 0.000737 1361.16821 1372.70996
1324.0 0.000755 1360.99951 1372.60461
1307.0 0.000765 1360.83044 1372.53528
1325.0 0.000755 1360.66162 1372.50146
1429.0 0.000700 1360.49243 1372.60278
1382.0 0.000724 1360.32336 1372.63928
1337.0 0.000748 1360.15405 1372.70935
1268.0 0.000789 1359.98462 1372.81287
1323.0 0.000756 1359.81519 1372.95105
1355.0 0.000738 1359.64563 1373.12427
1419.0 0.000705 1359.47595 1373.33435
1374.0 0.000728 1359.30615 1373.53101
1363.0 0.000734 1359.13623 1373.82104
1409.0 0.000710 1358.96606 1374.15295
1391.0 0.000719 1358.79590 1374.53076
1363.0 0.000734 1358.62561 1374.95667
1395.0 0.000717 1358.45520 1375.43494
1359.0 0.000736 1358.28467 1375.95508
1315.0 0.000760 1358.11389 1376.55176
1402.0 0.000713 1357.94312 1377.21533
1330.0 0.000752 1357.77209 1377.95215
1352.0 0.000740 1357.60095 1378.76990
1374.0 0.000728 1357.42969 1379.67615
1351.0 0.000740 1357.25830 1380.68152
1394.0 0.000717 1357.08667 1381.79834
1376.0 0.000727 1356.91492 1383.03784
1343.0 0.000745 1356.74304 1384.41431
1321.0 0.000757 1356.57092 1385.94849
1402.0 0.000713 1356.39880 1387.65747
1352.0 0.000740 1356.22632 1389.56689
1378.0 0.000726 1356.05383 1391.70459
1382.0 0.000724 1355.88110 1394.10535
1353.0 0.000739 1355.70825 1396.80713
1448.0 0.000691 1355.53516 1399.85974
1403.0 0.000713 1355.36182 1403.31921
1351.0 0.000740 1355.18848 1407.25769
1374.0 0.000728 1355.01477 1411.76025
1484.0 0.000674 1354.84106 1416.93396
1449.0 0.000690 1354.66699 1422.91162
1467.0 0.000682 1354.49280 1429.85938
1431.0 0.000699 1354.31848 1437.98938
1419.0 0.000705 1354.14380 1447.01038
1461.0 0.000684 1353.96912 1458.42139
1471.0 0.000680 1353.79419 1472.10852
1552.0 0.000644 1353.61902 1488.70422
1483.0 0.000674 1353.44348 1509.08850
1513.0 0.000661 1353.26794 1534.57239
1494.0 0.000669 1353.09204 1567.36365
1593.0 0.000628 1352.91614 1611.73071
1674.0 0.000597 1352.73987 1676.67883
1807.0 0.000553 1352.56348 1780.94080
1892.0 0.000529 1352.38672 1959.77148
2235.0 0.000447 1352.20984 2268.73828
2805.0 0.000357 1352.03271 2776.69434
3662.0 0.0002731 1351.85535 3538.04688
4564.0 0.0002191 1351.67786 4546.02051
5852.0 0.0001709 1351.49988 5673.23535
6880.0 0.0001453 1351.32190 6606.57031
6978.0 0.0001433 1351.14368 6897.75195
6279.0 0.0001593 1350.96509 6360.72119
5148.0 0.0001943 1350.78638 5319.63232
4153.0 0.0002408 1350.60742 4205.94141
3158.0 0.0003167 1350.42822 3268.82666
2576.0 0.000388 1350.24866 2590.46631
2225.0 0.000449 1350.06897 2152.43652
1942.0 0.000515 1349.88904 1891.51831
1838.0 0.000544 1349.70886 1741.13904
1708.0 0.000585 1349.52844 1652.01697
1606.0 0.000623 1349.34766 1594.87305
1598.0 0.000626 1349.16675 1554.73425
1566.0 0.000639 1348.98547 1524.51563
1510.0 0.000662 1348.80396 1500.80664
1474.0 0.000678 1348.62231 1481.77454
1507.0 0.000664 1348.44031 1466.29163
1438.0 0.000695 1348.25806 1453.58997
1462.0 0.000684 1348.07556 1443.13013
1434.0 0.000697 1347.89282 1434.53577
1401.0 0.000714 1347.70972 1427.58191
1408.0 0.000710 1347.52649 1422.22766
1421.0 0.000704 1347.34290 1418.71216
1516.0 0.000660 1347.15918 1417.71436
1389.0 0.000720 1346.97510 1420.45654
1354.0 0.000739 1346.79077 1428.56226
1458.0 0.000686 1346.60608 1443.43152
1440.0 0.000694 1346.42126 1465.11731
1539.0 0.000650 1346.23621 1490.86487
1499.0 0.000667 1346.05066 1513.42322
1505.0 0.000664 1345.86511 1521.44946
1438.0 0.000695 1345.67920 1508.46069
1531.0 0.000653 1345.49292 1481.12634
1430.0 0.000699 1345.30652 1450.69812
1371.0 0.000729 1345.11975 1424.25012
1399.0 0.000715 1344.93274 1404.38904
1420.0 0.000704 1344.74548 1390.93896
1362.0 0.000734 1344.55798 1382.39404
1378.0 0.000726 1344.37024 1377.02795
1358.0 0.000736 1344.18213 1373.50439
1387.0 0.000721 1343.99377 1371.00183
1385.0 0.000722 1343.80518 1369.08521
1343.0 0.000745 1343.61633 1367.53845
1403.0 0.000713 1343.42725 1366.23413
1349.0 0.000741 1343.23792 1365.07556
1294.0 0.000773 1343.04822 1363.98450
1276.0 0.000784 1342.85840 1362.94348
1328.0 0.000753 1342.66821 1361.98193
1327.0 0.000754 1342.47778 1361.12573
1344.0 0.000744 1342.28711 1360.38184
1375.0 0.000727 1342.09631 1359.74768
1394.0 0.000717 1341.90503 1359.21436
1306.0 0.000766 1341.71362 1358.76978
1395.0 0.000717 1341.52197 1358.40784
1347.0 0.000742 1341.32996 1358.12341
1334.0 0.000750 1341.13782 1357.91663
1365.0 0.000733 1340.94543 1357.78979
1352.0 0.000740 1340.75269 1357.74646
1368.0 0.000731 1340.55981 1357.79480
1325.0 0.000755 1340.36670 1357.94287
1376.0 0.000727 1340.17334 1358.25610
1352.0 0.000740 1339.97961 1358.64673
1353.0 0.000739 1339.78577 1359.18628
1353.0 0.000739 1339.59167 1359.90308
1376.0 0.000727 1339.39746 1360.83228
1357.0 0.000737 1339.20288 1362.02258
1347.0 0.000742 1339.00818 1363.54712
1369.0 0.000730 1338.81311 1365.52307
1336.0 0.000749 1338.61792 1368.16675
1364.0 0.000733 1338.42261 1371.88525
1353.0 0.000739 1338.22681 1377.36597
1423.0 0.000703 1338.03101 1385.71350
1433.0 0.000698 1337.83496 1398.31726
1420.0 0.000704 1337.63867 1416.46753
1453.0 0.000688 1337.44226 1440.73840
1489.0 0.000672 1337.24561 1470.36218
1491.0 0.000671 1337.04871 1502.80298
1562.0 0.000640 1336.85181 1535.32642
1597.0 0.000626 1336.65466 1572.37708
1624.0 0.000616 1336.45728 1629.77527
1764.0 0.000567 1336.25964 1724.64343
1855.0 0.000539 1336.06189 1863.08203
2088.0 0.000479 1335.86414 2031.31177
2153.0 0.000464 1335.66602 2186.25342
2171.0 0.000461 1335.46777 2252.72559
2133.0 0.000469 1335.26941 2191.58398
2007.0 0.000498 1335.07092 2033.97424
1887.0 0.000530 1334.87219 1850.76465
1762.0 0.000568 1334.67334 1689.08777
1549.0 0.000646 1334.47449 1567.43250
1496.0 0.000668 1334.27539 1486.06982
1464.0 0.000683 1334.07617 1436.16870
1401.0 0.000714 1333.87683 1406.88281
1304.0 0.000767 1333.67737 1389.47522
1361.0 0.000735 1333.47791 1378.40784
1373.0 0.000728 1333.27820 1370.70532
1412.0 0.000708 1333.07849 1364.91882
1391.0 0.000719 1332.87866 1360.35303
1339.0 0.000747 1332.67871 1356.79443
1368.0 0.000731 1332.47876 1353.72791
1369.0 0.000730 1332.27869 1351.15320
1289.0 0.000776 1332.07849 1348.96570
1352.0 0.000740 1331.87830 1347.08679
1346.0 0.000743 1331.67810 1345.45715
1360.0 0.000735 1331.47766 1344.03040
1296.0 0.000772 1331.27734 1342.77087
1360.0 0.000735 1331.07690 1341.68457
1327.0 0.000754 1330.87646 1340.68250
1298.0 0.000770 1330.67603 1339.77917
1378.0 0.000726 1330.47559 1338.96082
1284.0 0.000779 1330.27515 1338.21509
1335.0 0.000749 1330.07458 1337.53223
1348.0 0.000742 1329.87415 1336.90332
1383.0 0.000723 1329.67358 1336.22192
1379.0 0.000725 1329.47314 1335.68616
1347.0 0.000742 1329.27271 1335.19055
1385.0 0.000722 1329.07239 1334.72791
1352.0 0.000740 1328.87195 1334.29773
1329.0 0.000752 1328.67163 1333.89612
1356.0 0.000737 1328.47144 1333.52222
1293.0 0.000773 1328.27124 1333.17346
1318.0 0.000759 1328.07117 1332.85095
1319.0 0.000758 1327.87109 1332.55273
1297.0 0.000771 1327.67114 1332.27881
1376.0 0.000727 1327.47119 1332.03223
1318.0 0.000759 1327.27148 1331.81213
1297.0 0.000771 1327.07178 1331.62109
1311.0 0.000763 1326.87231 1331.46423
1333.0 0.000750 1326.67297 1331.34448
1326.0 0.000754 1326.47375 1331.27087
1284.0 0.000779 1326.27466 1331.25110
1341.0 0.000746 1326.07568 1331.30151
1294.0 0.000773 1325.87695 1331.44495
1359.0 0.000736 1325.67822 1331.72449
1403.0 0.000713 1325.47986 1332.22998
1418.0 0.000705 1325.28174 1333.15820
1373.0 0.000728 1325.08362 1334.83948
1404.0 0.000712 1324.88586 1337.87207
1316.0 0.000760 1324.68823 1343.04333
1339.0 0.000747 1324.49084 1351.11169
1361.0 0.000735 1324.29370 1362.34131
1484.0 0.000674 1324.09680 1375.86877
1472.0 0.000679 1323.90027 1388.92310
1382.0 0.000724 1323.70386 1396.47424
1465.0 0.000683 1323.50793 1394.20056
1381.0 0.000724 1323.31201 1383.64648
1422.0 0.000703 1323.11658 1370.28699
1365.0 0.000733 1322.92139 1358.38440
1363.0 0.000734 1322.72656 1349.89880
1324.0 0.000755 1322.53198 1346.52954
1356.0 0.000737 1322.33789 1344.79553
1336.0 0.000749 1322.14404 1344.70142
1298.0 0.000770 1321.95056 1344.64063
1361.0 0.000735 1321.75745 1343.56299
1306.0 0.000766 1321.56470 1341.78516
1390.0 0.000719 1321.37244 1340.31042
1355.0 0.000738 1321.18042 1339.80371
1360.0 0.000735 1320.98901 1340.33435
1319.0 0.000758 1320.79785 1341.35425
1318.0 0.000759 1320.60718 1341.77136
1280.0 0.000781 1320.41711 1340.59546
1331.0 0.000751 1320.22729 1338.20520
1356.0 0.000737 1320.03809 1335.46240
1399.0 0.000715 1319.84924 1333.06738
1347.0 0.000742 1319.66101 1331.32434
1319.0 0.000758 1319.47314 1330.27209
1342.0 0.000745 1319.28589 1329.81360
1330.0 0.000752 1319.09912 1329.14978
1278.0 0.000782 1318.91296 1329.53638
1330.0 0.000752 1318.72729 1330.25708
1357.0 0.000737 1318.54211 1331.36169
1390.0 0.000719 1318.35767 1333.02356
1357.0 0.000737 1318.17371 1335.64380
1312.0 0.000762 1317.99036 1340.02075
1375.0 0.000727 1317.80762 1347.55872
1415.0 0.000707 1317.62549 1360.28760
1405.0 0.000712 1317.44397 1380.43396
1443.0 0.000693 1317.26318 1409.35388
1399.0 0.000715 1317.08301 1445.93860
1437.0 0.000696 1316.90344 1484.59778
1467.0 0.000682 1316.72461 1513.34058
1479.0 0.000676 1316.54639 1517.72266
1411.0 0.000709 1316.36902 1495.56067
1448.0 0.000691 1316.19226 1460.13208
1425.0 0.000702 1316.01624 1425.46509
1327.0 0.000754 1315.84106 1399.19336
1364.0 0.000733 1315.66650 1383.61108
1296.0 0.000772 1315.49280 1377.44141
1427.0 0.000701 1315.31982 1377.07178
1376.0 0.000727 1315.14771 1377.44702
1341.0 0.000746 1314.97620 1374.01685
1331.0 0.000751 1314.80566 1366.09094
1347.0 0.000742 1314.63599 1356.32092
1370.0 0.000730 1314.46704 1347.22363
1307.0 0.000765 1314.29907 1340.01184
1323.0 0.000756 1314.13184 1334.92578
1300.0 0.000769 1313.96570 1331.65710
1292.0 0.000774 1313.80017 1329.69824
1305.0 0.000766 1313.63574 1328.57715
1346.0 0.000743 1313.47205 1327.96179
1329.0 0.000752 1313.30945 1327.66138
1362.0 0.000734 1313.14771 1327.57678
1308.0 0.000765 1312.98694 1327.66565
1336.0 0.000749 1312.82727 1327.90771
1317.0 0.000759 1312.66833 1328.29602
1330.0 0.000752 1312.51062 1328.83557
1292.0 0.000774 1312.35376 1329.53455
1280.0 0.000781 1312.19788 1330.41040
1338.0 0.000747 1312.04321 1331.52686
1370.0 0.000730 1311.88940 1332.86401
1298.0 0.000770 1311.73682 1334.53992
1413.0 0.000708 1311.58508 1336.68921
1335.0 0.000749 1311.43457 1339.50525
1304.0 0.000767 1311.28516 1343.21460
1397.0 0.000716 1311.13684 1348.00989
1387.0 0.000721 1310.98962 1353.93481
1325.0 0.000755 1310.84351 1360.75146
1343.0 0.000745 1310.69849 1367.82544
1365.0 0.000733 1310.55481 1374.15161
1395.0 0.000717 1310.41223 1379.68237
1387.0 0.000721 1310.27063 1385.75208
1383.0 0.000723 1310.13049 1394.28284
1435.0 0.000697 1309.99146 1407.68115
1432.0 0.000698 1309.85364 1429.15918
1437.0 0.000696 1309.71704 1465.40527
1468.0 0.000681 1309.58167 1527.86255
1634.0 0.000612 1309.44751 1633.51111
1743.0 0.000574 1309.31482 1802.08875
1988.0 0.000503 1309.18323 2047.32922
2343.0 0.000427 1309.05298 2363.89233
2757.0 0.000363 1308.92395 2710.28027
3017.0 0.0003315 1308.79639 2989.98096
3017.0 0.0003315 1308.67004 3070.25195
2832.0 0.000353 1308.54504 2901.45435
2428.0 0.000412 1308.42151 2581.38062
2144.0 0.000466 1308.29932 2237.70972
1945.0 0.000514 1308.17847 1944.83960
1706.0 0.000586 1308.05896 1728.45361
1553.0 0.000644 1307.94080 1584.90918
1536.0 0.000651 1307.82422 1496.80212
1457.0 0.000686 1307.70898 1444.64404
1469.0 0.000681 1307.59509 1413.21826
1360.0 0.000735 1307.48279 1392.97766
1316.0 0.000760 1307.37195 1378.80188
1353.0 0.000739 1307.26257 1368.14417
1332.0 0.000751 1307.15454 1359.75952
1355.0 0.000738 1307.04810 1352.98413
1343.0 0.000745 1306.94312 1347.41455
1346.0 0.000743 1306.83972 1342.77759
1348.0 0.000742 1306.73792 1338.87537
1390.0 0.000719 1306.63757 1335.56030
1335.0 0.000749 1306.53870 1332.72046
1317.0 0.000759 1306.44153 1330.26929
1331.0 0.000751 1306.34583 1328.13904
1341.0 0.000746 1306.25183 1326.27600
1361.0 0.000735 1306.15942 1324.63684
1317.0 0.000759 1306.06848 1323.18799
1392.0 0.000718 1305.97925 1321.90076
1308.0 0.000765 1305.89160 1320.75452
1332.0 0.000751 1305.80566 1319.99634
1350.0 0.000741 1305.72131 1319.08203
1352.0 0.000740 1305.63867 1318.26123
1331.0 0.000751 1305.55762 1317.52173
1386.0 0.000722 1305.47827 1316.85510
1299.0 0.000770 1305.40063 1316.10620
1317.0 0.000759 1305.32483 1315.56921
1310.0 0.000763 1305.25049 1315.08594
1348.0 0.000742 1305.17798 1314.65356
1288.0 0.000776 1305.10730 1314.26733
1422.0 0.000703 1305.03821 1313.92603
1381.0 0.000724 1304.97095 1313.62659
1404.0 0.000712 1304.90552 1313.36865
1285.0 0.000778 1304.84167 1313.15076
1312.0 0.000762 1304.77966 1312.94128
1310.0 0.000763 1304.71948 1312.80774
1339.0 0.000747 1304.66113 1312.71790
1333.0 0.000750 1304.60449 1312.67529
1340.0 0.000746 1304.54980 1312.68542
1366.0 0.000732 1304.49683 1312.75537
1379.0 0.000725 1304.44568 1312.89490
1325.0 0.000755 1304.39648 1313.12024
1342.0 0.000745 1304.34900 1313.45862
1355.0 0.000738 1304.30347 1313.96533
1327.0 0.000754 1304.25977 1314.74377
1269.0 0.000788 1304.21790 1315.99438
1295.0 0.000772 1304.17798 1318.04968
1354.0 0.000739 1304.13989 1321.37061
1306.0 0.000766 1304.10376 1326.44446
1264.0 0.000791 1304.06946 1333.54651
1391.0 0.000719 1304.03711 1342.40405
1359.0 0.000736 1304.00671 1351.76770
1337.0 0.000748 1303.97815 1359.03027
1374.0 0.000728 1303.95166 1361.23828
1399.0 0.000715 1303.92700 1358.34497
1393.0 0.000718 1303.90430 1353.74768
1432.0 0.000698 1303.88354 1351.08557
1411.0 0.000709 1303.86487 1352.67798
1360.0 0.000735 1303.84802 1361.18896
1336.0 0.000749 1303.83325 1373.58484
1393.0 0.000718 1303.82031 1390.39111
1339.0 0.000747 1303.80945 1409.48364
1479.0 0.000676 1303.80066 1429.39282
1476.0 0.000678 1303.79382 1451.94043
1465.0 0.000683 1303.78882 1479.15112
1485.0 0.000673 1303.78601 1507.47241
1569.0 0.000637 1303.78516 1525.32629
1465.0 0.000683 1303.78638 1519.32385
1496.0 0.000668 1303.78955 1489.38342
1471.0 0.000680 1303.79480 1448.75623
1453.0 0.000688 1303.80200 1409.66821
1285.0 0.000778 1303.81128 1378.13159
1365.0 0.000733 1303.82263 1355.60620
1364.0 0.000733 1303.83606 1340.97021
1353.0 0.000739 1303.85144 1332.06775
1322.0 0.000756 1303.86902 1326.79102
1329.0 0.000752 1303.88855 1322.21924
1322.0 0.000756 1303.91016 1320.21118
1315.0 0.000760 1303.93384 1318.86182
1336.0 0.000749 1303.95959 1317.92871
1313.0 0.000762 1303.98743 1317.29175
1328.0 0.000753 1304.01733 1316.88574
1292.0 0.000774 1304.04932 1316.67432
1339.0 0.000747 1304.08337 1316.63403
1338.0 0.000747 1304.11951 1316.75366
1387.0 0.000721 1304.15771 1317.02942
1301.0 0.000769 1304.19800 1317.46667
1362.0 0.000734 1304.24048 1318.07678
1324.0 0.000755 1304.28491 1318.88281
1319.0 0.000758 1304.33154 1319.91785
1433.0 0.000698 1304.38025 1321.23425
1364.0 0.000733 1304.43103 1322.91370
1341.0 0.000746 1304.48389 1325.09680
1352.0 0.000740 1304.53882 1328.05396
1328.0 0.000753 1304.59595 1332.32703
1344.0 0.000744 1304.65515 1338.98108
1322.0 0.000756 1304.71643 1349.90503
1353.0 0.000739 1304.77979 1367.95789
1417.0 0.000706 1304.84534 1396.57910
1399.0 0.000715 1304.91284 1438.54419
1538.0 0.000650 1304.98254 1493.85852
1534.0 0.000652 1305.05432 1556.95398
1600.0 0.000625 1305.12817 1613.23242
1544.0 0.000648 1305.20422 1639.39258
1593.0 0.000628 1305.28235 1620.38257
1520.0 0.000658 1305.36255 1567.79626
1492.0 0.000670 1305.44482 1505.28101
1454.0 0.000688 1305.52930 1449.03564
1380.0 0.000725 1305.61572 1405.78613
1346.0 0.000743 1305.70435 1376.19385
1366.0 0.000732 1305.79504 1357.74829
1283.0 0.000779 1305.88770 1346.98950
1302.0 0.000768 1305.98267 1340.91821
1338.0 0.000747 1306.07947 1337.50061
1387.0 0.000721 1306.17859 1335.57874
1379.0 0.000725 1306.27966 1334.56360
1362.0 0.000734 1306.38281 1334.17676
1327.0 0.000754 1306.48816 1334.28418
1289.0 0.000776 1306.59534 1334.82227
1354.0 0.000739 1306.70483 1335.76465
1409.0 0.000710 1306.81628 1337.10828
1356.0 0.000737 1306.92969 1338.87036
1344.0 0.000744 1307.04529 1341.08813
1341.0 0.000746 1307.16296 1343.81982
1383.0 0.000723 1307.28259 1347.14795
1358.0 0.000736 1307.40417 1351.18701
1391.0 0.000719 1307.52795 1356.09277
1307.0 0.000765 1307.65381 1362.07874
1352.0 0.000740 1307.78162 1369.44617
1378.0 0.000726 1307.91138 1378.64771
1428.0 0.000700 1308.04321 1390.43933
1393.0 0.000718 1308.17700 1406.24695
1486.0 0.000673 1308.31287 1428.93311
1433.0 0.000698 1308.45081 1464.14282
1515.0 0.000660 1308.59058 1522.02673
1603.0 0.000624 1308.73242 1618.28003
1689.0 0.000592 1308.87622 1772.40149
2019.0 0.000495 1309.02197 2001.40381
2293.0 0.000436 1309.16980 2308.26807
2729.0 0.000366 1309.31946 2666.94922
2943.0 0.0003398 1309.47119 3003.01099
3046.0 0.0003283 1309.62476 3187.81201
2994.0 0.0003340 1309.78027 3117.89795
2687.0 0.000372 1309.93774 2835.57324
2411.0 0.000415 1310.09717 2474.70264
2074.0 0.000482 1310.25854 2137.83276
1904.0 0.000525 1310.42175 1871.22925
1663.0 0.000601 1310.58679 1683.46533
1637.0 0.000611 1310.75378 1562.51062
1487.0 0.000672 1310.92273 1488.92700
1477.0 0.000677 1311.09351 1444.57593
1446.0 0.000692 1311.26611 1417.06177
1359.0 0.000736 1311.44055 1398.59680
1376.0 0.000727 1311.61694 1385.23413
1401.0 0.000714 1311.79492 1374.99561
1390.0 0.000719 1311.97485 1366.87122
1393.0 0.000718 1312.15674 1360.28674
1397.0 0.000716 1312.34033 1354.87708
1321.0 0.000757 1312.52563 1350.38562
1363.0 0.000734 1312.71277 1346.62415
1383.0 0.000723 1312.90186 1343.49048
1358.0 0.000736 1313.09241 1340.79517
1409.0 0.000710 1313.28491 1338.49280
1359.0 0.000736 1313.47913 1336.51660
1359.0 0.000736 1313.67493 1334.81177
1336.0 0.000749 1313.87256 1333.33618
1306.0 0.000766 1314.07190 1332.05579
1405.0 0.000712 1314.27295 1330.94080
1399.0 0.000715 1314.47559 1329.96899
1425.0 0.000702 1314.68005 1329.12073
1403.0 0.000713 1314.88599 1328.37939
1372.0 0.000729 1315.09363 1327.73157
1358.0 0.000736 1315.30298 1327.16553
1403.0 0.000713 1315.51379 1326.67285
1373.0 0.000728 1315.72632 1326.24414
1363.0 0.000734 1315.94043 1325.87146
1282.0 0.000780 1316.15625 1325.55029
1377.0 0.000726 1316.37341 1325.27502
1302.0 0.000768 1316.59229 1325.03992
1328.0 0.000753 1316.81262 1324.84253
1313.0 0.000762 1317.03442 1324.67725
1329.0 0.000752 1317.25781 1324.54333
1274.0 0.000785 1317.48267 1324.43665
1285.0 0.000778 1317.70911 1324.35510
1309.0 0.000764 1317.93689 1324.29688
1340.0 0.000746 1318.16614 1324.26013
1288.0 0.000776 1318.39685 1323.97388
1247.0 0.000802 1318.62903 1325.50281
1278.0 0.000782 1318.86255 1325.56287
1346.0 0.000743 1319.09741 1325.63977
1344.0 0.000744 1319.33374 1325.73291
1371.0 0.000729 1319.57153 1325.84058
1319.0 0.000758 1319.81055 1325.96167
1235.0 0.000810 1320.05090 1326.09680
1310.0 0.000763 1320.29260 1326.24414
1299.0 0.000770 1320.53552 1326.40417
1232.0 0.000812 1320.77979 1326.57507
1308.0 0.000765 1321.02539 1326.75818
1302.0 0.000768 1321.27209 1326.95227
1336.0 0.000749 1321.52014 1327.15710
1322.0 0.000756 1321.76941 1327.37280
1330.0 0.000752 1322.01990 1327.73706
1374.0 0.000728 1322.27148 1327.97705
1395.0 0.000717 1322.52441 1328.22742
1349.0 0.000741 1322.77820 1328.48877
1305.0 0.000766 1323.03333 1328.76099
1299.0 0.000770 1323.28955 1329.04443
1316.0 0.000760 1323.54688 1329.33838
1333.0 0.000750 1323.80530 1329.64502
1356.0 0.000737 1324.06470 1329.96338
1265.0 0.000791 1324.32532 1330.29443
1318.0 0.000759 1324.58679 1330.63965
1326.0 0.000754 1324.84937 1330.99841
1321.0 0.000757 1325.11292 1331.37366
1333.0 0.000750 1325.37732 1331.76514
1335.0 0.000749 1325.64294 1332.17578
1355.0 0.000738 1325.90930 1332.60779
1314.0 0.000761 1326.17676 1333.06177
1293.0 0.000773 1326.44495 1333.54297
1332.0 0.000751 1326.71411 1334.05432
1354.0 0.000739 1326.98401 1334.60254
1297.0 0.000771 1327.25488 1335.19336
1379.0 0.000725 1327.52661 1335.83740
1388.0 0.000720 1327.79907 1336.55042
1270.0 0.000787 1328.07239 1335.77454
1329.0 0.000752 1328.34644 1336.77393
1351.0 0.000740 1328.62122 1338.02563
1279.0 0.000782 1328.89685 1339.71094
1376.0 0.000727 1329.17310 1342.10913
1395.0 0.000717 1329.45007 1345.56897
1399.0 0.000715 1329.72766 1350.40894
1371.0 0.000729 1330.00598 1356.73010
1349.0 0.000741 1330.28479 1364.16614
1408.0 0.000710 1330.56445 1371.56262
1319.0 0.000758 1330.84460 1376.81323
1326.0 0.000754 1331.12537 1378.04053
1345.0 0.000743 1331.40662 1375.89087
1337.0 0.000748 1331.68848 1373.08838
1368.0 0.000731 1331.97083 1372.07715
1339.0 0.000747 1332.25366 1374.13257
1380.0 0.000725 1332.53711 1379.36548
1373.0 0.000728 1332.82080 1386.65051
1404.0 0.000712 1333.10510 1393.42542
1412.0 0.000708 1333.38965 1396.21594
1409.0 0.000710 1333.67480 1393.35706
1334.0 0.000750 1333.96021 1386.78308
1343.0 0.000745 1334.24597 1379.53320
1356.0 0.000737 1334.53223 1374.69373
1356.0 0.000737 1334.81860 1370.75427
1345.0 0.000743 1335.10547 1368.89197
1311.0 0.000763 1335.39246 1368.79553
1430.0 0.000699 1335.67981 1370.06372
1387.0 0.000721 1335.96729 1372.37463
1328.0 0.000753 1336.25513 1375.55127
1379.0 0.000725 1336.54309 1379.55725
1411.0 0.000709 1336.83118 1384.46472
1423.0 0.000703 1337.11951 1390.44128
1422.0 0.000703 1337.40784 1397.75342
1458.0 0.000686 1337.69653 1406.82361
1425.0 0.000702 1337.98511 1418.36816
1435.0 0.000697 1338.27393 1433.73608
1418.0 0.000705 1338.56262 1455.59314
1461.0 0.000684 1338.85156 1489.08374
1538.0 0.000650 1339.14038 1543.25146
1581.0 0.000633 1339.42908 1631.81067
1694.0 0.000590 1339.71802 1771.61157
2009.0 0.000498 1340.00671 1977.24854
2190.0 0.000457 1340.29553 2251.69800
2460.0 0.000407 1340.58398 2573.74097
2706.0 0.000370 1340.87256 2881.45776
2945.0 0.0003396 1341.16089 3064.73608
2875.0 0.0003478 1341.44910 3026.08862
2550.0 0.000392 1341.73718 2789.12085
2370.0 0.000422 1342.02502 2468.69092
2120.0 0.000472 1342.31274 2161.83643
1833.0 0.000546 1342.60010 1912.93018
1691.0 0.000591 1342.88745 1735.13330
1670.0 0.000599 1343.17432 1621.31104
1464.0 0.000683 1343.46094 1556.62585
1498.0 0.000668 1343.74719 1526.38342
1529.0 0.000654 1344.03320 1519.38989
1511.0 0.000662 1344.31885 1527.55066
1558.0 0.000642 1344.60413 1543.47131
1576.0 0.000635 1344.88904 1557.58740
1634.0 0.000612 1345.17346 1558.30640
1569.0 0.000637 1345.45752 1540.13403
1524.0 0.000656 1345.74109 1509.44666
1496.0 0.000668 1346.02429 1476.35217
1434.0 0.000697 1346.30688 1447.26501
1445.0 0.000692 1346.58899 1424.67041
1438.0 0.000695 1346.87061 1408.61487
1398.0 0.000715 1347.15161 1397.89038
1396.0 0.000716 1347.43225 1390.92896
1347.0 0.000742 1347.71204 1386.36646
1305.0 0.000766 1347.99146 1383.28967
1399.0 0.000715 1348.27002 1381.06763
1375.0 0.000727 1348.54797 1379.42444
1408.0 0.000710 1348.82544 1378.19775
1377.0 0.000726 1349.10205 1377.29810
1338.0 0.000747 1349.37805 1376.67090
1379.0 0.000725 1349.65332 1376.27991
1474.0 0.000678 1349.92798 1376.10132
1412.0 0.000708 1350.20166 1376.11804
1383.0 0.000723 1350.47473 1376.32166
1344.0 0.000744 1350.74683 1376.70654
1367.0 0.000732 1351.01819 1377.27417
1408.0 0.000710 1351.28882 1378.03076
1371.0 0.000729 1351.55847 1378.98621
1419.0 0.000705 1351.82739 1380.21240
1334.0 0.000750 1352.09521 1381.62610
1368.0 0.000731 1352.36230 1383.31201
1399.0 0.000715 1352.62842 1385.31042
1400.0 0.000714 1352.89368 1387.67700
1363.0 0.000734 1353.15784 1390.48157
1437.0 0.000696 1353.42114 1393.81714
1396.0 0.000716 1353.68335 1397.80884
1416.0 0.000706 1353.94458 1402.62415
1405.0 0.000712 1354.20483 1408.47266
1437.0 0.000696 1354.46399 1415.94885
1420.0 0.000704 1354.72217 1425.35449
1453.0 0.000688 1354.97925 1438.07861
1508.0 0.000663 1355.23511 1456.53796
1531.0 0.000653 1355.48999 1485.23999
1625.0 0.000615 1355.74365 1531.72217
1606.0 0.000623 1355.99634 1606.69690
1820.0 0.000549 1356.24768 1722.19580
1928.0 0.000519 1356.49792 1886.86072
2064.0 0.000484 1356.74695 2098.85962
2190.0 0.000457 1356.99475 2336.05908
2378.0 0.000421 1357.24133 2544.11621
2537.0 0.000394 1357.48669 2639.18457
2395.0 0.000418 1357.73083 2568.53979
2334.0 0.000428 1357.97363 2373.17896
2043.0 0.000489 1358.21521 2137.80127
1865.0 0.000536 1358.45544 1922.11414
1803.0 0.000555 1358.69434 1752.14270
1638.0 0.000611 1358.93201 1632.08411
1649.0 0.000606 1359.16821 1554.32971
1503.0 0.000665 1359.40308 1508.46179
1495.0 0.000669 1359.63660 1480.61365
1549.0 0.000646 1359.86877 1464.24451
1475.0 0.000678 1360.09949 1454.55383
1417.0 0.000706 1360.32886 1449.00635
1455.0 0.000687 1360.55664 1446.40869
1467.0 0.000682 1360.78320 1446.28601
1525.0 0.000656 1361.00818 1448.60168
1519.0 0.000658 1361.23157 1453.73328
1523.0 0.000657 1361.45361 1462.70764
1646.0 0.000608 1361.67419 1477.74414
1597.0 0.000626 1361.89331 1503.09570
1664.0 0.000601 1362.11072 1545.90491
1705.0 0.000587 1362.32666 1616.28943
1791.0 0.000558 1362.54114 1725.52417
1911.0 0.000523 1362.75403 1880.06042
2135.0 0.000468 1362.96533 2080.93481
2364.0 0.000423 1363.17493 2305.33130
2475.0 0.000404 1363.38306 2501.50928
2517.0 0.000397 1363.58960 2590.08154
2407.0 0.000415 1363.79456 2521.44556
2222.0 0.000450 1363.99780 2334.44604
2068.0 0.000484 1364.19946 2109.16821
1861.0 0.000537 1364.39941 1902.20386
1706.0 0.000586 1364.59778 1738.32837
1640.0 0.000610 1364.79443 1621.67358
1524.0 0.000656 1364.98938 1545.16394
1556.0 0.000643 1365.18262 1497.61377
1489.0 0.000672 1365.37415 1468.53577
1454.0 0.000688 1365.56409 1450.15881
1459.0 0.000685 1365.75232 1438.10498
1428.0 0.000700 1365.93872 1429.76355
1447.0 0.000691 1366.12341 1423.98474
1450.0 0.000690 1366.30627 1420.34717
1431.0 0.000699 1366.48755 1418.79126
1427.0 0.000701 1366.66699 1419.37073
1436.0 0.000696 1366.84460 1422.01257
1376.0 0.000727 1367.02051 1426.25281
1439.0 0.000695 1367.19470 1430.90918
1401.0 0.000714 1367.36694 1433.84302
1369.0 0.000730 1367.53748 1432.85925
1415.0 0.000707 1367.70605 1427.90576
1429.0 0.000700 1367.87292 1421.11829
1477.0 0.000677 1368.03809 1414.62427
1399.0 0.000715 1368.20117 1409.64197
1406.0 0.000711 1368.36267 1406.73181
1387.0 0.000721 1368.52222 1406.15515
1393.0 0.000718 1368.67993 1408.09814
1429.0 0.000700 1368.83569 1412.75269
1406.0 0.000711 1368.98975 1420.19470
1390.0 0.000719 1369.14172 1430.09668
1537.0 0.000651 1369.29199 1441.31873
1441.0 0.000694 1369.44043 1451.27515
1505.0 0.000664 1369.58679 1456.43835
1443.0 0.000693 1369.73145 1455.18237
1497.0 0.000668 1369.87415 1450.21179
1486.0 0.000673 1370.01501 1446.12500
1455.0 0.000687 1370.15381 1446.72192
1459.0 0.000685 1370.29089 1454.60938
1491.0 0.000671 1370.42590 1471.17407
1582.0 0.000632 1370.55908 1496.13452
1585.0 0.000631 1370.69043 1526.67810
1558.0 0.000642 1370.81970 1556.13062
1542.0 0.000649 1370.94727 1573.67517
1505.0 0.000664 1371.07275 1570.37415
1502.0 0.000666 1371.19641 1549.10522
1472.0 0.000679 1371.31799 1520.75378
1492.0 0.000670 1371.43762 1494.26208
1412.0 0.000708 1371.55554 1474.03857
1423.0 0.000703 1371.67139 1461.36035
1448.0 0.000691 1371.78528 1455.77954
1454.0 0.000688 1371.89734 1456.24158
1523.0 0.000657 1372.00732 1461.86658
1477.0 0.000677 1372.11548 1472.77063
1503.0 0.000665 1372.22168 1490.65125
1541.0 0.000649 1372.32593 1518.51416
1555.0 0.000643 1372.42822 1566.30981
1658.0 0.000603 1372.52869 1644.23279
1688.0 0.000592 1372.62708 1766.19873
1938.0 0.000516 1372.72351 1943.59497
2105.0 0.000475 1372.81812 2178.84351
2417.0 0.000414 1372.91077 2454.85669
2743.0 0.000365 1373.00134 2721.84155
2861.0 0.0003495 1373.09009 2889.86548
2763.0 0.000362 1373.17688 2873.49951
2652.0 0.000377 1373.26184 2682.04199
2330.0 0.000429 1373.34473 2407.95239
2107.0 0.000475 1373.42578 2135.60913
1831.0 0.000546 1373.50488 1908.53333
1721.0 0.000581 1373.58203 1739.87183
1683.0 0.000594 1373.65723 1625.20825
1619.0 0.000618 1373.73059 1552.06458
1551.0 0.000645 1373.80200 1506.74109
1515.0 0.000660 1373.87158 1478.30420
1439.0 0.000695 1373.93909 1459.51367
1456.0 0.000687 1374.00476 1446.20105
1437.0 0.000696 1374.06860 1436.18311
1473.0 0.000679 1374.13049 1428.27136
1432.0 0.000698 1374.19043 1421.86633
1393.0 0.000718 1374.24854 1416.59094
1368.0 0.000731 1374.30481 1412.19189
1458.0 0.000686 1374.35913 1408.48962
1487.0 0.000672 1374.41162 1404.22522
1404.0 0.000712 1374.46216 1401.56360
1432.0 0.000698 1374.51086 1399.27454
1411.0 0.000709 1374.55774 1397.29517
1410.0 0.000709 1374.60278 1395.57410
1417.0 0.000706 1374.64587 1394.07129
1408.0 0.000710 1374.68726 1392.75330
1312.0 0.000762 1374.72668 1391.59521
1404.0 0.000712 1374.76440 1390.57434
1353.0 0.000739 1374.80017 1389.67249
1378.0 0.000726 1374.83423 1388.87622
1398.0 0.000715 1374.86633 1388.17249
1406.0 0.000711 1374.89685 1387.55176
1403.0 0.000713 1374.92542 1387.00708
1396.0 0.000716 1374.95227 1386.53186
1361.0 0.000735 1374.97729 1386.12085
1336.0 0.000749 1375.00049 1385.95068
1431.0 0.000699 1375.02197 1385.66675
1405.0 0.000712 1375.04175 1385.44238
1388.0 0.000720 1375.05969 1385.28235
1342.0 0.000745 1375.07605 1385.19312
1366.0 0.000732 1375.09045 1385.15479
1418.0 0.000705 1375.10327 1385.26538
1430.0 0.000699 1375.11438 1385.54565
1359.0 0.000736 1375.12378 1386.10205
1416.0 0.000706 1375.13147 1387.10107
1398.0 0.000715 1375.13745 1388.77539
1419.0 0.000705 1375.14172 1391.37561
1374.0 0.000728 1375.14441 1395.07556
1422.0 0.000703 1375.14539 1399.82629
1344.0 0.000744 1375.14478 1405.15601
1390.0 0.000719 1375.14246 1409.92566
1436.0 0.000696 1375.13855 1412.38245
1369.0 0.000730 1375.13306 1411.41113
1391.0 0.000719 1375.12585 1407.82361
1427.0 0.000701 1375.11707 1403.65625
1417.0 0.000706 1375.10681 1400.41333
1370.0 0.000730 1375.09485 1399.06531
1345.0 0.000743 1375.08142 1400.21460
1403.0 0.000713 1375.06641 1404.18970
1442.0 0.000693 1375.04993 1410.98181
1438.0 0.000695 1375.03174 1420.04468
1463.0 0.000684 1375.01221 1429.92981
1440.0 0.000694 1374.99109 1437.85205
1449.0 0.000690 1374.96851 1440.17285
1418.0 0.000705 1374.94446 1436.03540
1405.0 0.000712 1374.91895 1427.81689
1397.0 0.000716 1374.89197 1418.98425
1402.0 0.000713 1374.86353 1411.78052
1411.0 0.000709 1374.83362 1407.28503
1353.0 0.000739 1374.80237 1405.96790
1395.0 0.000717 1374.76965 1408.14294
1416.0 0.000706 1374.73560 1414.30090
1404.0 0.000712 1374.70020 1425.29224
1478.0 0.000677 1374.66333 1442.13757
1525.0 0.000656 1374.62512 1465.25708
1489.0 0.000672 1374.58569 1493.33276
1498.0 0.000668 1374.54480 1522.08643
1622.0 0.000617 1374.50269 1543.53833
1558.0 0.000642 1374.45923 1548.35400
1542.0 0.000649 1374.41443 1533.81311
1463.0 0.000684 1374.36853 1507.50806
1566.0 0.000639 1374.32117 1479.49023
1458.0 0.000686 1374.27271 1456.03296
1466.0 0.000682 1374.22302 1439.53625
1519.0 0.000658 1374.17200 1428.35437
1417.0 0.000706 1374.11987 1423.41968
1385.0 0.000722 1374.06653 1420.23584
1398.0 0.000715 1374.01208 1416.05420
1414.0 0.000707 1373.95642 1410.15918
1383.0 0.000723 1373.89966 1403.60388
1401.0 0.000714 1373.84167 1397.54346
1384.0 0.000723 1373.78259 1392.57764
1402.0 0.000713 1373.72253 1388.85974
1393.0 0.000718 1373.66125 1386.27576
1368.0 0.000731 1373.59900 1384.62476
1370.0 0.000730 1373.53564 1383.59778
1479.0 0.000676 1373.47119 1383.04602
1444.0 0.000693 1373.40588 1382.88037
1407.0 0.000711 1373.33948 1383.11108
1377.0 0.000726 1373.27209 1383.85071
1461.0 0.000684 1373.20374 1385.30164
1469.0 0.000681 1373.13440 1387.72705
1419.0 0.000705 1373.06409 1391.37305
1377.0 0.000726 1372.99280 1396.35876
1345.0 0.000743 1372.92078 1402.51868
1475.0 0.000678 1372.84766 1409.24097
1418.0 0.000705 1372.77380 1415.02686
1425.0 0.000702 1372.69897 1418.68042
1433.0 0.000698 1372.62341 1420.43457
1407.0 0.000711 1372.54700 1421.55212
1373.0 0.000728 1372.46960 1422.42505
1382.0 0.000724 1372.39160 1421.87891
1463.0 0.000684 1372.31274 1418.37390
1415.0 0.000707 1372.23303 1412.11938
1426.0 0.000701 1372.15259 1404.90796
1361.0 0.000735 1372.07153 1398.32202
1364.0 0.000733 1371.98962 1393.11707
1376.0 0.000727 1371.90698 1389.47266
1355.0 0.000738 1371.82385 1387.25281
1356.0 0.000737 1371.73975 1386.20227
1345.0 0.000743 1371.65527 1386.03113
1395.0 0.000717 1371.56995 1386.56946
1348.0 0.000742 1371.48401 1387.78516
1326.0 0.000754 1371.39758 1389.82922
1346.0 0.000743 1371.31042 1393.12280
1388.0 0.000720 1371.22278 1398.49133
1408.0 0.000710 1371.13452 1407.29187
1394.0 0.000717 1371.04578 1421.40051
1437.0 0.000696 1370.95642 1442.88318
1491.0 0.000671 1370.86658 1473.23035
1562.0 0.000640 1370.77612 1512.19836
1666.0 0.000600 1370.68542 1556.24695
1680.0 0.000595 1370.59412 1596.46606
1694.0 0.000590 1370.50232 1618.32544
1677.0 0.000596 1370.41016 1610.45386
1606.0 0.000623 1370.31750 1577.16797
1537.0 0.000651 1370.22449 1533.17920
1513.0 0.000661 1370.13098 1490.57910
1508.0 0.000663 1370.03723 1455.33899
1442.0 0.000693 1369.94312 1429.12830
1464.0 0.000683 1369.84863 1411.16089
1394.0 0.000717 1369.75378 1399.52393
1365.0 0.000733 1369.65857 1392.17224
1392.0 0.000718 1369.56323 1387.45813
1348.0 0.000742 1369.46753 1384.27539
1379.0 0.000725 1369.37158 1381.97717
1427.0 0.000701 1369.27527 1380.15942
1394.0 0.000717 1369.17883 1378.74683
1375.0 0.000727 1369.08203 1377.58276
1398.0 0.000715 1368.98523 1376.60522
1392.0 0.000718 1368.88818 1375.77332
1386.0 0.000722 1368.79089 1375.05798
1399.0 0.000715 1368.69348 1374.43567
1312.0 0.000762 1368.59583 1373.88989
1379.0 0.000725 1368.49817 1373.40613
1468.0 0.000681 1368.40039 1372.97754
1409.0 0.000710 1368.30249 1372.59424
1386.0 0.000722 1368.20447 1372.24878
1290.0 0.000775 1368.10632 1371.93762
1346.0 0.000743 1368.00830 1371.65430
1432.0 0.000698 1367.91003 1371.39661
1438.0 0.000695 1367.81189 1371.16223
1384.0 0.000723 1367.71375 1370.94763
1356.0 0.000737 1367.61548 1370.75208
1378.0 0.000726 1367.51733 1370.69824
1337.0 0.000748 1367.41907 1370.53894
1359.0 0.000736 1367.32104 1370.39551
1316.0 0.000760 1367.22290 1370.26758
1363.0 0.000734 1367.12488 1370.15479
1314.0 0.000761 1367.02710 1370.05835
1358.0 0.000736 1366.92920 1369.97717
1377.0 0.000726 1366.83154 1369.91431
1349.0 0.000741 1366.73401 1369.86890
1332.0 0.000751 1366.63647 1369.84424
1428.0 0.000700 1366.53918 1369.84290
1367.0 0.000732 1366.44214 1369.86707
1355.0 0.000738 1366.34521 1369.92236
1319.0 0.000758 1366.24841 1370.01440
1321.0 0.000757 1366.15186 1370.15125
1321.0 0.000757 1366.05554 1370.34509
1341.0 0.000746 1365.95935 1370.61523
1317.0 0.000759 1365.86353 1370.99573
1346.0 0.000743 1365.76782 1371.55127
1389.0 0.000720 1365.67261 1372.39636
1364.0 0.000733 1365.57751 1374.39783
1310.0 0.000763 1365.48267 1376.51550
1412.0 0.000708 1365.38818 1379.75928
1323.0 0.000756 1365.29395 1384.46387
1379.0 0.000725 1365.20020 1390.78320
1418.0 0.000705 1365.10657 1398.46753
1373.0 0.000728 1365.01343 1406.67578
1434.0 0.000697 1364.92065 1413.18518
1348.0 0.000742 1364.82813 1415.60254
1287.0 0.000777 1364.73621 1413.08472
1344.0 0.000744 1364.64441 1407.60486
1304.0 0.000767 1364.55310 1402.02637
1380.0 0.000725 1364.46228 1398.50146
1395.0 0.000717 1364.37183 1398.43164
1345.0 0.000743 1364.28174 1402.71533
1416.0 0.000706 1364.19226 1411.74792
1445.0 0.000692 1364.10303 1425.20203
1424.0 0.000702 1364.01440 1441.59216
1484.0 0.000674 1363.92615 1457.56628
1439.0 0.000695 1363.83850 1467.54102
1483.0 0.000674 1363.75122 1466.36108
1413.0 0.000708 1363.66455 1454.51294
1420.0 0.000704 1363.57825 1437.40417
1362.0 0.000734 1363.49255 1420.20081
1404.0 0.000712 1363.40735 1405.72827
1385.0 0.000722 1363.32275 1394.98889
1388.0 0.000720 1363.23853 1388.03137
1409.0 0.000710 1363.15503 1384.32581
1430.0 0.000699 1363.07190 1383.22644
1425.0 0.000702 1362.98950 1384.11719
1316.0 0.000760 1362.90759 1386.39124
1432.0 0.000698 1362.82629 1389.28125
1380.0 0.000725 1362.74561 1391.65613
1372.0 0.000729 1362.66541 1392.23462
1359.0 0.000736 1362.58594 1390.48572
1386.0 0.000722 1362.50696 1387.01257
1417.0 0.000706 1362.42871 1382.87598
1370.0 0.000730 1362.35095 1378.94580
1329.0 0.000752 1362.27393 1375.69275
1380.0 0.000725 1362.19751 1373.24817
1404.0 0.000712 1362.12170 1371.54016
1338.0 0.000747 1362.04663 1370.41003
1351.0 0.000740 1361.97205 1369.68811
1365.0 0.000733 1361.89832 1369.23779
1367.0 0.000732 1361.82507 1368.96631
1340.0 0.000746 1361.75256 1368.82336
1401.0 0.000714 1361.68079 1368.78931
1340.0 0.000746 1361.60962 1368.69006
1351.0 0.000740 1361.53906 1368.91187
1366.0 0.000732 1361.46936 1369.30029
1386.0 0.000722 1361.40027 1369.87964
1356.0 0.000737 1361.33179 1370.64880
1383.0 0.000723 1361.26404 1371.55518
1389.0 0.000720 1361.19702 1372.46057
1368.0 0.000731 1361.13074 1373.12732
1390.0 0.000719 1361.06519 1373.33545
1367.0 0.000732 1361.00024 1373.11060
1393.0 0.000718 1360.93604 1372.69653
1407.0 0.000711 1360.87256 1372.32947
1328.0 0.000753 1360.80981 1372.14014
1382.0 0.000724 1360.74780 1372.18250
1360.0 0.000735 1360.68652 1375.77673
1356.0 0.000737 1360.62598 1376.35486
1400.0 0.000714 1360.56616 1377.14978
1332.0 0.000751 1360.50696 1378.16235
1364.0 0.000733 1360.44861 1379.41687
1322.0 0.000756 1360.39099 1380.97534
1366.0 0.000732 1360.33398 1382.96228
1393.0 0.000718 1360.27783 1385.62012
1360.0 0.000735 1360.22241 1389.38391
1378.0 0.000726 1360.16772 1394.97144
1456.0 0.000687 1360.11377 1403.42249
1452.0 0.000689 1360.06042 1415.99109
1416.0 0.000706 1360.00793 1433.81396
1537.0 0.000651 1359.95618 1458.73022
1423.0 0.000703 1359.90527 1486.94482
1568.0 0.000638 1359.85498 1516.21838
1558.0 0.000642 1359.80542 1539.27222
1560.0 0.000641 1359.75659 1547.07471
1552.0 0.000644 1359.70850 1536.53650
1466.0 0.000682 1359.66113 1514.17590
1497.0 0.000668 1359.61450 1489.10059
1522.0 0.000657 1359.56860 1467.24512
1462.0 0.000684 1359.52356 1451.22827
1434.0 0.000697 1359.47900 1441.62561
1374.0 0.000728 1359.43530 1437.94128
1481.0 0.000675 1359.39233 1439.46924
1415.0 0.000707 1359.35010 1445.94531
1517.0 0.000659 1359.30859 1458.16943
1545.0 0.000647 1359.26770 1478.56726
1509.0 0.000663 1359.22766 1511.65332
1562.0 0.000640 1359.18823 1564.05054
1732.0 0.000577 1359.14954 1643.52405
1751.0 0.000571 1359.11145 1756.59131
1960.0 0.000510 1359.07422 1904.73804
2118.0 0.000472 1359.03760 2079.32104
2356.0 0.000424 1359.00171 2254.43384
2374.0 0.000421 1358.96643 2381.38306
2381.0 0.000420 1358.93188 2407.06445
2294.0 0.000436 1358.89807 2323.90625
2217.0 0.000451 1358.86487 2179.70044
2059.0 0.000486 1358.83240 2028.48035
1940.0 0.000515 1358.80054 1900.48376
1879.0 0.000532 1358.76941 1803.15649
1713.0 0.000584 1358.73889 1728.85120
1654.0 0.000605 1358.70898 1665.61182
1669.0 0.000599 1358.67969 1608.18958
1574.0 0.000635 1358.65112 1557.97046
1510.0 0.000662 1358.62317 1516.66785
1458.0 0.000686 1358.59583 1484.46924
1481.0 0.000675 1358.56909 1460.48279
1420.0 0.000704 1358.54297 1443.30957
1414.0 0.000707 1358.51746 1431.33313
1434.0 0.000697 1358.49268 1423.03894
1475.0 0.000678 1358.46838 1417.22046
1427.0 0.000701 1358.44470 1413.03455
1455.0 0.000687 1358.42151 1409.94983
1409.0 0.000710 1358.39905 1407.57251
1402.0 0.000713 1358.37708 1405.86865
1477.0 0.000677 1358.35559 1404.64600
1437.0 0.000696 1358.33472 1403.82837
1434.0 0.000697 1358.31445 1403.36633
1448.0 0.000691 1358.29468 1403.22144
1389.0 0.000720 1358.27539 1403.37012
1411.0 0.000709 1358.25671 1403.79480
1401.0 0.000714 1358.23853 1404.48730
1533.0 0.000652 1358.22070 1405.44312
1396.0 0.000716 1358.20349 1406.66492
1444.0 0.000693 1358.18677 1408.16125
1358.0 0.000736 1358.17053 1409.94592
1450.0 0.000690 1358.15479 1412.03809
1444.0 0.000693 1358.13953 1414.44934
1384.0 0.000723 1358.12463 1417.23547
1468.0 0.000681 1358.11023 1420.43164
1448.0 0.000691 1358.09631 1424.08411
1401.0 0.000714 1358.08264 1428.25476
1434.0 0.000697 1358.06958 1433.01978
1475.0 0.000678 1358.05688 1438.47229
1486.0 0.000673 1358.04443 1444.72815
1483.0 0.000674 1358.03247 1451.93030
1471.0 0.000680 1358.02087 1460.26001
1556.0 0.000643 1358.00977 1469.94177
1461.0 0.000684 1357.99890 1481.26697
1467.0 0.000682 1357.98840 1494.60962
1475.0 0.000678 1357.97827 1510.52783
1548.0 0.000646 1357.96838 1529.58496
1501.0 0.000666 1357.95886 1552.85669
1574.0 0.000635 1357.94971 1581.99719
1595.0 0.000627 1357.94067 1619.92407
1636.0 0.000611 1357.93213 1671.99731
1659.0 0.000603 1357.92383 1747.84436
1841.0 0.000543 1357.91565 1863.52185
2001.0 0.000500 1357.90771 2042.81287
2264.0 0.000442 1357.90015 2315.63525
2626.0 0.000381 1357.89282 2711.38965
3210.0 0.0003115 1357.88562 3246.63794
3904.0 0.0002561 1357.87866 3907.70361
4665.0 0.0002144 1357.87183 4626.64063
5355.0 0.0001867 1357.86523 5250.97656
5655.0 0.0001768 1357.85889 5555.20605
5482.0 0.0001824 1357.85266 5392.05664
5048.0 0.0001981 1357.84656 4853.37305
4218.0 0.0002371 1357.84058 4167.15039
3590.0 0.0002786 1357.83472 3515.04590
3027.0 0.0003304 1357.82898 2991.39282
2619.0 0.000382 1357.82336 2631.30127
2436.0 0.000411 1357.81787 2436.71558
2399.0 0.000417 1357.81238 2392.91064
2547.0 0.000393 1357.80701 2477.52686
2664.0 0.000375 1357.80164 2661.89771
2896.0 0.0003453 1357.79639 2904.46118
3177.0 0.0003148 1357.79114 3137.38525
3274.0 0.0003054 1357.78577 3262.94971
3267.0 0.0003061 1357.78064 3203.17847
3009.0 0.0003323 1357.77527 2975.42261
2726.0 0.000367 1357.77002 2669.41040
2322.0 0.000431 1357.76477 2365.51514
2068.0 0.000484 1357.75940 2106.80933
1896.0 0.000527 1357.75403 1907.60278
1801.0 0.000555 1357.74854 1765.56726
1750.0 0.000571 1357.74304 1669.83594
1619.0 0.000618 1357.73743 1607.01904
1578.0 0.000634 1357.73157 1565.04016
1546.0 0.000647 1357.72571 1535.01331
1504.0 0.000665 1357.71973 1511.72534
1520.0 0.000658 1357.71362 1492.76050
1477.0 0.000677 1357.70740 1477.05237
1493.0 0.000670 1357.70093 1464.00720
1458.0 0.000686 1357.69421 1453.19910
1438.0 0.000695 1357.68738 1446.16711
1422.0 0.000703 1357.68042 1438.82007
1459.0 0.000685 1357.67310 1432.72278
1410.0 0.000709 1357.66565 1427.60718
1411.0 0.000709 1357.65796 1423.22302
1435.0 0.000697 1357.65002 1419.35583
1420.0 0.000704 1357.64172 1415.90308
1414.0 0.000707 1357.63318 1412.14819
1400.0 0.000714 1357.62439 1409.81213
1374.0 0.000728 1357.61523 1408.20081
1462.0 0.000684 1357.60583 1407.33801
1421.0 0.000704 1357.59607 1407.12781
1407.0 0.000711 1357.58606 1407.29297
1407.0 0.000711 1357.57556 1407.25647
1349.0 0.000741 1357.56470 1406.91797
1363.0 0.000734 1357.55359 1406.24890
1372.0 0.000729 1357.54199 1405.50989
1389.0 0.000720 1357.53003 1404.60815
1363.0 0.000734 1357.51770 1403.02014
1345.0 0.000743 1357.50488 1402.15308
1365.0 0.000733 1357.49158 1398.67419
1338.0 0.000747 1357.47791 1395.01904
1398.0 0.000715 1357.46387 1391.68250
1336.0 0.000749 1357.44922 1388.88574
1289.0 0.000776 1357.43408 1386.66675
1393.0 0.000718 1357.41846 1384.96497
1364.0 0.000733 1357.40234 1384.83923
1394.0 0.000717 1357.38574 1383.87952
1404.0 0.000712 1357.36865 1383.13574
1350.0 0.000741 1357.35095 1382.54346
1367.0 0.000732 1357.33276 1382.06274
1428.0 0.000700 1357.31396 1381.67102
1368.0 0.000731 1357.29456 1381.35669
1427.0 0.000701 1357.27466 1381.11292
1384.0 0.000723 1357.25403 1380.94116
1358.0 0.000736 1357.23291 1380.83496
1461.0 0.000684 1357.21118 1380.79932
1387.0 0.000721 1357.18884 1380.83936
1375.0 0.000727 1357.16577 1380.96436
1401.0 0.000714 1357.14209 1381.18518
1368.0 0.000731 1357.11780 1381.52380
1374.0 0.000728 1357.09277 1382.01294
1422.0 0.000703 1357.06714 1382.72058
1399.0 0.000715 1357.04077 1383.76050
1317.0 0.000759 1357.01379 1385.34106
1399.0 0.000715 1356.98596 1387.78613
1387.0 0.000721 1356.95740 1391.57507
1439.0 0.000695 1356.92822 1397.19922
1417.0 0.000706 1356.89832 1405.14758
1483.0 0.000674 1356.86768 1415.58679
1471.0 0.000680 1356.83618 1428.06213
1483.0 0.000674 1356.80396 1441.04346
1489.0 0.000672 1356.77100 1451.44214
1473.0 0.000679 1356.73718 1455.28357
1473.0 0.000679 1356.70264 1450.80078
1452.0 0.000689 1356.66724 1440.39380
1443.0 0.000693 1356.63110 1428.05469
1343.0 0.000745 1356.59412 1416.59790
1413.0 0.000708 1356.55640 1407.33606
1461.0 0.000684 1356.51770 1400.59717
1418.0 0.000705 1356.47827 1396.14722
1402.0 0.000713 1356.43799 1393.49976
1309.0 0.000764 1356.39673 1392.13330
1390.0 0.000719 1356.35474 1391.61926
1387.0 0.000721 1356.31177 1391.66187
1382.0 0.000724 1356.26794 1392.08411
1394.0 0.000717 1356.22327 1392.79016
1355.0 0.000738 1356.17773 1393.73486
1362.0 0.000734 1356.13123 1391.56909
1356.0 0.000737 1356.08386 1393.37012
1388.0 0.000720 1356.03552 1395.05078
1451.0 0.000689 1355.98633 1396.96899
1432.0 0.000698 1355.93616 1399.14856
1373.0 0.000728 1355.88513 1401.61499
1418.0 0.000705 1355.83313 1404.40723
1428.0 0.000700 1355.78015 1407.57141
1492.0 0.000670 1355.72620 1411.16345
1387.0 0.000721 1355.67139 1415.25537
1452.0 0.000689 1355.61560 1419.93445
1422.0 0.000703 1355.55884 1425.31384
1445.0 0.000692 1355.50110 1431.53296
1465.0 0.000683 1355.44238 1437.35840
1445.0 0.000692 1355.38257 1445.88293
1441.0 0.000694 1355.32190 1455.98218
1427.0 0.000701 1355.26025 1468.11353
1414.0 0.000707 1355.19763 1482.99072
1414.0 0.000707 1355.13391 1501.82556
1493.0 0.000670 1355.06921 1526.78943
1561.0 0.000641 1355.00354 1561.76721
1584.0 0.000631 1354.93689 1613.35339
1748.0 0.000572 1354.86914 1691.71631
1897.0 0.000527 1354.80042 1810.53003
2064.0 0.000484 1354.73071 1985.03748
2290.0 0.000437 1354.66003 2227.43066
2537.0 0.000394 1354.58826 2539.87427
2857.0 0.0003500 1354.51550 2905.01709
3185.0 0.0003140 1354.44165 3272.09985
3434.0 0.0002912 1354.36682 3545.81128
3532.0 0.0002831 1354.29102 3615.49756
3374.0 0.0002964 1354.21411 3448.61816
3062.0 0.0003266 1354.13611 3127.34863
2803.0 0.000357 1354.05713 2763.99365
2530.0 0.000395 1353.97717 2432.81128
2246.0 0.000445 1353.89612 2167.13696
1944.0 0.000514 1353.81409 1974.29846
1870.0 0.000535 1353.73096 1847.24585
1807.0 0.000553 1353.64685 1773.09888
1819.0 0.000550 1353.56165 1739.56885
1728.0 0.000579 1353.47546 1739.06885
1725.0 0.000580 1353.38818 1770.62878
1831.0 0.000546 1353.29993 1840.06152
1918.0 0.000521 1353.21057 1958.49512
2096.0 0.000477 1353.12024 2139.05908
2383.0 0.000420 1353.02881 2391.43823
2610.0 0.000383 1352.93640 2714.71387
2999.0 0.0003334 1352.84290 3087.78931
3308.0 0.0003023 1352.74841 3456.03833
3628.0 0.0002756 1352.65295 3726.19458
3694.0 0.0002707 1352.55627 3812.75635
3666.0 0.0002728 1352.45874 3725.33716
3595.0 0.0002782 1352.36023 3563.01929
3473.0 0.0002879 1352.26062 3419.13525
3424.0 0.0002921 1352.15991 3328.56470
3302.0 0.0003028 1352.05835 3265.19653
3225.0 0.0003101 1351.95569 3162.71997
2974.0 0.0003362 1351.85193 2972.22046
2700.0 0.000370 1351.74731 2711.23804
2406.0 0.000416 1351.64172 2434.16040
2255.0 0.000443 1351.53503 2183.11938
2014.0 0.000497 1351.42737 1977.37866
1929.0 0.000518 1351.31873 1820.69873
1695.0 0.000590 1351.20923 1708.01770
1690.0 0.000592 1351.09863 1630.02759
1593.0 0.000628 1350.98706 1576.70850
1555.0 0.000643 1350.87451 1539.69958
1510.0 0.000662 1350.76111 1513.15540
1534.0 0.000652 1350.64661 1493.43970
1491.0 0.000671 1350.53125 1478.46521
1405.0 0.000712 1350.41492 1467.08997
1429.0 0.000700 1350.29761 1458.69043
1395.0 0.000717 1350.17944 1452.77063
1426.0 0.000701 1350.06030 1448.86658
1437.0 0.000696 1349.94031 1446.28162
1466.0 0.000682 1349.81934 1443.93176
1410.0 0.000709 1349.69751 1440.49500
1436.0 0.000696 1349.57471 1435.25391
1477.0 0.000677 1349.45105 1428.75793
1464.0 0.000683 1349.32654 1422.14697
1434.0 0.000697 1349.20117 1416.27783
1428.0 0.000700 1349.07483 1411.55249
1428.0 0.000700 1348.94775 1408.04199
1419.0 0.000705 1348.81982 1405.53638
1373.0 0.000728 1348.69092 1403.89929
1445.0 0.000692 1348.56128 1402.84851
1350.0 0.000741 1348.43091 1402.38110
1436.0 0.000696 1348.29956 1402.70227
1438.0 0.000695 1348.16748 1404.17273
1427.0 0.000701 1348.03455 1407.37048
1390.0 0.000719 1347.90088 1413.41614
1391.0 0.000719 1347.76648 1423.49719
1496.0 0.000668 1347.63123 1439.90491
1413.0 0.000708 1347.49524 1465.19836
1454.0 0.000688 1347.35852 1501.76428
1493.0 0.000670 1347.22119 1550.91150
1612.0 0.000620 1347.08289 1610.98755
1664.0 0.000601 1346.94409 1676.06934
1672.0 0.000598 1346.80444 1732.97424
1727.0 0.000579 1346.66418 1762.14063
1733.0 0.000577 1346.52319 1749.58960
1675.0 0.000597 1346.38159 1701.16785
1649.0 0.000606 1346.23938 1636.10522
1552.0 0.000644 1346.09644 1571.07874
1490.0 0.000671 1345.95288 1515.05823
1437.0 0.000696 1345.80859 1471.24243
1436.0 0.000696 1345.66382 1439.40027
1389.0 0.000720 1345.51843 1417.51074
1389.0 0.000720 1345.37256 1402.96582
1317.0 0.000759 1345.22595 1393.36865
1424.0 0.000702 1345.07886 1386.90454
1359.0 0.000736 1344.93127 1382.37878
1340.0 0.000746 1344.78296 1379.08850
1373.0 0.000728 1344.63440 1376.65686
1370.0 0.000730 1344.48511 1374.91113
1432.0 0.000698 1344.33545 1373.82104
1392.0 0.000718 1344.18530 1373.48096
1384.0 0.000723 1344.03467 1374.12476
1339.0 0.000747 1343.88354 1376.13037
1402.0 0.000713 1343.73206 1379.99500
1376.0 0.000727 1343.58008 1386.22351
1415.0 0.000707 1343.42773 1395.13831
1426.0 0.000701 1343.27502 1406.60437
1388.0 0.000720 1343.12183 1419.65161
1356.0 0.000737 1342.96838 1431.94995
1434.0 0.000697 1342.81458 1439.62195
1392.0 0.000718 1342.66040 1439.01636
1381.0 0.000724 1342.50598 1430.08997
1367.0 0.000732 1342.35120 1414.56519
1381.0 0.000724 1342.19617 1400.12830
1397.0 0.000716 1342.04077 1387.19995
1383.0 0.000723 1341.88525 1376.75024
1372.0 0.000729 1341.72937 1368.90649
1321.0 0.000757 1341.57336 1363.32910
1326.0 0.000754 1341.41711 1359.48535
1297.0 0.000771 1341.26062 1356.84448
1339.0 0.000747 1341.10400 1354.97974
1313.0 0.000762 1340.94714 1353.59521
1358.0 0.000736 1340.79028 1352.50940
1375.0 0.000727 1340.63318 1351.61572
1299.0 0.000770 1340.47595 1350.85510
1325.0 0.000755 1340.31873 1350.19397
1394.0 0.000717 1340.16138 1349.61047
1338.0 0.000747 1340.00403 1349.09082
1365.0 0.000733 1339.84644 1348.62524
1311.0 0.000763 1339.68909 1348.20618
1340.0 0.000746 1339.53149 1347.82776
1422.0 0.000703 1339.37402 1347.48608
1300.0 0.000769 1339.21655 1345.36340
1350.0 0.000741 1339.05920 1345.12378
1392.0 0.000718 1338.90173 1344.91455
1382.0 0.000724 1338.74438 1344.73474
1361.0 0.000735 1338.58728 1345.03931
1372.0 0.000729 1338.43018 1344.93188
1326.0 0.000754 1338.27319 1343.69458
1361.0 0.000735 1338.11633 1343.68701
1342.0 0.000745 1337.95972 1343.72705
1336.0 0.000749 1337.80322 1343.82996
1357.0 0.000737 1337.64697 1344.02405
1366.0 0.000732 1337.49097 1344.35278
1408.0 0.000710 1337.33508 1344.89014
1284.0 0.000779 1337.17944 1345.74292
1337.0 0.000748 1337.02417 1347.04663
1278.0 0.000782 1336.86914 1348.93640
1422.0 0.000703 1336.71436 1351.51831
1346.0 0.000743 1336.55994 1355.79773
1344.0 0.000744 1336.40588 1359.55627
1340.0 0.000746 1336.25220 1363.26099
1331.0 0.000751 1336.09875 1365.97644
1420.0 0.000704 1335.94580 1366.71985
1249.0 0.000801 1335.79333 1365.31775
1383.0 0.000723 1335.64124 1362.60730
1381.0 0.000724 1335.48950 1359.64258
1350.0 0.000741 1335.33826 1357.12134
1331.0 0.000751 1335.18762 1355.36230
1397.0 0.000716 1335.03735 1354.52917
1339.0 0.000747 1334.88757 1354.62073
1380.0 0.000725 1334.73840 1355.65808
1400.0 0.000714 1334.58984 1357.76636
1403.0 0.000713 1334.44177 1361.26904
1338.0 0.000747 1334.29431 1366.76868
1391.0 0.000719 1334.14746 1375.18201
1378.0 0.000726 1334.00122 1387.66541
1453.0 0.000688 1333.85559 1405.40942
1435.0 0.000697 1333.71069 1429.25781
1469.0 0.000681 1333.56641 1459.18860
1496.0 0.000668 1333.42285 1493.53198
1545.0 0.000647 1333.27991 1527.84351
1580.0 0.000633 1333.13782 1554.71790
1555.0 0.000643 1332.99646 1567.80017
1574.0 0.000635 1332.85583 1567.79382
1583.0 0.000632 1332.71594 1560.65833
1498.0 0.000668 1332.57690 1550.10730
1544.0 0.000648 1332.43872 1534.73572
1525.0 0.000656 1332.30127 1511.86450
1483.0 0.000674 1332.16479 1482.91516
1465.0 0.000683 1332.02905 1452.77759
1396.0 0.000716 1331.89429 1425.23816
1441.0 0.000694 1331.76038 1402.91040
1417.0 0.000706 1331.62744 1385.73621
1371.0 0.000729 1331.49536 1373.18982
1455.0 0.000687 1331.36426 1364.37292
1422.0 0.000703 1331.23425 1358.31250
1402.0 0.000713 1331.10498 1354.14758
1366.0 0.000732 1330.97693 1351.22400
1380.0 0.000725 1330.84973 1349.12024
1318.0 0.000759 1330.72363 1347.50781
1366.0 0.000732 1330.59863 1346.24548
1335.0 0.000749 1330.47461 1345.23718
1341.0 0.000746 1330.35181 1344.42419
1392.0 0.000718 1330.22998 1343.76868
1394.0 0.000717 1330.10938 1343.24438
1346.0 0.000743 1329.98975 1342.83203
1381.0 0.000724 1329.87134 1342.59558
1336.0 0.000749 1329.75403 1342.37024
1428.0 0.000700 1329.63794 1342.22546
1363.0 0.000734 1329.52307 1342.15576
1328.0 0.000753 1329.40942 1342.15649
1316.0 0.000760 1329.29700 1342.22791
1326.0 0.000754 1329.18567 1342.36621
1378.0 0.000726 1329.07581 1342.57495
1379.0 0.000725 1328.96704 1342.85510
1359.0 0.000736 1328.85950 1343.21033
1390.0 0.000719 1328.75330 1343.64600
1334.0 0.000750 1328.64856 1344.09302
1339.0 0.000747 1328.54504 1344.71216
1305.0 0.000766 1328.44275 1345.43591
1314.0 0.000761 1328.34192 1346.27869
1293.0 0.000773 1328.24243 1347.25720
1339.0 0.000747 1328.14441 1348.38794
1400.0 0.000714 1328.04761 1349.69861
1333.0 0.000750 1327.95227 1351.21802
1374.0 0.000728 1327.85840 1352.98608
1334.0 0.000750 1327.76587 1355.05078
1394.0 0.000717 1327.67480 1357.47913
1389.0 0.000720 1327.58521 1360.35864
1361.0 0.000735 1327.49707 1363.82214
1397.0 0.000716 1327.41040 1368.07849
1387.0 0.000721 1327.32532 1373.48242
1360.0 0.000735 1327.24158 1380.64673
1402.0 0.000713 1327.15942 1390.62805
1409.0 0.000710 1327.07874 1404.97754
1427.0 0.000701 1326.99963 1425.98877
1417.0 0.000706 1326.92212 1456.42920
1457.0 0.000686 1326.84607 1499.03674
1463.0 0.000684 1326.77161 1555.57666
1589.0 0.000629 1326.69873 1625.51917
1700.0 0.000588 1326.62744 1704.19751
1788.0 0.000559 1326.55774 1780.23340
1875.0 0.000533 1326.48962 1834.34766
1902.0 0.000526 1326.42310 1847.32800
1824.0 0.000548 1326.35828 1817.13818
1805.0 0.000554 1326.29517 1762.08374
1836.0 0.000545 1326.23352 1705.06287
1644.0 0.000608 1326.17358 1662.90918
1636.0 0.000611 1326.11536 1646.54260
1673.0 0.000598 1326.05872 1663.31763
1745.0 0.000573 1326.00378 1718.00305
1695.0 0.000590 1325.95056 1812.24939
1950.0 0.000513 1325.89905 1942.80566
2107.0 0.000475 1325.84912 2098.29614
2178.0 0.000459 1325.80103 2253.89771
2352.0 0.000425 1325.75452 2367.39380
2382.0 0.000420 1325.70984 2392.39697
2324.0 0.000430 1325.66687 2315.05420
2123.0 0.000471 1325.62561 2168.14795
1953.0 0.000512 1325.58606 1998.69568
1911.0 0.000523 1325.54834 1839.48816
1768.0 0.000566 1325.51233 1706.32458
1665.0 0.000601 1325.47803 1603.63379
1463.0 0.000684 1325.44556 1529.29810
1480.0 0.000676 1325.41479 1477.94397
1439.0 0.000695 1325.38586 1443.36804
1462.0 0.000684 1325.35864 1420.08325
1463.0 0.000684 1325.33325 1403.98267
1412.0 0.000708 1325.30969 1392.33875
1270.0 0.000787 1325.28784 1383.49414
1399.0 0.000715 1325.26782 1376.48914
1369.0 0.000730 1325.24951 1370.76990
1430.0 0.000699 1325.23315 1366.00647
1395.0 0.000717 1325.21851 1361.98413
1310.0 0.000763 1325.20569 1358.55432
1360.0 0.000735 1325.19458 1355.60681
1364.0 0.000733 1325.18542 1353.26184
1340.0 0.000746 1325.17798 1351.04639
1341.0 0.000746 1325.17236 1349.10999
1375.0 0.000727 1325.16858 1347.24414
1379.0 0.000725 1325.16663 1345.74927
1367.0 0.000732 1325.16650 1344.42834
1329.0 0.000752 1325.16821 1343.27551
1352.0 0.000740 1325.17163 1342.23792
1379.0 0.000725 1325.17688 1341.19800
1349.0 0.000741 1325.18408 1340.38171
1373.0 0.000728 1325.19299 1339.65808
1369.0 0.000730 1325.20374 1339.01721
1414.0 0.000707 1325.21631 1338.45264
1273.0 0.000786 1325.23071 1337.95850
1296.0 0.000772 1325.24683 1337.53003
1404.0 0.000712 1325.26489 1337.16357
1320.0 0.000758 1325.28467 1336.85681
1293.0 0.000773 1325.30640 1336.60901
1356.0 0.000737 1325.32971 1336.41980
1370.0 0.000730 1325.35498 1336.28979
1382.0 0.000724 1325.38208 1336.22253
1357.0 0.000737 1325.41089 1336.22351
1337.0 0.000748 1325.44153 1336.29993
1359.0 0.000736 1325.47388 1336.46545
1304.0 0.000767 1325.50818 1336.74353
1289.0 0.000776 1325.54419 1337.17151
1322.0 0.000756 1325.58191 1337.81555
1330.0 0.000752 1325.62146 1338.77881
1272.0 0.000786 1325.66272 1340.21167
1349.0 0.000741 1325.70581 1342.31189
1374.0 0.000728 1325.75061 1345.29700
1445.0 0.000692 1325.79724 1349.36096
1374.0 0.000728 1325.84558 1354.59839
1338.0 0.000747 1325.89563 1360.91675
1401.0 0.000714 1325.94739 1367.90332
1332.0 0.000751 1326.00098 1374.68420
1412.0 0.000708 1326.05627 1380.11450
1414.0 0.000707 1326.11316 1383.76233
1386.0 0.000722 1326.17188 1386.79065
1338.0 0.000747 1326.23230 1391.22607
1395.0 0.000717 1326.29431 1398.59192
1469.0 0.000681 1326.35803 1409.23376
1419.0 0.000705 1326.42346 1422.02930
1479.0 0.000676 1326.49060 1434.00476
1435.0 0.000697 1326.55933 1440.54675
1474.0 0.000678 1326.62976 1437.87659
1410.0 0.000709 1326.70178 1426.43665
1371.0 0.000729 1326.77551 1410.26221
1373.0 0.000728 1326.85071 1393.44714
1367.0 0.000732 1326.92773 1378.44763
1343.0 0.000745 1327.00623 1366.30334
1401.0 0.000714 1327.08630 1357.17542
1373.0 0.000728 1327.16797 1350.72913
1341.0 0.000746 1327.25122 1346.41028
1340.0 0.000746 1327.33606 1343.63916
1375.0 0.000727 1327.42236 1341.92993
1400.0 0.000714 1327.51025 1340.92468
1283.0 0.000779 1327.59961 1340.37500
1356.0 0.000737 1327.69055 1340.10962
1380.0 0.000725 1327.78296 1340.00134
1424.0 0.000702 1327.87683 1339.98743
1347.0 0.000742 1327.97229 1340.11780
1275.0 0.000784 1328.06909 1340.55103
1306.0 0.000766 1328.16736 1341.50146
1370.0 0.000730 1328.26709 1343.19995
1331.0 0.000751 1328.36829 1345.41479
1377.0 0.000726 1328.47083 1349.19177
1371.0 0.000729 1328.57483 1354.06628
1379.0 0.000725 1328.68005 1359.75781
1373.0 0.000728 1328.78674 1365.53809
1330.0 0.000752 1328.89478 1370.08228
1390.0 0.000719 1329.00415 1371.79749
1368.0 0.000731 1329.11487 1369.98254
1267.0 0.000789 1329.22681 1365.54883
1359.0 0.000736 1329.34009 1360.13110
1345.0 0.000743 1329.45471 1355.01208
1345.0 0.000743 1329.57043 1350.88525
1379.0 0.000725 1329.68762 1348.02356
1366.0 0.000732 1329.80579 1345.42737
1319.0 0.000758 1329.92542 1344.97412
1373.0 0.000728 1330.04602 1345.40454
1357.0 0.000737 1330.16797 1346.47131
1363.0 0.000734 1330.29089 1347.86194
1409.0 0.000710 1330.41516 1349.11035
1289.0 0.000776 1330.54041 1349.63745
1321.0 0.000757 1330.66675 1349.10828
1368.0 0.000731 1330.79443 1347.69836
1312.0 0.000762 1330.92285 1345.93848
1390.0 0.000719 1331.05261 1344.27515
1329.0 0.000752 1331.18323 1342.95728
1304.0 0.000767 1331.31494 1342.08032
1335.0 0.000749 1331.44763 1341.64111
1369.0 0.000730 1331.58130 1341.57935
1353.0 0.000739 1331.71582 1341.79590
1335.0 0.000749 1331.85144 1342.18250
1346.0 0.000743 1331.98792 1342.66248
1315.0 0.000760 1332.12537 1343.22754
1358.0 0.000736 1332.26367 1343.92493
1296.0 0.000772 1332.40283 1344.81506
1363.0 0.000734 1332.54285 1345.95898
1349.0 0.000741 1332.68372 1347.42676
1323.0 0.000756 1332.82532 1349.32373
1306.0 0.000766 1332.96777 1351.82214
1329.0 0.000752 1333.11108 1355.22388
1338.0 0.000747 1333.25500 1360.03040
1315.0 0.000760 1333.39966 1367.02954
1373.0 0.000728 1333.54504 1377.33337
1396.0 0.000716 1333.69116 1392.32104
1373.0 0.000728 1333.83801 1413.40564
1500.0 0.000667 1333.98535 1441.62268
1506.0 0.000664 1334.13342 1477.02356
1560.0 0.000641 1334.28210 1517.86987
1642.0 0.000609 1334.43127 1559.43079
1601.0 0.000625 1334.58105 1592.88025
1687.0 0.000593 1334.73132 1607.23779
1705.0 0.000587 1334.88220 1597.02039
1625.0 0.000615 1335.03369 1567.73181
1561.0 0.000641 1335.18555 1530.40906
1484.0 0.000674 1335.33777 1493.79858
1477.0 0.000677 1335.49036 1462.21155
1414.0 0.000707 1335.64355 1436.58020
1412.0 0.000708 1335.79712 1416.03772
1390.0 0.000719 1335.95105 1399.47461
1363.0 0.000734 1336.10535 1386.24890
1400.0 0.000714 1336.25989 1375.92627
1319.0 0.000758 1336.41467 1368.01733
1330.0 0.000752 1336.56995 1362.02979
1289.0 0.000776 1336.72534 1357.53552
1361.0 0.000735 1336.88098 1354.18384
1341.0 0.000746 1337.03687 1351.68945
1326.0 0.000754 1337.19299 1349.82178
1317.0 0.000759 1337.34924 1348.43982
1385.0 0.000722 1337.50562 1347.34094
1340.0 0.000746 1337.66211 1346.47095
1394.0 0.000717 1337.81873 1345.77051
1294.0 0.000773 1337.97546 1345.19775
1367.0 0.000732 1338.13220 1344.72693
1384.0 0.000723 1338.28906 1344.33838
1335.0 0.000749 1338.44592 1344.01782
1390.0 0.000719 1338.60266 1343.75378
1298.0 0.000770 1338.75952 1343.53845
1347.0 0.000742 1338.91626 1343.36389
1339.0 0.000747 1339.07288 1343.22437
1313.0 0.000762 1339.22949 1343.11536
1331.0 0.000751 1339.38586 1343.29089
1294.0 0.000773 1339.54224 1343.23511
1290.0 0.000775 1339.69824 1343.20044
1334.0 0.000750 1339.85437 1343.18274
1309.0 0.000764 1340.01001 1343.18091
1351.0 0.000740 1340.16553 1343.19299
1312.0 0.000762 1340.32080 1343.19165
1297.0 0.000771 1340.47583 1343.22766
1377.0 0.000726 1340.63049 1343.27368
1377.0 0.000726 1340.78491 1343.32849
1321.0 0.000757 1340.93896 1343.39111
1324.0 0.000755 1341.09253 1343.46082
1340.0 0.000746 1341.24585 1343.53699
1351.0 0.000740 1341.39880 1343.62024
1364.0 0.000733 1341.55127 1343.70850
1366.0 0.000732 1341.70325 1343.72437
1294.0 0.000773 1341.85474 1343.82312
1302.0 0.000768 1342.00574 1343.92627
1383.0 0.000723 1342.15625 1344.03333
1328.0 0.000753 1342.30627 1344.14380
1256.0 0.000796 1342.45569 1344.25818
1342.0 0.000745 1342.60449 1344.37476
1398.0 0.000715 1342.75269 1344.49487
1333.0 0.000750 1342.90039 1344.61768
1349.0 0.000741 1343.04724 1344.74329
1397.0 0.000716 1343.19348 1344.87170
1284.0 0.000779 1343.33911 1345.00269
1339.0 0.000747 1343.48401 1345.13599
1357.0 0.000737 1343.62830 1345.27197
1372.0 0.000729 1343.77161 1345.41064
1351.0 0.000740 1343.91431 1345.55078
1307.0 0.000765 1344.05615 1345.69531
1364.0 0.000733 1344.19714 1345.84229
1353.0 0.000739 1344.33740 1345.99329
1364.0 0.000733 1344.47668 1346.14771
1323.0 0.000756 1344.61523 1346.30627
1318.0 0.000759 1344.75281 1346.47046
1362.0 0.000734 1344.88953 1346.63977
1277.0 0.000783 1345.02527 1346.81628
1368.0 0.000731 1345.16016 1347.00085
1320.0 0.000758 1345.29395 1347.19556
1362.0 0.000734 1345.42676 1347.37659
1308.0 0.000765 1345.55859 1347.60522
1370.0 0.000730 1345.68945 1347.86145
1353.0 0.000739 1345.81921 1348.16138
1340.0 0.000746 1345.94788 1348.52954
1374.0 0.000728 1346.07544 1350.01697
1333.0 0.000750 1346.20190 1350.66431
1333.0 0.000750 1346.32739 1351.52759
1346.0 0.000743 1346.45154 1352.66321
1304.0 0.000767 1346.57471 1354.10522
1300.0 0.000769 1346.69666 1355.84656
1350.0 0.000741 1346.81726 1357.79199
1310.0 0.000763 1346.93689 1359.71191
1302.0 0.000768 1347.05518 1361.19922
1330.0 0.000752 1347.17224 1361.81067
1354.0 0.000739 1347.28796 1361.34741
1368.0 0.000731 1347.40247 1360.07751
1431.0 0.000699 1347.51575 1358.47034
1326.0 0.000754 1347.62756 1356.89612
1365.0 0.000733 1347.73828 1355.55322
1369.0 0.000730 1347.84741 1354.51648
1357.0 0.000737 1347.95532 1353.78687
1292.0 0.000774 1348.06189 1353.32141
1391.0 0.000719 1348.16699 1353.06348
1409.0 0.000710 1348.27075 1352.95398
1333.0 0.000750 1348.37305 1354.73206
1318.0 0.000759 1348.47388 1354.82617
1284.0 0.000779 1348.57336 1354.96790
1295.0 0.000772 1348.67126 1355.14514
1323.0 0.000756 1348.76782 1355.35229
1309.0 0.000764 1348.86279 1355.58813
1384.0 0.000723 1348.95630 1355.85217
1320.0 0.000758 1349.04834 1356.14844
1326.0 0.000754 1349.13879 1356.48010
1377.0 0.000726 1349.22766 1356.84851
1372.0 0.000729 1349.31494 1357.25330
1320.0 0.000758 1349.40076 1357.68848
1335.0 0.000749 1349.48499 1358.13904
1323.0 0.000756 1349.56763 1358.58118
1339.0 0.000747 1349.64868 1358.98889
1387.0 0.000721 1349.72803 1359.35962
1343.0 0.000745 1349.80579 1359.71655
1388.0 0.000720 1349.88196 1360.09546
1400.0 0.000714 1349.95642 1360.31665
1342.0 0.000745 1350.02930 1360.81262
1332.0 0.000751 1350.10046 1361.38794
1361.0 0.000735 1350.16992 1362.05701
1353.0 0.000739 1350.23779 1362.83569
1365.0 0.000733 1350.30383 1363.75305
1351.0 0.000740 1350.36816 1364.85547
1411.0 0.000709 1350.43091 1366.20398
1338.0 0.000747 1350.49182 1367.95410
1383.0 0.000723 1350.55103 1370.26318
1331.0 0.000751 1350.60852 1373.33911
1380.0 0.000725 1350.66418 1377.42102
1404.0 0.000712 1350.71814 1382.70972
1362.0 0.000734 1350.77039 1389.29370
1379.0 0.000725 1350.82080 1397.04492
1382.0 0.000724 1350.86938 1405.46509
1411.0 0.000709 1350.91626 1413.50183
1432.0 0.000698 1350.96130 1419.57751
1437.0 0.000696 1351.00452 1422.41614
1417.0 0.000706 1351.04602 1422.30969
1407.0 0.000711 1351.08569 1421.17371
1379.0 0.000725 1351.12354 1421.40112
1491.0 0.000671 1351.15942 1425.14490
1397.0 0.000716 1351.19360 1434.29456
1493.0 0.000670 1351.22595 1450.53271
1504.0 0.000665 1351.25647 1475.15942
1437.0 0.000696 1351.28503 1508.69653
1634.0 0.000612 1351.31189 1550.27856
1680.0 0.000595 1351.33679 1596.73743
1677.0 0.000596 1351.35999 1641.27844
1698.0 0.000589 1351.38123 1672.89441
1748.0 0.000572 1351.40063 1680.20349
1624.0 0.000616 1351.41809 1660.22595
1722.0 0.000581 1351.43372 1620.79944
1683.0 0.000594 1351.44763 1574.06470
1605.0 0.000623 1351.45947 1528.92822
1590.0 0.000629 1351.46960 1490.05103
1470.0 0.000680 1351.47778 1459.11914
1446.0 0.000692 1351.48413 1436.01917
1455.0 0.000687 1351.48853 1419.65234
1435.0 0.000697 1351.49121 1408.52563
1420.0 0.000704 1351.49182 1401.17188
1415.0 0.000707 1351.49060 1396.38293
1403.0 0.000713 1351.48755 1393.28345
1367.0 0.000732 1351.48267 1391.29968
1364.0 0.000733 1351.47595 1390.07861
1393.0 0.000718 1351.46729 1389.41699
1380.0 0.000725 1351.45679 1389.19678
1409.0 0.000710 1351.44446 1389.35217
1422.0 0.000703 1351.43018 1389.84607
1399.0 0.000715 1351.41406 1390.66101
1433.0 0.000698 1351.39612 1391.79089
1336.0 0.000749 1351.37622 1393.24561
1391.0 0.000719 1351.35461 1395.03369
1409.0 0.000710 1351.33105 1397.18555
1325.0 0.000755 1351.30566 1399.73816
1359.0 0.000736 1351.27844 1402.74329
1388.0 0.000720 1351.24951 1406.26746
1428.0 0.000700 1351.21863 1410.39856
1377.0 0.000726 1351.18579 1415.56396
1386.0 0.000722 1351.15125 1421.30786
1403.0 0.000713 1351.11499 1428.16455
1410.0 0.000709 1351.07678 1436.48669
1428.0 0.000700 1351.03674 1446.84338
1429.0 0.000700 1350.99500 1460.18481
1531.0 0.000653 1350.95154 1478.07166
1498.0 0.000668 1350.90613 1502.96484
1561.0 0.000641 1350.85901 1538.46753
1652.0 0.000605 1350.81006 1589.34705
1626.0 0.000615 1350.75928 1661.12512
1746.0 0.000573 1350.70691 1759.04895
1886.0 0.000530 1350.65271 1886.42737
2084.0 0.000480 1350.59680 2042.34692
2278.0 0.000439 1350.53906 2218.49902
2382.0 0.000420 1350.47961 2394.58569
2575.0 0.000388 1350.41846 2534.57568
2512.0 0.000398 1350.35559 2594.90015
2753.0 0.000363 1350.29114 2553.09399
2539.0 0.000394 1350.22485 2428.77100
2370.0 0.000422 1350.15686 2265.35742
2217.0 0.000451 1350.08728 2100.45850
2017.0 0.000496 1350.01611 1956.05945
1935.0 0.000517 1349.94312 1841.94348
1779.0 0.000562 1349.86853 1760.56433
1683.0 0.000594 1349.79236 1710.60168
1690.0 0.000592 1349.71448 1689.70959
1722.0 0.000581 1349.63513 1696.75537
1715.0 0.000583 1349.55408 1733.23425
1696.0 0.000590 1349.47144 1803.75757
1855.0 0.000539 1349.38721 1915.25317
1981.0 0.000505 1349.30151 2074.92041
2184.0 0.000458 1349.21423 2287.02466
2440.0 0.000410 1349.12537 2548.69385
2784.0 0.000359 1349.03491 2844.22070
3162.0 0.0003163 1348.94299 3136.99951
3505.0 0.0002853 1348.84961 3363.53296
3626.0 0.0002758 1348.75476 3449.07544
3651.0 0.0002739 1348.65845 3357.48535
3245.0 0.0003082 1348.56067 3124.68359
2870.0 0.0003484 1348.46130 2825.23242
2593.0 0.000386 1348.36060 2522.44360
2343.0 0.000427 1348.25854 2252.67529
2116.0 0.000473 1348.15491 2031.26147
1884.0 0.000531 1348.05005 1860.47095
1824.0 0.000548 1347.94373 1735.04309
1679.0 0.000596 1347.83606 1646.15344
1533.0 0.000652 1347.72705 1584.32092
1533.0 0.000652 1347.61670 1541.23840
1524.0 0.000656 1347.50513 1510.55981
1493.0 0.000670 1347.39209 1487.90613
1460.0 0.000685 1347.27783 1470.47961
1505.0 0.000664 1347.16248 1456.57861
1476.0 0.000678 1347.04565 1445.18250
1354.0 0.000739 1346.92761 1435.66956
1389.0 0.000720 1346.80835 1427.64526
1336.0 0.000749 1346.68799 1420.89331
1377.0 0.000726 1346.56641 1415.13049
1427.0 0.000701 1346.44360 1410.26257
1416.0 0.000706 1346.31970 1406.17578
1414.0 0.000707 1346.19458 1402.76062
1421.0 0.000704 1346.06836 1399.89709
1416.0 0.000706 1345.94104 1397.42969
1420.0 0.000704 1345.81262 1395.15686
1453.0 0.000688 1345.68323 1392.87122
1342.0 0.000745 1345.55273 1390.47791
1371.0 0.000729 1345.42114 1388.04846
1362.0 0.000734 1345.28857 1385.73145
1444.0 0.000693 1345.15503 1383.65247
1405.0 0.000712 1345.02051 1381.87830
1403.0 0.000713 1344.88501 1380.43811
1440.0 0.000694 1344.74854 1379.41321
1371.0 0.000729 1344.61121 1378.66357
1441.0 0.000694 1344.47290 1378.23743
1342.0 0.000745 1344.33374 1378.24585
1402.0 0.000713 1344.19373 1378.73938
1332.0 0.000751 1344.05286 1379.88293
1369.0 0.000730 1343.91113 1381.95715
1428.0 0.000700 1343.76855 1385.38684
1394.0 0.000717 1343.62524 1390.76526
1353.0 0.000739 1343.48108 1398.77625
1397.0 0.000716 1343.33618 1410.14478
1463.0 0.000684 1343.19067 1425.40576
1506.0 0.000664 1343.04431 1444.64941
1430.0 0.000699 1342.89722 1467.16064
1499.0 0.000667 1342.74951 1490.88721
1526.0 0.000655 1342.60120 1511.56238
1532.0 0.000653 1342.45215 1523.98853
1473.0 0.000679 1342.30249 1523.23389
1524.0 0.000656 1342.15234 1509.54089
1523.0 0.000657 1342.00146 1487.84021
1519.0 0.000658 1341.85010 1463.80615
1467.0 0.000682 1341.69812 1441.24365
1402.0 0.000713 1341.54565 1422.09888
1420.0 0.000704 1341.39270 1407.01978
1431.0 0.000699 1341.23926 1395.88782
1439.0 0.000695 1341.08521 1388.16931
1417.0 0.000706 1340.93091 1383.18188
1351.0 0.000740 1340.77612 1380.27905
1354.0 0.000739 1340.62085 1378.96301
1395.0 0.000717 1340.46533 1379.07666
1426.0 0.000701 1340.30933 1380.22729
1420.0 0.000704 1340.15308 1382.67114
1340.0 0.000746 1339.99634 1386.75183
1391.0 0.000719 1339.83948 1393.08435
1443.0 0.000693 1339.68213 1402.67346
1376.0 0.000727 1339.52466 1416.52917
1332.0 0.000751 1339.36694 1436.07971
1420.0 0.000704 1339.20886 1462.60486
1409.0 0.000710 1339.05066 1496.97595
1472.0 0.000679 1338.89221 1539.06592
1509.0 0.000663 1338.73364 1586.84863
1695.0 0.000590 1338.57483 1635.15100
1684.0 0.000594 1338.41602 1674.57019
1645.0 0.000608 1338.25708 1693.15039
1741.0 0.000574 1338.09802 1683.44116
1655.0 0.000604 1337.93884 1649.02466
1568.0 0.000638 1337.77954 1601.19238
1493.0 0.000670 1337.62036 1550.80127
1414.0 0.000707 1337.46106 1504.61475
1500.0 0.000667 1337.30176 1465.78760
1398.0 0.000715 1337.14246 1435.15063
1441.0 0.000694 1336.98328 1412.15771
1406.0 0.000711 1336.82410 1395.53979
1377.0 0.000726 1336.66504 1383.79724
1392.0 0.000718 1336.50598 1375.53467
1347.0 0.000742 1336.34705 1369.62805
1375.0 0.000727 1336.18835 1365.27039
1384.0 0.000723 1336.02966 1361.92505
1419.0 0.000705 1335.87122 1359.25854
1368.0 0.000731 1335.71301 1357.06836
1336.0 0.000749 1335.55493 1354.21741
1374.0 0.000728 1335.39709 1352.67896
1380.0 0.000725 1335.23950 1351.37585
1382.0 0.000724 1335.08215 1350.27991
1338.0 0.000747 1334.92505 1349.37708
1356.0 0.000737 1334.76831 1348.66223
1363.0 0.000734 1334.61194 1348.13269
1432.0 0.000698 1334.45581 1347.78320
1368.0 0.000731 1334.29993 1347.59583
1364.0 0.000733 1334.14453 1347.61230
1318.0 0.000759 1333.98950 1347.60938
1329.0 0.000752 1333.83484 1347.54590
1278.0 0.000782 1333.68066 1347.28479
1348.0 0.000742 1333.52673 1346.74670
1410.0 0.000709 1333.37341 1345.98108
1395.0 0.000717 1333.22046 1345.11487
1388.0 0.000720 1333.06812 1344.26599
1264.0 0.000791 1332.91626 1343.50659
1317.0 0.000759 1332.76477 1342.87305
1386.0 0.000722 1332.61389 1342.37500
1284.0 0.000779 1332.46350 1340.22546
1282.0 0.000780 1332.31384 1340.01514
1355.0 0.000738 1332.16455 1339.91663
1325.0 0.000755 1332.01599 1339.93164
1348.0 0.000742 1331.86792 1340.03845
1306.0 0.000766 1331.72058 1340.25146
1314.0 0.000761 1331.57385 1340.58533
1363.0 0.000734 1331.42773 1341.07532
1326.0 0.000754 1331.28223 1341.79211
1352.0 0.000740 1331.13745 1342.85779
1347.0 0.000742 1330.99341 1344.44946
1353.0 0.000739 1330.85010 1346.78284
1331.0 0.000751 1330.70740 1350.08667
1360.0 0.000735 1330.56555 1354.55237
1367.0 0.000732 1330.42432 1360.26978
1379.0 0.000725 1330.28394 1367.13428
1340.0 0.000746 1330.14429 1374.71948
1356.0 0.000737 1330.00549 1382.08960
1388.0 0.000720 1329.86743 1387.74451
1418.0 0.000705 1329.73022 1389.93079
1411.0 0.000709 1329.59387 1387.98669
1416.0 0.000706 1329.45825 1382.86084
1383.0 0.000723 1329.32361 1376.36279
1390.0 0.000719 1329.18970 1370.07874
1353.0 0.000739 1329.05676 1365.04443
1361.0 0.000735 1328.92468 1361.87305
1394.0 0.000717 1328.79346 1360.93359
1362.0 0.000734 1328.66321 1362.43176
1420.0 0.000704 1328.53381 1366.46240
1441.0 0.000694 1328.40540 1372.94751
1325.0 0.000755 1328.27795 1381.58826
1336.0 0.000749 1328.15137 1391.65344
1381.0 0.000724 1328.02576 1401.80481
1390.0 0.000719 1327.90125 1409.87341
1366.0 0.000732 1327.77759 1413.36816
1378.0 0.000726 1327.65491 1411.03076
1424.0 0.000702 1327.53320 1403.93689
1390.0 0.000719 1327.41260 1394.55127
1368.0 0.000731 1327.29309 1385.08936
1353.0 0.000739 1327.17444 1376.88855
1356.0 0.000737 1327.05688 1370.42090
1306.0 0.000766 1326.94043 1365.65405
1332.0 0.000751 1326.82495 1362.14954
1347.0 0.000742 1326.71057 1359.45007
1346.0 0.000743 1326.59729 1357.03088
1277.0 0.000783 1326.48499 1355.03821
1408.0 0.000710 1326.37378 1353.61926
1405.0 0.000712 1326.26379 1353.00537
1358.0 0.000736 1326.15479 1353.34253
1363.0 0.000734 1326.04700 1354.72852
1368.0 0.000731 1325.94019 1357.21912
1310.0 0.000763 1325.83459 1360.68054
1302.0 0.000768 1325.72998 1365.35522
1383.0 0.000723 1325.62671 1370.96619
1442.0 0.000693 1325.52441 1377.35950
1393.0 0.000718 1325.42334 1384.64490
1397.0 0.000716 1325.32336 1393.52515
1403.0 0.000713 1325.22449 1405.16296
1422.0 0.000703 1325.12683 1420.62769
1467.0 0.000682 1325.03040 1440.37012
1507.0 0.000664 1324.93506 1463.84497
1411.0 0.000709 1324.84094 1489.02161
1554.0 0.000644 1324.74792 1512.01855
1544.0 0.000648 1324.65613 1527.99316
1491.0 0.000671 1324.56555 1534.02905
1535.0 0.000651 1324.47607 1531.19531
1523.0 0.000657 1324.38782 1522.56250
1420.0 0.000704 1324.30078 1509.86218
1459.0 0.000685 1324.21484 1492.92004
1471.0 0.000680 1324.13025 1471.78967
1433.0 0.000698 1324.04675 1448.34448
1339.0 0.000747 1323.96448 1425.33167
1409.0 0.000710 1323.88342 1404.79919
1381.0 0.000724 1323.80359 1387.65063
1422.0 0.000703 1323.72498 1373.99207
1385.0 0.000722 1323.64746 1363.50085
1393.0 0.000718 1323.57129 1355.66418
1392.0 0.000718 1323.49622 1349.92139
1340.0 0.000746 1323.42249 1345.43909
1368.0 0.000731 1323.34985 1342.41772
1364.0 0.000733 1323.27844 1340.16089
1324.0 0.000755 1323.20837 1338.45190
1322.0 0.000756 1323.13940 1337.12732
1361.0 0.000735 1323.07153 1336.08716
1294.0 0.000773 1323.00513 1335.26697
1340.0 0.000746 1322.93982 1334.62732
1300.0 0.000769 1322.87561 1334.14771
1325.0 0.000755 1322.81287 1333.81519
1336.0 0.000749 1322.75110 1333.62988
1338.0 0.000747 1322.69067 1333.60229
1352.0 0.000740 1322.63135 1333.75720
1353.0 0.000739 1322.57324 1334.14832
1313.0 0.000762 1322.51648 1334.85938
1364.0 0.000733 1322.46082 1336.02869
1341.0 0.000746 1322.40637 1337.85181
1308.0 0.000765 1322.35303 1340.58667
1310.0 0.000763 1322.30103 1344.52869
1329.0 0.000752 1322.25024 1349.96741
1274.0 0.000785 1322.20044 1357.10547
1399.0 0.000715 1322.15198 1365.95728
1358.0 0.000736 1322.10461 1376.20227
1423.0 0.000703 1322.05859 1386.97681
1422.0 0.000703 1322.01367 1396.63293
1432.0 0.000698 1321.96985 1402.79089
1428.0 0.000700 1321.92725 1403.34778
1410.0 0.000709 1321.88574 1398.04260
1410.0 0.000709 1321.84546 1388.68958
1398.0 0.000715 1321.80640 1377.73816
1398.0 0.000715 1321.76843 1367.02209
1352.0 0.000740 1321.73157 1357.55786
1381.0 0.000724 1321.69580 1349.76416
1293.0 0.000773 1321.66138 1343.68311
1348.0 0.000742 1321.62793 1339.14209
1319.0 0.000758 1321.59558 1335.86218
1321.0 0.000757 1321.56445 1333.53992
1321.0 0.000757 1321.53442 1331.90405
1349.0 0.000741 1321.50549 1330.74121
1296.0 0.000772 1321.47766 1329.91809
1363.0 0.000734 1321.45093 1329.29419
1276.0 0.000784 1321.42529 1328.82593
1373.0 0.000728 1321.40076 1328.47729
1337.0 0.000748 1321.37720 1328.22913
1330.0 0.000752 1321.35486 1328.07471
1328.0 0.000753 1321.33350 1328.01965
1367.0 0.000732 1321.31323 1328.07568
1324.0 0.000755 1321.29407 1328.27087
1359.0 0.000736 1321.27588 1328.63892
1343.0 0.000745 1321.25867 1329.22083
1311.0 0.000763 1321.24255 1330.05640
1384.0 0.000723 1321.22754 1331.17358
1275.0 0.000784 1321.21350 1332.56873
1326.0 0.000754 1321.20044 1334.19202
1336.0 0.000749 1321.18835 1335.91223
1367.0 0.000732 1321.17737 1337.43542
1381.0 0.000724 1321.16724 1338.52185
1344.0 0.000744 1321.15820 1338.84534
1354.0 0.000739 1321.15015 1338.41235
1338.0 0.000747 1321.14294 1337.53308
1369.0 0.000730 1321.13684 1336.60901
1313.0 0.000762 1321.13159 1335.97546
1352.0 0.000740 1321.12720 1335.88330
1336.0 0.000749 1321.12390 1336.53418
1365.0 0.000733 1321.12146 1338.10010
1354.0 0.000739 1321.11987 1340.71741
1352.0 0.000740 1321.11926 1344.47083
1369.0 0.000730 1321.11951 1349.34448
1389.0 0.000720 1321.12073 1355.15686
1406.0 0.000711 1321.12268 1362.42529
1353.0 0.000739 1321.12561 1368.31018
1337.0 0.000748 1321.12939 1372.64063
1347.0 0.000742 1321.13403 1374.10388
1342.0 0.000745 1321.13953 1372.35547
1396.0 0.000716 1321.14575 1368.26685
1315.0 0.000760 1321.15283 1363.24719
1400.0 0.000714 1321.16077 1358.47729
1310.0 0.000763 1321.16943 1354.68298
1347.0 0.000742 1321.17896 1352.21704
1390.0 0.000719 1321.18933 1351.16736
1377.0 0.000726 1321.20044 1351.46179
1376.0 0.000727 1321.21228 1352.84509
1330.0 0.000752 1321.22485 1354.92261
1372.0 0.000729 1321.23816 1357.20935
1407.0 0.000711 1321.25232 1359.33728
1332.0 0.000751 1321.26709 1361.36768
1398.0 0.000715 1321.28259 1363.87048
1315.0 0.000760 1321.29895 1367.64099
1386.0 0.000722 1321.31592 1373.42371
1406.0 0.000711 1321.33350 1381.78894
1390.0 0.000719 1321.35181 1393.03552
1357.0 0.000737 1321.37073 1407.04517
1407.0 0.000711 1321.39038 1423.31067
1391.0 0.000719 1321.41077 1441.06238
1388.0 0.000720 1321.43164 1459.55481
1400.0 0.000714 1321.45325 1477.58655
1484.0 0.000674 1321.47534 1492.60645
1469.0 0.000681 1321.49817 1501.52124
1504.0 0.000665 1321.52161 1499.62891
1483.0 0.000674 1321.54553 1487.32874
1494.0 0.000669 1321.57019 1467.81323
1458.0 0.000686 1321.59521 1444.98962
1352.0 0.000740 1321.62097 1422.31335
1442.0 0.000693 1321.64722 1401.94971
1392.0 0.000718 1321.67395 1384.80750
1356.0 0.000737 1321.70129 1371.26526
1317.0 0.000759 1321.72913 1360.95691
1371.0 0.000729 1321.75745 1353.36255
1332.0 0.000751 1321.78625 1347.88928
1321.0 0.000757 1321.81555 1343.98108
1332.0 0.000751 1321.84546 1342.41162
1333.0 0.000750 1321.87573 1340.38867
1324.0 0.000755 1321.90649 1338.88733
1385.0 0.000722 1321.93762 1337.74829
1318.0 0.000759 1321.96936 1336.87146
1326.0 0.000754 1322.00134 1336.19482
1301.0 0.000769 1322.03394 1335.67920
1314.0 0.000761 1322.06677 1335.30371
1389.0 0.000720 1322.10010 1335.05432
1345.0 0.000743 1322.13379 1334.93164
1423.0 0.000703 1322.16797 1334.94409
1281.0 0.000781 1322.20239 1335.12659
1349.0 0.000741 1322.23730 1335.48889
1272.0 0.000786 1322.27246 1336.10217
1390.0 0.000719 1322.30798 1337.03955
1290.0 0.000775 1322.34387 1338.39026
1356.0 0.000737 1322.38000 1340.24158
1324.0 0.000755 1322.41663 1342.65674
1367.0 0.000732 1322.45337 1345.65161
1395.0 0.000717 1322.49060 1349.16919
1375.0 0.000727 1322.52795 1353.03320
1347.0 0.000742 1322.56580 1356.86841
1344.0 0.000744 1322.60364 1360.01758
1388.0 0.000720 1322.64197 1361.65601
1310.0 0.000763 1322.68042 1361.22595
1406.0 0.000711 1322.71924 1358.89478
1313.0 0.000762 1322.75818 1355.40637
1356.0 0.000737 1322.79749 1351.56750
1322.0 0.000756 1322.83691 1347.93616
1347.0 0.000742 1322.87659 1344.80688
1333.0 0.000750 1322.91638 1342.21680
1317.0 0.000759 1322.95654 1340.31824
1315.0 0.000760 1322.99683 1338.98340
1323.0 0.000756 1323.03723 1338.08423
1319.0 0.000758 1323.07788 1337.53381
1292.0 0.000774 1323.11865 1337.23975
1290.0 0.000775 1323.15955 1337.12952
1366.0 0.000732 1323.20056 1337.15295
1336.0 0.000749 1323.24182 1337.27478
1372.0 0.000729 1323.28320 1337.47363
1379.0 0.000725 1323.32471 1337.73718
1326.0 0.000754 1323.36633 1338.06104
1396.0 0.000716 1323.40808 1338.44189
1313.0 0.000762 1323.44983 1338.88293
1316.0 0.000760 1323.49182 1339.38770
1330.0 0.000752 1323.53381 1339.96472
1356.0 0.000737 1323.57581 1340.62573
1331.0 0.000751 1323.61804 1341.38745
1366.0 0.000732 1323.66028 1342.27234
1337.0 0.000748 1323.70251 1343.31055
1377.0 0.000726 1323.74487 1344.54236
1322.0 0.000756 1323.78723 1346.01917
1358.0 0.000736 1323.82971 1347.79785
1359.0 0.000736 1323.87219 1349.93555
1360.0 0.000735 1323.91467 1352.48401
1319.0 0.000758 1323.95715 1355.49097
1382.0 0.000724 1323.99976 1358.99121
1435.0 0.000697 1324.04224 1362.97595
1460.0 0.000685 1324.08484 1367.30420
1405.0 0.000712 1324.12732 1371.63428
1365.0 0.000733 1324.16992 1375.45068
1434.0 0.000697 1324.21240 1377.90906
1386.0 0.000722 1324.25488 1378.69812
1403.0 0.000713 1324.29736 1378.06104
1366.0 0.000732 1324.33984 1376.68298
1410.0 0.000709 1324.38220 1375.25378
1351.0 0.000740 1324.42456 1374.24683
1344.0 0.000744 1324.46692 1373.92737
1402.0 0.000713 1324.50916 1374.41931
1401.0 0.000714 1324.55139 1375.76440
1420.0 0.000704 1324.59351 1377.96411
1370.0 0.000730 1324.63550 1381.00830
1350.0 0.000741 1324.67761 1384.90601
1395.0 0.000717 1324.71948 1389.70569
1445.0 0.000692 1324.76135 1396.25281
1410.0 0.000709 1324.80310 1403.30664
1399.0 0.000715 1324.84473 1411.95081
1397.0 0.000716 1324.88635 1422.78430
1510.0 0.000662 1324.92786 1436.75293
1466.0 0.000682 1324.96912 1455.34277
1464.0 0.000683 1325.01038 1480.68018
1561.0 0.000641 1325.05151 1515.66028
1592.0 0.000628 1325.09265 1563.86890
1619.0 0.000618 1325.13354 1629.25476
1734.0 0.000577 1325.17419 1715.48267
1829.0 0.000547 1325.21497 1824.96228
1915.0 0.000522 1325.25549 1957.55396
2075.0 0.000482 1325.29590 2108.80713
2083.0 0.000480 1325.33618 2267.39258
2336.0 0.000428 1325.37622 2412.08618
2385.0 0.000419 1325.41626 2512.10767
2332.0 0.000429 1325.45605 2538.12793
2432.0 0.000411 1325.49573 2481.74243
2344.0 0.000427 1325.53528 2362.39600
2316.0 0.000432 1325.57458 2212.23755
2185.0 0.000458 1325.61389 2058.68579
2108.0 0.000474 1325.65295 1918.49255
1849.0 0.000541 1325.69177 1799.76038
1804.0 0.000554 1325.73047 1704.92346
1755.0 0.000570 1325.76904 1632.94092
1707.0 0.000586 1325.80750 1580.83362
1622.0 0.000617 1325.84570 1544.84644
1562.0 0.000640 1325.88379 1521.30359
1475.0 0.000678 1325.92163 1507.15173
1524.0 0.000656 1325.95923 1500.22021
1478.0 0.000677 1325.99683 1499.28857
1483.0 0.000674 1326.03406 1504.05334
1495.0 0.000669 1326.07129 1515.13696
1545.0 0.000647 1326.10815 1533.96008
1575.0 0.000635 1326.14490 1562.70020
1546.0 0.000647 1326.18152 1604.06104
1603.0 0.000624 1326.21790 1660.86865
1604.0 0.000623 1326.25415 1735.44958
1747.0 0.000572 1326.29004 1828.79028
1909.0 0.000524 1326.32593 1939.41736
1989.0 0.000503 1326.36145 2061.93799
2128.0 0.000470 1326.39685 2184.75049
2336.0 0.000428 1326.43213 2288.57397
2368.0 0.000422 1326.46716 2349.92969
2497.0 0.000400 1326.50195 2353.43188
2423.0 0.000413 1326.53650 2304.64136
2302.0 0.000434 1326.57092 2226.57983
2194.0 0.000456 1326.60510 2146.15186
2064.0 0.000484 1326.63916 2084.47583
2071.0 0.000483 1326.67297 2055.68115
2003.0 0.000499 1326.70654 2068.33374
2115.0 0.000473 1326.73987 2126.38037
2166.0 0.000462 1326.77307 2229.10547
2250.0 0.000444 1326.80603 2370.22729
2527.0 0.000396 1326.83887 2535.92749
2763.0 0.000362 1326.87146 2701.73657
2899.0 0.0003449 1326.90381 2831.14258
2981.0 0.0003355 1326.93591 2883.96387
2855.0 0.0003503 1326.96790 2838.02441
2737.0 0.000365 1326.99963 2705.35571
2532.0 0.000395 1327.03113 2521.81421
2371.0 0.000422 1327.06250 2323.91187
2194.0 0.000456 1327.09363 2136.55078
2054.0 0.000487 1327.12451 1972.94458
1918.0 0.000521 1327.15527 1838.17151
1784.0 0.000561 1327.18579 1732.13977
1695.0 0.000590 1327.21619 1651.61121
1678.0 0.000596 1327.24622 1591.73999
1689.0 0.000592 1327.27612 1547.36487
1518.0 0.000659 1327.30591 1514.02271
1490.0 0.000671 1327.33533 1488.42004
1511.0 0.000662 1327.36462 1468.32605
1515.0 0.000660 1327.39380 1452.24890
1444.0 0.000693 1327.42261 1439.19055
1394.0 0.000717 1327.45142 1428.47534
1410.0 0.000709 1327.47986 1419.63660
1356.0 0.000737 1327.50818 1412.33838
1453.0 0.000688 1327.53625 1406.31189
1395.0 0.000717 1327.56421 1401.33618
1495.0 0.000669 1327.59192 1397.22314
1376.0 0.000727 1327.61951 1393.80200
1419.0 0.000705 1327.64685 1391.04492
1449.0 0.000690 1327.67395 1388.92200
1323.0 0.000756 1327.70093 1387.45459
1397.0 0.000716 1327.72766 1386.63318
1380.0 0.000725 1327.75427 1386.37598
1354.0 0.000739 1327.78076 1386.49243
1411.0 0.000709 1327.80688 1386.65002
1487.0 0.000672 1327.83301 1386.38879
1351.0 0.000740 1327.85889 1385.28735
1361.0 0.000735 1327.88452 1383.23059
1358.0 0.000736 1327.91003 1380.48035
1392.0 0.000718 1327.93530 1377.46936
1429.0 0.000700 1327.96045 1374.56885
1348.0 0.000742 1327.98547 1372.00635
1402.0 0.000713 1328.01025 1369.89502
1385.0 0.000722 1328.03491 1368.27173
1327.0 0.000754 1328.05933 1367.12830
1360.0 0.000735 1328.08374 1366.43030
1336.0 0.000749 1328.10779 1366.13806
1364.0 0.000733 1328.13184 1366.21594
1382.0 0.000724 1328.15564 1366.64636
1376.0 0.000727 1328.17932 1367.43591
1354.0 0.000739 1328.20276 1368.62341
1313.0 0.000762 1328.22620 1370.29236
1305.0 0.000766 1328.24939 1372.57458
1375.0 0.000727 1328.27234 1375.65918
1360.0 0.000735 1328.29529 1379.79309
1356.0 0.000737 1328.31799 1385.26697
1354.0 0.000739 1328.34070 1392.38123
1331.0 0.000751 1328.36316 1401.40198
1386.0 0.000722 1328.38550 1412.47534
1306.0 0.000766 1328.40771 1425.55884
1484.0 0.000674 1328.42969 1440.28271
1354.0 0.000739 1328.45166 1455.78015
1540.0 0.000649 1328.47351 1470.55566
1433.0 0.000698 1328.49512 1482.75049
1458.0 0.000686 1328.51672 1491.20642
1532.0 0.000653 1328.53809 1496.74536
1492.0 0.000670 1328.55945 1502.36169
1416.0 0.000706 1328.58069 1511.97180
1482.0 0.000675 1328.60168 1529.80408
1474.0 0.000678 1328.62268 1558.70471
1525.0 0.000656 1328.64355 1601.92517
1582.0 0.000632 1328.66431 1661.51428
1641.0 0.000609 1328.68494 1738.09143
1830.0 0.000546 1328.70557 1830.03125
1826.0 0.000548 1328.72607 1932.25391
1996.0 0.000501 1328.74646 2034.47900
2143.0 0.000467 1328.76672 2119.89844
2137.0 0.000468 1328.78687 2167.71997
2185.0 0.000458 1328.80701 2162.82056
2086.0 0.000479 1328.82703 2106.37793
2002.0 0.000500 1328.84692 2014.85608
1849.0 0.000541 1328.86682 1908.69141
1805.0 0.000554 1328.88672 1803.54016
1710.0 0.000585 1328.90637 1708.56653
1653.0 0.000605 1328.92615 1628.00598
1570.0 0.000637 1328.94568 1562.89722
1501.0 0.000666 1328.96533 1512.30896
1485.0 0.000673 1328.98474 1474.20605
1443.0 0.000693 1329.00427 1446.11182
1441.0 0.000694 1329.02368 1425.97156
1440.0 0.000694 1329.04297 1410.92908
1430.0 0.000699 1329.06238 1399.71179
1390.0 0.000719 1329.08167 1391.12451
1396.0 0.000716 1329.10095 1384.34802
1401.0 0.000714 1329.12012 1378.84314
1454.0 0.000688 1329.13940 1373.30042
1389.0 0.000720 1329.15857 1369.42993
1361.0 0.000735 1329.17773 1366.10474
1353.0 0.000739 1329.19690 1363.21887
1300.0 0.000769 1329.21606 1360.69604
1375.0 0.000727 1329.23523 1358.47632
1355.0 0.000738 1329.25439 1356.51379
1373.0 0.000728 1329.27356 1354.77026
1262.0 0.000792 1329.29272 1353.21521
1302.0 0.000768 1329.31201 1351.82153
1301.0 0.000769 1329.33118 1350.57056
1340.0 0.000746 1329.35046 1349.44189
1332.0 0.000751 1329.36975 1348.42102
1352.0 0.000740 1329.38904 1347.49548
1352.0 0.000740 1329.40833 1346.65320
1319.0 0.000758 1329.42773 1345.88635
1353.0 0.000739 1329.44714 1345.18567
1332.0 0.000751 1329.46667 1344.54468
1382.0 0.000724 1329.48633 1343.95715
1344.0 0.000744 1329.50586 1343.41772
1384.0 0.000723 1329.52563 1342.92261
1380.0 0.000725 1329.54541 1342.46631
1379.0 0.000725 1329.56519 1342.04541
1358.0 0.000736 1329.58521 1341.65845
1284.0 0.000779 1329.60522 1341.30139
1377.0 0.000726 1329.62537 1340.97192
1372.0 0.000729 1329.64551 1340.66724
1399.0 0.000715 1329.66589 1339.63513
1366.0 0.000732 1329.68640 1339.38782
1387.0 0.000721 1329.70691 1339.16956
1273.0 0.000786 1329.72766 1338.96167
1405.0 0.000712 1329.74854 1338.77222
1344.0 0.000744 1329.76953 1338.60352
1347.0 0.000742 1329.79065 1338.44751
1309.0 0.000764 1329.81201 1338.30603
1329.0 0.000752 1329.83337 1338.18054
1350.0 0.000741 1329.85510 1338.06970
1343.0 0.000745 1329.87683 1337.97424
1363.0 0.000734 1329.89880 1337.89478
1318.0 0.000759 1329.92102 1337.83313
1420.0 0.000704 1329.94336 1337.79114
1339.0 0.000747 1329.96594 1336.53455
1359.0 0.000736 1329.98877 1336.57007
1327.0 0.000754 1330.01172 1336.63000
1365.0 0.000733 1330.03491 1336.72681
1330.0 0.000752 1330.05835 1336.86316
1286.0 0.000778 1330.08203 1337.04077
1286.0 0.000778 1330.10608 1337.25366
1359.0 0.000736 1330.13025 1337.49329
1351.0 0.000740 1330.15466 1337.73572
1321.0 0.000757 1330.17944 1337.94739
1320.0 0.000758 1330.20447 1338.17749
1344.0 0.000744 1330.22974 1338.20190
1304.0 0.000767 1330.25537 1338.14441
1306.0 0.000766 1330.28125 1338.02454
1360.0 0.000735 1330.30750 1337.88599
1262.0 0.000792 1330.33398 1337.75928
1298.0 0.000770 1330.36096 1337.66345
1352.0 0.000740 1330.38806 1337.61035
1356.0 0.000737 1330.41565 1337.59827
1338.0 0.000747 1330.44360 1337.62939
1339.0 0.000747 1330.47192 1337.69983
1367.0 0.000732 1330.50061 1337.80566
1315.0 0.000760 1330.52954 1337.94287
1345.0 0.000743 1330.55908 1338.10608
1400.0 0.000714 1330.58887 1338.29639
1334.0 0.000750 1330.61914 1338.51196
1332.0 0.000751 1330.64990 1338.75793
1319.0 0.000758 1330.68103 1339.02246
1390.0 0.000719 1330.71252 1339.31287
1341.0 0.000746 1330.74463 1339.63171
1377.0 0.000726 1330.77710 1339.98059
1381.0 0.000724 1330.81006 1340.36292
1391.0 0.000719 1330.84351 1340.76697
1369.0 0.000730 1330.87744 1341.22668
1343.0 0.000745 1330.91187 1341.73169
1415.0 0.000707 1330.94690 1342.28906
1332.0 0.000751 1330.98230 1342.90442
1347.0 0.000742 1331.01843 1343.58691
1374.0 0.000728 1331.05493 1344.34668
1359.0 0.000736 1331.09216 1345.19727
1407.0 0.000711 1331.12988 1346.15479
1325.0 0.000755 1331.16809 1347.23767
1318.0 0.000759 1331.20703 1348.47107
1332.0 0.000751 1331.24646 1349.88489
1388.0 0.000720 1331.28662 1351.51501
1342.0 0.000745 1331.32739 1353.40552
1360.0 0.000735 1331.36877 1355.60999
1347.0 0.000742 1331.41077 1358.20337
1299.0 0.000770 1331.45349 1361.29456
1355.0 0.000738 1331.49683 1365.02783
1354.0 0.000739 1331.54089 1369.63647
1350.0 0.000741 1331.58557 1375.44312
1335.0 0.000749 1331.63110 1382.90393
1351.0 0.000740 1331.67725 1392.66650
1347.0 0.000742 1331.72412 1405.52966
1415.0 0.000707 1331.77185 1422.48376
1413.0 0.000708 1331.82019 1444.48645
1470.0 0.000680 1331.86938 1472.24622
1447.0 0.000691 1331.91931 1505.96973
1560.0 0.000641 1331.97009 1544.95398
1587.0 0.000630 1332.02161 1587.44446
1627.0 0.000615 1332.07410 1629.52686
1609.0 0.000622 1332.12732 1665.00940
1689.0 0.000592 1332.18127 1686.25793
1785.0 0.000560 1332.23621 1687.54382
1793.0 0.000558 1332.29199 1668.85229
1699.0 0.000589 1332.34863 1635.91223
1657.0 0.000604 1332.40625 1596.41748
1625.0 0.000615 1332.46472 1556.66907
1558.0 0.000642 1332.52405 1520.65015
1480.0 0.000676 1332.58435 1490.48804
1447.0 0.000691 1332.64563 1467.11536
1436.0 0.000696 1332.70776 1450.78284
1403.0 0.000713 1332.77100 1440.68335
1449.0 0.000690 1332.83508 1438.16504
1400.0 0.000714 1332.90027 1442.48364
1448.0 0.000691 1332.96631 1453.83032
1405.0 0.000712 1333.03357 1472.84949
1430.0 0.000699 1333.10168 1499.16711
1472.0 0.000679 1333.17090 1533.05383
1508.0 0.000663 1333.24121 1573.76123
1610.0 0.000621 1333.31250 1619.33362
1720.0 0.000581 1333.38489 1665.90564
1739.0 0.000575 1333.45837 1707.04175
1817.0 0.000550 1333.53296 1734.20825
1744.0 0.000573 1333.60864 1739.83008
1747.0 0.000572 1333.68542 1721.87061
1767.0 0.000566 1333.76343 1685.30664
1659.0 0.000603 1333.84253 1638.64319
1621.0 0.000617 1333.92273 1589.59290
1530.0 0.000654 1334.00415 1543.28076
1572.0 0.000636 1334.08679 1502.46936
1478.0 0.000677 1334.17053 1468.27686
1436.0 0.000696 1334.25549 1440.77026
1484.0 0.000674 1334.34167 1419.36755
1460.0 0.000685 1334.42908 1403.13928
1416.0 0.000706 1334.51770 1391.04175
1393.0 0.000718 1334.60754 1382.08069
1347.0 0.000742 1334.69873 1375.40930
1326.0 0.000754 1334.79102 1370.36426
1399.0 0.000715 1334.88464 1366.46021
1438.0 0.000695 1334.97961 1363.35913
1379.0 0.000725 1335.07581 1360.83545
1389.0 0.000720 1335.17322 1358.73914
1341.0 0.000746 1335.27197 1356.97156
1338.0 0.000747 1335.37207 1355.46582
1371.0 0.000729 1335.47351 1354.17725
1446.0 0.000692 1335.57617 1353.07007
1373.0 0.000728 1335.68030 1352.11987
1376.0 0.000727 1335.78564 1351.30884
1302.0 0.000768 1335.89233 1350.62439
1329.0 0.000752 1336.00049 1350.05725
1386.0 0.000722 1336.10999 1349.60510
1324.0 0.000755 1336.22070 1349.26672
1355.0 0.000738 1336.33289 1349.04492
1339.0 0.000747 1336.44641 1348.94250
1346.0 0.000743 1336.56128 1348.96167
1335.0 0.000749 1336.67761 1349.09814
1330.0 0.000752 1336.79529 1349.34412
1337.0 0.000748 1336.91431 1349.67395
1327.0 0.000754 1337.03479 1350.04333
1305.0 0.000766 1337.15662 1350.38733
1293.0 0.000773 1337.27991 1350.61755
1318.0 0.000759 1337.40454 1350.66870
1317.0 0.000759 1337.53052 1350.53357
1362.0 0.000734 1337.65796 1350.27930
1390.0 0.000719 1337.78674 1349.99658
1398.0 0.000715 1337.91699 1349.77856
1340.0 0.000746 1338.04858 1349.69495
1327.0 0.000754 1338.18152 1349.79700
1392.0 0.000718 1338.31592 1350.12463
1248.0 0.000801 1338.45178 1350.70398
1382.0 0.000724 1338.58899 1351.55212
1420.0 0.000704 1338.72754 1352.66699
1343.0 0.000745 1338.86743 1354.02563
1417.0 0.000706 1339.00879 1355.56836
1343.0 0.000745 1339.15137 1357.18860
1372.0 0.000729 1339.29553 1358.71082
1410.0 0.000709 1339.44092 1359.91589
1370.0 0.000730 1339.58765 1360.62439
1359.0 0.000736 1339.73572 1360.81421
1383.0 0.000723 1339.88513 1360.65527
1345.0 0.000743 1340.03589 1360.41003
1405.0 0.000712 1340.18799 1360.33191
1391.0 0.000719 1340.34131 1360.60681
1391.0 0.000719 1340.49597 1361.36877
1390.0 0.000719 1340.65198 1362.71606
1352.0 0.000740 1340.80908 1364.72485
1390.0 0.000719 1340.96753 1367.45825
1396.0 0.000716 1341.12732 1370.96460
1419.0 0.000705 1341.28821 1375.27747
1379.0 0.000725 1341.45032 1380.44971
1379.0 0.000725 1341.61365 1386.62634
1387.0 0.000721 1341.77808 1394.08020
1467.0 0.000682 1341.94373 1403.11658
1395.0 0.000717 1342.11060 1413.89221
1458.0 0.000686 1342.27844 1426.23206
1482.0 0.000675 1342.44739 1439.45056
1413.0 0.000708 1342.61743 1452.17542
1468.0 0.000681 1342.78857 1462.30029
1456.0 0.000687 1342.96069 1467.44885
1496.0 0.000668 1343.13379 1466.10742
1517.0 0.000659 1343.30786 1458.61975
1452.0 0.000689 1343.48291 1446.96875
1408.0 0.000710 1343.65894 1433.44238
1402.0 0.000713 1343.83569 1419.93286
1440.0 0.000694 1344.01343 1407.57739
1425.0 0.000702 1344.19189 1396.93970
1351.0 0.000740 1344.37134 1388.21204
1372.0 0.000729 1344.55139 1381.47314
1359.0 0.000736 1344.73218 1376.36157
1412.0 0.000708 1344.91370 1372.75085
1345.0 0.000743 1345.09583 1370.36633
1391.0 0.000719 1345.27869 1368.91943
1307.0 0.000765 1345.46204 1368.11243
1331.0 0.000751 1345.64600 1367.64575
1355.0 0.000738 1345.83044 1367.22827
1340.0 0.000746 1346.01538 1366.63782
1289.0 0.000776 1346.20056 1365.79065
1258.0 0.000795 1346.38623 1364.74670
1392.0 0.000718 1346.57239 1363.63965
1291.0 0.000775 1346.75854 1362.59094
1375.0 0.000727 1346.94519 1361.68542
1307.0 0.000765 1347.13184 1360.96680
1334.0 0.000750 1347.31873 1360.45349
1416.0 0.000706 1347.50562 1360.15601
1371.0 0.000729 1347.69263 1360.06885
1380.0 0.000725 1347.87964 1360.19031
1363.0 0.000734 1348.06653 1360.51990
1314.0 0.000761 1348.25342 1361.06677
1368.0 0.000731 1348.43994 1361.84607
1379.0 0.000725 1348.62622 1362.88440
1321.0 0.000757 1348.81226 1364.21130
1382.0 0.000724 1348.99805 1365.86401
1327.0 0.000754 1349.18323 1367.85950
1349.0 0.000741 1349.36804 1369.87915
1387.0 0.000721 1349.55225 1372.54431
1336.0 0.000749 1349.73572 1375.43250
1376.0 0.000727 1349.91870 1378.41418
1358.0 0.000736 1350.10083 1381.36719
1318.0 0.000759 1350.28210 1384.21082
1311.0 0.000763 1350.46252 1386.85034
1420.0 0.000704 1350.64197 1389.09448
1403.0 0.000713 1350.82031 1390.63086
1350.0 0.000741 1350.99768 1391.18567
1312.0 0.000762 1351.17371 1390.73865
1381.0 0.000724 1351.34851 1389.58813
1360.0 0.000735 1351.52209 1388.18860
1378.0 0.000726 1351.69409 1386.97583
1397.0 0.000716 1351.86462 1386.20996
1388.0 0.000720 1352.03357 1386.11670
1388.0 0.000720 1352.20068 1386.85291
1374.0 0.000728 1352.36621 1388.57593
1306.0 0.000766 1352.52991 1391.49048
1414.0 0.000707 1352.69165 1395.88965
1407.0 0.000711 1352.85132 1402.19543
1450.0 0.000690 1353.00891 1410.98694
1390.0 0.000719 1353.16418 1422.62219
1461.0 0.000684 1353.31726 1438.71472
1465.0 0.000683 1353.46790 1460.44922
1517.0 0.000659 1353.61609 1487.23389
1492.0 0.000670 1353.76172 1520.20190
1453.0 0.000688 1353.90466 1559.25330
1602.0 0.000624 1354.04480 1603.39795
1578.0 0.000634 1354.18201 1650.27441
1699.0 0.000589 1354.31641 1695.55762
1793.0 0.000558 1354.44763 1732.67407
1791.0 0.000558 1354.57568 1753.94019
1859.0 0.000538 1354.70032 1753.83057
1725.0 0.000580 1354.82166 1732.39380
1787.0 0.000560 1354.93958 1695.21594
1727.0 0.000579 1355.05383 1649.98206
1636.0 0.000611 1355.16443 1603.22852
1588.0 0.000630 1355.27124 1559.24377
1562.0 0.000640 1355.37415 1520.35742
1543.0 0.000648 1355.47290 1487.53540
1475.0 0.000678 1355.56763 1460.85645
1450.0 0.000690 1355.65808 1439.84082
1415.0 0.000707 1355.74414 1423.69531
1352.0 0.000740 1355.82581 1411.50781
1422.0 0.000703 1355.90283 1402.38708
1396.0 0.000716 1355.97510 1395.55115
1359.0 0.000736 1356.04260 1390.55542
1391.0 0.000719 1356.10522 1386.55249
1439.0 0.000695 1356.16284 1383.38306
1397.0 0.000716 1356.21521 1380.81030
1410.0 0.000709 1356.26245 1378.67505
1357.0 0.000737 1356.30420 1376.86987
1311.0 0.000763 1356.34045 1375.32068
1360.0 0.000735 1356.37109 1374.29639
1408.0 0.000710 1356.39600 1373.12634
1353.0 0.000739 1356.41516 1372.09814
1394.0 0.000717 1356.42822 1371.18860
1368.0 0.000731 1356.43542 1370.38049
1346.0 0.000743 1356.43628 1369.66003
1325.0 0.000755 1356.43079 1369.01453
1365.0 0.000733 1356.41907 1368.43567
1328.0 0.000753 1356.40076 1367.91309
1368.0 0.000731 1356.37573 1367.44092
1359.0 0.000736 1356.34399 1367.01477
1338.0 0.000747 1356.30542 1366.62915
1366.0 0.000732 1356.25989 1366.28210
1391.0 0.000719 1356.20715 1365.97290
1408.0 0.000710 1356.14734 1365.69946
1384.0 0.000723 1356.08020 1365.46497
1446.0 0.000692 1356.00562 1365.27209
1401.0 0.000714 1355.92358 1365.12439
1349.0 0.000741 1355.83398 1365.02527
1357.0 0.000737 1355.73657 1364.97791
1330.0 0.000752 1355.63135 1364.98352
1359.0 0.000736 1355.51831 1365.03906
1377.0 0.000726 1355.39709 1365.13489
1394.0 0.000717 1355.26794 1365.25305
1367.0 0.000732 1355.13049 1365.36169
1345.0 0.000743 1354.98474 1365.41602
1351.0 0.000740 1354.83057 1365.36646
1333.0 0.000750 1354.66809 1365.18115
1378.0 0.000726 1354.49695 1364.86560
1379.0 0.000725 1354.31714 1364.45972
1362.0 0.000734 1354.12878 1364.01282
1307.0 0.000765 1353.93140 1363.56592
1262.0 0.000792 1353.72534 1363.14697
1312.0 0.000762 1353.51025 1362.77014
1437.0 0.000696 1353.28625 1362.44189
1402.0 0.000713 1353.05310 1362.16516
1345.0 0.000743 1352.81104 1361.93677
1380.0 0.000725 1352.55969 1361.75269
1369.0 0.000730 1352.29895 1361.60999
1379.0 0.000725 1352.02917 1361.50525
1345.0 0.000743 1351.75000 1361.42383
1367.0 0.000732 1351.46155 1361.38721
1348.0 0.000742 1351.16357 1361.38574
1344.0 0.000744 1350.85632 1361.42053
1406.0 0.000711 1350.53955 1361.49658
1402.0 0.000713 1350.21338 1361.61975
1385.0 0.000722 1349.87781 1361.79895
1405.0 0.000712 1349.53259 1362.04480
1349.0 0.000741 1349.17810 1362.37683
1449.0 0.000690 1348.81409 1362.81580
1382.0 0.000724 1348.44055 1363.39758
1355.0 0.000738 1348.05762 1364.16797
1392.0 0.000718 1347.66528 1365.19507
1431.0 0.000699 1347.26355 1366.55847
1394.0 0.000717 1346.85254 1368.38904
1380.0 0.000725 1346.43225 1370.82349
1422.0 0.000703 1346.00244 1374.03357
1438.0 0.000695 1345.56360 1378.21570
1359.0 0.000736 1345.11560 1383.57605
1370.0 0.000730 1344.65869 1390.31506
1448.0 0.000691 1344.19250 1398.58740
1453.0 0.000688 1343.71765 1408.45349
1434.0 0.000697 1343.23413 1419.69531
1463.0 0.000684 1342.74158 1432.10291
1476.0 0.000678 1342.24072 1444.91846
1411.0 0.000709 1341.73120 1457.38501
1488.0 0.000672 1341.21362 1468.91541
1501.0 0.000666 1340.68762 1479.11414
1527.0 0.000655 1340.15393 1487.39026
1471.0 0.000680 1339.61206 1492.56995
1506.0 0.000664 1339.06262 1493.08264
1579.0 0.000633 1338.50586 1487.84863
1494.0 0.000669 1337.94153 1477.17749
1431.0 0.000699 1337.37024 1462.73950
1485.0 0.000673 1336.79187 1446.62646
1439.0 0.000695 1336.20715 1430.60876
1462.0 0.000684 1335.61572 1415.81641
1375.0 0.000727 1335.01831 1402.83728
1327.0 0.000754 1334.41479 1391.88135
1355.0 0.000738 1333.80579 1382.93848
1366.0 0.000732 1333.19153 1375.83643
1335.0 0.000749 1332.57178 1370.33093
1387.0 0.000721 1331.94763 1366.14929
1412.0 0.000708 1331.31885 1363.02783
1398.0 0.000715 1330.68604 1360.73828
1318.0 0.000759 1330.04932 1359.09375
1364.0 0.000733 1329.40942 1357.95605
1280.0 0.000781 1328.76648 1357.22510
1341.0 0.000746 1328.12061 1356.83301
1400.0 0.000714 1327.47266 1356.73389
1326.0 0.000754 1326.82263 1356.89746
1349.0 0.000741 1326.17139 1357.28723
1421.0 0.000704 1325.51904 1357.87268
1385.0 0.000722 1324.86621 1358.87354
1356.0 0.000737 1324.21313 1359.73352
1365.0 0.000733 1323.56067 1360.68994
1333.0 0.000750 1322.90906 1361.77283
1411.0 0.000709 1322.25854 1363.06897
1367.0 0.000732 1321.61023 1364.70483
1371.0 0.000729 1320.96411 1366.81482
1377.0 0.000726 1320.32117 1369.53259
1343.0 0.000745 1319.68140 1373.00793
1361.0 0.000735 1319.04602 1377.38232
1407.0 0.000711 1318.41504 1382.82275
1384.0 0.000723 1317.78955 1389.52197
1387.0 0.000721 1317.17004 1397.70776
1367.0 0.000732 1316.55664 1407.72766
1406.0 0.000711 1315.95068 1419.95874
1396.0 0.000716 1315.35217 1434.91479
1458.0 0.000686 1314.76233 1453.31165
1503.0 0.000665 1314.18140 1476.20642
1489.0 0.000672 1313.61035 1505.08374
1544.0 0.000648 1313.04980 1541.71155
1530.0 0.000654 1312.50024 1587.77087
1583.0 0.000632 1311.96265 1644.41077
1606.0 0.000623 1311.43738 1711.81262
1684.0 0.000594 1310.92578 1788.71716
1711.0 0.000584 1310.42786 1871.76099
1790.0 0.000559 1309.94507 1954.60352
1855.0 0.000539 1309.47754 2027.27734
2044.0 0.000489 1309.02649 2077.13647
2069.0 0.000483 1308.59241 2092.90381
2067.0 0.000484 1308.17603 2070.49951
2006.0 0.000499 1307.77844 2015.87061
1973.0 0.000507 1307.40002 1940.39026
1874.0 0.000534 1307.04187 1856.69446
1775.0 0.000563 1306.70447 1774.14453
1676.0 0.000597 1306.38892 1698.58887
1604.0 0.000623 1306.09583 1633.15295
1585.0 0.000631 1305.82593 1578.79333
1571.0 0.000637 1305.58008 1536.26343
1519.0 0.000658 1305.35889 1504.61890
1590.0 0.000629 1305.16345 1482.88428
1494.0 0.000669 1304.99402 1469.99512
1519.0 0.000658 1304.85181 1464.98376
1432.0 0.000698 1304.73718 1467.07153
1441.0 0.000694 1304.65112 1475.67932
1498.0 0.000668 1304.59424 1490.36768
1477.0 0.000677 1304.56702 1510.71509
1498.0 0.000668 1304.57056 1536.12366
1535.0 0.000651 1304.60498 1565.53259
1632.0 0.000613 1304.67126 1597.15308
1641.0 0.000609 1304.76990 1628.39282
1619.0 0.000618 1304.90137 1656.47668
1684.0 0.000594 1305.06628 1679.74084
1759.0 0.000569 1305.26514 1698.56409
1668.0 0.000600 1305.49841 1714.78467
1725.0 0.000580 1305.76636 1729.92883
1814.0 0.000551 1306.06958 1743.63232
1702.0 0.000588 1306.40820 1753.03589
1795.0 0.000557 1306.78259 1753.52930
1792.0 0.000558 1307.19312 1740.96204
1717.0 0.000582 1307.63953 1714.29553
1712.0 0.000584 1308.12231 1676.42773
1648.0 0.000607 1308.64124 1632.46729
1642.0 0.000609 1309.19641 1587.35071
1516.0 0.000660 1309.78784 1544.59766
1524.0 0.000656 1310.41492 1506.23511
1531.0 0.000653 1311.07800 1473.18469
1486.0 0.000673 1311.77600 1445.63391
1470.0 0.000680 1312.50903 1423.30566
1425.0 0.000702 1313.27600 1405.64575
1412.0 0.000708 1314.07654 1391.95471
1453.0 0.000688 1314.91003 1381.50061
1398.0 0.000715 1315.77515 1373.59082
1391.0 0.000719 1316.67139 1367.62878
1385.0 0.000722 1317.59692 1363.12305
1414.0 0.000707 1318.55103 1359.69800
1391.0 0.000719 1319.53174 1357.07581
1422.0 0.000703 1320.53809 1355.05676
1417.0 0.000706 1321.56750 1353.49988
1360.0 0.000735 1322.61829 1352.30725
1350.0 0.000741 1323.68909 1351.40918
1378.0 0.000726 1324.77649 1350.75366
1328.0 0.000753 1325.87878 1350.30237
1320.0 0.000758 1326.99255 1350.02478
1353.0 0.000739 1328.11560 1349.89575
1348.0 0.000742 1329.24390 1349.89087
1316.0 0.000760 1330.37500 1349.99792
1363.0 0.000734 1331.50427 1350.19714
1363.0 0.000734 1332.62830 1350.47485
1333.0 0.000750 1333.74329 1350.81763
1319.0 0.000758 1334.84387 1351.21252
1376.0 0.000727 1335.92615 1351.64880
1306.0 0.000766 1336.98413 1352.11426
1339.0 0.000747 1338.01318 1352.60034
1336.0 0.000749 1339.00684 1353.09485
1308.0 0.000765 1339.95935 1353.58911
1354.0 0.000739 1340.86462 1354.07263
1351.0 0.000740 1341.71497 1354.53589
1340.0 0.000746 1342.50391 1354.96997
1316.0 0.000760 1343.22290 1355.36377
1331.0 0.000751 1343.86462 1356.08032
1312.0 0.000762 1344.41980 1356.36755
1374.0 0.000728 1344.87988 1356.58398
1378.0 0.000726 1345.23499 1356.71912
1350.0 0.000741 1345.47510 1356.76099
1282.0 0.000780 1345.58972 1356.69946
1372.0 0.000729 1345.56750 1356.52271
1365.0 0.000733 1345.39673 1356.21655
1362.0 0.000734 1345.06531 1355.77026
1318.0 0.000759 1344.55981 1355.17078
1360.0 0.000735 1343.86707 1354.40442
1383.0 0.000723 1342.97217 1353.45728
1333.0 0.000750 1341.86096 1352.31628
1338.0 0.000747 1340.51733 1350.96899
1347.0 0.000742 1338.92407 1349.40002
1399.0 0.000715 1337.06519 1347.60010
1363.0 0.000734 1334.92114 1345.55566
1337.0 0.000748 1332.47461 1343.26111
1315.0 0.000760 1329.70398 1340.70703
1312.0 0.000762 1326.59045 1337.89343
1280.0 0.000781 1323.11157 1334.81763
1367.0 0.000732 1319.24304 1331.47827
1300.0 0.000769 1314.96423 1327.87659
1332.0 0.000751 1310.24707 1323.96509
1344.0 0.000744 1305.06921 1319.81042
1341.0 0.000746 1299.40015 1315.34033
1361.0 0.000735 1293.21558 1310.51147
1321.0 . . .
loop_
_refln_index_h
_refln_index_k
_refln_index_l
_refln_observed_status
_refln_F_squared_meas
_refln_F_squared_calc
_refln_phase_calc
_refln_d_spacing
_gsas_i100_meas
1 1 0 o 10109.122 10308.531 180.00 6.99728 10.81
0 0 1 o 837.004 1078.828 180.00 4.97735 0.13
2 0 0 o 1393.064 2072.275 0.00 4.94782 1.41
1 1 1 o 26806.996 27018.975 0.00 4.05590 25.25
2 0 1 o 2157.984 2104.953 180.00 3.50903 2.22
2 2 0 o 583.389 599.763 0.00 3.49864 0.42
2 1 1 o 463.802 50.512 0.00 3.30725 0.87
3 1 0 o 14702.056 14656.887 0.00 3.12928 7.20
2 2 1 o 192409.17 192630.02 180.00 2.86228 100.00
3 1 1 o 5415.595 4433.646 180.00 2.64920 3.21
0 0 2 o 99279.27 101240.90 0.00 2.48867 8.59
4 0 0 o 117899.40 120380.66 0.00 2.47391 21.14
3 2 1 o 5231.082 4906.279 0.00 2.40339 5.40
1 1 2 o 3364.039 3290.361 180.00 2.34479 0.53
3 3 0 o 23390.926 23352.738 180.00 2.33243 3.64
2 0 2 o 229.695 476.671 0.00 2.22328 0.10
4 0 1 o 5709.191 5956.926 180.00 2.21536 0.38
4 2 0 o 741.255 965.667 0.00 2.21273 0.30
2 1 2 o 803.744 567.569 0.00 2.16920 0.68
4 1 1 o 2415.422 2073.586 0.00 2.16184 2.04
3 3 1 o 1031.110 958.144 0.00 2.11203 0.06
2 2 2 o 5268.286 5617.352 0.00 2.02795 0.26
4 2 1 o 252.753 304.326 180.00 2.02193 0.20
3 1 2 o 17149.180 16694.137 0.00 1.94780 7.64
5 1 0 o 3799.206 3901.054 180.00 1.94070 0.53
3 2 2 o 493.719 369.381 0.00 1.84360 0.31
4 3 1 o 334.039 301.268 180.00 1.83908 0.21
5 1 1 o 18096.619 18277.896 0.00 1.80812 6.90
4 0 2 o 127994.10 128200.54 0.00 1.75452 26.24
4 4 0 o 121269.76 120661.99 0.00 1.74932 12.32
4 1 2 o 37.024 37.132 180.00 1.72757 0.02
5 2 1 o 47.254 43.344 180.00 1.72385 0.03
3 3 2 o 23942.531 21763.984 180.00 1.70183 4.57
5 3 0 o 5112.639 5011.342 0.00 1.69709 0.65
0 0 3 o 3042.200 3213.837 180.00 1.65912 0.01
4 2 2 o 1327.993 1547.121 0.00 1.65363 0.67
4 4 1 o 1765.870 1823.110 180.00 1.65036 0.02
6 0 0 o 46.291 213.000 0.00 1.64927 0.01
1 1 3 o 5907.241 6262.095 0.00 1.61436 0.66
5 3 1 o 9867.840 10213.341 180.00 1.60629 2.77
2 0 3 o 681.638 475.700 180.00 1.57303 0.16
6 0 1 o 1852.999 1711.831 180.00 1.56557 0.42
6 2 0 o 7206.763 7293.871 0.00 1.56464 0.48
2 1 3 o 132.165 136.659 0.00 1.55353 0.06
4 3 2 o 62.906 17.899 0.00 1.54902 0.03
6 1 1 o 138.246 59.979 180.00 1.54633 0.07
5 1 2 o 31.912 0.589 180.00 1.53038 0.20
2 2 3 o 86690.02 86273.47 180.00 1.49910 13.21
6 2 1 o 74422.05 74204.73 180.00 1.49263 22.00
5 2 2 o 187.079 177.976 0.00 1.47827 0.08
5 4 1 o 47.311 49.850 180.00 1.47593 0.02
3 1 3 o 4207.700 4396.538 180.00 1.46583 0.80
4 4 2 o 63610.57 63663.06 0.00 1.43114 8.62
3 2 3 o 466.092 518.523 180.00 1.41985 0.20
6 3 1 o -0.063 2.204 180.00 1.41435 0.00
5 3 2 o 1645.194 1625.694 0.00 1.40211 0.16
5 5 0 o 3766.562 3801.259 0.00 1.39946 0.65
7 1 0 o 7311.850 7332.268 0.00 1.39946 0.77
4 0 3 o 630.068 267.757 180.00 1.37793 0.18
6 0 2 o 104.214 109.582 180.00 1.37478 0.02
6 4 0 o 81.099 85.860 0.00 1.37228 0.02
4 1 3 o 665.659 767.585 180.00 1.36477 0.27
6 1 2 o 119.916 170.537 180.00 1.36171 0.05
3 3 3 o 68.499 68.848 0.00 1.35197 0.02
7 1 1 o 711.512 711.716 180.00 1.34722 0.03
5 5 1 o 21062.758 21105.529 0.00 1.34722 2.81
4 2 3 o 237.824 169.214 180.00 1.32742 0.10
6 2 2 o 701.488 671.539 0.00 1.32460 0.10
6 4 1 o 961.255 884.216 180.00 1.32292 0.36
5 4 2 o 1.569 1.392 180.00 1.31289 0.00
7 2 1 o 1348.165 1366.927 180.00 1.31125 0.53
7 3 0 o 23467.221 23356.607 180.00 1.29936 3.14
4 3 3 o 115.050 153.243 0.00 1.27145 0.04
6 3 2 o 154.112 202.256 0.00 1.26898 0.06
5 1 3 o 11798.588 12484.528 0.00 1.26109 2.68
7 3 1 o 151.271 101.161 180.00 1.25723 0.28
0 0 4 o 69473.78 69734.71 0.00 1.24434 2.16
8 0 0 o 39300.63 38351.61 0.00 1.23696 2.17
5 2 3 o 147.972 166.756 0.00 1.23144 0.06
6 5 1 o 315.639 263.036 0.00 1.22785 0.12
1 1 4 o 3472.524 3508.601 180.00 1.22512 0.29
7 1 2 o 11467.670 11547.107 0.00 1.21982 2.62
5 5 2 o 549.781 550.512 180.00 1.21982 0.01
2 0 4 o 211.408 263.659 0.00 1.20676 0.04
4 4 3 o 3059.379 3083.748 180.00 1.20380 0.09
6 4 2 o 0.991 2.486 0.00 1.20170 0.00
2 1 4 o 151.253 133.463 180.00 1.19788 0.06
8 0 1 o 1696.655 1681.312 180.00 1.20044 0.02
8 2 0 o 1896.264 1658.043 0.00 1.20002 0.32
7 2 2 o 186.027 139.602 180.00 1.19293 0.07
7 4 1 o 63.889 77.857 0.00 1.19170 0.02
8 1 1 o 73.619 89.714 180.00 1.19170 0.03
5 3 3 o 3248.034 3056.697 180.00 1.18637 0.51
2 2 4 o -266.947 181.399 0.00 1.17239 0.00
6 0 3 o 752.999 1063.528 180.00 1.16968 0.13
8 2 1 o 104.193 122.729 0.00 1.16660 0.03
6 6 0 o 955.521 983.267 0.00 1.16621 0.01
6 1 3 o 27.082 22.420 180.00 1.16159 0.01
3 1 4 o 2383.644 2357.730 0.00 1.15627 0.30
7 3 2 o 9329.205 9066.352 180.00 1.15182 1.95
7 5 0 o 3629.699 3527.507 0.00 1.15035 0.30
6 2 3 o 36189.25 35900.00 180.00 1.13830 7.81
6 6 1 o 31391.744 31107.221 180.00 1.13546 3.30
3 2 4 o 67.809 64.479 180.00 1.13330 0.02
5 4 3 o 10.860 11.166 0.00 1.13084 0.00
6 5 2 o 33.502 49.599 0.00 1.12910 0.01
8 3 1 o 21.260 69.988 180.00 1.12806 0.01
7 5 1 o 1521.726 1429.068 180.00 1.12080 0.18
4 0 4 o 38262.33 38412.36 0.00 1.11164 4.21
8 0 2 o 36236.82 36729.05 0.00 1.10768 4.00
8 4 0 o 25979.541 25714.797 0.00 1.10637 2.63
4 1 4 o 23.541 22.492 0.00 1.10469 0.01
6 3 3 o 129.682 124.582 0.00 1.10242 0.05
8 1 2 o 15.523 14.111 0.00 1.10080 0.01
7 4 2 o 1.918 1.743 0.00 1.10080 0.00
3 3 4 o 7035.180 7439.443 180.00 1.09787 0.70
9 1 0 o -51.147 233.584 0.00 1.09279 0.12
4 2 4 o 91.129 118.682 0.00 1.08460 0.03
8 2 2 o 1188.349 1053.119 0.00 1.08092 0.40
8 4 1 o 3334.153 3207.256 180.00 1.08001 0.30
5 5 3 o 8903.304 8704.804 0.00 1.06973 0.98
7 1 3 o 175.016 174.459 180.00 1.06973 0.01
9 1 1 o 9529.043 9392.171 0.00 1.06737 2.17
6 4 3 o 232.530 198.020 180.00 1.05744 0.08
6 6 2 o 4194.381 4086.643 0.00 1.05602 0.24
4 3 4 o 15.571 9.095 180.00 1.05343 0.01
7 2 3 o 183.348 204.714 0.00 1.05145 0.07
8 3 2 o 8.399 6.819 180.00 1.05005 0.00
7 6 1 o 28.128 28.660 0.00 1.04922 0.01
9 2 1 o 39.707 40.458 180.00 1.04922 0.02
5 1 4 o 223.208 225.406 180.00 1.04751 0.00
7 5 2 o 3116.124 3162.616 0.00 1.04419 0.54
9 3 0 o 906.715 987.873 0.00 1.04309 0.03
5 2 4 o -2.683 65.158 180.00 1.03033 0.00
8 5 1 o -0.170 4.115 0.00 1.02639 0.00
7 3 3 o -28.590 6.001 180.00 1.02298 0.08
9 3 1 o 3877.822 3645.680 180.00 1.02092 0.77
4 4 4 o 23916.980 23456.674 0.00 1.01398 2.70
8 4 2 o 21072.895 20756.461 0.00 1.01097 4.69
6 5 3 o 31.242 26.076 180.00 1.00696 0.01
5 3 4 o 2209.298 2119.927 0.00 1.00349 0.41
9 1 2 o 80.795 84.119 180.00 1.00058 0.01
7 7 0 o 11396.471 11866.807 180.00 0.99961 0.73
0 0 5 o 258.502 240.139 180.00 0.99547 0.01
6 0 4 o -1.514 1.100 180.00 0.99333 0.00
8 0 3 o 2659.072 2630.630 180.00 0.99168 0.13
10 0 0 o 1278.307 1543.688 180.00 0.98956 0.11
8 6 0 o 137.560 169.680 0.00 0.98956 0.03
6 1 4 o 41.029 59.762 0.00 0.98836 0.02
7 4 3 o 22.296 22.214 180.00 0.98674 0.01
8 1 3 o 80.290 79.995 0.00 0.98674 0.03
9 2 2 o 20.191 20.573 180.00 0.98558 0.01
7 6 2 o 93.417 95.185 0.00 0.98558 0.04
1 1 5 o 3016.163 3047.658 0.00 0.98555 0.30
9 4 1 o 484.631 508.059 0.00 0.98488 0.21
7 7 1 o 386.403 324.200 180.00 0.98004 0.20
2 0 5 o 192.622 118.616 180.00 0.97591 0.04
6 2 4 o 1714.006 1690.286 0.00 0.97390 0.12
8 2 3 o 130.794 118.546 0.00 0.97234 0.04
2 1 5 o 132.985 154.614 180.00 0.97120 0.06
10 0 1 o 1365.564 1534.026 180.00 0.97057 0.27
8 6 1 o 1.062 1.614 0.00 0.97057 0.00
10 2 0 o 2188.896 2231.806 0.00 0.97035 0.08
5 4 4 o 0.171 0.219 0.00 0.96922 0.00
8 5 2 o 4.837 4.560 180.00 0.96659 0.00
10 1 1 o 142.660 156.671 0.00 0.96593 0.06
9 3 2 o 228.859 226.254 0.00 0.96201 0.00
9 5 0 o 138.989 29.699 0.00 0.96115 0.09
2 2 5 o 22428.719 22187.838 180.00 0.95747 2.97
6 6 3 o 17660.143 17608.070 180.00 0.95409 2.26
10 2 1 o 15319.943 15014.902 180.00 0.95242 3.84
6 3 4 o 95.970 83.454 180.00 0.95114 0.05
8 3 3 o 14.283 12.562 0.00 0.94969 0.01
3 1 5 o 581.221 574.490 180.00 0.94863 0.05
7 5 3 o 1217.756 1320.791 180.00 0.94534 0.18
9 5 1 o 7142.292 7362.002 0.00 0.94372 2.02
3 2 5 o -0.417 9.125 0.00 0.93581 0.00
9 4 2 o 0.914 1.072 180.00 0.93168 0.00
10 3 1 o 12.527 17.451 0.00 0.93110 0.01
7 1 4 o 2873.688 2818.108 0.00 0.92990 0.71
5 5 4 o 352.510 315.847 0.00 0.92990 0.23
7 7 2 o 7116.462 6852.782 180.00 0.92758 1.12
6 4 4 o 78.558 40.811 0.00 0.92180 0.05
4 0 5 o 495.263 525.697 180.00 0.92351 0.00
8 4 3 o 646.761 628.838 180.00 0.92048 0.04
10 0 2 o 25.227 24.849 180.00 0.91954 0.00
8 6 2 o 395.113 374.856 0.00 0.91954 0.21
4 1 5 o 220.151 209.776 0.00 0.91951 0.12
10 4 0 o 35.244 39.133 180.00 0.91879 0.00
7 2 4 o -1.835 39.339 0.00 0.91783 0.00
10 1 2 o 10.234 31.323 0.00 0.91559 0.01
3 3 5 o 122.132 126.294 0.00 0.91557 0.00
8 7 1 o 44.847 107.021 0.00 0.91504 0.03
9 1 3 o 3839.873 3794.120 0.00 0.91262 1.15
4 2 5 o -0.623 5.773 180.00 0.90783 0.00
10 2 2 o 1517.275 1458.476 0.00 0.90406 0.16
10 4 1 o 720.042 634.972 180.00 0.90352 0.40
9 2 3 o 0.743 0.674 0.00 0.90119 0.00
7 6 3 o 16.740 15.183 0.00 0.90119 0.01
9 6 1 o 94.765 103.431 0.00 0.89978 0.06
7 3 4 o 5693.496 5906.354 180.00 0.89870 2.12
9 5 2 o 425.092 410.594 0.00 0.89661 0.61
11 1 0 o 5526.151 5281.731 0.00 0.89591 1.11
