#------------------------------------------------------------------------------
#$Date: 2021-06-21 12:18:07 +0300 (Mon, 21 Jun 2021) $
#$Revision: 266611 $
#$URL: file:///home/coder/svn-repositories/cod/cif/1/56/36/1563643.cif $
#------------------------------------------------------------------------------
#
# This file is available in the Crystallography Open Database (COD),
# http://www.crystallography.net/
#
# All data on this site have been placed in the public domain by the
# contributors.
#
data_1563643
loop_
_publ_author_name
'Zubkov, Vladimir G.'
'Tarakina, Nadezda V.'
'Leonidov, Ivan I.'
'Tyutyunnik, Alexander P.'
'Surat, Ludmila L.'
'Melkozerova, Marina A.'
'Zabolotskaya, Elena V.'
'Kellerman, Dina G.'
_publ_section_title
;
 Synthesis and crystal structure of Ln2M2+Ge4O12, Ln=rare-earth element or
 Y; M=Ca, Mn, Zn
;
_journal_issue                   5
_journal_name_full               'Journal of Solid State Chemistry'
_journal_page_first              1186
_journal_page_last               1193
_journal_paper_doi               10.1016/j.jssc.2010.03.027
_journal_volume                  183
_journal_year                    2010
_chemical_formula_sum            'Ge4 Mn O12 Yb2'
_chemical_formula_weight         883.37
_space_group_IT_number           125
_space_group_name_Hall           '-P 4a 2b'
_space_group_name_H-M_alt        'P 4/n b m :2'
_symmetry_cell_setting           tetragonal
_symmetry_space_group_name_H-M   'P 4/n b m :2'
_cell_angle_alpha                90.0
_cell_angle_beta                 90.0
_cell_angle_gamma                90.0
_cell_formula_units_Z            2
_cell_length_a                   9.82417(5)
_cell_length_b                   9.82417
_cell_length_c                   4.946815(34)
_cell_volume                     477.438(4)
_computing_structure_refinement  GSAS
_diffrn_radiation_polarisn_ratio 0.8
_diffrn_radiation_probe          x-ray
_diffrn_radiation_wavelength     1.54056
_exptl_absorpt_correction_T_max  6.73497
_exptl_absorpt_correction_T_min  2.48890
_exptl_absorpt_process_details
;   GSAS Absorption/surface roughness correction: function number 4
 Flat plate transmission absorption correction
Terms =    -0.58824         0.0000    
Correction is refined.
;
_pd_calc_method                  'Rietveld Refinement'
_pd_instr_location               ' ?'
_pd_meas_2theta_range_inc        0.02
_pd_meas_2theta_range_max        119.98
_pd_meas_2theta_range_min        5.0
_pd_meas_number_of_points        5750
_pd_proc_2theta_range_inc        0.02
_pd_proc_2theta_range_max        119.95924
_pd_proc_2theta_range_min        4.97923
_pd_proc_info_datetime           2010-02-27T12:24:53
_pd_proc_info_excluded_regions   ' ?'
_pd_proc_ls_background_function
;   GSAS Background function number 1 with 36 terms.
 Shifted Chebyshev function of 1st kind
      1:    3464.53     2:   -2937.60     3:    1813.42     4:   -875.017    
      5:    227.797     6:    4.06328     7:   -55.8821     8:    35.3038    
      9:    7.28479    10:   -44.6788    11:    30.8840    12:    7.43898    
     13:   -40.4333    14:    24.7947    15:   -18.5709    16:   -10.0213    
     17:    46.6098    18:   -46.5847    19:    18.6509    20:    13.7174    
     21:   -34.1910    22:    56.7267    23:   -45.2743    24:    16.0617    
     25:    23.2316    26:   -37.8236    27:    42.6114    28:   -28.9828    
     29:    7.39962    30:    29.4391    31:   -29.2719    32:    22.9282    
     33:    3.38207    34:   -25.1518    35:    26.7148    36:   -12.9011    
;
_pd_proc_ls_peak_cutoff          0.00100
_pd_proc_ls_profile_function
;
 CW Profile function number 2 with  18 terms
 Profile coefficients for Simpson's rule integration of pseudovoigt function
 C.J. Howard (1982). J. Appl. Cryst.,15,615-620.
 P. Thompson, D.E. Cox & J.B. Hastings (1987). J. Appl. Cryst.,20,79-83.
 #1(GU)   =    7.116 #2(GV)   =  -14.900 #3(GW)   =   25.072
 #4(LX)   =    2.078 #5(LY)   =   10.076 #6(trns) =    0.000
 #7(asym) =   1.8875 #8(shft) =   0.0000 #9(GP)   =    0.000
 #10(stec)=     0.00 #11(ptec)=     0.00 #12(sfec)=     0.00
 #13(L11) =    0.000 #14(L22) =    0.000 #15(L33) =    0.000
 #16(L12) =    0.000 #17(L13) =    0.000 #18(L23) =    0.000
 Peak tails are ignored  where the intensity is below 0.0010 times the peak
   Aniso. broadening axis   0.0   0.0   1.0
;
_pd_proc_ls_prof_R_factor        0.0225
_pd_proc_ls_prof_wR_expected     0.0168
_pd_proc_ls_prof_wR_factor       0.0331
_pd_proc_number_of_points        5750
_pd_spec_mounting                ' ?'
_refine_ls_goodness_of_fit_all   1.98
_refine_ls_matrix_type           full
_refine_ls_number_parameters     56
_refine_ls_number_restraints     0
_refine_ls_R_Fsqd_factor         0.03036
_refine_ls_shift/su_max          0.01
_refine_ls_shift/su_mean         0.00
_reflns_d_resolution_high        0.890
_reflns_d_resolution_low         6.947
_reflns_limit_h_max              11
_reflns_limit_h_min              0
_reflns_limit_k_max              7
_reflns_limit_k_min              0
_reflns_limit_l_max              5
_reflns_limit_l_min              0
_reflns_number_total             202
_cod_data_source_file            YB2MNGE4O12.cif
_cod_data_source_block           YB2MNGE4O12_publ
_cod_depositor_comments
;
The following automatic conversions were performed:

data item '_geom_angle_publ_flag' value 'N' was changed to 'n' in
accordance with the built-in table derived from the CIF Core
dictionary named 'cif_core.dic' version 2.4.5 last updated on
2014-11-21 (115 times).

data item '_geom_bond_publ_flag' value 'N' was changed to 'n' in
accordance with the built-in table derived from the CIF Core
dictionary named 'cif_core.dic' version 2.4.5 last updated on
2014-11-21 (66 times).

Automatic conversion script
Id: cif_fix_values 8369 2020-08-20 11:38:08Z andrius 
;
_cod_original_cell_volume        477.438(7)
_cod_original_sg_symbol_H-M      'P 4/n b m'
_cod_original_formula_sum        'Ge4 Mn1.00 O12 Yb2.00'
_cod_database_code               1563643
_gsas_exptl_extinct_corr_t_min   1.00000
_gsas_exptl_extinct_corr_t_max   1.00000
loop_
_symmetry_equiv_pos_site_id
_symmetry_equiv_pos_as_xyz
1 +x,+y,+z
2 -y+1/2,+x,+z
3 -x+1/2,-y+1/2,+z
4 +y,-x+1/2,+z
5 -x,+y+1/2,+z
6 -y,-x,+z
7 +x+1/2,-y,+z
8 +y+1/2,+x+1/2,+z
-1 -x,-y,-z
-2 +y+1/2,-x,-z
-3 +x+1/2,+y+1/2,-z
-4 -y,+x+1/2,-z
-5 +x,-y+1/2,-z
-6 +y,+x,-z
-7 -x+1/2,+y,-z
-8 -y+1/2,-x+1/2,-z
loop_
_atom_site_type_symbol
_atom_site_label
_atom_site_fract_x
_atom_site_fract_y
_atom_site_fract_z
_atom_site_occupancy
_atom_site_thermal_displace_type
_atom_site_U_iso_or_equiv
_atom_site_symmetry_multiplicity
Mn Mn 0.0 0.0 0.5 0.5 Uiso 0.0304(7) 4
Yb Yb1 0.0 0.0 0.5 0.5 Uiso 0.0304(7) 4
Yb Yb2 0.25 0.25 0.5 1.0 Uiso 0.0256(8) 2
Ge GE 0.97931(10) 0.25 0.0 1.0 Uiso 0.0253(7) 8
O O1 0.1304(4) 0.8696(4) 0.8343(10) 1.0 Uiso 0.0175(17) 8
O O2 0.1694(4) 0.0657(4) 0.2577(8) 1.0 Uiso 0.0194(13) 16
loop_
_atom_type_symbol
_atom_type_number_in_cell
_atom_type_scat_dispersion_real
_atom_type_scat_dispersion_imag
_atom_type_scat_Cromer_Mann_a1
_atom_type_scat_Cromer_Mann_a2
_atom_type_scat_Cromer_Mann_a3
_atom_type_scat_Cromer_Mann_a4
_atom_type_scat_Cromer_Mann_b1
_atom_type_scat_Cromer_Mann_b2
_atom_type_scat_Cromer_Mann_b3
_atom_type_scat_Cromer_Mann_b4
_atom_type_scat_Cromer_Mann_c
_atom_type_scat_source
Mn 2.0 0.000 0.000 11.2819 5.34090 7.35730 0.34320 3.01930 17.8674 2.24410
83.7543 1.08960 International_Tables_Vol_C
Ge 8.0 0.000 0.000 16.0816 2.85090 6.37470 0.25160 3.70680 11.4468 3.68300
54.7625 2.13130 International_Tables_Vol_C
O 24.0 0.000 0.000 3.04850 13.2771 2.28680 5.70110 1.54630 0.32390 0.86700
32.9089 0.25080 International_Tables_Vol_C
Yb 4.0 0.000 0.000 28.6641 1.98890 15.4345 0.25712 15.3087 10.6647 2.98963
100.417 7.56672 International_Tables_Vol_C
loop_
_geom_angle_atom_site_label_1
_geom_angle_atom_site_label_2
_geom_angle_atom_site_label_3
_geom_angle
_geom_angle_site_symmetry_1
_geom_angle_site_symmetry_2
_geom_angle_site_symmetry_3
_geom_angle_publ_flag
O2 Mn O2 98.84(21) 1_555 . 6_555 n
O2 Mn O2 180.0 1_555 . -1_556 n
O2 Mn O2 81.16(21) 1_555 . -6_556 n
O2 Mn O2 81.16(21) 6_555 . -1_556 n
O2 Mn O2 180.0 6_555 . -6_556 n
O2 Mn O2 98.84(21) -1_556 . -6_556 n
Yb2 Yb1 Yb2 180.0 1_555 . 5_545 n
Yb2 Yb1 O1 89.9995 1_555 . 1_545 n
Yb2 Yb1 O1 90.0005 1_555 . -1_566 n
Yb2 Yb1 O2 40.58(11) 1_555 . 1_555 n
Yb2 Yb1 O2 139.42(11) 1_555 . 6_555 n
Yb2 Yb1 O2 139.42(11) 1_555 . -1_556 n
Yb2 Yb1 O2 40.58(11) 1_555 . -6_556 n
Yb2 Yb1 O1 90.0005 5_545 . 1_545 n
Yb2 Yb1 O1 89.9995 5_545 . -1_566 n
Yb2 Yb1 O2 139.42(11) 5_545 . 1_555 n
Yb2 Yb1 O2 40.58(11) 5_545 . 6_555 n
Yb2 Yb1 O2 40.58(11) 5_545 . -1_556 n
Yb2 Yb1 O2 139.42(11) 5_545 . -6_556 n
O1 Yb1 O1 180.0 1_545 . -1_566 n
O1 Yb1 O2 97.37(15) 1_545 . 1_555 n
O1 Yb1 O2 97.37(15) 1_545 . 6_555 n
O1 Yb1 O2 82.63(15) 1_545 . -1_556 n
O1 Yb1 O2 82.63(15) 1_545 . -6_556 n
O1 Yb1 O2 82.63(15) -1_566 . 1_555 n
O1 Yb1 O2 82.63(15) -1_566 . 6_555 n
O1 Yb1 O2 97.37(15) -1_566 . -1_556 n
O1 Yb1 O2 97.37(15) -1_566 . -6_556 n
O2 Yb1 O2 98.84(21) 1_555 . 6_555 n
O2 Yb1 O2 180.0 1_555 . -1_556 n
O2 Yb1 O2 81.16(21) 1_555 . -6_556 n
O2 Yb1 O2 81.16(21) 6_555 . -1_556 n
O2 Yb1 O2 180.0 6_555 . -6_556 n
O2 Yb1 O2 98.84(21) -1_556 . -6_556 n
Yb1 Yb2 Yb1 90.0 1_555 . 2_555 n
Yb1 Yb2 Yb1 180.0 1_555 . 3_555 n
Yb1 Yb2 Yb1 90.0 1_555 . 4_555 n
Yb1 Yb2 O2 37.23(10) 1_555 . 1_555 n
Yb1 Yb2 O2 108.17(9) 1_555 . 2_555 n
Yb1 Yb2 O2 142.77(10) 1_555 . 3_555 n
Yb1 Yb2 O2 71.83(9) 1_555 . 4_555 n
Yb1 Yb2 O2 108.17(9) 1_555 . -5_456 n
Yb1 Yb2 O2 37.23(10) 1_555 . -6_556 n
Yb1 Yb2 O2 71.83(9) 1_555 . -7_546 n
Yb1 Yb2 O2 142.77(10) 1_555 . -8_556 n
Yb1 Yb2 Yb1 90.0 2_555 . 3_555 n
Yb1 Yb2 Yb1 180.0 2_555 . 4_555 n
Yb1 Yb2 O2 71.83(9) 2_555 . 1_555 n
Yb1 Yb2 O2 37.23(10) 2_555 . 2_555 n
Yb1 Yb2 O2 108.17(9) 2_555 . 3_555 n
Yb1 Yb2 O2 142.77(10) 2_555 . 4_555 n
Yb1 Yb2 O2 142.77(10) 2_555 . -5_456 n
Yb1 Yb2 O2 108.17(9) 2_555 . -6_556 n
Yb1 Yb2 O2 37.23(10) 2_555 . -7_546 n
Yb1 Yb2 O2 71.83(9) 2_555 . -8_556 n
Yb1 Yb2 Yb1 90.0 3_555 . 4_555 n
Yb1 Yb2 O2 142.77(10) 3_555 . 1_555 n
Yb1 Yb2 O2 71.83(9) 3_555 . 2_555 n
Yb1 Yb2 O2 37.23(10) 3_555 . 3_555 n
Yb1 Yb2 O2 108.17(9) 3_555 . 4_555 n
Yb1 Yb2 O2 71.83(9) 3_555 . -5_456 n
Yb1 Yb2 O2 142.77(10) 3_555 . -6_556 n
Yb1 Yb2 O2 108.17(9) 3_555 . -7_546 n
Yb1 Yb2 O2 37.23(10) 3_555 . -8_556 n
Yb1 Yb2 O2 108.17(9) 4_555 . 1_555 n
Yb1 Yb2 O2 142.77(10) 4_555 . 2_555 n
Yb1 Yb2 O2 71.83(9) 4_555 . 3_555 n
Yb1 Yb2 O2 37.23(10) 4_555 . 4_555 n
Yb1 Yb2 O2 37.23(10) 4_555 . -5_456 n
Yb1 Yb2 O2 71.83(9) 4_555 . -6_556 n
Yb1 Yb2 O2 142.77(10) 4_555 . -7_546 n
Yb1 Yb2 O2 108.17(9) 4_555 . -8_556 n
O2 Yb2 O2 74.40(9) 1_555 . 2_555 n
O2 Yb2 O2 117.54(20) 1_555 . 3_555 n
O2 Yb2 O2 74.40(9) 1_555 . 4_555 n
O2 Yb2 O2 139.93(19) 1_555 . -5_456 n
O2 Yb2 O2 74.46(21) 1_555 . -6_556 n
O2 Yb2 O2 76.84(18) 1_555 . -7_546 n
O2 Yb2 O2 143.67(18) 1_555 . -8_556 n
O2 Yb2 O2 74.40(9) 2_555 . 3_555 n
O2 Yb2 O2 117.54(20) 2_555 . 4_555 n
O2 Yb2 O2 143.67(18) 2_555 . -5_456 n
O2 Yb2 O2 139.93(19) 2_555 . -6_556 n
O2 Yb2 O2 74.46(21) 2_555 . -7_546 n
O2 Yb2 O2 76.84(18) 2_555 . -8_556 n
O2 Yb2 O2 74.40(9) 3_555 . 4_555 n
O2 Yb2 O2 76.84(18) 3_555 . -5_456 n
O2 Yb2 O2 143.67(18) 3_555 . -6_556 n
O2 Yb2 O2 139.93(19) 3_555 . -7_546 n
O2 Yb2 O2 74.46(21) 3_555 . -8_556 n
O2 Yb2 O2 74.46(21) 4_555 . -5_456 n
O2 Yb2 O2 76.84(18) 4_555 . -6_556 n
O2 Yb2 O2 143.67(18) 4_555 . -7_546 n
O2 Yb2 O2 139.93(19) 4_555 . -8_556 n
O2 Yb2 O2 74.40(9) -5_456 . -6_556 n
O2 Yb2 O2 117.54(20) -5_456 . -7_546 n
O2 Yb2 O2 74.40(9) -5_456 . -8_556 n
O2 Yb2 O2 74.40(9) -6_556 . -7_546 n
O2 Yb2 O2 117.54(20) -6_556 . -8_556 n
O2 Yb2 O2 74.40(9) -7_546 . -8_556 n
O1 GE O1 106.1(4) 4_554 . -1_666 n
O1 GE O2 109.45(28) 4_554 . 4_655 n
O1 GE O2 104.99(21) 4_554 . -6_655 n
O1 GE O2 104.99(21) -1_666 . 4_655 n
O1 GE O2 109.45(28) -1_666 . -6_655 n
O2 GE O2 121.05(29) 4_655 . -6_655 n
Yb1 O1 GE 109.66(19) 1_565 . 2_556 n
Yb1 O1 GE 109.66(19) 1_565 . 5_656 n
GE O1 GE 125.38(29) 2_556 . 5_656 n
Mn O2 Yb1 0.0 1_555 . 1_555 n
Mn O2 Yb2 102.19(15) 1_555 . 1_555 n
Mn O2 GE 128.33(23) 1_555 . 2_545 n
Yb1 O2 Yb2 102.19(15) 1_555 . 1_555 n
Yb1 O2 GE 128.33(23) 1_555 . 2_545 n
Yb2 O2 GE 127.71(24) 1_555 . 2_545 n
loop_
_geom_bond_atom_site_label_1
_geom_bond_atom_site_label_2
_geom_bond_distance
_geom_bond_site_symmetry_1
_geom_bond_site_symmetry_2
_geom_bond_publ_flag
Mn Yb2 3.473370(20) . 1_555 n
Mn Yb2 3.473370(20) . 5_545 n
Mn O1 2.453(5) . 1_545 n
Mn O1 2.453(5) . -1_566 n
Mn O2 2.150(4) . 1_555 n
Mn O2 2.150(4) . 6_555 n
Mn O2 2.150(4) . -1_556 n
Mn O2 2.150(4) . -6_556 n
Yb1 Yb2 3.473370(20) . 1_555 n
Yb1 Yb2 3.473370(20) . 5_545 n
Yb1 GE 3.49159(6) . 1_455 n
Yb1 GE 3.49159(6) . 1_456 n
Yb1 GE 3.49159(6) . 2_545 n
Yb1 GE 3.49159(6) . 2_546 n
Yb1 GE 3.49159(6) . 5_645 n
Yb1 GE 3.49159(6) . 5_646 n
Yb1 GE 3.49159(6) . 6_565 n
Yb1 GE 3.49159(6) . 6_566 n
Yb1 O1 2.453(5) . 1_545 n
Yb1 O1 2.453(5) . -1_566 n
Yb1 O2 2.150(4) . 1_555 n
Yb1 O2 2.150(4) . 6_555 n
Yb1 O2 2.150(4) . -1_556 n
Yb1 O2 2.150(4) . -6_556 n
Yb2 Mn 3.473370(20) . 1_555 n
Yb2 Mn 3.473370(20) . 2_555 n
Yb2 Mn 3.473370(20) . 3_555 n
Yb2 Mn 3.473370(20) . 4_555 n
Yb2 Yb1 3.473370(20) . 1_555 n
Yb2 Yb1 3.473370(20) . 2_555 n
Yb2 Yb1 3.473370(20) . 3_555 n
Yb2 Yb1 3.473370(20) . 4_555 n
Yb2 GE 3.6317(7) . 1_455 n
Yb2 GE 3.6317(7) . 1_456 n
Yb2 GE 3.6317(7) . 2_545 n
Yb2 GE 3.6317(7) . 2_546 n
Yb2 GE 3.6317(7) . 3_655 n
Yb2 GE 3.6317(7) . 3_656 n
Yb2 GE 3.6317(7) . 4_565 n
Yb2 GE 3.6317(7) . 4_566 n
Yb2 O2 2.312(4) . 1_555 n
Yb2 O2 2.312(4) . 2_555 n
Yb2 O2 2.312(4) . 3_555 n
Yb2 O2 2.312(4) . 4_555 n
Yb2 O2 2.312(4) . -5_556 n
Yb2 O2 2.312(4) . -6_556 n
Yb2 O2 2.312(4) . -7_556 n
Yb2 O2 2.312(4) . -8_556 n
GE Yb1 3.49159(6) . 1_654 n
GE Yb1 3.49159(6) . 1_655 n
GE Yb1 3.49159(6) . 4_654 n
GE Yb1 3.49159(6) . 4_655 n
GE Yb2 3.6317(7) . 1_654 n
GE Yb2 3.6317(7) . 1_655 n
GE O1 1.7928(23) . 4_554 n
GE O1 1.7928(23) . -1_666 n
GE O2 1.724(4) . 4_655 n
GE O2 1.724(4) . -6_655 n
O1 Mn 2.453(5) . 1_565 n
O1 Yb1 2.453(5) . 1_565 n
O1 GE 1.7928(23) . 2_556 n
O1 GE 1.7928(23) . 5_656 n
O2 Mn 2.150(4) . 1_555 n
O2 Yb1 2.150(4) . 1_555 n
O2 Yb2 2.312(4) . 1_555 n
O2 GE 1.724(4) . 2_545 n
loop_
_pd_meas_counts_total
_pd_proc_ls_weight
_pd_proc_intensity_bkg_calc
_pd_calc_intensity_total
9217.0 0.0001085 9297.17969 9297.17871
9211.0 0.0001086 9274.92285 9274.92090
9222.0 0.0001084 9254.84961 9254.84863
9281.0 0.0001077 9236.78027 9236.77832
8997.0 0.0001111 9220.54395 9220.54199
9242.0 0.0001082 9205.98047 9205.97852
9045.0 0.0001106 9192.93945 9192.93848
9271.0 0.0001079 9181.28027 9181.27930
9023.0 0.0001108 9170.87012 9170.86914
9194.0 0.0001088 9161.58691 9161.58496
9207.0 0.0001086 9153.31055 9153.30957
9329.0 0.0001072 9145.93652 9145.93457
9124.0 0.0001096 9139.36133 9139.35938
9120.0 0.0001096 9133.49121 9133.48926
9225.0 0.0001084 9128.23828 9128.23730
9274.0 0.0001078 9123.52051 9123.51953
9253.0 0.0001081 9119.26367 9119.26172
9186.0 0.0001089 9115.39551 9115.39355
9200.0 0.0001087 9111.85156 9111.85059
9137.0 0.0001094 9108.57324 9108.57129
9240.0 0.0001082 9105.50391 9105.50195
9118.0 0.0001097 9102.59277 9102.59180
9101.0 0.0001099 9099.79395 9099.79297
9126.0 0.0001096 9097.06641 9097.06445
9061.0 0.0001104 9094.36816 9094.36719
9114.0 0.0001097 9091.66602 9091.66504
9354.0 0.0001069 9088.92969 9088.92773
9132.0 0.0001095 9086.12695 9086.12598
9050.0 0.0001105 9083.23535 9083.23438
9153.0 0.0001093 9080.23047 9080.22949
9153.0 0.0001093 9077.09277 9077.09180
9188.0 0.0001088 9073.80371 9073.80273
9071.0 0.0001102 9070.34863 9070.34766
8968.0 0.0001115 9066.71387 9066.71289
8845.0 0.0001131 9062.88867 9062.88770
8903.0 0.0001123 9058.86328 9058.86230
8964.0 0.0001116 9054.62988 9054.62793
8943.0 0.0001118 9050.18164 9050.18066
9114.0 0.0001097 9045.51563 9045.51465
9026.0 0.0001108 9040.62695 9040.62598
9081.0 0.0001101 9035.51660 9035.51563
8874.0 0.0001127 9030.17969 9030.17969
9025.0 0.0001108 9024.62012 9024.61914
9001.0 0.0001111 9018.83789 9018.83691
8948.0 0.0001118 9012.83594 9012.83496
9013.0 0.0001110 9006.61621 9006.61523
9114.0 0.0001097 9000.18359 9000.18262
9074.0 0.0001102 8993.54199 8993.54102
8945.0 0.0001118 8986.69727 8986.69629
9004.0 0.0001111 8979.65332 8979.65332
8888.0 0.0001125 8972.41992 8972.41895
9055.0 0.0001104 8965.00000 8964.99902
8851.0 0.0001130 8957.40332 8957.40234
8813.0 0.0001135 8949.63477 8949.63379
8897.0 0.0001124 8941.70313 8941.70313
8962.0 0.0001116 8933.61719 8933.61621
8823.0 0.0001133 8925.38281 8925.38184
8797.0 0.0001137 8917.01074 8917.00977
8927.0 0.0001120 8908.50586 8908.50488
8894.0 0.0001124 8899.87988 8899.87891
8829.0 0.0001133 8891.13770 8891.13770
8699.0 0.0001150 8882.29102 8882.29004
8718.0 0.0001147 8873.34668 8873.34570
8869.0 0.0001128 8864.31152 8864.31055
8852.0 0.0001130 8855.19629 8855.19629
8764.0 0.0001141 8846.00781 8846.00684
8843.0 0.0001131 8836.75488 8836.75391
8727.0 0.0001146 8827.44434 8827.44434
8678.0 0.0001152 8818.08496 8818.08398
8635.0 0.0001158 8808.68359 8808.68262
8908.0 0.0001123 8799.24805 8799.24707
8671.0 0.0001153 8789.78516 8789.78418
8827.0 0.0001133 8780.30176 8780.30176
8715.0 0.0001147 8770.80664 8770.80566
8631.0 0.0001159 8761.30469 8761.30371
8930.0 0.0001120 8751.80176 8751.80078
8638.0 0.0001158 8742.30566 8742.30469
9056.0 0.0001104 8732.82129 8732.82129
8893.0 0.0001124 8723.35547 8723.35449
8836.0 0.0001132 8713.91309 8713.91211
8597.0 0.0001163 8704.49805 8704.49707
8759.0 0.0001142 8695.11719 8695.11719
8523.0 0.0001173 8685.77539 8685.77441
8749.0 0.0001143 8676.47656 8676.47559
8611.0 0.0001161 8667.22363 8667.22266
8688.0 0.0001151 8658.02246 8658.02148
8624.0 0.0001160 8648.87695 8648.87598
8685.0 0.0001151 8639.78906 8639.78809
8770.0 0.0001140 8630.76367 8630.76270
8515.0 0.0001174 8621.80273 8621.80176
8537.0 0.0001171 8612.90918 8612.90918
8669.0 0.0001154 8604.08789 8604.08691
8704.0 0.0001149 8595.33789 8595.33691
8582.0 0.0001165 8586.66309 8586.66309
8530.0 0.0001172 8578.06641 8578.06543
8599.0 0.0001163 8569.54785 8569.54688
8540.0 0.0001171 8561.10938 8561.10840
8546.0 0.0001170 8552.75195 8552.75098
8645.0 0.0001157 8544.47852 8544.47754
8502.0 0.0001176 8536.28809 8536.28809
8666.0 0.0001154 8528.18359 8528.18262
8509.0 0.0001175 8520.16309 8520.16211
8539.0 0.0001171 8512.22852 8512.22852
8601.0 0.0001163 8504.38086 8504.37988
8425.0 0.0001187 8496.61816 8496.61719
8560.0 0.0001168 8488.94238 8488.94141
8574.0 0.0001166 8481.35254 8481.35156
8577.0 0.0001166 8473.84766 8473.84668
8498.0 0.0001177 8466.42773 8466.42676
8432.0 0.0001186 8459.09277 8459.09180
8486.0 0.0001178 8451.84180 8451.84180
8568.0 0.0001167 8444.67383 8444.67285
8525.0 0.0001173 8437.58789 8437.58789
8433.0 0.0001186 8430.58301 8430.58301
8372.0 0.0001194 8423.65820 8423.65723
8514.0 0.0001175 8416.81250 8416.81250
8527.0 0.0001173 8410.04395 8410.04297
8406.0 0.0001190 8403.35254 8403.35156
8448.0 0.0001184 8396.73438 8396.73340
8525.0 0.0001173 8390.18945 8390.18848
8385.0 0.0001193 8383.71680 8383.71680
8426.0 0.0001187 8377.31348 8377.31250
8459.0 0.0001182 8370.97949 8370.97852
8530.0 0.0001172 8364.71094 8364.70996
8329.0 0.0001201 8358.50684 8358.50684
8379.0 0.0001193 8352.36621 8352.36523
8325.0 0.0001201 8346.28613 8346.28613
8410.0 0.0001189 8340.26563 8340.26563
8312.0 0.0001203 8334.30273 8334.30176
8444.0 0.0001184 8328.39453 8328.39453
8470.0 0.0001181 8322.54004 8322.53906
8273.0 0.0001209 8316.73730 8316.73633
8309.0 0.0001204 8310.98242 8310.98242
8333.0 0.0001200 8305.27637 8305.27539
8214.0 0.0001217 8299.61621 8299.61523
8149.0 0.0001227 8293.99805 8293.99805
8441.0 0.0001185 8288.42285 8288.42285
8314.0 0.0001203 8282.88672 8282.88672
8162.0 0.0001225 8277.38867 8277.38770
8182.0 0.0001222 8271.92676 8271.92578
8353.0 0.0001197 8266.49805 8266.49707
8458.0 0.0001182 8261.10156 8261.10156
8372.0 0.0001194 8255.73535 8255.73438
8263.0 0.0001210 8250.39746 8250.39746
8261.0 0.0001211 8245.08594 8245.08594
8389.0 0.0001192 8239.79980 8239.79980
8327.0 0.0001201 8234.53711 8234.53711
8269.0 0.0001209 8229.29492 8229.29492
8155.0 0.0001226 8224.07324 8224.07324
8334.0 0.0001200 8218.86914 8218.86914
8189.0 0.0001221 8213.68164 8213.68164
8173.0 0.0001224 8208.50977 8208.50977
8175.0 0.0001223 8203.35059 8203.35059
8048.0 0.0001243 8198.20410 8198.20410
8107.0 0.0001234 8193.06836 8193.06738
8134.0 0.0001229 8187.94141 8187.94092
8176.0 0.0001223 8182.82275 8182.82227
8073.0 0.0001239 8177.70996 8177.70996
8151.0 0.0001227 8172.60400 8172.60352
8057.0 0.0001241 8167.50146 8167.50098
8132.0 0.0001230 8162.40234 8162.40234
8173.0 0.0001224 8157.30518 8157.30469
7987.0 0.0001252 8152.20898 8152.20850
8102.0 0.0001234 8147.11328 8147.11279
8065.0 0.0001240 8142.01611 8142.01611
8126.0 0.0001231 8136.91797 8136.91748
7908.0 0.0001265 8131.81641 8131.81641
8086.0 0.0001237 8126.71191 8126.71191
8222.0 0.0001216 8121.60352 8121.60352
8064.0 0.0001240 8116.49023 8116.48975
8227.0 0.0001216 8111.37158 8111.37158
8210.0 0.0001218 8106.24658 8106.24658
8052.0 0.0001242 8101.11572 8101.11572
8037.0 0.0001244 8095.97705 8095.97705
7995.0 0.0001251 8090.83154 8090.83105
7913.0 0.0001264 8085.67725 8085.67725
8192.0 0.0001221 8080.51465 8080.51465
8085.0 0.0001237 8075.34473 8075.34424
8106.0 0.0001234 8070.16455 8070.16455
8006.0 0.0001249 8064.97607 8064.97607
7931.0 0.0001261 8059.77783 8059.77783
7973.0 0.0001254 8054.57031 8054.57031
8028.0 0.0001246 8049.35352 8049.35352
8006.0 0.0001249 8044.12646 8044.12646
8048.0 0.0001243 8038.89014 8038.88965
8030.0 0.0001245 8033.64404 8033.64404
7965.0 0.0001255 8028.38770 8028.38770
8126.0 0.0001231 8023.12305 8023.12256
7904.0 0.0001265 8017.84766 8017.84766
7862.0 0.0001272 8012.56348 8012.56348
7784.0 0.0001285 8007.26953 8007.26953
8065.0 0.0001240 8001.96729 8001.96729
8119.0 0.0001232 7996.65527 7996.65527
7938.0 0.0001260 7991.33496 7991.33496
7817.0 0.0001279 7986.00684 7986.00684
7970.0 0.0001255 7980.67041 7980.67041
7915.0 0.0001263 7975.32617 7975.32617
7971.0 0.0001255 7969.97461 7969.97461
7921.0 0.0001262 7964.61572 7964.61572
7930.0 0.0001261 7959.25049 7959.25049
7969.0 0.0001255 7953.87891 7953.87842
7895.0 0.0001267 7948.50146 7948.50146
7914.0 0.0001264 7943.11816 7943.11816
7938.0 0.0001260 7937.73047 7937.72998
7891.0 0.0001267 7932.33789 7932.33789
7929.0 0.0001261 7926.94092 7926.94092
7849.0 0.0001274 7921.54150 7921.54102
7868.0 0.0001271 7916.13770 7916.13770
7795.0 0.0001283 7910.73193 7910.73193
7927.0 0.0001262 7905.32373 7905.32324
7744.0 0.0001291 7899.91357 7899.91309
7877.0 0.0001270 7894.50244 7894.50244
7787.0 0.0001284 7889.09082 7889.09082
7782.0 0.0001285 7883.67920 7883.67920
7866.0 0.0001271 7878.26758 7878.26758
7840.0 0.0001276 7872.85693 7872.85693
7911.0 0.0001264 7867.44775 7867.44775
8016.0 0.0001248 7862.04053 7862.04004
7868.0 0.0001271 7856.63574 7856.63574
7806.0 0.0001281 7851.23389 7851.23340
7831.0 0.0001277 7845.83545 7845.83545
7835.0 0.0001276 7840.44092 7840.44043
7663.0 0.0001305 7835.05029 7835.04980
7695.0 0.0001300 7829.66504 7829.66504
7934.0 0.0001260 7824.28467 7824.28467
7864.0 0.0001272 7818.91064 7818.91064
7916.0 0.0001263 7813.54248 7813.54199
7810.0 0.0001280 7808.18066 7808.18066
7723.0 0.0001295 7802.82666 7802.82666
7852.0 0.0001274 7797.47949 7797.47949
7660.0 0.0001305 7792.14111 7792.14063
7830.0 0.0001277 7786.81006 7786.81006
7882.0 0.0001269 7781.48779 7781.48730
7721.0 0.0001295 7776.17529 7776.17480
7830.0 0.0001277 7770.87109 7770.87109
7621.0 0.0001312 7765.57764 7765.57715
7786.0 0.0001284 7760.29297 7760.29248
7672.0 0.0001303 7755.01953 7755.01953
7784.0 0.0001285 7749.75586 7749.75586
7678.0 0.0001302 7744.50391 7744.50342
7709.0 0.0001297 7739.26172 7739.26123
7630.0 0.0001311 7734.03125 7734.03125
7728.0 0.0001294 7728.81250 7728.81201
7717.0 0.0001296 7723.60498 7723.60449
7656.0 0.0001306 7718.40869 7718.40869
7689.0 0.0001301 7713.22510 7713.22461
7837.0 0.0001276 7708.05273 7708.05273
7844.0 0.0001275 7702.89355 7702.89307
7601.0 0.0001316 7697.74512 7697.74512
7776.0 0.0001286 7692.60986 7692.60938
7773.0 0.0001287 7687.48584 7687.48535
7678.0 0.0001302 7682.37402 7682.37402
7728.0 0.0001294 7677.27539 7677.27490
7634.0 0.0001310 7672.18799 7672.18750
7688.0 0.0001301 7667.11279 7667.11230
7635.0 0.0001310 7662.04932 7662.04932
7609.0 0.0001314 7656.99854 7656.99805
7721.0 0.0001295 7651.95850 7651.95801
7676.0 0.0001303 7646.93018 7646.92969
7621.0 0.0001312 7641.91357 7641.91309
7764.0 0.0001288 7636.90771 7636.90723
7570.0 0.0001321 7631.91309 7631.91260
7597.0 0.0001316 7626.92871 7626.92822
7815.0 0.0001280 7621.95459 7621.95410
7792.0 0.0001283 7616.99170 7616.99121
7560.0 0.0001323 7612.03760 7612.03711
7747.0 0.0001291 7607.09375 7607.09326
7679.0 0.0001302 7602.15820 7602.15771
7717.0 0.0001296 7597.23242 7597.23193
7649.0 0.0001307 7592.31445 7592.31396
7712.0 0.0001297 7587.40430 7587.40381
7671.0 0.0001304 7582.50195 7582.50146
7694.0 0.0001300 7577.60645 7577.60596
7642.0 0.0001309 7572.71826 7572.71777
7676.0 0.0001303 7567.83594 7567.83496
7543.0 0.0001326 7562.95850 7562.95801
7569.0 0.0001321 7558.08691 7558.08643
7782.0 0.0001285 7553.21973 7553.21924
7695.0 0.0001300 7548.35693 7548.35596
7638.0 0.0001309 7543.49707 7543.49658
7568.0 0.0001321 7538.64014 7538.63916
7684.0 0.0001301 7533.78564 7533.78516
7595.0 0.0001317 7528.93262 7528.93213
7497.0 0.0001334 7524.08105 7524.08057
7610.0 0.0001314 7519.22949 7519.22852
7715.0 0.0001296 7514.37793 7514.37744
7633.0 0.0001310 7509.52490 7509.52393
7563.0 0.0001322 7504.67041 7504.66943
7473.0 0.0001338 7499.81348 7499.81299
7438.0 0.0001344 7494.95361 7494.95313
7692.0 0.0001300 7490.09033 7490.08984
7600.0 0.0001316 7485.22217 7485.22119
7734.0 0.0001293 7480.34814 7480.34766
7548.0 0.0001325 7475.46924 7475.46875
7528.0 0.0001328 7470.58301 7470.58203
7550.0 0.0001325 7465.68945 7465.68896
7567.0 0.0001322 7460.78711 7460.78662
7371.0 0.0001357 7455.87646 7455.87598
7514.0 0.0001331 7450.95557 7450.95459
7509.0 0.0001332 7446.02441 7446.02344
7399.0 0.0001352 7441.08105 7441.08057
7496.0 0.0001334 7436.12549 7436.12500
7606.0 0.0001315 7431.15771 7431.15723
7549.0 0.0001325 7426.17529 7426.17432
7344.0 0.0001362 7421.17871 7421.17822
7412.0 0.0001349 7416.16650 7416.16553
7435.0 0.0001345 7411.13770 7411.13672
7606.0 0.0001315 7406.09229 7406.09180
7437.0 0.0001345 7401.02832 7401.02783
7436.0 0.0001345 7395.94580 7395.94531
7352.0 0.0001360 7390.84473 7390.84375
7457.0 0.0001341 7385.72217 7385.72119
7452.0 0.0001342 7380.57910 7380.57861
7387.0 0.0001354 7375.41406 7375.41309
7398.0 0.0001352 7370.22607 7370.22559
7399.0 0.0001352 7365.01465 7365.01367
7447.0 0.0001343 7359.77881 7359.77832
7429.0 0.0001346 7354.51758 7354.51709
7279.0 0.0001374 7349.23096 7349.23047
7408.0 0.0001350 7343.91748 7343.91699
7294.0 0.0001371 7338.57666 7338.57568
7230.0 0.0001383 7333.20801 7333.20703
7399.0 0.0001352 7327.80957 7327.80908
7402.0 0.0001351 7322.38184 7322.38086
7359.0 0.0001359 7316.92383 7316.92334
7276.0 0.0001374 7311.43457 7311.43359
7290.0 0.0001372 7305.91357 7305.91309
7347.0 0.0001361 7300.35986 7300.35938
7217.0 0.0001386 7294.77295 7294.77246
7256.0 0.0001378 7289.15283 7289.15234
7176.0 0.0001394 7283.49707 7299.35938
7140.0 0.0001401 7277.80713 7294.24756
7165.0 0.0001396 7272.08057 7289.13135
7322.0 0.0001366 7266.31836 7284.01367
7194.0 0.0001390 7260.51807 7278.89600
7199.0 0.0001389 7254.68018 7273.78027
7097.0 0.0001409 7248.80469 7268.67090
7134.0 0.0001402 7242.89014 7263.56885
7127.0 0.0001403 7236.93652 7258.47900
7104.0 0.0001408 7230.94287 7253.40381
7087.0 0.0001411 7224.90820 7248.34814
7155.0 0.0001398 7218.83350 7243.31738
7194.0 0.0001390 7212.71680 7238.31641
7138.0 0.0001401 7206.55859 7233.35156
7213.0 0.0001386 7200.35791 7228.42969
7030.0 0.0001422 7194.11475 7223.55859
7122.0 0.0001404 7187.82813 7218.74756
7114.0 0.0001406 7181.49854 7214.00684
7320.0 0.0001366 7175.12451 7209.34766
7169.0 0.0001395 7168.70654 7204.78320
6983.0 0.0001432 7162.24414 7200.32910
6996.0 0.0001429 7155.73633 7196.00195
7293.0 0.0001371 7149.18359 7191.82227
7136.0 0.0001401 7142.58594 7187.81396
7213.0 0.0001386 7135.94238 7184.00146
7172.0 0.0001394 7129.25342 7180.41846
7130.0 0.0001403 7122.51758 7177.09863
7025.0 0.0001423 7115.73535 7174.08594
7071.0 0.0001414 7108.90771 7171.43115
6983.0 0.0001432 7102.03271 7169.19141
7040.0 0.0001420 7095.11182 7167.44043
6999.0 0.0001429 7088.14355 7166.26123
7049.0 0.0001419 7081.12891 7165.75781
7152.0 0.0001398 7074.06689 7166.05322
7009.0 0.0001427 7066.95850 7167.30127
7032.0 0.0001422 7059.80273 7169.68994
6945.0 0.0001440 7052.60059 7173.45557
7060.0 0.0001416 7045.35156 7178.89404
7162.0 0.0001396 7038.05566 7186.38232
7024.0 0.0001424 7030.71289 7196.40967
7031.0 0.0001422 7023.32373 7209.62109
7141.0 0.0001400 7015.88770 7226.91846
7292.0 0.0001371 7008.40674 7249.69971
7361.0 0.0001359 7000.87842 7280.48389
7545.0 0.0001325 6993.30518 7324.51855
7680.0 0.0001302 6985.68555 7393.29980
7985.0 0.0001252 6978.02051 7511.08496
8318.0 0.0001202 6970.31152 7724.46533
9024.0 0.0001108 6962.55664 8112.66553
9709.0 0.0001030 6954.75781 8793.17188
10580.0 0.0000945 6946.91455 9914.75977
11888.0 0.0000841 6939.02783 11627.25195
13598.0 0.0000735 6931.09766 14012.91992
15698.0 0.0000637 6923.12402 16978.61133
18505.0 0.0000540 6915.10840 20185.41797
21397.0 0.0000467 6907.05078 23086.18945
23977.0 0.0000417 6898.95117 24933.13867
25211.0 0.0000397 6890.81055 24944.79297
23587.0 0.0000424 6882.62939 22944.99805
20536.0 0.0000487 6874.40869 19633.16992
16899.0 0.0000592 6866.14746 16014.91699
13450.0 0.0000743 6857.84863 12853.57324
11094.0 0.0000901 6849.51025 10506.37012
9355.0 0.0001069 6841.13525 8983.90430
8333.0 0.0001200 6832.72266 8100.81641
7628.0 0.0001311 6824.27393 7626.99463
7404.0 0.0001351 6815.78955 7378.20117
7313.0 0.0001367 6807.27002 7239.79541
7068.0 0.0001415 6798.71631 7152.47119
7078.0 0.0001413 6790.12939 7089.46338
6942.0 0.0001441 6781.50879 7039.56641
6987.0 0.0001431 6772.85742 6997.97852
6919.0 0.0001445 6764.17432 6962.32568
6824.0 0.0001465 6755.46143 6931.19189
6703.0 0.0001492 6746.71875 6903.60254
6613.0 0.0001512 6737.94678 6878.83984
6817.0 0.0001467 6729.14795 6856.36084
6775.0 0.0001476 6720.32178 6835.74268
6641.0 0.0001506 6711.47021 6816.65771
6717.0 0.0001489 6702.59277 6798.84375
6640.0 0.0001506 6693.69189 6782.09326
6654.0 0.0001503 6684.76758 6766.23877
6611.0 0.0001513 6675.82080 6751.14258
6659.0 0.0001502 6666.85303 6736.69482
6531.0 0.0001531 6657.86523 6722.80127
6545.0 0.0001528 6648.85791 6709.38623
6667.0 0.0001500 6639.83252 6696.38623
6641.0 0.0001506 6630.78955 6683.74658
6530.0 0.0001531 6621.73096 6671.42383
6507.0 0.0001537 6612.65723 6659.37695
6384.0 0.0001566 6603.56982 6647.57520
6393.0 0.0001564 6594.46826 6635.98926
6511.0 0.0001536 6585.35596 6624.59668
6576.0 0.0001521 6576.23242 6613.37500
6596.0 0.0001516 6567.10010 6602.30811
6567.0 0.0001523 6557.95801 6591.37891
6504.0 0.0001538 6548.80908 6580.57471
6507.0 0.0001537 6539.65430 6569.88574
6466.0 0.0001547 6530.49365 6559.29834
6551.0 0.0001526 6521.33008 6548.80664
6366.0 0.0001571 6512.16309 6538.40137
6342.0 0.0001577 6502.99463 6528.07617
6429.0 0.0001555 6493.82568 6517.82568
6361.0 0.0001572 6484.65771 6507.64404
6450.0 0.0001550 6475.49121 6497.52686
6385.0 0.0001566 6466.32861 6487.47168
6393.0 0.0001564 6457.16943 6477.47314
6428.0 0.0001556 6448.01709 6467.52979
6383.0 0.0001567 6438.87012 6457.63770
6343.0 0.0001577 6429.73242 6447.79639
6401.0 0.0001562 6420.60303 6438.00195
6479.0 0.0001543 6411.48438 6428.25488
6266.0 0.0001596 6402.37695 6418.55225
6278.0 0.0001593 6393.28271 6393.28369
6414.0 0.0001559 6384.20264 6384.20361
6301.0 0.0001587 6375.13770 6375.13867
6271.0 0.0001595 6366.08984 6366.09033
6264.0 0.0001596 6357.05908 6357.06006
6211.0 0.0001610 6348.04688 6348.04785
6282.0 0.0001592 6339.05615 6339.05713
6277.0 0.0001593 6330.08545 6330.08643
6406.0 0.0001561 6321.13818 6321.13916
6290.0 0.0001590 6312.21484 6312.21533
6424.0 0.0001557 6303.31592 6303.31689
6320.0 0.0001582 6294.44434 6294.44482
6340.0 0.0001577 6285.59912 6285.59961
6075.0 0.0001646 6276.78320 6276.78418
6249.0 0.0001600 6267.99658 6267.99756
6242.0 0.0001602 6259.24219 6259.24316
6225.0 0.0001606 6250.51904 6250.52002
6262.0 0.0001597 6241.82959 6241.83057
6205.0 0.0001612 6233.17480 6233.17578
6235.0 0.0001604 6224.55615 6224.55713
6197.0 0.0001614 6215.97412 6215.97510
6175.0 0.0001619 6207.43018 6207.43115
6163.0 0.0001623 6198.92529 6198.92627
6135.0 0.0001630 6190.46191 6190.46289
6218.0 0.0001608 6182.03906 6182.04004
6281.0 0.0001592 6173.65918 6173.66016
6208.0 0.0001611 6165.32324 6165.32422
6110.0 0.0001637 6157.03223 6157.03320
5996.0 0.0001668 6148.78662 6148.78760
6176.0 0.0001619 6140.58887 6140.58984
6196.0 0.0001614 6132.43896 6132.43994
5995.0 0.0001668 6124.33789 6124.33887
6013.0 0.0001663 6116.28760 6116.28857
6095.0 0.0001641 6108.28809 6108.28906
6008.0 0.0001664 6100.34131 6100.34229
6020.0 0.0001661 6092.44824 6092.44922
6030.0 0.0001658 6084.60938 6084.61035
6039.0 0.0001656 6076.82568 6076.82666
6121.0 0.0001634 6069.09814 6069.09912
6238.0 0.0001603 6061.42773 6061.42871
5991.0 0.0001669 6053.81641 6053.81738
6075.0 0.0001646 6046.26367 6046.26465
6071.0 0.0001647 6038.77148 6038.77246
6036.0 0.0001657 6031.33984 6031.34082
6085.0 0.0001643 6023.97070 6023.97168
6063.0 0.0001649 6016.66357 6016.66455
6057.0 0.0001651 6009.42090 6009.42188
6206.0 0.0001611 6002.24170 6002.24268
6025.0 0.0001660 5995.12842 5995.12939
6162.0 0.0001623 5988.08154 5988.08252
6152.0 0.0001625 5981.10107 5981.10205
6206.0 0.0001611 5974.18896 5974.18994
6222.0 0.0001607 5967.34473 5967.34570
6459.0 0.0001548 5960.56934 5960.57031
6475.0 0.0001544 5953.86475 5953.86572
6543.0 0.0001528 5947.23047 5947.23145
6666.0 0.0001500 5940.66748 5940.66846
6454.0 0.0001549 5934.17627 5934.17725
6482.0 0.0001543 5927.75781 5927.75879
6397.0 0.0001563 5921.41309 5921.41406
6272.0 0.0001594 5915.14160 5915.14258
6105.0 0.0001638 5908.94531 5908.94629
5916.0 0.0001690 5902.82324 5902.82422
5931.0 0.0001686 5896.77783 5896.77881
6023.0 0.0001660 5890.80762 5890.80859
5899.0 0.0001695 5884.91455 5884.91553
5905.0 0.0001693 5879.09863 5879.09961
5809.0 0.0001721 5873.36035 5873.36133
6012.0 0.0001663 5867.70020 5867.70117
5881.0 0.0001700 5862.11865 5862.11963
6020.0 0.0001661 5856.61572 5856.61670
5800.0 0.0001724 5851.19287 5851.19336
5957.0 0.0001679 5845.84912 5845.84961
5912.0 0.0001691 5840.58594 5840.58691
5806.0 0.0001722 5835.40283 5835.40332
5856.0 0.0001708 5830.30078 5830.30127
5962.0 0.0001677 5825.27930 5825.28027
5747.0 0.0001740 5820.33936 5820.33984
5900.0 0.0001695 5815.48145 5815.48193
5894.0 0.0001697 5810.70459 5810.70557
6056.0 0.0001651 5806.01025 5806.01123
5769.0 0.0001733 5801.39795 5801.39893
5815.0 0.0001720 5796.86768 5796.86865
5703.0 0.0001753 5792.42041 5792.42139
5879.0 0.0001701 5788.05566 5788.05664
5974.0 0.0001674 5783.77393 5783.77490
5867.0 0.0001704 5779.57471 5779.57568
5671.0 0.0001763 5775.45801 5775.45898
5919.0 0.0001689 5771.42480 5771.42578
5825.0 0.0001717 5767.47461 5767.47510
5915.0 0.0001691 5763.60742 5763.60791
5893.0 0.0001697 5759.82227 5759.82324
5825.0 0.0001717 5756.12109 5756.12207
5938.0 0.0001684 5752.50195 5752.50293
5840.0 0.0001712 5748.96631 5748.96729
5751.0 0.0001739 5745.51270 5745.51318
5705.0 0.0001753 5742.14160 5742.14209
5793.0 0.0001726 5738.85303 5738.85400
5749.0 0.0001739 5735.64648 5735.64697
5700.0 0.0001754 5732.52148 5732.52246
5877.0 0.0001702 5729.47900 5729.47998
5804.0 0.0001723 5726.51807 5726.51855
5759.0 0.0001736 5723.63818 5723.63916
5811.0 0.0001721 5720.83936 5720.83984
5671.0 0.0001763 5718.12158 5718.12207
5662.0 0.0001766 5715.48340 5715.48438
5798.0 0.0001725 5712.92627 5712.92676
5810.0 0.0001721 5710.44824 5710.44873
5760.0 0.0001736 5708.04932 5708.05029
5704.0 0.0001753 5705.72949 5705.73047
5809.0 0.0001721 5703.48877 5703.48975
5692.0 0.0001757 5701.32617 5701.32715
5721.0 0.0001748 5699.24072 5699.24170
5721.0 0.0001748 5697.23291 5697.23340
5666.0 0.0001765 5695.30176 5695.30273
5614.0 0.0001781 5693.44678 5693.44727
5764.0 0.0001735 5691.66748 5691.66846
5759.0 0.0001736 5689.96338 5689.96387
5741.0 0.0001742 5688.33398 5688.33447
5684.0 0.0001759 5686.77832 5686.77881
5726.0 0.0001746 5685.29590 5685.29639
5757.0 0.0001737 5683.88623 5683.88672
5589.0 0.0001789 5682.54932 5682.55029
5634.0 0.0001775 5681.28418 5681.28467
5797.0 0.0001725 5680.08936 5680.08984
5762.0 0.0001736 5678.96436 5678.96484
5692.0 0.0001757 5677.90967 5677.91016
5637.0 0.0001774 5676.92285 5676.92383
5740.0 0.0001742 5676.00488 5676.00586
5657.0 0.0001768 5675.15381 5675.15479
5479.0 0.0001825 5674.36963 5674.37061
5814.0 0.0001720 5673.65088 5673.65137
5679.0 0.0001761 5672.99707 5672.99756
5807.0 0.0001722 5672.40771 5672.40820
5674.0 0.0001762 5671.88135 5671.88184
5556.0 0.0001800 5671.41797 5671.41846
5573.0 0.0001794 5671.01563 5671.01611
5662.0 0.0001766 5670.67432 5670.67480
5632.0 0.0001776 5670.39307 5670.39355
5719.0 0.0001749 5670.17041 5670.17090
5650.0 0.0001770 5670.00635 5670.00684
5605.0 0.0001784 5669.89893 5669.89941
5568.0 0.0001796 5669.84814 5669.84863
5537.0 0.0001806 5669.85254 5669.85303
5611.0 0.0001782 5669.91162 5669.91211
5525.0 0.0001810 5670.02393 5670.02441
5666.0 0.0001765 5670.18848 5670.60742
5751.0 0.0001739 5670.40479 5670.83887
5671.0 0.0001763 5670.67090 5671.12109
5638.0 0.0001774 5670.98682 5671.45361
5552.0 0.0001801 5671.35156 5671.83643
5555.0 0.0001800 5671.76270 5672.26611
5640.0 0.0001773 5672.22119 5674.42480
5608.0 0.0001783 5672.72412 5675.00879
5485.0 0.0001823 5673.27148 5675.64209
5600.0 0.0001786 5673.86230 5676.32373
5451.0 0.0001835 5674.49512 5677.05273
5569.0 0.0001796 5675.16895 5677.82813
5559.0 0.0001799 5675.88232 5678.64941
5505.0 0.0001817 5676.63477 5679.51660
5483.0 0.0001824 5677.42432 5680.42822
5608.0 0.0001783 5678.25098 5681.38477
5461.0 0.0001831 5679.11328 5682.38574
5564.0 0.0001797 5680.00928 5683.42969
5545.0 0.0001803 5680.93896 5684.51758
5473.0 0.0001827 5681.90039 5685.64893
5557.0 0.0001800 5682.89258 5686.82324
5483.0 0.0001824 5683.91504 5688.04102
5651.0 0.0001770 5684.96533 5689.30225
5488.0 0.0001822 5686.04346 5690.60791
5526.0 0.0001810 5687.14746 5691.95801
5571.0 0.0001795 5688.27686 5693.35352
5603.0 0.0001785 5689.43018 5694.79590
5647.0 0.0001771 5690.60596 5696.28662
5576.0 0.0001793 5691.80371 5697.82764
5634.0 0.0001775 5693.02148 5699.42090
5588.0 0.0001790 5694.25830 5701.07031
5606.0 0.0001784 5695.51318 5702.77930
5540.0 0.0001805 5696.78467 5704.55127
5539.0 0.0001805 5698.07227 5706.39404
5616.0 0.0001781 5699.37354 5708.31250
5531.0 0.0001808 5700.68848 5710.31738
5705.0 0.0001753 5702.01514 5712.41699
5633.0 0.0001775 5703.35254 5714.62598
5410.0 0.0001848 5704.70020 5716.96094
5546.0 0.0001803 5706.05518 5719.44092
5493.0 0.0001820 5707.41797 5722.09326
5426.0 0.0001843 5708.78662 5724.95068
5505.0 0.0001817 5710.15967 5728.05713
5566.0 0.0001797 5711.53662 5731.47217
5534.0 0.0001807 5712.91602 5735.28760
5483.0 0.0001824 5714.29688 5739.65869
5581.0 0.0001792 5715.67773 5744.88867
5810.0 0.0001721 5717.05713 5751.60156
5564.0 0.0001797 5718.43359 5761.04834
5656.0 0.0001768 5719.80713 5775.51514
5534.0 0.0001807 5721.17627 5798.68262
5677.0 0.0001761 5722.53906 5835.52734
5746.0 0.0001740 5723.89502 5891.32520
5873.0 0.0001703 5725.24219 5969.54980
5886.0 0.0001699 5726.58008 6069.32178
6213.0 0.0001610 5727.90771 6184.55811
6155.0 0.0001625 5729.22314 6307.36621
6248.0 0.0001601 5730.52637 6433.59619
6363.0 0.0001572 5731.81543 6570.56836
6554.0 0.0001526 5733.08887 6741.67139
6831.0 0.0001464 5734.34619 6965.50244
6941.0 0.0001441 5735.58594 7225.28809
7142.0 0.0001400 5736.80762 7461.49707
7450.0 0.0001342 5738.00879 7589.21484
7391.0 0.0001353 5739.18994 7533.52881
7234.0 0.0001382 5740.34863 7292.16504
6816.0 0.0001467 5741.48438 6946.68115
6370.0 0.0001570 5742.59668 6594.20166
6130.0 0.0001631 5743.68359 6299.29053
5939.0 0.0001684 5744.74365 6086.94434
5897.0 0.0001696 5745.77686 5952.20068
5882.0 0.0001700 5746.78174 5875.10547
5860.0 0.0001706 5747.75684 5833.93018
5846.0 0.0001711 5748.70215 5812.23877
5601.0 0.0001785 5749.61572 5800.13867
5716.0 0.0001749 5750.49658 5792.60156
5620.0 0.0001779 5751.34375 5787.35938
5771.0 0.0001733 5752.15674 5783.43359
5750.0 0.0001739 5752.93408 5780.37842
5717.0 0.0001749 5753.67529 5777.95557
5585.0 0.0001791 5754.37891 5776.01074
5656.0 0.0001768 5755.04395 5774.43799
5711.0 0.0001751 5755.66943 5773.15527
5792.0 0.0001727 5756.25488 5772.10010
5741.0 0.0001742 5756.79932 5771.22363
5782.0 0.0001730 5757.30127 5770.48828
5880.0 0.0001701 5757.76025 5769.86182
5685.0 0.0001759 5758.17529 5769.32031
5866.0 0.0001705 5758.54492 5768.84277
5760.0 0.0001736 5758.86963 5768.41260
5848.0 0.0001710 5759.14746 5768.01709
5771.0 0.0001733 5759.37793 5767.64111
5909.0 0.0001692 5759.55957 5767.27832
5900.0 0.0001695 5759.69287 5766.91846
5994.0 0.0001668 5759.77588 5766.55420
5767.0 0.0001734 5759.80859 5766.18018
5844.0 0.0001711 5759.78955 5765.78857
5868.0 0.0001704 5759.71826 5765.37793
5811.0 0.0001721 5759.59375 5764.94189
5777.0 0.0001731 5759.41553 5764.47705
5688.0 0.0001758 5759.18262 5763.97998
5759.0 0.0001736 5758.89453 5763.44824
5852.0 0.0001709 5758.55127 5762.87939
5961.0 0.0001678 5758.15039 5762.26904
5931.0 0.0001686 5757.69287 5761.61670
5878.0 0.0001701 5757.17725 5760.91992
5809.0 0.0001721 5756.60254 5760.17627
5959.0 0.0001678 5755.96924 5759.38574
5760.0 0.0001736 5755.27539 5758.54395
5730.0 0.0001745 5754.52148 5757.65234
6058.0 0.0001651 5753.70654 5756.70752
5803.0 0.0001723 5752.82959 5755.70898
5876.0 0.0001702 5751.89111 5754.65625
5914.0 0.0001691 5750.88867 5753.54590
5878.0 0.0001701 5749.82373 5751.96484
5908.0 0.0001693 5748.69482 5750.75439
5839.0 0.0001713 5747.50146 5749.48389
5864.0 0.0001705 5746.24316 5748.15283
6005.0 0.0001665 5744.91943 5746.76025
5882.0 0.0001700 5743.53027 5745.30566
6025.0 0.0001660 5742.07471 5742.07568
5945.0 0.0001682 5740.55225 5740.55322
5979.0 0.0001673 5738.96338 5738.96436
5896.0 0.0001696 5737.30615 5737.30713
5842.0 0.0001712 5735.58203 5735.58301
6033.0 0.0001658 5733.78857 5733.78955
6006.0 0.0001665 5731.92725 5731.92822
6160.0 0.0001623 5729.99658 5729.99756
5867.0 0.0001704 5727.99658 5727.99756
6036.0 0.0001657 5725.92725 5725.92822
5944.0 0.0001682 5723.78760 5723.78857
5972.0 0.0001674 5721.57861 5721.57959
5923.0 0.0001688 5719.29834 5719.29932
5971.0 0.0001675 5716.94727 5716.94873
5789.0 0.0001727 5714.52588 5714.52734
5847.0 0.0001710 5712.03320 5712.03418
5980.0 0.0001672 5709.46924 5709.47021
5913.0 0.0001691 5706.83350 5706.83447
6000.0 0.0001667 5704.12549 5704.12695
5945.0 0.0001682 5701.34668 5701.34766
5962.0 0.0001677 5698.49512 5698.49609
5939.0 0.0001684 5695.57178 5695.57275
5989.0 0.0001670 5692.57568 5692.57666
5918.0 0.0001690 5689.50781 5689.50879
5959.0 0.0001678 5686.36670 5686.36816
5907.0 0.0001693 5683.15332 5683.15479
5749.0 0.0001739 5679.86768 5679.86914
5721.0 0.0001748 5676.50928 5676.51025
5790.0 0.0001727 5673.07813 5673.07959
5815.0 0.0001720 5669.57422 5669.57568
5733.0 0.0001744 5665.99756 5665.99902
5790.0 0.0001727 5662.34863 5662.35010
5791.0 0.0001727 5658.62695 5658.62793
5838.0 0.0001713 5654.83301 5654.83398
5780.0 0.0001730 5650.96582 5650.96680
5711.0 0.0001751 5647.02686 5647.02783
5771.0 0.0001733 5643.01514 5643.01611
5713.0 0.0001750 5638.93066 5638.93213
5768.0 0.0001734 5634.77490 5634.77637
5760.0 0.0001736 5630.54736 5630.54883
5772.0 0.0001733 5626.24756 5626.24854
5825.0 0.0001717 5621.87598 5621.87695
5602.0 0.0001785 5617.43262 5617.43359
5755.0 0.0001738 5612.91846 5612.91943
5681.0 0.0001760 5608.33301 5608.33398
5604.0 0.0001784 5603.67676 5603.67773
5555.0 0.0001800 5598.94922 5598.95068
5562.0 0.0001798 5594.15137 5594.15283
5593.0 0.0001788 5589.28418 5589.28564
5572.0 0.0001795 5584.34668 5584.34766
5580.0 0.0001792 5579.33936 5579.34082
5602.0 0.0001785 5574.26270 5574.26367
5576.0 0.0001793 5569.11768 5569.11865
5484.0 0.0001823 5563.90283 5563.90430
5489.0 0.0001822 5558.62012 5558.62109
5494.0 0.0001820 5553.26953 5553.27100
5671.0 0.0001763 5547.85156 5547.85254
5360.0 0.0001866 5542.36572 5542.36670
5437.0 0.0001839 5536.81250 5536.81396
5363.0 0.0001865 5531.19336 5531.19434
5525.0 0.0001810 5525.50830 5525.50977
5562.0 0.0001798 5519.75781 5519.75879
5505.0 0.0001817 5513.94092 5513.94189
5607.0 0.0001783 5508.05957 5508.06055
5520.0 0.0001812 5502.11426 5502.11572
5549.0 0.0001802 5496.10449 5496.10596
5497.0 0.0001819 5490.03125 5490.03223
5529.0 0.0001809 5483.89551 5483.89648
5542.0 0.0001804 5477.69678 5477.69775
5590.0 0.0001789 5471.43652 5471.43799
5522.0 0.0001811 5465.11426 5465.11572
5483.0 0.0001824 5458.73145 5458.73242
5540.0 0.0001805 5452.28809 5452.28906
5522.0 0.0001811 5445.78516 5445.78662
5390.0 0.0001855 5439.22266 5460.55811
5578.0 0.0001793 5432.60107 5454.56445
5356.0 0.0001867 5425.92139 5448.54102
5441.0 0.0001838 5419.18457 5442.49023
5389.0 0.0001856 5412.39063 5436.41406
5297.0 0.0001888 5405.54004 5430.31396
5357.0 0.0001867 5398.63330 5424.19482
5397.0 0.0001853 5391.67236 5418.05908
5212.0 0.0001919 5384.65625 5411.90820
5178.0 0.0001931 5377.58643 5405.74707
5229.0 0.0001912 5370.46289 5399.57861
5271.0 0.0001897 5363.28760 5393.40771
5314.0 0.0001882 5356.05957 5387.23730
5302.0 0.0001886 5348.77979 5381.07129
5450.0 0.0001835 5341.44971 5374.91650
5261.0 0.0001901 5334.07080 5368.77686
5332.0 0.0001875 5326.64160 5362.65771
5229.0 0.0001912 5319.16357 5356.56543
5380.0 0.0001859 5311.63818 5350.50635
5281.0 0.0001894 5304.06494 5344.48877
5391.0 0.0001855 5296.44678 5338.52002
5288.0 0.0001891 5288.78174 5332.60791
5137.0 0.0001947 5281.07178 5326.76221
5254.0 0.0001903 5273.31738 5320.99365
5290.0 0.0001890 5265.52051 5315.31494
5128.0 0.0001950 5257.67969 5309.73682
5332.0 0.0001875 5249.79736 5304.27344
5328.0 0.0001877 5241.87354 5298.94189
5344.0 0.0001871 5233.90967 5293.75977
5221.0 0.0001915 5225.90576 5288.74463
5197.0 0.0001924 5217.86230 5283.91943
5216.0 0.0001917 5209.78125 5279.30957
5291.0 0.0001890 5201.66260 5274.94336
5178.0 0.0001931 5193.50781 5270.85107
5279.0 0.0001894 5185.31641 5267.06934
5197.0 0.0001924 5177.08984 5263.63965
5152.0 0.0001941 5168.82959 5260.61035
5222.0 0.0001915 5160.53564 5258.03369
5223.0 0.0001915 5152.20898 5255.97461
5266.0 0.0001899 5143.85010 5254.50488
5134.0 0.0001948 5135.46094 5253.71240
5230.0 0.0001912 5127.04053 5253.69482
5244.0 0.0001907 5118.59082 5254.57275
5284.0 0.0001893 5110.11328 5256.48633
5302.0 0.0001886 5101.60693 5259.60400
5134.0 0.0001948 5093.07471 5264.12891
5288.0 0.0001891 5084.51514 5270.30420
5183.0 0.0001929 5075.93066 5278.43018
5208.0 0.0001920 5067.32178 5288.87451
5263.0 0.0001900 5058.68945 5302.09375
5256.0 0.0001903 5050.03369 5318.65820
5289.0 0.0001891 5041.35596 5339.29150
5250.0 0.0001905 5032.65674 5364.91846
5306.0 0.0001885 5023.93799 5396.74170
5282.0 0.0001893 5015.19873 5436.35205
5455.0 0.0001833 5006.44141 5485.95166
5497.0 0.0001819 4997.66553 5548.83936
5589.0 0.0001789 4988.87354 5630.70410
5929.0 0.0001687 4980.06445 5742.95850
5967.0 0.0001676 4971.23975 5910.66309
6518.0 0.0001534 4962.40088 6188.58447
7276.0 0.0001374 4953.54883 6687.40820
8098.0 0.0001235 4944.68311 7603.94482
9759.0 0.0001025 4935.80518 9232.55469
12396.0 0.0000807 4926.91602 11918.02637
15881.0 0.0000630 4918.01709 15913.91309
20666.0 0.0000484 4909.10742 21152.73047
26388.0 0.0000379 4900.18945 27007.85156
32095.0 0.0000312 4891.26367 32218.85547
35570.0 0.0000281 4882.33008 35169.67578
35505.0 0.0000282 4873.39111 34601.37500
31278.0 0.0000320 4864.44580 30656.01758
25274.0 0.0000396 4855.49609 24888.33984
18874.0 0.0000530 4846.54199 19004.83984
14186.0 0.0000705 4837.58594 14090.09570
10954.0 0.0000913 4828.62646 10547.79785
8809.0 0.0001135 4819.66553 8287.28613
7201.0 0.0001389 4810.70459 6977.00684
6268.0 0.0001595 4801.74316 6259.97266
5825.0 0.0001717 4792.78320 5866.76807
5688.0 0.0001758 4783.82373 5634.81641
5376.0 0.0001860 4774.86719 5480.93555
5286.0 0.0001892 4765.91504 5367.15820
5156.0 0.0001939 4756.96533 5276.88721
5014.0 0.0001994 4748.02148 5202.41943
5010.0 0.0001996 4739.08203 5139.58643
4873.0 0.0002052 4730.15039 5085.73047
4891.0 0.0002045 4721.22461 5038.96533
4796.0 0.0002085 4712.30664 4997.88916
4833.0 0.0002069 4703.39795 4961.42822
4741.0 0.0002109 4694.49902 4928.75146
4812.0 0.0002078 4685.60938 4899.20410
4660.0 0.0002146 4676.72998 4872.26660
4670.0 0.0002141 4667.86279 4847.52588
4605.0 0.0002172 4659.00781 4824.64453
4732.0 0.0002113 4650.16602 4803.34961
4577.0 0.0002185 4641.33789 4783.41504
4658.0 0.0002147 4632.52393 4764.65576
4758.0 0.0002102 4623.72461 4746.91553
4756.0 0.0002103 4614.94238 4730.06787
4639.0 0.0002156 4606.17578 4713.99854
4580.0 0.0002183 4597.42676 4698.61914
4550.0 0.0002198 4588.69531 4683.84863
4596.0 0.0002176 4579.98340 4669.62061
4536.0 0.0002205 4571.28955 4655.87598
4539.0 0.0002203 4562.61572 4642.56543
4559.0 0.0002193 4553.96289 4629.64600
4387.0 0.0002279 4545.33154 4617.08008
4460.0 0.0002242 4536.72119 4604.83350
4584.0 0.0002182 4528.13379 4592.87891
4530.0 0.0002208 4519.56885 4581.18945
4461.0 0.0002242 4511.02881 4569.74609
4567.0 0.0002190 4502.51318 4558.52637
4476.0 0.0002234 4494.02148 4547.51367
4401.0 0.0002272 4485.55518 4536.69238
4443.0 0.0002251 4477.11670 4526.05078
4519.0 0.0002213 4468.70361 4515.57373
4331.0 0.0002309 4460.31787 4505.25098
4324.0 0.0002313 4451.96045 4495.07520
4400.0 0.0002273 4443.63086 4485.03467
4311.0 0.0002320 4435.33154 4475.12451
4343.0 0.0002303 4427.06104 4465.33496
4385.0 0.0002281 4418.82031 4455.66064
4404.0 0.0002271 4410.61084 4446.09619
4451.0 0.0002247 4402.43311 4436.63721
4418.0 0.0002263 4394.28613 4427.27686
4363.0 0.0002292 4386.17139 4418.01221
4441.0 0.0002252 4378.08936 4408.83936
4314.0 0.0002318 4370.04150 4399.75537
4250.0 0.0002353 4362.02686 4390.75635
4392.0 0.0002277 4354.04639 4381.83936
4344.0 0.0002302 4346.10010 4373.00146
4257.0 0.0002349 4338.18994 4364.24219
4300.0 0.0002326 4330.31445 4355.55713
4274.0 0.0002340 4322.47559 4346.94580
4229.0 0.0002365 4314.67236 4338.40527
4311.0 0.0002320 4306.90723 4329.93555
4244.0 0.0002356 4299.17871 4321.53320
4229.0 0.0002365 4291.48779 4313.19727
4243.0 0.0002357 4283.83496 4283.83545
4303.0 0.0002324 4276.22168 4276.22217
4324.0 0.0002313 4268.64697 4268.64697
4176.0 0.0002395 4261.11084 4261.11084
4321.0 0.0002314 4253.61475 4253.61475
4306.0 0.0002322 4246.15820 4246.15869
4221.0 0.0002369 4238.74365 4238.74365
4245.0 0.0002356 4231.36914 4231.36914
4118.0 0.0002428 4224.03516 4224.03516
4135.0 0.0002418 4216.74219 4216.74268
4222.0 0.0002369 4209.49268 4209.49268
4227.0 0.0002366 4202.28369 4202.28418
4162.0 0.0002403 4195.11768 4195.11816
4297.0 0.0002327 4187.99414 4187.99414
4117.0 0.0002429 4180.91455 4180.91455
4251.0 0.0002352 4173.87695 4173.87695
4156.0 0.0002406 4166.88281 4166.88281
4298.0 0.0002327 4159.93262 4159.93311
4237.0 0.0002360 4153.02686 4153.02686
4271.0 0.0002341 4146.16504 4146.16553
4087.0 0.0002447 4139.34766 4139.34766
4132.0 0.0002420 4132.57471 4132.57471
4202.0 0.0002380 4125.84766 4125.84766
4123.0 0.0002425 4119.16455 4119.16504
4114.0 0.0002431 4112.52783 4112.52783
4182.0 0.0002391 4105.93555 4105.93555
4063.0 0.0002461 4099.39014 4099.39014
4069.0 0.0002458 4092.88965 4092.88965
4227.0 0.0002366 4086.43506 4086.43530
4099.0 0.0002440 4080.02734 4080.02734
4091.0 0.0002444 4073.66528 4073.66553
4045.0 0.0002472 4067.35059 4067.35083
4160.0 0.0002404 4061.08179 4061.08203
4105.0 0.0002436 4054.85986 4054.85986
4002.0 0.0002499 4048.68481 4048.68506
4091.0 0.0002444 4042.55688 4042.55688
3910.0 0.0002558 4036.47607 4037.86792
4110.0 0.0002433 4030.44189 4031.87476
4044.0 0.0002473 4024.45483 4025.93066
4092.0 0.0002444 4018.51587 4020.03687
4063.0 0.0002461 4012.62354 4014.39038
4117.0 0.0002429 4006.77905 4008.60107
4023.0 0.0002486 4000.98169 4002.86084
4035.0 0.0002478 3995.23242 3997.17188
4075.0 0.0002454 3989.53003 3991.53296
4014.0 0.0002491 3983.87500 3985.94434
4097.0 0.0002441 3978.26807 3980.40723
3980.0 0.0002513 3972.70850 3974.92139
4072.0 0.0002456 3967.19678 3969.48657
4057.0 0.0002465 3961.73193 3964.10327
3967.0 0.0002521 3956.31494 3958.77222
4109.0 0.0002434 3950.94580 3953.49365
3996.0 0.0002503 3945.62378 3948.26709
3935.0 0.0002541 3940.34937 3943.09399
3927.0 0.0002546 3935.12207 3937.97363
4002.0 0.0002499 3929.94214 3932.90698
4042.0 0.0002474 3924.81006 3927.89575
4009.0 0.0002494 3919.72461 3922.93774
3926.0 0.0002547 3914.68677 3918.03613
4007.0 0.0002496 3909.69531 3913.18921
3902.0 0.0002563 3904.75146 3908.40015
3898.0 0.0002565 3899.85400 3903.66724
3782.0 0.0002644 3895.00317 3898.99268
4017.0 0.0002489 3890.19971 3894.37769
3982.0 0.0002511 3885.44214 3889.82251
3967.0 0.0002521 3880.73145 3885.32910
3838.0 0.0002606 3876.06641 3880.89819
3955.0 0.0002528 3871.44775 3876.53149
3963.0 0.0002523 3866.87524 3872.23193
3807.0 0.0002627 3862.34839 3867.99976
3879.0 0.0002578 3857.86719 3863.83887
3827.0 0.0002613 3853.43140 3859.75122
3946.0 0.0002534 3849.04126 3855.74048
3845.0 0.0002601 3844.69580 3851.80908
3890.0 0.0002571 3840.39526 3847.96265
3858.0 0.0002592 3836.13989 3844.20605
3809.0 0.0002625 3831.92920 3840.54492
3887.0 0.0002573 3827.76245 3836.98560
3871.0 0.0002583 3823.63965 3833.53711
3788.0 0.0002640 3819.56079 3830.20874
3824.0 0.0002615 3815.52612 3827.01318
3877.0 0.0002579 3811.53491 3823.96338
3815.0 0.0002621 3807.58667 3821.07739
3803.0 0.0002630 3803.68140 3818.37524
3876.0 0.0002580 3799.81860 3815.88379
3805.0 0.0002628 3795.99902 3813.63550
3725.0 0.0002685 3792.22119 3811.66919
3781.0 0.0002645 3788.48560 3810.03784
3735.0 0.0002677 3784.79150 3808.80542
3891.0 0.0002570 3781.13916 3808.05786
3777.0 0.0002648 3777.52759 3807.90649
3770.0 0.0002653 3773.95703 3808.50854
3772.0 0.0002651 3770.42725 3810.09717
3782.0 0.0002644 3766.93799 3813.07349
3867.0 0.0002586 3763.48828 3818.23706
3801.0 0.0002631 3760.07813 3827.32642
3797.0 0.0002634 3756.70752 3844.08569
4012.0 0.0002493 3753.37671 3875.94556
3976.0 0.0002515 3750.08423 3935.80176
4049.0 0.0002470 3746.83008 4042.32056
4205.0 0.0002378 3743.61401 4216.28564
4441.0 0.0002252 3740.43604 4471.23926
4579.0 0.0002184 3737.29541 4799.65283
5054.0 0.0001979 3734.19214 5159.64990
5288.0 0.0001891 3731.12524 5471.32178
5523.0 0.0001811 3728.09497 5636.32373
5309.0 0.0001884 3725.10107 5591.93799
5009.0 0.0001996 3722.14282 5369.11768
4752.0 0.0002104 3719.21973 5062.95654
4580.0 0.0002183 3716.33228 4754.59766
4442.0 0.0002251 3713.47949 4484.19434
4092.0 0.0002444 3710.66064 4263.69873
3909.0 0.0002558 3707.87573 4094.04883
3866.0 0.0002587 3705.12451 3970.33472
3717.0 0.0002690 3702.40698 3883.81128
3835.0 0.0002608 3699.72217 3825.38745
3819.0 0.0002618 3697.06982 3786.86157
3770.0 0.0002653 3694.44922 3761.74414
3812.0 0.0002623 3691.86084 3745.00293
3869.0 0.0002585 3689.30347 3733.17554
3940.0 0.0002538 3686.77734 3724.14868
4214.0 0.0002373 3684.28174 3716.75903
4095.0 0.0002442 3681.81641 3710.40576
4326.0 0.0002312 3679.38037 3704.77783
4316.0 0.0002317 3676.97412 3699.69775
4434.0 0.0002255 3674.59668 3695.05322
4336.0 0.0002306 3672.24805 3690.76392
4321.0 0.0002314 3669.92773 3686.76978
4445.0 0.0002250 3667.63501 3683.02319
4182.0 0.0002391 3665.36963 3679.48706
3966.0 0.0002521 3663.13110 3676.13184
3895.0 0.0002567 3660.91968 3672.93384
3763.0 0.0002657 3658.73413 3669.87280
3672.0 0.0002723 3656.57422 3666.93262
3711.0 0.0002695 3654.43970 3664.09961
3679.0 0.0002718 3652.33032 3661.36279
3665.0 0.0002729 3650.24536 3658.71265
3603.0 0.0002775 3648.18457 3656.14087
3678.0 0.0002719 3646.14722 3653.64111
3564.0 0.0002806 3644.13354 3651.20630
3551.0 0.0002816 3642.14233 3648.83252
3559.0 0.0002810 3640.17358 3646.51416
3553.0 0.0002815 3638.22729 3644.24805
3516.0 0.0002844 3636.30225 3642.03003
3740.0 0.0002674 3634.39868 3639.85864
3623.0 0.0002760 3632.51538 3637.72925
3586.0 0.0002789 3630.65283 3635.64063
3588.0 0.0002787 3628.81030 3633.59082
3582.0 0.0002792 3626.98706 3631.57690
3585.0 0.0002789 3625.18335 3629.59863
3561.0 0.0002808 3623.39795 3627.65308
3634.0 0.0002752 3621.63110 3625.73975
3607.0 0.0002772 3619.88184 3623.85669
3531.0 0.0002832 3618.14990 3622.00342
3449.0 0.0002899 3616.43530 3620.17944
3461.0 0.0002889 3614.73706 3618.38281
3454.0 0.0002895 3613.05542 3616.61401
3535.0 0.0002829 3611.38892 3614.87183
3629.0 0.0002756 3609.73804 3613.15601
3472.0 0.0002880 3608.10254 3611.46680
3525.0 0.0002837 3606.48096 3609.80322
3523.0 0.0002838 3604.87402 3608.16675
3571.0 0.0002800 3603.28052 3606.55688
3498.0 0.0002859 3601.70044 3604.97437
3607.0 0.0002772 3600.13330 3603.42139
3596.0 0.0002781 3598.57837 3601.89819
3455.0 0.0002894 3597.03589 3600.40845
3550.0 0.0002817 3595.50488 3598.95435
3487.0 0.0002868 3593.98560 3597.54053
3400.0 0.0002941 3592.47656 3596.17236
3502.0 0.0002856 3590.97827 3594.85889
3489.0 0.0002866 3589.49048 3593.61133
3452.0 0.0002897 3588.01172 3592.44800
3448.0 0.0002900 3586.54297 3591.40796
3492.0 0.0002864 3585.08252 3589.16675
3486.0 0.0002869 3583.63086 3588.73633
3456.0 0.0002894 3582.18750 3589.03125
3404.0 0.0002938 3580.75171 3590.71240
3555.0 0.0002813 3579.32349 3594.82666
3419.0 0.0002925 3577.90186 3602.50122
3523.0 0.0002838 3576.48706 3615.31274
3505.0 0.0002853 3575.07861 3633.26025
3593.0 0.0002783 3573.67603 3654.63843
3537.0 0.0002827 3572.27905 3675.17236
3541.0 0.0002824 3570.88696 3688.42090
3576.0 0.0002796 3569.49976 3688.39526
3583.0 0.0002791 3568.11694 3674.20093
3613.0 0.0002768 3566.73804 3651.29785
3560.0 0.0002809 3565.36328 3626.68604
3522.0 0.0002839 3563.99121 3605.13696
3501.0 0.0002856 3562.62280 3588.70801
3507.0 0.0002851 3561.25635 3577.39697
3639.0 0.0002748 3559.89233 3570.08350
3707.0 0.0002698 3558.53076 3565.38647
3938.0 0.0002539 3557.17041 3562.18164
3927.0 0.0002546 3555.81152 3567.43066
4252.0 0.0002352 3554.45337 3565.60889
4479.0 0.0002233 3553.09595 3563.99561
4619.0 0.0002165 3551.73853 3562.50757
4655.0 0.0002148 3550.38135 3561.10620
4663.0 0.0002145 3549.02393 3559.77148
4423.0 0.0002261 3547.66577 3558.49121
4152.0 0.0002408 3546.30640 3557.25635
3925.0 0.0002548 3544.94556 3556.06104
3780.0 0.0002646 3543.58325 3554.90137
3755.0 0.0002663 3542.21924 3553.77441
3594.0 0.0002782 3540.85327 3552.67725
3559.0 0.0002810 3539.48413 3551.60864
3408.0 0.0002934 3538.11230 3550.56787
3448.0 0.0002900 3536.73755 3549.55469
3492.0 0.0002864 3535.35962 3548.56934
3430.0 0.0002915 3533.97754 3547.61133
3387.0 0.0002952 3532.59204 3546.68262
3286.0 0.0003043 3531.20190 3545.78369
3401.0 0.0002940 3529.80762 3544.91650
3341.0 0.0002993 3528.40820 3544.08252
3351.0 0.0002984 3527.00391 3543.28369
3296.0 0.0003034 3525.59473 3542.52393
3369.0 0.0002968 3524.17993 3541.80469
3340.0 0.0002994 3522.75879 3541.13013
3316.0 0.0003016 3521.33179 3540.50366
3297.0 0.0003033 3519.89844 3539.93018
3287.0 0.0003042 3518.45898 3539.41504
3329.0 0.0003004 3517.01294 3538.96362
3374.0 0.0002964 3515.55957 3538.58203
3413.0 0.0002930 3514.09888 3538.27808
3311.0 0.0003020 3512.63110 3538.06079
3246.0 0.0003081 3511.15527 3537.93896
3322.0 0.0003010 3509.67212 3537.92407
3393.0 0.0002947 3508.18042 3538.02905
3342.0 0.0002992 3506.68042 3538.26807
3372.0 0.0002966 3505.17236 3538.65918
3460.0 0.0002890 3503.65527 3539.22021
3394.0 0.0002946 3502.12939 3539.97485
3462.0 0.0002889 3500.59448 3540.94995
3347.0 0.0002988 3499.05078 3542.17651
3309.0 0.0003022 3497.49707 3543.69092
3207.0 0.0003118 3495.93384 3545.53613
3390.0 0.0002950 3494.36060 3547.76465
3285.0 0.0003044 3492.77783 3550.43921
3338.0 0.0002996 3491.18506 3553.63330
3430.0 0.0002915 3489.58179 3557.43750
3339.0 0.0002995 3487.96802 3561.96338
3357.0 0.0002979 3486.34399 3567.34790
3476.0 0.0002877 3484.70898 3573.76001
3421.0 0.0002923 3483.06323 3581.41406
3427.0 0.0002918 3481.40649 3590.57910
3340.0 0.0002994 3479.73877 3601.60278
3374.0 0.0002964 3478.05933 3614.93506
3350.0 0.0002985 3476.36865 3631.17505
3452.0 0.0002897 3474.66675 3651.15234
3483.0 0.0002871 3472.95288 3676.11304
3511.0 0.0002848 3471.22754 3708.20020
3637.0 0.0002750 3469.49023 3751.67969
3751.0 0.0002666 3467.74072 3815.68188
3854.0 0.0002595 3465.97925 3920.13257
4057.0 0.0002465 3464.20605 4103.74902
4597.0 0.0002175 3462.42041 4433.12354
5145.0 0.0001944 3460.62231 5003.04785
5828.0 0.0001716 3458.81177 5916.11572
7337.0 0.0001363 3456.98901 7233.47266
9072.0 0.0001102 3455.15332 8904.32617
10636.0 0.0000940 3453.30542 10698.52930
12165.0 0.0000822 3451.44458 12183.38184
12911.0 0.0000775 3449.57104 12829.45605
12105.0 0.0000826 3447.68457 12330.14355
10679.0 0.0000936 3445.78516 10904.73340
8665.0 0.0001154 3443.87305 9099.14941
7110.0 0.0001406 3441.94775 7382.51416
5715.0 0.0001750 3440.00977 6009.60742
4959.0 0.0002017 3438.05835 5047.82910
4458.0 0.0002243 3436.09375 4443.26855
3986.0 0.0002509 3434.11670 4092.54419
3724.0 0.0002685 3432.12573 3896.51489
3693.0 0.0002708 3430.12231 3784.38696
3653.0 0.0002737 3428.10522 3714.69482
3677.0 0.0002720 3426.07520 3666.43799
3612.0 0.0002769 3424.03174 3629.90405
3731.0 0.0002680 3421.97510 3600.66406
3708.0 0.0002697 3419.90552 3576.51733
3932.0 0.0002543 3417.82251 3556.18774
4074.0 0.0002455 3415.72656 3538.82715
4324.0 0.0002313 3413.61694 3523.82153
4268.0 0.0002343 3411.49438 3510.70923
4581.0 0.0002183 3409.35864 3499.13574
4463.0 0.0002241 3407.20972 3488.82373
4224.0 0.0002367 3405.04810 3479.55591
4135.0 0.0002418 3402.87280 3471.15796
3956.0 0.0002528 3400.68457 3463.49097
3773.0 0.0002650 3398.48364 3456.44092
3547.0 0.0002819 3396.26953 3449.91577
3422.0 0.0002922 3394.04248 3443.83936
3313.0 0.0003018 3391.80249 3438.14795
3348.0 0.0002987 3389.54980 3432.78931
3246.0 0.0003081 3387.28418 3427.71851
3267.0 0.0003061 3385.00562 3422.89819
3200.0 0.0003125 3382.71460 3418.29712
3304.0 0.0003027 3380.41113 3413.88770
3213.0 0.0003112 3378.09497 3409.64697
3294.0 0.0003036 3375.76611 3405.55420
3266.0 0.0003062 3373.42505 3401.59229
3316.0 0.0003016 3371.07178 3397.74731
3350.0 0.0002985 3368.70605 3394.00464
3381.0 0.0002958 3366.32837 3390.35400
3331.0 0.0003002 3363.93848 3386.78418
3525.0 0.0002837 3361.53638 3383.28711
3570.0 0.0002801 3359.12256 3379.85522
3789.0 0.0002639 3356.69702 3376.48120
3755.0 0.0002663 3354.25977 3373.15894
3806.0 0.0002627 3351.81079 3369.88306
3698.0 0.0002704 3349.35059 3366.64844
3623.0 0.0002760 3346.87866 3363.45117
3624.0 0.0002759 3344.39551 3360.28735
3460.0 0.0002890 3341.90112 3357.15356
3354.0 0.0002982 3339.39575 3354.04614
3504.0 0.0002854 3336.87964 3350.96313
3401.0 0.0002940 3334.35254 3347.90112
3342.0 0.0002992 3331.81421 3344.85815
3353.0 0.0002982 3329.26611 3341.83276
3264.0 0.0003064 3326.70728 3338.82202
3442.0 0.0002905 3324.13818 3335.82544
3356.0 0.0002980 3321.55859 3332.84033
3370.0 0.0002967 3318.96948 3329.86670
3408.0 0.0002934 3316.36987 3326.90186
3417.0 0.0002927 3313.76050 3323.94507
3276.0 0.0003053 3311.14209 3320.99609
3237.0 0.0003089 3308.51392 3318.05347
3290.0 0.0003040 3305.87622 3315.11597
3228.0 0.0003098 3303.22925 3312.18311
3299.0 0.0003031 3300.57324 3309.25439
3371.0 0.0002966 3297.90869 3306.32935
3302.0 0.0003028 3295.23535 3396.57910
3355.0 0.0002981 3292.55322 3396.38257
3322.0 0.0003010 3289.86279 3388.60547
3416.0 0.0002927 3287.16382 3388.87988
3442.0 0.0002905 3284.45728 3389.28271
3515.0 0.0002845 3281.74219 3389.82202
3517.0 0.0002843 3279.01978 3390.50757
3584.0 0.0002790 3276.28955 3391.34863
3531.0 0.0002832 3273.55225 3392.35718
3524.0 0.0002838 3270.80713 3393.54370
3604.0 0.0002775 3268.05518 3394.92163
3482.0 0.0002872 3265.29639 3396.50439
3401.0 0.0002940 3262.53125 3398.30713
3313.0 0.0003018 3259.75879 3400.34521
3220.0 0.0003106 3256.98022 3402.63696
3440.0 0.0002907 3254.19531 3405.20142
3342.0 0.0002992 3251.40479 3408.06030
3431.0 0.0002915 3248.60815 3411.23535
3367.0 0.0002970 3245.80591 3414.75269
3602.0 0.0002776 3242.99805 3418.63940
3754.0 0.0002664 3240.18506 3422.92651
3925.0 0.0002548 3237.36694 3427.64673
3898.0 0.0002565 3234.54395 3432.83789
4018.0 0.0002489 3231.71606 3438.54028
3733.0 0.0002679 3228.88354 3444.79980
3716.0 0.0002691 3226.04736 3451.66724
3600.0 0.0002778 3223.20630 3459.19751
3483.0 0.0002871 3220.36133 3467.45459
3456.0 0.0002894 3217.51294 3476.50879
3400.0 0.0002941 3214.66113 3486.43848
3433.0 0.0002913 3211.80542 3497.33228
3386.0 0.0002953 3208.94678 3509.29053
3372.0 0.0002966 3206.08496 3522.42676
3478.0 0.0002875 3203.22070 3536.86987
3481.0 0.0002873 3200.35376 3552.76611
3486.0 0.0002869 3197.48438 3570.28320
3471.0 0.0002881 3194.61255 3589.61353
3476.0 0.0002877 3191.73901 3610.97876
3466.0 0.0002885 3188.86353 3634.63477
3352.0 0.0002983 3185.98657 3660.87964
3454.0 0.0002895 3183.10815 3690.05957
3468.0 0.0002884 3180.22876 3722.58276
3502.0 0.0002856 3177.34790 3758.92773
3570.0 0.0002801 3174.46631 3799.66260
3686.0 0.0002713 3171.58447 3845.46509
3598.0 0.0002779 3168.70190 3897.14526
3694.0 0.0002707 3165.81934 3955.68384
3708.0 0.0002697 3162.93652 4022.27026
3740.0 0.0002674 3160.05396 4098.36279
3961.0 0.0002525 3157.17163 4185.76270
4005.0 0.0002497 3154.29028 4286.71191
4069.0 0.0002458 3151.40991 4404.03125
4164.0 0.0002402 3148.53003 4541.30615
4351.0 0.0002298 3145.65137 4703.14844
4624.0 0.0002163 3142.77441 4895.58398
4853.0 0.0002061 3139.89868 5126.68408
5138.0 0.0001946 3137.02515 5407.81445
5762.0 0.0001736 3134.15332 5756.56934
6136.0 0.0001630 3131.28394 6204.32129
6902.0 0.0001449 3128.41650 6814.91113
7909.0 0.0001264 3125.55176 7725.66602
9686.0 0.0001032 3122.68994 9222.26270
12148.0 0.0000823 3119.83081 11842.40039
16929.0 0.0000591 3116.97510 16457.47656
24202.0 0.0000413 3114.12256 24217.47461
35846.0 0.0000279 3111.27344 36221.46094
51960.0 0.0000192 3108.42847 52870.78516
72443.0 0.0000138 3105.58716 73052.04688
94716.0 0.0000106 3102.75000 93434.00781
111320.0 8.98e-6 3099.91699 108409.82031
115269.0 8.68e-6 3097.08887 112012.65625
104406.0 9.58e-6 3094.26514 102374.82813
84538.0 0.0000118 3091.44604 83828.45313
61439.0 0.0000163 3088.63232 62827.65234
42741.0 0.0000234 3085.82349 44020.57813
29656.0 0.0000337 3083.02075 29581.54102
20814.0 0.0000480 3080.22290 19770.02539
15124.0 0.0000661 3077.43091 13729.13086
11082.0 0.0000902 3074.64526 10253.32910
8654.0 0.0001156 3071.86548 8295.09961
7190.0 0.0001391 3069.09204 7147.95557
6259.0 0.0001598 3066.32495 6413.26904
5757.0 0.0001737 3063.56470 5893.17822
5342.0 0.0001872 3060.81128 5496.06836
4822.0 0.0002074 3058.06470 5178.90234
4659.0 0.0002146 3055.32544 4919.15479
4365.0 0.0002291 3052.59351 4703.10254
4304.0 0.0002323 3049.86914 4521.31934
4178.0 0.0002393 3047.15234 4366.88574
3952.0 0.0002530 3044.44336 4234.55273
3878.0 0.0002579 3041.74243 4120.26807
3861.0 0.0002590 3039.04956 4020.85913
3777.0 0.0002648 3036.36523 3933.81689
3644.0 0.0002744 3033.68921 3857.13550
3509.0 0.0002850 3031.02148 3789.19922
3558.0 0.0002811 3028.36328 3728.69312
3461.0 0.0002889 3025.71362 3674.53809
3402.0 0.0002939 3023.07324 3625.84595
3389.0 0.0002951 3020.44189 3581.87549
3342.0 0.0002992 3017.81982 3542.00830
3299.0 0.0003031 3015.20752 3505.72363
3371.0 0.0002966 3012.60498 3472.58008
3249.0 0.0003078 3010.01221 3442.20288
3241.0 0.0003085 3007.42944 3414.27100
3287.0 0.0003042 3004.85669 3388.50903
3186.0 0.0003139 3002.29419 3364.67896
3253.0 0.0003074 2999.74170 3342.57520
3128.0 0.0003197 2997.20044 3322.01880
3095.0 0.0003231 2994.66919 3302.85278
3241.0 0.0003085 2992.14893 3284.94067
3219.0 0.0003107 2989.64038 3268.16235
3088.0 0.0003238 2987.14185 3252.41064
3111.0 0.0003214 2984.65479 3237.59229
3113.0 0.0003212 2982.17871 3223.62354
3055.0 0.0003273 2979.71436 3210.43091
3018.0 0.0003313 2977.26123 3197.94800
3059.0 0.0003269 2974.81982 3186.11548
3125.0 0.0003200 2972.39038 3174.88135
3044.0 0.0003285 2969.97290 3164.19678
3061.0 0.0003267 2967.56714 3154.01978
2953.0 0.0003386 2965.17358 3144.31128
2997.0 0.0003337 2962.79199 3135.03662
3075.0 0.0003252 2960.42261 3126.16382
3103.0 0.0003223 2958.06567 3117.66455
2992.0 0.0003342 2955.72119 3109.51245
2985.0 0.0003350 2953.38916 3101.68384
2998.0 0.0003336 2951.07007 3094.15723
2978.0 0.0003358 2948.76416 3086.91333
2955.0 0.0003384 2946.47021 3079.93237
2995.0 0.0003339 2944.18945 3073.19873
3016.0 0.0003316 2941.92212 3066.69751
2885.0 0.0003466 2939.66724 3064.31030
2894.0 0.0003455 2937.42578 3058.34668
2919.0 0.0003426 2935.19751 3052.58154
2888.0 0.0003463 2932.98291 3047.00415
3011.0 0.0003321 2930.78174 3041.60474
3001.0 0.0003332 2928.59375 3036.37378
2949.0 0.0003391 2926.41943 3031.30371
2888.0 0.0003463 2924.25854 3026.38599
2979.0 0.0003357 2922.11133 2927.09448
2903.0 0.0003445 2919.97803 2925.12769
3038.0 0.0003292 2917.85864 2923.18359
2989.0 0.0003346 2915.75269 2921.26245
2932.0 0.0003411 2913.66113 2919.36499
3025.0 0.0003306 2911.58350 2917.49194
3189.0 0.0003136 2909.51953 2915.64380
3290.0 0.0003040 2907.46973 2913.82178
3472.0 0.0002880 2905.43433 2912.02686
3885.0 0.0002574 2903.41260 2910.26001
3898.0 0.0002565 2901.40527 2908.52197
4139.0 0.0002416 2899.41211 2906.81519
4305.0 0.0002323 2897.43335 2905.13989
4189.0 0.0002387 2895.46924 2903.49829
4026.0 0.0002484 2893.51904 2901.89111
3772.0 0.0002651 2891.58325 2900.32104
3630.0 0.0002755 2889.66187 2898.78955
3367.0 0.0002970 2887.75488 2897.29932
3151.0 0.0003174 2885.86230 2895.85229
3077.0 0.0003250 2883.98438 2894.45239
2920.0 0.0003425 2882.12085 2893.10132
2847.0 0.000351 2880.27197 2891.80371
2961.0 0.0003377 2878.43750 2890.56299
2893.0 0.0003457 2876.61743 2889.38379
2935.0 0.0003407 2874.81201 2888.27100
2992.0 0.0003342 2873.02100 2887.23071
2859.0 0.0003498 2871.24463 2886.26904
2978.0 0.0003358 2869.48267 2885.39404
2815.0 0.000355 2867.73535 2884.61426
2868.0 0.0003487 2866.00293 2883.94019
2932.0 0.0003411 2864.28467 2883.38232
2756.0 0.000363 2862.58081 2882.95459
2898.0 0.0003451 2860.89185 2882.67383
2853.0 0.0003505 2859.21729 2882.55737
2775.0 0.000360 2857.55713 2882.62817
2819.0 0.000355 2855.91162 2882.91235
2872.0 0.0003482 2854.28027 2883.44141
2802.0 0.000357 2852.66357 2884.25244
2809.0 0.000356 2851.06152 2885.39258
2870.0 0.0003484 2849.47388 2886.91724
2745.0 0.000364 2847.90015 2888.89526
2802.0 0.000357 2846.34106 2891.41260
2851.0 0.000351 2844.79639 2894.57764
2851.0 0.000351 2843.26587 2898.52515
2781.0 0.000360 2841.74951 2903.43091
2772.0 0.000361 2840.24756 2909.52148
2979.0 0.0003357 2838.76001 2917.09790
2941.0 0.0003400 2837.28613 2926.57568
2850.0 0.000351 2835.82666 2938.57617
2845.0 0.000351 2834.38110 2954.15381
2909.0 0.0003438 2832.94971 2975.36450
2850.0 0.000351 2831.53198 3006.55127
3016.0 0.0003316 2830.12842 3056.80566
3085.0 0.0003241 2828.73877 3143.66235
3356.0 0.0002980 2827.36279 3296.67041
3639.0 0.0002748 2826.00073 3557.19336
4001.0 0.0002499 2824.65210 3969.25537
4514.0 0.0002215 2823.31714 4558.49365
5375.0 0.0001860 2821.99585 5302.64746
6151.0 0.0001626 2820.68774 6102.25244
7016.0 0.0001425 2819.39355 6765.08203
7061.0 0.0001416 2818.11230 7048.08154
6594.0 0.0001517 2816.84473 6813.95410
6123.0 0.0001633 2815.59058 6171.47656
5095.0 0.0001963 2814.34912 5368.20117
4517.0 0.0002214 2813.12085 4608.11719
3824.0 0.0002615 2811.90552 3998.97070
3422.0 0.0002922 2810.70313 3568.64844
3399.0 0.0002942 2809.51392 3294.20581
3160.0 0.0003165 2808.33716 3131.71948
3102.0 0.0003224 2807.17310 3038.61255
2982.0 0.0003353 2806.02173 2983.97852
2947.0 0.0003393 2804.88306 2949.33130
2977.0 0.0003359 2803.75684 2925.06665
2923.0 0.0003421 2802.64258 2906.61304
3035.0 0.0003295 2801.54077 2891.82446
3005.0 0.0003328 2800.45093 2879.61084
3106.0 0.0003220 2799.37329 2869.33398
3212.0 0.0003113 2798.30762 2860.56836
3180.0 0.0003145 2797.25391 2853.00659
3318.0 0.0003014 2796.21191 2846.41602
3322.0 0.0003010 2795.18164 2840.61841
3320.0 0.0003012 2794.16284 2835.47510
3359.0 0.0002977 2793.15552 2830.87646
3236.0 0.0003090 2792.15967 2826.73486
3069.0 0.0003258 2791.17505 2822.97974
3000.0 0.0003333 2790.20142 2819.55396
2990.0 0.0003344 2789.23901 2816.41064
2995.0 0.0003339 2788.28760 2813.51196
2959.0 0.0003380 2787.34692 2810.82471
2948.0 0.0003392 2786.41699 2808.32275
2839.0 0.000352 2785.49756 2805.98364
2901.0 0.0003447 2784.58887 2803.78833
2954.0 0.0003385 2783.69019 2801.71997
2908.0 0.0003439 2782.80200 2799.76587
2871.0 0.0003483 2781.92383 2797.91284
2738.0 0.000365 2781.05591 2796.15186
2880.0 0.0003472 2780.19775 2794.47314
2732.0 0.000366 2779.34937 2792.86914
2807.0 0.000356 2778.51074 2791.33325
2759.0 0.000362 2777.68164 2789.85913
2870.0 0.0003484 2776.86206 2788.44189
2845.0 0.000351 2776.05151 2787.07690
2801.0 0.000357 2775.25024 2785.75977
2814.0 0.000355 2774.45825 2794.47778
2708.0 0.000369 2773.67505 2793.54053
2751.0 0.000364 2772.90039 2792.65527
2834.0 0.000353 2772.13477 2791.81934
2794.0 0.000358 2771.37744 2791.03125
2708.0 0.000369 2770.62866 2790.29004
2758.0 0.000363 2769.88794 2789.59497
2665.0 0.000375 2769.15576 2788.94507
2688.0 0.000372 2768.43140 2788.34009
2674.0 0.000374 2767.71484 2787.77905
2637.0 0.000379 2767.00635 2787.26343
2735.0 0.000366 2766.30493 2786.79224
2702.0 0.000370 2765.61133 2786.36670
2750.0 0.000364 2764.92505 2809.47144
2664.0 0.000375 2764.24609 2809.82886
2705.0 0.000370 2763.57397 2810.26538
2665.0 0.000375 2762.90894 2810.78442
2680.0 0.000373 2762.25073 2811.38965
2695.0 0.000371 2761.59937 2812.08569
2643.0 0.000378 2760.95410 2812.87622
2723.0 0.000367 2760.31567 2813.76807
2696.0 0.000371 2759.68311 2814.76514
2721.0 0.000368 2759.05713 2815.87573
2637.0 0.000379 2758.43677 2817.10596
2678.0 0.000373 2757.82251 2818.46460
2827.0 0.000354 2757.21387 2819.96045
2743.0 0.000365 2756.61060 2817.69702
2715.0 0.000368 2756.01270 2819.60840
2745.0 0.000364 2755.42041 2821.68579
2743.0 0.000365 2754.83301 2823.94312
2755.0 0.000363 2754.25098 2826.39648
2658.0 0.000376 2753.67334 2829.06323
2679.0 0.000373 2753.10059 2831.96313
2680.0 0.000373 2752.53247 2835.11890
2717.0 0.000368 2751.96899 2838.55542
2726.0 0.000367 2751.40967 2842.30151
2698.0 0.000371 2750.85449 2846.38916
2637.0 0.000379 2750.30322 2850.85547
2643.0 0.000378 2749.75586 2855.74316
2666.0 0.000375 2749.21240 2861.10132
2758.0 0.000363 2748.67261 2866.98535
2701.0 0.000370 2748.13599 2873.46094
2682.0 0.000373 2747.60303 2880.60474
2702.0 0.000370 2747.07300 2888.50562
2835.0 0.000353 2746.54614 2897.26904
2779.0 0.000360 2746.02222 2907.02026
2842.0 0.000352 2745.50073 2917.90796
2853.0 0.0003505 2744.98218 2930.11279
2837.0 0.000352 2744.46606 2943.85156
2824.0 0.000354 2743.95239 2959.39087
2925.0 0.0003419 2743.44092 2977.05981
2908.0 0.0003439 2742.93140 2997.26758
2934.0 0.0003408 2742.42407 3020.52979
3001.0 0.0003332 2741.91821 3047.50684
3035.0 0.0003295 2741.41431 3081.86499
3011.0 0.0003321 2740.91187 3119.22021
3107.0 0.0003219 2740.41089 3163.99756
3051.0 0.0003278 2739.91113 3218.94043
3211.0 0.0003114 2739.41235 3289.18359
3309.0 0.0003022 2738.91479 3385.24243
3436.0 0.0002910 2738.41797 3528.74756
3821.0 0.0002617 2737.92188 3761.10254
4169.0 0.0002399 2737.42651 4152.09180
4910.0 0.0002037 2736.93140 4800.09326
5876.0 0.0001702 2736.43677 5811.90479
7398.0 0.0001352 2735.94238 7254.80566
9167.0 0.0001091 2735.44800 9087.88477
11126.0 0.0000899 2734.95361 11091.03906
12828.0 0.0000780 2734.45923 12818.36621
13501.0 0.0000741 2733.96411 13676.87500
13075.0 0.0000765 2733.46899 13296.98633
11770.0 0.0000850 2732.97314 11913.44336
9747.0 0.0001026 2732.47681 10143.85156
8430.0 0.0001186 2731.97925 8538.74805
7546.0 0.0001325 2731.48120 7454.76465
7403.0 0.0001351 2730.98193 7114.23730
8045.0 0.0001243 2730.48145 7683.19531
9579.0 0.0001044 2729.97974 9311.19336
12216.0 0.0000819 2729.47656 12092.05957
15750.0 0.0000635 2728.97192 15939.79199
20141.0 0.0000496 2728.46558 20422.09961
24257.0 0.0000412 2727.95752 24614.14063
26250.0 0.0000381 2727.44751 27143.78125
26091.0 0.0000383 2726.93579 26849.80859
23312.0 0.0000429 2726.42188 23838.56250
18438.0 0.0000542 2725.90552 19393.54297
13833.0 0.0000723 2725.38696 14842.43262
10275.0 0.0000973 2724.86597 10988.30762
7986.0 0.0001252 2724.34229 8133.72070
6520.0 0.0001534 2723.81616 6235.44580
5031.0 0.0001988 2723.28735 5073.82715
4367.0 0.0002290 2722.75562 4396.43359
3934.0 0.0002542 2722.22070 4000.83008
3708.0 0.0002697 2721.68286 3756.41064
3513.0 0.0002847 2721.14185 3591.13843
3509.0 0.0002850 2720.59741 3469.30835
3231.0 0.0003095 2720.04980 3373.96924
3255.0 0.0003072 2719.49854 3296.72266
3194.0 0.0003131 2718.94385 3232.87256
3137.0 0.0003188 2718.38525 3179.40405
3053.0 0.0003275 2717.82300 3134.18359
3120.0 0.0003205 2717.25708 3095.62036
3075.0 0.0003252 2716.68677 3063.31812
3028.0 0.0003303 2716.11279 3034.71045
3112.0 0.0003213 2715.53442 3009.85547
3077.0 0.0003250 2714.95190 2988.16406
3016.0 0.0003316 2714.36523 2969.16650
2985.0 0.0003350 2713.77393 2952.48413
2900.0 0.0003448 2713.17822 2937.81323
2846.0 0.000351 2712.57788 2924.90698
2960.0 0.0003378 2711.97290 2913.56836
2952.0 0.0003388 2711.36328 2903.63843
2896.0 0.0003453 2710.74854 2894.99390
2838.0 0.000352 2710.12915 2887.54053
2865.0 0.0003490 2709.50464 2881.21021
2889.0 0.0003461 2708.87524 2878.75586
2779.0 0.000360 2708.24048 2874.64111
2911.0 0.0003435 2707.60059 2871.60620
2765.0 0.000362 2706.95557 2869.68945
2871.0 0.0003483 2706.30493 2868.96460
2852.0 0.0003506 2705.64917 2869.54736
2776.0 0.000360 2704.98779 2871.60620
2939.0 0.0003403 2704.32080 2875.37695
2852.0 0.0003506 2703.64819 2881.19800
2949.0 0.0003391 2702.96997 2889.56689
2835.0 0.000353 2702.28613 2901.28955
2890.0 0.0003460 2701.59619 2917.85107
2904.0 0.0003444 2700.90039 2942.27319
2920.0 0.0003425 2700.19897 2980.89502
3125.0 0.0003200 2699.49121 3046.33521
3108.0 0.0003218 2698.77759 3161.09937
3395.0 0.0002946 2698.05786 3359.46558
3754.0 0.0002664 2697.33179 3683.34033
4231.0 0.0002364 2696.59985 4168.01270
4941.0 0.0002024 2695.86157 4818.03564
5734.0 0.0001744 2695.11694 5578.94043
6510.0 0.0001536 2694.36597 6312.20752
7068.0 0.0001415 2693.60864 6795.50928
6961.0 0.0001437 2692.84473 6807.70410
6649.0 0.0001504 2692.07446 6354.05957
5850.0 0.0001709 2691.29785 5625.74268
4953.0 0.0002019 2690.51440 4854.12598
4083.0 0.0002449 2689.72461 4186.30566
3758.0 0.0002661 2688.92822 3682.71826
3379.0 0.0002959 2688.12500 3342.46021
3130.0 0.0003195 2687.31494 3131.49146
3115.0 0.0003210 2686.49829 3007.44287
3051.0 0.0003278 2685.67505 2934.91479
2909.0 0.0003438 2684.84497 2890.37549
2840.0 0.000352 2684.00781 2860.53394
2881.0 0.0003471 2683.16431 2838.69727
2876.0 0.0003477 2682.31348 2821.67065
2902.0 0.0003446 2681.45605 2784.53076
2982.0 0.0003353 2680.59180 2773.79565
2878.0 0.0003475 2679.72021 2764.88867
2920.0 0.0003425 2678.84204 2757.44067
2959.0 0.0003380 2677.95654 2751.17969
2930.0 0.0003413 2677.06445 2745.90283
2958.0 0.0003381 2676.16504 2741.45581
2880.0 0.0003472 2675.25903 2737.72217
2909.0 0.0003438 2674.34595 2734.61279
2889.0 0.0003461 2673.42554 2732.06274
2916.0 0.0003429 2672.49829 2730.02686
2921.0 0.0003423 2671.56396 2728.47412
2908.0 0.0003439 2670.62256 2727.38989
2828.0 0.000354 2669.67407 2726.77271
2862.0 0.0003494 2668.71851 2726.63550
2808.0 0.000356 2667.75635 2727.00732
2918.0 0.0003427 2666.78662 2727.93359
2867.0 0.0003488 2665.81006 2729.48291
2810.0 0.000356 2664.82642 2731.75171
2771.0 0.000361 2663.83569 2734.87695
2799.0 0.000357 2662.83789 2739.06689
2826.0 0.000354 2661.83301 2744.66577
2825.0 0.000354 2660.82129 2752.32617
2761.0 0.000362 2659.80273 2763.37158
2892.0 0.0003458 2658.77686 2780.47266
2869.0 0.0003486 2657.74414 2808.61841
2912.0 0.0003434 2656.70435 2855.98584
2981.0 0.0003355 2655.65771 2933.73755
3138.0 0.0003187 2654.60400 3053.46777
3295.0 0.0003035 2653.54346 3221.68311
3406.0 0.0002936 2652.47607 3432.24292
3623.0 0.0002760 2651.40161 3658.62866
3850.0 0.0002597 2650.32080 3848.93140
3973.0 0.0002517 2649.23291 3936.81714
3991.0 0.0002506 2648.13794 3887.20166
3775.0 0.0002649 2647.03638 3735.31421
3571.0 0.0002800 2645.92822 3554.92969
3365.0 0.0002972 2644.81299 3411.50757
3412.0 0.0002931 2643.69116 3353.31958
3422.0 0.0002922 2642.56274 3418.80298
3695.0 0.0002706 2641.42798 3640.99976
4062.0 0.0002462 2640.28638 4042.66187
4629.0 0.0002160 2639.13818 4620.12305
5184.0 0.0001929 2637.98340 5319.72949
6027.0 0.0001659 2636.82251 6013.65723
6422.0 0.0001557 2635.65479 6494.13965
6511.0 0.0001536 2634.48071 6551.78369
6077.0 0.0001646 2633.30029 6151.33154
5364.0 0.0001864 2632.11377 5472.40576
4647.0 0.0002152 2630.92090 4737.31055
3969.0 0.0002520 2629.72144 4091.86914
3579.0 0.0002794 2628.51611 3598.80933
3415.0 0.0002928 2627.30469 3261.31689
3188.0 0.0003137 2626.08691 3049.34863
3120.0 0.0003205 2624.86328 2923.20776
2961.0 0.0003377 2623.63330 2848.71997
3023.0 0.0003308 2622.39771 2802.64282
3057.0 0.0003271 2621.15649 2771.59644
2974.0 0.0003362 2619.90918 2748.72876
2938.0 0.0003404 2618.65601 2730.73828
2838.0 0.000352 2617.39722 2716.13525
2653.0 0.000377 2616.13257 2703.76587
2748.0 0.000364 2614.86230 2693.21240
2608.0 0.000383 2613.58667 2684.09033
2680.0 0.000373 2612.30542 2676.11597
2612.0 0.000383 2611.01880 2669.07422
2578.0 0.000388 2609.72681 2662.79614
2632.0 0.000380 2608.42969 2657.15039
2664.0 0.000375 2607.12695 2652.03247
2578.0 0.000388 2605.81909 2645.93262
2503.0 0.000400 2604.50610 2641.73267
2607.0 0.000384 2603.18823 2637.85229
2713.0 0.000369 2601.86499 2634.49512
2657.0 0.000376 2600.53735 2631.12915
2597.0 0.000385 2599.20459 2627.96729
2523.0 0.000396 2597.86694 2624.98242
2584.0 0.000387 2596.52490 2622.15308
2586.0 0.000387 2595.17798 2619.46069
2671.0 0.000374 2593.82642 2616.88843
2598.0 0.000385 2592.47046 2614.42334
2578.0 0.000388 2591.10986 2612.05249
2513.0 0.000398 2589.74512 2609.76733
2577.0 0.000388 2588.37646 2607.55762
2577.0 0.000388 2587.00293 2605.41602
2606.0 0.000384 2585.62573 2603.33643
2563.0 0.000390 2584.24414 2601.31274
2485.0 0.000402 2582.85864 2599.33984
2481.0 0.000403 2581.46924 2597.41333
2512.0 0.000398 2580.07617 2595.52954
2552.0 0.000392 2578.67920 2593.68457
2510.0 0.000398 2577.27881 2591.87622
2546.0 0.000393 2575.87476 2590.10181
2529.0 0.000395 2574.46680 2588.35767
2556.0 0.000391 2573.05566 2586.64380
2515.0 0.000398 2571.64136 2584.95801
2505.0 0.000399 2570.22363 2583.29810
2465.0 0.000406 2568.80273 2581.66333
2547.0 0.000393 2567.37866 2580.05249
2583.0 0.000387 2565.95190 2578.46582
2556.0 0.000391 2564.52197 2576.90186
2534.0 0.000395 2563.08911 2575.35986
2504.0 0.000399 2561.65356 2573.83984
2496.0 0.000401 2560.21533 2572.34229
2527.0 0.000396 2558.77441 2570.86694
2513.0 0.000398 2557.33105 2569.41357
2406.0 0.000416 2555.88525 2567.98364
2429.0 0.000412 2554.43726 2566.57715
2499.0 0.000400 2552.98706 2565.19507
2473.0 0.000404 2551.53467 2563.83862
2508.0 0.000399 2550.08032 2562.50830
2412.0 0.000415 2548.62378 2561.20679
2466.0 0.000406 2547.16528 2559.93530
2431.0 0.000411 2545.70483 2558.69604
2469.0 0.000405 2544.24316 2557.49170
2485.0 0.000402 2542.77954 2556.63379
2446.0 0.000409 2541.31470 2555.51685
2550.0 0.000392 2539.84814 2553.62354
2570.0 0.000389 2538.38013 2552.62183
2426.0 0.000412 2536.91113 2551.67554
2446.0 0.000409 2535.44067 2550.79028
2432.0 0.000411 2533.96924 2549.97510
2468.0 0.000405 2532.49683 2549.23779
2433.0 0.000411 2531.02344 2549.68555
2512.0 0.000398 2529.54956 2549.16626
2490.0 0.000402 2528.07446 2548.76465
2379.0 0.000420 2526.59912 2548.50024
2568.0 0.000389 2525.12305 2548.39429
2453.0 0.000408 2523.64648 2548.47461
2575.0 0.000388 2522.16968 2548.77588
2546.0 0.000393 2520.69238 2546.59814
2427.0 0.000412 2519.21509 2547.55151
2572.0 0.000389 2517.73730 2548.90601
2487.0 0.000402 2516.26025 2550.79248
2565.0 0.000390 2514.78296 2553.43481
2461.0 0.000406 2513.30566 2557.25024
2512.0 0.000398 2511.82861 2562.99072
2603.0 0.000384 2510.35205 2571.89624
2591.0 0.000386 2508.87598 2585.73486
2512.0 0.000398 2507.40039 2606.53955
2595.0 0.000385 2505.92529 2635.91992
2727.0 0.000367 2504.45142 2674.05566
2787.0 0.000359 2502.97803 2718.68335
2767.0 0.000361 2501.50513 2764.50244
2744.0 0.000364 2500.03369 2804.57861
2802.0 0.000357 2498.56299 2837.40771
2874.0 0.0003479 2497.09375 2876.48975
2845.0 0.000351 2495.62549 2948.81860
2989.0 0.0003346 2494.15869 3083.71753
3099.0 0.0003227 2492.69360 3302.36719
3595.0 0.0002782 2491.22949 3607.38574
3850.0 0.0002597 2489.76733 3971.16846
4179.0 0.0002393 2488.30664 4324.77979
4502.0 0.0002221 2486.84790 4560.67236
4297.0 0.0002327 2485.39087 4585.98682
4241.0 0.0002358 2483.93579 4403.22607
3886.0 0.0002573 2482.48291 4094.58057
3505.0 0.0002853 2481.03174 3742.99292
3194.0 0.0003131 2479.58325 3408.64331
3044.0 0.0003285 2478.13696 3130.63232
2847.0 0.000351 2476.69287 2923.02759
2749.0 0.000364 2475.25098 2780.06006
2668.0 0.000375 2473.81177 2687.04028
2634.0 0.000380 2472.37549 2628.39136
2505.0 0.000399 2470.94141 2591.45093
2407.0 0.000415 2469.51050 2567.40845
2500.0 0.000400 2468.08252 2550.79565
2561.0 0.000390 2466.65723 2538.50098
2472.0 0.000405 2465.23486 2528.85425
2444.0 0.000409 2463.81567 2520.97119
2464.0 0.000406 2462.39966 2514.36450
2565.0 0.000390 2460.98682 2508.73975
2533.0 0.000395 2459.57739 2503.90283
2429.0 0.000412 2458.17139 2499.71655
2558.0 0.000391 2456.76904 2496.07910
2468.0 0.000405 2455.36987 2493.19336
2445.0 0.000409 2453.97461 2490.45654
2440.0 0.000410 2452.58301 2488.09961
2528.0 0.000396 2451.19507 2486.09912
2502.0 0.000400 2449.81079 2484.44116
2510.0 0.000398 2448.43066 2483.12427
2467.0 0.000405 2447.05444 2482.15796
2540.0 0.000394 2445.68237 2481.56616
2613.0 0.000383 2444.31470 2481.38770
2600.0 0.000385 2442.95093 2481.68262
2583.0 0.000387 2441.59155 2482.55054
2583.0 0.000387 2440.23633 2484.16235
2556.0 0.000391 2438.88574 2486.84375
2538.0 0.000394 2437.53931 2491.23975
2675.0 0.000374 2436.19751 2498.58667
2696.0 0.000371 2434.86060 2511.04565
2557.0 0.000391 2433.52832 2531.88647
2648.0 0.000378 2432.20044 2565.15479
2736.0 0.000365 2430.87769 2614.46362
2793.0 0.000358 2429.55957 2680.92139
2794.0 0.000358 2428.24658 2760.69141
2906.0 0.0003441 2426.93823 2842.75806
3033.0 0.0003297 2425.63550 2908.69897
3037.0 0.0003293 2424.33765 2941.46997
3039.0 0.0003291 2423.04492 2945.07324
3047.0 0.0003282 2421.75732 2949.77490
3136.0 0.0003189 2420.47485 2992.62061
3334.0 0.0002999 2419.19800 3099.98096
3466.0 0.0002885 2417.92651 3278.90503
3776.0 0.0002648 2416.66040 3510.19922
4160.0 0.0002404 2415.39966 3742.06226
4201.0 0.0002380 2414.14453 3891.79785
4175.0 0.0002395 2412.89526 3882.76660
4001.0 0.0002499 2411.65161 3711.76611
3580.0 0.0002793 2410.41357 3450.80762
3301.0 0.0003029 2409.18115 3178.78345
2993.0 0.0003341 2407.95435 2944.26074
2794.0 0.000358 2406.73364 2766.58691
2615.0 0.000382 2405.51880 2645.01709
2608.0 0.000383 2404.31006 2568.03491
2534.0 0.000395 2403.10718 2521.37524
2647.0 0.000378 2401.91040 2493.01099
2510.0 0.000398 2400.71973 2474.81714
2609.0 0.000383 2399.53491 2462.10938
2615.0 0.000382 2398.35645 2452.46606
2551.0 0.000392 2397.18408 2444.69946
2629.0 0.000380 2396.01782 2438.20947
2548.0 0.000392 2394.85815 2432.66260
2545.0 0.000393 2393.70459 2427.84741
2509.0 0.000399 2392.55762 2423.61548
2427.0 0.000412 2391.41675 2419.85522
2381.0 0.000420 2390.28247 2416.48389
2410.0 0.000415 2389.15454 2413.29858
2411.0 0.000415 2388.03296 2410.52832
2431.0 0.000411 2386.91797 2407.99072
2426.0 0.000412 2385.80957 2405.65479
2402.0 0.000416 2384.70776 2403.49487
2441.0 0.000410 2383.61255 2401.49219
2444.0 0.000409 2382.52393 2399.63159
2433.0 0.000411 2381.44214 2397.90015
2418.0 0.000414 2380.36694 2396.29077
2365.0 0.000423 2379.29834 2393.38672
2428.0 0.000412 2378.23657 2392.03979
2460.0 0.000407 2377.18115 2390.80542
2363.0 0.000423 2376.13306 2389.43140
2348.0 0.000426 2375.09155 2388.44165
2374.0 0.000421 2374.05688 2387.58521
2480.0 0.000403 2373.02905 2386.87793
2366.0 0.000423 2372.00806 2386.34302
2413.0 0.000414 2370.99390 2386.01392
2369.0 0.000422 2369.98657 2385.93750
2343.0 0.000427 2368.98633 2386.19360
2456.0 0.000407 2367.99292 2386.92383
2353.0 0.000425 2367.00610 2388.41162
2455.0 0.000407 2366.02686 2391.23389
2413.0 0.000414 2365.05396 2396.50732
2492.0 0.000401 2364.08838 2406.17139
2534.0 0.000395 2363.12964 2423.11450
2477.0 0.000404 2362.17798 2450.80249
2521.0 0.000397 2361.23315 2492.11890
2600.0 0.000385 2360.29541 2547.44385
2691.0 0.000372 2359.36475 2612.37109
2744.0 0.000364 2358.44092 2675.43213
2721.0 0.000368 2357.52417 2717.53979
2682.0 0.000373 2356.61450 2719.85669
2630.0 0.000380 2355.71167 2680.53101
2498.0 0.000400 2354.81592 2616.96118
2526.0 0.000396 2353.92700 2549.21460
2498.0 0.000400 2353.04517 2489.95776
2534.0 0.000395 2352.17065 2444.46216
2374.0 0.000421 2351.30273 2412.87793
2345.0 0.000426 2350.44214 2392.53687
2413.0 0.000414 2349.58838 2379.94897
2349.0 0.000426 2348.74146 2373.29419
2356.0 0.000424 2347.90161 2368.12231
2345.0 0.000426 2347.06885 2364.38672
2229.0 0.000449 2346.24292 2361.45020
2319.0 0.000431 2345.42383 2358.99927
2298.0 0.000435 2344.61206 2356.87598
2366.0 0.000423 2343.80688 2354.99414
2341.0 0.000427 2343.00879 2353.29907
2331.0 0.000429 2342.21729 2351.75317
2341.0 0.000427 2341.43311 2350.48682
2309.0 0.000433 2340.65552 2349.16724
2281.0 0.000438 2339.88477 2347.93286
2392.0 0.000418 2339.12085 2346.76953
2364.0 0.000423 2338.36377 2345.36450
2331.0 0.000429 2337.61353 2344.32349
2315.0 0.000432 2336.87036 2343.32886
2332.0 0.000429 2336.13354 2342.37524
2335.0 0.000428 2335.40356 2341.45874
2356.0 0.000424 2334.68042 2340.57520
2324.0 0.000430 2333.96362 2339.72217
2334.0 0.000428 2333.25391 2338.89697
2293.0 0.000436 2332.55054 2338.09766
2326.0 0.000430 2331.85400 2336.22705
2322.0 0.000431 2331.16382 2335.50049
2411.0 0.000415 2330.48047 2334.79419
2310.0 0.000433 2329.80347 2334.10815
2279.0 0.000439 2329.13281 2333.44092
2358.0 0.000424 2328.46899 2332.79248
2328.0 0.000430 2327.81128 2332.16187
2296.0 0.000436 2327.16016 2331.54907
2332.0 0.000429 2326.51538 2330.95410
2260.0 0.000442 2325.87720 2330.37695
2279.0 0.000439 2325.24487 2329.81689
2357.0 0.000424 2324.61914 2329.27466
2349.0 0.000426 2323.99951 2328.75024
2315.0 0.000432 2323.38623 2328.24438
2381.0 0.000420 2322.77881 2327.75684
2281.0 0.000438 2322.17773 2327.28882
2291.0 0.000436 2321.58276 2326.84033
2302.0 0.000434 2320.99390 2326.41260
2253.0 0.000444 2320.41089 2326.00659
2285.0 0.000438 2319.83398 2325.62280
2347.0 0.000426 2319.26294 2325.26318
2324.0 0.000430 2318.69800 2324.92871
2352.0 0.000425 2318.13843 2324.62085
2326.0 0.000430 2317.58496 2324.34131
2344.0 0.000427 2317.03735 2324.09326
2333.0 0.000429 2316.49536 2323.87769
2254.0 0.000444 2315.95898 2323.69873
2394.0 0.000418 2315.42847 2323.55859
2326.0 0.000430 2314.90308 2323.46143
2392.0 0.000418 2314.38354 2323.41138
2333.0 0.000429 2313.86963 2323.41382
2302.0 0.000434 2313.36084 2323.47388
2301.0 0.000435 2312.85742 2323.59912
2298.0 0.000435 2312.35938 2323.79712
2316.0 0.000432 2311.86694 2324.07739
2301.0 0.000435 2311.37939 2324.45142
2303.0 0.000434 2310.89722 2324.93237
2335.0 0.000428 2310.42017 2325.53613
2234.0 0.000448 2309.94824 2326.28223
2214.0 0.000452 2309.48120 2327.19458
2295.0 0.000436 2309.01929 2328.30151
2328.0 0.000430 2308.56201 2329.63916
2248.0 0.000445 2308.10986 2331.25220
2264.0 0.000442 2307.66260 2333.19629
2216.0 0.000451 2307.21997 2335.54272
2301.0 0.000435 2306.78198 2338.38330
2259.0 0.000443 2306.34863 2341.83813
2272.0 0.000440 2305.91992 2346.07104
2309.0 0.000433 2305.49585 2351.31641
2290.0 0.000437 2305.07617 2357.94897
2263.0 0.000442 2304.66089 2366.64502
2316.0 0.000432 2304.25000 2378.73633
2314.0 0.000432 2303.84351 2396.60718
2435.0 0.000411 2303.44116 2425.84937
2416.0 0.000414 2303.04272 2474.66626
2558.0 0.000391 2302.64893 2555.28516
2670.0 0.000375 2302.25879 2681.76929
2825.0 0.000354 2301.87280 2864.91040
3090.0 0.0003236 2301.49097 3104.30200
3310.0 0.0003021 2301.11279 3379.09253
3630.0 0.0002755 2300.73853 3638.74438
3855.0 0.0002594 2300.36792 3802.65649
3771.0 0.0002652 2300.00122 3798.86670
3637.0 0.0002750 2299.63770 3632.69458
3262.0 0.0003066 2299.27832 3382.97559
3094.0 0.0003232 2298.92212 3130.98901
2884.0 0.0003467 2298.56934 2924.93774
2663.0 0.000376 2298.21997 2781.69019
2616.0 0.000382 2297.87427 2695.15332
2607.0 0.000384 2297.53125 2644.67480
2546.0 0.000393 2297.19189 2605.42798
2563.0 0.000390 2296.85547 2561.75098
2513.0 0.000398 2296.52222 2512.97437
2447.0 0.000409 2296.19189 2465.38354
2516.0 0.000397 2295.86450 2424.18579
2351.0 0.000425 2295.53979 2391.72754
2386.0 0.000419 2295.21826 2374.99023
2333.0 0.000429 2294.89917 2358.71875
2325.0 0.000430 2294.58276 2347.73291
2357.0 0.000424 2294.26904 2340.20850
2286.0 0.000437 2293.95801 2334.81104
2333.0 0.000429 2293.64917 2330.70459
2345.0 0.000426 2293.34302 2327.41577
2330.0 0.000429 2293.03906 2324.68750
2308.0 0.000433 2292.73730 2322.37524
2343.0 0.000427 2292.43799 2320.39038
2363.0 0.000423 2292.14063 2318.67285
2377.0 0.000421 2291.84521 2318.05933
2361.0 0.000424 2291.55200 2316.77393
2360.0 0.000424 2291.26074 2315.65015
2267.0 0.000441 2290.97144 2314.66626
2274.0 0.000440 2290.68384 2313.80518
2314.0 0.000432 2290.39795 2313.05151
2206.0 0.000453 2290.11401 2312.39453
2229.0 0.000449 2289.83154 2311.82471
2429.0 0.000412 2289.55029 2311.33325
2393.0 0.000418 2289.27075 2310.91528
2378.0 0.000421 2288.99292 2310.56421
2360.0 0.000424 2288.71606 2310.27686
2402.0 0.000416 2288.44067 2310.04883
2469.0 0.000405 2288.16626 2309.87842
2386.0 0.000419 2287.89331 2309.76294
2399.0 0.000417 2287.62134 2309.70166
2381.0 0.000420 2287.35059 2309.69360
2359.0 0.000424 2287.08057 2309.73779
2362.0 0.000423 2286.81128 2309.83447
2375.0 0.000421 2286.54297 2309.98511
2342.0 0.000427 2286.27539 2310.18970
2327.0 0.000430 2286.00879 2310.45020
2285.0 0.000438 2285.74243 2310.76782
2326.0 0.000430 2285.47681 2311.14502
2360.0 0.000424 2285.21167 2311.58447
2289.0 0.000437 2284.94678 2312.09009
2407.0 0.000415 2284.68262 2312.66504
2351.0 0.000425 2284.41846 2313.31372
2315.0 0.000432 2284.15479 2314.04150
2282.0 0.000438 2283.89111 2314.85352
2293.0 0.000436 2283.62769 2315.75684
2378.0 0.000421 2283.36426 2316.75903
2345.0 0.000426 2283.10083 2317.86816
2324.0 0.000430 2282.83740 2319.09399
2287.0 0.000437 2282.57373 2320.44727
2374.0 0.000421 2282.30981 2321.94116
2319.0 0.000431 2282.04565 2323.58936
2384.0 0.000419 2281.78125 2325.40820
2341.0 0.000427 2281.51660 2327.41675
2330.0 0.000429 2281.25146 2329.63647
2421.0 0.000413 2280.98560 2332.09253
2372.0 0.000422 2280.71948 2334.81274
2343.0 0.000427 2280.45264 2337.83179
2345.0 0.000426 2280.18506 2341.18848
2492.0 0.000401 2279.91675 2344.92871
2426.0 0.000412 2279.64771 2349.10693
2350.0 0.000426 2279.37769 2353.78711
2367.0 0.000422 2279.10693 2359.04517
2359.0 0.000424 2278.83496 2364.97437
2393.0 0.000418 2278.56226 2371.68408
2397.0 0.000417 2278.28833 2379.30957
2412.0 0.000415 2278.01318 2388.01611
2396.0 0.000417 2277.73706 2398.00586
2498.0 0.000400 2277.45947 2409.53247
2343.0 0.000427 2277.18066 2422.91504
2388.0 0.000419 2276.90039 2438.55713
2339.0 0.000428 2276.61890 2456.98022
2453.0 0.000408 2276.33594 2478.86597
2471.0 0.000405 2276.05127 2503.94165
2524.0 0.000396 2275.76538 2535.95557
2561.0 0.000390 2275.47754 2575.78589
2690.0 0.000372 2275.18823 2627.19653
2665.0 0.000375 2274.89697 2697.52490
2825.0 0.000354 2274.60400 2801.30859
2890.0 0.0003460 2274.30933 2965.81006
3261.0 0.0003067 2274.01270 3236.89453
3687.0 0.0002712 2273.71411 3680.48682
4314.0 0.0002318 2273.41357 4373.39551
5380.0 0.0001859 2273.11108 5375.65381
6849.0 0.0001460 2272.80640 6689.15234
8513.0 0.0001175 2272.49976 8207.42578
10005.0 0.0001000 2272.19067 9662.81543
10962.0 0.0000912 2271.87964 10613.95215
10899.0 0.0000918 2271.56616 10641.27930
10022.0 0.0000998 2271.25049 9735.33203
8360.0 0.0001196 2270.93262 8313.69922
6704.0 0.0001492 2270.61206 6831.94336
5526.0 0.0001810 2270.28931 5573.02295
4659.0 0.0002146 2269.96387 4657.00977
4164.0 0.0002402 2269.63599 4090.94629
3775.0 0.0002649 2269.30566 3813.47485
3662.0 0.0002731 2268.97266 3730.81250
3620.0 0.0002762 2268.63696 3737.67651
3671.0 0.0002724 2268.29883 3729.43799
3647.0 0.0002742 2267.95752 3633.18896
3403.0 0.0002939 2267.61377 3447.01758
3136.0 0.0003189 2267.26709 3220.44580
2842.0 0.000352 2266.91748 3001.84497
2825.0 0.000354 2266.56543 2818.32642
2582.0 0.000387 2266.21021 2678.79272
2493.0 0.000401 2265.85181 2580.26929
2391.0 0.000418 2265.49097 2513.83081
2397.0 0.000417 2265.12671 2469.46240
2385.0 0.000419 2264.75928 2438.94116
2323.0 0.000430 2264.38916 2416.69897
2338.0 0.000428 2264.01563 2399.43701
2349.0 0.000426 2263.63892 2385.35571
2318.0 0.000431 2263.25928 2373.48853
2347.0 0.000426 2262.87646 2363.28589
2215.0 0.000451 2262.49023 2354.40137
2272.0 0.000440 2262.10083 2346.59180
2367.0 0.000422 2261.70801 2339.67358
2166.0 0.000462 2261.31201 2333.50342
2332.0 0.000429 2260.91260 2327.96680
2279.0 0.000439 2260.50977 2322.97046
2281.0 0.000438 2260.10352 2318.43848
2299.0 0.000435 2259.69409 2314.30762
2331.0 0.000429 2259.28101 2310.52612
2333.0 0.000429 2258.86450 2307.04907
2333.0 0.000429 2258.44434 2303.83936
2340.0 0.000427 2258.02075 2300.86572
2264.0 0.000442 2257.59375 2298.10034
2322.0 0.000431 2257.16309 2295.52051
2377.0 0.000421 2256.72876 2293.10620
2482.0 0.000403 2256.29102 2290.83960
2390.0 0.000418 2255.84937 2288.70532
2530.0 0.000395 2255.40430 2286.69019
2440.0 0.000410 2254.95557 2284.78271
2400.0 0.000417 2254.50293 2282.97168
2304.0 0.000434 2254.04688 2281.24854
2307.0 0.000433 2253.58691 2279.60547
2296.0 0.000436 2253.12329 2278.03467
2302.0 0.000434 2252.65625 2276.52979
2227.0 0.000449 2252.18506 2275.08545
2214.0 0.000452 2251.71021 2273.69580
2218.0 0.000451 2251.23145 2272.35645
2275.0 0.000440 2250.74902 2271.06299
2266.0 0.000441 2250.26294 2269.81226
2253.0 0.000444 2249.77271 2268.60010
2280.0 0.000439 2249.27905 2267.42358
2241.0 0.000446 2248.78125 2266.27979
2241.0 0.000446 2248.27979 2265.32056
2250.0 0.000444 2247.77441 2264.23901
2191.0 0.000456 2247.26514 2263.18286
2257.0 0.000443 2246.75195 2262.15063
2195.0 0.000456 2246.23511 2261.14063
2233.0 0.000448 2245.71436 2260.15112
2203.0 0.000454 2245.18945 2259.17969
2182.0 0.000458 2244.66089 2258.22607
2120.0 0.000472 2244.12866 2257.45581
2230.0 0.000448 2243.59204 2256.53760
2178.0 0.000459 2243.05200 2255.63330
2213.0 0.000452 2242.50781 2254.74121
2165.0 0.000462 2241.95972 2253.86230
2158.0 0.000463 2241.40796 2252.99365
2130.0 0.000469 2240.85205 2252.13623
2120.0 0.000472 2240.29248 2251.28760
2219.0 0.000451 2239.72900 2250.44849
2119.0 0.000472 2239.16162 2249.61719
2189.0 0.000457 2238.59033 2248.79370
2187.0 0.000457 2238.01514 2247.97778
2241.0 0.000446 2237.43604 2247.16821
2156.0 0.000464 2236.85303 2246.36475
2212.0 0.000452 2236.26636 2245.56738
2236.0 0.000447 2235.67578 2244.77539
2162.0 0.000463 2235.08130 2243.98828
2202.0 0.000454 2234.48315 2236.21997
2225.0 0.000449 2233.88110 2235.60620
2239.0 0.000447 2233.27515 2234.99048
2224.0 0.000450 2232.66553 2234.37378
2281.0 0.000438 2232.05200 2233.75513
2289.0 0.000437 2231.43481 2233.13501
2335.0 0.000428 2230.81372 2232.51343
2214.0 0.000452 2230.18896 2231.89063
2207.0 0.000453 2229.56055 2231.26636
2130.0 0.000469 2228.92822 2230.64087
2183.0 0.000458 2228.29224 2229.11938
2263.0 0.000442 2227.65259 2228.51294
2159.0 0.000463 2227.00928 2227.90479
2150.0 0.000465 2226.36230 2227.29517
2164.0 0.000462 2225.71167 2226.68408
2240.0 0.000446 2225.05737 2226.07202
2219.0 0.000451 2224.39941 2225.45972
2249.0 0.000445 2223.73804 2224.84644
2188.0 0.000457 2223.07275 2224.23291
2138.0 0.000468 2222.40430 2223.61987
2175.0 0.000460 2221.73218 2223.00732
2236.0 0.000447 2221.05640 2222.39551
2297.0 0.000435 2220.37720 2221.78540
2261.0 0.000442 2219.69458 2221.17749
2215.0 0.000451 2219.00830 2220.57178
2277.0 0.000439 2218.31909 2219.96997
2417.0 0.000414 2217.62598 2219.37207
2308.0 0.000433 2216.92969 2218.77954
2445.0 0.000409 2216.23022 2224.92163
2530.0 0.000395 2215.52710 2224.50659
2541.0 0.000394 2214.82056 2224.10620
2645.0 0.000378 2214.11133 2223.72290
2762.0 0.000362 2213.39819 2223.35889
2615.0 0.000382 2212.68237 2223.01709
2695.0 0.000371 2211.96313 2222.70020
2690.0 0.000372 2211.24072 2222.41235
2446.0 0.000409 2210.51514 2222.15820
2409.0 0.000415 2209.78638 2221.94238
2394.0 0.000418 2209.05444 2221.77197
2345.0 0.000426 2208.31982 2221.65552
2361.0 0.000424 2207.58203 2221.60205
2321.0 0.000431 2206.84131 2221.62451
2227.0 0.000449 2206.09741 2221.73828
2197.0 0.000455 2205.35059 2221.96411
2230.0 0.000448 2204.60107 2222.33057
2283.0 0.000438 2203.84863 2222.87817
2212.0 0.000452 2203.09326 2223.67358
2188.0 0.000457 2202.33521 2224.83765
2172.0 0.000460 2201.57422 2226.60132
2199.0 0.000455 2200.81079 2229.39868
2175.0 0.000460 2200.04443 2233.98633
2173.0 0.000460 2199.27563 2241.52417
2203.0 0.000454 2198.50391 2253.50366
2223.0 0.000450 2197.72974 2271.39453
2200.0 0.000455 2196.95313 2295.97363
2220.0 0.000450 2196.17383 2326.44971
2321.0 0.000431 2195.39209 2359.47583
2407.0 0.000415 2194.60791 2388.29175
2331.0 0.000429 2193.82153 2404.12109
2329.0 0.000429 2193.03271 2403.05493
2402.0 0.000416 2192.24121 2391.54858
2301.0 0.000435 2191.44775 2380.73071
2272.0 0.000440 2190.65186 2378.45923
2323.0 0.000430 2189.85400 2386.84888
2314.0 0.000432 2189.05371 2402.08740
2331.0 0.000429 2188.25146 2414.70508
2293.0 0.000436 2187.44727 2413.22974
2366.0 0.000423 2186.64087 2393.20728
2206.0 0.000453 2185.83228 2360.94434
2260.0 0.000442 2185.02197 2325.97925
2236.0 0.000447 2184.20947 2294.81714
2216.0 0.000451 2183.39526 2270.38452
2238.0 0.000447 2182.57910 2253.09668
2094.0 0.000478 2181.76147 2241.90479
2097.0 0.000477 2180.94165 2235.19580
2256.0 0.000443 2180.12061 2231.44604
2172.0 0.000460 2179.29761 2229.52759
2170.0 0.000461 2178.47290 2228.73706
2205.0 0.000454 2177.64673 2228.68994
2225.0 0.000449 2176.81885 2229.19751
2249.0 0.000445 2175.98950 2230.17651
2209.0 0.000453 2175.15869 2231.59668
2250.0 0.000444 2174.32666 2233.45605
2203.0 0.000454 2173.49316 2235.77124
2220.0 0.000450 2172.65820 2238.57324
2200.0 0.000455 2171.82227 2241.90796
2248.0 0.000445 2170.98486 2245.83496
2264.0 0.000442 2170.14624 2250.43188
2155.0 0.000464 2169.30664 2255.79565
2283.0 0.000438 2168.46582 2262.04663
2229.0 0.000449 2167.62378 2269.33594
2264.0 0.000442 2166.78125 2277.85107
2340.0 0.000427 2165.93726 2287.82837
2340.0 0.000427 2165.09253 2299.56543
2429.0 0.000412 2164.24683 2313.44238
2392.0 0.000418 2163.40039 2329.95044
2479.0 0.000403 2162.55322 2349.73535
2440.0 0.000410 2161.70532 2373.67578
2557.0 0.000391 2160.85669 2403.04248
2554.0 0.000392 2160.00732 2439.86572
2570.0 0.000389 2159.15771 2487.76563
2637.0 0.000379 2158.30713 2553.70752
2793.0 0.000358 2157.45605 2651.18164
2913.0 0.0003433 2156.60474 2804.83594
3109.0 0.0003216 2155.75293 3055.06006
3446.0 0.0002902 2154.90088 3458.58936
3972.0 0.0002518 2154.04834 4079.49243
4945.0 0.0002022 2153.19556 4966.60938
6096.0 0.0001640 2152.34277 6119.02393
7365.0 0.0001358 2151.48950 7444.15527
8671.0 0.0001153 2150.63623 8710.31250
9685.0 0.0001033 2149.78271 9557.45410
9631.0 0.0001038 2148.92944 9568.62500
8837.0 0.0001132 2148.07617 8761.28906
7209.0 0.0001387 2147.22266 7498.16699
5999.0 0.0001667 2146.36938 6169.08789
4949.0 0.0002021 2145.51636 5009.72217
3963.0 0.0002523 2144.66333 4115.09912
3472.0 0.0002880 2143.81079 3487.62085
3115.0 0.0003210 2142.95825 3079.06812
2944.0 0.0003397 2142.10620 2825.32031
2710.0 0.000369 2141.25464 2681.21631
2638.0 0.000379 2140.40332 2582.33301
2499.0 0.000400 2139.55249 2515.39063
2465.0 0.000406 2138.70215 2466.72095
2448.0 0.000408 2137.85278 2429.26904
2391.0 0.000418 2137.00342 2399.37500
2454.0 0.000407 2136.15503 2374.99341
2254.0 0.000444 2135.30713 2354.84521
2353.0 0.000425 2134.46021 2338.04883
2347.0 0.000426 2133.61401 2323.95825
2377.0 0.000421 2132.76855 2312.08130
2267.0 0.000441 2131.92407 2302.03955
2258.0 0.000443 2131.08057 2293.53467
2223.0 0.000450 2130.23779 2286.33374
2229.0 0.000449 2129.39624 2280.24902
2228.0 0.000449 2128.55566 2275.13184
2285.0 0.000438 2127.71606 2270.86230
2211.0 0.000452 2126.87769 2267.34351
2211.0 0.000452 2126.04053 2264.49683
2221.0 0.000450 2125.20459 2262.26050
2205.0 0.000454 2124.37012 2260.42944
2203.0 0.000454 2123.53687 2259.27637
2201.0 0.000454 2122.70459 2258.61182
2289.0 0.000437 2121.87402 2258.41284
2281.0 0.000438 2121.04492 2258.66235
2281.0 0.000438 2120.21729 2259.35034
2169.0 0.000461 2119.39111 2260.47119
2217.0 0.000451 2118.56641 2262.02441
2236.0 0.000447 2117.74341 2263.85010
2283.0 0.000438 2116.92236 2266.29150
2232.0 0.000448 2116.10254 2269.19263
2218.0 0.000451 2115.28467 2272.57324
2208.0 0.000453 2114.46851 2276.45728
2224.0 0.000450 2113.65405 2280.87329
2212.0 0.000452 2112.84180 2285.87354
2265.0 0.000442 2112.03125 2291.46753
2255.0 0.000443 2111.22241 2297.71948
2227.0 0.000449 2110.41602 2304.68701
2201.0 0.000454 2109.61133 2312.43652
2271.0 0.000440 2108.80859 2321.04517
2286.0 0.000437 2108.00806 2330.60229
2334.0 0.000428 2107.20947 2341.24829
2210.0 0.000452 2106.41333 2353.03369
2337.0 0.000428 2105.61914 2366.13525
2304.0 0.000434 2104.82715 2380.71973
2272.0 0.000440 2104.03784 2396.98340
2390.0 0.000418 2103.25049 2415.15674
2399.0 0.000417 2102.46558 2435.51440
2433.0 0.000411 2101.68311 2458.38525
2422.0 0.000413 2100.90283 2484.16284
2507.0 0.000399 2100.12500 2513.32446
2521.0 0.000397 2099.34985 2546.44897
2452.0 0.000408 2098.57715 2584.24927
2536.0 0.000394 2097.80688 2627.60498
2638.0 0.000379 2097.03931 2677.61621
2774.0 0.000360 2096.27441 2735.66797
2874.0 0.0003479 2095.51221 2803.53125
2979.0 0.0003357 2094.75244 2883.50366
3125.0 0.0003200 2093.99536 2978.65308
3110.0 0.0003215 2093.24121 3093.29248
3288.0 0.0003041 2092.48975 3234.02637
3444.0 0.0002904 2091.74121 3412.12891
3652.0 0.0002738 2090.99561 3648.63208
4091.0 0.0002444 2090.25269 3983.88916
4529.0 0.0002208 2089.51245 4492.38477
5277.0 0.0001895 2088.77539 5299.41113
6446.0 0.0001551 2088.04126 6588.63086
8381.0 0.0001193 2087.31006 8582.33887
11227.0 0.0000891 2086.58179 11478.12305
15044.0 0.0000665 2085.85669 15341.39941
20045.0 0.0000499 2085.13477 19968.12891
25111.0 0.0000398 2084.41553 24722.07813
28746.0 0.0000348 2083.69971 28406.20313
29703.0 0.0000337 2082.98706 29595.70898
27693.0 0.0000361 2082.27734 27793.56641
23616.0 0.0000423 2081.57104 24052.34570
19294.0 0.0000518 2080.86768 19917.51563
15836.0 0.0000631 2080.16772 16509.06250
13913.0 0.0000719 2079.47119 14393.66113
13698.0 0.0000730 2078.77783 13684.23438
14235.0 0.0000702 2078.08765 14152.85352
15458.0 0.0000647 2077.40112 15266.05566
16614.0 0.0000602 2076.71753 16226.04199
16207.0 0.0000617 2076.03760 16198.36816
14914.0 0.0000671 2075.36084 14877.00977
12566.0 0.0000796 2074.68774 12697.24707
9960.0 0.0001004 2074.01782 10310.97852
7899.0 0.0001266 2073.35156 8162.02051
6411.0 0.0001560 2072.68872 6447.72803
5107.0 0.0001958 2072.02930 5200.61035
4357.0 0.0002295 2071.37329 4354.69580
3841.0 0.0002603 2070.72095 3805.28857
3444.0 0.0002904 2070.07227 3451.32495
3148.0 0.0003177 2069.42700 3216.12915
3000.0 0.0003333 2068.78540 3050.30713
2867.0 0.0003488 2068.14746 2925.52124
2705.0 0.000370 2067.51294 2826.56274
2747.0 0.000364 2066.88208 2745.31030
2573.0 0.000389 2066.25488 2677.15063
2549.0 0.000392 2065.63135 2619.17700
2479.0 0.000403 2065.01147 2569.36743
2474.0 0.000404 2064.39526 2526.22217
2453.0 0.000408 2063.78271 2488.58740
2456.0 0.000407 2063.17407 2455.55591
2402.0 0.000416 2062.56909 2426.40747
2393.0 0.000418 2061.96753 2400.56348
2389.0 0.000419 2061.37012 2377.56250
2371.0 0.000422 2060.77612 2357.03809
2330.0 0.000429 2060.18604 2338.71240
2276.0 0.000439 2059.59985 2322.39185
2306.0 0.000434 2059.01709 2307.96338
2282.0 0.000438 2058.43848 2295.37842
2276.0 0.000439 2057.86353 2284.61499
2328.0 0.000430 2057.29224 2275.61426
2297.0 0.000435 2056.72485 2268.20679
2190.0 0.000457 2056.16138 2262.02588
2209.0 0.000453 2055.60156 2256.43530
2284.0 0.000438 2055.04565 2250.66724
2253.0 0.000444 2054.49365 2244.47192
2254.0 0.000444 2053.94531 2238.57544
2211.0 0.000452 2053.40088 2234.04858
2260.0 0.000442 2052.86035 2231.47656
2219.0 0.000451 2052.32373 2230.61890
2215.0 0.000451 2051.79077 2230.27148
2185.0 0.000458 2051.26172 2228.35449
2152.0 0.000465 2050.73657 2223.05029
2096.0 0.000477 2050.21509 2214.51294
2187.0 0.000457 2049.69775 2204.56470
2179.0 0.000459 2049.18408 2194.97974
2166.0 0.000462 2048.67456 2186.76660
2170.0 0.000461 2048.16846 2180.29639
2141.0 0.000467 2047.66650 2175.53516
2140.0 0.000467 2047.16833 2172.23877
2203.0 0.000454 2046.67395 2170.10840
2231.0 0.000448 2046.18347 2168.89453
2170.0 0.000461 2045.69678 2168.43359
2203.0 0.000454 2045.21399 2168.64771
2271.0 0.000440 2044.73511 2169.62817
2223.0 0.000450 2044.26001 2171.19897
2195.0 0.000456 2043.78870 2173.52686
2332.0 0.000429 2043.32117 2176.70532
2362.0 0.000423 2042.85754 2180.86035
2321.0 0.000431 2042.39771 2186.15381
2429.0 0.000412 2041.94177 2192.79565
2352.0 0.000425 2041.48950 2201.05981
2382.0 0.000420 2041.04114 2211.30615
2433.0 0.000411 2040.59644 2224.02466
2351.0 0.000425 2040.15564 2239.91772
2307.0 0.000433 2039.71851 2260.09033
2370.0 0.000422 2039.28516 2286.82446
2410.0 0.000415 2038.85547 2323.04541
2417.0 0.000414 2038.42981 2375.98193
2532.0 0.000395 2038.00757 2458.05249
2592.0 0.000386 2037.58923 2589.50513
2890.0 0.0003460 2037.17468 2798.89697
3292.0 0.0003038 2036.76367 3119.08398
3796.0 0.0002634 2036.35632 3551.91675
4441.0 0.0002252 2035.95264 4151.56885
5213.0 0.0001918 2035.55286 4853.10107
6019.0 0.0001661 2035.15649 5548.34521
6529.0 0.0001532 2034.76379 6045.32813
6471.0 0.0001545 2034.37488 6138.48730
5928.0 0.0001687 2033.98938 5790.49268
5181.0 0.0001930 2033.60754 5179.24414
4775.0 0.0002094 2033.22937 4525.81348
4131.0 0.0002421 2032.85474 3975.27417
3881.0 0.0002577 2032.48352 3580.79956
3792.0 0.0002637 2032.11584 3372.88623
3681.0 0.0002717 2031.75171 3304.44482
3725.0 0.0002685 2031.39124 3310.72021
3654.0 0.0002737 2031.03418 3309.52441
3534.0 0.0002830 2030.68054 3234.18091
3180.0 0.0003145 2030.33032 3077.04053
3019.0 0.0003312 2029.98352 2879.67114
2730.0 0.000366 2029.64014 2685.67432
2621.0 0.000382 2029.30017 2520.13672
2419.0 0.000413 2028.96362 2392.06665
2269.0 0.000441 2028.63037 2300.10522
2231.0 0.000448 2028.30042 2237.39404
2287.0 0.000437 2027.97388 2195.54834
2141.0 0.000467 2027.65063 2167.23682
2153.0 0.000464 2027.33069 2147.19995
2087.0 0.000479 2027.01379 2132.15698
2122.0 0.000471 2026.70032 2120.23975
2084.0 0.000480 2026.38989 2110.42773
2186.0 0.000457 2026.08276 2102.14673
2116.0 0.000473 2025.77869 2095.04663
2072.0 0.000483 2025.47803 2088.89355
2122.0 0.000471 2025.18030 2083.51587
2093.0 0.000478 2024.88562 2078.78149
2058.0 0.000486 2024.59399 2074.58789
2035.0 0.000491 2024.30542 2070.85181
2098.0 0.000477 2024.01990 2067.50732
2144.0 0.000466 2023.73755 2064.49902
2113.0 0.000473 2023.45789 2061.78320
2130.0 0.000469 2023.18140 2059.32202
2125.0 0.000471 2022.90784 2057.08472
2115.0 0.000473 2022.63696 2055.04492
2077.0 0.000481 2022.36914 2053.18091
2077.0 0.000481 2022.10400 2051.47461
2062.0 0.000485 2021.84180 2049.89355
2028.0 0.000493 2021.58240 2048.45728
2028.0 0.000493 2021.32568 2047.13757
2027.0 0.000493 2021.07178 2045.92554
1947.0 0.000514 2020.82068 2044.81299
1945.0 0.000514 2020.57214 2043.79272
1991.0 0.000502 2020.32617 2042.85950
2063.0 0.000485 2020.08301 2041.97205
2035.0 0.000491 2019.84229 2041.20142
1940.0 0.000515 2019.60425 2040.50732
1976.0 0.000506 2019.36877 2039.88843
1988.0 0.000503 2019.13574 2039.34436
1968.0 0.000508 2018.90540 2038.87549
2004.0 0.000499 2018.67725 2038.48340
1999.0 0.000500 2018.45166 2038.17188
2065.0 0.000484 2018.22839 2037.94482
1975.0 0.000506 2018.00757 2037.80908
1996.0 0.000501 2017.78906 2037.77332
2001.0 0.000500 2017.57288 2037.84912
2035.0 0.000491 2017.35889 2038.05237
2037.0 0.000491 2017.14722 2038.40405
1997.0 0.000501 2016.93774 2039.68530
2028.0 0.000493 2016.73059 2040.45544
1980.0 0.000505 2016.52551 2041.52722
2059.0 0.000486 2016.32251 2043.04077
2032.0 0.000492 2016.12170 2045.25452
2046.0 0.000489 2015.92285 2048.62256
2043.0 0.000489 2015.72620 2053.87720
2090.0 0.000478 2015.53137 2062.03979
2091.0 0.000478 2015.33862 2074.28174
2054.0 0.000487 2015.14771 2091.56519
2015.0 0.000496 2014.95886 2114.07495
2145.0 0.000466 2014.77185 2140.50146
2123.0 0.000471 2014.58655 2167.15674
2131.0 0.000469 2014.40320 2187.41040
2182.0 0.000458 2014.22168 2194.13013
2116.0 0.000473 2014.04187 2186.19434
2107.0 0.000475 2013.86365 2170.49463
2184.0 0.000458 2013.68726 2156.18188
2142.0 0.000467 2013.51257 2150.65796
2186.0 0.000457 2013.33936 2162.11890
2193.0 0.000456 2013.16772 2189.62549
2267.0 0.000441 2012.99780 2238.08618
2298.0 0.000435 2012.82935 2306.76538
2360.0 0.000424 2012.66235 2386.03003
2415.0 0.000414 2012.49683 2470.41064
2636.0 0.000379 2012.33264 2533.46802
2535.0 0.000394 2012.16992 2552.96582
2417.0 0.000414 2012.00867 2528.06689
2457.0 0.000407 2011.84863 2482.02197
2444.0 0.000409 2011.68994 2440.14453
2330.0 0.000429 2011.53259 2415.50635
2363.0 0.000423 2011.37622 2407.50098
2358.0 0.000424 2011.22131 2403.58423
2262.0 0.000442 2011.06750 2385.03394
2294.0 0.000436 2010.91479 2345.29395
2374.0 0.000421 2010.76331 2290.22949
2243.0 0.000446 2010.61267 2231.75781
2062.0 0.000485 2010.46326 2178.62061
2084.0 0.000480 2010.31470 2135.31079
2130.0 0.000469 2010.16724 2102.88989
2013.0 0.000497 2010.02063 2080.16113
2096.0 0.000477 2009.87512 2064.90405
1998.0 0.000501 2009.73022 2054.82056
1975.0 0.000506 2009.58630 2048.05151
2069.0 0.000483 2009.44324 2043.31677
2044.0 0.000489 2009.30090 2039.82605
2011.0 0.000497 2009.15918 2037.12659
2089.0 0.000479 2009.01831 2034.96631
2083.0 0.000480 2008.87817 2033.19995
2025.0 0.000494 2008.73865 2031.73828
1993.0 0.000502 2008.59973 2030.52197
1969.0 0.000508 2008.46130 2029.50818
2009.0 0.000498 2008.32361 2028.66479
1973.0 0.000507 2008.18628 2027.96716
1997.0 0.000501 2008.04944 2027.39600
1954.0 0.000512 2007.91321 2026.93640
1980.0 0.000505 2007.77734 2026.57642
1924.0 0.000520 2007.64185 2026.30701
1955.0 0.000512 2007.50671 2026.12109
1968.0 0.000508 2007.37195 2026.01318
1921.0 0.000521 2007.23743 2025.97974
1962.0 0.000510 2007.10327 2026.01819
2022.0 0.000495 2006.96936 2026.12720
2001.0 0.000500 2006.83557 2026.30664
2038.0 0.000491 2006.70203 2026.55688
2006.0 0.000499 2006.56860 2026.88025
1987.0 0.000503 2006.43530 2027.27893
1971.0 0.000507 2006.30212 2027.75745
2041.0 0.000490 2006.16895 2028.32031
1994.0 0.000502 2006.03589 2028.97437
1988.0 0.000503 2005.90283 2029.72668
1919.0 0.000521 2005.76965 2030.58728
1937.0 0.000516 2005.63647 2031.56763
1951.0 0.000513 2005.50317 2032.68127
1965.0 0.000509 2005.36987 2033.94495
1941.0 0.000515 2005.23633 2035.37866
2033.0 0.000492 2005.10266 2037.00708
1930.0 0.000518 2004.96887 2038.85962
2023.0 0.000494 2004.83459 2040.97290
2073.0 0.000482 2004.70032 2043.39258
2015.0 0.000496 2004.56567 2046.17493
1917.0 0.000522 2004.43066 2049.39136
2025.0 0.000494 2004.29541 2053.13306
2006.0 0.000499 2004.15979 2057.57861
2003.0 0.000499 2004.02380 2062.78003
2069.0 0.000483 2003.88721 2069.03955
2013.0 0.000497 2003.75037 2076.76196
1995.0 0.000501 2003.61292 2086.67114
2091.0 0.000478 2003.47510 2100.11475
2082.0 0.000480 2003.33667 2119.53540
2165.0 0.000462 2003.19763 2149.02808
2245.0 0.000445 2003.05823 2194.66821
2347.0 0.000426 2002.91797 2264.05811
2446.0 0.000409 2002.77734 2364.54956
2489.0 0.000402 2002.63599 2499.99121
2642.0 0.000379 2002.49377 2666.30859
2879.0 0.0003473 2002.35095 2845.89624
2971.0 0.0003366 2002.20752 3001.32056
3106.0 0.0003220 2002.06335 3079.23486
3033.0 0.0003297 2001.91833 3045.23901
2851.0 0.000351 2001.77246 2920.18530
2710.0 0.000369 2001.62585 2757.75879
2648.0 0.000378 2001.47827 2601.54810
2448.0 0.000408 2001.32996 2475.03662
2490.0 0.000402 2001.18079 2387.35083
2323.0 0.000430 2001.03064 2336.27100
2296.0 0.000436 2000.87952 2318.91528
2217.0 0.000451 2000.72754 2333.06152
2345.0 0.000426 2000.57471 2381.97412
2456.0 0.000407 2000.42065 2476.96777
2643.0 0.000378 2000.26563 2637.71216
2827.0 0.000354 2000.10962 2888.88647
3248.0 0.0003079 1999.95251 3251.91797
3644.0 0.0002744 1999.79431 3732.66089
4429.0 0.0002258 1999.63513 4304.48975
5080.0 0.0001969 1999.47473 4887.94580
5512.0 0.0001814 1999.31323 5332.88086
5530.0 0.0001808 1999.15063 5459.43994
5300.0 0.0001887 1998.98682 5202.63770
4693.0 0.0002131 1998.82166 4684.38037
3984.0 0.0002510 1998.65540 4086.57959
3486.0 0.0002869 1998.48804 3534.82593
3029.0 0.0003301 1998.31934 3087.47754
2729.0 0.000366 1998.14929 2757.55249
2543.0 0.000393 1997.97815 2531.36768
2413.0 0.000414 1997.80554 2384.63867
2277.0 0.000439 1997.63171 2291.45337
2204.0 0.000454 1997.45654 2231.45142
2212.0 0.000452 1997.28003 2190.95142
2151.0 0.000465 1997.10217 2161.82275
2090.0 0.000478 1996.92285 2139.60181
2143.0 0.000467 1996.74231 2121.69824
2078.0 0.000481 1996.56018 2107.21484
1968.0 0.000508 1996.37671 2095.13232
2087.0 0.000479 1996.19189 2084.94995
2069.0 0.000483 1996.00549 2076.27954
2030.0 0.000493 1995.81775 2068.82690
2066.0 0.000484 1995.62842 2062.37646
2097.0 0.000477 1995.43762 2056.75562
2025.0 0.000494 1995.24536 2051.82764
2084.0 0.000480 1995.05151 2047.48267
1943.0 0.000515 1994.85632 2043.63220
2010.0 0.000498 1994.65942 2040.23010
1931.0 0.000518 1994.46094 2037.16577
2013.0 0.000497 1994.26111 2034.41492
1922.0 0.000520 1994.05957 2031.93774
1938.0 0.000516 1993.85645 2029.69983
2109.0 0.000474 1993.65173 2027.67322
1976.0 0.000506 1993.44543 2025.83350
2081.0 0.000481 1993.23755 2024.16077
1949.0 0.000513 1993.02808 2022.63745
2034.0 0.000492 1992.81702 2021.24915
2041.0 0.000490 1992.60425 2019.98401
2080.0 0.000481 1992.38977 2018.83081
1974.0 0.000507 1992.17371 2017.78210
2053.0 0.000487 1991.95593 2016.82935
2079.0 0.000481 1991.73657 2015.96814
1977.0 0.000506 1991.51538 2015.19250
2049.0 0.000488 1991.29272 2014.50000
2015.0 0.000496 1991.06824 2013.88831
2113.0 0.000473 1990.84216 2013.35596
2039.0 0.000490 1990.61426 2012.90308
2021.0 0.000495 1990.38477 2012.53149
2022.0 0.000495 1990.15356 2012.24341
2049.0 0.000488 1989.92053 2012.04419
2032.0 0.000492 1989.68579 2011.94019
2012.0 0.000497 1989.44946 2011.94177
1986.0 0.000504 1989.21130 2012.06238
2059.0 0.000486 1988.97144 2012.32397
2072.0 0.000483 1988.72974 2012.76147
1994.0 0.000502 1988.48633 2013.43750
2047.0 0.000489 1988.24121 2014.46509
2031.0 0.000492 1987.99438 2016.04321
2087.0 0.000479 1987.74573 2018.49609
2167.0 0.000461 1987.49536 2022.28979
2075.0 0.000482 1987.24329 2027.98792
2004.0 0.000499 1986.98938 2036.12036
2085.0 0.000480 1986.73376 2046.90552
2078.0 0.000481 1986.47632 2059.98071
2137.0 0.000468 1986.21729 2073.94629
2117.0 0.000472 1985.95630 2085.92456
2055.0 0.000487 1985.69373 2092.03809
2098.0 0.000477 1985.42920 2090.18677
2042.0 0.000490 1985.16309 2082.36377
2045.0 0.000489 1984.89514 2072.58325
2127.0 0.000470 1984.62549 2063.97632
2022.0 0.000495 1984.35388 2058.21436
2106.0 0.000475 1984.08069 2055.97729
2131.0 0.000469 1983.80579 2057.44360
2096.0 0.000477 1983.52905 2062.74146
1984.0 0.000504 1983.25049 2072.42480
2088.0 0.000479 1982.97034 2087.99902
2200.0 0.000455 1982.68835 2112.47925
2222.0 0.000450 1982.40466 2150.89600
2295.0 0.000436 1982.11926 2210.43481
2286.0 0.000437 1981.83215 2299.72437
2544.0 0.000393 1981.54321 2425.95532
2715.0 0.000368 1981.25256 2593.97803
2995.0 0.0003339 1980.96008 2796.04761
3150.0 0.0003175 1980.66614 3009.36255
3232.0 0.0003094 1980.37036 3194.55640
3361.0 0.0002975 1980.07288 3301.10327
3292.0 0.0003038 1979.77368 3284.24976
3115.0 0.0003210 1979.47278 3143.53711
2922.0 0.0003422 1979.17017 2931.55615
2788.0 0.000359 1978.86597 2708.76440
2622.0 0.000381 1978.56006 2512.51196
2345.0 0.000426 1978.25244 2357.84204
2259.0 0.000443 1977.94324 2245.73315
2180.0 0.000459 1977.63220 2169.59546
2108.0 0.000474 1977.31958 2120.08911
2049.0 0.000488 1977.00537 2088.39526
2078.0 0.000481 1976.68958 2067.81152
2006.0 0.000499 1976.37195 2053.99829
2006.0 0.000499 1976.05286 2044.51648
1959.0 0.000510 1975.73218 2035.60095
1981.0 0.000505 1975.40991 2031.99561
2002.0 0.000500 1975.08594 2030.89795
1977.0 0.000506 1974.76050 2032.12854
2079.0 0.000481 1974.43347 2035.22693
2031.0 0.000492 1974.10474 2039.16077
2037.0 0.000491 1973.77454 2042.06299
2037.0 0.000491 1973.44275 2041.59973
2053.0 0.000487 1973.10950 2036.67102
2095.0 0.000477 1972.77466 2028.54700
2052.0 0.000487 1972.43848 2019.48438
1993.0 0.000502 1972.10059 2011.14392
1978.0 0.000506 1971.76123 2004.35278
1994.0 0.000502 1971.42041 1999.35925
1990.0 0.000503 1971.07813 1996.06628
1995.0 0.000501 1970.73438 1994.19800
1960.0 0.000510 1970.38916 1993.42065
2073.0 0.000482 1970.04248 1993.40002
2052.0 0.000487 1969.69446 1993.83545
1991.0 0.000502 1969.34497 1994.60315
2062.0 0.000485 1968.99402 1995.92200
2063.0 0.000485 1968.64185 1998.16309
2050.0 0.000488 1968.28809 2001.44043
1972.0 0.000507 1967.93311 2005.32227
1932.0 0.000518 1967.57666 2008.64209
2105.0 0.000475 1967.21899 2009.65918
1944.0 0.000514 1966.85999 2007.21399
2020.0 0.000495 1966.49963 2001.91760
2054.0 0.000487 1966.13794 1995.44287
2116.0 0.000473 1965.77502 1989.16541
2048.0 0.000488 1965.41077 1994.44299
1989.0 0.000503 1965.04529 1990.43445
2005.0 0.000499 1964.67847 1987.50562
2073.0 0.000482 1964.31055 1985.44592
2021.0 0.000495 1963.94141 1984.00781
2068.0 0.000484 1963.57104 1982.97839
2023.0 0.000494 1963.19946 1982.20459
1933.0 0.000517 1962.82666 1981.59045
2030.0 0.000493 1962.45276 1981.08118
2020.0 0.000495 1962.07776 1980.64661
2045.0 0.000489 1961.70154 1980.27051
2047.0 0.000489 1961.32422 1979.94421
1924.0 0.000520 1960.94580 1979.66113
1982.0 0.000505 1960.56641 1979.41833
1967.0 0.000508 1960.18579 1979.21399
1972.0 0.000507 1959.80420 1979.04773
1985.0 0.000504 1959.42151 1978.92090
2023.0 0.000494 1959.03784 1997.03247
2004.0 0.000499 1958.65308 1997.37744
1945.0 0.000514 1958.26746 1997.80542
2016.0 0.000496 1957.88074 1998.34937
1996.0 0.000501 1957.49316 1999.06079
2012.0 0.000497 1957.10449 2000.01086
1999.0 0.000500 1956.71509 2001.28040
1984.0 0.000504 1956.32458 2002.93616
1975.0 0.000506 1955.93323 2004.99365
1972.0 0.000507 1955.54102 2007.36658
1984.0 0.000504 1955.14795 2009.80200
2031.0 0.000492 1954.75403 2011.82410
1966.0 0.000509 1954.35925 2012.87341
2069.0 0.000483 1953.96375 2012.76440
1979.0 0.000505 1953.56738 2011.89380
1991.0 0.000502 1953.17017 2010.83362
1950.0 0.000513 1952.77222 2009.97546
1983.0 0.000504 1952.37354 2009.44360
1993.0 0.000502 1951.97412 2009.39746
2044.0 0.000489 1951.57385 2009.74243
2028.0 0.000493 1951.17310 2010.40649
2009.0 0.000498 1950.77161 2011.31567
1959.0 0.000510 1950.36938 2012.41089
2027.0 0.000493 1949.96655 2013.65332
1958.0 0.000511 1949.56299 2015.02148
1988.0 0.000503 1949.15881 2016.50659
1984.0 0.000504 1948.75415 2018.10620
1988.0 0.000503 1948.34875 2019.82312
2003.0 0.000499 1947.94299 2021.66125
1953.0 0.000512 1947.53650 2023.62683
2012.0 0.000497 1947.12952 2025.72717
1939.0 0.000516 1946.72205 2027.97070
2028.0 0.000493 1946.31409 2030.36719
2063.0 0.000485 1945.90552 2032.98096
1989.0 0.000503 1945.49646 2035.71716
2036.0 0.000491 1945.08716 2038.45300
2060.0 0.000485 1944.67725 2041.58545
2054.0 0.000487 1944.26697 2044.93762
2032.0 0.000492 1943.85632 2047.64844
1974.0 0.000507 1943.44519 2051.51489
2055.0 0.000487 1943.03381 2055.66870
2033.0 0.000492 1942.62195 2060.12231
2010.0 0.000498 1942.20984 2064.91064
2031.0 0.000492 1941.79736 2070.06519
2022.0 0.000495 1941.38452 2075.62329
2053.0 0.000487 1940.97144 2081.62476
2104.0 0.000475 1940.55823 2088.11597
2125.0 0.000471 1940.14453 2095.14966
2087.0 0.000479 1939.73071 2102.78589
2080.0 0.000481 1939.31653 2111.09326
2098.0 0.000477 1938.90234 2120.15088
2157.0 0.000464 1938.48779 2130.05029
2167.0 0.000461 1938.07312 2140.89771
2139.0 0.000468 1937.65820 2152.81714
2158.0 0.000463 1937.24329 2165.95361
2146.0 0.000466 1936.82813 2180.47852
2206.0 0.000453 1936.41284 2196.59546
2183.0 0.000458 1935.99756 2214.54785
2252.0 0.000444 1935.58215 2234.59326
2317.0 0.000432 1935.16663 2257.15479
2322.0 0.000431 1934.75098 2282.63013
2471.0 0.000405 1934.33533 2311.55273
2468.0 0.000405 1933.91992 2345.72314
2508.0 0.000399 1933.50415 2383.72217
2637.0 0.000379 1933.08850 2427.72925
2629.0 0.000380 1932.67285 2479.12988
2634.0 0.000380 1932.25732 2539.79834
2698.0 0.000371 1931.84180 2612.43042
2707.0 0.000369 1931.42627 2701.25610
2952.0 0.0003388 1931.01074 2813.51587
2985.0 0.0003350 1930.59546 2962.30859
3116.0 0.0003209 1930.18042 3171.18164
3550.0 0.0002817 1929.76526 3480.18774
4068.0 0.0002458 1929.35022 3950.96313
4822.0 0.0002074 1928.93542 4665.93896
5863.0 0.0001706 1928.52075 5715.51709
7428.0 0.0001346 1928.10620 7169.45264
9211.0 0.0001086 1927.69189 9033.74414
11547.0 0.0000866 1927.27783 11193.15918
13262.0 0.0000754 1926.86401 13333.25977
14693.0 0.0000681 1926.45020 14885.46973
15212.0 0.0000657 1926.03687 15226.09668
14136.0 0.0000707 1925.62366 14213.40137
12419.0 0.0000805 1925.21069 12347.75684
10238.0 0.0000977 1924.79797 10273.79883
8610.0 0.0001161 1924.38574 8413.94238
7123.0 0.0001404 1923.97363 6961.23145
6364.0 0.0001571 1923.56201 5964.81934
5766.0 0.0001734 1923.15051 5400.46729
5373.0 0.0001861 1922.73938 5227.58252
5403.0 0.0001851 1922.32861 5434.43750
6045.0 0.0001654 1921.91821 6064.42822
7124.0 0.0001404 1921.50818 7215.93555
8639.0 0.0001158 1921.09863 9011.35156
11101.0 0.0000901 1920.68933 11536.36621
14357.0 0.0000697 1920.28064 14756.01758
18313.0 0.0000546 1919.87219 18406.21875
21612.0 0.0000463 1919.46423 21851.65234
23855.0 0.0000419 1919.05664 24037.68555
23523.0 0.0000425 1918.64954 23981.32617
21157.0 0.0000473 1918.24292 21692.23633
17769.0 0.0000563 1917.83679 18161.77539
14117.0 0.0000708 1917.43103 14437.18652
10976.0 0.0000911 1917.02588 11141.87207
8467.0 0.0001181 1916.62122 8528.49121
6723.0 0.0001487 1916.21692 6619.17773
5513.0 0.0001814 1915.81323 5309.82129
4635.0 0.0002157 1915.41016 4448.22705
4089.0 0.0002446 1915.00745 3888.21631
3716.0 0.0002691 1914.60547 3516.64648
3466.0 0.0002885 1914.20386 3258.10181
3258.0 0.0003069 1913.80286 3067.49438
3149.0 0.0003176 1913.40247 2919.58252
2897.0 0.0003452 1913.00269 2800.48682
2833.0 0.000353 1912.60339 2702.26001
2716.0 0.000368 1912.20483 2619.96411
2678.0 0.000373 1911.80664 2550.24365
2497.0 0.000400 1911.40918 2490.66284
2459.0 0.000407 1911.01245 2439.38037
2424.0 0.000413 1910.61621 2394.97925
2358.0 0.000424 1910.22058 2356.36523
2374.0 0.000421 1909.82581 2322.71216
2259.0 0.000443 1909.43152 2293.42993
2280.0 0.000439 1909.03784 2268.15942
2197.0 0.000455 1908.64478 2246.75903
2211.0 0.000452 1908.25244 2229.26270
2203.0 0.000454 1907.86084 2215.77661
2139.0 0.000468 1907.46973 2206.30273
2215.0 0.000451 1907.07947 2200.49683
2161.0 0.000463 1906.68994 2197.35156
2214.0 0.000452 1906.30103 2194.77563
2262.0 0.000442 1905.91272 2189.53540
2190.0 0.000457 1905.52515 2178.87109
2139.0 0.000468 1905.13831 2163.09473
2162.0 0.000463 1904.75220 2145.17041
2098.0 0.000477 1904.36670 2127.96094
2128.0 0.000470 1903.98206 2112.96680
2114.0 0.000473 1903.59827 2100.49341
2043.0 0.000489 1903.21497 2090.11230
2045.0 0.000489 1902.83240 2081.26685
2087.0 0.000479 1902.45068 2073.73706
2096.0 0.000477 1902.06958 2067.56250
2098.0 0.000477 1901.68933 2062.80103
2000.0 0.000500 1901.30969 2059.47974
2068.0 0.000484 1900.93091 2057.63330
2039.0 0.000490 1900.55286 2057.33813
2012.0 0.000497 1900.17554 2058.75708
1987.0 0.000503 1899.79907 2062.22510
2010.0 0.000498 1899.42322 2068.40918
2039.0 0.000490 1899.04822 2078.59961
2109.0 0.000474 1898.67383 2102.65308
2141.0 0.000467 1898.30042 2129.81567
2067.0 0.000484 1897.92761 2173.63379
2209.0 0.000453 1897.55566 2242.37769
2275.0 0.000440 1897.18445 2345.08032
2509.0 0.000399 1896.81396 2488.70605
2634.0 0.000380 1896.44446 2673.87695
2843.0 0.000352 1896.07544 2889.13159
3096.0 0.0003230 1895.70728 3102.93994
3204.0 0.0003121 1895.33997 3257.74048
3338.0 0.0002996 1894.97339 3289.17041
3086.0 0.0003240 1894.60754 3180.45068
2818.0 0.000355 1894.24255 2980.93799
2711.0 0.000369 1893.87830 2756.47925
2480.0 0.000403 1893.51477 2550.60522
2442.0 0.000410 1893.15198 2382.87866
2212.0 0.000452 1892.79004 2257.39404
2166.0 0.000462 1892.42896 2169.48096
2020.0 0.000495 1892.06836 2110.59424
1950.0 0.000513 1891.70886 2071.84033
2035.0 0.000491 1891.34985 2045.96021
1932.0 0.000518 1890.99182 2027.91248
2012.0 0.000497 1890.63428 2014.58374
1963.0 0.000509 1890.27783 2004.19568
1960.0 0.000510 1889.92188 1995.76563
1973.0 0.000507 1889.56689 1988.73804
1935.0 0.000517 1889.21265 1982.77515
1901.0 0.000526 1888.85901 1977.65320
1863.0 0.000537 1888.50623 1973.34485
1844.0 0.000542 1888.15405 1958.95203
1928.0 0.000519 1887.80286 1955.75281
1955.0 0.000512 1887.45215 1952.94299
1961.0 0.000510 1887.10242 1950.46558
1856.0 0.000539 1886.75342 1948.27429
1878.0 0.000532 1886.40491 1946.33228
1925.0 0.000519 1886.05737 1944.60986
1934.0 0.000517 1885.71045 1943.08240
1927.0 0.000519 1885.36438 1941.73047
2007.0 0.000498 1885.01880 1940.53760
1933.0 0.000517 1884.67407 1939.49084
1933.0 0.000517 1884.33008 1938.57971
1939.0 0.000516 1883.98682 1937.79492
1944.0 0.000514 1883.64417 1937.13000
1975.0 0.000506 1883.30225 1936.57959
1893.0 0.000528 1882.96106 1936.13989
1930.0 0.000518 1882.62048 1935.80774
1969.0 0.000508 1882.28076 1935.58191
1930.0 0.000518 1881.94153 1917.27429
1931.0 0.000518 1881.60315 1917.62280
1891.0 0.000529 1881.26526 1918.06738
1781.0 0.000561 1880.92822 1918.61060
1853.0 0.000540 1880.59192 1919.25610
1887.0 0.000530 1880.25598 1920.00806
1865.0 0.000536 1879.92090 1920.87207
1870.0 0.000535 1879.58630 1921.85437
2001.0 0.000500 1879.25256 1922.96265
1893.0 0.000528 1878.91931 1924.20532
1883.0 0.000531 1878.58679 1925.59314
1895.0 0.000528 1878.25488 1927.13733
1903.0 0.000525 1877.92358 1928.85083
1863.0 0.000537 1877.59290 1930.74963
1902.0 0.000526 1877.26270 1932.85107
1876.0 0.000533 1876.93323 1935.17517
1896.0 0.000527 1876.60425 1937.74475
1859.0 0.000538 1876.27612 1940.58716
1861.0 0.000537 1875.94824 1943.73193
1951.0 0.000513 1875.62122 1947.21570
1970.0 0.000508 1875.29468 1951.07861
1965.0 0.000509 1874.96851 1955.36865
1964.0 0.000509 1874.64319 1960.14172
1983.0 0.000504 1874.31824 1965.46350
1947.0 0.000514 1873.99402 1971.41101
1903.0 0.000525 1873.67004 1978.07581
1984.0 0.000504 1873.34692 1985.56750
1932.0 0.000518 1873.02405 1994.01685
1911.0 0.000523 1872.70190 2003.58118
1981.0 0.000505 1872.38025 2014.45276
1984.0 0.000504 1872.05896 2027.24011
2030.0 0.000493 1871.73828 2041.49133
2057.0 0.000486 1871.41809 2057.87793
2062.0 0.000485 1871.09839 2076.96265
2036.0 0.000491 1870.77917 2099.26172
2037.0 0.000491 1870.46033 2125.51636
2085.0 0.000480 1870.14221 2156.70557
2126.0 0.000470 1869.82422 2194.18286
2254.0 0.000444 1869.50696 2239.95483
2231.0 0.000448 1869.18982 2298.30298
2334.0 0.000428 1868.87341 2372.77515
2376.0 0.000421 1868.55725 2474.46167
2545.0 0.000393 1868.24158 2621.00708
2755.0 0.000363 1867.92627 2841.28247
2976.0 0.0003360 1867.61145 3177.73291
3492.0 0.0002864 1867.29712 3684.20410
4243.0 0.0002357 1866.98291 4415.89014
5288.0 0.0001891 1866.66931 5409.93652
6787.0 0.0001473 1866.35608 6657.44824
8313.0 0.0001203 1866.04321 8065.00439
9675.0 0.0001034 1865.73059 9401.31836
10469.0 0.0000955 1865.41833 10275.10449
10464.0 0.0000956 1865.10645 10309.02637
9459.0 0.0001057 1864.79504 9485.88770
8278.0 0.0001208 1864.48401 8167.94629
6718.0 0.0001489 1864.17297 6755.21338
5425.0 0.0001843 1863.86255 5491.14063
4410.0 0.0002268 1863.55237 4477.21533
3617.0 0.0002765 1863.24243 3727.00293
3122.0 0.0003203 1862.93286 3205.66138
2858.0 0.0003499 1862.62366 2858.54297
2703.0 0.000370 1862.31458 2630.12378
2525.0 0.000396 1862.00586 2479.25903
2543.0 0.000393 1861.69739 2374.99780
2344.0 0.000427 1861.38916 2299.01929
2362.0 0.000423 1861.08118 2240.85181
2299.0 0.000435 1860.77344 2194.67725
2319.0 0.000431 1860.46606 2157.19946
2283.0 0.000438 1860.15881 2126.46118
2249.0 0.000445 1859.85193 2101.27344
2334.0 0.000428 1859.54517 2080.98291
2275.0 0.000440 1859.23865 2065.38721
2191.0 0.000456 1858.93237 2054.69189
2186.0 0.000457 1858.62610 2049.39624
2169.0 0.000461 1858.32031 2050.05469
2174.0 0.000460 1858.01453 2056.88892
2114.0 0.000473 1857.70898 2069.25317
2175.0 0.000460 1857.40356 2084.90234
2187.0 0.000457 1857.09851 2099.03149
2119.0 0.000472 1856.79358 2104.32617
2065.0 0.000484 1856.48853 2094.97388
2161.0 0.000463 1856.18396 2072.27002
1970.0 0.000508 1855.87927 2043.09509
2078.0 0.000481 1855.57495 2013.88501
2077.0 0.000481 1855.27063 1988.22693
1967.0 0.000508 1854.96655 1967.45032
1974.0 0.000507 1854.66260 1951.53076
1861.0 0.000537 1854.35864 1939.72681
1926.0 0.000519 1854.05493 1931.04102
1861.0 0.000537 1853.75122 1924.53320
1851.0 0.000540 1853.44763 1919.47388
1870.0 0.000535 1853.14417 1915.36951
1991.0 0.000502 1852.84094 1911.91516
1925.0 0.000519 1852.53760 1908.93298
1859.0 0.000538 1852.23450 1906.31885
1906.0 0.000525 1851.93140 1904.00769
1911.0 0.000523 1851.62830 1901.99365
1876.0 0.000533 1851.32544 1900.17175
1854.0 0.000539 1851.02246 1898.55664
1908.0 0.000524 1850.71960 1897.13525
1902.0 0.000526 1850.41687 1895.89868
1886.0 0.000530 1850.11426 1894.84106
1939.0 0.000516 1849.81152 1893.95862
1852.0 0.000540 1849.50891 1893.25098
1896.0 0.000527 1849.20642 1892.72046
1905.0 0.000525 1848.90393 1892.37207
1906.0 0.000525 1848.60144 1892.22241
1827.0 0.000547 1848.29895 1892.26953
1861.0 0.000537 1847.99658 1892.53894
1893.0 0.000528 1847.69421 1893.05396
1930.0 0.000518 1847.39185 1893.84546
1967.0 0.000508 1847.08960 1894.95264
1947.0 0.000514 1846.78723 1896.42761
1881.0 0.000532 1846.48499 1898.33777
1948.0 0.000513 1846.18262 1900.77515
1830.0 0.000546 1845.88037 1903.88379
1894.0 0.000528 1845.57800 1907.84924
1889.0 0.000529 1845.27588 1913.02539
1981.0 0.000505 1844.97351 1919.99890
1942.0 0.000515 1844.67139 1929.75708
2006.0 0.000499 1844.36926 1943.85718
2010.0 0.000498 1844.06702 1964.51660
2067.0 0.000484 1843.76477 1994.47717
2083.0 0.000480 1843.46252 2036.50256
2147.0 0.000466 1843.16028 2092.48560
2215.0 0.000451 1842.85803 2162.21240
2259.0 0.000443 1842.55579 2241.67578
2369.0 0.000422 1842.25354 2320.82568
2414.0 0.000414 1841.95142 2383.58545
2504.0 0.000399 1841.64917 2418.02466
2480.0 0.000403 1841.34692 2432.32959
2426.0 0.000412 1841.04468 2452.12793
2525.0 0.000396 1840.74243 2502.01172
2654.0 0.000377 1840.44019 2594.55737
2620.0 0.000382 1840.13794 2727.43579
2783.0 0.000359 1839.83569 2878.86499
2954.0 0.0003385 1839.53357 3004.07617
3127.0 0.0003198 1839.23120 3044.58130
2897.0 0.0003452 1838.92908 2970.29688
2772.0 0.000361 1838.62671 2809.24854
2626.0 0.000381 1838.32458 2616.09863
2345.0 0.000426 1838.02234 2432.13892
2273.0 0.000440 1837.72009 2277.69897
2239.0 0.000447 1837.41797 2158.75903
2102.0 0.000476 1837.11584 2073.07056
1995.0 0.000501 1836.81372 2014.17383
1939.0 0.000516 1836.51147 1974.71411
1893.0 0.000528 1836.20935 1948.19177
1979.0 0.000505 1835.90723 1929.79932
1860.0 0.000538 1835.60522 1916.39941
1966.0 0.000509 1835.30310 1898.62671
1961.0 0.000510 1835.00122 1890.54407
1829.0 0.000547 1834.69910 1883.89539
1909.0 0.000524 1834.39734 1878.31506
1872.0 0.000534 1834.09546 1873.56384
1838.0 0.000544 1833.79370 1869.47473
1881.0 0.000532 1833.49194 1865.92249
1894.0 0.000528 1833.19019 1862.81201
1893.0 0.000528 1832.88867 1860.06824
1841.0 0.000543 1832.58704 1857.63110
1813.0 0.000552 1832.28564 1855.45276
1876.0 0.000533 1831.98425 1853.49451
1830.0 0.000546 1831.68286 1851.72498
1852.0 0.000540 1831.38171 1850.11780
1826.0 0.000548 1831.08069 1848.65137
1801.0 0.000555 1830.77966 1847.30823
1866.0 0.000536 1830.47876 1846.07336
1802.0 0.000555 1830.17798 1844.93420
1820.0 0.000549 1829.87732 1843.88086
1786.0 0.000560 1829.57678 1842.90430
1908.0 0.000524 1829.27649 1841.99695
1823.0 0.000549 1828.97620 1841.16748
1822.0 0.000549 1828.67615 1840.38306
1765.0 0.000567 1828.37622 1839.65332
1823.0 0.000549 1828.07642 1838.97620
1863.0 0.000537 1827.77686 1838.34937
1794.0 0.000557 1827.47754 1837.77246
1826.0 0.000548 1827.17822 1837.11072
1837.0 0.000544 1826.87927 1836.63892
1832.0 0.000546 1826.58057 1836.22266
1791.0 0.000558 1826.28186 1835.86914
1911.0 0.000523 1825.98364 1835.59082
1756.0 0.000569 1825.68542 1835.40857
1832.0 0.000546 1825.38757 1835.36377
1804.0 0.000554 1825.08997 1835.52527
1861.0 0.000537 1824.79260 1836.00952
1876.0 0.000533 1824.49561 1836.99011
1844.0 0.000542 1824.19873 1838.69495
1866.0 0.000536 1823.90234 1843.93274
1867.0 0.000536 1823.60608 1847.83020
1904.0 0.000525 1823.31018 1852.93164
1842.0 0.000543 1823.01453 1858.95703
1821.0 0.000549 1822.71948 1865.08960
1852.0 0.000540 1822.42456 1869.77124
1842.0 0.000543 1822.13000 1871.12451
1944.0 0.000514 1821.83594 1868.43799
1909.0 0.000524 1821.54211 1862.95227
1897.0 0.000527 1821.24878 1856.62305
1867.0 0.000536 1820.95581 1850.86060
1911.0 0.000523 1820.66333 1846.36389
1873.0 0.000534 1820.37109 1843.34314
1835.0 0.000545 1820.07947 1841.69946
1903.0 0.000525 1819.78821 1841.12744
1834.0 0.000545 1819.49744 1841.16797
1829.0 0.000547 1819.20715 1841.26038
1836.0 0.000545 1818.91736 1840.95984
1806.0 0.000554 1818.62817 1840.25146
1896.0 0.000527 1818.33936 1839.50464
1886.0 0.000530 1818.05115 1839.11499
1904.0 0.000525 1817.76343 1839.29810
1887.0 0.000530 1817.47632 1840.06323
1855.0 0.000539 1817.18982 1841.19690
1848.0 0.000541 1816.90369 1842.23828
1888.0 0.000530 1816.61841 1842.60864
1833.0 0.000546 1816.33362 1842.03650
1812.0 0.000552 1816.04956 1840.81885
1916.0 0.000522 1815.76587 1839.49390
1852.0 0.000540 1815.48315 1838.47375
1825.0 0.000548 1815.20093 1837.99170
1879.0 0.000532 1814.91943 1838.18115
1870.0 0.000535 1814.63879 1839.16028
1891.0 0.000529 1814.35864 1841.11926
1853.0 0.000540 1814.07935 1844.42090
1821.0 0.000549 1813.80066 1849.69519
1806.0 0.000554 1813.52295 1857.89771
1860.0 0.000538 1813.24585 1870.25208
1847.0 0.000541 1812.96973 1888.02490
1887.0 0.000530 1812.69421 1911.71948
1880.0 0.000532 1812.41968 1941.95581
1881.0 0.000532 1812.14600 1976.32312
1905.0 0.000525 1811.87292 2009.64917
1974.0 0.000507 1811.60107 2032.79041
1957.0 0.000511 1811.32983 2036.43420
1928.0 0.000519 1811.05957 2019.23755
1938.0 0.000516 1810.79028 1989.46912
1911.0 0.000523 1810.52197 1956.17041
1883.0 0.000531 1810.25464 1928.04102
1860.0 0.000538 1809.98816 1907.01453
1954.0 0.000512 1809.72278 1893.74573
1863.0 0.000537 1809.45825 1887.35864
1901.0 0.000526 1809.19495 1885.98669
1856.0 0.000539 1808.93262 1886.57373
1933.0 0.000517 1808.67139 1885.89075
1961.0 0.000510 1808.41113 1881.68713
1941.0 0.000515 1808.15210 1874.26392
1943.0 0.000515 1807.89417 1865.54773
1905.0 0.000525 1807.63721 1857.38770
1900.0 0.000526 1807.38159 1850.42627
1918.0 0.000521 1807.12695 1845.09241
1843.0 0.000543 1806.87378 1841.32825
1840.0 0.000543 1806.62158 1838.89209
1863.0 0.000537 1806.37061 1837.48486
1793.0 0.000558 1806.12097 1836.83154
1839.0 0.000544 1805.87256 1836.72485
1854.0 0.000539 1805.62549 1837.02808
1808.0 0.000553 1805.37964 1837.66406
1812.0 0.000552 1805.13513 1838.59814
1829.0 0.000547 1804.89185 1839.82483
1783.0 0.000561 1804.65002 1841.35925
1825.0 0.000548 1804.40955 1843.23828
1830.0 0.000546 1804.17053 1845.52185
1888.0 0.000530 1803.93286 1848.29907
1817.0 0.000550 1803.69666 1851.68982
1789.0 0.000559 1803.46191 1855.83606
1856.0 0.000539 1803.22852 1860.88562
1911.0 0.000523 1802.99670 1866.95935
1898.0 0.000527 1802.76636 1874.10815
1920.0 0.000521 1802.53760 1882.24609
1968.0 0.000508 1802.31018 1891.07031
1954.0 0.000512 1802.08459 1900.10938
1963.0 0.000509 1801.86047 1909.17139
1972.0 0.000507 1801.63794 1918.85950
1994.0 0.000502 1801.41699 1930.42017
1919.0 0.000521 1801.19763 1945.33362
2039.0 0.000490 1800.97998 1965.41333
2056.0 0.000486 1800.76404 1993.37329
1963.0 0.000509 1800.54980 2033.69348
2085.0 0.000480 1800.33716 2093.62427
2206.0 0.000453 1800.12646 2183.97949
2313.0 0.000432 1799.91736 2318.98438
2571.0 0.000389 1799.70996 2514.32446
2770.0 0.000361 1799.50452 2782.85620
3050.0 0.0003279 1799.30078 3127.97754
3453.0 0.0002896 1799.09888 3534.54199
3914.0 0.0002555 1798.89868 3953.73999
4323.0 0.0002313 1798.70068 4290.09717
4187.0 0.0002388 1798.50427 4420.00391
4079.0 0.0002452 1798.30994 4281.86279
3827.0 0.0002613 1798.11743 3940.62012
3430.0 0.0002915 1797.92676 3520.09814
2987.0 0.0003348 1797.73828 3114.59009
2685.0 0.000372 1797.55164 2771.10547
2440.0 0.000410 1797.36707 2504.25342
2215.0 0.000451 1797.18433 2310.27124
2220.0 0.000450 1797.00391 2176.04565
2072.0 0.000483 1796.82532 2085.81616
2062.0 0.000485 1796.64880 2025.35852
2015.0 0.000496 1796.47449 1983.88245
1939.0 0.000516 1796.30212 1954.17017
1990.0 0.000503 1796.13208 1931.81042
1906.0 0.000525 1795.96399 1914.24683
1928.0 0.000519 1795.79822 1900.00916
1951.0 0.000513 1795.63440 1888.22070
1821.0 0.000549 1795.47302 1878.30908
1931.0 0.000518 1795.31372 1869.89917
1870.0 0.000535 1795.15674 1862.69641
1863.0 0.000537 1795.00195 1856.48145
1869.0 0.000535 1794.84937 1851.08325
1851.0 0.000540 1794.69922 1846.36719
1876.0 0.000533 1794.55127 1842.22388
1799.0 0.000556 1794.40564 1838.56616
1793.0 0.000558 1794.26245 1835.31311
1819.0 0.000550 1794.12146 1832.42712
1842.0 0.000543 1793.98291 1829.84973
1866.0 0.000536 1793.84668 1827.54126
1859.0 0.000538 1793.71301 1825.46814
1781.0 0.000561 1793.58154 1823.60327
1856.0 0.000539 1793.45264 1821.92334
1765.0 0.000567 1793.32629 1820.40869
1801.0 0.000555 1793.20227 1819.04346
1822.0 0.000549 1793.08081 1817.81348
1833.0 0.000546 1792.96179 1816.70874
1899.0 0.000527 1792.84534 1817.73474
1744.0 0.000573 1792.73132 1816.88916
1843.0 0.000543 1792.62000 1816.14709
1832.0 0.000546 1792.51111 1815.50525
1864.0 0.000536 1792.40491 1814.96118
1776.0 0.000563 1792.30127 1814.51538
1819.0 0.000550 1792.20032 1814.17017
1833.0 0.000546 1792.10181 1813.92981
1790.0 0.000559 1792.00610 1813.60181
1832.0 0.000546 1791.91296 1813.60950
1805.0 0.000554 1791.82251 1813.77344
1767.0 0.000566 1791.73474 1814.14050
1819.0 0.000550 1791.64978 1814.78943
1851.0 0.000540 1791.56738 1815.84534
1766.0 0.000566 1791.48779 1817.48962
1836.0 0.000545 1791.41089 1819.95190
1796.0 0.000557 1791.33679 1823.48206
1786.0 0.000560 1791.26538 1828.27917
1797.0 0.000556 1791.19690 1834.34827
1863.0 0.000537 1791.13110 1841.54529
1800.0 0.000556 1791.06812 1849.08997
1871.0 0.000534 1791.00806 1855.58118
1900.0 0.000526 1790.95056 1859.41382
1917.0 0.000522 1790.89624 1860.25171
1852.0 0.000540 1790.84448 1859.79883
1848.0 0.000541 1790.79578 1860.62048
1900.0 0.000526 1790.75000 1864.88025
1841.0 0.000543 1790.70703 1874.02942
1927.0 0.000519 1790.66687 1888.79541
1983.0 0.000504 1790.62976 1909.02563
1969.0 0.000508 1790.59546 1933.25244
2036.0 0.000491 1790.56421 1958.00769
2038.0 0.000491 1790.53577 1978.09351
2011.0 0.000497 1790.51050 1990.02734
1995.0 0.000501 1790.48804 1995.94324
2007.0 0.000498 1790.46851 2001.28625
2094.0 0.000478 1790.45215 2009.20630
2008.0 0.000498 1790.43860 2017.70154
2028.0 0.000493 1790.42810 2019.92297
2017.0 0.000496 1790.42065 2008.76489
1980.0 0.000505 1790.41626 1983.92859
1962.0 0.000510 1790.41479 1952.00049
1899.0 0.000527 1790.41638 1920.03870
1948.0 0.000513 1790.42102 1892.13806
1920.0 0.000521 1790.42883 1869.82739
1809.0 0.000553 1790.43958 1853.11646
1821.0 0.000549 1790.45349 1841.26868
1886.0 0.000530 1790.47046 1833.18506
1810.0 0.000552 1790.49048 1827.79089
1843.0 0.000543 1790.51355 1824.20679
1824.0 0.000548 1790.53979 1821.80652
1794.0 0.000557 1790.56909 1820.18701
1852.0 0.000540 1790.60144 1819.10950
1825.0 0.000548 1790.63696 1818.43738
1805.0 0.000554 1790.67554 1818.09583
1792.0 0.000558 1790.71741 1818.04382
1828.0 0.000547 1790.76221 1818.26172
1877.0 0.000533 1790.81030 1818.74536
1805.0 0.000554 1790.86145 1819.50232
1745.0 0.000573 1790.91577 1820.55469
1903.0 0.000525 1790.97327 1821.93970
1801.0 0.000555 1791.03381 1823.71765
1902.0 0.000526 1791.09753 1823.42725
1859.0 0.000538 1791.16443 1826.40198
1879.0 0.000532 1791.23450 1830.31287
1860.0 0.000538 1791.30774 1835.64807
1820.0 0.000549 1791.38416 1843.21655
1858.0 0.000538 1791.46362 1854.25818
1854.0 0.000539 1791.54626 1870.47815
1828.0 0.000547 1791.63220 1893.90088
1895.0 0.000528 1791.72119 1926.45935
1983.0 0.000504 1791.81348 1969.29089
1963.0 0.000509 1791.90881 2021.70129
2120.0 0.000472 1792.00745 2079.61011
2141.0 0.000467 1792.10901 2133.36304
2170.0 0.000461 1792.21399 2167.25854
2115.0 0.000473 1792.32202 2167.17676
2145.0 0.000466 1792.43311 2133.57227
2089.0 0.000479 1792.54761 2080.99463
2014.0 0.000497 1792.66516 2024.94604
1889.0 0.000529 1792.78577 1974.76843
1862.0 0.000537 1792.90967 1934.34583
1920.0 0.000521 1793.03674 1904.27502
1860.0 0.000538 1793.16699 1883.37500
1877.0 0.000533 1793.30029 1869.69983
1799.0 0.000556 1793.43677 1861.24036
1886.0 0.000530 1793.57629 1856.32678
1898.0 0.000527 1793.71912 1853.76587
1811.0 0.000552 1793.86499 1852.79846
1897.0 0.000527 1794.01404 1852.98816
1850.0 0.000541 1794.16626 1854.10486
1902.0 0.000526 1794.32153 1856.07776
1769.0 0.000565 1794.47986 1858.80835
1933.0 0.000517 1794.64148 1862.35083
1850.0 0.000541 1794.80615 1866.76270
1841.0 0.000543 1794.97375 1872.14124
1899.0 0.000527 1795.14465 1878.62622
1925.0 0.000519 1795.31848 1886.40759
2013.0 0.000497 1795.49548 1895.74524
1931.0 0.000518 1795.67554 1906.99707
1972.0 0.000507 1795.85876 1920.67847
1900.0 0.000526 1796.04492 1937.58142
2042.0 0.000490 1796.23413 1959.04407
1944.0 0.000514 1796.42651 1987.20813
2085.0 0.000480 1796.62170 2025.90222
2084.0 0.000480 1796.82019 2081.33179
2104.0 0.000475 1797.02148 2162.88330
2265.0 0.000442 1797.22583 2283.25488
2268.0 0.000441 1797.43323 2457.21045
2689.0 0.000372 1797.64343 2698.37134
2941.0 0.0003400 1797.85681 3013.89722
3219.0 0.0003107 1798.07300 3396.83203
3635.0 0.0002751 1798.29236 3814.44897
3991.0 0.0002506 1798.51453 4192.34131
4171.0 0.0002398 1798.73950 4414.31543
4153.0 0.0002408 1798.96753 4384.14063
3854.0 0.0002595 1799.19849 4116.30225
3558.0 0.0002811 1799.43225 3720.52075
3229.0 0.0003097 1799.66895 3306.14868
2882.0 0.0003470 1799.90857 2936.92993
2571.0 0.000389 1800.15100 2638.43872
2367.0 0.000422 1800.39624 2413.60059
2240.0 0.000446 1800.64429 2253.21582
2145.0 0.000466 1800.89514 2143.01001
2115.0 0.000473 1801.14893 2068.47827
1986.0 0.000504 1801.40527 2017.61841
1954.0 0.000512 1801.66455 1981.80542
2038.0 0.000491 1801.92651 1955.45154
1926.0 0.000519 1802.19116 1937.31201
1891.0 0.000529 1802.45862 1921.20129
1913.0 0.000523 1802.72876 1908.04614
1905.0 0.000525 1803.00146 1897.12170
2014.0 0.000497 1803.27698 1887.94385
1975.0 0.000506 1803.55518 1880.16577
1963.0 0.000509 1803.83594 1873.52698
1984.0 0.000504 1804.11938 1867.82654
1907.0 0.000524 1804.40540 1862.87659
1905.0 0.000525 1804.69397 1858.60962
1894.0 0.000528 1804.98511 1854.89417
1934.0 0.000517 1805.27869 1851.64709
1929.0 0.000518 1805.57495 1848.80103
1918.0 0.000521 1805.87366 1846.29980
1889.0 0.000529 1806.17480 1844.09680
1840.0 0.000543 1806.47852 1842.15344
1917.0 0.000522 1806.78467 1840.44910
1877.0 0.000533 1807.09326 1838.93237
1838.0 0.000544 1807.40417 1837.59119
1914.0 0.000522 1807.71741 1836.31030
1840.0 0.000543 1808.03308 1835.26575
1874.0 0.000534 1808.35120 1834.34509
1931.0 0.000518 1808.67163 1833.53613
1814.0 0.000551 1808.99426 1832.82690
1874.0 0.000534 1809.31921 1832.20825
1879.0 0.000532 1809.64648 1831.53894
1847.0 0.000541 1809.97583 1831.07959
1930.0 0.000518 1810.30762 1830.68872
1841.0 0.000543 1810.64136 1830.35999
1889.0 0.000529 1810.97729 1830.08923
1858.0 0.000538 1811.31543 1829.87134
1853.0 0.000540 1811.65576 1829.70276
1806.0 0.000554 1811.99817 1829.58008
1874.0 0.000534 1812.34253 1829.49988
1813.0 0.000552 1812.68909 1829.45984
1838.0 0.000544 1813.03748 1829.45715
1845.0 0.000542 1813.38782 1829.49011
1890.0 0.000529 1813.74036 1829.55676
1817.0 0.000550 1814.09473 1829.65527
1820.0 0.000549 1814.45117 1829.78442
1885.0 0.000531 1814.80933 1829.94299
1790.0 0.000559 1815.16943 1830.12964
1754.0 0.000570 1815.53137 1830.34399
1838.0 0.000544 1815.89514 1830.58484
1810.0 0.000552 1816.26062 1830.85181
1780.0 0.000562 1816.62793 1831.14478
1852.0 0.000540 1816.99695 1831.46301
1883.0 0.000531 1817.36755 1831.80676
1833.0 0.000546 1817.74011 1832.17615
1854.0 0.000539 1818.11426 1832.57129
1780.0 0.000562 1818.48999 1832.99231
1838.0 0.000544 1818.86719 1833.44043
1789.0 0.000559 1819.24622 1833.91602
1805.0 0.000554 1819.62646 1834.42041
1826.0 0.000548 1820.00842 1834.95459
1823.0 0.000549 1820.39197 1835.52039
1858.0 0.000538 1820.77673 1836.11975
1874.0 0.000534 1821.16321 1836.75549
1844.0 0.000542 1821.55078 1838.97876
1850.0 0.000541 1821.94006 1839.72461
1839.0 0.000544 1822.33044 1840.51880
1793.0 0.000558 1822.72205 1841.36719
1795.0 0.000557 1823.11523 1842.00745
1845.0 0.000542 1823.50940 1842.99487
1888.0 0.000530 1823.90503 1844.06860
1849.0 0.000541 1824.30164 1845.25037
1846.0 0.000542 1824.69958 1846.57532
1812.0 0.000552 1825.09851 1848.09973
1850.0 0.000541 1825.49878 1849.91650
1880.0 0.000532 1825.89978 1852.16553
1906.0 0.000525 1826.30200 1855.04077
1851.0 0.000540 1826.70532 1858.77954
1893.0 0.000528 1827.10938 1863.62122
1865.0 0.000536 1827.51465 1869.73840
1923.0 0.000520 1827.92065 1877.13123
1877.0 0.000533 1828.32776 1885.47229
1930.0 0.000518 1828.73547 1893.86646
1834.0 0.000545 1829.14417 1900.69275
1899.0 0.000527 1829.55371 1904.18518
1892.0 0.000529 1829.96375 1903.96008
1896.0 0.000527 1830.37476 1901.58533
1923.0 0.000520 1830.78638 1899.24890
1859.0 0.000538 1831.19873 1898.55542
1852.0 0.000540 1831.61157 1900.34290
1863.0 0.000537 1832.02527 1904.82837
1880.0 0.000532 1832.43921 1911.64636
1876.0 0.000533 1832.85376 1919.72461
1923.0 0.000520 1833.26904 1927.12988
1873.0 0.000534 1833.68457 1931.52942
1926.0 0.000519 1834.10071 1931.80249
1892.0 0.000529 1834.51709 1930.77795
1907.0 0.000524 1834.93408 1927.23853
1894.0 0.000528 1835.35120 1924.54993
1898.0 0.000527 1835.76868 1923.61072
1825.0 0.000548 1836.18640 1924.78845
1927.0 0.000519 1836.60449 1928.16858
1854.0 0.000539 1837.02271 1933.72034
1873.0 0.000534 1837.44104 1941.41199
1915.0 0.000522 1837.85962 1951.30566
1903.0 0.000525 1838.27832 1963.62988
1927.0 0.000519 1838.69714 1978.86255
1945.0 0.000514 1839.11572 1995.86121
2032.0 0.000492 1839.53479 2020.19238
1942.0 0.000515 1839.95349 2052.42896
2051.0 0.000488 1840.37207 2096.95386
2157.0 0.000464 1840.79089 2160.68848
2169.0 0.000461 1841.20935 2253.62988
2239.0 0.000447 1841.62781 2388.59424
2442.0 0.000410 1842.04590 2579.56763
2817.0 0.000355 1842.46411 2838.01660
3089.0 0.0003237 1842.88171 3167.71631
3430.0 0.0002915 1843.29907 3556.57935
3962.0 0.0002524 1843.71631 3964.06323
4133.0 0.0002420 1844.13306 4306.51172
4313.0 0.0002319 1844.54956 4468.52588
4228.0 0.0002365 1844.96558 4377.82178
3877.0 0.0002579 1845.38123 4076.85425
3414.0 0.0002929 1845.79614 3678.80957
3091.0 0.0003235 1846.21082 3280.12598
2840.0 0.000352 1846.62476 2932.57520
2660.0 0.000376 1847.03821 2654.91772
2413.0 0.000414 1847.45105 2447.03979
2244.0 0.000446 1847.86328 2299.04688
2115.0 0.000473 1848.27490 2197.30835
2108.0 0.000474 1848.68567 2128.56104
2059.0 0.000486 1849.09583 2081.87793
2015.0 0.000496 1849.50513 2049.56226
2073.0 0.000482 1849.91370 2026.52112
2025.0 0.000494 1850.32129 2009.49768
2010.0 0.000498 1850.72815 1996.26025
1998.0 0.000501 1851.13416 1985.41492
1973.0 0.000507 1851.53906 1975.07251
2004.0 0.000499 1851.94312 1965.17236
2004.0 0.000499 1852.34607 1955.97742
1924.0 0.000520 1852.74817 1947.84460
2055.0 0.000487 1853.14917 1940.94006
1964.0 0.000509 1853.54883 1935.26013
1892.0 0.000529 1853.94775 1930.70789
1966.0 0.000509 1854.34521 1927.14380
1836.0 0.000545 1854.74182 1924.41992
1954.0 0.000512 1855.13684 1922.40002
1912.0 0.000523 1855.53088 1920.97424
1867.0 0.000536 1855.92358 1920.06006
1902.0 0.000526 1856.31506 1919.60327
1969.0 0.000508 1856.70496 1919.56909
1970.0 0.000508 1857.09363 1919.93982
1987.0 0.000503 1857.48096 1920.71204
1888.0 0.000530 1857.86682 1921.89197
1915.0 0.000522 1858.25134 1923.49683
1902.0 0.000526 1858.63416 1925.55444
1986.0 0.000504 1859.01563 1928.10559
1968.0 0.000508 1859.39539 1931.20386
1979.0 0.000505 1859.77380 1934.92102
1940.0 0.000515 1860.15039 1939.34888
1963.0 0.000509 1860.52539 1946.64404
2010.0 0.000498 1860.89893 1952.92432
1984.0 0.000504 1861.27063 1960.39746
2006.0 0.000499 1861.64063 1969.34326
2030.0 0.000493 1862.00879 1980.16406
1948.0 0.000513 1862.37537 1993.47668
2076.0 0.000482 1862.74011 2010.28076
2047.0 0.000489 1863.10278 2032.25330
2085.0 0.000480 1863.46387 2062.18237
2109.0 0.000474 1863.82300 2104.49414
2258.0 0.000443 1864.18030 2165.68359
2295.0 0.000436 1864.53552 2254.28979
2468.0 0.000405 1864.88892 2379.99194
2563.0 0.000390 1865.24011 2551.51050
2931.0 0.0003412 1865.58948 2773.21655
3010.0 0.0003322 1865.93677 3040.14868
3198.0 0.0003127 1866.28186 3330.12158
3363.0 0.0002974 1866.62512 3592.91895
3547.0 0.0002819 1866.96606 3750.23193
3613.0 0.0002768 1867.30493 3736.29199
3482.0 0.0002872 1867.64160 3558.31006
3319.0 0.0003013 1867.97607 3288.93457
3038.0 0.0003292 1868.30835 3003.22168
2773.0 0.000361 1868.63843 2746.05444
2616.0 0.000382 1868.96606 2536.02441
2424.0 0.000413 1869.29150 2376.10962
2274.0 0.000440 1869.61475 2260.95190
2199.0 0.000455 1869.93555 2181.51733
2285.0 0.000438 1870.25403 2128.26563
2164.0 0.000462 1870.57007 2093.03613
2085.0 0.000480 1870.88379 2069.78345
2079.0 0.000481 1871.19507 2054.49707
2123.0 0.000471 1871.50378 2044.74194
2141.0 0.000467 1871.81018 2039.14600
2048.0 0.000488 1872.11389 2037.00049
2106.0 0.000475 1872.41541 2038.01697
2033.0 0.000492 1872.71411 2042.21301
2116.0 0.000473 1873.01038 2049.91382
2155.0 0.000464 1873.30396 2061.82886
2035.0 0.000491 1873.59509 2079.44165
2161.0 0.000463 1873.88342 2105.20801
2228.0 0.000449 1874.16919 2143.23364
2181.0 0.000459 1874.45251 2199.75391
2293.0 0.000436 1874.73291 2283.29126
2478.0 0.000404 1875.01074 2404.01514
2653.0 0.000377 1875.28577 2571.91016
2854.0 0.0003504 1875.55811 2793.59497
3071.0 0.0003256 1875.82764 3067.61084
3526.0 0.0002836 1876.09460 3377.09204
3755.0 0.0002663 1876.35852 3678.64893
4045.0 0.0002472 1876.61975 3895.18433
4055.0 0.0002466 1876.87817 3943.12158
3907.0 0.0002560 1877.13379 3800.05811
3571.0 0.0002800 1877.38660 3527.97485
3338.0 0.0002996 1877.63647 3213.93286
3201.0 0.0003124 1877.88342 2918.17163
2766.0 0.000362 1878.12756 2668.99683
2721.0 0.000368 1878.36877 2474.26929
2435.0 0.000411 1878.60706 2330.65967
2342.0 0.000427 1878.84229 2229.42432
2297.0 0.000435 1879.07471 2160.29688
2154.0 0.000464 1879.30408 2113.97119
2183.0 0.000458 1879.53052 2083.53491
2079.0 0.000481 1879.75391 2063.53149
2088.0 0.000479 1879.97449 2051.06006
2073.0 0.000482 1880.19177 2044.03992
2037.0 0.000491 1880.40601 2040.78149
1977.0 0.000506 1880.61743 2039.35095
1945.0 0.000514 1880.82568 2037.24011
2035.0 0.000491 1881.03088 2032.10376
1934.0 0.000517 1881.23303 2023.43237
2000.0 0.000500 1881.43201 2012.83521
1987.0 0.000503 1881.62793 2002.40735
2061.0 0.000485 1881.82080 1993.54504
1921.0 0.000521 1882.01050 1984.79346
1962.0 0.000510 1882.19702 1980.73816
1994.0 0.000502 1882.38062 1979.31665
1914.0 0.000522 1882.56079 1980.63928
2038.0 0.000491 1882.73792 1985.04797
1983.0 0.000504 1882.91199 1992.67212
1993.0 0.000502 1883.08276 2004.32751
2157.0 0.000464 1883.25037 2020.48303
2144.0 0.000466 1883.41479 2041.98450
2023.0 0.000494 1883.57605 2069.20728
2071.0 0.000483 1883.73413 2101.81494
2140.0 0.000467 1883.88904 2139.05591
2231.0 0.000448 1884.04065 2181.27881
2204.0 0.000454 1884.18909 2229.50586
2201.0 0.000454 1884.33423 2282.11035
2333.0 0.000429 1884.47632 2331.03271
2296.0 0.000436 1884.61499 2361.21411
2337.0 0.000428 1884.75061 2358.48462
2266.0 0.000441 1884.88293 2322.66772
2276.0 0.000439 1885.01196 2267.85303
2231.0 0.000448 1885.13782 2209.83984
2139.0 0.000468 1885.26025 2158.47388
2160.0 0.000463 1885.37964 2118.01587
2146.0 0.000466 1885.49573 2089.40137
2034.0 0.000492 1885.60852 2071.83398
2049.0 0.000488 1885.71814 2063.79980
2088.0 0.000479 1885.82446 2063.77246
1995.0 0.000501 1885.92761 2070.72974
2129.0 0.000470 1886.02734 2084.51660
2076.0 0.000482 1886.12390 2106.18140
2070.0 0.000483 1886.21716 2138.39014
2023.0 0.000494 1886.30725 2185.93286
2277.0 0.000439 1886.39404 2256.16211
2292.0 0.000436 1886.47766 2358.99463
2465.0 0.000406 1886.55786 2505.99609
2674.0 0.000374 1886.63489 2708.01880
2931.0 0.0003412 1886.70874 2971.60840
3331.0 0.0003002 1886.77930 3293.34717
3578.0 0.0002795 1886.84656 3651.05469
3975.0 0.0002516 1886.91077 3990.69116
4129.0 0.0002422 1886.97156 4220.91455
4189.0 0.0002387 1887.02917 4250.51270
3931.0 0.0002544 1887.08362 4065.51685
3661.0 0.0002731 1887.13477 3743.50854
3293.0 0.0003037 1887.18274 3382.06396
2945.0 0.0003396 1887.22754 3045.70947
2676.0 0.000374 1887.26904 2763.75220
2514.0 0.000398 1887.30750 2543.54663
2357.0 0.000424 1887.34253 2380.54688
2323.0 0.000430 1887.37463 2264.53149
2226.0 0.000449 1887.40332 2183.76318
2082.0 0.000480 1887.42896 2127.62500
2094.0 0.000478 1887.45154 2087.85205
2108.0 0.000474 1887.47070 2058.68359
2106.0 0.000475 1887.48694 2036.41846
2057.0 0.000486 1887.49988 2018.79224
1990.0 0.000503 1887.50977 2004.43958
1995.0 0.000501 1887.51648 1992.51697
1906.0 0.000525 1887.52014 1982.47449
1976.0 0.000506 1887.52075 1972.91370
1860.0 0.000538 1887.51819 1965.61938
2004.0 0.000499 1887.51257 1959.32544
1947.0 0.000514 1887.50378 1953.86462
1884.0 0.000531 1887.49207 1949.10291
1959.0 0.000510 1887.47717 1944.93408
1859.0 0.000538 1887.45935 1941.27185
1923.0 0.000520 1887.43848 1938.04626
1955.0 0.000512 1887.41455 1935.19971
1980.0 0.000505 1887.38757 1932.68604
1951.0 0.000513 1887.35779 1930.46790
1882.0 0.000531 1887.32483 1928.51282
1972.0 0.000507 1887.28894 1926.79736
1969.0 0.000508 1887.25012 1925.30164
1942.0 0.000515 1887.20837 1924.01184
1984.0 0.000504 1887.16370 1922.91882
1937.0 0.000516 1887.11609 1922.02039
1922.0 0.000520 1887.06555 1921.32202
1981.0 0.000505 1887.01221 1920.84277
1888.0 0.000530 1886.95593 1920.61780
1931.0 0.000518 1886.89685 1920.70593
1890.0 0.000529 1886.83496 1921.19324
1860.0 0.000538 1886.77026 1922.18896
1938.0 0.000516 1886.70264 1923.81494
1985.0 0.000504 1886.63232 1926.17627
1914.0 0.000522 1886.55920 1929.32202
1891.0 0.000529 1886.48340 1933.18372
1950.0 0.000513 1886.40479 1937.47278
1916.0 0.000522 1886.32336 1941.56323
1935.0 0.000517 1886.23938 1944.57166
1934.0 0.000517 1886.15271 1945.95459
1923.0 0.000520 1886.06323 1946.16418
1989.0 0.000503 1885.97119 1944.71057
1957.0 0.000511 1885.87659 1946.41113
1967.0 0.000508 1885.77930 1950.75854
1953.0 0.000512 1885.67944 1959.01355
1922.0 0.000520 1885.57703 1972.54187
1959.0 0.000510 1885.47192 1992.71423
2012.0 0.000497 1885.36438 2020.61584
2073.0 0.000482 1885.25427 2056.54541
2115.0 0.000473 1885.14172 2099.22144
2144.0 0.000466 1885.02673 2144.46631
2237.0 0.000447 1884.90930 2183.60522
2206.0 0.000453 1884.78943 2204.34326
2200.0 0.000455 1884.66711 2198.12646
2124.0 0.000471 1884.54224 2168.24976
2042.0 0.000490 1884.41528 2126.56396
2024.0 0.000494 1884.28577 2084.10693
2006.0 0.000499 1884.15405 2047.28455
2086.0 0.000479 1884.01990 2018.85962
1991.0 0.000502 1883.88354 1999.55029
1992.0 0.000502 1883.74487 1989.28223
2038.0 0.000491 1883.60400 1987.57458
2062.0 0.000485 1883.46094 1994.10107
1982.0 0.000505 1883.31567 2008.78772
2084.0 0.000480 1883.16821 2031.65234
2072.0 0.000483 1883.01855 2062.23193
2080.0 0.000481 1882.86682 2098.58789
2114.0 0.000473 1882.71301 2135.97803
2194.0 0.000456 1882.55713 2166.71484
2186.0 0.000457 1882.39917 2182.74976
2204.0 0.000454 1882.23914 2179.83789
2304.0 0.000434 1882.07715 2159.30688
2102.0 0.000476 1881.91309 2127.22681
2069.0 0.000483 1881.74719 2090.91821
1984.0 0.000504 1881.57922 2055.29834
2006.0 0.000499 1881.40942 2022.69775
1986.0 0.000504 1881.23779 1994.59583
1975.0 0.000506 1881.06421 1971.69055
1993.0 0.000502 1880.88892 1953.91199
1986.0 0.000504 1880.71155 1940.57080
1924.0 0.000520 1880.53259 1930.83472
1907.0 0.000524 1880.35181 1923.33337
1906.0 0.000525 1880.16943 1918.10754
1893.0 0.000528 1879.98523 1914.26721
1931.0 0.000518 1879.79932 1911.42358
1862.0 0.000537 1879.61182 1909.31567
1901.0 0.000526 1879.42261 1907.78345
1927.0 0.000519 1879.23181 1906.74438
1944.0 0.000514 1879.03931 1906.18042
1854.0 0.000539 1878.84546 1906.12878
1922.0 0.000520 1878.65002 1906.67627
1977.0 0.000506 1878.45300 1907.95105
1970.0 0.000508 1878.25464 1910.10168
1861.0 0.000537 1878.05469 1913.26721
2017.0 0.000496 1877.85339 1917.53308
1906.0 0.000525 1877.65063 1922.84839
1890.0 0.000529 1877.44653 1928.90906
1960.0 0.000510 1877.24121 1934.94897
1898.0 0.000527 1877.03442 1940.09119
1877.0 0.000533 1876.82629 1943.93604
1925.0 0.000519 1876.61707 1947.15320
1924.0 0.000520 1876.40649 1950.59314
1971.0 0.000507 1876.19470 1954.28992
1980.0 0.000505 1875.98181 1957.08093
1960.0 0.000510 1875.76758 1957.19043
1904.0 0.000525 1875.55237 1951.75537
2067.0 0.000484 1875.33594 1945.96851
1977.0 0.000506 1875.11853 1939.67053
1953.0 0.000512 1874.90015 1934.35400
1942.0 0.000515 1874.68054 1930.82092
1961.0 0.000510 1874.46008 1929.45264
1964.0 0.000509 1874.23853 1930.48755
1948.0 0.000513 1874.01611 1934.24036
1957.0 0.000511 1873.79272 1941.30493
1960.0 0.000510 1873.56860 1952.74255
1920.0 0.000521 1873.34338 1970.21521
2007.0 0.000498 1873.11743 1995.97595
1992.0 0.000502 1872.89075 2032.61255
2090.0 0.000478 1872.66321 2082.51465
2137.0 0.000468 1872.43494 2146.98560
2238.0 0.000447 1872.20593 2224.92725
2376.0 0.000421 1871.97620 2310.68970
2429.0 0.000412 1871.74573 2390.96387
2416.0 0.000414 1871.51465 2443.88794
2516.0 0.000397 1871.28296 2448.55005
2413.0 0.000414 1871.05078 2402.62988
2497.0 0.000400 1870.81799 2324.74951
2270.0 0.000441 1870.58459 2237.75049
2194.0 0.000456 1870.35071 2156.68457
2124.0 0.000471 1870.11621 2088.39551
2023.0 0.000494 1869.88147 2034.62683
1951.0 0.000513 1869.64612 1994.37830
1958.0 0.000511 1869.41040 1965.33582
1974.0 0.000507 1869.17432 1944.80676
1920.0 0.000521 1868.93787 1930.31665
1895.0 0.000528 1868.70117 1919.90430
1934.0 0.000517 1868.46399 1912.17285
1959.0 0.000510 1868.22668 1906.61206
1799.0 0.000556 1867.98901 1901.84497
1860.0 0.000538 1867.75122 1897.92114
1934.0 0.000517 1867.51306 1894.62219
1864.0 0.000536 1867.27490 1891.80615
1854.0 0.000539 1867.03650 1889.37366
1873.0 0.000534 1866.79797 1887.25305
1822.0 0.000549 1866.55933 1885.38928
1877.0 0.000533 1866.32056 1883.73889
1891.0 0.000529 1866.08191 1882.26807
1872.0 0.000534 1865.84302 1880.94946
1876.0 0.000533 1865.60425 1879.76050
1907.0 0.000524 1865.36548 1878.68323
1904.0 0.000525 1865.12683 1877.70313
1868.0 0.000535 1864.88818 1876.80737
1879.0 0.000532 1864.64954 1875.98572
1899.0 0.000527 1864.41113 1875.21045
1849.0 0.000541 1864.17285 1874.51404
1837.0 0.000544 1863.93469 1873.87170
1854.0 0.000539 1863.69678 1873.27771
1912.0 0.000523 1863.45911 1872.72852
1907.0 0.000524 1863.22156 1872.22119
1863.0 0.000537 1862.98438 1871.75330
1845.0 0.000542 1862.74731 1871.32373
1893.0 0.000528 1862.51074 1872.47559
1818.0 0.000550 1862.27454 1872.14771
1813.0 0.000552 1862.03845 1871.85779
1817.0 0.000550 1861.80286 1871.60828
1788.0 0.000559 1861.56763 1871.40198
1879.0 0.000532 1861.33289 1871.24353
1820.0 0.000549 1861.09863 1870.87695
1855.0 0.000539 1860.86475 1870.84668
1842.0 0.000543 1860.63135 1871.22083
1903.0 0.000525 1860.39844 1871.40491
1857.0 0.000539 1860.16614 1871.76074
1864.0 0.000536 1859.93420 1872.36035
1832.0 0.000546 1859.70300 1873.29797
1860.0 0.000538 1859.47229 1874.68201
1866.0 0.000536 1859.24231 1876.61646
1880.0 0.000532 1859.01294 1879.16895
1890.0 0.000529 1858.78406 1882.32239
1836.0 0.000545 1858.55603 1885.90527
1848.0 0.000541 1858.32849 1889.46167
1857.0 0.000539 1858.10193 1892.19165
1951.0 0.000513 1857.87585 1893.23962
1923.0 0.000520 1857.65063 1892.39148
1881.0 0.000532 1857.42627 1890.22180
1834.0 0.000545 1857.20251 1888.03149
1837.0 0.000544 1856.97974 1886.42468
1927.0 0.000519 1856.75757 1886.24304
1821.0 0.000549 1856.53638 1887.80286
1883.0 0.000531 1856.31604 1891.43860
1904.0 0.000525 1856.09644 1897.47937
1955.0 0.000512 1855.87781 1905.99841
1843.0 0.000543 1855.66028 1916.77026
1953.0 0.000512 1855.44348 1928.95911
1885.0 0.000531 1855.22754 1940.67615
1977.0 0.000506 1855.01282 1948.79285
1923.0 0.000520 1854.79883 1950.15173
1979.0 0.000505 1854.58594 1944.10217
1874.0 0.000534 1854.37402 1933.14038
1907.0 0.000524 1854.16321 1920.63794
1921.0 0.000521 1853.95325 1908.94458
1874.0 0.000534 1853.74451 1899.20264
1853.0 0.000540 1853.53687 1891.79993
1916.0 0.000522 1853.33020 1886.73267
1889.0 0.000529 1853.12463 1883.83008
1918.0 0.000521 1852.92017 1888.04285
1886.0 0.000530 1852.71692 1888.97131
1942.0 0.000515 1852.51465 1891.56873
1929.0 0.000518 1852.31372 1895.69592
1969.0 0.000508 1852.11377 1901.07458
1931.0 0.000518 1851.91504 1907.10632
2007.0 0.000498 1851.71765 1912.72339
1938.0 0.000516 1851.52124 1916.54358
1952.0 0.000512 1851.32617 1917.37537
1928.0 0.000519 1851.13220 1914.86414
1854.0 0.000539 1850.93970 1909.64795
1921.0 0.000521 1850.74829 1903.14453
1830.0 0.000546 1850.55811 1896.68982
1773.0 0.000564 1850.36926 1891.07056
1838.0 0.000544 1850.18176 1886.54443
1866.0 0.000536 1849.99536 1883.21460
1911.0 0.000523 1849.81042 1883.19763
1830.0 0.000546 1849.62659 1881.76819
1867.0 0.000536 1849.44434 1880.99963
1899.0 0.000527 1849.26331 1880.74072
1861.0 0.000537 1849.08350 1880.88171
1843.0 0.000543 1848.90527 1881.34827
1831.0 0.000546 1848.72815 1882.10193
1850.0 0.000541 1848.55249 1883.08313
1865.0 0.000536 1848.37817 1884.25037
1806.0 0.000554 1848.20520 1885.52332
1850.0 0.000541 1848.03381 1886.80322
1871.0 0.000534 1847.86353 1888.04041
1838.0 0.000544 1847.69482 1889.29333
1939.0 0.000516 1847.52759 1890.69617
1906.0 0.000525 1847.36157 1892.37878
1840.0 0.000543 1847.19702 1894.44543
1891.0 0.000529 1847.03394 1896.98657
1889.0 0.000529 1846.87231 1900.10669
1866.0 0.000536 1846.71191 1903.42029
1884.0 0.000531 1846.55322 1908.22864
1882.0 0.000531 1846.39575 1914.36487
1945.0 0.000514 1846.23987 1922.42639
1975.0 0.000506 1846.08545 1933.32629
1978.0 0.000506 1845.93237 1948.35242
1957.0 0.000511 1845.78076 1969.14954
2004.0 0.000499 1845.63062 1997.55676
2013.0 0.000497 1845.48206 2035.25696
2031.0 0.000492 1845.33484 2083.21338
2191.0 0.000456 1845.18909 2140.80322
2214.0 0.000452 1845.04480 2204.37500
2241.0 0.000446 1844.90198 2265.12573
2343.0 0.000427 1844.76074 2308.21069
2367.0 0.000422 1844.62085 2318.63013
2261.0 0.000442 1844.48242 2293.26392
2236.0 0.000447 1844.34558 2244.02808
2168.0 0.000461 1844.21021 2187.15381
2094.0 0.000478 1844.07617 2134.02661
2090.0 0.000478 1843.94373 2090.16064
2061.0 0.000485 1843.81274 2057.31787
2038.0 0.000491 1843.68323 2035.25073
1961.0 0.000510 1843.55518 2022.78308
2038.0 0.000491 1843.42859 2018.51843
2022.0 0.000495 1843.30347 2021.35803
2002.0 0.000500 1843.17981 2030.88831
2016.0 0.000496 1843.05774 2047.67651
2011.0 0.000497 1842.93689 2073.54297
2035.0 0.000491 1842.81775 2111.78882
2202.0 0.000454 1842.70007 2167.28760
2253.0 0.000444 1842.58362 2246.24316
2361.0 0.000424 1842.46875 2355.39746
2436.0 0.000411 1842.35535 2500.55542
2728.0 0.000367 1842.24341 2684.30518
2953.0 0.0003386 1842.13281 2902.46143
3334.0 0.0002999 1842.02380 3138.08423
3377.0 0.0002961 1841.91614 3353.55054
3576.0 0.0002796 1841.80994 3491.24219
3653.0 0.0002737 1841.70520 3502.76270
3470.0 0.0002882 1841.60168 3391.73096
3248.0 0.0003079 1841.49976 3211.22900
3100.0 0.0003226 1841.39929 3019.40747
2943.0 0.0003398 1841.30017 2851.83081
2820.0 0.000355 1841.20227 2720.88232
2728.0 0.000367 1841.10596 2622.17310
2643.0 0.000378 1841.01111 2540.83740
2365.0 0.000423 1840.91748 2461.46582
2414.0 0.000414 1840.82520 2378.74658
2319.0 0.000431 1840.73438 2297.43286
2305.0 0.000434 1840.64490 2224.02100
2270.0 0.000441 1840.55676 2161.96582
2242.0 0.000446 1840.46997 2111.89258
2071.0 0.000483 1840.38440 2072.90210
2047.0 0.000489 1840.30029 2043.61853
2015.0 0.000496 1840.21753 2021.80957
2022.0 0.000495 1840.13586 2005.91809
1982.0 0.000505 1840.05566 1994.42773
2018.0 0.000496 1839.97668 1986.13159
1956.0 0.000511 1839.89905 1980.21985
1994.0 0.000502 1839.82263 1976.09082
2041.0 0.000490 1839.74756 1973.36609
2069.0 0.000483 1839.67371 1971.80371
1959.0 0.000510 1839.60107 1971.24866
1937.0 0.000516 1839.52966 1971.60291
1932.0 0.000518 1839.45935 1972.80432
2037.0 0.000491 1839.39050 1974.81982
2029.0 0.000493 1839.32263 1977.63586
1957.0 0.000511 1839.25598 1981.26050
1939.0 0.000516 1839.19055 1985.71643
1981.0 0.000505 1839.12634 1991.04565
2065.0 0.000484 1839.06323 1997.30811
1996.0 0.000501 1839.00122 2004.50122
2053.0 0.000487 1838.94043 2012.89160
2124.0 0.000471 1838.88074 2022.52319
2135.0 0.000468 1838.82202 2033.55408
2084.0 0.000480 1838.76453 2046.17883
2070.0 0.000483 1838.70801 2060.63745
2129.0 0.000470 1838.65271 2077.22583
2122.0 0.000471 1838.59839 2096.31006
2165.0 0.000462 1838.54504 2118.35010
2216.0 0.000451 1838.49268 2143.92456
2224.0 0.000450 1838.44153 2173.78149
2215.0 0.000451 1838.39124 2208.91357
2228.0 0.000449 1838.34192 2250.69727
2308.0 0.000433 1838.29358 2301.14551
2443.0 0.000409 1838.24634 2363.35425
2469.0 0.000405 1838.19983 2442.22485
2423.0 0.000413 1838.15430 2545.50854
2628.0 0.000381 1838.10974 2685.18140
2814.0 0.000355 1838.06604 2878.49707
3125.0 0.0003200 1838.02332 3148.56787
3496.0 0.0002860 1837.98132 3522.87769
3932.0 0.0002543 1837.94031 4029.58643
4683.0 0.0002135 1837.90002 4690.70459
5615.0 0.0001781 1837.86072 5514.44238
6626.0 0.0001509 1837.82202 6466.95508
7791.0 0.0001284 1837.78418 7460.99023
8429.0 0.0001186 1837.74719 8312.79199
8990.0 0.0001112 1837.71094 8767.02832
8784.0 0.0001138 1837.67542 8646.04199
8151.0 0.0001227 1837.64050 8010.87988
7169.0 0.0001395 1837.60645 7102.91650
6251.0 0.0001600 1837.57300 6157.06641
5363.0 0.0001865 1837.54028 5314.75391
4635.0 0.0002157 1837.50830 4638.78516
4053.0 0.0002467 1837.47693 4147.23242
3677.0 0.0002720 1837.44617 3836.01294
3605.0 0.0002774 1837.41589 3691.51807
3454.0 0.0002895 1837.38635 3697.30762
3797.0 0.0002634 1837.35742 3836.25806
4166.0 0.0002400 1837.32898 4088.13770
4497.0 0.0002224 1837.30115 4421.80615
4885.0 0.0002047 1837.27380 4780.99658
5065.0 0.0001974 1837.24695 5070.79395
5313.0 0.0001882 1837.22058 5175.33057
4965.0 0.0002014 1837.19482 5030.55518
4699.0 0.0002128 1837.16943 4681.16846
4241.0 0.0002358 1837.14441 4238.75586
3845.0 0.0002601 1837.11987 3791.58960
3260.0 0.0003067 1837.09583 3393.98022
2987.0 0.0003348 1837.07214 3065.19531
2844.0 0.000352 1837.04871 2806.56494
2535.0 0.000394 1837.02576 2610.48999
2398.0 0.000417 1837.00317 2465.48340
2297.0 0.000435 1836.98083 2359.35376
2236.0 0.000447 1836.95886 2283.23120
2143.0 0.000467 1836.93701 2224.64868
2183.0 0.000458 1836.91565 2179.43359
2129.0 0.000470 1836.89441 2143.06128
2035.0 0.000491 1836.87341 2113.69531
2143.0 0.000467 1836.85266 2089.19727
2040.0 0.000490 1836.83215 2068.44238
2098.0 0.000477 1836.81177 2050.64771
1968.0 0.000508 1836.79163 2035.24487
2018.0 0.000496 1836.77161 2021.81177
1954.0 0.000512 1836.75159 2010.06274
2044.0 0.000489 1836.73181 1999.82141
2003.0 0.000499 1836.71216 1990.97046
1932.0 0.000518 1836.69238 1983.41028
2000.0 0.000500 1836.67285 1977.03748
2016.0 0.000496 1836.65332 1971.71594
1915.0 0.000522 1836.63379 1967.23621
1919.0 0.000521 1836.61438 1963.25818
1973.0 0.000507 1836.59485 1959.33594
1920.0 0.000521 1836.57532 1955.05249
1974.0 0.000507 1836.55566 1950.39893
1941.0 0.000515 1836.53613 1945.67542
1904.0 0.000525 1836.51636 1941.19165
1833.0 0.000546 1836.49646 1937.06494
1958.0 0.000511 1836.47656 1933.22986
1928.0 0.000519 1836.45654 1929.57349
1922.0 0.000520 1836.43628 1926.07898
1853.0 0.000540 1836.41577 1921.28479
1910.0 0.000524 1836.39526 1918.38757
1948.0 0.000513 1836.37463 1915.84778
1848.0 0.000541 1836.35352 1913.66040
1874.0 0.000534 1836.33228 1911.80066
1833.0 0.000546 1836.31079 1910.23706
1877.0 0.000533 1836.28918 1908.93909
1976.0 0.000506 1836.26709 1907.87939
1912.0 0.000523 1836.24475 1906.72290
1831.0 0.000546 1836.22217 1906.08984
1862.0 0.000537 1836.19910 1905.65234
1939.0 0.000516 1836.17590 1905.40955
1879.0 0.000532 1836.15210 1905.90295
1873.0 0.000534 1836.12817 1906.07422
1928.0 0.000519 1836.10376 1906.46973
1936.0 0.000517 1836.07874 1907.11169
1831.0 0.000546 1836.05359 1908.03259
1895.0 0.000528 1836.02771 1909.27820
1843.0 0.000543 1836.00159 1910.91577
1879.0 0.000532 1835.97485 1913.04968
1915.0 0.000522 1835.94763 1915.84338
1877.0 0.000533 1835.92004 1919.55676
1916.0 0.000522 1835.89185 1924.58838
1946.0 0.000514 1835.86316 1931.52283
1962.0 0.000510 1835.83386 1941.15247
1955.0 0.000512 1835.80396 1954.45142
1959.0 0.000510 1835.77356 1972.46582
1980.0 0.000505 1835.74255 1996.10571
1994.0 0.000502 1835.71094 2025.81531
2118.0 0.000472 1835.67859 2061.04810
2130.0 0.000469 1835.64575 2099.37329
2246.0 0.000445 1835.61206 2135.22485
2220.0 0.000450 1835.57788 2159.65332
2248.0 0.000445 1835.54297 2164.11328
2194.0 0.000456 1835.50745 2147.30957
2132.0 0.000469 1835.47119 2116.45313
2144.0 0.000466 1835.43408 2081.00317
2139.0 0.000468 1835.39636 2047.55957
2075.0 0.000482 1835.35791 2019.30542
1999.0 0.000500 1835.31860 1997.21643
2002.0 0.000500 1835.27856 1981.08203
2091.0 0.000478 1835.23779 1970.10974
2023.0 0.000494 1835.19617 1963.29724
2015.0 0.000496 1835.15381 1959.67346
2063.0 0.000485 1835.11047 1958.45532
2013.0 0.000497 1835.06653 1959.00342
2001.0 0.000500 1835.02161 1960.94971
1980.0 0.000505 1834.97583 1964.06604
1974.0 0.000507 1834.92920 1968.24231
2015.0 0.000496 1834.88159 1973.44885
1943.0 0.000515 1834.83325 1979.71667
1952.0 0.000512 1834.78394 1987.12195
1989.0 0.000503 1834.73376 1995.78467
1920.0 0.000521 1834.68262 2005.86816
2026.0 0.000494 1834.63062 2017.58899
2046.0 0.000489 1834.57751 2031.22754
2006.0 0.000499 1834.52356 2047.15100
2034.0 0.000492 1834.46863 2065.85132
2057.0 0.000486 1834.41272 2088.01074
2121.0 0.000471 1834.35583 2114.61841
2123.0 0.000471 1834.29797 2147.17920
2159.0 0.000463 1834.23914 2188.04590
2276.0 0.000439 1834.17932 2240.89526
2383.0 0.000420 1834.11841 2311.32251
2375.0 0.000421 1834.05652 2407.38989
2587.0 0.000387 1833.99353 2539.85864
2726.0 0.000367 1833.92944 2721.69824
3090.0 0.0003236 1833.86450 2966.53174
3323.0 0.0003009 1833.79846 3285.75879
3830.0 0.0002611 1833.73132 3684.05786
4148.0 0.0002411 1833.66309 4152.10938
4606.0 0.0002171 1833.59375 4654.18945
5076.0 0.0001970 1833.52344 5111.82910
5342.0 0.0001872 1833.45190 5404.32813
5388.0 0.0001856 1833.37927 5425.05518
5183.0 0.0001929 1833.30566 5169.09473
4779.0 0.0002092 1833.23083 4738.11816
4421.0 0.0002262 1833.15503 4255.03564
3924.0 0.0002548 1833.07800 3797.42310
3536.0 0.0002828 1832.99988 3414.76733
3223.0 0.0003103 1832.92053 3113.22168
2979.0 0.0003357 1832.84009 2889.58301
2794.0 0.000358 1832.75854 2733.69409
2606.0 0.000384 1832.67590 2633.27051
2567.0 0.000390 1832.59204 2577.07422
2638.0 0.000379 1832.50708 2557.05322
2679.0 0.000373 1832.42090 2569.36035
2699.0 0.000371 1832.33350 2614.77881
2686.0 0.000372 1832.24512 2698.66626
2697.0 0.000371 1832.15540 2830.40137
3012.0 0.0003320 1832.06458 3022.14160
3269.0 0.0003059 1831.97253 3286.63940
3551.0 0.0002816 1831.87939 3633.90771
3985.0 0.0002509 1831.78503 4066.23120
4537.0 0.0002204 1831.68958 4567.56885
5104.0 0.0001959 1831.59290 5098.93359
5391.0 0.0001855 1831.49487 5570.63232
5756.0 0.0001737 1831.39587 5866.93555
5786.0 0.0001728 1831.29553 5917.48730
5503.0 0.0001817 1831.19409 5766.59180
5474.0 0.0001827 1831.09143 5537.19824
5330.0 0.0001876 1830.98767 5339.89453
5361.0 0.0001865 1830.88257 5226.99316
5143.0 0.0001944 1830.77637 5189.30029
5129.0 0.0001950 1830.66907 5163.12646
5046.0 0.0001982 1830.56042 5056.03223
4849.0 0.0002062 1830.45068 4808.40869
4425.0 0.0002260 1830.33960 4440.20752
4098.0 0.0002440 1830.22754 4022.76294
3605.0 0.0002774 1830.11426 3620.25488
3301.0 0.0003029 1829.99976 3267.58936
2984.0 0.0003351 1829.88403 2976.76196
2716.0 0.000368 1829.76721 2747.48096
2624.0 0.000381 1829.64905 2571.76099
2446.0 0.000409 1829.52991 2440.30005
2311.0 0.000433 1829.40955 2343.02515
2193.0 0.000456 1829.28784 2270.98950
2134.0 0.000469 1829.16516 2217.06274
2168.0 0.000461 1829.04126 2175.99341
2096.0 0.000477 1828.91626 2144.09521
2090.0 0.000478 1828.79004 2118.76587
2183.0 0.000458 1828.66260 2098.00684
2138.0 0.000468 1828.53418 2080.11572
2026.0 0.000494 1828.40442 2063.78442
2041.0 0.000490 1828.27368 2048.49585
1992.0 0.000502 1828.14172 2034.45300
1959.0 0.000510 1828.00867 2022.11011
1948.0 0.000513 1827.87451 2011.78552
1960.0 0.000510 1827.73914 2003.61914
1965.0 0.000509 1827.60278 1997.66028
1961.0 0.000510 1827.46521 1993.96375
2010.0 0.000498 1827.32654 1992.64905
2009.0 0.000498 1827.18677 1994.01318
1913.0 0.000523 1827.04602 1998.68713
1987.0 0.000503 1826.90405 2007.81274
2001.0 0.000500 1826.76111 2023.10229
2117.0 0.000472 1826.61707 2046.73718
2134.0 0.000469 1826.47192 2081.12573
2089.0 0.000479 1826.32581 2128.49854
2185.0 0.000458 1826.17859 2190.26172
2294.0 0.000436 1826.03027 2265.97046
2365.0 0.000423 1825.88098 2351.56543
2441.0 0.000410 1825.73071 2436.59863
2520.0 0.000397 1825.57947 2502.21167
2596.0 0.000385 1825.42700 2526.09229
2586.0 0.000387 1825.27368 2497.45557
2453.0 0.000408 1825.11938 2426.88477
2434.0 0.000411 1824.96411 2336.62524
2250.0 0.000444 1824.80786 2245.55347
2239.0 0.000447 1824.65063 2164.13623
2072.0 0.000483 1824.49243 2096.42554
2039.0 0.000490 1824.33325 2042.84143
2021.0 0.000495 1824.17334 2001.94604
2012.0 0.000497 1824.01221 1971.48303
1999.0 0.000500 1823.85034 1949.03540
1986.0 0.000504 1823.68750 1932.42664
1956.0 0.000511 1823.52393 1919.91650
1914.0 0.000522 1823.35925 1910.23254
1868.0 0.000535 1823.19397 1902.50696
1832.0 0.000546 1823.02759 1896.17114
1916.0 0.000522 1822.86047 1890.86377
1865.0 0.000536 1822.69250 1886.35376
1906.0 0.000525 1822.52380 1882.49182
1873.0 0.000534 1822.35413 1879.18286
1814.0 0.000551 1822.18372 1876.16406
1895.0 0.000528 1822.01257 1873.83521
1874.0 0.000534 1821.84058 1871.99670
1855.0 0.000539 1821.66785 1871.38708
1803.0 0.000555 1821.49451 1870.68774
1881.0 0.000532 1821.32019 1870.65930
1827.0 0.000547 1821.14526 1871.36194
1855.0 0.000539 1820.96973 1872.80750
1857.0 0.000539 1820.79333 1874.90210
1821.0 0.000549 1820.61633 1877.35059
1744.0 0.000573 1820.43860 1879.53137
1805.0 0.000554 1820.26025 1880.50916
1849.0 0.000541 1820.08130 1879.46082
1855.0 0.000539 1819.90173 1876.32983
1862.0 0.000537 1819.72144 1871.87512
1846.0 0.000542 1819.54065 1867.03333
1801.0 0.000555 1819.35925 1862.44690
1825.0 0.000548 1819.17725 1858.42114
1851.0 0.000540 1818.99463 1855.04517
1914.0 0.000522 1818.81165 1853.77649
1880.0 0.000532 1818.62793 1851.58948
1838.0 0.000544 1818.44385 1849.84119
1824.0 0.000548 1818.25928 1848.43091
1781.0 0.000561 1818.07410 1847.27100
1848.0 0.000541 1817.88855 1846.29565
1900.0 0.000526 1817.70251 1845.45703
1862.0 0.000537 1817.51611 1844.72388
1839.0 0.000544 1817.32910 1844.07397
1863.0 0.000537 1817.14185 1843.49609
1908.0 0.000524 1816.95422 1842.98047
1829.0 0.000547 1816.76611 1842.52283
1835.0 0.000545 1816.57776 1842.11987
1861.0 0.000537 1816.38892 1841.77026
1806.0 0.000554 1816.19983 1841.47388
1790.0 0.000559 1816.01050 1841.23206
1856.0 0.000539 1815.82080 1841.04834
1854.0 0.000539 1815.63074 1840.92737
1859.0 0.000538 1815.44055 1840.87915
1794.0 0.000557 1815.25012 1840.91833
1855.0 0.000539 1815.05933 1841.06653
1820.0 0.000549 1814.86841 1841.35767
1787.0 0.000560 1814.67737 1838.99426
1847.0 0.000541 1814.48608 1839.76697
1859.0 0.000538 1814.29456 1840.85767
1883.0 0.000531 1814.10291 1842.33838
1891.0 0.000529 1813.91125 1844.26514
1785.0 0.000560 1813.71936 1846.65918
1859.0 0.000538 1813.52747 1849.46155
1862.0 0.000537 1813.33533 1852.46875
1857.0 0.000539 1813.14331 1855.25098
1789.0 0.000559 1812.95117 1857.17896
1842.0 0.000543 1812.75903 1857.74341
1816.0 0.000551 1812.56689 1856.98096
1881.0 0.000532 1812.37476 1855.45288
1824.0 0.000548 1812.18262 1853.81067
1725.0 0.000580 1811.99060 1852.49695
1757.0 0.000569 1811.79858 1851.73816
1801.0 0.000555 1811.60657 1851.62720
1810.0 0.000552 1811.41467 1852.19324
1784.0 0.000561 1811.22290 1853.44470
1841.0 0.000543 1811.03137 1855.40063
1826.0 0.000548 1810.83984 1858.11926
1862.0 0.000537 1810.64856 1861.72498
1839.0 0.000544 1810.45740 1866.43750
1866.0 0.000536 1810.26648 1872.60132
1825.0 0.000548 1810.07581 1877.87048
1882.0 0.000531 1809.88538 1888.63000
1927.0 0.000519 1809.69507 1902.81848
1970.0 0.000508 1809.50513 1921.39331
1940.0 0.000515 1809.31543 1945.38074
1980.0 0.000505 1809.12610 1975.72815
2004.0 0.000499 1808.93701 2012.97058
1986.0 0.000504 1808.74829 2056.59595
2017.0 0.000496 1808.55994 2102.40845
2151.0 0.000465 1808.37195 2151.08765
2148.0 0.000466 1808.18433 2198.72534
2274.0 0.000440 1807.99719 2246.78760
2316.0 0.000432 1807.81042 2297.02026
2404.0 0.000416 1807.62402 2345.94702
2295.0 0.000436 1807.43823 2381.82739
2377.0 0.000421 1807.25281 2388.58350
2359.0 0.000424 1807.06799 2357.59082
2203.0 0.000454 1806.88354 2295.96851
2225.0 0.000449 1806.69971 2220.52075
2095.0 0.000477 1806.51636 2144.98389
2103.0 0.000476 1806.33362 2077.76636
2057.0 0.000486 1806.15149 2021.93079
1923.0 0.000520 1805.96997 1977.70728
1944.0 0.000514 1805.78894 1943.90991
1864.0 0.000536 1805.60864 1918.74133
1885.0 0.000531 1805.42896 1900.26099
1949.0 0.000513 1805.24976 1886.75342
1917.0 0.000522 1805.07153 1876.78186
1893.0 0.000528 1804.89380 1869.28552
1868.0 0.000535 1804.71692 1863.52356
1806.0 0.000554 1804.54065 1859.00500
1863.0 0.000537 1804.36523 1855.40356
1891.0 0.000529 1804.19055 1852.51111
1956.0 0.000511 1804.01648 1850.18738
1944.0 0.000514 1803.84351 1848.33508
1921.0 0.000521 1803.67102 1846.88208
1925.0 0.000519 1803.49951 1845.78210
1956.0 0.000511 1803.32886 1844.99438
2022.0 0.000495 1803.15906 1844.49109
1928.0 0.000519 1802.99011 1844.25244
1836.0 0.000545 1802.82202 1844.26526
1863.0 0.000537 1802.65491 1844.52258
1974.0 0.000507 1802.48865 1845.02307
1921.0 0.000521 1802.32336 1845.76965
1981.0 0.000505 1802.15894 1846.81335
1897.0 0.000527 1801.99561 1848.08533
1944.0 0.000514 1801.83325 1849.64722
1910.0 0.000524 1801.67175 1850.98779
1917.0 0.000522 1801.51147 1853.22693
1890.0 0.000529 1801.35205 1855.86182
1894.0 0.000528 1801.19360 1858.94983
1898.0 0.000527 1801.03638 1862.56274
1897.0 0.000527 1800.88013 1866.79285
1906.0 0.000525 1800.72498 1871.76367
1862.0 0.000537 1800.57092 1877.64404
1934.0 0.000517 1800.41797 1884.67151
1927.0 0.000519 1800.26611 1893.20313
1887.0 0.000530 1800.11548 1903.77576
1898.0 0.000527 1799.96594 1917.20154
1985.0 0.000504 1799.81763 1934.67212
2010.0 0.000498 1799.67029 1957.86401
2062.0 0.000485 1799.52441 1988.92102
2063.0 0.000485 1799.37964 2030.43030
2118.0 0.000472 1799.23596 2085.09595
2098.0 0.000477 1799.09375 2155.25024
2213.0 0.000452 1798.95251 2242.09961
2279.0 0.000439 1798.81262 2344.21899
2462.0 0.000406 1798.67407 2455.53174
2589.0 0.000386 1798.53674 2561.93188
2710.0 0.000369 1798.40063 2640.44165
2703.0 0.000370 1798.26599 2667.84644
2634.0 0.000380 1798.13257 2637.90796
2595.0 0.000385 1798.00049 2567.58569
2478.0 0.000404 1797.86975 2483.37769
2349.0 0.000426 1797.74036 2406.68750
2313.0 0.000432 1797.61230 2350.51123
2333.0 0.000429 1797.48560 2322.25586
2233.0 0.000448 1797.36023 2326.69189
2244.0 0.000446 1797.23645 2367.46167
2471.0 0.000405 1797.11389 2447.54907
2529.0 0.000395 1796.99280 2568.62598
2685.0 0.000372 1796.87317 2729.70239
2848.0 0.000351 1796.75500 2924.18506
2985.0 0.0003350 1796.63818 3134.56860
3381.0 0.0002958 1796.52283 3325.79297
3323.0 0.0003009 1796.40906 3446.11377
3370.0 0.0002967 1796.29663 3450.14917
3153.0 0.0003172 1796.18567 3333.81787
3053.0 0.0003275 1796.07629 3137.73975
2945.0 0.0003396 1795.96838 2914.62427
2739.0 0.000365 1795.86194 2700.29102
2505.0 0.000399 1795.75708 2513.59424
2373.0 0.000421 1795.65369 2360.45459
2328.0 0.000430 1795.55188 2240.10181
2219.0 0.000451 1795.45154 2148.46362
2140.0 0.000467 1795.35291 2080.14380
1946.0 0.000514 1795.25562 2029.67053
2104.0 0.000475 1795.16003 1992.32983
2035.0 0.000491 1795.06604 1964.12756
1901.0 0.000526 1794.97351 1942.36206
1905.0 0.000525 1794.88257 1925.10229
1962.0 0.000510 1794.79321 1911.06519
1938.0 0.000516 1794.70569 1899.40747
1861.0 0.000537 1794.61951 1889.57092
1832.0 0.000546 1794.53503 1881.17151
1908.0 0.000524 1794.45215 1873.93567
1869.0 0.000535 1794.37097 1867.65930
1910.0 0.000524 1794.29138 1862.18445
1858.0 0.000538 1794.21338 1857.38660
1894.0 0.000528 1794.13708 1853.16589
1727.0 0.000579 1794.06238 1849.44067
1847.0 0.000541 1793.98926 1846.14526
1884.0 0.000531 1793.91797 1843.22461
1878.0 0.000532 1793.84827 1840.63416
1818.0 0.000550 1793.78015 1838.33618
1747.0 0.000572 1793.71387 1836.30042
1834.0 0.000545 1793.64917 1834.50159
1853.0 0.000540 1793.58606 1832.90234
1828.0 0.000547 1793.52478 1831.52002
1835.0 0.000545 1793.46509 1830.32434
1860.0 0.000538 1793.40710 1829.30603
1751.0 0.000571 1793.35071 1828.45813
1786.0 0.000560 1793.29614 1827.77747
1873.0 0.000534 1793.24329 1827.26379
1816.0 0.000551 1793.19202 1826.92041
1815.0 0.000551 1793.14258 1826.75586
1815.0 0.000551 1793.09473 1826.78308
1833.0 0.000546 1793.04858 1827.02478
1880.0 0.000532 1793.00415 1827.51355
1923.0 0.000520 1792.96155 1828.29834
1791.0 0.000558 1792.92053 1829.44617
1729.0 0.000578 1792.88123 1831.04919
1846.0 0.000542 1792.84375 1833.22290
1766.0 0.000566 1792.80786 1836.10388
1912.0 0.000523 1792.77368 1839.84485
1878.0 0.000532 1792.74121 1844.60022
1832.0 0.000546 1792.71057 1850.51147
1937.0 0.000516 1792.68152 1857.67065
1943.0 0.000515 1792.65430 1866.06165
1901.0 0.000526 1792.62866 1875.50244
1866.0 0.000536 1792.60486 1885.76770
1892.0 0.000529 1792.58264 1896.95239
1939.0 0.000516 1792.56226 1910.50867
1887.0 0.000530 1792.54358 1928.27100
1936.0 0.000517 1792.52649 1952.22009
2018.0 0.000496 1792.51111 1983.68555
2023.0 0.000494 1792.49756 2022.86499
2018.0 0.000496 1792.48560 2067.65552
2155.0 0.000464 1792.47534 2114.23315
2121.0 0.000471 1792.46692 2153.16040
2266.0 0.000441 1792.46008 2172.77441
2097.0 0.000477 1792.45496 2165.30151
2132.0 0.000469 1792.45154 2133.26245
2062.0 0.000485 1792.44983 2087.17480
2115.0 0.000473 1792.44971 2037.80811
2022.0 0.000495 1792.45129 1992.02429
1894.0 0.000528 1792.45459 1952.92847
2003.0 0.000499 1792.45959 1921.32678
1898.0 0.000527 1792.46619 1896.81189
1887.0 0.000530 1792.47449 1878.38892
1874.0 0.000534 1792.48450 1864.84167
1900.0 0.000526 1792.49609 1854.96594
1820.0 0.000549 1792.50928 1847.72644
1875.0 0.000533 1792.52429 1842.35327
1914.0 0.000522 1792.54077 1838.36340
1829.0 0.000547 1792.55896 1835.49744
1803.0 0.000555 1792.57886 1833.64136
1799.0 0.000556 1792.60034 1832.77087
1848.0 0.000541 1792.62341 1832.92236
1840.0 0.000543 1792.64807 1834.16003
1820.0 0.000549 1792.67432 1836.53906
1831.0 0.000546 1792.70227 1840.05737
1860.0 0.000538 1792.73169 1844.57593
1863.0 0.000537 1792.76282 1849.68567
1848.0 0.000541 1792.79553 1854.53503
1815.0 0.000551 1792.82971 1857.81335
1829.0 0.000547 1792.86560 1858.26379
1819.0 0.000550 1792.90295 1855.59302
1848.0 0.000541 1792.94189 1850.73035
1816.0 0.000551 1792.98242 1845.06384
1790.0 0.000559 1793.02441 1839.67041
1833.0 0.000546 1793.06799 1835.13586
1904.0 0.000525 1793.11292 1831.69958
1824.0 0.000548 1793.15967 1829.41052
1878.0 0.000532 1793.20764 1828.21875
1781.0 0.000561 1793.25732 1828.03589
1784.0 0.000561 1793.30847 1828.78198
1844.0 0.000542 1793.36096 1830.42224
1875.0 0.000533 1793.41492 1832.96106
1786.0 0.000560 1793.47046 1836.38293
1762.0 0.000568 1793.52747 1840.57166
1782.0 0.000561 1793.58582 1845.28992
1862.0 0.000537 1793.64563 1850.30750
1865.0 0.000536 1793.70691 1855.57605
1885.0 0.000531 1793.76965 1861.13708
1854.0 0.000539 1793.83362 1866.71521
1868.0 0.000535 1793.89917 1871.38464
1968.0 0.000508 1793.96606 1873.76416
1915.0 0.000522 1794.03418 1872.93457
1912.0 0.000523 1794.10376 1869.29297
1880.0 0.000532 1794.17480 1864.24377
1817.0 0.000550 1794.24707 1859.21228
1914.0 0.000522 1794.32068 1854.42188
1824.0 0.000548 1794.39575 1851.71106
1825.0 0.000548 1794.47192 1850.54309
1778.0 0.000562 1794.54944 1850.96912
1843.0 0.000543 1794.62830 1853.02173
1860.0 0.000538 1794.70837 1856.79468
1909.0 0.000524 1794.78979 1862.51758
1845.0 0.000542 1794.87231 1870.63318
1834.0 0.000545 1794.95630 1881.87415
1884.0 0.000531 1795.04138 1897.31921
1924.0 0.000520 1795.12769 1918.40881
1830.0 0.000546 1795.21521 1946.87708
1973.0 0.000507 1795.30383 1984.57312
2032.0 0.000492 1795.39368 2033.14465
2118.0 0.000472 1795.48474 2093.52979
2108.0 0.000474 1795.57690 2163.62915
2326.0 0.000430 1795.67017 2242.78931
2361.0 0.000424 1795.76465 2321.13965
2378.0 0.000421 1795.86035 2382.34424
2431.0 0.000411 1795.95691 2409.50366
2450.0 0.000408 1796.05469 2394.42432
2404.0 0.000416 1796.15344 2345.30664
2372.0 0.000422 1796.25342 2279.85132
2242.0 0.000446 1796.35425 2213.66675
2166.0 0.000462 1796.45618 2155.38330
2074.0 0.000482 1796.55920 2107.40625
2101.0 0.000476 1796.66321 2067.96875
1990.0 0.000503 1796.76807 2033.43860
2004.0 0.000499 1796.87402 2001.02808
2010.0 0.000498 1796.98096 1970.32568
2036.0 0.000491 1797.08862 1942.40698
1950.0 0.000513 1797.19739 1918.23145
1862.0 0.000537 1797.30713 1898.05237
1881.0 0.000532 1797.41772 1881.61145
1881.0 0.000532 1797.52917 1868.42798
1828.0 0.000547 1797.64160 1857.96716
1811.0 0.000552 1797.75476 1849.70837
1831.0 0.000546 1797.86877 1843.18274
1833.0 0.000546 1797.98364 1837.99011
1783.0 0.000561 1798.09924 1833.80627
1841.0 0.000543 1798.21570 1830.38257
1848.0 0.000541 1798.33301 1827.53638
1903.0 0.000525 1798.45105 1825.13403
1831.0 0.000546 1798.56970 1823.08203
1750.0 0.000571 1798.68933 1821.31226
1843.0 0.000543 1798.80957 1819.77478
1733.0 0.000577 1798.93042 1818.43079
1830.0 0.000546 1799.05200 1817.25159
1810.0 0.000552 1799.17432 1816.21277
1773.0 0.000564 1799.29724 1815.29614
1799.0 0.000556 1799.42078 1814.48376
1871.0 0.000534 1799.54492 1813.76404
1880.0 0.000532 1799.66968 1813.12427
1860.0 0.000538 1799.79517 1812.55603
1892.0 0.000529 1799.92102 1812.05042
1798.0 0.000556 1800.04761 1811.60095
1770.0 0.000565 1800.17468 1811.20105
1836.0 0.000545 1800.30225 1810.84583
1863.0 0.000537 1800.43030 1812.25403
1838.0 0.000544 1800.55884 1811.99890
1819.0 0.000550 1800.68799 1811.77710
1816.0 0.000551 1800.81738 1811.58557
1822.0 0.000549 1800.94739 1811.42224
1749.0 0.000572 1801.07788 1811.28394
1828.0 0.000547 1801.20850 1811.16931
1866.0 0.000536 1801.33984 1811.07666
1856.0 0.000539 1801.47131 1811.00439
1796.0 0.000557 1801.60327 1810.95020
1723.0 0.000580 1801.73547 1810.91443
1830.0 0.000546 1801.86816 1810.89478
1856.0 0.000539 1802.00098 1810.86523
1817.0 0.000550 1802.13416 1810.87659
1783.0 0.000561 1802.26770 1810.90271
1806.0 0.000554 1802.40125 1810.94226
1816.0 0.000551 1802.53528 1810.99487
1852.0 0.000540 1802.66943 1811.06128
1841.0 0.000543 1802.80383 1811.14014
1715.0 0.000583 1802.93835 1811.23169
1764.0 0.000567 1803.07312 1811.33630
1812.0 0.000552 1803.20801 1811.45410
1797.0 0.000556 1803.34302 1811.24121
1754.0 0.000570 1803.47815 1811.39209
1790.0 0.000559 1803.61340 1814.67078
1734.0 0.000577 1803.74866 1814.89453
1817.0 0.000550 1803.88403 1815.13770
1750.0 0.000571 1804.01953 1815.40247
1890.0 0.000529 1804.15503 1815.69238
1802.0 0.000555 1804.29053 1816.01306
1703.0 0.000587 1804.42603 1816.37292
1765.0 0.000567 1804.56152 1816.78369
1840.0 0.000543 1804.69690 1817.26343
1802.0 0.000555 1804.83228 1817.83740
1829.0 0.000547 1804.96753 1818.53711
1728.0 0.000579 1805.10278 1819.40686
1763.0 0.000567 1805.23792 1820.49109
1777.0 0.000563 1805.37280 1821.83447
1824.0 0.000548 1805.50769 1823.47058
1801.0 0.000555 1805.64246 1825.40771
1811.0 0.000552 1805.77686 1827.59790
1839.0 0.000544 1805.91125 1829.89380
1781.0 0.000561 1806.04529 1831.99365
1782.0 0.000561 1806.17920 1833.45508
1860.0 0.000538 1806.31287 1833.88794
1816.0 0.000551 1806.44629 1833.24158
1771.0 0.000565 1806.57935 1831.84827
1816.0 0.000551 1806.71216 1830.16382
1752.0 0.000571 1806.84473 1828.48853
1843.0 0.000543 1806.97681 1827.08691
1804.0 0.000554 1807.10864 1825.98816
1798.0 0.000556 1807.23999 1825.18628
1775.0 0.000563 1807.37109 1824.65723
1821.0 0.000549 1807.50171 1824.35828
1876.0 0.000533 1807.63196 1824.24341
1830.0 0.000546 1807.76184 1824.27136
1789.0 0.000559 1807.89124 1824.40771
1865.0 0.000536 1808.02014 1824.62427
1823.0 0.000549 1808.14856 1824.90564
1892.0 0.000529 1808.27649 1825.23816
1830.0 0.000546 1808.40381 1825.61414
1759.0 0.000569 1808.53064 1826.02869
1854.0 0.000539 1808.65698 1826.47986
1836.0 0.000545 1808.78271 1826.95630
1788.0 0.000559 1808.90784 1827.48145
1747.0 0.000572 1809.03247 1828.04565
1880.0 0.000532 1809.15637 1828.65137
1866.0 0.000536 1809.27966 1829.30103
1845.0 0.000542 1809.40234 1829.99841
1817.0 0.000550 1809.52429 1830.69678
1775.0 0.000563 1809.64563 1831.49170
1852.0 0.000540 1809.76636 1832.33044
1796.0 0.000557 1809.88611 1833.54578
1827.0 0.000547 1810.00525 1834.43628
1801.0 0.000555 1810.12366 1835.33093
1876.0 0.000533 1810.24133 1836.23462
1872.0 0.000534 1810.35815 1837.16931
1775.0 0.000563 1810.47424 1838.16150
1802.0 0.000555 1810.58960 1839.23376
1833.0 0.000546 1810.70398 1840.40161
1836.0 0.000545 1810.81750 1841.67883
1805.0 0.000554 1810.93030 1843.07739
1898.0 0.000527 1811.04211 1844.61218
1867.0 0.000536 1811.15308 1846.29932
1843.0 0.000543 1811.26306 1848.15955
1812.0 0.000552 1811.37219 1850.21680
1751.0 0.000571 1811.48047 1852.50073
1838.0 0.000544 1811.58765 1855.04614
1783.0 0.000561 1811.69397 1857.89307
1852.0 0.000540 1811.79919 1861.08752
1783.0 0.000561 1811.90344 1864.67871
1871.0 0.000534 1812.00671 1868.72229
1894.0 0.000528 1812.10901 1873.28027
1828.0 0.000547 1812.21021 1877.87573
1870.0 0.000535 1812.31030 1883.83411
1917.0 0.000522 1812.40942 1890.88220
1861.0 0.000537 1812.50745 1899.52197
1926.0 0.000519 1812.60425 1910.36780
1918.0 0.000521 1812.70007 1924.36487
1956.0 0.000511 1812.79468 1942.72021
1942.0 0.000515 1812.88818 1966.94775
1965.0 0.000509 1812.98047 1998.70251
2056.0 0.000486 1813.07178 2039.98169
2000.0 0.000500 1813.16162 2092.26001
2189.0 0.000457 1813.25037 2156.77759
2306.0 0.000434 1813.33801 2231.97192
2362.0 0.000423 1813.42432 2314.43628
2411.0 0.000415 1813.50940 2395.15088
2517.0 0.000397 1813.59326 2458.67993
2605.0 0.000384 1813.67578 2487.14844
2561.0 0.000390 1813.75708 2470.98462
2491.0 0.000401 1813.83704 2416.69019
2359.0 0.000424 1813.91577 2341.43774
2335.0 0.000428 1813.99316 2261.77246
2260.0 0.000442 1814.06909 2188.06348
2211.0 0.000452 1814.14392 2125.03613
2104.0 0.000475 1814.21716 2073.94580
2101.0 0.000476 1814.28906 2034.22400
2085.0 0.000480 1814.35974 2004.42676
1990.0 0.000503 1814.42896 1982.78650
1984.0 0.000504 1814.49670 1967.55237
2025.0 0.000494 1814.56299 1957.19141
1992.0 0.000502 1814.62793 1950.48071
1960.0 0.000510 1814.69153 1946.51501
1974.0 0.000507 1814.75342 1944.66992
1855.0 0.000539 1814.81409 1944.54553
2004.0 0.000499 1814.87317 1945.88696
1917.0 0.000522 1814.93079 1948.56970
1939.0 0.000516 1814.98682 1952.54639
2030.0 0.000493 1815.04138 1957.83191
2012.0 0.000497 1815.09448 1964.49670
1943.0 0.000515 1815.14600 1972.66553
1984.0 0.000504 1815.19604 1982.52551
1933.0 0.000517 1815.24451 1994.34546
2008.0 0.000498 1815.29138 2008.51086
1984.0 0.000504 1815.33667 2025.57910
1995.0 0.000501 1815.38049 2046.37109
2026.0 0.000494 1815.42249 2072.10205
2043.0 0.000489 1815.46301 2104.55713
2116.0 0.000473 1815.50195 2146.28491
2118.0 0.000472 1815.53931 2200.77393
2342.0 0.000427 1815.57495 2272.51978
2461.0 0.000406 1815.60901 2366.90039
2578.0 0.000388 1815.64136 2489.75317
2699.0 0.000371 1815.67212 2646.57935
2987.0 0.0003348 1815.70117 2841.24243
3162.0 0.0003163 1815.72864 3073.81152
3438.0 0.0002909 1815.75427 3336.75537
3643.0 0.0002745 1815.77832 3608.75342
3814.0 0.0002622 1815.80066 3848.44897
4071.0 0.0002456 1815.82129 3998.51685
4245.0 0.0002356 1815.84009 4012.33179
4023.0 0.0002486 1815.85730 3888.33203
3901.0 0.0002563 1815.87280 3671.47998
3588.0 0.0002787 1815.88647 3419.83447
3292.0 0.0003038 1815.89844 3176.51587
3135.0 0.0003190 1815.90869 2964.46655
2908.0 0.0003439 1815.91724 2792.49707
2680.0 0.000373 1815.92383 2661.87378
2604.0 0.000384 1815.92883 2569.57324
2462.0 0.000406 1815.93201 2511.87329
2469.0 0.000405 1815.93335 2485.13745
2408.0 0.000415 1815.93298 2487.14380
2491.0 0.000401 1815.93079 2517.86499
2424.0 0.000413 1815.92688 2579.91211
2610.0 0.000383 1815.92102 2678.58936
2617.0 0.000382 1815.91357 2821.49341
2989.0 0.0003346 1815.90405 3017.57593
3152.0 0.0003173 1815.89282 3275.57788
3583.0 0.0002791 1815.87988 3601.62061
4090.0 0.0002445 1815.86499 3995.33911
4534.0 0.0002206 1815.84827 4443.15186
5101.0 0.0001960 1815.82983 4907.40088
5587.0 0.0001790 1815.80933 5315.32031
5803.0 0.0001723 1815.78723 5565.76465
5705.0 0.0001753 1815.76306 5575.21338
5461.0 0.0001831 1815.73730 5338.36182
5196.0 0.0001925 1815.70947 4932.26416
4754.0 0.0002103 1815.67993 4458.99023
4137.0 0.0002417 1815.64844 3995.17700
3729.0 0.0002682 1815.61511 3581.70947
3307.0 0.0003024 1815.57996 3233.89380
3085.0 0.0003241 1815.54297 2952.75098
2821.0 0.000354 1815.50415 2732.06714
2638.0 0.000379 1815.46338 2562.42065
2483.0 0.000403 1815.42078 2433.58081
2430.0 0.000412 1815.37622 2335.97754
2184.0 0.000458 1815.32996 2261.51221
2254.0 0.000444 1815.28174 2203.83301
2151.0 0.000465 1815.23157 2158.25439
2121.0 0.000471 1815.17969 2121.46948
2008.0 0.000498 1815.12585 2091.21191
2080.0 0.000481 1815.07019 2065.94165
1970.0 0.000508 1815.01270 2044.60388
2144.0 0.000466 1814.95325 2026.46558
2055.0 0.000487 1814.89197 2010.96301
1991.0 0.000502 1814.82898 1997.68909
1982.0 0.000505 1814.76392 1986.30139
1996.0 0.000501 1814.69702 1976.74365
1989.0 0.000503 1814.62830 1968.21533
1928.0 0.000519 1814.55774 1960.67871
1852.0 0.000540 1814.48523 1953.92029
1969.0 0.000508 1814.41089 1947.86597
1953.0 0.000512 1814.33484 1942.56152
1931.0 0.000518 1814.25684 1938.11877
1906.0 0.000525 1814.17700 1934.57568
1983.0 0.000504 1814.09546 1932.02747
1970.0 0.000508 1814.01184 1930.56555
1944.0 0.000514 1813.92651 1930.33374
1904.0 0.000525 1813.83936 1931.55811
1949.0 0.000513 1813.75049 1934.67749
1952.0 0.000512 1813.65967 1940.02502
2000.0 0.000500 1813.56702 1948.37793
2011.0 0.000497 1813.47266 1960.60596
1960.0 0.000510 1813.37634 1977.71301
2016.0 0.000496 1813.27832 2000.73438
2015.0 0.000496 1813.17847 2030.55811
2109.0 0.000474 1813.07690 2067.63623
2134.0 0.000469 1812.97351 2111.49072
2199.0 0.000455 1812.86829 2159.84253
2185.0 0.000458 1812.76135 2207.36938
2189.0 0.000457 1812.65271 2244.99365
2166.0 0.000462 1812.54224 2262.04761
2311.0 0.000433 1812.42993 2252.33984
2270.0 0.000441 1812.31616 2218.95923
2168.0 0.000461 1812.20044 2171.77734
2146.0 0.000466 1812.08301 2120.92261
2125.0 0.000471 1811.96399 2073.07056
2072.0 0.000483 1811.84314 2031.44666
2022.0 0.000495 1811.72058 1997.05469
2008.0 0.000498 1811.59644 1969.70886
1956.0 0.000511 1811.47058 1948.64697
1916.0 0.000522 1811.34302 1932.87476
1826.0 0.000548 1811.21387 1921.38416
1821.0 0.000549 1811.08301 1913.28137
1800.0 0.000556 1810.95044 1907.85901
1900.0 0.000526 1810.81641 1904.61438
1916.0 0.000522 1810.68066 1903.24475
1801.0 0.000555 1810.54333 1903.61597
1866.0 0.000536 1810.40442 1905.73901
1953.0 0.000512 1810.26392 1909.74841
1899.0 0.000527 1810.12183 1915.88513
1884.0 0.000531 1809.97815 1924.48450
1871.0 0.000534 1809.83289 1935.93579
1817.0 0.000550 1809.68628 1950.60913
1955.0 0.000512 1809.53796 1968.78491
1892.0 0.000529 1809.38818 1990.73328
1971.0 0.000507 1809.23706 2017.08813
2064.0 0.000484 1809.08423 2049.01123
2005.0 0.000499 1808.93005 2087.89844
2069.0 0.000483 1808.77429 2134.27002
2147.0 0.000466 1808.61731 2186.53857
2248.0 0.000445 1808.45874 2239.60303
2345.0 0.000426 1808.29883 2283.87524
2308.0 0.000433 1808.13757 2307.03247
2277.0 0.000439 1807.97485 2300.34521
2209.0 0.000453 1807.81067 2265.14185
2191.0 0.000456 1807.64526 2211.68433
2135.0 0.000468 1807.47852 2151.95459
2051.0 0.000488 1807.31042 2094.47119
2025.0 0.000494 1807.14111 2043.09644
1918.0 0.000521 1806.97046 2000.39368
1925.0 0.000519 1806.79846 1965.81750
1928.0 0.000519 1806.62524 1938.56104
1918.0 0.000521 1806.45081 1917.47961
1881.0 0.000532 1806.27527 1901.35925
1882.0 0.000531 1806.09839 1889.07629
1890.0 0.000529 1805.92041 1879.68335
1834.0 0.000545 1805.74121 1872.44055
1801.0 0.000555 1805.56079 1866.80212
1892.0 0.000529 1805.37927 1862.38037
1872.0 0.000534 1805.19678 1858.91028
1916.0 0.000522 1805.01318 1856.17285
1820.0 0.000549 1804.82837 1853.99878
1773.0 0.000564 1804.64270 1852.19641
1826.0 0.000548 1804.45581 1850.54126
1849.0 0.000541 1804.26794 1848.81494
1808.0 0.000553 1804.07910 1846.90039
1821.0 0.000549 1803.88940 1844.84155
1843.0 0.000543 1803.69861 1842.78064
1813.0 0.000552 1803.50696 1840.85645
1768.0 0.000566 1803.31445 1839.15540
1968.0 0.000508 1803.12085 1837.71326
1844.0 0.000542 1802.92651 1836.53772
1804.0 0.000554 1802.73132 1835.62244
1791.0 0.000558 1802.53540 1834.95508
1827.0 0.000547 1802.33850 1834.52417
1833.0 0.000546 1802.14087 1834.32263
1771.0 0.000565 1801.94263 1834.34692
1830.0 0.000546 1801.74341 1834.88770
1786.0 0.000560 1801.54358 1835.39246
1820.0 0.000549 1801.34314 1836.16443
1815.0 0.000551 1801.14197 1837.23901
1771.0 0.000565 1800.94006 1838.66797
1867.0 0.000536 1800.73767 1840.53479
1828.0 0.000547 1800.53455 1842.97742
1806.0 0.000554 1800.33093 1846.21130
1893.0 0.000528 1800.12683 1850.54443
1808.0 0.000553 1799.92200 1856.37671
1886.0 0.000530 1799.71680 1864.19214
1797.0 0.000556 1799.51099 1874.53748
1940.0 0.000515 1799.30493 1886.24548
1880.0 0.000532 1799.09827 1903.27380
1925.0 0.000519 1798.89124 1924.16138
1964.0 0.000509 1798.68396 1948.67627
1951.0 0.000513 1798.47607 1975.74988
1996.0 0.000501 1798.26794 2002.75940
2075.0 0.000482 1798.05945 2025.14075
2057.0 0.000486 1797.85083 2037.15088
2057.0 0.000486 1797.64185 2034.98560
1919.0 0.000521 1797.43262 2019.50134
1959.0 0.000510 1797.22314 1995.57300
2063.0 0.000485 1797.01355 1968.79944
1978.0 0.000506 1796.80383 1943.18018
1908.0 0.000524 1796.59375 1920.82605
1837.0 0.000544 1796.38391 1902.56213
1839.0 0.000544 1796.17371 1888.51416
1932.0 0.000518 1795.96350 1878.47327
1831.0 0.000546 1795.75330 1872.09485
1848.0 0.000541 1795.54309 1869.00977
1867.0 0.000536 1795.33289 1868.98499
1885.0 0.000531 1795.12280 1871.48804
1899.0 0.000527 1794.91272 1876.45483
1868.0 0.000535 1794.70264 1883.06592
1871.0 0.000534 1794.49268 1890.65295
1916.0 0.000522 1794.28296 1894.72888
1867.0 0.000536 1794.07349 1899.78040
1915.0 0.000522 1793.86401 1901.17554
1862.0 0.000537 1793.65503 1898.67505
1842.0 0.000543 1793.44604 1893.30762
1853.0 0.000540 1793.23743 1886.51001
1882.0 0.000531 1793.02917 1879.45154
1858.0 0.000538 1792.82104 1872.98865
1865.0 0.000536 1792.61353 1867.78772
1862.0 0.000537 1792.40625 1864.35266
1819.0 0.000550 1792.19946 1863.04236
1920.0 0.000521 1791.99292 1864.16418
1890.0 0.000529 1791.78699 1867.96899
1896.0 0.000527 1791.58167 1874.85022
1894.0 0.000528 1791.37659 1885.26245
1878.0 0.000532 1791.17224 1899.71509
1913.0 0.000523 1790.96826 1918.66956
1935.0 0.000517 1790.76514 1942.36877
1979.0 0.000505 1790.56250 1970.60229
2085.0 0.000480 1790.36047 2002.46606
2035.0 0.000491 1790.15906 2036.12073
2044.0 0.000489 1789.95850 2068.37329
2009.0 0.000498 1789.75854 2094.20996
2065.0 0.000484 1789.55933 2107.58008
2105.0 0.000475 1789.36096 2104.61914
1970.0 0.000508 1789.16321 2086.84131
2064.0 0.000484 1788.96643 2060.28394
2078.0 0.000481 1788.77039 2031.61646
2038.0 0.000491 1788.57532 2005.34961
1930.0 0.000518 1788.38110 1983.52905
1960.0 0.000510 1788.18787 1966.63354
1955.0 0.000512 1787.99548 1954.53699
1902.0 0.000526 1787.80396 1946.87793
1927.0 0.000519 1787.61365 1942.78430
1922.0 0.000520 1787.42419 1940.46814
1997.0 0.000501 1787.23584 1937.28552
1996.0 0.000501 1787.04846 1930.70337
1947.0 0.000514 1786.86230 1919.74158
1931.0 0.000518 1786.67725 1905.45703
1872.0 0.000534 1786.49316 1889.90234
1929.0 0.000518 1786.31042 1874.85547
1807.0 0.000553 1786.12878 1861.33936
1886.0 0.000530 1785.94824 1849.78149
1769.0 0.000565 1785.76892 1840.14050
1787.0 0.000560 1785.59106 1832.28625
1870.0 0.000535 1785.41431 1825.97412
1862.0 0.000537 1785.23877 1820.93591
1849.0 0.000541 1785.06470 1816.91333
1879.0 0.000532 1784.89185 1813.33936
1853.0 0.000540 1784.72034 1810.71667
1789.0 0.000559 1784.55017 1808.55591
1880.0 0.000532 1784.38147 1806.74878
1847.0 0.000541 1784.21411 1805.21973
1849.0 0.000541 1784.04822 1803.91431
1889.0 0.000529 1783.88391 1802.79456
1919.0 0.000521 1783.72083 1801.83533
1771.0 0.000565 1783.55933 1801.02026
1816.0 0.000551 1783.39929 1800.33911
1825.0 0.000548 1783.24084 1799.79150
1798.0 0.000556 1783.08386 1799.37964
1806.0 0.000554 1782.92859 1799.11902
1848.0 0.000541 1782.77466 1799.02966
1892.0 0.000529 1782.62244 1799.14368
1881.0 0.000532 1782.47180 1799.50012
1890.0 0.000529 1782.32275 1800.14307
1832.0 0.000546 1782.17542 1801.11743
1889.0 0.000529 1782.02966 1802.45789
1818.0 0.000550 1781.88562 1804.17700
1828.0 0.000547 1781.74329 1806.23669
1792.0 0.000558 1781.60254 1808.50720
1813.0 0.000552 1781.46350 1810.70825
1785.0 0.000560 1781.32629 1812.39172
1856.0 0.000539 1781.19080 1813.03223
1876.0 0.000533 1781.05701 1814.04614
1727.0 0.000579 1780.92505 1812.34106
1820.0 0.000549 1780.79480 1809.98926
1830.0 0.000546 1780.66626 1807.47180
1846.0 0.000542 1780.53955 1805.11292
1838.0 0.000544 1780.41479 1803.07703
1801.0 0.000555 1780.29175 1801.42188
1804.0 0.000554 1780.17041 1799.73853
1829.0 0.000547 1780.05115 1798.82007
1841.0 0.000543 1779.93347 1798.21313
1840.0 0.000543 1779.81775 1797.87927
1794.0 0.000557 1779.70398 1797.78516
1796.0 0.000557 1779.59192 1797.90808
1740.0 0.000575 1779.48181 1798.23730
1772.0 0.000564 1779.37354 1798.77319
1774.0 0.000564 1779.26721 1799.52466
1819.0 0.000550 1779.16260 1800.50830
1827.0 0.000547 1779.06006 1801.73999
1871.0 0.000534 1778.95935 1803.23181
1816.0 0.000551 1778.86047 1804.97900
1826.0 0.000548 1778.76355 1806.94275
1788.0 0.000559 1778.66858 1809.03088
1836.0 0.000545 1778.57544 1811.09253
1827.0 0.000547 1778.48425 1812.97290
1846.0 0.000542 1778.39502 1814.62830
1731.0 0.000578 1778.30762 1816.20166
1817.0 0.000550 1778.22205 1817.97815
1845.0 0.000542 1778.13843 1820.28503
1883.0 0.000531 1778.05688 1823.44592
1862.0 0.000537 1777.97705 1827.79541
1808.0 0.000553 1777.89905 1833.74121
1903.0 0.000525 1777.82324 1841.75757
1909.0 0.000524 1777.74902 1852.41565
1895.0 0.000528 1777.67688 1867.72864
1883.0 0.000531 1777.60645 1885.61536
1939.0 0.000516 1777.53809 1907.99670
1989.0 0.000503 1777.47144 1935.17847
1984.0 0.000504 1777.40674 1966.91956
2002.0 0.000500 1777.34387 2001.91760
2046.0 0.000489 1777.28296 2037.06238
2092.0 0.000478 1777.22375 2066.88623
2079.0 0.000481 1777.16638 2084.44971
2033.0 0.000492 1777.11096 2084.60986
2071.0 0.000483 1777.05725 2067.58057
1991.0 0.000502 1777.00537 2038.78870
2142.0 0.000467 1776.95532 2005.21362
2000.0 0.000500 1776.90698 1972.24731
2035.0 0.000491 1776.86035 1942.94519
1884.0 0.000531 1776.81567 1918.61108
1950.0 0.000513 1776.77258 1899.53223
1855.0 0.000539 1776.73120 1887.84827
1900.0 0.000526 1776.69165 1878.31787
1916.0 0.000522 1776.65369 1872.65515
1834.0 0.000545 1776.61731 1870.13293
1871.0 0.000534 1776.58276 1869.93494
1879.0 0.000532 1776.54980 1871.18811
1857.0 0.000539 1776.51843 1873.02930
1864.0 0.000536 1776.48877 1874.87109
1804.0 0.000554 1776.46069 1876.35608
1848.0 0.000541 1776.43408 1877.24048
1911.0 0.000523 1776.40894 1877.44373
1815.0 0.000551 1776.38550 1877.13843
1873.0 0.000534 1776.36353 1877.63293
1884.0 0.000531 1776.34302 1879.87695
1897.0 0.000527 1776.32385 1884.94177
1984.0 0.000504 1776.30627 1893.69336
1860.0 0.000538 1776.29004 1906.78540
1949.0 0.000513 1776.27515 1924.63208
1955.0 0.000512 1776.26172 1947.27771
2074.0 0.000482 1776.24951 1974.10925
1972.0 0.000507 1776.23865 2003.40405
2026.0 0.000494 1776.22913 2031.90930
2085.0 0.000480 1776.22083 2054.97168
2092.0 0.000478 1776.21375 2067.68311
2025.0 0.000494 1776.20776 2066.81445
2139.0 0.000468 1776.20313 2052.00049
2006.0 0.000499 1776.19946 2026.57874
1949.0 0.000513 1776.19690 1995.68054
1934.0 0.000517 1776.19543 1964.04688
1904.0 0.000525 1776.19507 1934.70789
1847.0 0.000541 1776.19568 1909.26355
1776.0 0.000563 1776.19727 1888.05420
1892.0 0.000529 1776.19983 1870.89209
1834.0 0.000545 1776.20325 1857.29517
1841.0 0.000543 1776.20752 1846.70715
1741.0 0.000574 1776.21265 1838.53259
1796.0 0.000557 1776.21851 1832.24121
1797.0 0.000556 1776.22522 1827.38867
1742.0 0.000574 1776.23254 1823.62085
1801.0 0.000555 1776.24072 1820.67126
1812.0 0.000552 1776.24939 1818.34656
1842.0 0.000543 1776.25879 1816.51062
1799.0 0.000556 1776.26868 1815.07202
1753.0 0.000570 1776.27917 1813.96777
1825.0 0.000548 1776.29004 1813.16211
1857.0 0.000539 1776.30151 1812.63379
1801.0 0.000555 1776.31335 1812.38086
1813.0 0.000552 1776.32544 1812.39111
1733.0 0.000577 1776.33801 1812.73560
1790.0 0.000559 1776.35083 1813.42639
1811.0 0.000552 1776.36389 1814.50562
1764.0 0.000567 1776.37708 1815.76624
1759.0 0.000569 1776.39050 1817.74646
1790.0 0.000559 1776.40405 1820.21277
1827.0 0.000547 1776.41760 1823.15942
1801.0 0.000555 1776.43115 1826.51758
1858.0 0.000538 1776.44482 1830.08472
1847.0 0.000541 1776.45825 1833.42261
1836.0 0.000545 1776.47168 1836.17346
1821.0 0.000549 1776.48499 1837.23743
1762.0 0.000568 1776.49805 1836.58020
1859.0 0.000538 1776.51086 1834.50818
1796.0 0.000557 1776.52332 1831.66663
1813.0 0.000552 1776.53552 1828.58850
1802.0 0.000555 1776.54724 1825.85913
1886.0 0.000530 1776.55847 1823.59045
1785.0 0.000560 1776.56946 1821.84937
1788.0 0.000559 1776.57971 1820.62976
1825.0 0.000548 1776.58936 1819.88916
1817.0 0.000550 1776.59851 1819.57288
1795.0 0.000557 1776.60693 1819.62073
1740.0 0.000575 1776.61450 1819.98059
1837.0 0.000544 1776.62146 1820.61072
1881.0 0.000532 1776.62756 1821.48242
1820.0 0.000549 1776.63269 1823.71362
1842.0 0.000543 1776.63684 1825.05298
1822.0 0.000549 1776.64026 1826.63562
1800.0 0.000556 1776.64246 1828.49268
1824.0 0.000548 1776.64355 1830.67261
1762.0 0.000568 1776.64355 1833.23975
1778.0 0.000562 1776.64246 1836.27466
1869.0 0.000535 1776.64001 1839.86865
1781.0 0.000561 1776.63635 1844.11646
1828.0 0.000547 1776.63135 1849.10425
1881.0 0.000532 1776.62488 1854.88733
1833.0 0.000546 1776.61707 1861.45605
1829.0 0.000547 1776.60779 1868.67102
1820.0 0.000549 1776.59692 1876.17065
1949.0 0.000513 1776.58447 1883.29297
1868.0 0.000535 1776.57043 1889.16309
1869.0 0.000535 1776.55469 1893.06860
1925.0 0.000519 1776.53711 1894.94238
1856.0 0.000539 1776.51782 1895.43811
1961.0 0.000510 1776.49670 1895.51672
1920.0 0.000521 1776.47375 1895.99756
1956.0 0.000511 1776.44873 1897.40552
1881.0 0.000532 1776.42188 1900.02197
1901.0 0.000526 1776.39282 1903.98523
1862.0 0.000537 1776.36182 1909.37329
1803.0 0.000555 1776.32874 1916.26038
1868.0 0.000535 1776.29333 1924.73413
1854.0 0.000539 1776.25562 1935.00110
1888.0 0.000530 1776.21582 1947.28699
2025.0 0.000494 1776.17358 1961.95532
1995.0 0.000501 1776.12903 1979.53833
2065.0 0.000484 1776.08203 2000.81030
2069.0 0.000483 1776.03259 2026.87988
2014.0 0.000497 1775.98059 2059.29907
2102.0 0.000476 1775.92603 2100.16724
2282.0 0.000438 1775.86890 2152.20435
2267.0 0.000441 1775.80920 2218.76489
2477.0 0.000404 1775.74670 2303.72144
2483.0 0.000403 1775.68140 2411.20679
2669.0 0.000375 1775.61353 2545.13916
2776.0 0.000360 1775.54272 2708.45361
2947.0 0.0003393 1775.46899 2901.78613
3098.0 0.0003228 1775.39233 3121.15698
3331.0 0.0003002 1775.31287 3354.17114
3509.0 0.0002850 1775.23022 3575.47217
3607.0 0.0002772 1775.14465 3745.88330
3674.0 0.0002722 1775.05615 3823.17749
3559.0 0.0002810 1774.96436 3784.79614
3755.0 0.0002663 1774.86938 3643.66138
3504.0 0.0002854 1774.77136 3438.85986
3508.0 0.0002851 1774.67004 3212.28760
3120.0 0.0003205 1774.56543 2993.67847
3005.0 0.0003328 1774.45752 2798.82642
2757.0 0.000363 1774.34631 2633.77271
2450.0 0.000408 1774.23169 2499.00317
2501.0 0.000400 1774.11377 2392.16895
2341.0 0.000427 1773.99231 2309.63867
2317.0 0.000432 1773.86743 2247.39380
2202.0 0.000454 1773.73901 2201.58447
2120.0 0.000472 1773.60718 2168.85229
2221.0 0.000450 1773.47168 2146.48877
2057.0 0.000486 1773.33264 2132.47583
2111.0 0.000474 1773.18994 2125.45288
2031.0 0.000492 1773.04370 2124.65381
2111.0 0.000474 1772.89380 2129.84644
2048.0 0.000488 1772.74011 2141.31616
2142.0 0.000467 1772.58276 2159.86841
2237.0 0.000447 1772.42163 2186.86060
2193.0 0.000456 1772.25684 2223.94751
2212.0 0.000452 1772.08813 2274.21631
2222.0 0.000450 1771.91577 2340.38745
2331.0 0.000429 1771.73950 2425.76978
2473.0 0.000404 1771.55945 2533.63208
2501.0 0.000400 1771.37549 2666.64063
2754.0 0.000363 1771.18762 2825.92139
2964.0 0.0003374 1770.99597 3009.40625
3215.0 0.0003110 1770.80042 3209.04956
3519.0 0.0002842 1770.60095 3407.14966
3606.0 0.0002773 1770.39746 3574.50439
3689.0 0.0002711 1770.19006 3676.46167
3685.0 0.0002714 1769.97888 3689.76880
3624.0 0.0002759 1769.76367 3618.67407
3555.0 0.0002813 1769.54443 3492.82910
3231.0 0.0003095 1769.32129 3349.73145
3223.0 0.0003103 1769.09424 3219.80811
3173.0 0.0003152 1768.86304 3122.70752
3091.0 0.0003235 1768.62817 3069.89185
2997.0 0.0003337 1768.38904 3068.19824
2994.0 0.0003340 1768.14612 3121.81104
3210.0 0.0003115 1767.89905 3233.17725
3275.0 0.0003053 1767.64832 3402.70068
3671.0 0.0002724 1767.39343 3627.32153
3897.0 0.0002566 1767.13464 3897.43506
4170.0 0.0002398 1766.87195 4191.64893
4386.0 0.0002280 1766.60522 4470.81250
4619.0 0.0002165 1766.33459 4678.03320
4784.0 0.0002090 1766.06006 4755.07031
4657.0 0.0002147 1765.78174 4673.46729
4397.0 0.0002274 1765.49927 4453.62109
4191.0 0.0002386 1765.21313 4149.75830
3893.0 0.0002569 1764.92322 3818.70288
3580.0 0.0002793 1764.62927 3499.70776
3375.0 0.0002963 1764.33167 3213.81445
3130.0 0.0003195 1764.03015 2968.60669
2970.0 0.0003367 1763.72498 2764.64990
2757.0 0.000363 1763.41589 2598.89087
2515.0 0.000398 1763.10315 2466.55737
2605.0 0.000384 1762.78687 2362.25220
2337.0 0.000428 1762.46667 2280.68213
2367.0 0.000422 1762.14307 2217.12402
2174.0 0.000460 1761.81567 2167.66260
2178.0 0.000459 1761.48486 2129.24609
2056.0 0.000486 1761.15027 2099.60962
2128.0 0.000470 1760.81238 2077.13110
2148.0 0.000466 1760.47095 2060.65698
2055.0 0.000487 1760.12610 2049.29590
2064.0 0.000484 1759.77795 2042.24866
2026.0 0.000494 1759.42627 2038.54504
2058.0 0.000486 1759.07129 2036.76965
2058.0 0.000486 1758.71301 2034.86914
2055.0 0.000487 1758.35168 2030.91589
1963.0 0.000509 1757.98694 2021.92554
2082.0 0.000480 1757.61926 2008.09656
2015.0 0.000496 1757.24841 1990.82654
2064.0 0.000484 1756.87463 1972.23511
1874.0 0.000534 1756.49792 1954.11597
2027.0 0.000493 1756.11804 1937.55090
1882.0 0.000531 1755.73547 1923.02026
1858.0 0.000538 1755.34998 1910.62695
2013.0 0.000497 1754.96179 1900.27649
1882.0 0.000531 1754.57080 1891.78027
1926.0 0.000519 1754.17737 1884.91687
1912.0 0.000523 1753.78137 1879.46521
1890.0 0.000529 1753.38257 1875.22791
1886.0 0.000530 1752.98169 1872.04541
1829.0 0.000547 1752.57800 1869.79871
1835.0 0.000545 1752.17224 1868.41699
1940.0 0.000515 1751.76428 1867.87329
1860.0 0.000538 1751.35400 1868.18860
1905.0 0.000525 1750.94165 1869.43567
1975.0 0.000506 1750.52734 1871.74670
1835.0 0.000545 1750.11096 1875.31873
1953.0 0.000512 1749.69263 1880.42871
1899.0 0.000527 1749.27258 1887.43420
1937.0 0.000516 1748.85071 1896.77283
1904.0 0.000525 1748.42725 1908.94543
1917.0 0.000522 1748.00208 1925.11731
1933.0 0.000517 1747.57556 1944.53467
1869.0 0.000535 1747.14746 1968.20508
1952.0 0.000512 1746.71814 1996.22461
2030.0 0.000493 1746.28760 2028.11548
2035.0 0.000491 1745.85571 2062.36646
2117.0 0.000472 1745.42285 2095.92456
2089.0 0.000479 1744.98877 2124.18555
2141.0 0.000467 1744.55396 2142.37134
2244.0 0.000446 1744.11816 2148.22021
2114.0 0.000473 1743.68176 2143.82935
2178.0 0.000459 1743.24475 2134.74146
2084.0 0.000480 1742.80701 2127.16113
2067.0 0.000484 1742.36890 2126.26855
2072.0 0.000483 1741.93018 2135.92798
2081.0 0.000481 1741.49146 2159.11719
2182.0 0.000458 1741.05225 2198.34277
2209.0 0.000453 1740.61316 2255.79150
2371.0 0.000422 1740.17395 2333.20898
2414.0 0.000414 1739.73486 2431.48315
2443.0 0.000409 1739.29590 2549.79590
2551.0 0.000392 1738.85718 2684.06250
2699.0 0.000371 1738.41895 2824.52197
2842.0 0.000352 1737.98108 2953.34424
2833.0 0.000353 1737.54382 3045.41333
2935.0 0.0003407 1737.10718 3076.39136
2899.0 0.0003449 1736.67139 3036.07861
2821.0 0.000354 1736.23633 2935.26587
2685.0 0.000372 1735.80237 2798.33618
2684.0 0.000373 1735.36938 2649.92358
2458.0 0.000407 1734.93750 2507.17261
2293.0 0.000436 1734.50708 2379.14453
2282.0 0.000438 1734.07776 2269.34033
2217.0 0.000451 1733.65002 2177.87939
2117.0 0.000472 1733.22375 2103.36719
2071.0 0.000483 1732.79932 2043.59595
2004.0 0.000499 1732.37659 1996.10938
1967.0 0.000508 1731.95557 1958.51526
1921.0 0.000521 1731.53674 1928.67334
1918.0 0.000521 1731.11975 1904.78381
1957.0 0.000511 1730.70508 1885.37769
1836.0 0.000545 1730.29260 1869.41980
1936.0 0.000517 1729.88257 1856.06055
1805.0 0.000554 1729.47498 1844.70410
1910.0 0.000524 1729.06995 1834.91968
1785.0 0.000560 1728.66760 1826.47217
1855.0 0.000539 1728.26794 1818.97607
1768.0 0.000566 1727.87122 1812.33423
1789.0 0.000559 1727.47729 1806.41052
1876.0 0.000533 1727.08667 1801.13416
1788.0 0.000559 1726.69897 1796.34644
1837.0 0.000544 1726.31470 1792.01184
1729.0 0.000578 1725.93372 1788.07190
1747.0 0.000572 1725.55615 1784.47620
1823.0 0.000549 1725.18225 1781.18347
1753.0 0.000570 1724.81189 1778.15796
1736.0 0.000576 1724.44519 1775.41614
1877.0 0.000533 1724.08228 1772.83899
1774.0 0.000564 1723.72351 1770.45068
1800.0 0.000556 1723.36853 1768.23157
1826.0 0.000548 1723.01770 1766.16516
1736.0 0.000576 1722.67114 1764.23730
1733.0 0.000577 1722.32874 1762.43494
1739.0 0.000575 1721.99072 1760.74707
1730.0 0.000578 1721.65710 1759.16357
1675.0 0.000597 1721.32813 1757.67957
1711.0 0.000584 1721.00354 1756.28113
1719.0 0.000582 1720.68372 1754.96509
1744.0 0.000573 1720.36865 1753.72522
1733.0 0.000577 1720.05859 1752.56335
1761.0 0.000568 1719.75330 1751.46191
1702.0 0.000588 1719.45300 1748.81384
1676.0 0.000597 1719.15796 1747.85535
1720.0 0.000581 1718.86780 1746.95422
1794.0 0.000557 1718.58289 1746.10938
1659.0 0.000603 1718.30334 1745.31995
1793.0 0.000558 1718.02917 1744.58557
1751.0 0.000571 1717.76038 1743.90686
1774.0 0.000564 1717.49707 1743.28503
1763.0 0.000567 1717.23938 1742.72278
1795.0 0.000557 1716.98718 1742.22046
1782.0 0.000561 1716.74060 1741.78015
1774.0 0.000564 1716.49988 1741.40186
1727.0 0.000579 1716.26477 1741.08203
1770.0 0.000565 1716.03552 1740.81116
1717.0 0.000582 1715.81226 1740.57190
1822.0 0.000549 1715.59497 1740.33398
1743.0 0.000574 1715.38342 1740.06055
1761.0 0.000568 1715.17798 1739.73901
1725.0 0.000580 1714.97864 1739.33667
1722.0 0.000581 1714.78540 1738.89319
1801.0 0.000555 1714.59827 1738.44312
1747.0 0.000572 1714.41736 1738.01929
1854.0 0.000539 1714.24243 1737.64075
1789.0 0.000559 1714.07397 1737.31787
1761.0 0.000568 1713.91174 1737.06055
1685.0 0.000593 1713.75562 1736.85669
1750.0 0.000571 1713.60596 1736.71130
1736.0 0.000576 1713.46252 1736.62170
1767.0 0.000566 1713.32556 1736.58618
1726.0 0.000579 1713.19482 1736.60291
1840.0 0.000543 1713.07043 1736.67041
1749.0 0.000572 1712.95251 1736.80603
1762.0 0.000568 1712.84106 1736.97510
1671.0 0.000598 1712.73584 1735.82581
1790.0 0.000559 1712.63708 1736.11682
1793.0 0.000558 1712.54468 1736.46375
1794.0 0.000557 1712.45874 1736.86963
1746.0 0.000573 1712.37903 1737.33813
1786.0 0.000560 1712.30579 1737.87439
1763.0 0.000567 1712.23889 1738.48315
1700.0 0.000588 1712.17834 1739.17053
1777.0 0.000563 1712.12415 1739.94360
1624.0 0.000616 1712.07617 1740.81091
1712.0 0.000584 1712.03455 1741.78149
1767.0 0.000566 1711.99915 1742.86621
1760.0 0.000568 1711.96997 1744.07886
1667.0 0.000600 1711.94702 1745.43396
1820.0 0.000549 1711.93018 1746.94897
1722.0 0.000581 1711.91943 1748.64514
1726.0 0.000579 1711.91479 1750.54749
1776.0 0.000563 1711.91614 1750.32788
1741.0 0.000574 1711.92346 1752.76538
1766.0 0.000566 1711.93689 1756.13000
1719.0 0.000582 1711.95593 1759.26318
1844.0 0.000542 1711.98096 1762.84009
1780.0 0.000562 1712.01172 1766.95117
1750.0 0.000571 1712.04822 1771.70349
1834.0 0.000545 1712.09021 1777.28833
1767.0 0.000566 1712.13794 1783.90759
1767.0 0.000566 1712.19104 1791.85425
1763.0 0.000567 1712.24963 1801.51526
1781.0 0.000561 1712.31348 1813.39575
1807.0 0.000553 1712.38269 1828.13049
1844.0 0.000542 1712.45715 1846.48828
1851.0 0.000540 1712.53650 1869.34204
1961.0 0.000510 1712.62097 1897.61218
1925.0 0.000519 1712.71045 1932.17004
1963.0 0.000509 1712.80457 1973.71289
2105.0 0.000475 1712.90356 2022.56848
2159.0 0.000463 1713.00708 2078.34155
2179.0 0.000459 1713.11523 2139.23999
2205.0 0.000454 1713.22766 2201.06885
2274.0 0.000440 1713.34460 2256.37964
2328.0 0.000430 1713.46558 2295.13477
2345.0 0.000426 1713.59058 2308.10352
2334.0 0.000428 1713.71973 2292.26611
2288.0 0.000437 1713.85266 2252.39600
2277.0 0.000439 1713.98938 2198.33423
2214.0 0.000452 1714.12964 2139.89697
2155.0 0.000464 1714.27356 2084.00464
1975.0 0.000506 1714.42065 2034.44910
2067.0 0.000484 1714.57104 1992.81250
1944.0 0.000514 1714.72461 1959.40454
1991.0 0.000502 1714.88098 1933.90051
1897.0 0.000527 1715.04028 1915.72473
1925.0 0.000519 1715.20239 1904.27795
1852.0 0.000540 1715.36694 1899.09131
1951.0 0.000513 1715.53381 1899.92126
1960.0 0.000510 1715.70313 1906.80469
1840.0 0.000543 1715.87451 1920.06458
1904.0 0.000525 1716.04785 1940.27832
1888.0 0.000530 1716.22302 1968.19397
1891.0 0.000529 1716.39990 2004.59802
2010.0 0.000498 1716.57837 2050.11108
2080.0 0.000481 1716.75806 2104.85620
2066.0 0.000484 1716.93909 2167.90186
2194.0 0.000456 1717.12109 2236.35864
2266.0 0.000441 1717.30408 2304.23315
2354.0 0.000425 1717.48779 2361.79688
2281.0 0.000438 1717.67212 2397.11743
2318.0 0.000431 1717.85693 2400.81006
2369.0 0.000422 1718.04175 2371.44019
2324.0 0.000430 1718.22693 2316.44165
2229.0 0.000449 1718.41199 2247.55176
2194.0 0.000456 1718.59692 2175.39453
2112.0 0.000473 1718.78125 2106.99561
2018.0 0.000496 1718.96533 2045.95935
1976.0 0.000506 1719.14844 1993.58508
1894.0 0.000528 1719.33069 1949.63037
1855.0 0.000539 1719.51208 1913.84875
1881.0 0.000532 1719.69214 1885.00647
1857.0 0.000539 1719.87085 1861.99878
1869.0 0.000535 1720.04810 1843.75269
1780.0 0.000562 1720.22363 1829.30383
1823.0 0.000549 1720.39722 1817.83691
1869.0 0.000535 1720.56873 1808.69702
1816.0 0.000551 1720.73828 1801.38391
1771.0 0.000565 1720.90527 1795.53052
1791.0 0.000558 1721.06982 1790.88135
1816.0 0.000551 1721.23181 1787.27197
1839.0 0.000544 1721.39087 1784.60303
1754.0 0.000570 1721.54688 1782.82886
1755.0 0.000570 1721.69983 1781.94006
1804.0 0.000554 1721.84949 1781.94849
1769.0 0.000565 1721.99561 1782.87378
1833.0 0.000546 1722.13818 1783.59045
1737.0 0.000576 1722.27710 1786.34167
1853.0 0.000540 1722.41199 1789.85498
1768.0 0.000566 1722.54285 1793.84033
1841.0 0.000543 1722.66956 1797.75879
1749.0 0.000572 1722.79187 1800.80640
1794.0 0.000557 1722.90979 1802.09033
1794.0 0.000557 1723.02307 1801.01904
1812.0 0.000552 1723.13159 1797.65149
1802.0 0.000555 1723.23523 1792.65234
1796.0 0.000557 1723.33386 1786.90320
1747.0 0.000572 1723.42737 1781.14294
1728.0 0.000579 1723.51563 1775.83557
1772.0 0.000564 1723.59851 1771.21155
1782.0 0.000561 1723.67578 1767.34753
1757.0 0.000569 1723.74768 1764.23828
1683.0 0.000594 1723.81372 1761.83594
1822.0 0.000549 1723.87390 1760.07581
1762.0 0.000568 1723.92834 1759.12451
1783.0 0.000561 1723.97656 1758.44800
1700.0 0.000588 1724.01880 1758.22217
1732.0 0.000577 1724.05469 1758.39319
1766.0 0.000566 1724.08447 1758.90967
1764.0 0.000567 1724.10779 1759.71204
1721.0 0.000581 1724.12463 1760.72644
1781.0 0.000561 1724.13501 1761.96265
1770.0 0.000565 1724.13879 1763.19556
1717.0 0.000582 1724.13586 1764.54675
1766.0 0.000566 1724.12622 1766.15283
1787.0 0.000560 1724.10986 1768.22510
1773.0 0.000564 1724.08667 1771.00671
1789.0 0.000559 1724.05664 1774.73938
1799.0 0.000556 1724.01978 1779.65735
1794.0 0.000557 1723.97595 1785.98157
1786.0 0.000560 1723.92505 1793.91064
1843.0 0.000543 1723.86743 1803.58862
1772.0 0.000564 1723.80261 1815.04504
1802.0 0.000555 1723.73083 1828.08777
1900.0 0.000526 1723.65210 1842.14575
1848.0 0.000541 1723.56641 1856.12610
1916.0 0.000522 1723.47363 1868.45679
1858.0 0.000538 1723.37402 1877.52612
1886.0 0.000530 1723.26733 1882.39307
1947.0 0.000514 1723.15369 1883.16431
1902.0 0.000526 1723.03320 1880.66736
1826.0 0.000548 1722.90588 1875.87280
1846.0 0.000542 1722.77173 1869.68811
1827.0 0.000547 1722.63086 1863.02551
1877.0 0.000533 1722.48328 1856.69849
1903.0 0.000525 1722.32898 1851.13477
1846.0 0.000542 1722.16809 1846.14380
1860.0 0.000538 1722.00085 1840.98987
1777.0 0.000563 1721.82715 1834.80432
1833.0 0.000546 1721.64709 1827.14966
1845.0 0.000542 1721.46069 1818.29553
1780.0 0.000562 1721.26843 1808.99841
1834.0 0.000545 1721.06995 1800.05383
1783.0 0.000561 1720.86572 1792.00732
1765.0 0.000567 1720.65576 1785.10291
1788.0 0.000559 1720.44006 1779.35437
1778.0 0.000562 1720.21887 1774.63635
1790.0 0.000559 1719.99231 1770.76318
1796.0 0.000557 1719.76062 1767.53540
1801.0 0.000555 1719.52380 1764.76733
1803.0 0.000555 1719.28210 1762.27856
1757.0 0.000569 1719.03589 1759.93933
1746.0 0.000573 1718.78479 1757.64355
1777.0 0.000563 1718.52954 1755.43311
1767.0 0.000566 1718.27002 1753.38538
1739.0 0.000575 1718.00671 1751.58203
1798.0 0.000556 1717.73938 1750.07825
1762.0 0.000568 1717.46863 1750.01050
1796.0 0.000557 1717.19446 1749.18860
1746.0 0.000573 1716.91724 1748.71558
1800.0 0.000556 1716.63696 1748.59814
1778.0 0.000562 1716.35413 1748.84399
1726.0 0.000579 1716.06885 1749.46619
1751.0 0.000571 1715.78125 1750.47437
1787.0 0.000560 1715.49170 1751.87415
1764.0 0.000567 1715.20044 1753.65479
1734.0 0.000577 1714.90784 1755.77136
1805.0 0.000554 1714.61389 1758.11975
1783.0 0.000561 1714.31909 1760.51208
1816.0 0.000551 1714.02368 1762.69226
1853.0 0.000540 1713.72766 1764.41553
1818.0 0.000550 1713.43176 1765.57971
1747.0 0.000572 1713.13586 1766.29675
1811.0 0.000552 1712.84058 1766.83386
1782.0 0.000561 1712.54590 1767.46301
1669.0 0.000599 1712.25232 1768.35889
1792.0 0.000558 1711.96008 1769.57861
1702.0 0.000588 1711.66943 1771.11108
1717.0 0.000582 1711.38074 1772.95374
1787.0 0.000560 1711.09424 1775.13635
1775.0 0.000563 1710.81030 1777.68115
1834.0 0.000545 1710.52917 1780.52344
1699.0 0.000589 1710.25122 1783.47485
1802.0 0.000555 1709.97668 1786.27991
1735.0 0.000576 1709.70593 1788.84473
1796.0 0.000557 1709.43933 1791.08240
1745.0 0.000573 1709.17700 1793.39136
1824.0 0.000548 1708.91943 1796.23596
1767.0 0.000566 1708.66687 1800.09753
1856.0 0.000539 1708.41968 1805.42932
1822.0 0.000549 1708.17798 1812.68176
1853.0 0.000540 1707.94226 1822.35681
1781.0 0.000561 1707.71289 1835.05286
1872.0 0.000534 1707.48999 1852.05396
1905.0 0.000525 1707.27393 1873.11194
1837.0 0.000544 1707.06506 1899.75781
1912.0 0.000523 1706.86353 1933.03967
1935.0 0.000517 1706.66968 1973.98730
2024.0 0.000494 1706.48401 2023.46472
1973.0 0.000507 1706.30652 2081.91748
2055.0 0.000487 1706.13770 2148.96069
2179.0 0.000459 1705.97766 2222.63110
2286.0 0.000437 1705.82678 2298.38916
2396.0 0.000417 1705.68518 2368.19287
2359.0 0.000424 1705.55334 2420.84326
2407.0 0.000415 1705.43127 2444.50122
2423.0 0.000413 1705.31934 2434.09985
2414.0 0.000414 1705.21777 2391.72437
2339.0 0.000428 1705.12683 2327.16455
2383.0 0.000420 1705.04663 2252.20386
2136.0 0.000468 1704.97742 2176.37476
2152.0 0.000465 1704.91943 2105.60400
2072.0 0.000483 1704.87280 2042.78882
1940.0 0.000515 1704.83789 1988.86084
1960.0 0.000510 1704.81445 1943.63855
1951.0 0.000513 1704.80298 1906.36865
1866.0 0.000536 1704.80359 1876.03894
1900.0 0.000526 1704.81628 1851.56274
1826.0 0.000548 1704.84131 1831.88855
1773.0 0.000564 1704.87866 1816.06567
1739.0 0.000575 1704.92847 1803.28064
1823.0 0.000549 1704.99072 1792.86572
1818.0 0.000550 1705.06580 1784.29187
1790.0 0.000559 1705.15332 1777.15295
1784.0 0.000561 1705.25366 1771.14124
1785.0 0.000560 1705.36658 1766.02722
1747.0 0.000572 1705.49231 1761.64014
1695.0 0.000590 1705.63062 1757.85132
1815.0 0.000551 1705.78149 1754.56287
1719.0 0.000582 1705.94507 1751.69861
1845.0 0.000542 1706.12109 1749.19861
1788.0 0.000559 1706.30957 1746.37952
1703.0 0.000587 1706.51038 1744.47778
1751.0 0.000571 1706.72327 1742.81909
1777.0 0.000563 1706.94824 1741.37610
1842.0 0.000543 1707.18506 1740.12634
1721.0 0.000581 1707.43359 1739.04993
1778.0 0.000562 1707.69348 1738.13110
1782.0 0.000561 1707.96484 1737.35730
1761.0 0.000568 1708.24695 1736.71729
1714.0 0.000583 1708.53992 1736.20093
1741.0 0.000574 1708.84314 1735.80103
1690.0 0.000592 1709.15662 1735.51050
1747.0 0.000572 1709.47974 1735.32166
1719.0 0.000582 1709.81213 1735.22717
1703.0 0.000587 1710.15369 1735.21643
1698.0 0.000589 1710.50378 1735.27502
1715.0 0.000583 1710.86218 1735.38342
1752.0 0.000571 1711.22803 1735.51782
1738.0 0.000575 1711.60132 1735.66064
1719.0 0.000582 1711.98108 1735.80273
1789.0 0.000559 1712.36707 1735.95337
1765.0 0.000567 1712.75891 1736.12756
1715.0 0.000583 1713.15564 1736.34265
1750.0 0.000571 1713.55688 1736.61108
1783.0 0.000561 1713.96191 1736.93970
1774.0 0.000564 1714.37024 1737.33179
1727.0 0.000579 1714.78088 1737.79175
1767.0 0.000566 1715.19360 1738.31201
1708.0 0.000585 1715.60718 1738.90991
1681.0 0.000595 1716.02112 1739.55603
1714.0 0.000583 1716.43481 1740.26563
1685.0 0.000593 1716.84717 1741.03833
1802.0 0.000555 1717.25757 1741.87598
1714.0 0.000583 1717.66516 1742.78088
1736.0 0.000576 1718.06909 1743.75684
1695.0 0.000590 1718.46838 1744.80676
1722.0 0.000581 1718.86230 1745.93896
1742.0 0.000574 1719.24976 1747.15894
1763.0 0.000567 1719.62988 1748.47632
1732.0 0.000577 1720.00195 1749.90295
1699.0 0.000589 1720.36462 1751.45093
1702.0 0.000588 1720.71716 1753.13867
1752.0 0.000571 1721.05847 1754.98535
1686.0 0.000593 1721.38757 1757.01917
1758.0 0.000569 1721.70337 1759.26917
1742.0 0.000574 1722.00476 1761.78040
1788.0 0.000559 1722.29102 1764.60864
1728.0 0.000579 1722.56055 1768.31824
1772.0 0.000564 1722.81274 1772.03052
1752.0 0.000571 1723.04639 1776.36121
1775.0 0.000563 1723.26025 1781.47742
1827.0 0.000547 1723.45325 1787.59119
1739.0 0.000575 1723.62439 1794.96753
1820.0 0.000549 1723.77246 1803.92029
1775.0 0.000563 1723.89636 1814.82434
1851.0 0.000540 1723.99500 1828.05090
1787.0 0.000560 1724.06738 1844.01843
1789.0 0.000559 1724.11218 1863.10388
1878.0 0.000532 1724.12830 1885.58337
1928.0 0.000519 1724.11499 1911.50964
1904.0 0.000525 1724.07068 1940.50769
1939.0 0.000516 1723.99463 1971.45813
1995.0 0.000501 1723.88586 2002.16699
2012.0 0.000497 1723.74292 2029.29065
2070.0 0.000483 1723.56506 2048.98950
1983.0 0.000504 1723.35132 2058.43091
2094.0 0.000478 1723.10046 2057.26416
2059.0 0.000486 1722.81189 2047.70349
2131.0 0.000469 1722.48425 2033.05334
2121.0 0.000471 1722.11719 2015.95886
2028.0 0.000493 1721.70935 1997.59277
2048.0 0.000488 1721.26001 1977.95959
1951.0 0.000513 1720.76880 1956.82544
2077.0 0.000481 1720.23438 1934.47693
1898.0 0.000527 1719.65637 1911.97620
1924.0 0.000520 1719.03406 1890.48340
1884.0 0.000531 1718.36731 1870.92871
1834.0 0.000545 1717.65466 1853.80029
1917.0 0.000522 1716.89661 1839.21118
1891.0 0.000529 1716.09241 1827.03662
1874.0 0.000534 1715.24109 1817.04102
1814.0 0.000551 1714.34351 1808.94849
1870.0 0.000535 1713.39856 1802.49023
1831.0 0.000546 1712.40686 1797.42029
1885.0 0.000531 1711.36768 1794.07520
1830.0 0.000546 1710.28174 1791.18616
1786.0 0.000560 1709.14880 1789.15747
1783.0 0.000561 1707.96948 1787.88037
1802.0 0.000555 1706.74414 1787.19702
1857.0 0.000539 1705.47266 1787.20325
1757.0 0.000569 1704.15637 1787.77991
1771.0 0.000565 1702.79529 1788.88977
1828.0 0.000547 1701.39111 1790.47156
1789.0 0.000559 1699.94385 1792.58508
1804.0 0.000554 1698.45557 1795.21777
1852.0 0.000540 1696.92725 1798.44617
1774.0 0.000564 1695.35925 1802.40295
1827.0 0.000547 1693.75464 1807.26965
1866.0 0.000536 1692.11377 1813.26611
1812.0 0.000552 1690.43982 1820.61182
1758.0 0.000569 1688.73352 1829.72998
1825.0 0.000548 1686.99817 1840.99487
1847.0 0.000541 1685.23499 1854.94543
1859.0 0.000538 1683.44800 1872.28101
1887.0 0.000530 1681.63892 1893.84546
1988.0 0.000503 1679.81030 1920.69580
1935.0 0.000517 1677.96667 1954.06128
1998.0 0.000501 1676.10974 1995.30457
2061.0 0.000485 1674.24463 2045.86121
1989.0 0.000503 1672.37378 2107.09497
2191.0 0.000456 1670.50256 2180.15308
2149.0 0.000465 1668.63391 2265.75415
2243.0 0.000446 1666.77356 2363.84766
2360.0 0.000424 1664.92566 2472.97607
2546.0 0.000393 1663.09436 2589.04639
2603.0 0.000384 1661.28638 2703.80566
2630.0 0.000380 1659.50598 2803.90918
2668.0 0.000375 1657.76013 2872.50757
2679.0 0.000373 1656.05359 2894.66650
2845.0 0.000351 1654.39404 2864.54810
2759.0 0.000362 1652.78748 2788.74390
2613.0 0.000383 1651.24011 2682.61694
2610.0 0.000383 1649.76050 2563.13379
2452.0 0.000408 1648.35510 2443.64673
2392.0 0.000418 1647.03259 2332.45044
2329.0 0.000429 1645.80029 2233.65796
2143.0 0.000467 1644.66772 2148.64819
2165.0 0.000462 1643.64258 2077.22925
2024.0 0.000494 1642.73499 2018.39404
2048.0 0.000488 1641.95398 1970.76453
2012.0 0.000497 1641.30920 1932.85254
1889.0 0.000529 1640.81140 1903.21033
1914.0 0.000522 1640.47058 1880.58118
1984.0 0.000504 1640.29810 1863.87415
1886.0 0.000530 1640.30493 1852.24060
1867.0 0.000536 1640.50269 1845.06238
1863.0 0.000537 1640.90369 1841.93628
1903.0 0.000525 1641.52002 1842.64221
1869.0 0.000535 1642.36426 1847.11121
1891.0 0.000529 1643.45032 1855.40466
1874.0 0.000534 1644.79077 1867.61731
1890.0 0.000529 1646.40039 1883.82507
1838.0 0.000544 1648.29236 1903.96509
1933.0 0.000517 1650.48303 1927.75854
1978.0 0.000506 1652.98523 1954.72900
2007.0 0.000498 1655.81567 1984.54138
1967.0 0.000508 1658.99121 2017.29639
2084.0 0.000480 1662.52563 2053.77417
2036.0 0.000491 1666.43823 2095.07739
2224.0 0.000450 1670.74304 2141.84180
2157.0 0.000464 1675.46069 2193.34424
2140.0 0.000467 1680.60522 2246.67847
2131.0 . . .
loop_
_refln_index_h
_refln_index_k
_refln_index_l
_refln_observed_status
_refln_F_squared_meas
_refln_F_squared_calc
_refln_phase_calc
_refln_d_spacing
_gsas_i100_meas
1 1 0 o 12283.709 12646.770 180.00 6.94674 15.95
0 0 1 o 1479.022 2204.548 180.00 4.94682 0.09
2 0 0 o 1350.308 1953.562 0.00 4.91208 1.09
1 1 1 o 28478.475 28869.965 0.00 4.02954 26.71
2 0 1 o 2376.066 2001.188 180.00 3.48558 1.96
2 2 0 o 1667.217 1505.372 0.00 3.47337 0.31
2 1 1 o 29.563 70.891 0.00 3.28495 0.05
3 1 0 o 16746.496 16073.771 0.00 3.10667 8.96
2 2 1 o 207080.95 207231.56 180.00 2.84263 100.00
3 1 1 o 7272.217 5695.375 180.00 2.63088 5.45
0 0 2 o 108462.91 111791.38 0.00 2.47341 9.33
4 0 0 o 126713.55 130722.59 0.00 2.45604 22.01
3 2 1 o 5206.843 4722.231 0.00 2.38664 4.27
1 1 2 o 4493.444 4263.097 180.00 2.33011 1.19
3 3 0 o 24131.758 24150.078 180.00 2.31558 3.70
2 0 2 o 400.656 515.516 0.00 2.20915 0.14
4 0 1 o 7120.938 8087.413 180.00 2.19983 1.47
4 2 0 o 803.661 992.748 0.00 2.19675 0.26
2 1 2 o 775.048 575.369 0.00 2.15533 0.52
4 1 1 o 2712.753 2093.838 0.00 2.14667 1.82
3 3 1 o 1839.571 1828.216 0.00 2.09719 0.36
2 2 2 o 7160.378 7709.007 0.00 2.01477 1.31
4 2 1 o 289.299 315.365 180.00 2.00769 0.17
3 1 2 o 18909.014 18704.820 0.00 1.93503 8.46
5 1 0 o 4811.678 5087.072 180.00 1.92668 0.97
3 2 2 o 360.924 346.263 0.00 1.83139 0.18
4 3 1 o 290.750 373.828 180.00 1.82607 0.15
5 1 1 o 20470.377 19875.016 0.00 1.79532 7.87
4 0 2 o 141711.44 142970.14 0.00 1.74279 27.05
4 4 0 o 134901.30 135903.22 0.00 1.73668 12.78
4 1 2 o 37.230 37.886 180.00 1.71600 0.02
5 2 1 o 74.791 87.108 180.00 1.71162 0.03
3 3 2 o 26078.115 23691.877 180.00 1.69041 4.69
5 3 0 o 7278.886 6405.218 0.00 1.68483 1.21
0 0 3 o 4055.241 4811.177 180.00 1.64894 0.11
4 2 2 o 1122.677 1261.667 0.00 1.64248 0.45
4 4 1 o 2631.672 2928.271 180.00 1.63864 0.24
6 0 0 o 110.879 155.385 0.00 1.63736 0.01
1 1 3 o 7053.666 7413.888 0.00 1.60436 0.99
5 3 1 o 11619.855 11842.083 180.00 1.59487 3.56
2 0 3 o 532.967 425.241 180.00 1.56321 0.10
6 0 1 o 1632.991 1460.040 180.00 1.55443 0.29
6 2 0 o 9931.229 9387.019 0.00 1.55334 1.32
2 1 3 o 133.285 122.389 0.00 1.54379 0.05
4 3 2 o 32.711 17.148 0.00 1.53848 0.01
6 1 1 o 173.834 95.061 180.00 1.53533 0.06
5 1 2 o 145.664 151.942 180.00 1.51996 0.01
2 2 3 o 98222.60 96846.97 180.00 1.48960 14.21
6 2 1 o 84332.14 84913.27 180.00 1.48199 23.95
5 2 2 o 200.835 201.822 0.00 1.46816 0.07
5 4 1 o 25.407 26.579 180.00 1.46541 0.01
3 1 3 o 5351.353 5722.406 180.00 1.45649 1.34
4 4 2 o 72414.18 72316.46 0.00 1.42132 9.56
3 2 3 o 603.838 501.492 180.00 1.41072 0.20
6 3 1 o 0.144 0.164 0.00 1.40425 0.00
5 3 2 o 2452.341 2331.262 0.00 1.39247 0.51
5 5 0 o 2286.601 2328.167 0.00 1.38935 0.25
7 1 0 o 8809.400 8896.454 0.00 1.38935 1.03
4 0 3 o 927.633 806.456 180.00 1.36901 0.06
6 0 2 o 102.551 62.510 180.00 1.36531 0.02
6 4 0 o 133.225 66.737 0.00 1.36237 0.02
4 1 3 o 589.518 766.913 180.00 1.35591 0.19
6 1 2 o 243.540 171.672 180.00 1.35231 0.08
3 3 3 o 356.283 324.227 0.00 1.34318 0.02
7 1 1 o 1263.682 1276.817 180.00 1.33759 0.23
5 5 1 o 22246.650 22566.297 0.00 1.33759 2.75
4 2 3 o 142.668 139.598 180.00 1.31875 0.05
6 2 2 o 1364.967 1274.503 0.00 1.31544 0.18
6 4 1 o 792.316 725.656 180.00 1.31347 0.23
5 4 2 o 1.271 1.256 180.00 1.30381 0.00
7 2 1 o 1352.852 1395.898 180.00 1.30188 0.41
7 3 0 o 25255.570 25585.041 180.00 1.28998 3.07
4 3 3 o 166.374 177.569 0.00 1.26308 0.05
6 3 2 o 136.393 199.625 0.00 1.26017 0.04
5 1 3 o 13019.309 13901.389 0.00 1.25277 2.92
7 3 1 o 7.301 0.257 180.00 1.24823 0.02
0 0 4 o 80344.14 78789.88 0.00 1.23670 2.34
8 0 0 o 49346.77 45816.72 0.00 1.22802 2.75
5 2 3 o 203.985 223.502 0.00 1.22329 0.06
6 5 1 o 276.613 265.261 0.00 1.21906 0.08
1 1 4 o 4579.958 4657.316 180.00 1.21756 0.48
5 5 2 o 971.872 996.231 180.00 1.21133 0.09
7 1 2 o 12416.412 12790.502 0.00 1.21133 2.74
2 0 4 o 184.094 197.063 0.00 1.19928 0.03
4 4 3 o 4240.000 4308.463 180.00 1.19579 0.37
6 4 2 o 3.105 2.000 0.00 1.19332 0.00
8 0 1 o 2551.640 2487.308 180.00 1.19185 0.19
8 2 0 o 1415.612 1366.826 0.00 1.19136 0.18
2 1 4 o 140.047 138.526 180.00 1.19044 0.04
7 2 2 o 124.350 127.320 180.00 1.18461 0.04
7 4 1 o 111.577 99.364 0.00 1.18317 0.03
8 1 1 o 134.084 119.407 180.00 1.18317 0.04
5 3 3 o 3958.150 3900.546 180.00 1.17846 0.75
2 2 4 o 505.015 614.359 0.00 1.16506 0.02
6 0 3 o 701.454 847.937 180.00 1.16186 0.09
8 2 1 o 132.611 115.808 0.00 1.15824 0.03
6 6 0 o 1310.368 1340.980 0.00 1.15779 0.04
6 1 3 o 4.682 12.611 180.00 1.15382 0.00
3 1 4 o 2991.504 3071.107 0.00 1.14901 0.52
7 3 2 o 10390.384 10099.309 180.00 1.14377 2.13
7 5 0 o 4572.105 4333.690 0.00 1.14204 0.45
6 2 3 o 42995.43 42615.52 180.00 1.13066 9.10
6 6 1 o 37474.02 37817.93 180.00 1.12732 3.92
3 2 4 o 56.172 58.662 180.00 1.12614 0.02
5 4 3 o 4.744 5.059 0.00 1.12325 0.00
6 5 2 o 46.984 53.857 0.00 1.12120 0.01
8 3 1 o 15.797 19.899 180.00 1.11998 0.00
7 5 1 o 2203.994 2017.454 180.00 1.11277 0.40
4 0 4 o 45224.89 44601.46 0.00 1.10458 4.82
8 0 2 o 43207.96 43903.68 0.00 1.09992 4.63
8 4 0 o 31690.652 31927.320 0.00 1.09838 3.27
4 1 4 o 25.002 25.318 0.00 1.09766 0.01
6 3 3 o 90.980 97.663 0.00 1.09498 0.03
7 4 2 o 0.694 0.754 0.00 1.09309 0.00
8 1 2 o 12.150 13.209 0.00 1.09309 0.00
3 3 4 o 8742.593 8526.726 180.00 1.09087 0.91
9 1 0 o -63.561 97.163 0.00 1.08490 0.02
4 2 4 o 47.729 94.311 0.00 1.07766 0.01
8 2 2 o 785.789 828.811 0.00 1.07334 0.20
8 4 1 o 4226.816 4215.223 180.00 1.07226 0.73
5 5 3 o 10391.673 9974.377 0.00 1.06248 1.10
7 1 3 o 432.414 422.170 180.00 1.06248 0.05
9 1 1 o 10737.354 10760.368 0.00 1.05971 2.30
6 4 3 o 165.888 145.979 180.00 1.05027 0.05
6 6 2 o 5749.127 5582.665 0.00 1.04859 0.55
4 3 4 o 11.345 10.006 180.00 1.04664 0.00
7 2 3 o 186.251 222.823 0.00 1.04432 0.05
8 3 2 o 5.161 6.037 180.00 1.04267 0.00
9 2 1 o 24.813 29.944 180.00 1.04169 0.01
7 6 1 o 25.688 30.999 0.00 1.04169 0.01
5 1 4 o 528.084 512.061 180.00 1.04075 0.08
7 5 2 o 4236.084 4203.187 0.00 1.03685 0.87
9 3 0 o 1514.756 1487.896 0.00 1.03556 0.14
5 2 4 o -3.273 78.938 180.00 1.02366 0.00
8 5 1 o 2.203 3.564 0.00 1.01903 0.00
7 3 3 o 29.612 32.114 0.00 1.01601 0.00
9 3 1 o 4793.773 4633.876 180.00 1.01359 1.01
4 4 4 o 29757.213 28916.791 0.00 1.00738 3.32
8 4 2 o 26389.287 25808.484 0.00 1.00385 5.90
6 5 3 o 24.025 24.382 180.00 1.00009 0.01
5 3 4 o 2862.057 2876.096 0.00 0.99696 0.62
9 1 2 o 298.837 339.046 180.00 0.99353 0.04
7 7 0 o 11341.430 12528.054 180.00 0.99239 0.65
0 0 5 o 591.338 677.824 180.00 0.98936 0.01
6 0 4 o 5.243 7.746 180.00 0.98685 0.00
8 0 3 o 3504.350 3621.235 180.00 0.98490 0.34
10 0 0 o 1223.319 1313.218 180.00 0.98242 0.08
8 6 0 o 115.492 124.969 0.00 0.98242 0.02
6 1 4 o 56.314 60.786 0.00 0.98190 0.02
7 4 3 o 34.660 33.399 180.00 0.97999 0.01
8 1 3 o 98.760 95.167 0.00 0.97999 0.03
1 1 5 o 3967.967 3896.841 0.00 0.97948 0.45
7 6 2 o 101.345 93.864 0.00 0.97863 0.03
9 2 2 o 28.287 26.199 180.00 0.97863 0.01
9 4 1 o 582.431 480.991 0.00 0.97781 0.18
7 7 1 o 274.233 106.665 180.00 0.97300 0.06
2 0 5 o 103.295 77.366 180.00 0.96989 0.02
6 2 4 o 2696.200 2511.771 0.00 0.96751 0.54
8 2 3 o 126.364 129.322 0.00 0.96568 0.03
2 1 5 o 144.272 151.772 180.00 0.96519 0.05
10 0 1 o 1187.139 1227.262 180.00 0.96360 0.17
8 6 1 o 5.907 6.154 0.00 0.96360 0.00
10 2 0 o 2794.856 2936.705 0.00 0.96334 0.26
5 4 4 o 0.192 0.242 0.00 0.96286 0.00
8 5 2 o 2.339 3.947 180.00 0.95976 0.00
10 1 1 o 109.732 148.408 0.00 0.95900 0.04
9 3 2 o 427.055 444.516 0.00 0.95522 0.06
9 5 0 o 6.289 6.947 180.00 0.95421 0.00
2 2 5 o 27080.199 26750.256 180.00 0.95152 3.44
6 6 3 o 22010.688 22259.660 180.00 0.94754 2.80
10 2 1 o 19554.416 19250.318 180.00 0.94558 4.98
6 3 4 o 90.983 84.364 180.00 0.94487 0.03
8 3 3 o 1.273 1.179 0.00 0.94317 0.00
3 1 5 o 981.355 939.963 180.00 0.94271 0.20
7 5 3 o 1875.193 1895.650 180.00 0.93885 0.45
9 5 1 o 8278.222 8598.334 0.00 0.93694 2.18
3 2 5 o 15.457 8.992 0.00 0.92996 0.01
9 4 2 o 1.530 1.508 180.00 0.92510 0.00
10 3 1 o 29.149 27.586 0.00 0.92441 0.01
5 5 4 o 110.966 95.651 0.00 0.92375 0.05
7 1 4 o 3886.982 3712.079 0.00 0.92375 1.05
7 7 2 o 8123.242 8461.898 180.00 0.92102 1.15
6 4 4 o 14.917 17.094 0.00 0.91569 0.01
4 0 5 o 970.491 989.430 180.00 0.91770 0.09
8 4 3 o 1056.370 1032.514 180.00 0.91414 0.19
4 1 5 o 221.437 211.524 0.00 0.91372 0.09
8 6 2 o 283.163 265.140 0.00 0.91303 0.11
10 0 2 o 57.379 55.577 180.00 0.91303 0.01
10 4 0 o 70.477 62.437 180.00 0.91215 0.01
7 2 4 o 44.949 34.269 0.00 0.91174 0.02
3 3 5 o 390.490 341.274 0.00 0.90980 0.04
10 1 2 o 32.814 33.382 0.00 0.90911 0.01
8 7 1 o 86.629 93.238 0.00 0.90846 0.04
9 1 3 o 4751.783 4755.395 0.00 0.90632 1.41
4 2 5 o 0.778 0.699 180.00 0.90209 0.00
10 2 2 o 2112.760 2099.897 0.00 0.89766 0.53
10 4 1 o 555.859 495.700 180.00 0.89703 0.22
7 6 3 o 14.856 13.375 0.00 0.89497 0.01
9 2 3 o 0.052 0.047 180.00 0.89497 0.00
9 6 1 o 88.109 91.847 0.00 0.89331 0.04
7 3 4 o 6865.524 6988.743 180.00 0.89272 2.37
9 5 2 o 227.374 218.873 0.00 0.89026 0.17
