#------------------------------------------------------------------------------
#$Date: 2021-06-21 11:19:46 +0300 (Mon, 21 Jun 2021) $
#$Revision: 266600 $
#$URL: file:///home/coder/svn-repositories/cod/cif/1/56/36/1563629.cif $
#------------------------------------------------------------------------------
#
# This file is available in the Crystallography Open Database (COD),
# http://www.crystallography.net/
#
# All data on this site have been placed in the public domain by the
# contributors.
#
data_1563629
loop_
_publ_author_name
'Zubkov, Vladimir G.'
'Tarakina, Nadezda V.'
'Leonidov, Ivan I.'
'Tyutyunnik, Alexander P.'
'Surat, Ludmila L.'
'Melkozerova, Marina A.'
'Zabolotskaya, Elena V.'
'Kellerman, Dina G.'
_publ_section_title
;
 Synthesis and crystal structure of Ln2M2+Ge4O12, Ln=rare-earth element or
 Y; M=Ca, Mn, Zn
;
_journal_issue                   5
_journal_name_full               'Journal of Solid State Chemistry'
_journal_page_first              1186
_journal_page_last               1193
_journal_paper_doi               10.1016/j.jssc.2010.03.027
_journal_volume                  183
_journal_year                    2010
_chemical_formula_sum            'Gd2 Ge4 Mn O12'
_chemical_formula_weight         851.79
_space_group_IT_number           125
_space_group_name_Hall           '-P 4a 2b'
_space_group_name_H-M_alt        'P 4/n b m :2'
_symmetry_cell_setting           tetragonal
_symmetry_space_group_name_H-M   'P 4/n b m :2'
_cell_angle_alpha                90.0
_cell_angle_beta                 90.0
_cell_angle_gamma                90.0
_cell_formula_units_Z            2
_cell_length_a                   10.00312(7)
_cell_length_b                   10.00312
_cell_length_c                   5.01619(5)
_cell_volume                     501.932(6)
_computing_structure_refinement  GSAS
_diffrn_radiation_polarisn_ratio 0.8
_diffrn_radiation_probe          x-ray
_diffrn_radiation_wavelength     1.54056
_exptl_absorpt_correction_T_max  1.74690
_exptl_absorpt_correction_T_min  1.30818
_exptl_absorpt_process_details
;   GSAS Absorption/surface roughness correction: function number 4
 Flat plate transmission absorption correction
Terms =    -0.17334         0.0000    
Correction is refined.
;
_pd_calc_method                  'Rietveld Refinement'
_pd_instr_location               ' ?'
_pd_meas_2theta_range_inc        0.02
_pd_meas_2theta_range_max        119.98
_pd_meas_2theta_range_min        5.0
_pd_meas_number_of_points        5750
_pd_proc_2theta_range_inc        0.02
_pd_proc_2theta_range_max        119.94141
_pd_proc_2theta_range_min        4.9614
_pd_proc_info_datetime           2010-02-27T11:53:49
_pd_proc_info_excluded_regions   ' ?'
_pd_proc_ls_background_function
;   GSAS Background function number 1 with 36 terms.
 Shifted Chebyshev function of 1st kind
      1:    5015.85     2:   -1690.27     3:    307.508     4:   -396.403    
      5:    77.1476     6:    3.37796     7:   -25.8235     8:    6.50512    
      9:    7.36469    10:   -14.0497    11:    29.4625    12:    7.73923    
     13:   -24.2619    14:    19.6779    15:   -7.26078    16:   -11.7098    
     17:    23.7947    18:   -24.1512    19:    8.48025    20:    10.7468    
     21:   -18.3731    22:    21.1174    23:   -19.3917    24:    2.38900    
     25:    6.04640    26:   -13.1556    27:    23.8126    28:   -17.9830    
     29:    7.69579    30:    8.22540    31:   -14.9378    32:    9.25939    
     33:   -3.16312    34:   -7.87816    35:    13.3682    36:   -5.41427    
;
_pd_proc_ls_peak_cutoff          0.00100
_pd_proc_ls_profile_function
;
 CW Profile function number 2 with  18 terms
 Profile coefficients for Simpson's rule integration of pseudovoigt function
 C.J. Howard (1982). J. Appl. Cryst.,15,615-620.
 P. Thompson, D.E. Cox & J.B. Hastings (1987). J. Appl. Cryst.,20,79-83.
 #1(GU)   =   13.355 #2(GV)   =  -14.900 #3(GW)   =   17.032
 #4(LX)   =    2.447 #5(LY)   =    7.263 #6(trns) =    0.000
 #7(asym) =   1.8829 #8(shft) =   0.0000 #9(GP)   =    0.000
 #10(stec)=     0.00 #11(ptec)=     0.00 #12(sfec)=     0.00
 #13(L11) =    0.000 #14(L22) =    0.000 #15(L33) =    0.000
 #16(L12) =    0.000 #17(L13) =    0.000 #18(L23) =    0.000
 Peak tails are ignored  where the intensity is below 0.0010 times the peak
   Aniso. broadening axis   0.0   0.0   1.0
;
_pd_proc_ls_prof_R_factor        0.0116
_pd_proc_ls_prof_wR_expected     0.0139
_pd_proc_ls_prof_wR_factor       0.0149
_pd_proc_number_of_points        5750
_pd_spec_mounting                ' ?'
_refine_ls_goodness_of_fit_all   1.08
_refine_ls_matrix_type           full
_refine_ls_number_parameters     56
_refine_ls_number_restraints     0
_refine_ls_R_Fsqd_factor         0.01163
_refine_ls_shift/su_max          0.01
_refine_ls_shift/su_mean         0.00
_reflns_d_resolution_high        0.891
_reflns_d_resolution_low         7.073
_reflns_limit_h_max              11
_reflns_limit_h_min              0
_reflns_limit_k_max              8
_reflns_limit_k_min              0
_reflns_limit_l_max              5
_reflns_limit_l_min              0
_reflns_number_total             210
_cod_data_source_file            GD2MNGE4O12.cif
_cod_data_source_block           GD2MNGE4O12_publ
_cod_depositor_comments
;
The following automatic conversions were performed:

data item '_geom_angle_publ_flag' value 'N' was changed to 'n' in
accordance with the built-in table derived from the CIF Core
dictionary named 'cif_core.dic' version 2.4.5 last updated on
2014-11-21 (115 times).

data item '_geom_bond_publ_flag' value 'N' was changed to 'n' in
accordance with the built-in table derived from the CIF Core
dictionary named 'cif_core.dic' version 2.4.5 last updated on
2014-11-21 (50 times).

Automatic conversion script
Id: cif_fix_values 8369 2020-08-20 11:38:08Z andrius 
;
_cod_original_cell_volume        501.932(10)
_cod_original_sg_symbol_H-M      'P 4/n b m'
_cod_original_formula_sum        'Gd2.00 Ge4 Mn1.00 O12'
_cod_database_code               1563629
_gsas_exptl_extinct_corr_t_min   1.00000
_gsas_exptl_extinct_corr_t_max   1.00000
loop_
_symmetry_equiv_pos_site_id
_symmetry_equiv_pos_as_xyz
1 +x,+y,+z
2 -y+1/2,+x,+z
3 -x+1/2,-y+1/2,+z
4 +y,-x+1/2,+z
5 -x,+y+1/2,+z
6 -y,-x,+z
7 +x+1/2,-y,+z
8 +y+1/2,+x+1/2,+z
-1 -x,-y,-z
-2 +y+1/2,-x,-z
-3 +x+1/2,+y+1/2,-z
-4 -y,+x+1/2,-z
-5 +x,-y+1/2,-z
-6 +y,+x,-z
-7 -x+1/2,+y,-z
-8 -y+1/2,-x+1/2,-z
loop_
_atom_site_type_symbol
_atom_site_label
_atom_site_fract_x
_atom_site_fract_y
_atom_site_fract_z
_atom_site_occupancy
_atom_site_thermal_displace_type
_atom_site_U_iso_or_equiv
_atom_site_symmetry_multiplicity
Mn Mn 0.0 0.0 0.5 0.5 Uiso 0.0319(13) 4
Gd Gd1 0.0 0.0 0.5 0.5 Uiso 0.0319(13) 4
Gd Gd2 0.25 0.25 0.5 1.0 Uiso 0.0265(14) 2
Ge GE 0.97578(15) 0.25 0.0 1.0 Uiso 0.0263(13) 8
O O1 0.1328(5) 0.8672(5) 0.8384(15) 1.0 Uiso 0.0203(29) 8
O O2 0.1685(5) 0.0593(5) 0.2524(11) 1.0 Uiso 0.0148(21) 16
loop_
_atom_type_symbol
_atom_type_number_in_cell
_atom_type_scat_dispersion_real
_atom_type_scat_dispersion_imag
_atom_type_scat_Cromer_Mann_a1
_atom_type_scat_Cromer_Mann_a2
_atom_type_scat_Cromer_Mann_a3
_atom_type_scat_Cromer_Mann_a4
_atom_type_scat_Cromer_Mann_b1
_atom_type_scat_Cromer_Mann_b2
_atom_type_scat_Cromer_Mann_b3
_atom_type_scat_Cromer_Mann_b4
_atom_type_scat_Cromer_Mann_c
_atom_type_scat_source
Mn 2.0 0.000 0.000 11.2819 5.34090 7.35730 0.34320 3.01930 17.8674 2.24410
83.7543 1.08960 International_Tables_Vol_C
Gd 4.0 0.000 0.000 25.0709 2.25341 19.0798 0.18195 13.8518 12.9331 3.54545
101.398 2.41960 International_Tables_Vol_C
Ge 8.0 0.000 0.000 16.0816 2.85090 6.37470 0.25160 3.70680 11.4468 3.68300
54.7625 2.13130 International_Tables_Vol_C
O 24.0 0.000 0.000 3.04850 13.2771 2.28680 5.70110 1.54630 0.32390 0.86700
32.9089 0.25080 International_Tables_Vol_C
loop_
_geom_angle_atom_site_label_1
_geom_angle_atom_site_label_2
_geom_angle_atom_site_label_3
_geom_angle
_geom_angle_site_symmetry_1
_geom_angle_site_symmetry_2
_geom_angle_site_symmetry_3
_geom_angle_publ_flag
O2 Mn O2 95.53(24) 1_555 . 6_555 n
O2 Mn O2 180.0 1_555 . -1_556 n
O2 Mn O2 84.47(24) 1_555 . -6_556 n
O2 Mn O2 84.47(24) 6_555 . -1_556 n
O2 Mn O2 180.0 6_555 . -6_556 n
O2 Mn O2 95.53(24) -1_556 . -6_556 n
Gd2 Gd1 Gd2 180.0 1_555 . 5_545 n
Gd2 Gd1 O1 89.9989 1_555 . 1_545 n
Gd2 Gd1 O1 90.0011 1_555 . -1_566 n
Gd2 Gd1 O2 42.23(12) 1_555 . 1_555 n
Gd2 Gd1 O2 137.77(12) 1_555 . 6_555 n
Gd2 Gd1 O2 137.77(12) 1_555 . -1_556 n
Gd2 Gd1 O2 42.23(12) 1_555 . -6_556 n
Gd2 Gd1 O1 90.0011 5_545 . 1_545 n
Gd2 Gd1 O1 89.9989 5_545 . -1_566 n
Gd2 Gd1 O2 137.77(12) 5_545 . 1_555 n
Gd2 Gd1 O2 42.23(12) 5_545 . 6_555 n
Gd2 Gd1 O2 42.23(12) 5_545 . -1_556 n
Gd2 Gd1 O2 137.77(12) 5_545 . -6_556 n
O1 Gd1 O1 180.0 1_545 . -1_566 n
O1 Gd1 O2 96.84(19) 1_545 . 1_555 n
O1 Gd1 O2 96.84(19) 1_545 . 6_555 n
O1 Gd1 O2 83.16(19) 1_545 . -1_556 n
O1 Gd1 O2 83.16(19) 1_545 . -6_556 n
O1 Gd1 O2 83.16(19) -1_566 . 1_555 n
O1 Gd1 O2 83.16(19) -1_566 . 6_555 n
O1 Gd1 O2 96.84(19) -1_566 . -1_556 n
O1 Gd1 O2 96.84(19) -1_566 . -6_556 n
O2 Gd1 O2 95.53(24) 1_555 . 6_555 n
O2 Gd1 O2 180.0 1_555 . -1_556 n
O2 Gd1 O2 84.47(24) 1_555 . -6_556 n
O2 Gd1 O2 84.47(24) 6_555 . -1_556 n
O2 Gd1 O2 180.0 6_555 . -6_556 n
O2 Gd1 O2 95.53(24) -1_556 . -6_556 n
Gd1 Gd2 Gd1 90.0 1_555 . 2_555 n
Gd1 Gd2 Gd1 180.0 1_555 . 3_555 n
Gd1 Gd2 Gd1 90.0 1_555 . 4_555 n
Gd1 Gd2 O2 37.22(14) 1_555 . 1_555 n
Gd1 Gd2 O2 108.63(11) 1_555 . 2_555 n
Gd1 Gd2 O2 142.78(14) 1_555 . 3_555 n
Gd1 Gd2 O2 71.37(11) 1_555 . 4_555 n
Gd1 Gd2 O2 108.63(11) 1_555 . -5_456 n
Gd1 Gd2 O2 37.22(14) 1_555 . -6_556 n
Gd1 Gd2 O2 71.37(11) 1_555 . -7_546 n
Gd1 Gd2 O2 142.78(14) 1_555 . -8_556 n
Gd1 Gd2 Gd1 90.0 2_555 . 3_555 n
Gd1 Gd2 Gd1 180.0 2_555 . 4_555 n
Gd1 Gd2 O2 71.37(11) 2_555 . 1_555 n
Gd1 Gd2 O2 37.22(14) 2_555 . 2_555 n
Gd1 Gd2 O2 108.63(11) 2_555 . 3_555 n
Gd1 Gd2 O2 142.78(14) 2_555 . 4_555 n
Gd1 Gd2 O2 142.78(14) 2_555 . -5_456 n
Gd1 Gd2 O2 108.63(11) 2_555 . -6_556 n
Gd1 Gd2 O2 37.22(14) 2_555 . -7_546 n
Gd1 Gd2 O2 71.37(11) 2_555 . -8_556 n
Gd1 Gd2 Gd1 90.0 3_555 . 4_555 n
Gd1 Gd2 O2 142.78(14) 3_555 . 1_555 n
Gd1 Gd2 O2 71.37(11) 3_555 . 2_555 n
Gd1 Gd2 O2 37.22(14) 3_555 . 3_555 n
Gd1 Gd2 O2 108.63(11) 3_555 . 4_555 n
Gd1 Gd2 O2 71.37(11) 3_555 . -5_456 n
Gd1 Gd2 O2 142.78(14) 3_555 . -6_556 n
Gd1 Gd2 O2 108.63(11) 3_555 . -7_546 n
Gd1 Gd2 O2 37.22(14) 3_555 . -8_556 n
Gd1 Gd2 O2 108.63(11) 4_555 . 1_555 n
Gd1 Gd2 O2 142.78(14) 4_555 . 2_555 n
Gd1 Gd2 O2 71.37(11) 4_555 . 3_555 n
Gd1 Gd2 O2 37.22(14) 4_555 . 4_555 n
Gd1 Gd2 O2 37.22(14) 4_555 . -5_456 n
Gd1 Gd2 O2 71.37(11) 4_555 . -6_556 n
Gd1 Gd2 O2 142.78(14) 4_555 . -7_546 n
Gd1 Gd2 O2 108.63(11) 4_555 . -8_556 n
O2 Gd2 O2 74.70(12) 1_555 . 2_555 n
O2 Gd2 O2 118.19(27) 1_555 . 3_555 n
O2 Gd2 O2 74.70(12) 1_555 . 4_555 n
O2 Gd2 O2 140.59(23) 1_555 . -5_456 n
O2 Gd2 O2 74.44(27) 1_555 . -6_556 n
O2 Gd2 O2 75.81(23) 1_555 . -7_546 n
O2 Gd2 O2 142.73(21) 1_555 . -8_556 n
O2 Gd2 O2 74.70(12) 2_555 . 3_555 n
O2 Gd2 O2 118.19(27) 2_555 . 4_555 n
O2 Gd2 O2 142.73(21) 2_555 . -5_456 n
O2 Gd2 O2 140.59(23) 2_555 . -6_556 n
O2 Gd2 O2 74.44(27) 2_555 . -7_546 n
O2 Gd2 O2 75.81(23) 2_555 . -8_556 n
O2 Gd2 O2 74.70(12) 3_555 . 4_555 n
O2 Gd2 O2 75.81(23) 3_555 . -5_456 n
O2 Gd2 O2 142.73(21) 3_555 . -6_556 n
O2 Gd2 O2 140.59(23) 3_555 . -7_546 n
O2 Gd2 O2 74.44(27) 3_555 . -8_556 n
O2 Gd2 O2 74.44(27) 4_555 . -5_456 n
O2 Gd2 O2 75.81(23) 4_555 . -6_556 n
O2 Gd2 O2 142.73(21) 4_555 . -7_546 n
O2 Gd2 O2 140.59(23) 4_555 . -8_556 n
O2 Gd2 O2 74.70(12) -5_456 . -6_556 n
O2 Gd2 O2 118.19(27) -5_456 . -7_546 n
O2 Gd2 O2 74.70(12) -5_456 . -8_556 n
O2 Gd2 O2 74.70(12) -6_556 . -7_546 n
O2 Gd2 O2 118.19(27) -6_556 . -8_556 n
O2 Gd2 O2 74.70(12) -7_546 . -8_556 n
O1 GE O1 105.4(5) 4_554 . -1_666 n
O1 GE O2 108.48(34) 4_554 . 4_655 n
O1 GE O2 105.73(30) 4_554 . -6_655 n
O1 GE O2 105.73(30) -1_666 . 4_655 n
O1 GE O2 108.48(34) -1_666 . -6_655 n
O2 GE O2 122.0(4) 4_655 . -6_655 n
Gd1 O1 GE 109.17(24) 1_565 . 2_556 n
Gd1 O1 GE 109.16(24) 1_565 . 5_656 n
GE O1 GE 126.1(4) 2_556 . 5_656 n
Mn O2 Gd1 0.0 1_555 . 1_555 n
Mn O2 Gd2 100.55(18) 1_555 . 1_555 n
Mn O2 GE 130.86(29) 1_555 . 2_545 n
Gd1 O2 Gd2 100.55(18) 1_555 . 1_555 n
Gd1 O2 GE 130.86(29) 1_555 . 2_545 n
Gd2 O2 GE 126.92(30) 1_555 . 2_545 n
loop_
_geom_bond_atom_site_label_1
_geom_bond_atom_site_label_2
_geom_bond_distance
_geom_bond_site_symmetry_1
_geom_bond_site_symmetry_2
_geom_bond_publ_flag
Mn O1 2.532(7) . 1_545 n
Mn O1 2.532(7) . -1_566 n
Mn O2 2.176(6) . 1_555 n
Mn O2 2.176(6) . 6_555 n
Mn O2 2.176(6) . -1_556 n
Mn O2 2.176(6) . -6_556 n
Gd1 Gd2 3.536640(30) . 1_555 n
Gd1 Gd2 3.536640(30) . 5_545 n
Gd1 GE 3.55009(10) . 1_455 n
Gd1 GE 3.55009(10) . 1_456 n
Gd1 GE 3.55009(10) . 2_545 n
Gd1 GE 3.55009(10) . 2_546 n
Gd1 GE 3.55009(10) . 5_645 n
Gd1 GE 3.55009(10) . 5_646 n
Gd1 GE 3.55009(10) . 6_565 n
Gd1 GE 3.55009(10) . 6_566 n
Gd1 O1 2.532(7) . 1_545 n
Gd1 O1 2.532(7) . -1_566 n
Gd1 O2 2.176(6) . 1_555 n
Gd1 O2 2.176(6) . 6_555 n
Gd1 O2 2.176(6) . -1_556 n
Gd1 O2 2.176(6) . -6_556 n
Gd2 Gd1 3.536640(30) . 1_555 n
Gd2 Gd1 3.536640(30) . 2_555 n
Gd2 Gd1 3.536640(30) . 3_555 n
Gd2 Gd1 3.536640(30) . 4_555 n
Gd2 O2 2.418(5) . 1_555 n
Gd2 O2 2.418(5) . 2_555 n
Gd2 O2 2.418(5) . 3_555 n
Gd2 O2 2.418(5) . 4_555 n
Gd2 O2 2.418(5) . -5_556 n
Gd2 O2 2.418(5) . -6_556 n
Gd2 O2 2.418(5) . -7_556 n
Gd2 O2 2.418(5) . -8_556 n
GE Gd1 3.55009(10) . 1_654 n
GE Gd1 3.55009(10) . 1_655 n
GE Gd1 3.55009(10) . 4_654 n
GE Gd1 3.55009(10) . 4_655 n
GE O1 1.7918(33) . 4_554 n
GE O1 1.7919(33) . -1_666 n
GE O2 1.722(5) . 4_655 n
GE O2 1.722(5) . -6_655 n
O1 Mn 2.532(7) . 1_565 n
O1 Gd1 2.532(7) . 1_565 n
O1 GE 1.7918(33) . 2_556 n
O1 GE 1.7919(33) . 5_656 n
O2 Mn 2.176(6) . 1_555 n
O2 Gd1 2.176(6) . 1_555 n
O2 Gd2 2.418(5) . 1_555 n
O2 GE 1.722(5) . 2_545 n
loop_
_pd_meas_counts_total
_pd_proc_ls_weight
_pd_proc_intensity_bkg_calc
_pd_calc_intensity_total
7442.0 0.0001344 7499.29541 7499.29541
7378.0 0.0001355 7487.97119 7487.97119
7530.0 0.0001328 7477.70068 7477.70117
7526.0 0.0001329 7468.40479 7468.40527
7457.0 0.0001341 7460.00879 7460.00879
7545.0 0.0001325 7452.44141 7452.44141
7453.0 0.0001342 7445.63574 7445.63574
7499.0 0.0001334 7439.52881 7439.52930
7303.0 0.0001369 7434.06201 7434.06250
7345.0 0.0001361 7429.17920 7429.17969
7361.0 0.0001359 7424.82813 7424.82861
7329.0 0.0001364 7420.95947 7420.95996
7425.0 0.0001347 7417.52734 7417.52734
7402.0 0.0001351 7414.48828 7414.48828
7571.0 0.0001321 7411.80176 7411.80225
7430.0 0.0001346 7409.43018 7409.43066
7382.0 0.0001355 7407.33838 7407.33838
7416.0 0.0001348 7405.49268 7405.49316
7484.0 0.0001336 7403.86328 7403.86377
7519.0 0.0001330 7402.42139 7402.42139
7390.0 0.0001353 7401.14014 7401.14014
7519.0 0.0001330 7399.99512 7399.99561
7494.0 0.0001334 7398.96387 7398.96387
7387.0 0.0001354 7398.02490 7398.02490
7356.0 0.0001359 7397.15918 7397.15918
7443.0 0.0001344 7396.34863 7396.34863
7348.0 0.0001361 7395.57715 7395.57715
7410.0 0.0001350 7394.82959 7394.82959
7468.0 0.0001339 7394.09229 7394.09229
7507.0 0.0001332 7393.35303 7393.35303
7485.0 0.0001336 7392.60010 7392.60059
7212.0 0.0001387 7391.82373 7391.82422
7487.0 0.0001336 7391.01514 7391.01514
7358.0 0.0001359 7390.16504 7390.16553
7397.0 0.0001352 7389.26709 7389.26709
7263.0 0.0001377 7388.31494 7388.31494
7436.0 0.0001345 7387.30225 7387.30225
7309.0 0.0001368 7386.22461 7386.22461
7330.0 0.0001364 7385.07813 7385.07813
7315.0 0.0001367 7383.85840 7383.85840
7281.0 0.0001373 7382.56348 7382.56348
7408.0 0.0001350 7381.18994 7381.18994
7455.0 0.0001341 7379.73730 7379.73730
7496.0 0.0001334 7378.20313 7378.20313
7346.0 0.0001361 7376.58691 7376.58691
7298.0 0.0001370 7374.88818 7374.88818
7269.0 0.0001376 7373.10693 7373.10645
7390.0 0.0001353 7371.24316 7371.24316
7260.0 0.0001377 7369.29736 7369.29736
7253.0 0.0001379 7367.27051 7367.27051
7203.0 0.0001388 7365.16406 7365.16406
7338.0 0.0001363 7362.97900 7362.97852
7314.0 0.0001367 7360.71680 7360.71680
7571.0 0.0001321 7358.37939 7358.37939
7328.0 0.0001365 7355.96875 7355.96875
7270.0 0.0001376 7353.48730 7353.48682
7590.0 0.0001318 7350.93652 7350.93604
7318.0 0.0001366 7348.31934 7348.31934
7429.0 0.0001346 7345.63818 7345.63770
7379.0 0.0001355 7342.89502 7342.89502
7316.0 0.0001367 7340.09326 7340.09277
7207.0 0.0001388 7337.23486 7337.23438
7312.0 0.0001368 7334.32324 7334.32275
7363.0 0.0001358 7331.36035 7331.35986
7274.0 0.0001375 7328.34961 7328.34912
7418.0 0.0001348 7325.29346 7325.29297
7407.0 0.0001350 7322.19434 7322.19434
7345.0 0.0001361 7319.05615 7319.05615
7307.0 0.0001369 7315.88086 7315.88037
7260.0 0.0001377 7312.67090 7312.67090
7322.0 0.0001366 7309.42969 7309.42920
7255.0 0.0001378 7306.15967 7306.15918
7412.0 0.0001349 7302.86328 7302.86279
7352.0 0.0001360 7299.54297 7299.54248
7151.0 0.0001398 7296.20215 7296.20166
7177.0 0.0001393 7292.84229 7292.84180
7271.0 0.0001375 7289.46631 7289.46582
7361.0 0.0001359 7286.07666 7286.07617
7227.0 0.0001384 7282.67529 7282.67480
7263.0 0.0001377 7279.26514 7279.26465
7265.0 0.0001376 7275.84766 7275.84717
7258.0 0.0001378 7272.42529 7272.42480
7245.0 0.0001380 7268.99951 7268.99951
7252.0 0.0001379 7265.57373 7265.57324
7301.0 0.0001370 7262.14795 7262.14746
7184.0 0.0001392 7258.72510 7258.72510
7308.0 0.0001368 7255.30713 7255.30713
7263.0 0.0001377 7251.89502 7251.89453
7307.0 0.0001369 7248.49072 7248.49072
7173.0 0.0001394 7245.09570 7245.09521
7246.0 0.0001380 7241.71143 7241.71094
7260.0 0.0001377 7238.33936 7238.33887
7298.0 0.0001370 7234.97998 7234.97998
7310.0 0.0001368 7231.63574 7231.63525
7124.0 0.0001404 7228.30713 7228.30664
7150.0 0.0001399 7224.99512 7224.99512
7281.0 0.0001373 7221.70117 7221.70068
7189.0 0.0001391 7218.42578 7218.42529
7292.0 0.0001371 7215.16992 7215.16943
7339.0 0.0001363 7211.93457 7211.93408
7044.0 0.0001420 7208.72021 7208.72021
7227.0 0.0001384 7205.52783 7205.52783
7174.0 0.0001394 7202.35791 7202.35742
7237.0 0.0001382 7199.21094 7199.21094
7133.0 0.0001402 7196.08740 7196.08740
7275.0 0.0001375 7192.98828 7192.98828
7281.0 0.0001373 7189.91309 7189.91309
7285.0 0.0001373 7186.86279 7186.86279
7282.0 0.0001373 7183.83740 7183.83691
7193.0 0.0001390 7180.83691 7180.83691
7059.0 0.0001417 7177.86230 7177.86230
7256.0 0.0001378 7174.91357 7174.91309
7197.0 0.0001389 7171.98975 7171.98975
7210.0 0.0001387 7169.09229 7169.09180
7176.0 0.0001394 7166.22021 7166.22021
7147.0 0.0001399 7163.37451 7163.37402
7133.0 0.0001402 7160.55420 7160.55371
7150.0 0.0001399 7157.75977 7157.75928
7293.0 0.0001371 7154.99023 7154.99023
7306.0 0.0001369 7152.24658 7152.24658
7229.0 0.0001383 7149.52881 7149.52832
7125.0 0.0001404 7146.83545 7146.83545
7232.0 0.0001383 7144.16748 7144.16699
7156.0 0.0001397 7141.52344 7141.52344
7095.0 0.0001409 7138.90479 7138.90430
7184.0 0.0001392 7136.30957 7136.30908
7186.0 0.0001392 7133.73828 7133.73779
7104.0 0.0001408 7131.19043 7131.19043
7172.0 0.0001394 7128.66602 7128.66553
7046.0 0.0001419 7126.16455 7126.16406
7011.0 0.0001426 7123.68506 7123.68506
7263.0 0.0001377 7121.22803 7121.22803
6952.0 0.0001438 7118.79297 7118.79297
7116.0 0.0001405 7116.37891 7116.37891
6996.0 0.0001429 7113.98633 7113.98633
7133.0 0.0001402 7111.61377 7111.61377
7059.0 0.0001417 7109.26172 7109.26172
7074.0 0.0001414 7106.92969 7106.92969
7164.0 0.0001396 7104.61670 7104.61670
7015.0 0.0001426 7102.32324 7102.32324
7066.0 0.0001415 7100.04785 7100.04785
6999.0 0.0001429 7097.79102 7097.79102
7080.0 0.0001412 7095.55127 7095.55127
6942.0 0.0001441 7093.32959 7093.32959
7163.0 0.0001396 7091.12451 7091.12451
7070.0 0.0001414 7088.93604 7088.93604
7265.0 0.0001376 7086.76416 7086.76416
6961.0 0.0001437 7084.60742 7084.60742
7126.0 0.0001403 7082.46680 7082.46680
7191.0 0.0001391 7080.34033 7080.34033
7081.0 0.0001412 7078.22900 7078.22900
6976.0 0.0001433 7076.13184 7076.13184
7020.0 0.0001425 7074.04834 7074.04834
7162.0 0.0001396 7071.97900 7071.97900
7084.0 0.0001412 7069.92236 7069.92236
7115.0 0.0001405 7067.87891 7067.87891
7047.0 0.0001419 7065.84766 7065.84766
7083.0 0.0001412 7063.82861 7063.82861
7093.0 0.0001410 7061.82178 7061.82178
7080.0 0.0001412 7059.82617 7059.82666
7041.0 0.0001420 7057.84277 7057.84277
7096.0 0.0001409 7055.86963 7055.86963
7171.0 0.0001395 7053.90723 7053.90723
7112.0 0.0001406 7051.95557 7051.95557
7089.0 0.0001411 7050.01367 7050.01416
7115.0 0.0001405 7048.08252 7048.08252
7069.0 0.0001415 7046.16064 7046.16064
6993.0 0.0001430 7044.24854 7044.24854
7166.0 0.0001395 7042.34570 7042.34570
6999.0 0.0001429 7040.45215 7040.45215
6913.0 0.0001447 7038.56738 7038.56738
7085.0 0.0001411 7036.69141 7036.69141
7122.0 0.0001404 7034.82422 7034.82422
6877.0 0.0001454 7032.96484 7032.96484
6999.0 0.0001429 7031.11426 7031.11426
6976.0 0.0001433 7029.27148 7029.27197
7099.0 0.0001409 7027.43701 7027.43701
7044.0 0.0001420 7025.61035 7025.61035
6970.0 0.0001435 7023.79102 7023.79150
7093.0 0.0001410 7021.97998 7021.97998
6924.0 0.0001444 7020.17578 7020.17578
6947.0 0.0001439 7018.37939 7018.37939
6938.0 0.0001441 7016.59033 7016.59033
7084.0 0.0001412 7014.80859 7014.80859
7065.0 0.0001415 7013.03369 7013.03369
6911.0 0.0001447 7011.26611 7011.26611
6894.0 0.0001451 7009.50537 7009.50537
6939.0 0.0001441 7007.75195 7007.75195
6971.0 0.0001435 7006.00537 7006.00537
7026.0 0.0001423 7004.26563 7004.26563
7085.0 0.0001411 7002.53271 7002.53271
7001.0 0.0001428 7000.80664 7000.80664
7173.0 0.0001394 6999.08740 6999.08740
7187.0 0.0001391 6997.37500 6997.37500
7138.0 0.0001401 6995.66943 6995.66943
6923.0 0.0001444 6993.97021 6993.97021
6883.0 0.0001453 6992.27783 6992.27783
7074.0 0.0001414 6990.59229 6990.59229
6851.0 0.0001460 6988.91309 6988.91309
6805.0 0.0001470 6987.24121 6987.24121
6817.0 0.0001467 6985.57520 6985.57520
6992.0 0.0001430 6983.91650 6983.91650
7005.0 0.0001428 6982.26416 6982.26416
7014.0 0.0001426 6980.61865 6980.61865
6864.0 0.0001457 6978.97949 6978.97949
6865.0 0.0001457 6977.34717 6977.34717
7067.0 0.0001415 6975.72168 6975.72168
7047.0 0.0001419 6974.10254 6974.10254
7013.0 0.0001426 6972.49023 6972.49023
6933.0 0.0001442 6970.88428 6970.88428
6887.0 0.0001452 6969.28467 6969.28467
7002.0 0.0001428 6967.69238 6967.69238
6896.0 0.0001450 6966.10645 6966.10645
6838.0 0.0001462 6964.52686 6964.52686
6782.0 0.0001474 6962.95410 6962.95410
6848.0 0.0001460 6961.38770 6961.38770
6957.0 0.0001437 6959.82764 6959.82764
7005.0 0.0001428 6958.27441 6958.27441
6971.0 0.0001435 6956.72754 6956.72754
6966.0 0.0001436 6955.18701 6955.18701
6934.0 0.0001442 6953.65283 6953.65283
6960.0 0.0001437 6952.12500 6952.12500
7003.0 0.0001428 6950.60352 6950.60352
6874.0 0.0001455 6949.08838 6949.08838
6889.0 0.0001452 6947.57959 6947.57910
6834.0 0.0001463 6946.07666 6946.07666
6985.0 0.0001432 6944.57959 6944.57959
7097.0 0.0001409 6943.08838 6943.08838
6972.0 0.0001434 6941.60352 6941.60352
6912.0 0.0001447 6940.12451 6940.12451
6971.0 0.0001435 6938.65088 6938.65088
6934.0 0.0001442 6937.18311 6937.18311
7028.0 0.0001423 6935.72070 6935.72070
6887.0 0.0001452 6934.26416 6934.26416
6883.0 0.0001453 6932.81250 6932.81250
6907.0 0.0001448 6931.36621 6931.36621
6920.0 0.0001445 6929.92480 6929.92480
6844.0 0.0001461 6928.48877 6928.48828
6877.0 0.0001454 6927.05664 6927.05664
6976.0 0.0001433 6925.62988 6925.62988
6772.0 0.0001477 6924.20752 6924.20752
6910.0 0.0001447 6922.78906 6922.78906
6873.0 0.0001455 6921.37549 6921.37500
6873.0 0.0001455 6919.96533 6919.96533
6763.0 0.0001479 6918.55908 6918.55859
6920.0 0.0001445 6917.15625 6917.15625
6985.0 0.0001432 6915.75732 6915.75684
6919.0 0.0001445 6914.36133 6914.36133
7030.0 0.0001422 6912.96826 6912.96826
6994.0 0.0001430 6911.57813 6911.57813
6980.0 0.0001433 6910.19043 6910.19043
6958.0 0.0001437 6908.80518 6908.80518
7123.0 0.0001404 6907.42236 6907.42188
6832.0 0.0001464 6906.04102 6906.04053
6971.0 0.0001435 6904.66113 6904.66113
6975.0 0.0001434 6903.28271 6903.28271
6792.0 0.0001472 6901.90576 6901.90576
6838.0 0.0001462 6900.52930 6900.52930
6947.0 0.0001439 6899.15381 6899.15332
6949.0 0.0001439 6897.77832 6897.77832
6881.0 0.0001453 6896.40283 6896.40283
6957.0 0.0001437 6895.02734 6895.02686
6972.0 0.0001434 6893.65088 6893.65088
6933.0 0.0001442 6892.27393 6892.27344
6786.0 0.0001474 6890.89551 6890.89551
6887.0 0.0001452 6889.51563 6889.51563
6967.0 0.0001435 6888.13428 6888.13379
6995.0 0.0001430 6886.75049 6886.75049
6979.0 0.0001433 6885.36475 6885.36426
6916.0 0.0001446 6883.97559 6883.97559
6832.0 0.0001464 6882.58350 6882.58350
6784.0 0.0001474 6881.18848 6881.18799
6959.0 0.0001437 6879.78906 6879.78857
6913.0 0.0001447 6878.38574 6878.38574
6889.0 0.0001452 6876.97803 6876.97803
6769.0 0.0001477 6875.56543 6875.56543
6902.0 0.0001449 6874.14795 6874.14746
6956.0 0.0001438 6872.72461 6872.72461
6810.0 0.0001468 6871.29541 6871.29541
6997.0 0.0001429 6869.86035 6869.85986
7015.0 0.0001426 6868.41846 6868.41797
6791.0 0.0001473 6866.96973 6866.96924
6856.0 0.0001459 6865.51318 6865.51318
7015.0 0.0001426 6864.04980 6864.04932
6861.0 0.0001458 6862.57764 6862.57715
6879.0 0.0001454 6861.09766 6861.09717
6936.0 0.0001442 6859.60840 6859.60791
6849.0 0.0001460 6858.10986 6858.10938
6831.0 0.0001464 6856.60205 6856.60205
7002.0 0.0001428 6855.08447 6855.08398
6927.0 0.0001444 6853.55664 6853.55615
6863.0 0.0001457 6852.01758 6852.01758
6879.0 0.0001454 6850.46777 6850.46777
6958.0 0.0001437 6848.90723 6848.90674
7018.0 0.0001425 6847.33398 6847.33398
6747.0 0.0001482 6845.74951 6845.74902
6925.0 0.0001444 6844.15186 6844.15137
6938.0 0.0001441 6842.54150 6842.54150
6759.0 0.0001480 6840.91797 6840.91797
6948.0 0.0001439 6839.28125 6839.28076
6889.0 0.0001452 6837.63037 6837.62988
6677.0 0.0001498 6835.96484 6835.96436
6973.0 0.0001434 6834.28516 6834.28467
6950.0 0.0001439 6832.59033 6832.58984
6839.0 0.0001462 6830.88037 6830.87988
6829.0 0.0001464 6829.15430 6829.15430
6735.0 0.0001485 6827.41260 6827.41260
6942.0 0.0001441 6825.65479 6825.65430
7008.0 0.0001427 6823.87988 6823.87988
6827.0 0.0001465 6822.08838 6822.08789
6775.0 0.0001476 6820.27930 6820.27930
6757.0 0.0001480 6818.45264 6818.45264
6717.0 0.0001489 6816.60840 6816.60791
6991.0 0.0001430 6814.74561 6814.74561
6918.0 0.0001446 6812.86475 6812.86426
6780.0 0.0001475 6810.96484 6810.96436
6840.0 0.0001462 6809.04590 6809.04541
6803.0 0.0001470 6807.10742 6807.10693
6781.0 0.0001475 6805.14941 6805.14893
6659.0 0.0001502 6803.17139 6807.67920
6693.0 0.0001494 6801.17334 6805.84424
6873.0 0.0001455 6799.15527 6803.99805
6849.0 0.0001460 6797.11621 6802.14063
6731.0 0.0001486 6795.05615 6800.27295
6789.0 0.0001473 6792.97510 6798.39600
6840.0 0.0001462 6790.87256 6796.50928
6766.0 0.0001478 6788.74902 6794.61377
6885.0 0.0001452 6786.60303 6792.71143
6677.0 0.0001498 6784.43555 6790.80225
6808.0 0.0001469 6782.24609 6788.88770
6672.0 0.0001499 6780.03369 6786.96924
6679.0 0.0001497 6777.79932 6785.04834
6780.0 0.0001475 6775.54248 6783.12646
6746.0 0.0001482 6773.26221 6781.20557
6791.0 0.0001473 6770.95947 6779.28711
6733.0 0.0001485 6768.63330 6777.37451
6843.0 0.0001461 6766.28418 6775.47070
6758.0 0.0001480 6763.91162 6773.57813
6747.0 0.0001482 6761.51563 6771.70166
6713.0 0.0001490 6759.09619 6769.84326
6738.0 0.0001484 6756.65283 6768.00977
6684.0 0.0001496 6754.18604 6766.20557
6741.0 0.0001483 6751.69531 6764.43750
6826.0 0.0001465 6749.18115 6762.71240
6750.0 0.0001481 6746.64258 6761.03906
6592.0 0.0001517 6744.08057 6759.42773
6765.0 0.0001478 6741.49414 6757.88965
6725.0 0.0001487 6738.88379 6756.43945
6785.0 0.0001474 6736.24951 6755.09131
6676.0 0.0001498 6733.59131 6753.86670
6685.0 0.0001496 6730.90918 6752.78760
6615.0 0.0001512 6728.20264 6751.88232
6686.0 0.0001496 6725.47266 6751.18555
6875.0 0.0001455 6722.71875 6750.73779
6803.0 0.0001470 6719.94043 6750.59082
6698.0 0.0001493 6717.13916 6750.80762
6674.0 0.0001498 6714.31348 6751.47021
6652.0 0.0001503 6711.46436 6752.67871
6766.0 0.0001478 6708.59229 6754.56592
6768.0 0.0001478 6705.69629 6757.30322
6729.0 0.0001486 6702.77686 6761.11768
6727.0 0.0001487 6699.83447 6766.31592
6735.0 0.0001485 6696.86914 6773.33057
6768.0 0.0001478 6693.88037 6782.82080
6965.0 0.0001436 6690.86963 6795.98145
6722.0 0.0001488 6687.83545 6815.44580
7039.0 0.0001421 6684.77930 6847.51904
7128.0 0.0001403 6681.70117 6906.36963
7264.0 0.0001377 6678.60059 7019.28516
7574.0 0.0001320 6675.47803 7229.57080
7992.0 0.0001251 6672.33447 7593.46680
8124.0 0.0001231 6669.16895 8169.52881
8665.0 0.0001154 6665.98242 8992.59668
9507.0 0.0001052 6662.77490 10027.92480
10582.0 0.0000945 6659.54736 11162.06543
11564.0 0.0000865 6656.29883 12173.83789
12551.0 0.0000797 6653.02979 12635.21484
12290.0 0.0000814 6649.74170 12184.37012
11337.0 0.0000882 6646.43408 11005.40332
10070.0 0.0000993 6643.10693 9622.57715
8680.0 0.0001152 6639.76074 8451.23047
7575.0 0.0001320 6636.39648 7653.01465
7140.0 0.0001401 6633.01318 7194.42529
7011.0 0.0001426 6629.61230 6961.45996
6845.0 0.0001461 6626.19434 6848.20410
6759.0 0.0001480 6622.75830 6789.04688
6743.0 0.0001483 6619.30615 6752.69873
6751.0 0.0001481 6615.83691 6726.64844
6638.0 0.0001506 6612.35156 6706.19922
6677.0 0.0001498 6608.85107 6689.39453
6676.0 0.0001498 6605.33496 6675.20557
6622.0 0.0001510 6601.80420 6662.97803
6549.0 0.0001527 6598.25830 6652.25537
6528.0 0.0001532 6594.69922 6642.70459
6514.0 0.0001535 6591.12549 6634.08057
6682.0 0.0001497 6587.53906 6626.19727
6633.0 0.0001508 6583.93994 6618.91309
6524.0 0.0001533 6580.32861 6612.11719
6600.0 0.0001515 6576.70508 6605.72510
6580.0 0.0001520 6573.07031 6599.66650
6621.0 0.0001510 6569.42432 6593.88818
6537.0 0.0001530 6565.76807 6588.34521
6577.0 0.0001520 6562.10205 6583.00195
6480.0 0.0001543 6558.42627 6577.82910
6393.0 0.0001564 6554.74170 6572.80273
6676.0 0.0001498 6551.04834 6567.90137
6486.0 0.0001542 6547.34766 6563.10986
6530.0 0.0001531 6543.63916 6558.41309
6523.0 0.0001533 6539.92334 6553.79932
6439.0 0.0001553 6536.20117 6549.25830
6562.0 0.0001524 6532.47363 6544.78223
6512.0 0.0001536 6528.74023 6540.36279
6449.0 0.0001551 6525.00195 6535.99414
6406.0 0.0001561 6521.25977 6531.67188
6487.0 0.0001542 6517.51367 6527.39014
6373.0 0.0001569 6513.76416 6523.14502
6621.0 0.0001510 6510.01221 6518.93359
6617.0 0.0001511 6506.25781 6514.75293
6559.0 0.0001525 6502.50195 6510.60107
6500.0 0.0001538 6498.74512 6506.47510
6492.0 0.0001540 6494.98779 6502.37305
6697.0 0.0001493 6491.23047 6498.29395
6466.0 0.0001547 6487.47412 6494.23584
6419.0 0.0001558 6483.71875 6490.19824
6536.0 0.0001530 6479.96582 6486.17969
6514.0 0.0001535 6476.21484 6482.17920
6460.0 0.0001548 6472.46631 6478.19629
6384.0 0.0001566 6468.72217 6474.23145
6443.0 0.0001552 6464.98145 6470.28223
6411.0 0.0001560 6461.24609 6466.35010
6369.0 0.0001570 6457.51563 6462.43311
6389.0 0.0001565 6453.79102 6458.53271
6412.0 0.0001560 6450.07275 6454.64746
6407.0 0.0001561 6446.36182 6446.36182
6426.0 0.0001556 6442.65771 6442.65771
6463.0 0.0001547 6438.96289 6438.96289
6494.0 0.0001540 6435.27588 6435.27588
6516.0 0.0001535 6431.59863 6431.59863
6477.0 0.0001544 6427.93115 6427.93115
6382.0 0.0001567 6424.27441 6424.27441
6345.0 0.0001576 6420.62842 6420.62842
6464.0 0.0001547 6416.99414 6416.99463
6406.0 0.0001561 6413.37207 6413.37207
6449.0 0.0001551 6409.76270 6409.76270
6362.0 0.0001572 6406.16699 6406.16699
6388.0 0.0001565 6402.58496 6402.58496
6334.0 0.0001579 6399.01709 6399.01709
6411.0 0.0001560 6395.46484 6395.46484
6386.0 0.0001566 6391.92773 6391.92773
6539.0 0.0001529 6388.40674 6388.40674
6362.0 0.0001572 6384.90234 6384.90234
6331.0 0.0001580 6381.41553 6381.41553
6430.0 0.0001555 6377.94629 6377.94629
6419.0 0.0001558 6374.49512 6374.49561
6289.0 0.0001590 6371.06348 6371.06348
6331.0 0.0001580 6367.65088 6367.65088
6395.0 0.0001564 6364.25830 6364.25830
6413.0 0.0001559 6360.88574 6360.88574
6240.0 0.0001603 6357.53467 6357.53467
6390.0 0.0001565 6354.20508 6354.20508
6259.0 0.0001598 6350.89697 6350.89697
6379.0 0.0001568 6347.61182 6347.61182
6301.0 0.0001587 6344.34961 6344.34961
6342.0 0.0001577 6341.11084 6341.11084
6318.0 0.0001583 6337.89600 6337.89600
6272.0 0.0001594 6334.70557 6334.70557
6532.0 0.0001531 6331.54004 6331.54004
6260.0 0.0001597 6328.39990 6328.40039
6426.0 0.0001556 6325.28613 6325.28613
6309.0 0.0001585 6322.19824 6322.19824
6237.0 0.0001603 6319.13770 6319.13770
6427.0 0.0001556 6316.10352 6316.10352
6350.0 0.0001575 6313.09766 6313.09814
6260.0 0.0001597 6310.11963 6310.12012
6431.0 0.0001555 6307.17041 6307.17041
6246.0 0.0001601 6304.25000 6304.25000
6384.0 0.0001566 6301.35889 6301.35889
6262.0 0.0001597 6298.49756 6298.49805
6340.0 0.0001577 6295.66650 6295.66699
6201.0 0.0001613 6292.86621 6292.86621
6379.0 0.0001568 6290.09668 6290.09717
6308.0 0.0001585 6287.35840 6287.35889
6380.0 0.0001567 6284.65186 6284.65234
6292.0 0.0001589 6281.97754 6281.97803
6197.0 0.0001614 6279.33545 6279.33594
6276.0 0.0001593 6276.72656 6276.72656
6242.0 0.0001602 6274.15039 6274.15039
6341.0 0.0001577 6271.60742 6271.60791
6250.0 0.0001600 6269.09863 6269.09863
6316.0 0.0001583 6266.62354 6266.62354
6236.0 0.0001604 6264.18262 6264.18311
6190.0 0.0001616 6261.77686 6261.77686
6322.0 0.0001582 6259.40576 6259.40576
6290.0 0.0001590 6257.06982 6257.06982
6265.0 0.0001596 6254.76904 6254.76953
6318.0 0.0001583 6252.50439 6252.50439
6320.0 0.0001582 6250.27539 6250.27539
6160.0 0.0001623 6248.08301 6248.08301
6280.0 0.0001592 6245.92627 6245.92676
6269.0 0.0001595 6243.80713 6243.80713
6211.0 0.0001610 6241.72412 6241.72412
6234.0 0.0001604 6239.67822 6239.67822
6248.0 0.0001601 6237.66992 6237.66992
6425.0 0.0001556 6235.69873 6235.69873
6311.0 0.0001585 6233.76514 6233.76563
6204.0 0.0001612 6231.86963 6231.86963
6240.0 0.0001603 6230.01172 6230.01221
6249.0 0.0001600 6228.19189 6228.19189
6306.0 0.0001586 6226.41016 6226.41064
6357.0 0.0001573 6224.66699 6224.66699
6250.0 0.0001600 6222.96191 6222.96240
6310.0 0.0001585 6221.29590 6221.29590
6281.0 0.0001592 6219.66797 6219.66797
6282.0 0.0001592 6218.07861 6218.07910
6162.0 0.0001623 6216.52832 6216.52881
6163.0 0.0001623 6215.01709 6215.01709
6136.0 0.0001630 6213.54443 6213.54443
6117.0 0.0001635 6212.11084 6212.11084
6231.0 0.0001605 6210.71631 6210.71631
6370.0 0.0001570 6209.36035 6209.36084
6228.0 0.0001606 6208.04346 6208.04395
6252.0 0.0001599 6206.76611 6206.76611
6315.0 0.0001584 6205.52734 6205.52783
6270.0 0.0001595 6204.32764 6204.32813
6224.0 0.0001607 6203.16699 6203.16748
6298.0 0.0001588 6202.04541 6202.04590
6217.0 0.0001608 6200.96289 6200.96289
6264.0 0.0001596 6199.91846 6199.91895
6113.0 0.0001636 6198.91357 6198.91406
6043.0 0.0001655 6197.94727 6197.94727
6213.0 0.0001610 6197.01904 6197.01953
6249.0 0.0001600 6196.12988 6196.13037
6209.0 0.0001611 6195.27930 6195.27930
6260.0 0.0001597 6194.46680 6194.46729
6288.0 0.0001590 6193.69238 6193.69287
6166.0 0.0001622 6192.95654 6192.95703
6270.0 0.0001595 6192.25830 6192.25830
6216.0 0.0001609 6191.59814 6191.59814
6223.0 0.0001607 6190.97510 6190.97559
6341.0 0.0001577 6190.38965 6190.39014
6285.0 0.0001591 6189.84229 6189.84229
6424.0 0.0001557 6189.33105 6189.33154
6253.0 0.0001599 6188.85742 6188.85742
6221.0 0.0001607 6188.42041 6188.42041
6278.0 0.0001593 6188.01953 6188.02002
6183.0 0.0001617 6187.65527 6187.65576
6283.0 0.0001592 6187.32715 6187.32715
6262.0 0.0001597 6187.03467 6187.03516
6171.0 0.0001620 6186.77783 6186.77832
6125.0 0.0001633 6186.55664 6186.55713
6261.0 0.0001597 6186.37012 6186.37061
6293.0 0.0001589 6186.21875 6186.21924
6285.0 0.0001591 6186.10156 6186.10205
6178.0 0.0001619 6186.01904 6186.01953
6240.0 0.0001603 6185.97070 6185.97070
6303.0 0.0001587 6185.95557 6185.95557
6209.0 0.0001611 6185.97363 6185.97412
6262.0 0.0001597 6186.02490 6186.02539
6063.0 0.0001649 6186.10889 6186.10938
6159.0 0.0001624 6186.22559 6186.22607
6234.0 0.0001604 6186.37402 6186.37451
6312.0 0.0001584 6186.55420 6186.55469
6304.0 0.0001586 6186.76563 6186.76611
6396.0 0.0001563 6187.00830 6187.00830
6272.0 0.0001594 6187.28125 6187.28125
6062.0 0.0001650 6187.58447 6187.58496
6197.0 0.0001614 6187.91797 6187.91846
6293.0 0.0001589 6188.28076 6188.28076
6336.0 0.0001578 6188.67236 6188.67285
6165.0 0.0001622 6189.09277 6189.09326
6260.0 0.0001597 6189.54150 6189.54199
6163.0 0.0001623 6190.01807 6190.01855
6197.0 0.0001614 6190.52197 6190.52246
6074.0 0.0001646 6191.05322 6191.05371
6145.0 0.0001627 6191.61084 6191.61133
6123.0 0.0001633 6192.19482 6192.19482
6122.0 0.0001633 6192.80420 6192.80469
6155.0 0.0001625 6193.43896 6193.43945
6120.0 0.0001634 6194.09863 6194.55078
6103.0 0.0001639 6194.78223 6195.25146
6176.0 0.0001619 6195.49023 6196.79541
6197.0 0.0001614 6196.22168 6197.57471
6301.0 0.0001587 6196.97559 6198.37939
6010.0 0.0001664 6197.75195 6199.20947
6190.0 0.0001616 6198.55078 6200.06445
6217.0 0.0001608 6199.37109 6200.94531
6360.0 0.0001572 6200.21191 6201.85010
6255.0 0.0001599 6201.07373 6202.77881
6248.0 0.0001601 6201.95557 6203.73242
6216.0 0.0001609 6202.85645 6204.71045
6130.0 0.0001631 6203.77686 6205.71191
6167.0 0.0001622 6204.71533 6206.73730
6189.0 0.0001616 6205.67188 6207.78711
6218.0 0.0001608 6206.64600 6208.86133
6223.0 0.0001607 6207.63721 6209.95850
6151.0 0.0001626 6208.64502 6211.08105
6101.0 0.0001639 6209.66797 6212.22803
6177.0 0.0001619 6210.70703 6213.39941
6124.0 0.0001633 6211.76074 6214.59717
6081.0 0.0001644 6212.82861 6215.82080
6183.0 0.0001617 6213.91064 6217.07129
6212.0 0.0001610 6215.00537 6218.34961
6206.0 0.0001611 6216.11328 6219.65625
6310.0 0.0001585 6217.23291 6220.99512
6148.0 0.0001627 6218.36426 6222.36572
6061.0 0.0001650 6219.50684 6223.77051
6151.0 0.0001626 6220.66016 6225.21240
6045.0 0.0001654 6221.82324 6226.69531
6117.0 0.0001635 6222.99561 6228.22217
6270.0 0.0001595 6224.17676 6229.79834
6182.0 0.0001618 6225.36670 6231.42920
6310.0 0.0001585 6226.56396 6233.12158
6122.0 0.0001633 6227.76855 6234.88525
6305.0 0.0001586 6228.97998 6236.72998
6253.0 0.0001599 6230.19775 6238.66846
6075.0 0.0001646 6231.42041 6240.71826
6069.0 0.0001648 6232.64844 6242.90088
6124.0 0.0001633 6233.88086 6245.24219
6274.0 0.0001594 6235.11768 6247.77783
6159.0 0.0001624 6236.35693 6250.55273
6231.0 0.0001605 6237.59961 6253.62744
6245.0 0.0001601 6238.84424 6257.08447
6199.0 0.0001613 6240.09082 6261.03662
6269.0 0.0001595 6241.33838 6265.66016
6224.0 0.0001607 6242.58643 6271.25928
6237.0 0.0001603 6243.83447 6278.46533
6224.0 0.0001607 6245.08203 6288.69531
6349.0 0.0001575 6246.32910 6305.05957
6318.0 0.0001583 6247.57373 6333.72754
6387.0 0.0001566 6248.81689 6385.29443
6339.0 0.0001578 6250.05664 6474.79248
6557.0 0.0001525 6251.29395 6618.03369
6820.0 0.0001466 6252.52686 6822.48340
7020.0 0.0001425 6253.75537 7077.32080
7220.0 0.0001385 6254.97949 7345.64307
7455.0 0.0001341 6256.19824 7559.21191
7521.0 0.0001330 6257.41064 7658.25049
7637.0 0.0001309 6258.61719 7612.56055
7389.0 0.0001353 6259.81641 7411.84766
6966.0 0.0001436 6261.00830 7117.92725
6878.0 0.0001454 6262.19189 6829.19629
6500.0 0.0001538 6263.36719 6606.00879
6316.0 0.0001583 6264.53320 6461.61133
6390.0 0.0001565 6265.68994 6380.85449
6201.0 0.0001613 6266.83643 6340.12256
6264.0 0.0001596 6267.97266 6320.17285
6285.0 0.0001591 6269.09766 6309.70215
6321.0 0.0001582 6270.21094 6303.42969
6158.0 0.0001624 6271.31250 6299.22168
6201.0 0.0001613 6272.40137 6296.22900
6312.0 0.0001584 6273.47705 6294.06348
6048.0 0.0001653 6274.53955 6292.50244
6214.0 0.0001609 6275.58789 6291.39648
6219.0 0.0001608 6276.62158 6290.64014
6167.0 0.0001622 6277.64063 6290.15576
6163.0 0.0001623 6278.64404 6289.88477
6143.0 0.0001628 6279.63184 6289.78271
6195.0 0.0001614 6280.60303 6289.81592
6357.0 0.0001573 6281.55762 6289.95557
6199.0 0.0001613 6282.49512 6290.18164
6186.0 0.0001617 6283.41504 6290.47705
6371.0 0.0001570 6284.31641 6290.82715
6250.0 0.0001600 6285.19971 6291.22070
6383.0 0.0001567 6286.06396 6291.64844
6191.0 0.0001615 6286.90918 6292.10303
6110.0 0.0001637 6287.73389 6292.57666
6329.0 0.0001580 6288.53906 6293.06494
6149.0 0.0001626 6289.32324 6293.56250
6311.0 0.0001585 6290.08643 6294.06641
6276.0 0.0001593 6290.82861 6294.57080
6052.0 0.0001652 6291.54834 6295.07422
6263.0 0.0001597 6292.24658 6295.57422
6189.0 0.0001616 6292.92188 6296.06738
6270.0 0.0001595 6293.57422 6296.55273
6169.0 0.0001621 6294.20361 6297.02734
6158.0 0.0001624 6294.80908 6297.49072
6247.0 0.0001601 6295.39111 6297.93994
6092.0 0.0001641 6295.94824 6298.37451
6190.0 0.0001616 6296.48047 6298.79297
6323.0 0.0001582 6296.98828 6299.19434
6258.0 0.0001598 6297.47021 6299.57715
6303.0 0.0001587 6297.92676 6299.94141
6190.0 0.0001616 6298.35742 6300.28516
6396.0 0.0001563 6298.76123 6300.60840
6379.0 0.0001568 6299.13916 6300.91016
6240.0 0.0001603 6299.48975 6301.18896
6146.0 0.0001627 6299.81299 6301.44531
6285.0 0.0001591 6300.10889 6301.67773
6456.0 0.0001549 6300.37695 6301.88623
6393.0 0.0001564 6300.61719 6302.07031
6406.0 0.0001561 6300.82910 6302.22852
6347.0 0.0001576 6301.01221 6301.91650
6334.0 0.0001579 6301.16650 6302.03906
6331.0 0.0001580 6301.29199 6302.13330
6396.0 0.0001563 6301.38818 6301.38818
6318.0 0.0001583 6301.45459 6301.45459
6222.0 0.0001607 6301.49121 6301.49121
6308.0 0.0001585 6301.49805 6301.49805
6374.0 0.0001569 6301.47461 6301.47461
6328.0 0.0001580 6301.42041 6301.42041
6435.0 0.0001554 6301.33594 6301.33594
6365.0 0.0001571 6301.22070 6301.22070
6363.0 0.0001572 6301.07422 6301.07422
6446.0 0.0001551 6300.89697 6300.89697
6477.0 0.0001544 6300.68799 6300.68799
6194.0 0.0001614 6300.44775 6300.44775
6345.0 0.0001576 6300.17578 6300.17578
6509.0 0.0001536 6299.87158 6299.87158
6449.0 0.0001551 6299.53613 6299.53613
6478.0 0.0001544 6299.16797 6299.16797
6392.0 0.0001564 6298.76807 6298.76807
6299.0 0.0001588 6298.33545 6298.33545
6396.0 0.0001563 6297.87061 6297.87061
6440.0 0.0001553 6297.37305 6297.37305
6405.0 0.0001561 6296.84277 6296.84277
6460.0 0.0001548 6296.28027 6296.28027
6432.0 0.0001555 6295.68408 6295.68408
6450.0 0.0001550 6295.05566 6295.05566
6353.0 0.0001574 6294.39355 6294.39355
6243.0 0.0001602 6293.69873 6293.69873
6342.0 0.0001577 6292.97070 6292.97070
6387.0 0.0001566 6292.20947 6292.20947
6479.0 0.0001543 6291.41504 6291.41504
6382.0 0.0001567 6290.58740 6290.58740
6428.0 0.0001556 6289.72607 6289.72607
6358.0 0.0001573 6288.83154 6288.83154
6565.0 0.0001523 6287.90381 6287.90381
6419.0 0.0001558 6286.94238 6286.94238
6299.0 0.0001588 6285.94775 6285.94775
6360.0 0.0001572 6284.91992 6284.91992
6375.0 0.0001569 6283.85840 6283.85840
6368.0 0.0001570 6282.76367 6282.76367
6279.0 0.0001593 6281.63525 6281.63525
6271.0 0.0001595 6280.47363 6280.47363
6320.0 0.0001582 6279.27881 6279.27881
6306.0 0.0001586 6278.05078 6278.05078
6381.0 0.0001567 6276.78955 6276.78955
6400.0 0.0001562 6275.49512 6275.49512
6375.0 0.0001569 6274.16748 6274.16699
6340.0 0.0001577 6272.80664 6272.80664
6471.0 0.0001545 6271.41260 6271.41260
6347.0 0.0001576 6269.98633 6269.98633
6453.0 0.0001550 6268.52686 6268.52686
6533.0 0.0001531 6267.03467 6267.03467
6350.0 0.0001575 6265.50977 6265.50977
6278.0 0.0001593 6263.95215 6263.95215
6417.0 0.0001558 6262.36230 6262.36230
6225.0 0.0001606 6260.74023 6260.74023
6386.0 0.0001566 6259.08643 6259.08594
6226.0 0.0001606 6257.39990 6257.39941
6287.0 0.0001591 6255.68115 6255.68115
6231.0 0.0001605 6253.93115 6253.93066
6282.0 0.0001592 6252.14893 6252.14893
6232.0 0.0001605 6250.33594 6250.33545
6206.0 0.0001611 6248.49121 6248.49072
6253.0 0.0001599 6246.61475 6246.61475
6317.0 0.0001583 6244.70752 6244.70752
6306.0 0.0001586 6242.77002 6242.77002
6147.0 0.0001627 6240.80127 6240.80127
6213.0 0.0001610 6238.80176 6238.80176
6275.0 0.0001594 6236.77246 6236.77197
6263.0 0.0001597 6234.71289 6234.71289
6272.0 0.0001594 6232.62305 6232.62305
6237.0 0.0001603 6230.50342 6230.50342
6269.0 0.0001595 6228.35449 6228.35449
6137.0 0.0001629 6226.17627 6226.17627
6195.0 0.0001614 6223.96875 6223.96826
6147.0 0.0001627 6221.73193 6221.73193
6301.0 0.0001587 6219.46680 6219.46680
6233.0 0.0001604 6217.17334 6217.17334
6272.0 0.0001594 6214.85156 6214.85156
6219.0 0.0001608 6212.50146 6212.50146
6222.0 0.0001607 6210.12402 6210.12354
6111.0 0.0001636 6207.71875 6207.71875
6218.0 0.0001608 6205.28662 6205.28613
6158.0 0.0001624 6202.82666 6202.82666
6151.0 0.0001626 6200.34082 6200.34082
6179.0 0.0001618 6197.82813 6197.82813
6220.0 0.0001608 6195.28955 6195.28955
6239.0 0.0001603 6192.72461 6205.06543
6376.0 0.0001568 6190.13379 6202.91650
6209.0 0.0001611 6187.51807 6200.76709
6246.0 0.0001601 6184.87744 6198.61865
6197.0 0.0001614 6182.21143 6196.47266
6121.0 0.0001634 6179.52100 6194.33203
6274.0 0.0001594 6176.80615 6192.19971
6066.0 0.0001649 6174.06787 6190.07910
6183.0 0.0001617 6171.30566 6187.97217
6346.0 0.0001576 6168.52002 6185.88281
6143.0 0.0001628 6165.71143 6183.81445
6233.0 0.0001604 6162.88037 6181.77295
5986.0 0.0001671 6160.02637 6179.76123
6186.0 0.0001617 6157.15039 6177.78516
6227.0 0.0001606 6154.25244 6175.84961
6135.0 0.0001630 6151.33350 6173.96191
6068.0 0.0001648 6148.39307 6172.12842
6220.0 0.0001608 6145.43164 6170.35693
6228.0 0.0001606 6142.45020 6168.65723
6116.0 0.0001635 6139.44824 6167.03809
6115.0 0.0001635 6136.42676 6165.51172
6151.0 0.0001626 6133.38525 6164.09033
6202.0 0.0001612 6130.32520 6162.78906
6037.0 0.0001656 6127.24561 6161.62402
6096.0 0.0001640 6124.14844 6160.61475
6257.0 0.0001598 6121.03223 6159.78320
6225.0 0.0001606 6117.89893 6159.15479
6192.0 0.0001615 6114.74756 6158.75977
6216.0 0.0001609 6111.57959 6158.63232
6029.0 0.0001659 6108.39453 6158.81348
6125.0 0.0001633 6105.19287 6159.35156
6056.0 0.0001651 6101.97559 6160.30469
6020.0 0.0001661 6098.74268 6161.74121
6011.0 0.0001664 6095.49414 6163.74414
6138.0 0.0001629 6092.23047 6166.41455
6292.0 0.0001589 6088.95264 6169.87549
6104.0 0.0001638 6085.66016 6174.28027
6221.0 0.0001607 6082.35400 6179.81738
6093.0 0.0001641 6079.03369 6186.72510
6091.0 0.0001642 6075.70068 6195.30811
6265.0 0.0001596 6072.35498 6205.95557
6151.0 0.0001626 6068.99658 6219.17627
6182.0 0.0001618 6065.62646 6235.64258
6257.0 0.0001598 6062.24414 6256.25830
6261.0 0.0001597 6058.85059 6282.26611
6173.0 0.0001620 6055.44580 6315.43896
6215.0 0.0001609 6052.03076 6358.54150
6551.0 0.0001526 6048.60498 6416.63525
6542.0 0.0001529 6045.16943 6500.92285
6598.0 0.0001516 6041.72510 6638.61719
7057.0 0.0001417 6038.27051 6893.18506
7877.0 0.0001270 6034.80762 7393.70557
8695.0 0.0001150 6031.33643 8353.45117
10199.0 0.0000980 6027.85693 10031.03418
12393.0 0.0000807 6024.36963 12581.36719
15432.0 0.0000648 6020.87500 15799.10742
18466.0 0.0000542 6017.37354 18920.89258
20671.0 0.0000484 6013.86523 20763.81641
20634.0 0.0000485 6010.35107 20266.29297
17940.0 0.0000557 6006.83057 17607.20313
14274.0 0.0000701 6003.30469 14159.33203
11211.0 0.0000892 5999.77393 11107.98242
8846.0 0.0001130 5996.23779 8952.06250
7600.0 0.0001316 5992.69727 7668.42383
7082.0 0.0001412 5989.15283 6994.60791
6601.0 0.0001515 5985.60498 6659.68604
6517.0 0.0001534 5982.05322 6484.58789
6361.0 0.0001572 5978.49854 6379.32813
6204.0 0.0001612 5974.94141 6306.28467
6278.0 0.0001593 5971.38184 6250.83984
6132.0 0.0001631 5967.82031 6206.79443
6112.0 0.0001636 5964.25732 6170.89551
6142.0 0.0001628 5960.69238 6141.08350
5975.0 0.0001674 5957.12695 6115.93115
6095.0 0.0001641 5953.56152 6094.40625
6071.0 0.0001647 5949.99512 6075.74316
5977.0 0.0001673 5946.42920 6059.36914
6082.0 0.0001644 5942.86328 6044.84717
6090.0 0.0001642 5939.29834 6031.83887
5904.0 0.0001694 5935.73486 6020.07959
5987.0 0.0001670 5932.17236 6009.35938
5954.0 0.0001680 5928.61182 5999.51172
5948.0 0.0001681 5925.05322 5990.40186
5907.0 0.0001693 5921.49756 5981.91992
5914.0 0.0001691 5917.94434 5973.97559
5929.0 0.0001687 5914.39404 5966.49463
5955.0 0.0001679 5910.84766 5959.41650
6025.0 0.0001660 5907.30420 5952.68750
6025.0 0.0001660 5903.76563 5946.26611
5995.0 0.0001668 5900.23096 5940.11426
5882.0 0.0001700 5896.70117 5934.20166
5835.0 0.0001714 5893.17627 5928.50049
5780.0 0.0001730 5889.65625 5922.98828
5873.0 0.0001703 5886.14209 5917.64551
5919.0 0.0001689 5882.63428 5912.45508
5842.0 0.0001712 5879.13232 5907.40186
5877.0 0.0001702 5875.63672 5902.47266
6033.0 0.0001658 5872.14795 5897.65674
5685.0 0.0001759 5868.66650 5892.94385
5849.0 0.0001710 5865.19238 5888.32520
5841.0 0.0001712 5861.72559 5883.79297
5928.0 0.0001687 5858.26709 5879.34082
5902.0 0.0001694 5854.81641 5874.96191
5751.0 0.0001739 5851.37451 5870.65186
5744.0 0.0001741 5847.94141 5866.40576
5745.0 0.0001741 5844.51709 5862.21875
5806.0 0.0001722 5841.10205 5858.08691
5713.0 0.0001750 5837.69678 5854.00781
5832.0 0.0001715 5834.30127 5849.97754
5880.0 0.0001701 5830.91553 5845.99316
5882.0 0.0001700 5827.54053 5842.05371
5785.0 0.0001729 5824.17627 5838.15576
5874.0 0.0001702 5820.82227 5834.29688
5789.0 0.0001727 5817.47949 5830.47607
5787.0 0.0001728 5814.14795 5814.14795
5872.0 0.0001703 5810.82813 5810.82813
5769.0 0.0001733 5807.52002 5807.52002
5834.0 0.0001714 5804.22363 5804.22412
5706.0 0.0001753 5800.93994 5800.93994
5781.0 0.0001730 5797.66846 5797.66895
5828.0 0.0001716 5794.40967 5794.40967
5840.0 0.0001712 5791.16357 5791.16357
5733.0 0.0001744 5787.93115 5787.93115
5798.0 0.0001725 5784.71143 5784.71143
5819.0 0.0001719 5781.50537 5781.50586
5791.0 0.0001727 5778.31299 5778.31299
5770.0 0.0001733 5775.13477 5775.13477
5725.0 0.0001747 5771.97021 5771.97070
5930.0 0.0001686 5768.82080 5768.82080
5663.0 0.0001766 5765.68506 5765.68506
5696.0 0.0001756 5762.56396 5762.56396
5654.0 0.0001769 5759.45801 5759.45801
5654.0 0.0001769 5756.36719 5756.36719
5709.0 0.0001752 5753.29102 5753.29150
5586.0 0.0001790 5750.23047 5750.23047
5651.0 0.0001770 5747.18555 5747.18555
5746.0 0.0001740 5744.15625 5744.15625
5893.0 0.0001697 5741.14258 5741.14307
5717.0 0.0001749 5738.14551 5738.14551
5666.0 0.0001765 5735.16357 5735.16406
5593.0 0.0001788 5732.19873 5732.19922
5722.0 0.0001748 5729.25000 5729.25000
5668.0 0.0001764 5726.31787 5726.31787
5743.0 0.0001741 5723.40234 5723.40234
5649.0 0.0001770 5720.50391 5720.50391
5679.0 0.0001761 5717.62207 5717.62207
5731.0 0.0001745 5714.75732 5714.75732
5535.0 0.0001807 5711.90967 5711.91016
5664.0 0.0001766 5709.07959 5709.07959
5717.0 0.0001749 5706.26709 5706.26709
5751.0 0.0001739 5703.47168 5703.47168
5653.0 0.0001769 5700.69385 5700.69385
5705.0 0.0001753 5697.93359 5697.93408
5674.0 0.0001762 5695.19189 5695.19189
5731.0 0.0001745 5692.46729 5692.46777
5586.0 0.0001790 5689.76123 5689.76123
5643.0 0.0001772 5687.07275 5687.07324
5741.0 0.0001742 5684.40283 5684.40332
5619.0 0.0001780 5681.75098 5681.75098
5777.0 0.0001731 5679.11719 5679.11768
5635.0 0.0001775 5676.50195 5676.50244
5718.0 0.0001749 5673.90527 5673.90576
5767.0 0.0001734 5671.32715 5671.32715
5822.0 0.0001718 5668.76709 5668.76758
5763.0 0.0001735 5666.22607 5666.22607
5595.0 0.0001787 5663.70361 5663.70361
5610.0 0.0001783 5661.19971 5661.19971
5682.0 0.0001760 5658.71436 5658.71484
5649.0 0.0001770 5656.24805 5656.24805
5697.0 0.0001755 5653.80078 5653.80078
5703.0 0.0001753 5651.37158 5651.37207
5781.0 0.0001730 5648.96191 5648.96191
5674.0 0.0001762 5646.57080 5647.57861
5576.0 0.0001793 5644.19873 5645.73242
5719.0 0.0001749 5641.84570 5643.43555
5590.0 0.0001789 5639.51123 5641.16064
5530.0 0.0001808 5637.19580 5638.90820
5639.0 0.0001773 5634.89941 5636.67822
5716.0 0.0001749 5632.62207 5634.47119
5800.0 0.0001724 5630.36377 5632.28760
5640.0 0.0001773 5628.12402 5630.12695
5437.0 0.0001839 5625.90332 5627.99023
5511.0 0.0001815 5623.70215 5625.87842
5666.0 0.0001765 5621.51904 5623.79102
5560.0 0.0001799 5619.35547 5621.72852
5640.0 0.0001773 5617.21045 5619.69238
5637.0 0.0001774 5615.08447 5617.68262
5660.0 0.0001767 5612.97705 5615.70068
5686.0 0.0001759 5610.88818 5613.74561
5651.0 0.0001770 5608.81836 5611.82031
5708.0 0.0001752 5606.76758 5609.92480
5769.0 0.0001733 5604.73535 5608.06006
5681.0 0.0001760 5602.72119 5606.22754
5672.0 0.0001763 5600.72607 5604.42920
5582.0 0.0001791 5598.74951 5602.66602
5739.0 0.0001742 5596.79150 5600.94092
5461.0 0.0001831 5594.85156 5599.25635
5528.0 0.0001809 5592.93018 5597.61230
5672.0 0.0001763 5591.02686 5596.01514
5701.0 0.0001754 5589.14209 5594.46631
5589.0 0.0001789 5587.27539 5592.97070
5605.0 0.0001784 5585.42676 5591.53369
5459.0 0.0001832 5583.59619 5590.16113
5510.0 0.0001815 5581.78369 5588.85986
5610.0 0.0001783 5579.98926 5587.63770
5518.0 0.0001812 5578.21191 5586.50537
5666.0 0.0001765 5576.45264 5585.47705
5567.0 0.0001796 5574.71094 5584.56592
5615.0 0.0001781 5572.98730 5583.79248
5630.0 0.0001776 5571.28027 5583.18066
5623.0 0.0001778 5569.59082 5582.75977
5557.0 0.0001800 5567.91895 5582.56934
5618.0 0.0001780 5566.26367 5582.65918
5641.0 0.0001773 5564.62598 5583.09473
5667.0 0.0001765 5563.00488 5583.96484
5564.0 0.0001797 5561.40088 5585.38574
5551.0 0.0001801 5559.81348 5587.52393
5534.0 0.0001807 5558.24219 5590.62158
5564.0 0.0001797 5556.68799 5595.08203
5653.0 0.0001769 5555.15039 5601.70313
5651.0 0.0001770 5553.62842 5612.33350
5621.0 0.0001779 5552.12305 5631.35742
5581.0 0.0001792 5550.63330 5668.26953
5762.0 0.0001736 5549.15967 5740.35840
5992.0 0.0001669 5547.70166 5872.12695
6174.0 0.0001620 5546.25928 6086.43701
6391.0 0.0001565 5544.83252 6384.78613
6735.0 0.0001485 5543.42090 6722.95947
6950.0 0.0001439 5542.02490 7003.23877
7061.0 0.0001416 5540.64355 7108.18652
7093.0 0.0001410 5539.27783 6991.97266
6806.0 0.0001469 5537.92627 6714.30566
6368.0 0.0001570 5536.58984 6378.40088
6191.0 0.0001615 5535.26758 6079.44434
5822.0 0.0001718 5533.95996 5862.52148
5648.0 0.0001771 5532.66650 5726.87598
5586.0 0.0001790 5531.38721 5650.71777
5731.0 0.0001745 5530.12207 5610.15918
5747.0 0.0001740 5528.87012 5587.94189
5549.0 0.0001802 5527.63232 5574.37598
5577.0 0.0001793 5526.40771 5564.92383
5567.0 0.0001796 5525.19678 5557.66504
5496.0 0.0001820 5523.99902 5551.77832
5562.0 0.0001798 5522.81396 5546.85400
5511.0 0.0001815 5521.64209 5542.64551
5525.0 0.0001810 5520.48242 5538.98779
5524.0 0.0001810 5519.33594 5535.76074
5575.0 0.0001794 5518.20117 5532.87695
5491.0 0.0001821 5517.07910 5530.26855
5681.0 0.0001760 5515.96924 5527.90820
5451.0 0.0001835 5514.87061 5525.71387
5481.0 0.0001824 5513.78418 5523.67480
5434.0 0.0001840 5512.70947 5521.76855
5393.0 0.0001854 5511.64600 5519.97461
5486.0 0.0001823 5510.59326 5518.27686
5620.0 0.0001779 5509.55225 5516.66211
5558.0 0.0001799 5508.52148 5515.12109
5595.0 0.0001787 5507.50195 5513.64404
5425.0 0.0001843 5506.49316 5512.22412
5465.0 0.0001830 5505.49414 5510.85400
5514.0 0.0001814 5504.50537 5509.53027
5474.0 0.0001827 5503.52686 5508.24756
5510.0 0.0001815 5502.55811 5507.00146
5662.0 0.0001766 5501.59912 5505.78955
5648.0 0.0001771 5500.64990 5504.60840
5418.0 0.0001846 5499.70947 5503.45654
5563.0 0.0001798 5498.77832 5502.33057
5613.0 0.0001782 5497.85645 5501.22852
5560.0 0.0001799 5496.94336 5500.14941
5720.0 0.0001748 5496.03857 5499.09180
5720.0 0.0001748 5495.14258 5498.05420
5836.0 0.0001714 5494.25439 5497.03516
5779.0 0.0001730 5493.37451 5496.03369
5836.0 0.0001714 5492.50293 5495.04834
5582.0 0.0001791 5491.63867 5494.08008
5476.0 0.0001826 5490.78223 5493.12549
5571.0 0.0001795 5489.93311 5492.18555
5481.0 0.0001824 5489.09131 5491.25879
5332.0 0.0001875 5488.25635 5490.34570
5440.0 0.0001838 5487.42822 5489.44482
5499.0 0.0001819 5486.60693 5488.55566
5579.0 0.0001792 5485.79199 5487.67920
5598.0 0.0001786 5484.98389 5486.81250
5585.0 0.0001791 5484.18164 5485.95801
5538.0 0.0001806 5483.38525 5485.11377
5482.0 0.0001824 5482.59473 5483.28125
5517.0 0.0001813 5481.80957 5482.49268
5570.0 0.0001795 5481.03027 5481.21387
5482.0 0.0001824 5480.25635 5480.45996
5589.0 0.0001789 5479.48730 5479.71533
5594.0 0.0001788 5478.72363 5478.97900
5449.0 0.0001835 5477.96436 5478.25342
5559.0 0.0001799 5477.20996 5477.54004
5502.0 0.0001818 5476.45947 5476.83984
5428.0 0.0001842 5475.71387 5476.15576
5392.0 0.0001855 5474.97217 5475.49268
5391.0 0.0001855 5474.23438 5474.85742
5369.0 0.0001863 5473.50049 5474.26758
5404.0 0.0001850 5472.77002 5473.76221
5405.0 0.0001850 5472.04297 5473.43652
5443.0 0.0001837 5471.31934 5473.48975
5474.0 0.0001827 5470.59863 5474.25879
5466.0 0.0001829 5469.88086 5476.16309
5523.0 0.0001811 5469.16602 5479.46436
5391.0 0.0001855 5468.45410 5483.86621
5407.0 0.0001849 5467.74414 5488.14111
5531.0 0.0001808 5467.03711 5490.25586
5429.0 0.0001842 5466.33154 5488.52148
5453.0 0.0001834 5465.62842 5483.47705
5371.0 0.0001862 5464.92725 5477.39307
5363.0 0.0001865 5464.22754 5472.03906
5450.0 0.0001835 5463.52930 5468.09424
5412.0 0.0001848 5462.83252 5465.47314
5424.0 0.0001844 5462.13672 5463.76318
5414.0 0.0001847 5461.44238 5462.55713
5433.0 0.0001841 5460.74902 5461.58984
5348.0 0.0001870 5460.05664 5460.73096
5337.0 0.0001874 5459.36426 5459.92285
5486.0 0.0001823 5458.67285 5459.14453
5454.0 0.0001834 5457.98145 5458.38525
5377.0 0.0001860 5457.29053 5457.64014
5364.0 0.0001864 5456.59961 5456.90527
5420.0 0.0001845 5455.90869 5456.17773
5553.0 0.0001801 5455.21777 5455.45654
5426.0 0.0001843 5454.52637 5454.73926
5283.0 0.0001893 5453.83398 5458.17529
5322.0 0.0001879 5453.14160 5457.61475
5414.0 0.0001847 5452.44824 5457.06348
5498.0 0.0001819 5451.75439 5456.52246
5346.0 0.0001871 5451.05908 5455.99219
5407.0 0.0001849 5450.36279 5455.47217
5280.0 0.0001894 5449.66553 5454.96289
5452.0 0.0001834 5448.96680 5454.46631
5503.0 0.0001817 5448.26660 5453.98193
5307.0 0.0001884 5447.56445 5453.51074
5505.0 0.0001817 5446.86084 5453.05371
5484.0 0.0001823 5446.15576 5452.61230
5294.0 0.0001889 5445.44824 5452.18750
5309.0 0.0001884 5444.73877 5451.78076
5400.0 0.0001852 5444.02734 5451.39404
5373.0 0.0001861 5443.31348 5451.02979
5461.0 0.0001831 5442.59717 5450.68896
5414.0 0.0001847 5441.87842 5450.37549
5397.0 0.0001853 5441.15723 5450.09082
5385.0 0.0001857 5440.43311 5449.83887
5398.0 0.0001853 5439.70605 5449.62354
5327.0 0.0001877 5438.97656 5449.44971
5442.0 0.0001838 5438.24365 5449.32031
5451.0 0.0001835 5437.50781 5449.24316
5539.0 0.0001805 5436.76904 5449.22363
5461.0 0.0001831 5436.02637 5449.26855
5368.0 0.0001863 5435.28076 5449.38916
5379.0 0.0001859 5434.53174 5449.59424
5438.0 0.0001839 5433.77881 5449.89551
5359.0 0.0001866 5433.02246 5450.30908
5578.0 0.0001793 5432.26270 5450.85107
5404.0 0.0001850 5431.49902 5451.54248
5332.0 0.0001875 5430.73145 5452.40771
5380.0 0.0001859 5429.95947 5453.47510
5501.0 0.0001818 5429.18408 5454.78467
5307.0 0.0001884 5428.40430 5456.37793
5240.0 0.0001908 5427.62061 5458.31201
5433.0 0.0001841 5426.83252 5460.65576
5286.0 0.0001892 5426.04004 5463.47607
5530.0 0.0001808 5425.24316 5466.92871
5438.0 0.0001839 5424.44238 5471.13770
5369.0 0.0001863 5423.63672 5476.29199
5323.0 0.0001879 5422.82666 5482.64600
5528.0 0.0001809 5422.01172 5490.54248
5530.0 0.0001808 5421.19287 5500.45752
5503.0 0.0001817 5420.36865 5513.08154
5518.0 0.0001812 5419.53955 5529.51807
5523.0 0.0001811 5418.70605 5551.87402
5604.0 0.0001784 5417.86768 5584.94482
5750.0 0.0001739 5417.02441 5640.37451
5713.0 0.0001750 5416.17578 5744.48145
5870.0 0.0001704 5415.32275 5947.52393
6422.0 0.0001557 5414.46436 6323.99316
6990.0 0.0001431 5413.60107 6946.55908
7888.0 0.0001268 5412.73291 7824.07910
8654.0 0.0001156 5411.85889 8820.56641
9655.0 0.0001036 5410.98047 9613.44922
9851.0 0.0001015 5410.09668 9801.21484
9241.0 0.0001082 5409.20752 9244.42676
8377.0 0.0001194 5408.31299 8269.79102
7349.0 0.0001361 5407.41357 7295.30762
6640.0 0.0001506 5406.50879 6545.87354
6075.0 0.0001646 5405.59863 6065.62207
5850.0 0.0001709 5404.68311 5797.72070
5508.0 0.0001816 5403.76221 5659.87256
5547.0 0.0001803 5402.83643 5588.31348
5492.0 0.0001821 5401.90479 5547.04102
5440.0 0.0001838 5400.96777 5519.62695
5423.0 0.0001844 5400.02588 5499.40430
5342.0 0.0001872 5399.07813 5483.61133
5352.0 0.0001868 5398.12500 5470.89551
5357.0 0.0001867 5397.16699 5460.44678
5391.0 0.0001855 5396.20313 5451.71777
5437.0 0.0001839 5395.23389 5444.31787
5396.0 0.0001853 5394.25928 5437.96045
5427.0 0.0001843 5393.27930 5432.43115
5477.0 0.0001826 5392.29395 5427.56689
5397.0 0.0001853 5391.30322 5423.24316
5428.0 0.0001842 5390.30762 5419.36328
5261.0 0.0001901 5389.30615 5415.84961
5288.0 0.0001891 5388.29932 5412.64160
5510.0 0.0001815 5387.28711 5409.68994
5427.0 0.0001843 5386.27002 5406.95557
5490.0 0.0001821 5385.24756 5404.40527
5527.0 0.0001809 5384.21973 5402.01221
5659.0 0.0001767 5383.18652 5399.75439
5635.0 0.0001775 5382.14844 5397.61279
5803.0 0.0001723 5381.10498 5395.57373
5802.0 0.0001724 5380.05615 5393.62109
5809.0 0.0001721 5379.00244 5391.74609
5840.0 0.0001712 5377.94385 5389.93750
5823.0 0.0001717 5376.87988 5388.18848
5844.0 0.0001711 5375.81104 5386.49121
5933.0 0.0001685 5374.73682 5384.84033
5783.0 0.0001729 5373.65820 5383.22900
5710.0 0.0001751 5372.57422 5381.65479
5680.0 0.0001761 5371.48535 5380.11133
5473.0 0.0001827 5370.39160 5378.59668
5455.0 0.0001833 5369.29346 5377.10742
5405.0 0.0001850 5368.19043 5375.64063
5360.0 0.0001866 5367.08252 5374.19385
5311.0 0.0001883 5365.97021 5372.76465
5317.0 0.0001881 5364.85303 5371.35254
5209.0 0.0001920 5363.73145 5369.95410
5419.0 0.0001845 5362.60547 5368.56836
5203.0 0.0001922 5361.47461 5367.19385
5349.0 0.0001870 5360.33984 5365.82959
5257.0 0.0001902 5359.20068 5364.47461
5131.0 0.0001949 5358.05664 5363.12793
5317.0 0.0001881 5356.90918 5361.78857
5215.0 0.0001918 5355.75684 5360.45557
5180.0 0.0001931 5354.60107 5359.12891
5221.0 0.0001915 5353.44092 5357.80664
5276.0 0.0001895 5352.27686 5356.48877
5310.0 0.0001883 5351.10889 5351.10840
5254.0 0.0001903 5349.93701 5349.93652
5328.0 0.0001877 5348.76123 5348.76123
5465.0 0.0001830 5347.58203 5347.58154
5384.0 0.0001857 5346.39893 5346.39844
5444.0 0.0001837 5345.21240 5345.21191
5553.0 0.0001801 5344.02197 5344.02197
5522.0 0.0001811 5342.82861 5342.82861
5560.0 0.0001799 5341.63184 5341.63184
5629.0 0.0001777 5340.43164 5340.43164
5575.0 0.0001794 5339.22852 5339.22852
5653.0 0.0001769 5338.02197 5338.02197
5493.0 0.0001820 5336.81250 5336.81250
5468.0 0.0001829 5335.60010 5335.60010
5528.0 0.0001809 5334.38477 5334.38477
5449.0 0.0001835 5333.16699 5333.16650
5426.0 0.0001843 5331.94580 5331.94580
5491.0 0.0001821 5330.72266 5330.72217
5364.0 0.0001864 5329.49658 5329.49609
5441.0 0.0001838 5328.26807 5328.26807
5387.0 0.0001856 5327.03711 5327.03711
5232.0 0.0001911 5325.80371 5325.80371
5228.0 0.0001913 5324.56836 5376.17285
5339.0 0.0001873 5323.33105 5376.79199
5381.0 0.0001858 5322.09180 5377.51074
5416.0 0.0001846 5320.85010 5378.33740
5410.0 0.0001848 5319.60693 5379.27930
5355.0 0.0001867 5318.36182 5380.34668
5372.0 0.0001862 5317.11475 5381.54980
5332.0 0.0001875 5315.86670 5382.89893
5418.0 0.0001846 5314.61719 5384.40723
5128.0 0.0001950 5313.36572 5386.08740
5327.0 0.0001877 5312.11328 5387.95410
5418.0 0.0001846 5310.85938 5390.02490
5531.0 0.0001808 5309.60449 5392.31787
5350.0 0.0001869 5308.34912 5394.85352
5446.0 0.0001836 5307.09229 5397.65430
5412.0 0.0001848 5305.83447 5400.74658
5351.0 0.0001869 5304.57617 5404.15771
5325.0 0.0001878 5303.31738 5407.92236
5320.0 0.0001880 5302.05762 5412.07520
5366.0 0.0001864 5300.79785 5416.65820
5328.0 0.0001877 5299.53760 5421.71777
5385.0 0.0001857 5298.27734 5427.30811
5373.0 0.0001861 5297.01660 5433.48926
5303.0 0.0001886 5295.75586 5440.33154
5284.0 0.0001893 5294.49561 5447.91650
5343.0 0.0001872 5293.23535 5456.33643
5327.0 0.0001877 5291.97510 5465.70020
5563.0 0.0001798 5290.71533 5476.13477
5363.0 0.0001865 5289.45557 5487.78711
5398.0 0.0001853 5288.19727 5500.83301
5394.0 0.0001854 5286.93896 5515.47900
5464.0 0.0001830 5285.68164 5531.97217
5461.0 0.0001831 5284.42529 5550.60840
5468.0 0.0001829 5283.16992 5571.74561
5474.0 0.0001827 5281.91504 5595.81885
5556.0 0.0001800 5280.66211 5623.36084
5610.0 0.0001783 5279.40967 5655.03223
5563.0 0.0001798 5278.15918 5691.65527
5568.0 0.0001796 5276.91016 5734.26709
5579.0 0.0001792 5275.66260 5784.18750
5554.0 0.0001801 5274.41650 5843.12061
5709.0 0.0001752 5273.17236 5913.28857
5765.0 0.0001735 5271.93018 5997.63574
5760.0 0.0001736 5270.68994 6100.12549
6047.0 0.0001654 5269.45166 6226.20898
6256.0 0.0001598 5268.21533 6383.65332
6357.0 0.0001573 5266.98145 6584.42090
6711.0 0.0001490 5265.75000 6849.94141
7395.0 0.0001352 5264.52100 7226.56836
7978.0 0.0001253 5263.29492 7825.64600
9059.0 0.0001104 5262.07129 8905.32129
11373.0 0.0000879 5260.85010 10983.32031
15237.0 0.0000656 5259.63184 14884.92578
21801.0 0.0000459 5258.41699 21531.26758
30946.0 0.0000323 5257.20508 31313.44531
42791.0 0.0000234 5255.99609 43157.51563
54033.0 0.0000185 5254.79004 53749.67578
58640.0 0.0000171 5253.58789 58133.82422
54011.0 0.0000185 5252.38916 53405.19922
42973.0 0.0000233 5251.19385 42456.60547
30249.0 0.0000331 5250.00195 30531.40234
20358.0 0.0000491 5248.81396 20875.51172
14253.0 0.0000702 5247.62988 14421.90332
10728.0 0.0000932 5246.44971 10695.52246
8854.0 0.0001129 5245.27344 8739.19336
7740.0 0.0001292 5244.10107 7727.94043
7159.0 0.0001397 5242.93311 7161.39209
6684.0 0.0001496 5241.76953 6798.60010
6477.0 0.0001544 5240.61035 6538.72119
6327.0 0.0001581 5239.45557 6340.21143
6188.0 0.0001616 5238.30566 6183.48828
6092.0 0.0001641 5237.16016 6057.27734
5863.0 0.0001706 5236.01904 5954.10938
5839.0 0.0001713 5234.88330 5868.69775
5892.0 0.0001697 5233.75195 5797.18457
5579.0 0.0001792 5232.62598 5736.69727
5623.0 0.0001778 5231.50488 5685.06543
5524.0 0.0001810 5230.38916 5640.62354
5542.0 0.0001804 5229.27832 5602.07910
5573.0 0.0001794 5228.17334 5568.41406
5571.0 0.0001795 5227.07324 5538.82275
5555.0 0.0001800 5225.97900 5512.65723
5505.0 0.0001817 5224.89014 5489.39258
5445.0 0.0001837 5223.80713 5468.60205
5363.0 0.0001865 5222.72949 5449.93311
5352.0 0.0001868 5221.65820 5433.09473
5400.0 0.0001852 5220.59229 5417.84375
5335.0 0.0001874 5219.53271 5403.97607
5342.0 0.0001872 5218.47900 5391.31982
5341.0 0.0001872 5217.43164 5379.72803
5239.0 0.0001909 5216.39014 5369.07715
5085.0 0.0001967 5215.35498 5359.25928
5242.0 0.0001908 5214.32617 5350.18262
5324.0 0.0001878 5213.30420 5341.76807
5298.0 0.0001888 5212.28809 5333.94678
5425.0 0.0001843 5211.27881 5326.65771
5342.0 0.0001872 5210.27637 5319.84766
5321.0 0.0001879 5209.28027 5313.47217
5228.0 0.0001913 5208.29102 5307.48975
5360.0 0.0001866 5207.30859 5301.86328
5215.0 0.0001918 5206.33301 5296.56250
5249.0 0.0001905 5205.36426 5291.55811
5180.0 0.0001931 5204.40283 5286.82520
5317.0 0.0001881 5203.44824 5282.34180
5210.0 0.0001919 5202.50098 5278.08643
5254.0 0.0001903 5201.56055 5274.04248
5274.0 0.0001896 5200.62744 5270.19287
5372.0 0.0001862 5199.70215 5266.52246
5211.0 0.0001919 5198.78369 5263.01904
5239.0 0.0001909 5197.87256 5259.66992
5252.0 0.0001904 5196.96924 5256.46436
5255.0 0.0001903 5196.07324 5253.39209
5248.0 0.0001905 5195.18506 5250.44482
5335.0 0.0001874 5194.30420 5247.61426
5342.0 0.0001872 5193.43115 5193.43115
5095.0 0.0001963 5192.56592 5193.56299
5242.0 0.0001908 5191.70850 5192.73438
5086.0 0.0001966 5190.85840 5191.91504
5207.0 0.0001920 5190.01660 5191.10498
5109.0 0.0001957 5189.18262 5190.30420
5138.0 0.0001946 5188.35645 5189.51318
5114.0 0.0001955 5187.53809 5188.73145
5303.0 0.0001886 5186.72803 5187.95996
5165.0 0.0001936 5185.92627 5187.19775
5191.0 0.0001926 5185.13232 5186.44629
5209.0 0.0001920 5184.34619 5185.70508
5296.0 0.0001888 5183.56836 5184.97412
5233.0 0.0001911 5182.79932 5184.25342
5177.0 0.0001932 5182.03809 5183.54395
5111.0 0.0001957 5181.28467 5182.84570
5128.0 0.0001950 5180.54004 5182.15869
5122.0 0.0001952 5179.80371 5181.48291
5253.0 0.0001904 5179.07568 5180.81934
5244.0 0.0001907 5178.35645 5180.16797
5213.0 0.0001918 5177.64502 5179.52881
5350.0 0.0001869 5176.94238 5178.90234
5258.0 0.0001902 5176.24756 5178.28906
5187.0 0.0001928 5175.56201 5177.68945
5284.0 0.0001893 5174.88428 5177.10449
5209.0 0.0001920 5174.21533 5176.53369
5159.0 0.0001938 5173.55518 5175.97803
5215.0 0.0001918 5172.90332 5175.43848
5020.0 0.0001992 5172.26025 5174.91504
5273.0 0.0001896 5171.62549 5174.40918
5195.0 0.0001925 5170.99902 5173.92090
5252.0 0.0001904 5170.38184 5173.45215
5242.0 0.0001908 5169.77295 5173.00391
5216.0 0.0001917 5169.17236 5172.57715
5253.0 0.0001904 5168.58105 5172.17285
5234.0 0.0001911 5167.99805 5171.79346
5146.0 0.0001943 5167.42334 5171.44043
5102.0 0.0001960 5166.85791 5171.11572
5257.0 0.0001902 5166.30029 5170.82178
5320.0 0.0001880 5165.75195 5170.56250
5266.0 0.0001899 5165.21240 5170.33984
5169.0 0.0001935 5164.68115 5170.15820
5136.0 0.0001947 5164.15869 5170.02197
5152.0 0.0001941 5163.64502 5169.93652
5237.0 0.0001909 5163.13965 5169.90820
5220.0 0.0001916 5162.64307 5169.94531
5223.0 0.0001915 5162.15479 5170.05615
5132.0 0.0001949 5161.67578 5170.25146
5172.0 0.0001933 5161.20459 5170.54590
5136.0 0.0001947 5160.74268 5170.95557
5277.0 0.0001895 5160.28906 5171.50049
5059.0 0.0001977 5159.84424 5172.20703
5218.0 0.0001916 5159.40771 5173.10742
5112.0 0.0001956 5158.97998 5174.24414
5262.0 0.0001900 5158.56055 5175.66992
5182.0 0.0001930 5158.14990 5177.45605
5201.0 0.0001923 5157.74756 5179.69775
5179.0 0.0001931 5157.35352 5182.52246
5292.0 0.0001890 5156.96826 5186.10693
5319.0 0.0001880 5156.59131 5190.71045
5156.0 0.0001939 5156.22266 5196.74707
5134.0 0.0001948 5155.86279 5205.00977
5215.0 0.0001918 5155.51074 5217.29150
5157.0 0.0001939 5155.16748 5237.86914
5365.0 0.0001864 5154.83203 5276.17236
5350.0 0.0001869 5154.50537 5349.62305
5512.0 0.0001814 5154.18652 5482.89355
5674.0 0.0001762 5153.87646 5698.11670
5952.0 0.0001680 5153.57422 5994.13818
6278.0 0.0001593 5153.28027 6320.60840
6527.0 0.0001532 5152.99414 6563.25586
6513.0 0.0001535 5152.71631 6588.13037
6368.0 0.0001570 5152.44678 6374.48877
6090.0 0.0001642 5152.18506 6048.62109
5969.0 0.0001675 5151.93115 5739.47656
5509.0 0.0001815 5151.68555 5508.16455
5496.0 0.0001820 5151.44727 5361.93408
5369.0 0.0001863 5151.21729 5280.36768
5296.0 0.0001888 5150.99512 5237.72021
5219.0 0.0001916 5150.78076 5214.88867
5249.0 0.0001905 5150.57422 5201.27588
5321.0 0.0001879 5150.37500 5192.04395
5229.0 0.0001912 5150.18359 5185.18750
5098.0 0.0001962 5149.99951 5179.83984
5387.0 0.0001856 5149.82324 5175.55762
5209.0 0.0001920 5149.65479 5172.06738
5106.0 0.0001958 5149.49316 5169.18213
5199.0 0.0001923 5149.33936 5166.76855
5145.0 0.0001944 5149.19287 5164.72656
5250.0 0.0001905 5149.05371 5162.98340
5212.0 0.0001919 5148.92139 5161.48145
5229.0 0.0001912 5148.79688 5160.17822
5148.0 0.0001943 5148.67871 5159.04004
5221.0 0.0001915 5148.56836 5158.03955
5129.0 0.0001950 5148.46436 5157.15527
5201.0 0.0001923 5148.36768 5156.37012
5264.0 0.0001900 5148.27832 5155.67041
5108.0 0.0001958 5148.19531 5155.04492
5196.0 0.0001925 5148.11914 5154.48340
5163.0 0.0001937 5148.04932 5153.97754
5185.0 0.0001929 5147.98682 5153.52246
5268.0 0.0001898 5147.93066 5153.11133
5229.0 0.0001912 5147.88086 5152.73926
5263.0 0.0001900 5147.83789 5152.40332
5204.0 0.0001922 5147.80127 5152.09961
5211.0 0.0001919 5147.77051 5151.82422
5191.0 0.0001926 5147.74658 5151.57617
5133.0 0.0001948 5147.72852 5151.35205
5218.0 0.0001916 5147.71680 5151.14990
5145.0 0.0001944 5147.71143 5150.96924
5212.0 0.0001919 5147.71143 5150.80664
5188.0 0.0001928 5147.71777 5150.66260
5248.0 0.0001905 5147.72998 5150.53516
5041.0 0.0001984 5147.74805 5150.42285
5176.0 0.0001932 5147.77148 5150.32520
5058.0 0.0001977 5147.80078 5150.24121
5188.0 0.0001928 5147.83594 5150.17041
5086.0 0.0001966 5147.87646 5153.55762
5178.0 0.0001931 5147.92236 5153.61230
5077.0 0.0001970 5147.97363 5153.68262
5253.0 0.0001904 5148.03027 5153.76807
5155.0 0.0001940 5148.09180 5153.86865
5119.0 0.0001954 5148.15869 5162.34619
5108.0 0.0001958 5148.23096 5162.72363
5077.0 0.0001970 5148.30762 5163.12598
5163.0 0.0001937 5148.38965 5163.55518
5218.0 0.0001916 5148.47607 5164.01172
5166.0 0.0001936 5148.56787 5164.49756
5065.0 0.0001974 5148.66406 5165.01221
5150.0 0.0001942 5148.76465 5165.55762
5216.0 0.0001917 5148.87012 5166.13574
5135.0 0.0001947 5148.97949 5166.74609
5124.0 0.0001952 5149.09375 5167.39307
5125.0 0.0001951 5149.21240 5168.07715
5165.0 0.0001936 5149.33496 5168.79980
5088.0 0.0001965 5149.46143 5169.56299
5191.0 0.0001926 5149.59229 5170.37061
5129.0 0.0001950 5149.72705 5171.22461
5200.0 0.0001923 5149.86572 5172.12842
5253.0 0.0001904 5150.00830 5173.08545
5140.0 0.0001946 5150.15430 5173.09717
4987.0 0.0002005 5150.30420 5174.19971
5161.0 0.0001938 5150.45752 5175.36621
5217.0 0.0001917 5150.61426 5176.60254
5154.0 0.0001940 5150.77441 5177.91406
5229.0 0.0001912 5150.93799 5179.30713
5094.0 0.0001963 5151.10498 5180.78906
5153.0 0.0001941 5151.27490 5182.36768
5163.0 0.0001937 5151.44775 5184.05273
5166.0 0.0001936 5151.62402 5185.85449
5119.0 0.0001954 5151.80273 5187.78369
5219.0 0.0001916 5151.98438 5189.85400
5196.0 0.0001925 5152.16895 5192.08008
5206.0 0.0001921 5152.35596 5194.47900
5295.0 0.0001889 5152.54541 5197.07031
5179.0 0.0001931 5152.73730 5199.87646
5128.0 0.0001950 5152.93164 5202.92285
5080.0 0.0001969 5153.12842 5206.23975
5103.0 0.0001960 5153.32764 5209.86230
5235.0 0.0001910 5153.52881 5213.83008
5078.0 0.0001969 5153.73193 5218.19189
5158.0 0.0001939 5153.93701 5223.00293
5241.0 0.0001908 5154.14404 5228.33154
5306.0 0.0001885 5154.35254 5234.25684
5221.0 0.0001915 5154.56299 5240.87598
5321.0 0.0001879 5154.77539 5248.30615
5295.0 0.0001889 5154.98926 5256.69092
5345.0 0.0001871 5155.20410 5266.20557
5211.0 0.0001919 5155.42041 5277.07275
5269.0 0.0001898 5155.63867 5289.56689
5286.0 0.0001892 5155.85742 5304.04248
5319.0 0.0001880 5156.07764 5320.95313
5335.0 0.0001874 5156.29883 5340.89453
5315.0 0.0001881 5156.52100 5364.65918
5402.0 0.0001851 5156.74414 5393.32959
5463.0 0.0001830 5156.96777 5428.46973
5423.0 0.0001844 5157.19238 5472.60156
5461.0 0.0001831 5157.41748 5530.53125
5769.0 0.0001733 5157.64355 5614.58008
5842.0 0.0001712 5157.86963 5744.20117
6030.0 0.0001658 5158.09619 5966.88428
6437.0 0.0001554 5158.32324 6356.55762
7052.0 0.0001418 5158.55029 7001.50684
8001.0 0.0001250 5158.77734 7959.62939
9272.0 0.0001079 5159.00488 9193.04688
10473.0 0.0000955 5159.23193 10512.18652
11777.0 0.0000849 5159.45898 11613.81445
12331.0 0.0000811 5159.68604 12393.42676
13370.0 0.0000748 5159.91309 13242.97852
14338.0 0.0000697 5160.13916 14594.10840
16219.0 0.0000617 5160.36523 16299.47070
17370.0 0.0000576 5160.59082 17490.02344
17081.0 0.0000585 5160.81592 17092.26172
14796.0 0.0000676 5161.04004 15028.06641
12327.0 0.0000811 5161.26367 12307.10449
9431.0 0.0001060 5161.48633 9849.09082
7911.0 0.0001264 5161.70850 8050.66748
7068.0 0.0001415 5161.92920 6923.39551
6320.0 0.0001582 5162.14893 6291.53662
6048.0 0.0001653 5162.36768 5954.17285
5949.0 0.0001681 5162.58545 5767.08447
5657.0 0.0001768 5162.80176 5651.35840
5496.0 0.0001820 5163.01660 5570.89258
5458.0 0.0001832 5163.23047 5510.40039
5438.0 0.0001839 5163.44238 5462.99512
5429.0 0.0001842 5163.65332 5424.99072
5270.0 0.0001898 5163.86230 5394.05127
5512.0 0.0001814 5164.06934 5368.55273
5432.0 0.0001841 5164.27490 5347.31982
5468.0 0.0001829 5164.47852 5329.47656
5408.0 0.0001849 5164.68018 5314.36475
5225.0 0.0001914 5164.88037 5301.47803
5224.0 0.0001914 5165.07813 5290.42676
5114.0 0.0001955 5165.27344 5280.90332
5253.0 0.0001904 5165.46729 5272.66602
5258.0 0.0001902 5165.65869 5265.52148
5365.0 0.0001864 5165.84766 5259.31494
5244.0 0.0001907 5166.03418 5253.92236
5136.0 0.0001947 5166.21826 5249.24316
5216.0 0.0001917 5166.39990 5245.19629
5388.0 0.0001856 5166.57910 5241.71826
5164.0 0.0001936 5166.75537 5238.75684
5273.0 0.0001896 5166.92920 5236.27441
5039.0 0.0001985 5167.10010 5234.24463
5150.0 0.0001942 5167.26855 5232.64746
5218.0 0.0001916 5167.43408 5231.47900
5153.0 0.0001941 5167.59619 5230.74072
5310.0 0.0001883 5167.75586 5230.44873
5117.0 0.0001954 5167.91211 5230.63037
5148.0 0.0001943 5168.06543 5231.33154
5215.0 0.0001918 5168.21533 5232.89648
5319.0 0.0001880 5168.36230 5234.86426
5138.0 0.0001946 5168.50635 5237.63135
5237.0 0.0001909 5168.64648 5241.37305
5313.0 0.0001882 5168.78320 5246.33105
5211.0 0.0001919 5168.91699 5254.49219
5329.0 0.0001877 5169.04688 5263.12744
5354.0 0.0001868 5169.17334 5274.68848
5230.0 0.0001912 5169.29639 5290.86475
5379.0 0.0001859 5169.41553 5315.52637
5428.0 0.0001842 5169.53076 5357.71680
5461.0 0.0001831 5169.64258 5436.47119
5598.0 0.0001786 5169.75049 5584.79834
5616.0 0.0001781 5169.85498 5845.46191
6261.0 0.0001597 5169.95508 6250.20557
6751.0 0.0001481 5170.05127 6782.24170
7295.0 0.0001371 5170.14404 7332.78613
7715.0 0.0001296 5170.23193 7683.47754
7488.0 0.0001335 5170.31641 7622.05322
7199.0 0.0001389 5170.39648 7185.41699
6523.0 0.0001533 5170.47266 6617.52539
6139.0 0.0001629 5170.54443 6112.98047
5815.0 0.0001720 5170.61230 5749.59717
5472.0 0.0001827 5170.67529 5525.19678
5468.0 0.0001829 5170.73438 5401.03174
5341.0 0.0001872 5170.78906 5331.90430
5510.0 0.0001815 5170.83936 5295.76904
5330.0 0.0001876 5170.88525 5273.50049
5267.0 0.0001899 5170.92676 5258.07129
5227.0 0.0001913 5170.96387 5246.52539
5171.0 0.0001934 5170.99609 5237.52734
5188.0 0.0001928 5171.02393 5222.01318
5133.0 0.0001948 5171.04736 5216.45264
5268.0 0.0001898 5171.06592 5211.94141
5267.0 0.0001899 5171.07959 5208.25195
5183.0 0.0001929 5171.08936 5205.21631
5208.0 0.0001920 5171.09375 5202.70996
5174.0 0.0001933 5171.09375 5200.63916
5273.0 0.0001896 5171.08887 5198.93115
5240.0 0.0001908 5171.07910 5197.52979
5243.0 0.0001907 5171.06445 5196.39453
5275.0 0.0001896 5171.04492 5195.49219
5260.0 0.0001901 5171.02051 5194.79785
5227.0 0.0001913 5170.99170 5194.29346
5226.0 0.0001914 5170.95752 5193.96826
5397.0 0.0001853 5170.91846 5193.81348
5336.0 0.0001874 5170.87451 5193.82666
5165.0 0.0001936 5170.82568 5194.00977
5049.0 0.0001981 5170.77148 5194.36768
5177.0 0.0001932 5170.71240 5194.91211
5244.0 0.0001907 5170.64844 5195.65771
5081.0 0.0001968 5170.57959 5196.62891
5208.0 0.0001920 5170.50537 5197.85547
5276.0 0.0001895 5170.42627 5199.37646
5184.0 0.0001929 5170.34180 5201.24561
5163.0 0.0001937 5170.25244 5203.53125
5271.0 0.0001897 5170.15820 5206.32617
5252.0 0.0001904 5170.05859 5209.75391
5319.0 0.0001880 5169.95361 5213.98633
5169.0 0.0001935 5169.84375 5219.27979
5244.0 0.0001907 5169.72852 5226.07031
5274.0 0.0001896 5169.60791 5235.20654
5200.0 0.0001923 5169.48242 5248.45020
5301.0 0.0001886 5169.35205 5269.25635
5354.0 0.0001868 5169.21582 5303.43359
5421.0 0.0001845 5169.07520 5358.74463
5595.0 0.0001787 5168.92871 5442.72559
5771.0 0.0001733 5168.77734 5559.56641
5638.0 0.0001774 5168.62061 5707.85791
5866.0 0.0001705 5168.45850 5882.24463
6147.0 0.0001627 5168.29150 6090.08252
6427.0 0.0001556 5168.11914 6369.44775
6718.0 0.0001489 5167.94141 6745.02686
7057.0 0.0001417 5167.75879 7153.61572
7325.0 0.0001365 5167.57080 7418.29346
7178.0 0.0001393 5167.37744 7348.18652
6841.0 0.0001462 5167.17920 6959.90967
6339.0 0.0001578 5166.97559 6457.73584
6095.0 0.0001641 5166.76660 6010.02783
5643.0 0.0001772 5166.55273 5685.26123
5266.0 0.0001899 5166.33350 5482.67627
5403.0 0.0001851 5166.10889 5369.19336
5477.0 0.0001826 5165.87939 5308.35352
5256.0 0.0001903 5165.64453 5274.34717
5313.0 0.0001882 5165.40479 5253.12793
5188.0 0.0001928 5165.15967 5238.26563
5249.0 0.0001905 5164.90967 5227.01904
5260.0 0.0001901 5164.65430 5216.30908
5169.0 0.0001935 5164.39404 5209.18311
5240.0 0.0001908 5164.12842 5203.32715
5126.0 0.0001951 5163.85791 5198.44482
5181.0 0.0001930 5163.58203 5194.32227
5130.0 0.0001949 5163.30127 5190.79932
5315.0 0.0001881 5163.01563 5187.75684
5154.0 0.0001940 5162.72461 5185.10303
5207.0 0.0001920 5162.42920 5182.76611
5066.0 0.0001974 5162.12842 5180.69092
5286.0 0.0001892 5161.82275 5178.83203
5171.0 0.0001934 5161.51172 5177.15527
5225.0 0.0001914 5161.19629 5175.63232
5156.0 0.0001939 5160.87549 5174.23779
5220.0 0.0001916 5160.55029 5172.95410
5157.0 0.0001939 5160.21973 5171.76514
5159.0 0.0001938 5159.88477 5170.65674
5302.0 0.0001886 5159.54492 5169.61914
5175.0 0.0001932 5159.20020 5168.64258
5174.0 0.0001933 5158.85059 5167.71826
5142.0 0.0001945 5158.49609 5166.84033
5270.0 0.0001898 5158.13721 5166.06104
5231.0 0.0001912 5157.77344 5165.26123
5117.0 0.0001954 5157.40479 5164.49121
5128.0 0.0001950 5157.03223 5164.34814
5137.0 0.0001947 5156.65430 5163.64697
5099.0 0.0001961 5156.27197 5163.11035
5229.0 0.0001912 5155.88525 5162.45508
5097.0 0.0001962 5155.49414 5161.81787
5230.0 0.0001912 5155.09814 5161.19678
5163.0 0.0001937 5154.69775 5160.58984
5166.0 0.0001936 5154.29297 5159.99512
5176.0 0.0001932 5153.88379 5159.41260
5084.0 0.0001967 5153.47021 5158.84033
5146.0 0.0001943 5153.05225 5158.27783
5137.0 0.0001947 5152.63037 5157.72314
4953.0 0.0002019 5152.20361 5157.17725
5127.0 0.0001950 5151.77295 5156.63721
5156.0 0.0001939 5151.33789 5156.10498
5100.0 0.0001961 5150.89893 5155.57813
5025.0 0.0001990 5150.45557 5155.05762
5052.0 0.0001979 5150.00830 5154.54297
5055.0 0.0001978 5149.55713 5154.03320
5097.0 0.0001962 5149.10156 5153.52881
5142.0 0.0001945 5148.64209 5153.02979
5087.0 0.0001966 5148.17871 5152.53516
5109.0 0.0001957 5147.71143 5152.04590
5189.0 0.0001927 5147.24023 5151.56201
5170.0 0.0001934 5146.76563 5151.08301
5131.0 0.0001949 5146.28662 5150.60938
5021.0 0.0001992 5145.80420 5150.14160
5136.0 0.0001947 5145.31787 5149.68018
5310.0 0.0001883 5144.82764 5148.94824
5067.0 0.0001974 5144.33447 5148.50830
5145.0 0.0001944 5143.83740 5148.07568
5123.0 0.0001952 5143.33643 5147.65039
5325.0 0.0001878 5142.83203 5147.23486
5230.0 0.0001912 5142.32471 5145.19482
4920.0 0.0002033 5141.81348 5144.84668
5064.0 0.0001975 5141.29883 5144.50977
5068.0 0.0001973 5140.78125 5144.18457
5075.0 0.0001970 5140.26025 5143.87451
5092.0 0.0001964 5139.73584 5143.58154
5169.0 0.0001935 5139.20801 5143.30811
5142.0 0.0001945 5138.67725 5143.05713
5252.0 0.0001904 5138.14355 5142.83301
5205.0 0.0001921 5137.60645 5142.64063
5045.0 0.0001982 5137.06689 5142.48389
5132.0 0.0001949 5136.52393 5142.36914
5060.0 0.0001976 5135.97803 5142.30420
5238.0 0.0001909 5135.42920 5142.29883
5146.0 0.0001943 5134.87744 5142.36377
5122.0 0.0001952 5134.32324 5142.51172
5001.0 0.0002000 5133.76611 5142.92627
5235.0 0.0001910 5133.20605 5143.30273
5193.0 0.0001926 5132.64404 5143.82861
5222.0 0.0001915 5132.07910 5145.19629
5229.0 0.0001912 5131.51123 5146.15527
5052.0 0.0001979 5130.94092 5147.40576
5237.0 0.0001909 5130.36865 5149.03027
5088.0 0.0001965 5129.79346 5151.14697
5092.0 0.0001964 5129.21631 5153.94336
5171.0 0.0001934 5128.63672 5157.74707
5211.0 0.0001919 5128.05469 5163.17676
5178.0 0.0001931 5127.47070 5171.40820
5144.0 0.0001944 5126.88428 5184.54883
5096.0 0.0001962 5126.29590 5206.15332
5247.0 0.0001906 5125.70508 5241.88037
5352.0 0.0001868 5125.11279 5299.98975
5307.0 0.0001884 5124.51807 5390.21777
5440.0 0.0001838 5123.92188 5519.63867
5729.0 0.0001746 5123.32373 5687.78564
5806.0 0.0001722 5122.72363 5877.66455
6022.0 0.0001661 5122.12158 6036.66406
5938.0 0.0001684 5121.51807 6083.83447
6059.0 0.0001650 5120.91260 5984.15771
5769.0 0.0001733 5120.30566 5791.91309
5519.0 0.0001812 5119.69727 5586.91504
5423.0 0.0001844 5119.08740 5419.35693
5236.0 0.0001910 5118.47607 5304.09619
5209.0 0.0001920 5117.86328 5234.21045
5183.0 0.0001929 5117.24854 5195.06152
5126.0 0.0001951 5116.63330 5173.39600
5102.0 0.0001960 5116.01660 5160.59912
5162.0 0.0001937 5115.39844 5152.15088
5157.0 0.0001939 5114.77881 5145.97852
5038.0 0.0001985 5114.15869 5141.16895
5130.0 0.0001949 5113.53711 5137.28174
5046.0 0.0001982 5112.91455 5134.06787
5111.0 0.0001957 5112.29102 5131.36670
5054.0 0.0001979 5111.66699 5129.06494
5058.0 0.0001977 5111.04150 5127.08154
5146.0 0.0001943 5110.41553 5125.35547
5141.0 0.0001945 5109.78857 5123.84277
5186.0 0.0001928 5109.16064 5122.51074
5000.0 0.0002000 5108.53271 5121.33203
5133.0 0.0001948 5107.90381 5120.29053
4991.0 0.0002004 5107.27441 5119.37158
5105.0 0.0001959 5106.64404 5118.56543
5060.0 0.0001976 5106.01367 5117.86914
5108.0 0.0001958 5105.38281 5117.27881
5051.0 0.0001980 5104.75098 5116.79639
5053.0 0.0001979 5104.11963 5116.42578
5072.0 0.0001972 5103.48730 5116.17529
5065.0 0.0001974 5102.85498 5116.05713
5095.0 0.0001963 5102.22266 5116.08887
5135.0 0.0001947 5101.59033 5116.29248
5132.0 0.0001949 5100.95752 5116.75732
5021.0 0.0001992 5100.32471 5117.41260
5077.0 0.0001970 5099.69189 5118.36914
5126.0 0.0001951 5099.05908 5119.70508
5070.0 0.0001972 5098.42627 5121.52930
5120.0 0.0001953 5097.79395 5124.00830
5081.0 0.0001968 5097.16113 5127.43262
5092.0 0.0001964 5096.52930 5132.37061
5126.0 0.0001951 5095.89746 5139.99707
5304.0 0.0001885 5095.26563 5152.59814
5302.0 0.0001886 5094.63428 5174.09424
5157.0 0.0001939 5094.00342 5210.15771
5277.0 0.0001895 5093.37305 5267.59766
5406.0 0.0001850 5092.74316 5352.71240
5517.0 0.0001813 5092.11377 5467.61523
5720.0 0.0001748 5091.48535 5605.28076
5731.0 0.0001745 5090.85693 5753.13965
6170.0 0.0001621 5090.22949 5897.60303
6208.0 0.0001611 5089.60254 5999.78223
6109.0 0.0001637 5088.97656 5992.61182
6039.0 0.0001656 5088.35107 5857.38965
5847.0 0.0001710 5087.72656 5660.16113
5575.0 0.0001794 5087.10303 5472.97949
5269.0 0.0001898 5086.48047 5330.16162
5206.0 0.0001921 5085.85840 5236.54297
5164.0 0.0001936 5085.23779 5181.66553
5240.0 0.0001908 5084.61816 5151.28711
5074.0 0.0001971 5083.99951 5134.11475
5240.0 0.0001908 5083.38184 5123.44580
5152.0 0.0001941 5082.76563 5115.99854
5073.0 0.0001971 5082.15039 5110.32715
5186.0 0.0001928 5081.53613 5105.78271
5158.0 0.0001939 5080.92383 5101.97412
5111.0 0.0001957 5080.31201 5098.81689
5086.0 0.0001966 5079.70215 5096.11035
5190.0 0.0001927 5079.09326 5093.75781
5160.0 0.0001938 5078.48633 5091.07813
5054.0 0.0001979 5077.88037 5089.10547
5329.0 0.0001877 5077.27588 5087.45801
5098.0 0.0001962 5076.67334 5085.96094
5084.0 0.0001967 5076.07178 5084.58691
5041.0 0.0001984 5075.47217 5083.31592
5239.0 0.0001909 5074.87402 5082.13379
5189.0 0.0001927 5074.27783 5081.02637
5115.0 0.0001955 5073.68311 5079.98535
5187.0 0.0001928 5073.08984 5079.00098
5257.0 0.0001902 5072.49902 5078.06689
5051.0 0.0001980 5071.90918 5077.17871
5092.0 0.0001964 5071.32178 5076.33105
5138.0 0.0001946 5070.73584 5075.52295
5173.0 0.0001933 5070.15234 5074.75049
4963.0 0.0002015 5069.57031 5074.01318
5137.0 0.0001947 5068.99023 5073.31055
5045.0 0.0001982 5068.41211 5072.64355
5116.0 0.0001955 5067.83594 5072.01416
5068.0 0.0001973 5067.26221 5071.42578
5152.0 0.0001941 5066.68994 5070.88477
5012.0 0.0001995 5066.12012 5070.39893
5065.0 0.0001974 5065.55273 5069.98096
5093.0 0.0001963 5064.98682 5069.65381
5106.0 0.0001958 5064.42334 5069.45557
5094.0 0.0001963 5063.86230 5069.47656
5086.0 0.0001966 5063.30322 5069.92041
4966.0 0.0002014 5062.74609 5071.22461
5013.0 0.0001995 5062.19189 5074.17920
5046.0 0.0001982 5061.63965 5079.90332
5035.0 0.0001986 5061.08984 5089.43018
5105.0 0.0001959 5060.54199 5102.84375
5142.0 0.0001945 5059.99707 5118.12256
5235.0 0.0001910 5059.45410 5130.09912
5096.0 0.0001962 5058.91357 5131.90576
5253.0 0.0001904 5058.37549 5121.80908
5121.0 0.0001953 5057.83984 5105.71094
5192.0 0.0001926 5057.30713 5089.98438
5156.0 0.0001939 5056.77637 5077.73340
5277.0 0.0001895 5056.24854 5069.49902
5084.0 0.0001967 5055.72314 5064.46826
5080.0 0.0001969 5055.19971 5061.47363
5128.0 0.0001950 5054.67920 5059.57666
5045.0 0.0001982 5054.16162 5058.22217
5093.0 0.0001963 5053.64648 5057.13525
5039.0 0.0001985 5053.13379 5056.19531
5053.0 0.0001979 5052.62354 5055.35010
5077.0 0.0001970 5052.11621 5054.57080
5039.0 0.0001985 5051.61182 5053.67529
5148.0 0.0001943 5051.10986 5052.99072
5039.0 0.0001985 5050.61035 5052.33691
4976.0 0.0002010 5050.11377 5051.70850
4989.0 0.0002004 5049.61963 5050.43555
4989.0 0.0002004 5049.12842 5049.86377
5141.0 0.0001945 5048.64014 5049.30615
4924.0 0.0002031 5048.15479 5048.76074
5252.0 0.0001904 5047.67188 5048.22559
5085.0 0.0001967 5047.19141 5047.69971
5054.0 0.0001979 5046.71436 5047.18213
5057.0 0.0001977 5046.23975 5046.67139
5241.0 0.0001908 5045.76807 5046.67041
5053.0 0.0001979 5045.29883 5046.18848
5059.0 0.0001977 5044.83301 5045.71191
5040.0 0.0001984 5044.36963 5045.30371
4899.0 0.0002041 5043.90918 5044.84082
4917.0 0.0002034 5043.45166 5044.38428
5007.0 0.0001997 5042.99707 5043.93213
4939.0 0.0002025 5042.54541 5043.48633
5032.0 0.0001987 5042.09619 5043.04590
5137.0 0.0001947 5041.64990 5042.60986
5016.0 0.0001994 5041.20654 5042.17969
5084.0 0.0001967 5040.76660 5041.75439
5100.0 0.0001961 5040.32910 5041.33398
5010.0 0.0001996 5039.89453 5040.91846
5078.0 0.0001969 5039.46289 5040.50879
5070.0 0.0001972 5039.03369 5040.10449
5014.0 0.0001994 5038.60791 5039.70459
5085.0 0.0001967 5038.18506 5039.31055
4972.0 0.0002011 5037.76465 5038.92188
5056.0 0.0001978 5037.34766 5038.53906
4969.0 0.0002012 5036.93359 5038.16162
4997.0 0.0002001 5036.52197 5037.79053
5027.0 0.0001989 5036.11328 5037.42480
5008.0 0.0001997 5035.70801 5037.06543
5004.0 0.0001998 5035.30518 5036.71289
5137.0 0.0001947 5034.90527 5036.36719
5149.0 0.0001942 5034.50830 5036.02979
4968.0 0.0002013 5034.11426 5035.69824
5087.0 0.0001966 5033.72314 5035.37549
4999.0 0.0002000 5033.33496 5035.06055
5049.0 0.0001981 5032.94971 5034.75537
5035.0 0.0001986 5032.56689 5034.45898
5059.0 0.0001977 5032.18750 5034.17285
5085.0 0.0001967 5031.81055 5033.89844
5023.0 0.0001991 5031.43652 5033.63477
5035.0 0.0001986 5031.06543 5033.38477
4920.0 0.0002033 5030.69727 5033.14893
5027.0 0.0001989 5030.33154 5032.92822
5023.0 0.0001991 5029.96924 5032.72412
5037.0 0.0001985 5029.60938 5032.53857
5037.0 0.0001985 5029.25244 5032.37451
5051.0 0.0001980 5028.89795 5032.23389
5083.0 0.0001967 5028.54688 5032.11914
4967.0 0.0002013 5028.19824 5031.97559
5040.0 0.0001984 5027.85254 5031.92676
5016.0 0.0001994 5027.50928 5031.91650
4996.0 0.0002002 5027.16895 5031.95166
4925.0 0.0002030 5026.83154 5032.03857
5050.0 0.0001980 5026.49658 5032.18848
5050.0 0.0001980 5026.16455 5032.41064
4964.0 0.0002015 5025.83496 5032.72070
4951.0 0.0002020 5025.50830 5033.13525
5014.0 0.0001994 5025.18457 5033.67871
5116.0 0.0001955 5024.86279 5034.38037
5091.0 0.0001964 5024.54443 5035.27930
5191.0 0.0001926 5024.22803 5036.42725
4969.0 0.0002012 5023.91504 5037.89502
4850.0 0.0002062 5023.60400 5039.78027
4976.0 0.0002010 5023.29590 5042.22900
5037.0 0.0001985 5022.99023 5045.47754
4968.0 0.0002013 5022.68701 5049.98730
5016.0 0.0001994 5022.38672 5056.77002
4970.0 0.0002012 5022.08838 5068.08740
5114.0 0.0001955 5021.79297 5088.50195
5094.0 0.0001963 5021.50000 5125.64795
5166.0 0.0001936 5021.20947 5189.16943
5273.0 0.0001896 5020.92188 5286.25781
5363.0 0.0001865 5020.63623 5413.82959
5534.0 0.0001807 5020.35303 5548.71973
5674.0 0.0001762 5020.07227 5641.27783
5616.0 0.0001781 5019.79395 5640.99609
5508.0 0.0001816 5019.51807 5555.30029
5368.0 0.0001863 5019.24414 5436.41846
5348.0 0.0001870 5018.97314 5321.68701
5208.0 0.0001920 5018.70410 5226.27246
5142.0 0.0001945 5018.43750 5155.77393
5134.0 0.0001948 5018.17334 5108.64551
4993.0 0.0002003 5017.91113 5079.03125
5134.0 0.0001948 5017.65137 5060.91846
5022.0 0.0001991 5017.39355 5049.79102
4868.0 0.0002054 5017.13818 5042.68457
4958.0 0.0002017 5016.88477 5037.83154
5052.0 0.0001979 5016.63379 5034.26318
5063.0 0.0001975 5016.38477 5031.48047
5150.0 0.0001942 5016.13770 5029.22559
5020.0 0.0001992 5015.89307 5027.35010
5095.0 0.0001963 5015.65039 5025.76367
5011.0 0.0001996 5015.40967 5024.40137
4938.0 0.0002025 5015.17090 5023.21729
5031.0 0.0001988 5014.93408 5022.17676
5108.0 0.0001958 5014.69922 5021.25244
5020.0 0.0001992 5014.46680 5020.42285
4841.0 0.0002066 5014.23584 5019.67383
5077.0 0.0001970 5014.00684 5018.99170
5046.0 0.0001982 5013.77979 5018.36523
5083.0 0.0001967 5013.55469 5017.78662
5037.0 0.0001985 5013.33105 5020.72998
5029.0 0.0001988 5013.10938 5020.33057
4999.0 0.0002000 5012.88965 5019.96680
5091.0 0.0001964 5012.67188 5019.63477
5067.0 0.0001974 5012.45557 5019.62891
4954.0 0.0002019 5012.24072 5019.36084
4833.0 0.0002069 5012.02783 5019.11768
5037.0 0.0001985 5011.81641 5018.89697
4918.0 0.0002033 5011.60693 5018.69873
5082.0 0.0001968 5011.39893 5018.52148
4875.0 0.0002051 5011.19238 5018.36426
5067.0 0.0001974 5010.98730 5018.22607
5022.0 0.0001991 5010.78369 5018.10840
5061.0 0.0001976 5010.58203 5018.00781
4963.0 0.0002015 5010.38135 5017.92725
4864.0 0.0002056 5010.18262 5017.86475
5032.0 0.0001987 5009.98486 5017.82227
4914.0 0.0002035 5009.78857 5017.79932
5088.0 0.0001965 5009.59375 5017.79639
5013.0 0.0001995 5009.40039 5017.81494
5054.0 0.0001979 5009.20801 5017.85547
5052.0 0.0001979 5009.01709 5017.91748
5013.0 0.0001995 5008.82715 5018.00488
5061.0 0.0001976 5008.63916 5018.11670
4981.0 0.0002008 5008.45166 5018.25635
5026.0 0.0001990 5008.26563 5018.42432
4988.0 0.0002005 5008.08105 5018.62354
4962.0 0.0002015 5007.89697 5018.85596
5001.0 0.0002000 5007.71436 5019.12402
5043.0 0.0001983 5007.53271 5019.43213
5003.0 0.0001999 5007.35205 5019.78320
5035.0 0.0001986 5007.17285 5020.18018
5054.0 0.0001979 5006.99414 5020.62939
5041.0 0.0001984 5006.81641 5021.13525
4915.0 0.0002035 5006.63965 5021.70410
4991.0 0.0002004 5006.46387 5022.34229
5000.0 0.0002000 5006.28906 5023.05762
4974.0 0.0002010 5006.11475 5023.85938
5017.0 0.0001993 5005.94189 5024.76025
4917.0 0.0002034 5005.76904 5025.77100
5105.0 0.0001959 5005.59766 5026.90674
4991.0 0.0002004 5005.42676 5028.18457
5090.0 0.0001965 5005.25635 5029.62549
5105.0 0.0001959 5005.08691 5030.75439
5008.0 0.0001997 5004.91797 5032.61328
4995.0 0.0002002 5004.75000 5034.72217
4976.0 0.0002010 5004.58203 5037.06348
4988.0 0.0002005 5004.41504 5039.81396
4897.0 0.0002042 5004.24854 5042.97461
5051.0 0.0001980 5004.08252 5046.62500
5055.0 0.0001978 5003.91699 5050.86523
5037.0 0.0001985 5003.75195 5055.82275
4972.0 0.0002011 5003.58740 5061.65918
5018.0 0.0001993 5003.42334 5068.58740
5115.0 0.0001955 5003.25977 5076.88330
4962.0 0.0002015 5003.09619 5086.91992
5161.0 0.0001938 5002.93311 5099.20215
5061.0 0.0001976 5002.77051 5114.44189
5144.0 0.0001944 5002.60791 5133.71045
5236.0 0.0001910 5002.44580 5158.83203
5181.0 0.0001930 5002.28369 5193.45801
5165.0 0.0001936 5002.12207 5245.68848
5402.0 0.0001851 5001.96045 5333.18604
5574.0 0.0001794 5001.79883 5489.99072
5839.0 0.0001713 5001.63770 5769.51416
6277.0 0.0001593 5001.47656 6233.03418
6973.0 0.0001434 5001.31543 6915.42627
7820.0 0.0001279 5001.15430 7771.42773
8821.0 0.0001134 5000.99316 8611.14258
9141.0 0.0001094 5000.83203 9079.44434
9062.0 0.0001104 5000.67139 8898.11426
8224.0 0.0001216 5000.51025 8223.01465
7413.0 0.0001349 5000.34863 7428.00488
6710.0 0.0001490 5000.18750 6740.29443
6139.0 0.0001629 5000.02637 6214.98975
5916.0 0.0001690 4999.86475 5835.03564
5600.0 0.0001786 4999.70313 5573.57666
5476.0 0.0001826 4999.54102 5400.42676
5387.0 0.0001856 4999.37891 5287.74414
5148.0 0.0001943 4999.21680 5214.94971
5200.0 0.0001923 4999.05420 5167.64893
5177.0 0.0001932 4998.89111 5135.95313
5148.0 0.0001943 4998.72803 5113.53174
5012.0 0.0001995 4998.56445 5096.70850
5107.0 0.0001958 4998.40088 5083.48535
5078.0 0.0001969 4998.23633 5072.77002
5208.0 0.0001920 4998.07178 5063.91699
4989.0 0.0002004 4997.90674 5056.50049
5017.0 0.0001993 4997.74121 5050.21777
5050.0 0.0001980 4997.57520 5044.84424
5010.0 0.0001996 4997.40869 5040.20801
5055.0 0.0001978 4997.24170 5036.17578
5057.0 0.0001977 4997.07422 5032.64355
5013.0 0.0001995 4996.90625 5029.52832
5058.0 0.0001977 4996.73779 5026.76367
5032.0 0.0001987 4996.56885 5024.29688
5080.0 0.0001969 4996.39893 5022.08252
5038.0 0.0001985 4996.22852 5020.08545
4952.0 0.0002019 4996.05762 5018.27637
4897.0 0.0002042 4995.88574 5016.62891
5031.0 0.0001988 4995.71338 5015.12305
4933.0 0.0002027 4995.54004 5013.74121
5004.0 0.0001998 4995.36621 5012.46729
5110.0 0.0001957 4995.19189 5011.29053
4953.0 0.0002019 4995.01660 5010.19775
5036.0 0.0001986 4994.84033 5009.18066
4964.0 0.0002015 4994.66357 5008.23047
5071.0 0.0001972 4994.48584 5007.34082
5084.0 0.0001967 4994.30713 5006.50439
4974.0 0.0002010 4994.12744 5005.71680
5077.0 0.0001970 4993.94727 5004.97168
5001.0 0.0002000 4993.76611 5004.26709
5075.0 0.0001970 4993.58398 5003.59814
5080.0 0.0001969 4993.40137 5002.96045
4983.0 0.0002007 4993.21729 5002.35254
5073.0 0.0001971 4993.03223 5001.77148
4976.0 0.0002010 4992.84668 5001.21387
5054.0 0.0001979 4992.65967 5000.67969
4927.0 0.0002030 4992.47217 5000.16504
5023.0 0.0001991 4992.28320 4999.66846
4976.0 0.0002010 4992.09326 4999.18945
5145.0 0.0001944 4991.90234 4998.72656
5039.0 0.0001985 4991.71045 4998.27734
5168.0 0.0001935 4991.51758 4997.84131
4990.0 0.0002004 4991.32373 4997.41748
4898.0 0.0002042 4991.12842 4997.00586
4993.0 0.0002003 4990.93213 4996.60352
5112.0 0.0001956 4990.73486 4996.20996
5125.0 0.0001951 4990.53662 4995.82666
4950.0 0.0002020 4990.33691 4995.45020
4934.0 0.0002027 4990.13623 4995.08252
5119.0 0.0001954 4989.93408 4994.72070
5014.0 0.0001994 4989.73096 4994.36670
4958.0 0.0002017 4989.52686 4994.01709
4984.0 0.0002006 4989.32129 4993.67383
5014.0 0.0001994 4989.11475 4993.33545
4949.0 0.0002021 4988.90674 4993.00146
5004.0 0.0001998 4988.69775 4992.67236
4980.0 0.0002008 4988.48730 4992.46582
4965.0 0.0002014 4988.27588 4988.73486
4958.0 0.0002017 4988.06299 4988.51563
4927.0 0.0002030 4987.84863 4988.35742
5050.0 0.0001980 4987.63330 4988.13867
5021.0 0.0001992 4987.41650 4987.62109
5015.0 0.0001994 4987.19873 4987.40967
5063.0 0.0001975 4986.97949 4987.19678
5037.0 0.0001985 4986.75879 4986.98340
4978.0 0.0002009 4986.53711 4986.76904
5032.0 0.0001987 4986.31396 4986.55371
4956.0 0.0002018 4986.08936 4986.33691
4937.0 0.0002026 4985.86328 4986.11963
4928.0 0.0002029 4985.63623 4985.90137
4954.0 0.0002019 4985.40771 4985.68213
5032.0 0.0001987 4985.17773 4985.46240
5052.0 0.0001979 4984.94678 4985.24219
4902.0 0.0002040 4984.71436 4985.02100
5003.0 0.0001999 4984.48047 4984.79834
5075.0 0.0001970 4984.24512 4984.57568
5057.0 0.0001977 4984.00830 4984.35205
4929.0 0.0002029 4983.77002 4984.12793
4945.0 0.0002022 4983.53076 4983.90381
4997.0 0.0002001 4983.29004 4983.67871
5049.0 0.0001981 4983.04785 4983.45361
4957.0 0.0002017 4982.80420 4983.22803
4995.0 0.0002002 4982.55908 4983.00195
5024.0 0.0001990 4982.31299 4982.77637
5031.0 0.0001988 4982.06543 4982.55078
4903.0 0.0002040 4981.81592 4982.32520
4895.0 0.0002043 4981.56543 4982.10010
4894.0 0.0002043 4981.31348 4981.87549
4933.0 0.0002027 4981.06055 4981.65234
5044.0 0.0001983 4980.80566 4981.42969
5038.0 0.0001985 4980.54932 4981.20752
5032.0 0.0001987 4980.29199 4980.98779
4916.0 0.0002034 4980.03320 4980.77002
5041.0 0.0001984 4979.77295 4980.55469
5121.0 0.0001953 4979.51123 4980.34082
4932.0 0.0002028 4979.24805 4980.13135
4934.0 0.0002027 4978.98340 4979.92578
5006.0 0.0001998 4978.71729 4979.72510
4988.0 0.0002005 4978.45020 4979.52930
4874.0 0.0002052 4978.18164 4979.34033
4871.0 0.0002053 4977.91162 4979.15918
4964.0 0.0002015 4977.64014 4978.98779
5023.0 0.0001991 4977.36719 4978.82617
4868.0 0.0002054 4977.09277 4978.67871
4922.0 0.0002032 4976.81738 4982.02783
4934.0 0.0002027 4976.54053 4982.01709
4996.0 0.0002002 4976.26172 4982.03369
5045.0 0.0001982 4975.98242 4982.08398
4954.0 0.0002019 4975.70117 4982.17334
4931.0 0.0002028 4975.41895 4982.31104
5015.0 0.0001994 4975.13477 4982.50879
5014.0 0.0001994 4974.85010 4982.77979
4987.0 0.0002005 4974.56348 4983.14502
4974.0 0.0002010 4974.27539 4983.63086
5062.0 0.0001976 4973.98633 4984.27734
5037.0 0.0001985 4973.69580 4985.14600
4994.0 0.0002002 4973.40430 4986.35742
4899.0 0.0002041 4973.11084 4988.15918
4930.0 0.0002028 4972.81641 4991.08496
5019.0 0.0001992 4972.52100 4996.17334
5010.0 0.0001996 4972.22412 5005.12500
5048.0 0.0001981 4971.92578 5020.11279
5131.0 0.0001949 4971.62598 5042.93994
5180.0 0.0001931 4971.32520 5073.53467
5117.0 0.0001954 4971.02295 5107.81592
5115.0 0.0001955 4970.71973 5135.80371
5143.0 0.0001944 4970.41504 5146.37158
5200.0 0.0001923 4970.10938 5139.23096
5091.0 0.0001964 4969.80225 5121.41406
5126.0 0.0001951 4969.49365 5096.28662
4833.0 0.0002069 4969.18408 5067.39209
5096.0 0.0001962 4968.87354 5040.82275
5055.0 0.0001978 4968.56152 5020.27051
4941.0 0.0002024 4968.24854 5006.15430
5023.0 0.0001991 4967.93408 4997.29980
4921.0 0.0002032 4967.61865 4992.10449
5062.0 0.0001976 4967.30176 4989.15625
4846.0 0.0002064 4966.98438 4987.47998
4931.0 0.0002028 4966.66504 4986.51416
4946.0 0.0002022 4966.34521 4985.97656
4995.0 0.0002002 4966.02393 4985.73682
5062.0 0.0001976 4965.70166 4985.73145
4978.0 0.0002009 4965.37842 4985.93018
5039.0 0.0001985 4965.05371 4986.31689
5009.0 0.0001996 4964.72852 4986.88818
4921.0 0.0002032 4964.40186 4987.64453
4865.0 0.0002055 4964.07422 4988.59570
4926.0 0.0002030 4963.74561 4989.75537
4861.0 0.0002057 4963.41602 4991.14600
4913.0 0.0002035 4963.08496 4992.79639
5135.0 0.0001947 4962.75342 4994.74121
5018.0 0.0001993 4962.42090 4997.02734
5027.0 0.0001989 4962.08691 4999.71387
4997.0 0.0002001 4961.75244 5002.87256
5003.0 0.0001999 4961.41650 5006.59668
5017.0 0.0001993 4961.08008 5011.00586
5017.0 0.0001993 4960.74268 5016.25098
5042.0 0.0001983 4960.40430 5022.53125
5071.0 0.0001972 4960.06494 5030.10693
5045.0 0.0001982 4959.72510 5039.32764
5110.0 0.0001957 4959.38379 5050.66943
5074.0 0.0001971 4959.04199 5064.80225
5016.0 0.0001994 4958.69922 5082.73096
5163.0 0.0001937 4958.35547 5106.16260
5127.0 0.0001950 4958.01123 5138.47363
5223.0 0.0001915 4957.66602 5187.01660
5322.0 0.0001879 4957.32031 5267.54639
5545.0 0.0001803 4956.97314 5410.04932
5519.0 0.0001812 4956.62598 5661.33301
6174.0 0.0001620 4956.27734 6075.49609
6771.0 0.0001477 4955.92871 6685.18506
7460.0 0.0001340 4955.57861 7455.59961
8355.0 0.0001197 4955.22852 8226.01758
8603.0 0.0001162 4954.87744 8677.20508
8494.0 0.0001177 4954.52539 8524.06543
7757.0 0.0001289 4954.17285 7870.49072
6848.0 0.0001460 4953.81982 7067.47900
6353.0 0.0001574 4953.46631 6362.57422
5778.0 0.0001731 4953.11182 5847.53320
5466.0 0.0001829 4952.75684 5517.77686
5241.0 0.0001908 4952.40137 5325.30566
5256.0 0.0001903 4952.04541 5217.08008
5113.0 0.0001956 4951.68848 5154.15186
5152.0 0.0001941 4951.33154 5114.11035
5133.0 0.0001948 4950.97363 5085.97998
5109.0 0.0001957 4950.61523 5064.76221
5097.0 0.0001962 4950.25684 5048.08398
5047.0 0.0001981 4949.89746 5034.65137
5020.0 0.0001992 4949.53760 5023.65137
5013.0 0.0001995 4949.17773 5025.99170
4999.0 0.0002000 4948.81689 5018.65430
4915.0 0.0002035 4948.45605 5012.48633
4949.0 0.0002021 4948.09473 5007.26074
5091.0 0.0001964 4947.73291 5008.10693
4998.0 0.0002001 4947.37061 5004.43604
5038.0 0.0001985 4947.00830 5001.18213
4996.0 0.0002002 4946.64551 4998.50049
5035.0 0.0001986 4946.28223 4996.20361
5109.0 0.0001957 4945.91895 4994.17627
4927.0 0.0002030 4945.55518 4992.50342
5111.0 0.0001957 4945.19092 4991.08545
4885.0 0.0002047 4944.82666 4989.89404
4942.0 0.0002023 4944.46240 4988.90771
4987.0 0.0002005 4944.09766 4988.10840
5006.0 0.0001998 4943.73242 4987.48047
5128.0 0.0001950 4943.36719 4987.01318
4941.0 0.0002024 4943.00195 4986.69727
5243.0 0.0001907 4942.63623 4986.52588
5033.0 0.0001987 4942.27100 4986.49414
5029.0 0.0001988 4941.90479 4986.59961
5025.0 0.0001990 4941.53906 4986.83984
5023.0 0.0001991 4941.17285 4987.21582
4889.0 0.0002045 4940.80664 4987.72949
5019.0 0.0001992 4940.44043 4988.38281
5003.0 0.0001999 4940.07422 4989.17969
4954.0 0.0002019 4939.70801 4990.12744
4919.0 0.0002033 4939.34131 4991.23340
4989.0 0.0002004 4938.97510 4992.50586
4955.0 0.0002018 4938.60889 4993.95605
4939.0 0.0002025 4938.24219 4995.59668
4910.0 0.0002037 4937.87598 4997.44287
4955.0 0.0002018 4937.50977 4999.51270
5040.0 0.0001984 4937.14355 5001.82568
5019.0 0.0001992 4936.77734 5004.40625
4961.0 0.0002016 4936.41113 5007.28174
5103.0 0.0001960 4936.04541 5010.48242
5009.0 0.0001996 4935.67920 5014.04639
4863.0 0.0002056 4935.31348 5018.01660
5041.0 0.0001984 4934.94824 5022.44238
4950.0 0.0002020 4934.58252 5027.38330
5097.0 0.0001962 4934.21729 5032.90771
4937.0 0.0002026 4933.85205 5039.09814
5125.0 0.0001951 4933.48730 5046.05713
5023.0 0.0001991 4933.12305 5053.88867
5165.0 0.0001936 4932.75830 5062.73926
5058.0 0.0001977 4932.39404 5072.78662
5179.0 0.0001931 4932.03027 5084.21826
5026.0 0.0001990 4931.66650 5097.29639
5128.0 0.0001950 4931.30322 5112.33398
5112.0 0.0001956 4930.94043 5129.72461
5220.0 0.0001916 4930.57764 5149.96240
5191.0 0.0001926 4930.21533 5173.67920
5235.0 0.0001910 4929.85303 5201.69580
5261.0 0.0001901 4929.49121 5231.64941
5203.0 0.0001922 4929.12988 5271.92920
5384.0 0.0001857 4928.76904 5320.94189
5522.0 0.0001811 4928.40820 5381.43115
5493.0 0.0001820 4928.04834 5457.56250
5653.0 0.0001769 4927.68848 5556.53857
5769.0 0.0001733 4927.32910 5692.68848
5910.0 0.0001692 4926.97021 5896.55762
6452.0 0.0001550 4926.61182 6230.66260
6684.0 0.0001496 4926.25391 6807.02588
7712.0 0.0001297 4925.89648 7788.63281
9450.0 0.0001058 4925.53906 9348.20801
11640.0 0.0000859 4925.18262 11570.98047
14529.0 0.0000688 4924.82666 14309.97656
17077.0 0.0000586 4924.47119 16998.56641
18731.0 0.0000534 4924.11621 18632.79102
18469.0 0.0000541 4923.76172 18597.37695
17580.0 0.0000569 4923.40820 17463.01172
16243.0 0.0000616 4923.05469 16029.25488
14485.0 0.0000690 4922.70215 14430.63379
12461.0 0.0000803 4922.34961 12540.40918
10507.0 0.0000952 4921.99805 10579.02539
8857.0 0.0001129 4921.64746 8889.88281
7519.0 0.0001330 4921.29688 7617.46387
6728.0 0.0001486 4920.94727 6747.98389
6293.0 0.0001589 4920.59814 6196.39844
5790.0 0.0001727 4920.25000 5860.37744
5779.0 0.0001730 4919.90234 5653.61816
5426.0 0.0001843 4919.55518 5518.56104
5365.0 0.0001864 4919.20850 5422.94141
5282.0 0.0001893 4918.86279 5350.51270
5371.0 0.0001862 4918.51807 5293.22607
5219.0 0.0001916 4918.17334 5246.74365
5040.0 0.0001984 4917.83008 5208.39795
5249.0 0.0001905 4917.48682 5176.36670
5119.0 0.0001954 4917.14453 5149.32471
5196.0 0.0001925 4916.80322 5126.28174
5029.0 0.0001988 4916.46240 5106.48145
5067.0 0.0001974 4916.12256 5089.33838
5229.0 0.0001912 4915.78320 5074.39502
5010.0 0.0001996 4915.44482 5061.28857
4981.0 0.0002008 4915.10742 5049.72607
4873.0 0.0002052 4914.77051 5039.47461
5095.0 0.0001963 4914.43457 5030.34424
5025.0 0.0001990 4914.09912 5022.17627
5040.0 0.0001984 4913.76465 5014.84424
4983.0 0.0002007 4913.43066 5008.23828
4973.0 0.0002011 4913.09766 5002.27100
4919.0 0.0002033 4912.76563 4996.87012
5128.0 0.0001950 4912.43457 4991.97852
4838.0 0.0002067 4912.10400 4987.55566
4820.0 0.0002075 4911.77441 4983.58203
4853.0 0.0002061 4911.44580 4980.07422
4870.0 0.0002053 4911.11768 4977.08643
5028.0 0.0001989 4910.79102 4974.70020
4932.0 0.0002028 4910.46436 4973.00391
4992.0 0.0002003 4910.13916 4972.01465
4916.0 0.0002034 4909.81494 4971.57813
5025.0 0.0001990 4909.49121 4971.26709
4915.0 0.0002035 4909.16846 4970.60205
4879.0 0.0002050 4908.84668 4969.37207
4948.0 0.0002021 4908.52539 4967.27637
4952.0 0.0002019 4908.20557 4964.04688
4950.0 0.0002020 4907.88623 4960.16602
4971.0 0.0002012 4907.56787 4956.42676
5005.0 0.0001998 4907.25049 4953.27246
4886.0 0.0002047 4906.93408 4950.80225
4914.0 0.0002035 4906.61816 4948.93262
4893.0 0.0002044 4906.30322 4947.52051
5018.0 0.0001993 4905.98975 4946.43164
4854.0 0.0002060 4905.67676 4945.57813
4906.0 0.0002038 4905.36475 4944.91211
4849.0 0.0002062 4905.05371 4944.40967
4820.0 0.0002075 4904.74316 4944.06885
4972.0 0.0002011 4904.43408 4943.89209
4807.0 0.0002080 4904.12549 4943.89014
4834.0 0.0002069 4903.81787 4944.07373
4879.0 0.0002050 4903.51172 4944.46436
5028.0 0.0001989 4903.20605 4945.08496
4889.0 0.0002045 4902.90137 4945.96680
4943.0 0.0002023 4902.59717 4947.14893
4863.0 0.0002056 4902.29443 4948.67969
4979.0 0.0002008 4901.99268 4950.62402
4905.0 0.0002039 4901.69141 4953.06445
4917.0 0.0002034 4901.39111 4944.63525
4787.0 0.0002089 4901.09229 4948.73877
4923.0 0.0002031 4900.79395 4953.75049
4961.0 0.0002016 4900.49658 4959.91699
4912.0 0.0002036 4900.19971 4962.26221
4962.0 0.0002015 4899.90430 4972.06006
4982.0 0.0002007 4899.60986 4984.62109
5025.0 0.0001990 4899.31592 5001.36768
5051.0 0.0001980 4899.02295 5025.24219
5098.0 0.0001962 4898.73096 5062.49658
5214.0 0.0001918 4898.43994 5125.48340
5326.0 0.0001878 4898.14990 5235.03955
5522.0 0.0001811 4897.86084 5418.92871
5743.0 0.0001741 4897.57227 5702.22314
6254.0 0.0001599 4897.28516 6088.30957
6720.0 0.0001488 4896.99854 6532.64648
6968.0 0.0001435 4896.71289 6911.30859
7164.0 0.0001396 4896.42822 7045.26709
6962.0 0.0001436 4896.14404 6877.17383
6459.0 0.0001548 4895.86133 6546.07813
6191.0 0.0001615 4895.57910 6197.13086
5857.0 0.0001707 4895.29785 5881.62891
5788.0 0.0001728 4895.01758 5610.48145
5435.0 0.0001840 4894.73779 5396.25146
5218.0 0.0001916 4894.45947 5241.57715
5245.0 0.0001907 4894.18164 5136.59033
5188.0 0.0001928 4893.90479 5068.16064
5011.0 0.0001996 4893.62842 5024.48877
4906.0 0.0002038 4893.35303 4996.36768
5096.0 0.0001962 4893.07861 4977.45068
4936.0 0.0002026 4892.80518 4963.88574
4906.0 0.0002038 4892.53271 4953.55713
5036.0 0.0001986 4892.26074 4945.34619
4809.0 0.0002079 4891.98926 4938.63965
4902.0 0.0002040 4891.71924 4933.06201
4862.0 0.0002057 4891.44971 4928.36230
4916.0 0.0002034 4891.18115 4924.35596
4936.0 0.0002026 4890.91309 4920.90674
5062.0 0.0001976 4890.64600 4917.91113
4945.0 0.0002022 4890.37939 4915.28857
4880.0 0.0002049 4890.11426 4912.97461
4923.0 0.0002031 4889.84912 4910.91895
4939.0 0.0002025 4889.58496 4909.08154
4961.0 0.0002016 4889.32178 4907.42432
4940.0 0.0002024 4889.05957 4905.93018
4773.0 0.0002095 4888.79736 4904.57324
4819.0 0.0002075 4888.53662 4903.32617
4834.0 0.0002069 4888.27637 4902.19043
5124.0 0.0001952 4888.01660 4901.14600
4923.0 0.0002031 4887.75781 4900.18066
4920.0 0.0002033 4887.49951 4899.28564
4828.0 0.0002071 4887.24219 4898.45459
4904.0 0.0002039 4886.98535 4897.67969
5040.0 0.0001984 4886.72900 4896.95605
4826.0 0.0002072 4886.47363 4896.27734
4981.0 0.0002008 4886.21875 4895.64209
4831.0 0.0002070 4885.96484 4895.04395
4878.0 0.0002050 4885.71143 4894.48242
4798.0 0.0002084 4885.45850 4893.95313
5004.0 0.0001998 4885.20605 4893.45459
4979.0 0.0002008 4884.95459 4892.98535
4941.0 0.0002024 4884.70361 4892.54346
4944.0 0.0002023 4884.45313 4892.12891
4985.0 0.0002006 4884.20361 4891.73877
4889.0 0.0002045 4883.95410 4891.37451
4927.0 0.0002030 4883.70557 4891.03467
4876.0 0.0002051 4883.45752 4890.72021
4904.0 0.0002039 4883.20996 4890.42969
4945.0 0.0002022 4882.96338 4890.16357
4764.0 0.0002099 4882.71680 4889.92529
4914.0 0.0002035 4882.47119 4889.71533
4841.0 0.0002066 4882.22559 4889.53418
4832.0 0.0002070 4881.98096 4889.38379
4908.0 0.0002037 4881.73633 4889.26904
4862.0 0.0002057 4881.49268 4889.19189
4911.0 0.0002036 4881.24951 4889.15625
4881.0 0.0002049 4881.00635 4889.16895
4903.0 0.0002040 4880.76416 4889.23535
4766.0 0.0002098 4880.52197 4889.36426
4920.0 0.0002033 4880.28076 4889.56738
4763.0 0.0002100 4880.03955 4889.85449
4942.0 0.0002023 4879.79883 4890.24707
4828.0 0.0002071 4879.55859 4890.76367
4920.0 0.0002033 4879.31885 4891.43359
4769.0 0.0002097 4879.07959 4892.29736
4894.0 0.0002043 4878.84033 4893.40527
4886.0 0.0002047 4878.60156 4894.84521
4971.0 0.0002012 4878.36328 4896.75830
4927.0 0.0002030 4878.12549 4899.40967
4963.0 0.0002015 4877.88770 4903.27979
4978.0 0.0002009 4877.65039 4909.16064
4920.0 0.0002033 4877.41357 4918.18555
4979.0 0.0002008 4877.17676 4931.71338
4950.0 0.0002020 4876.94043 4951.11914
4922.0 0.0002032 4876.70410 4977.52197
4826.0 0.0002072 4876.46875 5011.58496
5044.0 0.0001983 4876.23291 5052.53662
5154.0 0.0001940 4875.99756 5103.77930
5167.0 0.0001935 4875.76270 5171.03711
5276.0 0.0001895 4875.52783 5251.97900
5370.0 0.0001862 4875.29346 5325.08594
5329.0 0.0001877 4875.05908 5361.38232
5410.0 0.0001848 4874.82471 5348.14502
5389.0 0.0001856 4874.59082 5301.24023
5189.0 0.0001927 4874.35693 5229.83057
5216.0 0.0001917 4874.12354 5146.77881
5071.0 0.0001972 4873.89014 5069.00342
5099.0 0.0001961 4873.65674 5007.52100
5021.0 0.0001992 4873.42334 4964.14258
4990.0 0.0002004 4873.19043 4935.86328
4934.0 0.0002027 4872.95752 4918.30518
4929.0 0.0002029 4872.72461 4907.50146
4793.0 0.0002086 4872.49219 4900.59424
4935.0 0.0002026 4872.25928 4895.85107
4879.0 0.0002050 4872.02686 4892.34229
4936.0 0.0002026 4871.79443 4889.59961
4881.0 0.0002049 4871.56201 4887.37891
4871.0 0.0002053 4871.32959 4885.53955
4828.0 0.0002071 4871.09717 4883.99316
4825.0 0.0002073 4870.86475 4882.67578
4896.0 0.0002042 4870.63232 4881.54053
4939.0 0.0002025 4870.39990 4880.55273
4870.0 0.0002053 4870.16748 4879.68701
4801.0 0.0002083 4869.93506 4878.91992
4914.0 0.0002035 4869.70313 4878.23730
5035.0 0.0001986 4869.47021 4877.62695
4727.0 0.0002116 4869.23779 4877.07666
5047.0 0.0001981 4869.00537 4876.58105
4765.0 0.0002099 4868.77295 4876.12939
4924.0 0.0002031 4868.54004 4875.72021
4789.0 0.0002088 4868.30713 4875.34766
4823.0 0.0002073 4868.07422 4875.00879
4861.0 0.0002057 4867.84131 4874.69971
4881.0 0.0002049 4867.60840 4874.41846
4889.0 0.0002045 4867.37500 4874.16504
4806.0 0.0002081 4867.14160 4873.93604
4957.0 0.0002017 4866.90771 4873.73193
4863.0 0.0002056 4866.67432 4873.55127
4762.0 0.0002100 4866.44043 4873.39453
4890.0 0.0002045 4866.20605 4873.26123
4895.0 0.0002043 4865.97217 4873.15186
4955.0 0.0002018 4865.73730 4873.06641
4847.0 0.0002063 4865.50293 4873.00635
4943.0 0.0002023 4865.26807 4872.97363
4852.0 0.0002061 4865.03271 4872.96875
4897.0 0.0002042 4864.79736 4872.99365
4870.0 0.0002053 4864.56201 4873.05029
4896.0 0.0002042 4864.32617 4873.14160
4870.0 0.0002053 4864.08984 4873.27100
5028.0 0.0001989 4863.85352 4873.44287
4839.0 0.0002067 4863.61670 4873.66162
4915.0 0.0002035 4863.37988 4873.93115
4866.0 0.0002055 4863.14258 4874.25879
4952.0 0.0002019 4862.90479 4874.65186
4900.0 0.0002041 4862.66699 4875.11914
4933.0 0.0002027 4862.42871 4875.67139
4737.0 0.0002111 4862.19043 4876.32031
4943.0 0.0002023 4861.95117 4877.08301
4903.0 0.0002040 4861.71240 4877.97754
4800.0 0.0002083 4861.47266 4879.02637
4809.0 0.0002079 4861.23242 4880.25879
4914.0 0.0002035 4860.99219 4881.70947
5038.0 0.0001985 4860.75146 4883.42578
4890.0 0.0002045 4860.51074 4885.46191
5029.0 0.0001988 4860.26904 4887.89697
4892.0 0.0002044 4860.02734 4890.82959
4851.0 0.0002061 4859.78467 4894.39600
4966.0 0.0002014 4859.54199 4898.79834
4931.0 0.0002028 4859.29932 4904.37109
5028.0 0.0001989 4859.05566 4911.73828
4941.0 0.0002024 4858.81152 4922.15186
5036.0 0.0001986 4858.56689 4938.03760
4921.0 0.0002032 4858.32227 4963.55322
5140.0 0.0001946 4858.07715 5004.53467
5169.0 0.0001935 4857.83105 5066.96533
5238.0 0.0001909 4857.58496 5153.59863
5367.0 0.0001863 4857.33838 5259.11328
5315.0 0.0001881 4857.09082 5363.82422
5443.0 0.0001837 4856.84326 5433.74951
5377.0 0.0001860 4856.59521 5451.85889
5496.0 0.0001820 4856.34619 5454.47314
5507.0 0.0001816 4856.09717 5500.94922
5699.0 0.0001755 4855.84766 5631.33740
5904.0 0.0001694 4855.59717 5851.59961
6228.0 0.0001606 4855.34668 6120.97754
6377.0 0.0001568 4855.09570 6335.94336
6454.0 0.0001549 4854.84375 6361.12402
6274.0 0.0001594 4854.59131 6165.49805
5916.0 0.0001690 4854.33887 5860.87842
5604.0 0.0001784 4854.08545 5562.59717
5249.0 0.0001905 4853.83154 5325.91650
5202.0 0.0001922 4853.57715 5162.09473
5096.0 0.0001962 4853.32227 5059.46631
5070.0 0.0001972 4853.06641 4998.78564
4940.0 0.0002024 4852.81055 4962.92920
4959.0 0.0002017 4852.55371 4940.46777
4865.0 0.0002055 4852.29639 4925.09521
4913.0 0.0002035 4852.03857 4913.71143
4846.0 0.0002064 4851.78027 4904.83350
4849.0 0.0002062 4851.52148 4897.69385
4862.0 0.0002057 4851.26221 4891.83789
4889.0 0.0002045 4851.00195 4886.96484
4816.0 0.0002076 4850.74121 4882.85889
4757.0 0.0002102 4850.47998 4879.35986
4913.0 0.0002035 4850.21826 4876.34717
4774.0 0.0002095 4849.95557 4873.73193
4907.0 0.0002038 4849.69287 4871.43945
4906.0 0.0002038 4849.42920 4869.41602
4880.0 0.0002049 4849.16504 4867.61768
4896.0 0.0002042 4848.90039 4866.00684
4806.0 0.0002081 4848.63477 4864.55762
4940.0 0.0002024 4848.36865 4863.24512
4905.0 0.0002039 4848.10205 4862.05029
4878.0 0.0002050 4847.83496 4860.95801
4734.0 0.0002112 4847.56738 4859.95459
4997.0 0.0002001 4847.29883 4859.02783
4824.0 0.0002073 4847.03027 4858.20117
4842.0 0.0002065 4846.76074 4857.40674
4745.0 0.0002107 4846.49023 4856.66553
4765.0 0.0002099 4846.21973 4855.97461
4674.0 0.0002139 4845.94824 4855.32959
4819.0 0.0002075 4845.67627 4854.72266
4864.0 0.0002056 4845.40381 4854.15283
4877.0 0.0002050 4845.13086 4853.62061
4906.0 0.0002038 4844.85693 4853.11816
4920.0 0.0002033 4844.58252 4852.64355
4781.0 0.0002092 4844.30762 4852.19727
4767.0 0.0002098 4844.03223 4851.77881
4900.0 0.0002041 4843.75586 4851.38574
4872.0 0.0002053 4843.47949 4851.01904
4811.0 0.0002079 4843.20215 4850.67725
4844.0 0.0002064 4842.92432 4850.36230
4855.0 0.0002060 4842.64551 4850.07178
4800.0 0.0002083 4842.36670 4849.80859
4906.0 0.0002038 4842.08691 4849.57227
4929.0 0.0002029 4841.80664 4849.36572
4892.0 0.0002044 4841.52588 4849.19189
4831.0 0.0002070 4841.24463 4849.05029
4835.0 0.0002068 4840.96289 4848.94678
4860.0 0.0002058 4840.68018 4848.88379
4901.0 0.0002040 4840.39746 4848.86865
4864.0 0.0002056 4840.11377 4848.90381
4908.0 0.0002037 4839.82959 4849.00049
4730.0 0.0002114 4839.54492 4849.16699
4843.0 0.0002065 4839.25977 4849.41455
4801.0 0.0002083 4838.97412 4849.76025
4824.0 0.0002073 4838.68750 4850.22461
4829.0 0.0002071 4838.40088 4850.83154
4846.0 0.0002064 4838.11328 4851.61963
4868.0 0.0002054 4837.82520 4852.64453
4900.0 0.0002041 4837.53711 4854.00293
4841.0 0.0002066 4837.24805 4855.86426
4784.0 0.0002090 4836.95850 4858.53027
4833.0 0.0002069 4836.66846 4862.47754
4803.0 0.0002082 4836.37793 4868.32568
4872.0 0.0002053 4836.08691 4876.67676
4793.0 0.0002086 4835.79541 4887.81445
4827.0 0.0002072 4835.50391 4901.31934
4902.0 0.0002040 4835.21143 4915.71826
4787.0 0.0002089 4834.91846 4929.32422
4886.0 0.0002047 4834.62500 4944.42627
4850.0 0.0002062 4834.33105 4969.14063
5074.0 0.0001971 4834.03662 5015.36572
5211.0 0.0001919 4833.74219 5091.55908
5113.0 0.0001956 4833.44678 5199.37256
5234.0 0.0001911 4833.15137 5326.40283
5472.0 0.0001827 4832.85547 5438.03320
5404.0 0.0001850 4832.55859 5482.17578
5336.0 0.0001874 4832.26172 5430.15039
5268.0 0.0001898 4831.96484 5310.97705
5147.0 0.0001943 4831.66699 5179.69482
5029.0 0.0001988 4831.36865 5067.95410
4995.0 0.0002002 4831.07031 4986.42920
4914.0 0.0002035 4830.77148 4933.15283
4971.0 0.0002012 4830.47217 4900.82275
4836.0 0.0002068 4830.17285 4881.69824
4878.0 0.0002050 4829.87305 4870.00391
4938.0 0.0002025 4829.57275 4862.27734
4816.0 0.0002076 4829.27197 4856.71631
4856.0 0.0002059 4828.97119 4852.45068
4875.0 0.0002051 4828.66992 4849.05029
4782.0 0.0002091 4828.36816 4846.27539
4898.0 0.0002042 4828.06641 4843.97363
4938.0 0.0002025 4827.76416 4842.04541
4844.0 0.0002064 4827.46143 4840.41650
4809.0 0.0002079 4827.15869 4839.03516
4822.0 0.0002074 4826.85596 4837.86523
4806.0 0.0002081 4826.55273 4836.88428
4714.0 0.0002121 4826.24902 4836.08154
4809.0 0.0002079 4825.94531 4835.47070
4885.0 0.0002047 4825.64160 4835.10010
4810.0 0.0002079 4825.33740 4835.08887
4829.0 0.0002071 4825.03271 4835.67529
4873.0 0.0002052 4824.72803 4837.23486
4844.0 0.0002064 4824.42334 4840.23633
4861.0 0.0002057 4824.11816 4845.04492
4878.0 0.0002050 4823.81299 4851.60059
4775.0 0.0002094 4823.50781 4858.94775
4906.0 0.0002038 4823.20215 4864.69336
4888.0 0.0002046 4822.89648 4865.67676
4809.0 0.0002079 4822.59082 4861.29053
4773.0 0.0002095 4822.28516 4854.38965
4824.0 0.0002073 4821.97900 4847.81787
4795.0 0.0002086 4821.67285 4842.74658
4820.0 0.0002075 4821.36670 4839.16992
4693.0 0.0002131 4821.06055 4836.63477
4768.0 0.0002097 4820.75439 4834.48730
4783.0 0.0002091 4820.44775 4832.20361
4871.0 0.0002053 4820.14160 4829.82373
4801.0 0.0002083 4819.83496 4827.65674
4729.0 0.0002115 4819.52832 4825.87793
4784.0 0.0002090 4819.22168 4824.50098
4827.0 0.0002072 4818.91553 4823.46436
4705.0 0.0002125 4818.60889 4822.67041
4677.0 0.0002138 4818.30225 4822.03760
4824.0 0.0002073 4817.99609 4821.50586
4721.0 0.0002118 4817.68945 4821.03760
4850.0 0.0002062 4817.38330 4820.61475
4755.0 0.0002103 4817.07666 4820.22461
4815.0 0.0002077 4816.77051 4819.86572
4778.0 0.0002093 4816.46436 4819.53271
4853.0 0.0002061 4816.15869 4819.22705
4846.0 0.0002064 4815.85254 4818.94727
4819.0 0.0002075 4815.54688 4818.69629
4820.0 0.0002075 4815.24121 4818.47412
4868.0 0.0002054 4814.93555 4818.28662
4853.0 0.0002061 4814.63037 4818.13916
4850.0 0.0002062 4814.32520 4818.03906
4806.0 0.0002081 4814.02002 4817.99512
4814.0 0.0002077 4813.71533 4818.02393
4876.0 0.0002051 4813.41064 4818.14355
4804.0 0.0002082 4813.10645 4818.38428
4766.0 0.0002098 4812.80225 4818.79492
4896.0 0.0002042 4812.49805 4823.92236
4885.0 0.0002047 4812.19434 4825.14502
4854.0 0.0002060 4811.89111 4827.19385
4886.0 0.0002047 4811.58789 4830.76807
4938.0 0.0002025 4811.28516 4836.97852
4769.0 0.0002097 4810.98242 4847.20801
4973.0 0.0002011 4810.68066 4862.58594
4909.0 0.0002037 4810.37842 4890.41455
4957.0 0.0002017 4810.07715 4913.51465
4975.0 0.0002010 4809.77588 4932.21094
4969.0 0.0002012 4809.47461 4936.84863
4988.0 0.0002005 4809.17432 4924.27832
4877.0 0.0002050 4808.87402 4902.29395
4996.0 0.0002002 4808.57471 4879.89746
4837.0 0.0002067 4808.27539 4861.68750
4880.0 0.0002049 4807.97656 4848.82959
4828.0 0.0002071 4807.67773 4840.53369
4821.0 0.0002074 4807.37988 4835.34229
4910.0 0.0002037 4807.08252 4832.58740
4826.0 0.0002072 4806.78516 4830.98047
4889.0 0.0002045 4806.48877 4829.99707
4814.0 0.0002077 4806.19238 4829.37354
4832.0 0.0002070 4805.89697 4828.98047
4793.0 0.0002086 4805.60205 4828.75537
4814.0 0.0002077 4805.30713 4828.65869
4810.0 0.0002079 4805.01318 4828.67139
4844.0 0.0002064 4804.71973 4828.77734
4875.0 0.0002051 4804.42676 4828.96436
4880.0 0.0002049 4804.13428 4829.22705
4865.0 0.0002055 4803.84277 4829.56201
4851.0 0.0002061 4803.55127 4829.96289
4928.0 0.0002029 4803.26074 4830.43164
4773.0 0.0002095 4802.97070 4830.96631
4812.0 0.0002078 4802.68164 4831.56934
4799.0 0.0002084 4802.39307 4832.24121
4787.0 0.0002089 4802.10498 4832.98438
4909.0 0.0002037 4801.81738 4833.80371
4737.0 0.0002111 4801.53076 4834.70264
4801.0 0.0002083 4801.24463 4835.68457
4761.0 0.0002100 4800.95947 4836.75781
4944.0 0.0002023 4800.67480 4837.92627
4787.0 0.0002089 4800.39111 4839.20020
4665.0 0.0002144 4800.10791 4840.58643
4797.0 0.0002085 4799.82520 4842.11279
4884.0 0.0002048 4799.54346 4843.75391
4841.0 0.0002066 4799.26270 4845.53955
4807.0 0.0002080 4798.98242 4847.49707
4947.0 0.0002021 4798.70313 4849.61719
4902.0 0.0002040 4798.42480 4851.93018
4872.0 0.0002053 4798.14697 4854.42480
4727.0 0.0002116 4797.86963 4857.18555
4862.0 0.0002057 4797.59375 4860.20898
4896.0 0.0002042 4797.31836 4863.52441
4864.0 0.0002056 4797.04395 4867.16504
4893.0 0.0002044 4796.77051 4871.17725
4837.0 0.0002067 4796.49756 4875.60400
4847.0 0.0002063 4796.22559 4880.49756
4831.0 0.0002070 4795.95459 4885.93164
4871.0 0.0002053 4795.68457 4891.97803
4961.0 0.0002016 4795.41553 4898.72754
5002.0 0.0001999 4795.14697 4906.28906
5020.0 0.0001992 4794.87988 4914.79541
4886.0 0.0002047 4794.61328 4924.40332
4878.0 0.0002050 4794.34766 4935.30908
4889.0 0.0002045 4794.08301 4947.75098
4954.0 0.0002019 4793.81934 4962.03027
4959.0 0.0002017 4793.55664 4978.52051
4999.0 0.0002000 4793.29541 4997.69971
5021.0 0.0001992 4793.03467 5020.18652
5034.0 0.0001986 4792.77490 5046.78711
5132.0 0.0001949 4792.51611 5078.58203
5025.0 0.0001990 4792.25830 5117.07373
5220.0 0.0001916 4792.00146 5164.50439
5135.0 0.0001947 4791.74609 5224.62354
5181.0 0.0001930 4791.49121 5304.47998
5396.0 0.0001853 4791.23779 5418.05664
5624.0 0.0001778 4790.98535 5592.05811
5893.0 0.0001697 4790.73340 5872.10205
6480.0 0.0001543 4790.48291 6321.02979
7114.0 0.0001406 4790.23389 7005.91650
8050.0 0.0001242 4789.98535 7962.60791
9212.0 0.0001086 4789.73828 9144.85352
10347.0 0.0000966 4789.49219 10352.94629
11040.0 0.0000906 4789.24707 11194.28613
11276.0 0.0000887 4789.00293 11353.46484
11128.0 0.0000899 4788.76025 11064.12598
10858.0 0.0000921 4788.51855 10902.81152
11313.0 0.0000884 4788.27783 11274.41406
12256.0 0.0000816 4788.03809 12257.82129
13603.0 0.0000735 4787.79980 13568.82715
14203.0 0.0000704 4787.56299 14510.09375
14275.0 0.0000701 4787.32666 14292.10645
12710.0 0.0000787 4787.09180 12877.03613
10844.0 0.0000922 4786.85791 10965.00586
9160.0 0.0001092 4786.62549 9171.33789
7657.0 0.0001306 4786.39404 7766.11572
6891.0 0.0001451 4786.16357 6790.09326
6269.0 0.0001595 4785.93457 6168.62451
5759.0 0.0001736 4785.70654 5791.25439
5750.0 0.0001739 4785.47949 5561.08154
5537.0 0.0001806 4785.25391 5412.74268
5398.0 0.0001853 4785.02979 5309.26563
5259.0 0.0001902 4784.80664 5231.85400
5205.0 0.0001921 4784.58447 5171.17480
5190.0 0.0001927 4784.36377 5122.25732
5042.0 0.0001983 4784.14404 5082.11035
5124.0 0.0001952 4783.92578 5048.72363
5000.0 0.0002000 4783.70850 5020.65381
5027.0 0.0001989 4783.49268 4996.82764
4893.0 0.0002044 4783.27783 4976.43359
4901.0 0.0002040 4783.06445 4958.84277
4897.0 0.0002042 4782.85205 4943.56885
5002.0 0.0001999 4782.64111 4930.22754
4943.0 0.0002023 4782.43115 4918.51465
4954.0 0.0002019 4782.22266 4908.18848
4925.0 0.0002030 4782.01514 4899.05469
4879.0 0.0002050 4781.80908 4890.96484
4976.0 0.0002010 4781.60400 4883.81006
5026.0 0.0001990 4781.40039 4877.53369
5005.0 0.0001998 4781.19775 4872.15186
4846.0 0.0002064 4780.99658 4867.77783
4760.0 0.0002101 4780.79688 4864.62695
4905.0 0.0002039 4780.59814 4862.98145
4830.0 0.0002070 4780.40039 4863.06201
5029.0 0.0001988 4780.20410 4864.81445
4903.0 0.0002040 4780.00928 4867.55078
4835.0 0.0002068 4779.81543 4869.61133
4822.0 0.0002074 4779.62305 4869.10791
4916.0 0.0002034 4779.43164 4865.64111
4915.0 0.0002035 4779.24170 4859.80713
4911.0 0.0002036 4779.05273 4852.22803
4906.0 0.0002038 4778.86523 4844.17041
4914.0 0.0002035 4778.67871 4836.93799
4714.0 0.0002121 4778.49365 4831.09766
4756.0 0.0002103 4778.31006 4826.63623
4718.0 0.0002120 4778.12744 4823.29492
4866.0 0.0002055 4777.94580 4820.76514
4927.0 0.0002030 4777.76563 4818.78906
4803.0 0.0002082 4777.58691 4817.19043
4782.0 0.0002091 4777.40918 4815.86377
4842.0 0.0002065 4777.23291 4814.75977
4827.0 0.0002072 4777.05762 4813.85596
4826.0 0.0002072 4776.88330 4813.14893
4763.0 0.0002100 4776.71045 4812.64844
4888.0 0.0002046 4776.53906 4812.37256
4927.0 0.0002030 4776.36865 4812.34766
4816.0 0.0002076 4776.19922 4812.61914
4941.0 0.0002024 4776.03125 4813.24854
4877.0 0.0002050 4775.86475 4814.32910
4764.0 0.0002099 4775.69922 4816.01074
4830.0 0.0002070 4775.53467 4818.55811
4934.0 0.0002027 4775.37158 4822.49854
4856.0 0.0002059 4775.20947 4828.89844
4877.0 0.0002050 4775.04883 4839.78906
4901.0 0.0002040 4774.88916 4858.55127
4853.0 0.0002061 4774.73047 4889.79004
4981.0 0.0002008 4774.57324 4938.07373
4971.0 0.0002012 4774.41748 5008.42090
5165.0 0.0001936 4774.26221 5089.87891
5144.0 0.0001944 4774.10840 5168.28223
5070.0 0.0001972 4773.95557 5211.06836
5183.0 0.0001929 4773.80420 5191.55518
5088.0 0.0001965 4773.65381 5122.26709
5056.0 0.0001978 4773.50439 5037.97607
4966.0 0.0002014 4773.35645 4962.64990
4988.0 0.0002005 4773.20947 4905.39160
4689.0 0.0002133 4773.06348 4861.96436
4722.0 0.0002118 4772.91846 4837.63232
4756.0 0.0002103 4772.77490 4822.94434
4904.0 0.0002039 4772.63232 4813.94531
4846.0 0.0002064 4772.49072 4808.07617
4903.0 0.0002040 4772.35010 4803.92725
4725.0 0.0002116 4772.21094 4800.78955
4774.0 0.0002095 4772.07275 4798.31152
4833.0 0.0002069 4771.93506 4788.93750
4632.0 0.0002159 4771.79883 4787.45410
4777.0 0.0002093 4771.66406 4786.23828
4864.0 0.0002056 4771.52979 4785.23486
4857.0 0.0002059 4771.39648 4784.40186
4745.0 0.0002107 4771.26416 4783.70850
4767.0 0.0002098 4771.13330 4783.13037
4715.0 0.0002121 4771.00293 4782.65039
4812.0 0.0002078 4770.87402 4782.25293
4762.0 0.0002100 4770.74561 4781.92773
4763.0 0.0002100 4770.61865 4781.66455
4879.0 0.0002050 4770.49219 4781.45850
4669.0 0.0002142 4770.36719 4781.30322
4658.0 0.0002147 4770.24268 4781.19482
4734.0 0.0002112 4770.11914 4781.12988
4712.0 0.0002122 4769.99658 4781.10645
4738.0 0.0002111 4769.87500 4781.12207
4809.0 0.0002079 4769.75439 4781.25098
4708.0 0.0002124 4769.63477 4781.34473
4794.0 0.0002086 4769.51563 4781.47705
4782.0 0.0002091 4769.39746 4781.64795
4828.0 0.0002071 4769.28027 4781.85791
4873.0 0.0002052 4769.16406 4782.10791
4884.0 0.0002048 4769.04883 4782.40088
4720.0 0.0002119 4768.93408 4782.74121
4761.0 0.0002100 4768.82031 4783.12598
4870.0 0.0002053 4768.70703 4783.56152
4786.0 0.0002089 4768.59473 4784.05127
4721.0 0.0002118 4768.48340 4784.59912
4800.0 0.0002083 4768.37256 4785.21045
4807.0 0.0002080 4768.26270 4785.89209
4794.0 0.0002086 4768.15332 4786.64941
4821.0 0.0002074 4768.04492 4787.49365
4756.0 0.0002103 4767.93701 4788.43115
4796.0 0.0002085 4767.83008 4789.47217
4875.0 0.0002051 4767.72363 4790.61230
4775.0 0.0002094 4767.61816 4791.90381
4871.0 0.0002053 4767.51318 4793.34375
4769.0 0.0002097 4767.40869 4794.94141
4864.0 0.0002056 4767.30518 4796.74463
4697.0 0.0002129 4767.20215 4798.76953
4860.0 0.0002058 4767.09961 4801.05029
4833.0 0.0002069 4766.99805 4803.62646
4869.0 0.0002054 4766.89697 4806.54980
4801.0 0.0002083 4766.79639 4809.87891
4772.0 0.0002096 4766.69629 4813.68799
4790.0 0.0002088 4766.59668 4818.06982
4868.0 0.0002054 4766.49756 4823.13770
4926.0 0.0002030 4766.39941 4829.03662
4845.0 0.0002064 4766.30127 4835.95215
4911.0 0.0002036 4766.20410 4844.12012
4925.0 0.0002030 4766.10693 4853.85352
4823.0 0.0002073 4766.01074 4865.56494
4897.0 0.0002042 4765.91455 4879.81689
4683.0 0.0002135 4765.81934 4897.40332
4923.0 0.0002031 4765.72412 4919.53955
4996.0 0.0002002 4765.62939 4948.30518
5037.0 0.0001985 4765.53516 4987.66992
5142.0 0.0001945 4765.44141 5045.69775
5151.0 0.0001941 4765.34814 5137.44580
5300.0 0.0001887 4765.25488 5289.11426
5502.0 0.0001818 4765.16211 5537.92041
5791.0 0.0001727 4765.06982 5924.88623
6581.0 0.0001520 4764.97754 6473.34326
6929.0 0.0001443 4764.88574 7161.94238
7966.0 0.0001255 4764.79443 7877.50537
8576.0 0.0001166 4764.70313 8371.43262
8513.0 0.0001175 4764.61230 8365.68848
7950.0 0.0001258 4764.52148 7863.79980
7056.0 0.0001417 4764.43115 7146.06201
6418.0 0.0001558 4764.34082 6459.43213
5900.0 0.0001695 4764.25098 5914.23779
5450.0 0.0001835 4764.16113 5530.97803
5228.0 0.0001913 4764.07129 5284.56006
5001.0 0.0002000 4763.98193 5134.43408
4951.0 0.0002020 4763.89258 5043.56055
5089.0 0.0001965 4763.80322 4986.08838
4983.0 0.0002007 4763.71436 4946.94434
5014.0 0.0001994 4763.62500 4918.29150
4856.0 0.0002059 4763.53613 4896.22021
4772.0 0.0002096 4763.44727 4878.67969
4844.0 0.0002064 4763.35840 4864.47314
4809.0 0.0002079 4763.26953 4852.81689
4950.0 0.0002020 4763.18115 4843.15527
4682.0 0.0002136 4763.09229 4835.08740
4739.0 0.0002110 4763.00342 4828.31104
4734.0 0.0002112 4762.91504 4822.60547
4817.0 0.0002076 4762.82617 4817.80127
4825.0 0.0002073 4762.73730 4813.78223
4797.0 0.0002085 4762.64844 4810.47803
4732.0 0.0002113 4762.55908 4807.88037
4785.0 0.0002090 4762.47021 4806.07861
4844.0 0.0002064 4762.38086 4805.32959
4763.0 0.0002100 4762.29150 4806.13574
4690.0 0.0002132 4762.20215 4809.26855
4755.0 0.0002103 4762.11279 4815.62939
4773.0 0.0002095 4762.02295 4825.85693
4842.0 0.0002065 4761.93311 4839.68799
4800.0 0.0002083 4761.84277 4855.00293
4791.0 0.0002087 4761.75244 4866.68750
4860.0 0.0002058 4761.66162 4868.00146
4914.0 0.0002035 4761.57080 4857.41064
4904.0 0.0002039 4761.47998 4840.70068
4804.0 0.0002082 4761.38867 4824.07031
4823.0 0.0002073 4761.29688 4810.59424
4744.0 0.0002108 4761.20459 4800.97021
4781.0 0.0002092 4761.11230 4794.56006
4779.0 0.0002092 4761.02002 4790.18994
4749.0 0.0002106 4760.92676 4786.91553
4712.0 0.0002122 4760.83350 4784.32422
4754.0 0.0002103 4760.73975 4782.26807
4863.0 0.0002056 4760.64551 4780.66064
4758.0 0.0002102 4760.55127 4779.42676
4837.0 0.0002067 4760.45605 4778.49463
4931.0 0.0002028 4760.36084 4777.79736
4742.0 0.0002109 4760.26514 4777.28223
4961.0 0.0002016 4760.16895 4776.91113
4718.0 0.0002120 4760.07227 4776.66162
4733.0 0.0002113 4759.97461 4776.52148
4894.0 0.0002043 4759.87695 4776.49023
4625.0 0.0002162 4759.77881 4776.56641
4779.0 0.0002092 4759.67969 4776.75586
4779.0 0.0002092 4759.58057 4777.06982
4830.0 0.0002070 4759.48047 4777.52002
4799.0 0.0002084 4759.37988 4778.12744
4785.0 0.0002090 4759.27881 4778.91357
4806.0 0.0002081 4759.17725 4779.91406
4719.0 0.0002119 4759.07520 4781.17334
4720.0 0.0002119 4758.97217 4782.82422
4678.0 0.0002138 4758.86865 4784.79199
4784.0 0.0002090 4758.76416 4787.26465
4869.0 0.0002054 4758.65918 4790.40820
4793.0 0.0002086 4758.55371 4794.51758
4841.0 0.0002066 4758.44727 4800.04199
4748.0 0.0002106 4758.34033 4807.86279
4696.0 0.0002129 4758.23291 4819.47510
4890.0 0.0002045 4758.12451 4837.26855
4905.0 0.0002039 4758.01514 4864.71484
4792.0 0.0002087 4757.90527 4906.32520
4929.0 0.0002029 4757.79443 4966.88867
4969.0 0.0002012 4757.68311 5049.10205
4975.0 0.0002010 4757.57080 5149.73877
5291.0 0.0001890 4757.45752 5259.71973
5435.0 0.0001840 4757.34375 5367.52246
5485.0 0.0001823 4757.22900 5448.24805
5588.0 0.0001790 4757.11328 5458.39209
5410.0 0.0001848 4756.99707 5379.97266
5343.0 0.0001872 4756.87988 5250.48486
5134.0 0.0001948 4756.76123 5117.95996
4966.0 0.0002014 4756.64258 5008.02344
5081.0 0.0001968 4756.52246 4924.55078
4951.0 0.0002020 4756.40137 4871.04150
4980.0 0.0002008 4756.27979 4837.49609
4838.0 0.0002067 4756.15723 4816.88916
4816.0 0.0002076 4756.03320 4803.87402
5007.0 0.0001997 4755.90869 4795.10254
4872.0 0.0002053 4755.78320 4788.74414
4841.0 0.0002066 4755.65674 4783.86230
4849.0 0.0002062 4755.52930 4779.97021
4824.0 0.0002073 4755.40039 4776.79443
4670.0 0.0002141 4755.27100 4774.16016
4776.0 0.0002094 4755.14063 4771.94531
4649.0 0.0002151 4755.00879 4770.06445
4762.0 0.0002100 4754.87646 4768.44678
4841.0 0.0002066 4754.74268 4767.04639
4844.0 0.0002064 4754.60791 4765.93994
4747.0 0.0002107 4754.47217 4764.86230
4691.0 0.0002132 4754.33545 4763.90576
4823.0 0.0002073 4754.19775 4763.05176
4870.0 0.0002053 4754.05859 4762.30273
4744.0 0.0002108 4753.91895 4761.60889
4778.0 0.0002093 4753.77734 4760.97607
4674.0 0.0002139 4753.63525 4760.39893
4756.0 0.0002103 4753.49219 4759.86768
4747.0 0.0002107 4753.34766 4759.37891
4663.0 0.0002145 4753.20166 4758.92578
4671.0 0.0002141 4753.05518 4758.50537
4742.0 0.0002109 4752.90723 4758.11377
4756.0 0.0002103 4752.75830 4757.74805
4765.0 0.0002099 4752.60791 4757.40527
4770.0 0.0002096 4752.45654 4757.08594
4784.0 0.0002090 4752.30420 4756.78564
4753.0 0.0002104 4752.15039 4756.50488
4693.0 0.0002131 4751.99561 4756.16797
4711.0 0.0002123 4751.83936 4755.92383
4802.0 0.0002082 4751.68213 4755.69678
4789.0 0.0002088 4751.52393 4755.48682
4695.0 0.0002130 4751.36426 4755.29346
4803.0 0.0002082 4751.20313 4755.11865
4762.0 0.0002100 4751.04102 4754.96240
4757.0 0.0002102 4750.87793 4754.82471
4847.0 0.0002063 4750.71338 4754.71289
4681.0 0.0002136 4750.54736 4754.62646
4797.0 0.0002085 4750.38037 4754.56982
4842.0 0.0002065 4750.21240 4754.54883
4803.0 0.0002082 4750.04297 4754.56836
4833.0 0.0002069 4749.87207 4754.63867
4821.0 0.0002074 4749.70020 4754.77197
4671.0 0.0002141 4749.52686 4754.98633
4837.0 0.0002067 4749.35254 4755.30469
4843.0 0.0002065 4749.17676 4755.76611
4873.0 0.0002052 4748.99951 4756.45996
4800.0 0.0002083 4748.82129 4757.48291
4734.0 0.0002112 4748.64209 4759.11328
4629.0 0.0002160 4748.46094 4761.81201
4743.0 0.0002108 4748.27930 4766.30127
4722.0 0.0002118 4748.09570 4773.49902
4812.0 0.0002078 4747.91113 4784.25635
4776.0 0.0002094 4747.72510 4800.08838
4889.0 0.0002045 4747.53809 4817.53809
4837.0 0.0002067 4747.34961 4834.30371
4888.0 0.0002046 4747.16016 4844.11035
4882.0 0.0002048 4746.96875 4842.52246
4950.0 0.0002020 4746.77686 4832.53516
4784.0 0.0002090 4746.58301 4820.16553
4810.0 0.0002079 4746.38818 4808.33105
4742.0 0.0002109 4746.19189 4797.13428
4789.0 0.0002088 4745.99463 4786.76074
4775.0 0.0002094 4745.79590 4777.97314
4825.0 0.0002073 4745.59619 4770.96289
4850.0 0.0002062 4745.39502 4765.45996
4770.0 0.0002096 4745.19238 4761.26074
4772.0 0.0002096 4744.98877 4758.19141
4730.0 0.0002114 4744.78369 4756.01367
4775.0 0.0002094 4744.57715 4754.38037
4817.0 0.0002076 4744.36963 4753.31445
4827.0 0.0002072 4744.16064 4752.55859
4767.0 0.0002098 4743.95020 4752.01563
4711.0 0.0002123 4743.73926 4751.05957
4662.0 0.0002145 4743.52637 4750.80469
4800.0 0.0002083 4743.31250 4750.65234
4754.0 0.0002103 4743.09717 4750.59424
4706.0 0.0002125 4742.88086 4750.63525
4803.0 0.0002082 4742.66309 4750.77979
4594.0 0.0002177 4742.44385 4751.04395
4754.0 0.0002103 4742.22412 4751.45166
4772.0 0.0002096 4742.00244 4752.04150
4835.0 0.0002068 4741.77979 4752.87695
4832.0 0.0002070 4741.55615 4754.08301
4653.0 0.0002149 4741.33057 4755.89844
4812.0 0.0002078 4741.10449 4758.77734
4628.0 0.0002161 4740.87695 4763.50537
4817.0 0.0002076 4740.64795 4771.23486
4702.0 0.0002127 4740.41797 4783.32227
4763.0 0.0002100 4740.18701 4800.83447
4789.0 0.0002088 4739.95459 4823.72363
4812.0 0.0002078 4739.72070 4849.56592
5012.0 0.0001995 4739.48633 4871.83252
4950.0 0.0002020 4739.25000 4880.82764
4837.0 0.0002067 4739.01318 4872.56250
4819.0 0.0002075 4738.77490 4853.87939
4822.0 0.0002074 4738.53516 4833.30029
4690.0 0.0002132 4738.29492 4814.43799
4862.0 0.0002057 4738.05322 4797.77734
4751.0 0.0002105 4737.81006 4783.79688
4702.0 0.0002127 4737.56592 4773.02637
4721.0 0.0002118 4737.32080 4765.29297
4760.0 0.0002101 4737.07471 4759.99463
4810.0 0.0002079 4736.82764 4756.48682
4722.0 0.0002118 4736.57910 4754.22754
4850.0 0.0002062 4736.32959 4752.80371
4711.0 0.0002123 4736.07861 4751.92969
4767.0 0.0002098 4735.82715 4751.42627
4652.0 0.0002150 4735.57422 4751.19287
4808.0 0.0002080 4735.32031 4751.17627
4750.0 0.0002105 4735.06543 4751.35400
4713.0 0.0002122 4734.80957 4751.71484
4686.0 0.0002134 4734.55273 4752.26123
4725.0 0.0002116 4734.29492 4753.00439
4674.0 0.0002139 4734.03564 4753.95947
4786.0 0.0002089 4733.77588 4755.15527
4693.0 0.0002131 4733.51465 4756.62646
4718.0 0.0002120 4733.25293 4758.42188
4800.0 0.0002083 4732.98975 4760.60547
4771.0 0.0002096 4732.72607 4763.28223
4713.0 0.0002122 4732.46143 4766.54443
4833.0 0.0002069 4732.19531 4770.59033
4704.0 0.0002126 4731.92871 4775.68262
4749.0 0.0002106 4731.66113 4782.35791
4799.0 0.0002084 4731.39258 4790.88086
4780.0 0.0002092 4731.12354 4802.15820
4874.0 0.0002052 4730.85303 4817.41553
4903.0 0.0002040 4730.58203 4838.22070
4882.0 0.0002048 4730.31006 4867.79639
5001.0 0.0002000 4730.03711 4911.48828
4900.0 0.0002041 4729.76367 4978.29834
5081.0 0.0001968 4729.48926 5081.47217
5146.0 0.0001943 4729.21387 5234.25000
5218.0 0.0001916 4728.93750 5441.00537
5632.0 0.0001776 4728.66064 5685.76660
5868.0 0.0001704 4728.38330 5915.84717
5905.0 0.0001693 4728.10498 6036.04346
5739.0 0.0001742 4727.82568 5973.27490
5686.0 0.0001759 4727.54590 5766.36230
5482.0 0.0001824 4727.26514 5514.66748
5183.0 0.0001929 4726.98389 5287.19629
5104.0 0.0001959 4726.70215 5110.78467
4929.0 0.0002029 4726.41943 4987.56250
4874.0 0.0002052 4726.13623 4907.75439
4869.0 0.0002054 4725.85205 4858.13477
4816.0 0.0002076 4725.56738 4827.21680
4820.0 0.0002075 4725.28271 4807.02637
4898.0 0.0002042 4724.99658 4792.88379
4764.0 0.0002099 4724.71045 4782.30762
4695.0 0.0002130 4724.42334 4774.02002
4862.0 0.0002057 4724.13574 4767.32568
4718.0 0.0002120 4723.84766 4761.81250
4781.0 0.0002092 4723.55908 4757.20410
4818.0 0.0002076 4723.27002 4753.30615
4667.0 0.0002143 4722.98047 4749.97363
4738.0 0.0002111 4722.69043 4747.09619
4895.0 0.0002043 4722.39990 4744.58838
4810.0 0.0002079 4722.10889 4742.38428
4838.0 0.0002067 4721.81738 4740.43506
4650.0 0.0002151 4721.52588 4738.69580
4679.0 0.0002137 4721.23340 4737.13525
4736.0 0.0002111 4720.94092 4735.72705
4747.0 0.0002107 4720.64795 4734.62939
4773.0 0.0002095 4720.35449 4733.46777
4770.0 0.0002096 4720.06055 4732.40283
4688.0 0.0002133 4719.76660 4731.42334
4795.0 0.0002086 4719.47217 4730.51904
4700.0 0.0002128 4719.17773 4729.67969
4877.0 0.0002050 4718.88281 4728.90137
4702.0 0.0002127 4718.58740 4728.17578
4697.0 0.0002129 4718.29199 4727.49902
4759.0 0.0002101 4717.99658 4726.86523
4869.0 0.0002054 4717.70020 4726.27441
4685.0 0.0002134 4717.40430 4725.72021
4660.0 0.0002146 4717.10840 4725.20215
4827.0 0.0002072 4716.81152 4724.71826
4774.0 0.0002095 4716.51514 4724.14990
4646.0 0.0002152 4716.21826 4723.73486
4704.0 0.0002126 4715.92188 4723.35205
4800.0 0.0002083 4715.62500 4723.00146
4765.0 0.0002099 4715.32813 4722.66504
4884.0 0.0002048 4715.03076 4722.38525
4703.0 0.0002126 4714.73389 4722.14209
4598.0 0.0002175 4714.43652 4722.83594
4646.0 0.0002152 4714.13965 4722.69824
4795.0 0.0002086 4713.84277 4722.61035
4819.0 0.0002075 4713.54541 4722.58105
4962.0 0.0002015 4713.24854 4722.61963
4720.0 0.0002119 4712.95117 4722.73730
4723.0 0.0002117 4712.65479 4722.95020
4700.0 0.0002128 4712.35791 4723.27930
4641.0 0.0002155 4712.06104 4723.75293
4814.0 0.0002077 4711.76465 4724.41455
4784.0 0.0002090 4711.46826 4725.32959
4758.0 0.0002102 4711.17188 4726.60645
4674.0 0.0002139 4710.87598 4728.41748
4667.0 0.0002143 4710.58008 4731.04102
4785.0 0.0002090 4710.28418 4734.89893
4766.0 0.0002098 4709.98877 4740.62402
4703.0 0.0002126 4709.69385 4749.11523
4724.0 0.0002117 4709.39893 4761.52881
4734.0 0.0002112 4709.10449 4779.04932
4720.0 0.0002119 4708.81006 4802.58252
4760.0 0.0002101 4708.51611 4832.88428
4877.0 0.0002050 4708.22217 4869.84375
4824.0 0.0002073 4707.92920 4909.25098
4982.0 0.0002007 4707.63623 4940.67822
5000.0 0.0002000 4707.34375 4953.67236
4977.0 0.0002009 4707.05127 4945.99805
4952.0 0.0002019 4706.75977 4919.78223
4806.0 0.0002081 4706.46826 4880.56885
4768.0 0.0002097 4706.17773 4838.66211
4722.0 0.0002118 4705.88721 4802.27783
4692.0 0.0002131 4705.59717 4774.49170
4811.0 0.0002079 4705.30811 4754.97168
4650.0 0.0002151 4705.01953 4742.01855
4761.0 0.0002100 4704.73096 4733.66602
4758.0 0.0002102 4704.44336 4728.24512
4703.0 0.0002126 4704.15625 4724.58496
4771.0 0.0002096 4703.86963 4720.72998
4806.0 0.0002081 4703.58350 4718.78711
4742.0 0.0002109 4703.29834 4717.27393
4648.0 0.0002151 4703.01367 4716.07275
4731.0 0.0002114 4702.72949 4715.11426
4699.0 0.0002128 4702.44629 4714.35693
4696.0 0.0002129 4702.16357 4713.77051
4646.0 0.0002152 4701.88184 4713.33887
4839.0 0.0002067 4701.60059 4713.05225
4744.0 0.0002108 4701.31982 4712.91016
4622.0 0.0002164 4701.04004 4712.91602
4554.0 0.0002196 4700.76123 4713.08398
4797.0 0.0002085 4700.48340 4713.43750
4731.0 0.0002114 4700.20557 4714.01318
4786.0 0.0002089 4699.92920 4714.87402
4715.0 0.0002121 4699.65332 4716.13037
4737.0 0.0002111 4699.37842 4717.99414
4568.0 0.0002189 4699.10449 4720.87012
4769.0 0.0002097 4698.83154 4725.49561
4770.0 0.0002096 4698.55908 4733.06445
4757.0 0.0002102 4698.28809 4745.20020
4739.0 0.0002110 4698.01758 4763.62354
4892.0 0.0002044 4697.74805 4789.37549
4954.0 0.0002019 4697.47949 4821.62744
4734.0 0.0002112 4697.21191 4855.82666
4851.0 0.0002061 4696.94580 4881.55908
4751.0 0.0002105 4696.68018 4885.71973
4736.0 0.0002111 4696.41553 4865.65967
4792.0 0.0002087 4696.15186 4832.71533
4804.0 0.0002082 4695.88965 4799.10254
4813.0 0.0002078 4695.62793 4771.10010
4775.0 0.0002094 4695.36768 4750.48047
4838.0 0.0002067 4695.10840 4736.63428
4666.0 0.0002143 4694.85010 4727.96094
4778.0 0.0002093 4694.59326 4722.75000
4697.0 0.0002129 4694.33740 4719.66455
4665.0 0.0002144 4694.08252 4717.84326
4715.0 0.0002121 4693.82910 4716.80176
4713.0 0.0002122 4693.57666 4716.29639
4752.0 0.0002104 4693.32520 4716.20947
4757.0 0.0002102 4693.07520 4716.48682
4740.0 0.0002110 4692.82617 4717.11035
4792.0 0.0002087 4692.57861 4718.08252
4675.0 0.0002139 4692.33203 4719.42725
4624.0 0.0002163 4692.08691 4721.18359
4817.0 0.0002076 4691.84277 4723.41260
4778.0 0.0002093 4691.60010 4726.20166
4781.0 0.0002092 4691.35889 4729.66699
4694.0 0.0002130 4691.11865 4733.97314
4656.0 0.0002148 4690.87939 4739.34619
4852.0 0.0002061 4690.64209 4746.12451
4754.0 0.0002103 4690.40576 4754.84668
4759.0 0.0002101 4690.17090 4766.47754
4810.0 0.0002079 4689.93750 4782.84180
4887.0 0.0002046 4689.70508 4807.38184
4878.0 0.0002050 4689.47412 4846.10449
4866.0 0.0002055 4689.24463 4908.19922
4952.0 0.0002019 4689.01660 5005.26270
5263.0 0.0001900 4688.79004 5148.07422
5308.0 0.0001884 4688.56445 5340.55225
5504.0 0.0001817 4688.34082 5570.47559
5645.0 0.0001771 4688.11816 5795.06201
5773.0 0.0001732 4687.89697 5931.46973
5876.0 0.0001702 4687.67725 5902.93848
5574.0 0.0001794 4687.45947 5727.14697
5559.0 0.0001799 4687.24268 5493.05566
5161.0 0.0001938 4687.02734 5271.70459
4957.0 0.0002017 4686.81348 5094.24707
5023.0 0.0001991 4686.60107 4966.44971
4887.0 0.0002046 4686.39014 4881.32813
4824.0 0.0002073 4686.18066 4827.18604
4733.0 0.0002113 4685.97314 4793.26953
4776.0 0.0002094 4685.76660 4771.26758
4734.0 0.0002112 4685.56201 4755.97559
4863.0 0.0002056 4685.35840 4744.80273
4749.0 0.0002106 4685.15674 4736.14502
4726.0 0.0002116 4684.95654 4729.20605
4686.0 0.0002134 4684.75781 4723.52344
4775.0 0.0002094 4684.56055 4718.79688
4765.0 0.0002099 4684.36475 4714.81787
4659.0 0.0002146 4684.17090 4711.43066
4741.0 0.0002109 4683.97852 4708.52197
4706.0 0.0002125 4683.78760 4706.00049
4712.0 0.0002122 4683.59814 4703.79688
4773.0 0.0002095 4683.41016 4701.85791
4718.0 0.0002120 4683.22412 4700.13916
4653.0 0.0002149 4683.03955 4698.60693
4679.0 0.0002137 4682.85645 4697.23096
4800.0 0.0002083 4682.67480 4695.99023
4842.0 0.0002065 4682.49512 4694.86426
4776.0 0.0002094 4682.31689 4693.83887
4678.0 0.0002138 4682.14014 4692.89990
4638.0 0.0002156 4681.96484 4692.03760
4643.0 0.0002154 4681.79150 4691.24023
4658.0 0.0002147 4681.61963 4690.50195
4685.0 0.0002134 4681.44971 4689.81592
4785.0 0.0002090 4681.28076 4689.17627
4724.0 0.0002117 4681.11377 4688.57764
4598.0 0.0002175 4680.94873 4688.01563
4651.0 0.0002150 4680.78467 4688.41699
4694.0 0.0002130 4680.62256 4687.93750
4654.0 0.0002149 4680.46191 4687.48584
4722.0 0.0002118 4680.30322 4687.05957
4696.0 0.0002129 4680.14600 4686.65576
4567.0 0.0002190 4679.99023 4686.27490
4695.0 0.0002130 4679.83643 4685.98535
4715.0 0.0002121 4679.68408 4685.64209
4637.0 0.0002157 4679.53320 4685.31689
4726.0 0.0002116 4679.38379 4685.00635
4647.0 0.0002152 4679.23633 4684.53223
4582.0 0.0002182 4679.09082 4684.25439
4638.0 0.0002156 4678.94629 4683.99023
4725.0 0.0002116 4678.80371 4683.73682
4680.0 0.0002137 4678.66260 4683.49512
4634.0 0.0002158 4678.52295 4683.26514
4740.0 0.0002110 4678.38525 4683.04541
4718.0 0.0002120 4678.24902 4682.83496
4709.0 0.0002124 4678.11426 4682.63428
4664.0 0.0002144 4677.98145 4682.44189
4652.0 0.0002150 4677.85010 4682.25928
4647.0 0.0002152 4677.72021 4682.08447
4748.0 0.0002106 4677.59180 4681.91895
4764.0 0.0002099 4677.46533 4681.76074
4715.0 0.0002121 4677.34033 4681.61084
4866.0 0.0002055 4677.21680 4681.46924
4649.0 0.0002151 4677.09473 4681.33545
4700.0 0.0002128 4676.97461 4681.20850
4734.0 0.0002112 4676.85596 4681.09033
4709.0 0.0002124 4676.73877 4680.97998
4731.0 0.0002114 4676.62305 4680.87793
4701.0 0.0002127 4676.50879 4680.78320
4679.0 0.0002137 4676.39648 4680.69580
4680.0 0.0002137 4676.28516 4680.61914
4750.0 0.0002105 4676.17578 4680.54980
4669.0 0.0002142 4676.06787 4680.48877
4714.0 0.0002121 4675.96143 4680.43896
4660.0 0.0002146 4675.85645 4680.39746
4708.0 0.0002124 4675.75293 4680.36670
4647.0 0.0002152 4675.65137 4680.34668
4723.0 0.0002117 4675.55078 4680.33887
4772.0 0.0002096 4675.45166 4680.34375
4729.0 0.0002115 4675.35449 4680.36279
4674.0 0.0002139 4675.25830 4680.39697
4803.0 0.0002082 4675.16357 4680.44727
4784.0 0.0002090 4675.07080 4680.51758
4723.0 0.0002117 4674.97900 4680.60938
4778.0 0.0002093 4674.88867 4680.72607
4770.0 0.0002096 4674.79980 4680.87158
4725.0 0.0002116 4674.71240 4681.05127
4736.0 0.0002111 4674.62646 4681.27246
4595.0 0.0002176 4674.54199 4681.54590
4822.0 0.0002074 4674.45850 4681.89014
4724.0 0.0002117 4674.37695 4682.33447
4815.0 0.0002077 4674.29639 4682.93311
4643.0 0.0002154 4674.21729 4683.78125
4704.0 0.0002126 4674.13916 4685.02490
4644.0 0.0002153 4674.06250 4686.85986
4680.0 0.0002137 4673.98779 4689.50928
4833.0 0.0002069 4673.91357 4693.15332
4773.0 0.0002095 4673.84131 4697.82031
4696.0 0.0002129 4673.76953 4702.27637
4802.0 0.0002082 4673.69971 4707.43701
4664.0 0.0002144 4673.63086 4711.18311
4739.0 0.0002110 4673.56348 4713.87891
4739.0 0.0002110 4673.49707 4714.99707
4685.0 0.0002134 4673.43164 4715.15186
4685.0 0.0002134 4673.36816 4713.40039
4563.0 0.0002192 4673.30518 4709.51904
4698.0 0.0002129 4673.24365 4704.73145
4754.0 0.0002103 4673.18311 4700.36768
4863.0 0.0002056 4673.12402 4697.06689
4683.0 0.0002135 4673.06592 4694.95166
4702.0 0.0002127 4673.00879 4693.89893
4614.0 0.0002167 4672.95313 4693.69727
4631.0 0.0002159 4672.89844 4694.13965
4654.0 0.0002149 4672.84473 4695.07178
4681.0 0.0002136 4672.79199 4696.40674
4824.0 0.0002073 4672.74023 4698.69238
4684.0 0.0002135 4672.68945 4700.79980
4671.0 0.0002141 4672.64014 4703.34131
4696.0 0.0002129 4672.59131 4706.39160
4763.0 0.0002100 4672.54395 4710.05273
4825.0 0.0002073 4672.49707 4714.46973
4739.0 0.0002110 4672.45166 4719.83691
4680.0 0.0002137 4672.40674 4726.43799
4764.0 0.0002099 4672.36279 4734.70264
4849.0 0.0002062 4672.31982 4745.36084
4765.0 0.0002099 4672.27783 4759.74707
4772.0 0.0002096 4672.23633 4780.35303
4768.0 0.0002097 4672.19629 4811.61816
4849.0 0.0002062 4672.15674 4860.67139
4769.0 0.0002097 4672.11768 4937.29932
5068.0 0.0001973 4672.08008 5052.19238
4980.0 0.0002008 4672.04297 5212.87744
5206.0 0.0001921 4672.00635 5417.14990
5563.0 0.0001798 4671.97070 5642.76123
5729.0 0.0001746 4671.93555 5833.25000
5854.0 0.0001708 4671.90137 5905.13428
5770.0 0.0001733 4671.86768 5819.04297
5669.0 0.0001764 4671.83496 5630.03174
5381.0 0.0001858 4671.80273 5421.13037
5252.0 0.0001904 4671.77100 5241.79980
5022.0 0.0001991 4671.73975 5107.26758
5212.0 0.0001919 4671.70947 5011.85791
4995.0 0.0002002 4671.67969 4941.14600
4990.0 0.0002004 4671.65039 4884.51123
4843.0 0.0002065 4671.62158 4838.72510
4825.0 0.0002073 4671.59326 4802.81250
4880.0 0.0002049 4671.56543 4775.46436
4826.0 0.0002072 4671.53809 4755.14502
4669.0 0.0002142 4671.51123 4740.31250
4719.0 0.0002119 4671.48486 4729.54883
4782.0 0.0002091 4671.45850 4721.58838
4630.0 0.0002160 4671.43311 4715.54346
4762.0 0.0002100 4671.40771 4710.79932
4654.0 0.0002149 4671.38281 4706.96973
4754.0 0.0002103 4671.35791 4703.81445
4647.0 0.0002152 4671.33350 4701.18018
4661.0 0.0002145 4671.30957 4698.96240
4700.0 0.0002128 4671.28613 4697.08594
4856.0 0.0002059 4671.26221 4695.49463
4769.0 0.0002097 4671.23926 4694.14160
4666.0 0.0002143 4671.21582 4692.99561
4689.0 0.0002133 4671.19287 4692.02637
4633.0 0.0002158 4671.17041 4691.21338
4683.0 0.0002135 4671.14746 4690.54004
4659.0 0.0002146 4671.12500 4689.99072
4828.0 0.0002071 4671.10254 4689.55664
4605.0 0.0002172 4671.08008 4689.22754
4634.0 0.0002158 4671.05811 4689.00098
4687.0 0.0002134 4671.03564 4688.86914
4701.0 0.0002127 4671.01318 4688.83203
4694.0 0.0002130 4670.99121 4688.88818
4657.0 0.0002147 4670.96875 4689.14795
4640.0 0.0002155 4670.94629 4689.39990
4699.0 0.0002128 4670.92383 4689.75635
4676.0 0.0002139 4670.90137 4690.22168
4632.0 0.0002159 4670.87842 4690.80859
4641.0 0.0002155 4670.85547 4691.52686
4627.0 0.0002161 4670.83252 4692.39209
4612.0 0.0002168 4670.80908 4693.42676
4677.0 0.0002138 4670.78564 4694.65283
4680.0 0.0002137 4670.76221 4696.10596
4622.0 0.0002164 4670.73828 4698.69092
4675.0 0.0002139 4670.71387 4700.74268
4773.0 0.0002095 4670.68945 4703.17627
4649.0 0.0002151 4670.66455 4706.07959
4672.0 0.0002140 4670.63916 4709.56689
4746.0 0.0002107 4670.61377 4713.79736
4760.0 0.0002101 4670.58789 4718.99805
4664.0 0.0002144 4670.56152 4725.53906
4683.0 0.0002135 4670.53467 4734.06055
4776.0 0.0002094 4670.50732 4745.73828
4837.0 0.0002067 4670.47949 4762.71289
4852.0 0.0002061 4670.45117 4788.58984
4900.0 0.0002041 4670.42236 4828.72656
4981.0 0.0002008 4670.39258 4889.75488
4964.0 0.0002015 4670.36279 4977.83643
5160.0 0.0001938 4670.33203 5095.46045
5231.0 0.0001912 4670.30127 5236.48242
5329.0 0.0001877 4670.26904 5378.16406
5473.0 0.0001827 4670.23682 5474.56543
5505.0 0.0001817 4670.20361 5477.47656
5414.0 0.0001847 4670.16943 5388.04150
5203.0 0.0001922 4670.13477 5255.80420
5067.0 0.0001974 4670.09961 5127.41162
4926.0 0.0002030 4670.06348 5027.01318
4945.0 0.0002022 4670.02637 4963.73047
4911.0 0.0002036 4669.98877 4939.79102
4913.0 0.0002035 4669.95020 4955.03027
5097.0 0.0001962 4669.91064 5008.54297
5076.0 0.0001970 4669.87012 5097.52881
5268.0 0.0001898 4669.82910 5213.32275
5336.0 0.0001874 4669.78662 5333.98242
5441.0 0.0001838 4669.74365 5417.19629
5367.0 0.0001863 4669.69922 5416.86719
5333.0 0.0001875 4669.65430 5329.98535
5018.0 0.0001993 4669.60840 5199.90967
5163.0 0.0001937 4669.56104 5069.38477
5018.0 0.0001993 4669.51270 4959.92529
4833.0 0.0002069 4669.46338 4877.56836
4825.0 0.0002073 4669.41309 4820.24463
4873.0 0.0002052 4669.36133 4782.38428
4877.0 0.0002050 4669.30859 4757.89453
4713.0 0.0002122 4669.25488 4741.80078
4755.0 0.0002103 4669.19971 4730.72510
4751.0 0.0002105 4669.14355 4722.65186
4739.0 0.0002110 4669.08594 4716.46729
4758.0 0.0002102 4669.02734 4711.56836
4626.0 0.0002162 4668.96729 4707.61328
4730.0 0.0002114 4668.90576 4704.38916
4670.0 0.0002141 4668.84326 4701.76123
4746.0 0.0002107 4668.77930 4699.64160
4753.0 0.0002104 4668.71387 4697.98730
4731.0 0.0002114 4668.64697 4696.79932
4655.0 0.0002148 4668.57910 4695.21045
4731.0 0.0002114 4668.50977 4695.19727
4670.0 0.0002141 4668.43848 4695.95752
4544.0 0.0002201 4668.36621 4697.61182
4764.0 0.0002099 4668.29248 4700.19287
4692.0 0.0002131 4668.21729 4703.50537
4739.0 0.0002110 4668.14014 4706.95508
4543.0 0.0002201 4668.06201 4709.43311
4684.0 0.0002135 4667.98193 4710.42627
4786.0 0.0002089 4667.90039 4710.54053
4742.0 0.0002109 4667.81738 4711.16602
4755.0 0.0002103 4667.73242 4713.06201
4730.0 0.0002114 4667.64648 4715.90625
4619.0 0.0002165 4667.55811 4718.27490
4694.0 0.0002130 4667.46875 4717.93018
4745.0 0.0002107 4667.37744 4714.36035
4700.0 0.0002128 4667.28418 4709.05371
4697.0 0.0002129 4667.18945 4703.78223
4753.0 0.0002104 4667.09326 4699.50928
4582.0 0.0002182 4666.99512 4696.53760
4649.0 0.0002151 4666.89502 4694.88965
4529.0 0.0002208 4666.79346 4694.31250
4505.0 0.0002220 4666.68945 4694.49268
4632.0 0.0002159 4666.58447 4695.33398
4584.0 0.0002182 4666.47705 4696.74658
4737.0 0.0002111 4666.36816 4698.73438
4652.0 0.0002150 4666.25732 4701.39844
4661.0 0.0002145 4666.14404 4704.97461
4702.0 0.0002127 4666.02979 4709.89551
4616.0 0.0002166 4665.91309 4716.86572
4796.0 0.0002085 4665.79443 4726.89600
4798.0 0.0002084 4665.67383 4741.19922
4684.0 0.0002135 4665.55127 4760.88574
4895.0 0.0002043 4665.42676 4786.44629
4809.0 0.0002079 4665.30029 4816.94287
4757.0 0.0002102 4665.17188 4848.77441
4814.0 0.0002077 4665.04150 4875.08350
4927.0 0.0002030 4664.90918 4890.48145
4929.0 0.0002029 4664.77441 4899.85156
4927.0 0.0002030 4664.63818 4917.33789
4957.0 0.0002017 4664.49902 4957.99609
5016.0 0.0001994 4664.35840 5033.94092
4990.0 0.0002004 4664.21582 5152.56543
5243.0 0.0001907 4664.07080 5312.82617
5379.0 0.0001859 4663.92334 5498.24219
5633.0 0.0001775 4663.77441 5665.71631
5691.0 0.0001757 4663.62256 5745.59521
5621.0 0.0001779 4663.46924 5690.74951
5622.0 0.0001779 4663.31348 5531.62939
5426.0 0.0001843 4663.15527 5338.14502
5181.0 0.0001930 4662.99512 5159.68994
5023.0 0.0001991 4662.83301 5016.76855
4900.0 0.0002041 4662.66797 4912.53906
4816.0 0.0002076 4662.50146 4841.52490
4805.0 0.0002081 4662.33203 4795.15283
4703.0 0.0002126 4662.16064 4765.16699
4729.0 0.0002115 4661.98730 4745.23340
4726.0 0.0002116 4661.81152 4731.27686
4766.0 0.0002098 4661.63281 4720.92285
4793.0 0.0002086 4661.45264 4712.85742
4767.0 0.0002098 4661.27002 4706.36572
4708.0 0.0002124 4661.08447 4701.02295
4687.0 0.0002134 4660.89697 4696.55762
4769.0 0.0002097 4660.70752 4692.78027
4674.0 0.0002139 4660.51514 4689.55176
4683.0 0.0002135 4660.32080 4686.15674
4712.0 0.0002122 4660.12402 4683.74658
4670.0 0.0002141 4659.92480 4681.63477
4791.0 0.0002087 4659.72314 4679.77197
4607.0 0.0002171 4659.51904 4678.11768
4660.0 0.0002146 4659.31250 4676.63916
4677.0 0.0002138 4659.10352 4675.31201
4690.0 0.0002132 4658.89258 4674.11523
4709.0 0.0002124 4658.67871 4673.02783
4676.0 0.0002139 4658.46289 4672.03955
4684.0 0.0002135 4658.24463 4671.13623
4584.0 0.0002182 4658.02344 4670.30713
4614.0 0.0002167 4657.80029 4669.54688
4762.0 0.0002100 4657.57422 4668.28027
4713.0 0.0002122 4657.34619 4667.64795
4632.0 0.0002159 4657.11523 4667.06494
4730.0 0.0002114 4656.88232 4666.52881
4665.0 0.0002144 4656.64648 4666.03711
4675.0 0.0002139 4656.40869 4665.78467
4690.0 0.0002132 4656.16797 4665.37939
4710.0 0.0002123 4655.92480 4665.01465
4570.0 0.0002188 4655.67969 4664.69043
4585.0 0.0002181 4655.43164 4664.40820
4778.0 0.0002093 4655.18115 4664.16895
4649.0 0.0002151 4654.92822 4663.97656
4628.0 0.0002161 4654.67236 4663.83496
4591.0 0.0002178 4654.41455 4663.74902
4764.0 0.0002099 4654.15430 4663.72852
4672.0 0.0002140 4653.89111 4663.78271
4642.0 0.0002154 4653.62598 4663.92725
4730.0 0.0002114 4653.35791 4664.18164
4768.0 0.0002097 4653.08740 4664.58008
4684.0 0.0002135 4652.81445 4665.17041
4713.0 0.0002122 4652.53906 4666.03711
4676.0 0.0002139 4652.26123 4667.29541
4771.0 0.0002096 4651.98047 4669.11133
4609.0 0.0002170 4651.69775 4671.69629
4739.0 0.0002110 4651.41211 4675.30664
4722.0 0.0002118 4651.12402 4680.23975
4561.0 0.0002193 4650.83350 4686.78662
4758.0 0.0002102 4650.54102 4695.12402
4685.0 0.0002134 4650.24512 4705.40186
4762.0 0.0002100 4649.94727 4718.14307
4718.0 0.0002120 4649.64697 4734.37256
4691.0 0.0002132 4649.34375 4754.33496
4858.0 0.0002058 4649.03857 4775.92285
4826.0 0.0002072 4648.73047 4793.83057
4835.0 0.0002068 4648.41992 4802.39941
4645.0 0.0002153 4648.10693 4802.62012
4819.0 0.0002075 4647.79199 4802.04102
4769.0 0.0002097 4647.47363 4807.27881
4765.0 0.0002099 4647.15332 4819.80518
4847.0 0.0002063 4646.83057 4835.18799
4813.0 0.0002078 4646.50537 4843.58350
4605.0 0.0002172 4646.17773 4835.46680
4803.0 0.0002082 4645.84717 4810.73828
4804.0 0.0002082 4645.51465 4778.11230
4838.0 0.0002067 4645.17969 4746.23340
4793.0 0.0002086 4644.84229 4719.54004
4813.0 0.0002078 4644.50195 4699.22900
4756.0 0.0002103 4644.15967 4684.78516
4715.0 0.0002121 4643.81494 4674.95313
4601.0 0.0002173 4643.46729 4668.36230
4777.0 0.0002093 4643.11768 4663.87109
4664.0 0.0002144 4642.76563 4660.68115
4595.0 0.0002176 4642.41113 4658.30713
4625.0 0.0002162 4642.05420 4656.47852
4685.0 0.0002134 4641.69482 4655.06836
4700.0 0.0002128 4641.33350 4654.02881
4543.0 0.0002201 4640.96924 4653.26514
4638.0 0.0002156 4640.60303 4653.03564
4584.0 0.0002182 4640.23389 4653.27588
4688.0 0.0002133 4639.86279 4653.99121
4691.0 0.0002132 4639.48975 4655.09033
4719.0 0.0002119 4639.11377 4656.29639
4621.0 0.0002164 4638.73584 4657.06787
4694.0 0.0002130 4638.35547 4656.86133
4665.0 0.0002144 4637.97266 4655.74512
4603.0 0.0002172 4637.58740 4654.41260
4703.0 0.0002126 4637.20020 4652.72510
4643.0 0.0002154 4636.81055 4652.94824
4608.0 0.0002170 4636.41895 4654.52881
4769.0 0.0002097 4636.02490 4657.47852
4583.0 0.0002182 4635.62842 4661.62744
4603.0 0.0002172 4635.22998 4666.24365
4594.0 0.0002177 4634.82910 4669.98975
4657.0 0.0002147 4634.42627 4671.60547
4629.0 0.0002160 4634.02100 4670.52197
4707.0 0.0002124 4633.61377 4666.96289
4653.0 0.0002149 4633.20410 4661.69434
4638.0 0.0002156 4632.79199 4656.00391
4643.0 0.0002154 4632.37842 4650.91748
4621.0 0.0002164 4631.96240 4646.86719
4641.0 0.0002155 4631.54395 4643.90088
4595.0 0.0002176 4631.12402 4641.83789
4693.0 0.0002131 4630.70166 4640.43359
4695.0 0.0002130 4630.27686 4639.52100
4725.0 0.0002116 4629.85059 4638.95313
4753.0 0.0002104 4629.42188 4638.63672
4725.0 0.0002116 4628.99121 4638.52832
4620.0 0.0002165 4628.55859 4638.61523
4702.0 0.0002127 4628.12354 4638.90869
4575.0 0.0002186 4627.68701 4639.43799
4638.0 0.0002156 4627.24854 4640.26465
4589.0 0.0002179 4626.80762 4641.48926
4724.0 0.0002117 4626.36475 4643.29492
4598.0 0.0002175 4625.92041 4646.00977
4676.0 0.0002139 4625.47363 4650.22949
4603.0 0.0002172 4625.02539 4656.90967
4722.0 0.0002118 4624.57471 4667.44824
4667.0 0.0002143 4624.12256 4683.52979
4643.0 0.0002154 4623.66846 4706.72803
4732.0 0.0002113 4623.21240 4737.73291
4761.0 0.0002100 4622.75439 4775.18066
4790.0 0.0002088 4622.29492 4813.71338
4989.0 0.0002004 4621.83350 4841.99805
4891.0 0.0002045 4621.36963 4846.50781
4795.0 0.0002086 4620.90479 4824.35059
4923.0 0.0002031 4620.43799 4786.85010
4782.0 0.0002091 4619.96924 4747.12500
4830.0 0.0002070 4619.49902 4712.52441
4785.0 0.0002090 4619.02686 4685.56152
4724.0 0.0002117 4618.55322 4666.10254
4695.0 0.0002130 4618.07764 4652.78467
4586.0 0.0002181 4617.60059 4643.89600
4606.0 0.0002171 4617.12158 4637.90869
4602.0 0.0002173 4616.64111 4633.70605
4628.0 0.0002161 4616.15918 4630.57617
4651.0 0.0002150 4615.67529 4628.10693
4641.0 0.0002155 4615.19043 4626.06689
4625.0 0.0002162 4614.70361 4624.33105
4802.0 0.0002082 4614.21533 4622.81689
4601.0 0.0002173 4613.72510 4621.47510
4635.0 0.0002157 4613.23389 4620.26855
4641.0 0.0002155 4612.74072 4619.17139
4583.0 0.0002182 4612.24658 4618.16309
4758.0 0.0002102 4611.75098 4617.22803
4630.0 0.0002160 4611.25342 4616.35059
4624.0 0.0002163 4610.75488 4615.52539
4607.0 0.0002171 4610.25488 4614.73145
4589.0 0.0002179 4609.75342 4613.98535
4631.0 0.0002159 4609.25049 4613.26855
4579.0 0.0002184 4608.74609 4612.58203
4622.0 0.0002164 4608.24072 4611.91699
4588.0 0.0002180 4607.73389 4611.27441
4686.0 0.0002134 4607.22559 4610.55469
4637.0 0.0002157 4606.71631 4609.94971
4673.0 0.0002140 4606.20557 4609.36182
4565.0 0.0002191 4605.69385 4608.78516
4587.0 0.0002180 4605.18066 4608.35596
4517.0 0.0002214 4604.66602 4607.81104
4588.0 0.0002180 4604.15088 4607.21289
4609.0 0.0002170 4603.63428 4606.61768
4592.0 0.0002178 4603.11621 4606.11719
4600.0 0.0002174 4602.59766 4605.62988
4653.0 0.0002149 4602.07715 4605.15820
4615.0 0.0002167 4601.55615 4604.70215
4614.0 0.0002167 4601.03369 4604.26318
4495.0 0.0002225 4600.51074 4603.84717
4607.0 0.0002171 4599.98633 4604.10645
4629.0 0.0002160 4599.46094 4603.75000
4633.0 0.0002158 4598.93506 4603.42480
4583.0 0.0002182 4598.40771 4603.24121
4644.0 0.0002153 4597.87939 4602.99756
4553.0 0.0002196 4597.35010 4602.80518
4534.0 0.0002206 4596.82031 4602.67773
4555.0 0.0002195 4596.28906 4602.63184
4560.0 0.0002193 4595.75781 4602.69482
4650.0 0.0002151 4595.22461 4602.90869
4567.0 0.0002190 4594.69141 4603.34766
4633.0 0.0002158 4594.15723 4604.13623
4536.0 0.0002205 4593.62207 4605.47852
4653.0 0.0002149 4593.08594 4607.67676
4515.0 0.0002215 4592.54932 4611.10742
4644.0 0.0002153 4592.01172 4616.17236
4585.0 0.0002181 4591.47363 4623.18457
4582.0 0.0002182 4590.93506 4632.15039
4474.0 0.0002235 4590.39551 4642.45313
4691.0 0.0002132 4589.85547 4652.38623
4639.0 0.0002156 4589.31445 4659.47168
4677.0 0.0002138 4588.77295 4662.72607
4751.0 0.0002105 4588.23096 4664.12891
4644.0 0.0002153 4587.68799 4666.20166
4653.0 0.0002149 4587.14502 4669.37061
4740.0 0.0002110 4586.60107 4671.53027
4556.0 0.0002195 4586.05713 4669.81982
4738.0 0.0002111 4585.51221 4664.26270
4797.0 0.0002085 4584.96680 4658.03369
4585.0 0.0002181 4584.42090 4654.00537
4749.0 0.0002106 4583.87451 4653.00488
4706.0 0.0002125 4583.32813 4653.69336
4568.0 0.0002189 4582.78076 4653.00977
4609.0 0.0002170 4582.23340 4648.08740
4713.0 0.0002122 4581.68555 4638.87012
4612.0 0.0002168 4581.13721 4627.77588
4624.0 0.0002163 4580.58887 4617.16455
4642.0 0.0002154 4580.03955 4608.23047
4622.0 0.0002164 4579.49023 4601.27588
4591.0 0.0002178 4578.94092 4596.13379
4586.0 0.0002181 4578.39111 4592.43311
4627.0 0.0002161 4577.84082 4589.76855
4608.0 0.0002170 4577.29053 4587.79199
4523.0 0.0002211 4576.74023 4586.25537
4468.0 0.0002238 4576.18896 4585.00000
4662.0 0.0002145 4575.63818 4583.93311
4543.0 0.0002201 4575.08691 4583.00049
4607.0 0.0002171 4574.53564 4582.16895
4694.0 0.0002130 4573.98438 4581.42334
4553.0 0.0002196 4573.43262 4580.75342
4612.0 0.0002168 4572.88086 4580.15674
4488.0 0.0002228 4572.32959 4579.63428
4628.0 0.0002161 4571.77783 4579.20166
4626.0 0.0002162 4571.22559 4578.88135
4564.0 0.0002191 4570.67383 4578.70117
4597.0 0.0002175 4570.12207 4578.49805
4477.0 0.0002234 4569.56982 4578.67627
4550.0 0.0002198 4569.01807 4579.02002
4660.0 0.0002146 4568.46631 4579.43701
4646.0 0.0002152 4567.91406 4579.72998
4472.0 0.0002236 4567.36279 4579.63379
4493.0 0.0002226 4566.81104 4579.04053
4506.0 0.0002219 4566.25928 4578.13330
4616.0 0.0002166 4565.70801 4577.18213
4501.0 0.0002222 4565.15625 4578.68945
4527.0 0.0002209 4564.60498 4578.10938
4563.0 0.0002192 4564.05371 4577.73975
4582.0 0.0002182 4563.50293 4577.57080
4530.0 0.0002208 4562.95215 4577.57666
4561.0 0.0002193 4562.40186 4577.73975
4554.0 0.0002196 4561.85156 4578.05127
4533.0 0.0002206 4561.30127 4579.48438
4547.0 0.0002199 4560.75146 4580.12695
4509.0 0.0002218 4560.20166 4580.95654
4611.0 0.0002169 4559.65234 4582.00635
4552.0 0.0002197 4559.10303 4583.32129
4485.0 0.0002230 4558.55420 4584.97070
4581.0 0.0002183 4558.00586 4587.05957
4710.0 0.0002123 4557.45752 4589.75732
4587.0 0.0002180 4556.90967 4593.35059
4586.0 0.0002181 4556.36230 4598.30664
4652.0 0.0002150 4555.81494 4605.34326
4549.0 0.0002198 4555.26807 4615.43262
4658.0 0.0002147 4554.72217 4629.69238
4637.0 0.0002157 4554.17578 4649.11133
4665.0 0.0002144 4553.63037 4674.10156
4783.0 0.0002091 4553.08496 4703.78027
4638.0 0.0002156 4552.54053 4734.84863
4725.0 0.0002116 4551.99609 4760.84570
4730.0 0.0002114 4551.45215 4775.64209
4822.0 0.0002074 4550.90869 4781.43848
4724.0 0.0002117 4550.36572 4789.50732
4827.0 0.0002072 4549.82324 4812.47705
4860.0 0.0002058 4549.28174 4859.71436
4891.0 0.0002045 4548.73975 4936.29785
5139.0 0.0001946 4548.19922 5041.49316
5246.0 0.0001906 4547.65869 5164.77148
5285.0 0.0001892 4547.11865 5279.42725
5321.0 0.0001879 4546.57959 5343.66455
5348.0 0.0001870 4546.04053 5328.68604
5186.0 0.0001928 4545.50244 5247.81299
5165.0 0.0001936 4544.96484 5135.56738
5047.0 0.0001981 4544.42773 5017.07715
4873.0 0.0002052 4543.89160 4907.39551
4830.0 0.0002070 4543.35547 4816.01660
4767.0 0.0002098 4542.82031 4746.08691
4666.0 0.0002143 4542.28564 4695.60352
4570.0 0.0002188 4541.75146 4660.41504
4683.0 0.0002135 4541.21826 4636.21484
4641.0 0.0002155 4540.68555 4619.44873
4656.0 0.0002148 4540.15381 4607.54248
4674.0 0.0002139 4539.62207 4598.77637
4591.0 0.0002178 4539.09131 4592.07080
4597.0 0.0002175 4538.56152 4586.76807
4665.0 0.0002144 4538.03174 4582.47461
4583.0 0.0002182 4537.50342 4578.93896
4637.0 0.0002157 4536.97510 4576.00000
4567.0 0.0002190 4536.44775 4573.54297
4665.0 0.0002144 4535.92139 4571.43994
4562.0 0.0002192 4535.39502 4569.71973
4539.0 0.0002203 4534.87012 4568.28809
4571.0 0.0002188 4534.34570 4567.11035
4561.0 0.0002193 4533.82178 4566.16016
4508.0 0.0002218 4533.29883 4565.41309
4617.0 0.0002166 4532.77637 4564.80566
4571.0 0.0002188 4532.25488 4564.42773
4631.0 0.0002159 4531.73389 4564.22314
4565.0 0.0002191 4531.21387 4564.18896
4529.0 0.0002208 4530.69434 4564.32373
4644.0 0.0002153 4530.17627 4564.62988
4512.0 0.0002216 4529.65820 4565.09277
4631.0 0.0002159 4529.14111 4565.74023
4650.0 0.0002151 4528.62451 4566.61084
4532.0 0.0002207 4528.10938 4567.69824
4566.0 0.0002190 4527.59424 4569.02197
4593.0 0.0002177 4527.08057 4570.60352
4594.0 0.0002177 4526.56738 4572.47656
4548.0 0.0002199 4526.05469 4574.67773
4629.0 0.0002160 4525.54297 4577.24951
4586.0 0.0002181 4525.03223 4580.33398
4594.0 0.0002177 4524.52197 4583.82617
4518.0 0.0002213 4524.01270 4587.89404
4656.0 0.0002148 4523.50439 4592.63525
4608.0 0.0002170 4522.99658 4598.17871
4639.0 0.0002156 4522.48975 4604.67676
4643.0 0.0002154 4521.98340 4612.33203
4625.0 0.0002162 4521.47803 4621.39551
4504.0 0.0002220 4520.97314 4632.20166
4675.0 0.0002139 4520.46924 4645.19434
4604.0 0.0002172 4519.96631 4661.00000
4734.0 0.0002112 4519.46436 4680.56543
4740.0 0.0002110 4518.96289 4705.43506
4808.0 0.0002080 4518.46240 4738.25586
4717.0 0.0002120 4517.96240 4783.61768
4832.0 0.0002070 4517.46338 4849.11475
4944.0 0.0002023 4516.96484 4946.26318
4971.0 0.0002012 4516.46729 5090.42725
5183.0 0.0001929 4515.97021 5298.77002
5495.0 0.0001820 4515.47461 5585.54395
5928.0 0.0001687 4514.97900 5954.47461
6277.0 0.0001593 4514.48486 6386.49414
6709.0 0.0001491 4513.99121 6819.68457
7062.0 0.0001416 4513.49805 7135.62207
7321.0 0.0001366 4513.00635 7214.79150
7121.0 0.0001404 4512.51465 7059.32080
6989.0 0.0001431 4512.02441 6795.12451
6705.0 0.0001491 4511.53418 6544.16016
6471.0 0.0001545 4511.04541 6356.03027
6297.0 0.0001588 4510.55713 6211.54150
6197.0 0.0001614 4510.06934 6052.57861
6016.0 0.0001662 4509.58252 5841.65332
5607.0 0.0001783 4509.09619 5598.29639
5426.0 0.0001843 4508.61084 5363.78076
5125.0 0.0001951 4508.12598 5163.68701
4934.0 0.0002027 4507.64209 5005.63770
4874.0 0.0002052 4507.15869 4887.43701
4896.0 0.0002042 4506.67627 4802.42188
4750.0 0.0002105 4506.19482 4742.52441
4653.0 0.0002149 4505.71338 4700.23584
4758.0 0.0002102 4505.23340 4670.62305
4620.0 0.0002165 4504.75342 4647.66016
4628.0 0.0002161 4504.27441 4629.71094
4626.0 0.0002162 4503.79590 4615.22607
4690.0 0.0002132 4503.31836 4603.28857
4541.0 0.0002202 4502.84131 4593.34766
4561.0 0.0002193 4502.36523 4585.05371
4650.0 0.0002151 4501.88965 4578.17676
4473.0 0.0002236 4501.41455 4572.39990
4530.0 0.0002208 4500.93994 4568.73682
4616.0 0.0002166 4500.46631 4564.99268
4598.0 0.0002175 4499.99316 4561.71094
4545.0 0.0002200 4499.52051 4558.41895
4636.0 0.0002157 4499.04883 4555.41748
4472.0 0.0002236 4498.57764 4551.70361
4694.0 0.0002130 4498.10693 4548.27637
4352.0 0.0002298 4497.63672 4545.44531
4558.0 0.0002194 4497.16748 4542.66504
4524.0 0.0002210 4496.69873 4541.25928
4579.0 0.0002184 4496.22998 4540.55859
4584.0 0.0002182 4495.76221 4540.43555
4588.0 0.0002180 4495.29492 4540.90625
4507.0 0.0002219 4494.82861 4541.38623
4576.0 0.0002185 4494.36230 4541.21240
4542.0 0.0002202 4493.89648 4539.66992
4515.0 0.0002215 4493.43164 4536.46631
4522.0 0.0002211 4492.96680 4532.15381
4604.0 0.0002172 4492.50293 4527.63428
4464.0 0.0002240 4492.03906 4523.50830
4373.0 0.0002287 4491.57617 4520.02148
4499.0 0.0002223 4491.11328 4517.19238
4512.0 0.0002216 4490.65088 4514.93750
4538.0 0.0002204 4490.18945 4513.13525
4479.0 0.0002233 4489.72803 4511.66260
4513.0 0.0002216 4489.26709 4510.42578
4418.0 0.0002263 4488.80664 4509.35400
4510.0 0.0002217 4488.34668 4508.40674
4551.0 0.0002197 4487.88672 4507.56006
4465.0 0.0002240 4487.42773 4506.79932
4486.0 0.0002229 4486.96875 4506.12158
4510.0 0.0002217 4486.51025 4505.53467
4432.0 0.0002256 4486.05225 4505.01660
4489.0 0.0002228 4485.59424 4504.58496
4419.0 0.0002263 4485.13721 4504.24854
4538.0 0.0002204 4484.67969 4504.02344
4513.0 0.0002216 4484.22314 4503.93066
4491.0 0.0002227 4483.76660 4504.00977
4443.0 0.0002251 4483.31055 4504.32959
4519.0 0.0002213 4482.85449 4505.00635
4443.0 0.0002251 4482.39893 4506.24072
4498.0 0.0002223 4481.94336 4508.35205
4536.0 0.0002205 4481.48828 4511.78906
4493.0 0.0002226 4481.03369 4517.09619
4476.0 0.0002234 4480.57910 4524.80859
4447.0 0.0002249 4480.12451 4535.23438
4548.0 0.0002199 4479.67041 4548.13379
4553.0 0.0002196 4479.21631 4562.19580
4608.0 0.0002170 4478.76270 4574.29199
4613.0 0.0002168 4478.30908 4579.73584
4590.0 0.0002179 4477.85547 4575.56250
4552.0 0.0002197 4477.40234 4563.78223
4708.0 0.0002124 4476.94922 4549.09814
4532.0 0.0002207 4476.49609 4535.07422
4511.0 0.0002217 4476.04297 4523.35986
4421.0 0.0002262 4475.59033 4514.37256
4602.0 0.0002173 4475.13770 4507.88672
4519.0 0.0002213 4474.68506 4503.40137
4480.0 0.0002232 4474.23242 4500.35986
4530.0 0.0002208 4473.78027 4498.49609
4490.0 0.0002227 4473.32764 4497.05371
4508.0 0.0002218 4472.87549 4496.01416
4463.0 0.0002241 4472.42285 4495.24707
4452.0 0.0002246 4471.97070 4494.67432
4464.0 0.0002240 4471.51855 4494.25439
4535.0 0.0002205 4471.06592 4493.96387
4449.0 0.0002248 4470.61377 4493.78857
4544.0 0.0002201 4470.16113 4493.71729
4530.0 0.0002208 4469.70898 4493.74512
4514.0 0.0002215 4469.25635 4493.86963
4531.0 0.0002207 4468.80420 4494.09180
4521.0 0.0002212 4468.35107 4494.41553
4574.0 0.0002186 4467.89844 4494.86719
4544.0 0.0002201 4467.44580 4493.06982
4536.0 0.0002205 4466.99316 4493.76953
4555.0 0.0002195 4466.54004 4494.59521
4459.0 0.0002243 4466.08691 4495.55811
4527.0 0.0002209 4465.63379 4496.67627
4511.0 0.0002217 4465.18018 4497.96387
4388.0 0.0002279 4464.72656 4498.47656
4468.0 0.0002238 4464.27295 4500.19336
4387.0 0.0002279 4463.81885 4502.15723
4493.0 0.0002226 4463.36475 4504.40381
4451.0 0.0002247 4462.91016 4506.97803
4573.0 0.0002187 4462.45605 4509.93213
4495.0 0.0002225 4462.00098 4513.33154
4582.0 0.0002182 4461.54590 4517.25830
4486.0 0.0002229 4461.09033 4521.81201
4522.0 0.0002211 4460.63525 4527.11670
4556.0 0.0002195 4460.17920 4533.33398
4408.0 0.0002269 4459.72314 4540.67432
4531.0 0.0002207 4459.26660 4549.42041
4618.0 0.0002165 4458.81006 4559.97607
4518.0 0.0002213 4458.35303 4572.96777
4717.0 0.0002120 4457.89551 4589.41943
4625.0 0.0002162 4457.43799 4611.06152
4648.0 0.0002151 4456.97998 4640.78955
4696.0 0.0002129 4456.52148 4683.14600
4689.0 0.0002133 4456.06299 4744.59863
4767.0 0.0002098 4455.60352 4833.15869
4872.0 0.0002053 4455.14404 4956.95850
4913.0 0.0002035 4454.68408 5121.54199
5273.0 0.0001896 4454.22412 5325.70264
5724.0 0.0001747 4453.76318 5554.51514
5794.0 0.0001726 4453.30176 5769.09717
5851.0 0.0001709 4452.84033 5905.52539
5921.0 0.0001689 4452.37842 5914.06885
5782.0 0.0001730 4451.91602 5814.97559
5554.0 0.0001801 4451.45264 5682.08838
5528.0 0.0001809 4450.98975 5583.22510
5567.0 0.0001796 4450.52539 5557.74268
5682.0 0.0001760 4450.06104 5621.42236
5657.0 0.0001768 4449.59619 5770.45898
5884.0 0.0001700 4449.13086 5977.58008
6073.0 0.0001647 4448.66504 6185.07568
6235.0 0.0001604 4448.19873 6318.11377
6384.0 0.0001566 4447.73145 6334.58154
6284.0 0.0001591 4447.26416 6245.17871
5932.0 0.0001686 4446.79590 6070.73975
5720.0 0.0001748 4446.32764 5830.37988
5682.0 0.0001760 4445.85840 5562.76611
5382.0 0.0001858 4445.38867 5311.66504
5258.0 0.0001902 4444.91846 5102.10986
4969.0 0.0002012 4444.44775 4939.91357
4900.0 0.0002041 4443.97607 4820.51074
4794.0 0.0002086 4443.50391 4735.41748
4613.0 0.0002168 4443.03125 4675.66895
4800.0 0.0002083 4442.55811 4633.51904
4595.0 0.0002176 4442.08398 4603.06641
4679.0 0.0002137 4441.60938 4580.26123
4627.0 0.0002161 4441.13428 4562.51611
4539.0 0.0002203 4440.65869 4548.24658
4672.0 0.0002140 4440.18213 4536.49414
4607.0 0.0002171 4439.70508 4526.66504
4513.0 0.0002216 4439.22754 4518.37451
4448.0 0.0002248 4438.74902 4511.37109
4564.0 0.0002191 4438.27002 4505.56543
4430.0 0.0002257 4437.79004 4500.70508
4522.0 0.0002211 4437.30957 4496.82031
4368.0 0.0002289 4436.82861 4494.05762
4500.0 0.0002222 4436.34668 4492.06445
4446.0 0.0002249 4435.86426 4490.99756
4544.0 0.0002201 4435.38135 4490.74316
4353.0 0.0002297 4434.89746 4490.94092
4445.0 0.0002250 4434.41260 4490.81885
4504.0 0.0002220 4433.92773 4489.38135
4512.0 0.0002216 4433.44141 4486.19482
4564.0 0.0002191 4432.95508 4481.73486
4531.0 0.0002207 4432.46729 4477.06104
4593.0 0.0002177 4431.97949 4472.63623
4487.0 0.0002229 4431.49023 4468.70264
4457.0 0.0002244 4431.00098 4465.37061
4398.0 0.0002274 4430.51074 4462.66699
4372.0 0.0002287 4430.01953 4460.54492
4434.0 0.0002255 4429.52783 4458.91943
4472.0 0.0002236 4429.03516 4457.71289
4425.0 0.0002260 4428.54199 4456.86182
4477.0 0.0002234 4428.04785 4456.33691
4382.0 0.0002282 4427.55322 4456.12988
4334.0 0.0002307 4427.05762 4456.26904
4587.0 0.0002180 4426.56104 4456.80859
4525.0 0.0002210 4426.06396 4457.85986
4383.0 0.0002282 4425.56641 4459.61865
4533.0 0.0002206 4425.06787 4462.42529
4610.0 0.0002169 4424.56885 4466.85986
4509.0 0.0002218 4424.06836 4473.81934
4602.0 0.0002173 4423.56787 4484.57471
4520.0 0.0002212 4423.06641 4500.66504
4511.0 0.0002217 4422.56396 4523.61768
4578.0 0.0002184 4422.06055 4554.41113
4510.0 0.0002217 4421.55713 4592.64209
4604.0 0.0002172 4421.05225 4635.14404
4639.0 0.0002156 4420.54736 4673.94385
4664.0 0.0002144 4420.04102 4696.00586
4715.0 0.0002121 4419.53418 4690.67139
4636.0 0.0002157 4419.02686 4660.47070
4674.0 0.0002139 4418.51807 4618.29883
4666.0 0.0002143 4418.00928 4575.93750
4580.0 0.0002183 4417.49951 4539.66064
4533.0 0.0002206 4416.98877 4511.68604
4454.0 0.0002245 4416.47754 4492.03516
4528.0 0.0002208 4415.96533 4479.65039
4445.0 0.0002250 4415.45264 4473.02783
4503.0 0.0002221 4414.93896 4470.55029
4510.0 0.0002217 4414.42480 4470.49707
4564.0 0.0002191 4413.90967 4470.83447
4569.0 0.0002189 4413.39404 4469.36182
4598.0 0.0002175 4412.87744 4464.88770
4339.0 0.0002305 4412.36035 4458.12354
4516.0 0.0002214 4411.84277 4450.67285
4390.0 0.0002278 4411.32373 4443.72021
4525.0 0.0002210 4410.80469 4437.79346
4372.0 0.0002287 4410.28467 4433.00488
4423.0 0.0002261 4409.76367 4429.25537
4388.0 0.0002279 4409.24219 4426.34131
4369.0 0.0002289 4408.72021 4424.05469
4381.0 0.0002283 4408.19727 4422.20313
4359.0 0.0002294 4407.67383 4420.64697
4468.0 0.0002238 4407.14990 4419.29150
4476.0 0.0002234 4406.62451 4418.07813
4362.0 0.0002293 4406.09912 4416.96826
4370.0 0.0002288 4405.57275 4416.19434
4482.0 0.0002231 4405.04639 4415.23438
4462.0 0.0002241 4404.51855 4414.32959
4388.0 0.0002279 4403.99023 4413.47021
4243.0 0.0002357 4403.46191 4412.65137
4392.0 0.0002277 4402.93213 4411.86816
4397.0 0.0002274 4402.40234 4411.65332
4360.0 0.0002294 4401.87158 4410.93799
4503.0 0.0002221 4401.34033 4410.24902
4332.0 0.0002308 4400.80811 4409.58691
4431.0 0.0002257 4400.27588 4408.94580
4436.0 0.0002254 4399.74268 4408.32617
4381.0 0.0002283 4399.20898 4407.72754
4387.0 0.0002279 4398.67480 4407.15137
4329.0 0.0002310 4398.13965 4406.59131
4496.0 0.0002224 4397.60449 4406.05518
4369.0 0.0002289 4397.06836 4405.53760
4371.0 0.0002288 4396.53174 4405.04102
4406.0 0.0002270 4395.99463 4404.56787
4301.0 0.0002325 4395.45703 4403.15283
4465.0 0.0002240 4394.91895 4402.74512
4395.0 0.0002275 4394.38037 4402.36475
4358.0 0.0002295 4393.84131 4402.01367
4443.0 0.0002251 4393.30176 4401.69678
4363.0 0.0002292 4392.76172 4401.41650
4381.0 0.0002283 4392.22070 4401.17822
4417.0 0.0002264 4391.68018 4400.98779
4463.0 0.0002241 4391.13818 4400.85449
4414.0 0.0002266 4390.59619 4399.85498
4381.0 0.0002283 4390.05420 4399.88574
4522.0 0.0002211 4389.51123 4400.01611
4384.0 0.0002281 4388.96777 4399.68164
4458.0 0.0002243 4388.42432 4400.11914
4355.0 0.0002296 4387.88037 4400.77490
4497.0 0.0002224 4387.33545 4401.71240
4530.0 0.0002208 4386.79102 4403.00439
4527.0 0.0002209 4386.24561 4404.71973
4382.0 0.0002282 4385.70020 4406.91797
4455.0 0.0002245 4385.15430 4409.63086
4355.0 0.0002296 4384.60791 4412.84180
4519.0 0.0002213 4384.06104 4416.54150
4462.0 0.0002241 4383.51416 4420.96436
4481.0 0.0002232 4382.96729 4426.90186
4413.0 0.0002266 4382.41943 4435.69287
4398.0 0.0002274 4381.87158 4448.94189
4468.0 0.0002238 4381.32373 4468.28418
4436.0 0.0002254 4380.77539 4495.07666
4524.0 0.0002210 4380.22705 4529.78369
4493.0 0.0002226 4379.67773 4570.93262
4464.0 0.0002240 4379.12891 4613.84424
4588.0 0.0002180 4378.57959 4650.69043
4583.0 0.0002182 4378.03027 4672.86182
4687.0 0.0002134 4377.48047 4673.25244
4643.0 0.0002154 4376.93066 4649.61865
4512.0 0.0002216 4376.38086 4608.75439
4580.0 0.0002183 4375.83057 4562.32227
4534.0 0.0002206 4375.28027 4519.15771
4504.0 0.0002220 4374.72998 4483.29932
4474.0 0.0002235 4374.17920 4455.57324
4390.0 0.0002278 4373.62842 4435.22314
4411.0 0.0002267 4373.07813 4420.77637
4391.0 0.0002277 4372.52686 4410.66162
4373.0 0.0002287 4371.97607 4403.51660
4347.0 0.0002300 4371.42529 4398.32275
4411.0 0.0002267 4370.87451 4394.38428
4366.0 0.0002290 4370.32324 4391.26855
4399.0 0.0002273 4369.77197 4388.71045
4328.0 0.0002311 4369.22119 4386.56982
4236.0 0.0002361 4368.66992 4384.71875
4367.0 0.0002290 4368.11914 4383.10742
4310.0 0.0002320 4367.56787 4381.69141
4335.0 0.0002307 4367.01709 4380.54492
4395.0 0.0002275 4366.46631 4379.42529
4331.0 0.0002309 4365.91553 4378.41943
4380.0 0.0002283 4365.36475 4377.51367
4396.0 0.0002275 4364.81396 4376.69434
4384.0 0.0002281 4364.26367 4375.95508
4344.0 0.0002302 4363.71338 4375.28516
4374.0 0.0002286 4363.16309 4374.68359
4348.0 0.0002300 4362.61279 4374.14404
4382.0 0.0002282 4362.06299 4373.66455
4386.0 0.0002280 4361.51318 4373.24365
4326.0 0.0002312 4360.96338 4372.88232
4321.0 0.0002314 4360.41406 4372.57959
4307.0 0.0002322 4359.86475 4372.34033
4401.0 0.0002272 4359.31592 4372.16553
4389.0 0.0002278 4358.76709 4372.05957
4400.0 0.0002273 4358.21875 4371.82227
4332.0 0.0002308 4357.67041 4371.87549
4342.0 0.0002303 4357.12256 4372.01904
4392.0 0.0002277 4356.57471 4372.26318
4465.0 0.0002240 4356.02734 4372.62061
4393.0 0.0002276 4355.48047 4373.10742
4386.0 0.0002280 4354.93359 4373.74365
4338.0 0.0002305 4354.38721 4374.55273
4473.0 0.0002236 4353.84131 4375.56299
4390.0 0.0002278 4353.29541 4376.81445
4281.0 0.0002336 4352.75049 4378.35059
4391.0 0.0002277 4352.20508 4380.23291
4465.0 0.0002240 4351.66064 4382.51611
4308.0 0.0002321 4351.11670 4385.36133
4472.0 0.0002236 4350.57275 4388.90674
4360.0 0.0002294 4350.02979 4393.41699
4350.0 0.0002299 4349.48682 4399.26514
4415.0 0.0002265 4348.94482 4407.11279
4512.0 0.0002216 4348.40283 4417.94092
4408.0 0.0002269 4347.86133 4433.14746
4426.0 0.0002259 4347.32031 4454.52295
4418.0 0.0002263 4346.77979 4484.08545
4468.0 0.0002238 4346.24023 4523.71484
4552.0 0.0002197 4345.70068 4574.62305
4624.0 0.0002163 4345.16162 4636.36377
4832.0 0.0002070 4344.62354 4705.10498
4785.0 0.0002090 4344.08594 4771.96191
4866.0 0.0002055 4343.54883 4826.34619
4904.0 0.0002039 4343.01221 4866.65967
4994.0 0.0002002 4342.47607 4904.01318
4972.0 0.0002011 4341.94092 4950.30615
4980.0 0.0002008 4341.40625 5005.67676
4907.0 0.0002038 4340.87207 5053.41846
5046.0 0.0001982 4340.33838 5064.50146
4949.0 0.0002021 4339.80566 5019.18115
4885.0 0.0002047 4339.27344 4927.40381
4861.0 0.0002057 4338.74170 4817.18799
4600.0 0.0002174 4338.21143 4711.46777
4638.0 0.0002156 4337.68115 4621.50439
4555.0 0.0002195 4337.15137 4550.50684
4516.0 0.0002214 4336.62256 4497.44287
4455.0 0.0002245 4336.09473 4459.29102
4323.0 0.0002313 4335.56738 4432.43164
4448.0 0.0002248 4335.04102 4413.52686
4532.0 0.0002207 4334.51514 4399.91357
4402.0 0.0002272 4333.98975 4389.74951
4336.0 0.0002306 4333.46582 4381.84131
4364.0 0.0002291 4332.94189 4375.45508
4472.0 0.0002236 4332.41943 4370.15137
4463.0 0.0002241 4331.89697 4365.65430
4413.0 0.0002266 4331.37598 4361.78320
4336.0 0.0002306 4330.85547 4358.41064
4310.0 0.0002320 4330.33594 4355.44385
4372.0 0.0002287 4329.81738 4352.97656
4336.0 0.0002306 4329.29932 4350.62402
4289.0 0.0002332 4328.78223 4348.50635
4309.0 0.0002321 4328.26563 4346.60742
4340.0 0.0002304 4327.75049 4344.85547
4354.0 0.0002297 4327.23584 4343.24854
4432.0 0.0002256 4326.72168 4341.76709
4395.0 0.0002275 4326.20898 4340.39502
4394.0 0.0002276 4325.69678 4339.11865
4351.0 0.0002298 4325.18604 4337.92578
4412.0 0.0002267 4324.67529 4336.80957
4340.0 0.0002304 4324.16602 4335.76123
4327.0 0.0002311 4323.65771 4334.77539
4329.0 0.0002310 4323.14990 4333.84668
4343.0 0.0002303 4322.64355 4332.96973
4377.0 0.0002285 4322.13770 4332.13477
4266.0 0.0002344 4321.63281 4331.35352
4434.0 0.0002255 4321.12891 4330.61621
4335.0 0.0002307 4320.62598 4329.92236
4299.0 0.0002326 4320.12354 4329.26953
4267.0 0.0002344 4319.62256 4328.66113
4375.0 0.0002286 4319.12207 4328.09570
4360.0 0.0002294 4318.62256 4327.57568
4275.0 0.0002339 4318.12451 4327.10596
4342.0 0.0002303 4317.62695 4326.60938
4244.0 0.0002356 4317.13037 4326.25146
4308.0 0.0002321 4316.63477 4325.78613
4326.0 0.0002312 4316.14014 4325.57520
4364.0 0.0002291 4315.64648 4325.45361
4373.0 0.0002287 4315.15381 4325.44189
4434.0 0.0002255 4314.66211 4325.56787
4443.0 0.0002251 4314.17139 4325.87207
4366.0 0.0002290 4313.68164 4326.42188
4261.0 0.0002347 4313.19238 4327.31299
4384.0 0.0002281 4312.70459 4328.70264
4497.0 0.0002224 4312.21729 4330.81738
4321.0 0.0002314 4311.73145 4333.98535
4465.0 0.0002240 4311.24609 4338.64453
4339.0 0.0002305 4310.76221 4345.32959
4366.0 0.0002290 4310.27930 4354.57813
4331.0 0.0002309 4309.79688 4366.75000
4403.0 0.0002271 4309.31592 4381.76123
4376.0 0.0002285 4308.83545 4398.96436
4456.0 0.0002244 4308.35596 4417.19189
4448.0 0.0002248 4307.87744 4434.18066
4590.0 0.0002179 4307.40039 4445.55908
4429.0 0.0002258 4306.92383 4446.17090
4474.0 0.0002235 4306.44824 4434.65820
4406.0 0.0002270 4305.97412 4415.22217
4352.0 0.0002298 4305.50000 4393.60840
4471.0 0.0002237 4305.02734 4373.64209
4403.0 0.0002271 4304.55566 4356.98291
4285.0 0.0002334 4304.08496 4343.97266
4351.0 0.0002298 4303.61475 4334.28320
4308.0 0.0002321 4303.14600 4327.28271
4314.0 0.0002318 4302.67773 4322.27832
4241.0 0.0002358 4302.21094 4318.66699
4249.0 0.0002353 4301.74463 4315.97803
4297.0 0.0002327 4301.27930 4313.89502
4333.0 0.0002308 4300.81494 4312.21777
4372.0 0.0002287 4300.35156 4310.82129
4288.0 0.0002332 4299.88916 4309.63770
4381.0 0.0002283 4299.42725 4308.62842
4312.0 0.0002319 4298.96631 4307.76758
4407.0 0.0002269 4298.50635 4307.05029
4387.0 0.0002279 4298.04736 4306.48340
4231.0 0.0002364 4297.58887 4306.08936
4348.0 0.0002300 4297.13184 4305.90674
4391.0 0.0002277 4296.67529 4305.99512
4343.0 0.0002303 4296.21924 4306.41797
4316.0 0.0002317 4295.76465 4307.24414
4289.0 0.0002332 4295.31055 4308.52246
4381.0 0.0002283 4294.85742 4310.27197
4201.0 0.0002380 4294.40527 4312.40430
4199.0 0.0002382 4293.95361 4314.61572
4382.0 0.0002282 4293.50293 4316.30078
4293.0 0.0002329 4293.05273 4316.75439
4299.0 0.0002326 4292.60352 4315.74365
4331.0 0.0002309 4292.15479 4313.75830
4259.0 0.0002348 4291.70752 4311.48633
4343.0 0.0002303 4291.26025 4309.33691
4228.0 0.0002365 4290.81396 4307.38965
4173.0 0.0002396 4290.36865 4305.53320
4199.0 0.0002382 4289.92383 4303.64990
4470.0 0.0002237 4289.47998 4301.77441
4332.0 0.0002308 4289.03613 4300.04248
4278.0 0.0002338 4288.59375 4298.55225
4330.0 0.0002309 4288.15137 4297.33545
4201.0 0.0002380 4287.71045 4296.12598
4328.0 0.0002311 4287.26953 4295.40771
4255.0 0.0002350 4286.82959 4294.89307
4246.0 0.0002355 4286.39014 4294.55322
4271.0 0.0002341 4285.95117 4294.37500
4274.0 0.0002340 4285.51318 4294.35205
4422.0 0.0002261 4285.07520 4293.96191
4330.0 0.0002309 4284.63818 4294.32861
4319.0 0.0002315 4284.20166 4294.96143
4305.0 0.0002323 4283.76563 4295.94141
4254.0 0.0002351 4283.33057 4297.36475
4390.0 0.0002278 4282.89551 4299.33057
4350.0 0.0002299 4282.46094 4301.92285
4306.0 0.0002322 4282.02686 4305.18311
4278.0 0.0002338 4281.59375 4309.06592
4403.0 0.0002271 4281.16064 4313.39063
4247.0 0.0002355 4280.72803 4317.90918
4340.0 0.0002304 4280.29590 4322.71338
4287.0 0.0002333 4279.86426 4328.70264
4399.0 0.0002273 4279.43311 4337.39551
4139.0 0.0002416 4279.00244 4350.30029
4363.0 0.0002292 4278.57178 4368.45898
4299.0 0.0002326 4278.14160 4392.09766
4454.0 0.0002245 4277.71191 4420.04736
4396.0 0.0002275 4277.28223 4448.71875
4485.0 0.0002230 4276.85352 4471.30127
4515.0 0.0002215 4276.42432 4479.85693
4545.0 0.0002200 4275.99609 4471.31250
4437.0 0.0002254 4275.56738 4449.96289
4468.0 0.0002238 4275.13965 4422.56348
4351.0 0.0002298 4274.71191 4394.13135
4428.0 0.0002258 4274.28418 4367.86035
4428.0 0.0002258 4273.85645 4345.61475
4315.0 0.0002317 4273.42920 4327.99023
4342.0 0.0002303 4273.00195 4314.66357
4360.0 0.0002294 4272.57520 4304.86523
4392.0 0.0002277 4272.14844 4297.74170
4355.0 0.0002296 4271.72168 4292.53027
4254.0 0.0002351 4271.29492 4288.63037
4367.0 0.0002290 4270.86816 4285.62012
4258.0 0.0002349 4270.44189 4283.20850
4289.0 0.0002332 4270.01514 4281.20850
4304.0 0.0002323 4269.58887 4279.50293
4304.0 0.0002323 4269.16211 4278.01270
4219.0 0.0002370 4268.73584 4276.71631
4259.0 0.0002348 4268.30908 4275.52588
4281.0 0.0002336 4267.88281 4274.44287
4315.0 0.0002317 4267.45557 4273.44775
4182.0 0.0002391 4267.02930 4272.52441
4264.0 0.0002345 4266.60205 4271.66113
4240.0 0.0002358 4266.17480 4271.04150
4223.0 0.0002368 4265.74805 4270.27783
4152.0 0.0002408 4265.32031 4269.54980
4286.0 0.0002333 4264.89307 4268.85400
4219.0 0.0002370 4264.46484 4268.18652
4222.0 0.0002369 4264.03711 4267.54102
4181.0 0.0002392 4263.60840 4266.91699
4299.0 0.0002326 4263.18018 4266.31299
4266.0 0.0002344 4262.75098 4265.72314
4347.0 0.0002300 4262.32178 4265.14746
4252.0 0.0002352 4261.89258 4264.58496
4185.0 0.0002389 4261.46240 4264.03271
4323.0 0.0002313 4261.03223 4263.49268
4154.0 0.0002407 4260.60156 4262.95850
4277.0 0.0002338 4260.17090 4262.43457
4308.0 0.0002321 4259.73926 4261.91504
4286.0 0.0002333 4259.30713 4261.40332
4271.0 0.0002341 4258.87451 4260.89648
4314.0 0.0002318 4258.44189 4260.38428
4275.0 0.0002339 4258.00830 4259.88818
4239.0 0.0002359 4257.57422 4259.39697
4292.0 0.0002330 4257.14014 4258.91016
4190.0 0.0002387 4256.70459 4258.31299
4283.0 0.0002335 4256.26904 4257.83447
4343.0 0.0002303 4255.83252 4257.35742
4239.0 0.0002359 4255.39600 4256.88428
4310.0 0.0002320 4254.95801 4256.41260
4289.0 0.0002332 4254.52002 4255.94287
4287.0 0.0002333 4254.08105 4255.47607
4259.0 0.0002348 4253.64111 4255.00977
4242.0 0.0002357 4253.20068 4254.54590
4200.0 0.0002381 4252.75928 4254.08301
4155.0 0.0002407 4252.31738 4253.62256
4218.0 0.0002371 4251.87451 4253.16309
4202.0 0.0002380 4251.43115 4252.70410
4190.0 0.0002387 4250.98682 4252.24609
4306.0 0.0002322 4250.54150 4251.78955
4188.0 0.0002388 4250.09521 4251.33496
4226.0 0.0002366 4249.64844 4250.87988
4260.0 0.0002347 4249.20020 4250.88818
4275.0 0.0002339 4248.75146 4250.44189
4197.0 0.0002383 4248.30176 4249.99561
4305.0 0.0002323 4247.85059 4249.55225
4262.0 0.0002346 4247.39893 4249.10889
4269.0 0.0002342 4246.94629 4248.66748
4415.0 0.0002265 4246.49219 4248.22754
4218.0 0.0002371 4246.03760 4247.78809
4293.0 0.0002329 4245.58105 4247.34863
4309.0 0.0002321 4245.12451 4246.91309
4211.0 0.0002375 4244.66602 4247.27393
4255.0 0.0002350 4244.20654 4246.85498
4117.0 0.0002429 4243.74658 4246.43555
4198.0 0.0002382 4243.28467 4246.00488
4258.0 0.0002349 4242.82178 4245.59229
4230.0 0.0002364 4242.35791 4245.18408
4197.0 0.0002383 4241.89258 4244.78125
4215.0 0.0002372 4241.42627 4244.38281
4233.0 0.0002362 4240.95850 4243.99707
4205.0 0.0002378 4240.48975 4243.61865
4265.0 0.0002345 4240.01953 4243.26465
4246.0 0.0002355 4239.54785 4242.94092
4196.0 0.0002383 4239.07471 4242.65674
4279.0 0.0002337 4238.60059 4242.42627
4137.0 0.0002417 4238.12500 4242.26172
4049.0 0.0002470 4237.64844 4242.16943
4125.0 0.0002424 4237.16992 4242.14453
4191.0 0.0002386 4236.69043 4242.16016
4169.0 0.0002399 4236.20898 4242.15088
4281.0 0.0002336 4235.72656 4242.00977
4179.0 0.0002393 4235.24268 4241.63672
4166.0 0.0002400 4234.75684 4241.02441
4105.0 0.0002436 4234.27002 4240.27002
4196.0 0.0002383 4233.78125 4239.48486
4150.0 0.0002410 4233.29150 4238.74268
4177.0 0.0002394 4232.79980 4238.07813
4243.0 0.0002357 4232.30713 4237.50195
4164.0 0.0002402 4231.81250 4237.00928
4198.0 0.0002382 4231.31592 4236.58887
4205.0 0.0002378 4230.81836 4236.22510
4324.0 0.0002313 4230.31885 4235.89600
4212.0 0.0002374 4229.81787 4235.56787
4227.0 0.0002366 4229.31543 4235.21094
4188.0 0.0002388 4228.81104 4234.84668
4260.0 0.0002347 4228.30518 4234.47900
4280.0 0.0002336 4227.79785 4234.12744
4176.0 0.0002395 4227.28857 4233.80615
4241.0 0.0002358 4226.77783 4233.52295
4145.0 0.0002413 4226.26514 4233.28125
4291.0 0.0002330 4225.75049 4233.08496
4329.0 0.0002310 4225.23486 4232.93506
4174.0 0.0002396 4224.71680 4232.67383
4226.0 0.0002366 4224.19727 4232.63721
4272.0 0.0002341 4223.67627 4232.66455
4221.0 0.0002369 4223.15332 4232.74463
4293.0 0.0002329 4222.62842 4232.94092
4224.0 0.0002367 4222.10205 4233.24902
4159.0 0.0002404 4221.57373 4233.70020
4284.0 0.0002334 4221.04346 4234.33887
4386.0 0.0002280 4220.51172 4235.22949
4313.0 0.0002319 4219.97754 4236.46680
4212.0 0.0002374 4219.44238 4238.17871
4248.0 0.0002354 4218.90479 4240.53906
4343.0 0.0002303 4218.36572 4243.76855
4340.0 0.0002304 4217.82471 4248.13623
4202.0 0.0002380 4217.28125 4253.95801
4283.0 0.0002335 4216.73682 4261.58105
4254.0 0.0002351 4216.18994 4271.30859
4279.0 0.0002337 4215.64160 4283.26807
4314.0 0.0002318 4215.09082 4297.48340
4356.0 0.0002296 4214.53906 4313.88428
4272.0 0.0002341 4213.98486 4333.23730
4398.0 0.0002274 4213.42871 4356.15527
4393.0 0.0002276 4212.87061 4381.75391
4352.0 0.0002298 4212.31104 4406.24072
4404.0 0.0002271 4211.74902 4422.55078
4423.0 0.0002261 4211.18555 4423.35840
4549.0 0.0002198 4210.62012 4407.14551
4399.0 0.0002273 4210.05225 4379.71289
4384.0 0.0002281 4209.48291 4348.84863
4336.0 0.0002306 4208.91162 4319.86377
4424.0 0.0002260 4208.33838 4295.23975
4193.0 0.0002385 4207.76367 4275.80566
4233.0 0.0002362 4207.18604 4260.93555
4338.0 0.0002305 4206.60742 4250.03369
4340.0 0.0002304 4206.02637 4242.19287
4297.0 0.0002327 4205.44385 4236.56445
4243.0 0.0002357 4204.85889 4232.45996
4077.0 0.0002453 4204.27246 4229.37793
4299.0 0.0002326 4203.68359 4226.98535
4235.0 0.0002361 4203.09326 4225.06836
4234.0 0.0002362 4202.50098 4223.49902
4203.0 0.0002379 4201.90674 4222.19287
4231.0 0.0002364 4201.31055 4221.09766
4291.0 0.0002330 4200.71240 4220.18115
4255.0 0.0002350 4200.11230 4219.41699
4269.0 0.0002342 4199.51074 4218.79004
4180.0 0.0002392 4198.90674 4218.28564
4182.0 0.0002391 4198.30127 4217.89844
4141.0 0.0002415 4197.69336 4217.61963
4167.0 0.0002400 4197.08398 4217.45068
4215.0 0.0002372 4196.47266 4217.38867
4129.0 0.0002422 4195.85938 4217.43604
4292.0 0.0002330 4195.24414 4217.60059
4290.0 0.0002331 4194.62744 4217.88623
4188.0 0.0002388 4194.00879 4218.30322
4173.0 0.0002396 4193.38818 4218.86328
4264.0 0.0002345 4192.76611 4219.58203
4242.0 0.0002357 4192.14160 4220.47705
4250.0 0.0002353 4191.51563 4221.57129
4266.0 0.0002344 4190.88770 4222.89453
4251.0 0.0002352 4190.25781 4224.47852
4126.0 0.0002424 4189.62646 4226.36572
4241.0 0.0002358 4188.99316 4228.60840
4212.0 0.0002374 4188.35840 4231.27246
4313.0 0.0002319 4187.72168 4234.43994
4246.0 0.0002355 4187.08301 4238.21631
4246.0 0.0002355 4186.44287 4242.75342
4254.0 0.0002351 4185.80078 4248.25635
4247.0 0.0002355 4185.15723 4255.04346
4197.0 0.0002383 4184.51172 4263.60400
4290.0 0.0002331 4183.86475 4274.71045
4247.0 0.0002355 4183.21582 4289.53516
4302.0 0.0002325 4182.56543 4309.77393
4300.0 0.0002326 4181.91357 4337.68604
4445.0 0.0002250 4181.25977 4375.97266
4374.0 0.0002286 4180.60449 4427.42334
4309.0 0.0002321 4179.94775 4494.28027
4479.0 0.0002233 4179.28906 4577.29248
4665.0 0.0002144 4178.62891 4674.17236
4789.0 0.0002088 4177.96777 4777.06348
4849.0 0.0002062 4177.30420 4869.86182
5007.0 0.0001997 4176.63965 4931.02637
4993.0 0.0002003 4175.97363 4948.30225
4996.0 0.0002002 4175.30615 4932.84912
4914.0 0.0002035 4174.63672 4911.89014
4920.0 0.0002033 4173.96631 4910.57471
4816.0 0.0002076 4173.29443 4943.45410
5045.0 0.0001982 4172.62061 5014.10889
5134.0 0.0001948 4171.94580 5114.78418
5214.0 0.0001918 4171.26953 5223.20654
5458.0 0.0001832 4170.59229 5301.07568
5338.0 0.0001873 4169.91309 5307.34570
5340.0 0.0001873 4169.23291 5228.04102
5259.0 0.0001902 4168.55127 5087.84375
5030.0 0.0001988 4167.86865 4925.65967
4746.0 0.0002107 4167.18457 4770.42920
4640.0 0.0002155 4166.49951 4636.46826
4466.0 0.0002239 4165.81299 4528.29395
4502.0 0.0002221 4165.12500 4445.05908
4390.0 0.0002278 4164.43652 4383.24121
4403.0 0.0002271 4163.74609 4338.34814
4435.0 0.0002255 4163.05518 4305.86035
4359.0 0.0002294 4162.36279 4282.09326
4310.0 0.0002320 4161.66992 4264.24609
4251.0 0.0002352 4160.97559 4250.38623
4232.0 0.0002363 4160.27979 4239.25586
4226.0 0.0002366 4159.58350 4230.05957
4253.0 0.0002351 4158.88623 4222.29395
4191.0 0.0002386 4158.18799 4215.63379
4264.0 0.0002345 4157.48828 4209.85449
4235.0 0.0002361 4156.78857 4204.79492
4142.0 0.0002414 4156.08740 4200.33789
4136.0 0.0002418 4155.38574 4196.39307
4173.0 0.0002396 4154.68311 4192.89209
4179.0 0.0002393 4153.97949 4189.78564
4064.0 0.0002461 4153.27539 4187.03271
4241.0 0.0002358 4152.56982 4184.59912
4237.0 0.0002360 4151.86426 4182.45313
4299.0 0.0002326 4151.15771 4180.55078
4115.0 0.0002430 4150.45068 4178.83301
4191.0 0.0002386 4149.74316 4177.20605
4157.0 0.0002406 4149.03467 4175.55664
4210.0 0.0002375 4148.32617 4173.82129
4189.0 0.0002387 4147.61621 4172.01758
4127.0 0.0002423 4146.90625 4170.23828
4147.0 0.0002411 4146.19580 4168.55420
4142.0 0.0002414 4145.48486 4167.01074
4124.0 0.0002425 4144.77344 4165.62988
4166.0 0.0002400 4144.06201 4164.40039
4262.0 0.0002346 4143.34961 4163.32324
3990.0 0.0002506 4142.63721 4162.39453
4280.0 0.0002336 4141.92432 4161.61328
4277.0 0.0002338 4141.21094 4160.96777
4086.0 0.0002447 4140.49805 4160.44824
4157.0 0.0002406 4139.78418 4160.15576
4172.0 0.0002397 4139.07031 4160.00928
4158.0 0.0002405 4138.35645 4160.09180
4191.0 0.0002386 4137.64258 4160.47119
4188.0 0.0002388 4136.92822 4161.25342
4245.0 0.0002356 4136.21387 4162.41553
4096.0 0.0002441 4135.50000 4164.59863
4183.0 0.0002391 4134.78516 4167.95361
4269.0 0.0002342 4134.07129 4172.92676
4115.0 0.0002430 4133.35645 4180.01172
4190.0 0.0002387 4132.64258 4189.67041
4171.0 0.0002398 4131.92871 4202.19922
4354.0 0.0002297 4131.21484 4217.50732
4158.0 0.0002405 4130.50098 4234.77930
4205.0 0.0002378 4129.78760 4251.93994
4288.0 0.0002332 4129.07422 4265.38867
4223.0 0.0002368 4128.36084 4270.91309
4182.0 0.0002391 4127.64844 4267.14307
4277.0 0.0002338 4126.93604 4256.91064
4150.0 0.0002410 4126.22412 4245.06104
4269.0 0.0002342 4125.51270 4235.69580
4230.0 0.0002364 4124.80127 4231.42139
4273.0 0.0002340 4124.09082 4233.70752
4146.0 0.0002412 4123.38037 4243.19482
4287.0 0.0002333 4122.67090 4259.69482
4256.0 0.0002350 4121.96191 4281.99316
4102.0 0.0002438 4121.25342 4307.47119
4298.0 0.0002327 4120.54541 4331.48682
4227.0 0.0002366 4119.83838 4347.07861
4457.0 0.0002244 4119.13184 4347.37256
4308.0 0.0002321 4118.42578 4330.77539
4265.0 0.0002345 4117.72119 4302.56201
4286.0 0.0002333 4117.01660 4270.26563
4357.0 0.0002295 4116.31299 4239.35693
4197.0 0.0002383 4115.61035 4212.57715
4095.0 0.0002442 4114.90918 4190.73926
4239.0 0.0002359 4114.20850 4173.71582
4178.0 0.0002393 4113.50830 4160.84912
4149.0 0.0002410 4112.80957 4151.28076
4151.0 0.0002409 4112.11182 4144.16992
4221.0 0.0002369 4111.41504 4138.79541
4085.0 0.0002448 4110.71924 4134.60986
4141.0 0.0002415 4110.02441 4131.23145
4124.0 0.0002425 4109.33105 4128.41016
4116.0 0.0002430 4108.63867 4125.98047
3987.0 0.0002508 4107.94775 4123.84570
4134.0 0.0002419 4107.25781 4121.93311
4097.0 0.0002441 4106.56934 4120.20117
4107.0 0.0002435 4105.88184 4118.61426
4140.0 0.0002415 4105.19580 4117.15039
4127.0 0.0002423 4104.51074 4115.78906
4164.0 0.0002402 4103.82764 4114.51563
4197.0 0.0002383 4103.14600 4113.31787
4132.0 0.0002420 4102.46533 4112.18555
4011.0 0.0002493 4101.78662 4111.11328
4121.0 0.0002427 4101.10889 4110.09082
4078.0 0.0002452 4100.43311 4109.11719
4170.0 0.0002398 4099.75879 4108.18604
4128.0 0.0002422 4099.08594 4107.29395
4114.0 0.0002431 4098.41455 4106.44092
4189.0 0.0002387 4097.74512 4105.62451
4165.0 0.0002401 4097.07764 4104.84229
4092.0 0.0002444 4096.41113 4104.09473
4143.0 0.0002414 4095.74683 4103.38525
4110.0 0.0002433 4095.08398 4102.71484
4129.0 0.0002422 4094.42310 4102.08545
4130.0 0.0002421 4093.76392 4101.50488
4100.0 0.0002439 4093.10669 4100.98828
4017.0 0.0002489 4092.45117 4100.54736
4065.0 0.0002460 4091.79785 4100.20361
4158.0 0.0002405 4091.14624 4099.98145
4093.0 0.0002443 4090.49658 4099.90967
4177.0 0.0002394 4089.84888 4100.01270
4212.0 0.0002374 4089.20288 4100.30615
3999.0 0.0002501 4088.55933 4100.78564
4138.0 0.0002417 4087.91748 4101.41064
4102.0 0.0002438 4087.27808 4102.07959
4113.0 0.0002431 4086.64063 4102.62842
4120.0 0.0002427 4086.00513 4102.93701
4139.0 0.0002416 4085.37183 4102.59863
4057.0 0.0002465 4084.74072 4102.82813
4025.0 0.0002484 4084.11182 4103.52734
4101.0 0.0002438 4083.48486 4105.06348
4072.0 0.0002456 4082.86035 4107.76904
4102.0 0.0002438 4082.23804 4111.93799
4167.0 0.0002400 4081.61816 4117.79150
4227.0 0.0002366 4081.00049 4125.41309
4115.0 0.0002430 4080.38477 4134.63135
4215.0 0.0002372 4079.77173 4144.77734
4220.0 0.0002370 4079.16089 4153.60596
4205.0 0.0002378 4078.55249 4160.53564
4234.0 0.0002362 4077.94629 4162.98535
4099.0 0.0002440 4077.34277 4161.22900
4264.0 0.0002345 4076.74146 4157.14941
4208.0 0.0002376 4076.14282 4153.05762
4296.0 0.0002328 4075.54639 4150.08936
4177.0 0.0002394 4074.95239 4148.03320
4078.0 0.0002452 4074.36108 4145.56396
4119.0 0.0002428 4073.77222 4141.08447
4024.0 0.0002485 4073.18579 4133.97412
4119.0 0.0002428 4072.60181 4125.11963
4251.0 0.0002352 4072.02051 4115.93701
4171.0 0.0002398 4071.44189 4107.46631
4171.0 0.0002398 4070.86548 4100.19141
4107.0 0.0002435 4070.29199 4094.28711
4190.0 0.0002387 4069.72095 4089.62256
4047.0 0.0002471 4069.15234 4085.96362
4104.0 0.0002437 4068.58643 4083.16406
3961.0 0.0002525 4068.02344 4081.02881
4119.0 0.0002428 4067.46289 4079.39233
3982.0 0.0002511 4066.90503 4078.13452
4042.0 0.0002474 4066.34985 4077.17432
4106.0 0.0002435 4065.79712 4076.46631
3975.0 0.0002516 4065.24731 4075.99463
4106.0 0.0002435 4064.69995 4075.75562
4107.0 0.0002435 4064.15552 4075.76025
4115.0 0.0002430 4063.61377 4076.02271
4045.0 0.0002472 4063.07471 4076.54565
4023.0 0.0002486 4062.53809 4077.31396
4011.0 0.0002493 4062.00464 4078.30591
4051.0 0.0002469 4061.47363 4079.51099
4021.0 0.0002487 4060.94531 4081.04614
4173.0 0.0002396 4060.41992 4083.09912
4018.0 0.0002489 4059.89697 4085.82983
4016.0 0.0002490 4059.37720 4089.27710
4032.0 0.0002480 4058.85986 4093.37646
4092.0 0.0002444 4058.34521 4098.08643
4140.0 0.0002415 4057.83350 4103.44238
4097.0 0.0002441 4057.32446 4109.33740
4115.0 0.0002430 4056.81836 4115.22217
4129.0 0.0002422 4056.31470 4119.98389
4115.0 0.0002430 4055.81396 4122.14697
4196.0 0.0002383 4055.31567 4120.56006
4073.0 0.0002455 4054.82056 4115.39355
4088.0 0.0002446 4054.32788 4108.14355
4020.0 0.0002488 4053.83813 4100.58008
4012.0 0.0002493 4053.35107 4093.96240
4051.0 0.0002469 4052.86646 4088.99512
4093.0 0.0002443 4052.38501 4086.04468
4053.0 0.0002467 4051.90601 4085.32031
4139.0 0.0002416 4051.42993 4086.91040
4082.0 0.0002450 4050.95630 4090.85938
4089.0 0.0002446 4050.48560 4097.08252
4230.0 0.0002364 4050.01733 4105.26367
4095.0 0.0002442 4049.55200 4114.66016
4088.0 0.0002446 4049.08936 4123.77148
4126.0 0.0002424 4048.62915 4130.21582
4154.0 0.0002407 4048.17188 4131.50635
4044.0 0.0002473 4047.71704 4126.70361
4112.0 0.0002432 4047.26489 4117.51660
4129.0 0.0002422 4046.81543 4106.41553
4138.0 0.0002417 4046.36841 4095.44897
4045.0 0.0002472 4045.92432 4085.73804
4154.0 0.0002407 4045.48267 4077.72754
3920.0 0.0002551 4045.04346 4071.47876
3969.0 0.0002520 4044.60693 4066.86499
4041.0 0.0002475 4044.17310 4063.67944
4080.0 0.0002451 4043.74146 4061.71704
4003.0 0.0002498 4043.31274 4060.84424
3958.0 0.0002527 4042.88623 4060.96631
4022.0 0.0002486 4042.46240 4062.04590
4076.0 0.0002453 4042.04077 4063.89185
4116.0 0.0002430 4041.62183 4066.75562
4106.0 0.0002435 4041.20532 4070.26074
3985.0 0.0002509 4040.79102 4073.93091
4019.0 0.0002488 4040.37939 4076.91064
4080.0 0.0002451 4039.96997 4078.09497
4098.0 0.0002440 4039.56299 4076.75000
4069.0 0.0002458 4039.15820 4073.12988
4120.0 0.0002427 4038.75586 4068.23218
3943.0 0.0002536 4038.35596 4063.06445
4070.0 0.0002457 4037.95801 4058.26416
4136.0 0.0002418 4037.56250 4054.13037
4115.0 0.0002430 4037.16919 4050.71289
4121.0 0.0002427 4036.77808 4047.98340
4051.0 0.0002469 4036.38892 4045.85205
4011.0 0.0002493 4036.00220 4044.17725
4017.0 0.0002489 4035.61768 4042.85254
4003.0 0.0002498 4035.23486 4041.78174
3969.0 0.0002520 4034.85449 4040.88745
3892.0 0.0002569 4034.47583 4040.11938
3960.0 0.0002525 4034.09961 4039.44116
4061.0 0.0002462 4033.72510 4038.82959
4037.0 0.0002477 4033.35254 4038.27100
4050.0 0.0002469 4032.98193 4037.75488
4009.0 0.0002494 4032.61328 4037.27563
4064.0 0.0002461 4032.24658 4036.82813
4037.0 0.0002477 4031.88159 4036.40869
4040.0 0.0002475 4031.51855 4036.01514
3890.0 0.0002571 4031.15698 4035.64722
4049.0 0.0002470 4030.79761 4035.30200
4053.0 0.0002467 4030.43945 4034.97974
4138.0 0.0002417 4030.08350 4034.68066
4145.0 0.0002413 4029.72876 4034.40381
3976.0 0.0002515 4029.37598 4034.15063
4019.0 0.0002488 4029.02466 4033.92188
4022.0 0.0002486 4028.67480 4033.71997
4020.0 0.0002488 4028.32642 4033.54419
4193.0 0.0002385 4027.97949 4033.40015
4107.0 0.0002435 4027.63428 4033.28955
4083.0 0.0002449 4027.29028 4033.21582
3968.0 0.0002520 4026.94775 4033.18433
4042.0 0.0002474 4026.60669 4033.20215
4111.0 0.0002432 4026.26660 4033.27686
4071.0 0.0002456 4025.92798 4033.41870
4048.0 0.0002470 4025.59033 4033.64258
4006.0 0.0002496 4025.25415 4033.96680
4032.0 0.0002480 4024.91895 4034.41455
4098.0 0.0002440 4024.58496 4035.02173
4136.0 0.0002418 4024.25195 4035.82715
4051.0 0.0002469 4023.92017 4036.90332
3928.0 0.0002546 4023.58936 4038.32764
4070.0 0.0002457 4023.25928 4040.22095
4101.0 0.0002438 4022.93018 4042.73853
4019.0 0.0002488 4022.60205 4046.08130
4099.0 0.0002440 4022.27466 4050.48340
4034.0 0.0002479 4021.94800 4056.20117
3983.0 0.0002511 4021.62231 4063.52515
4113.0 0.0002431 4021.29712 4072.77075
4014.0 0.0002491 4020.97266 4084.15991
4099.0 0.0002440 4020.64868 4097.58252
4142.0 0.0002414 4020.32544 4112.26514
4233.0 0.0002362 4020.00269 4126.33447
4226.0 0.0002366 4019.68042 4137.01758
4206.0 0.0002378 4019.35864 4141.47510
4047.0 0.0002471 4019.03711 4139.71094
4149.0 0.0002410 4018.71606 4132.93311
4122.0 0.0002426 4018.39551 4125.04590
4156.0 0.0002406 4018.07495 4118.60303
4117.0 0.0002429 4017.75464 4114.92480
4242.0 0.0002357 4017.43457 4114.54443
4136.0 0.0002418 4017.11475 4117.88574
4116.0 0.0002430 4016.79468 4125.04639
4062.0 0.0002462 4016.47510 4135.51270
4180.0 0.0002392 4016.15503 4147.57324
4115.0 0.0002430 4015.83521 4158.01367
4121.0 0.0002427 4015.51538 4162.69922
4155.0 0.0002407 4015.19531 4158.67627
4045.0 0.0002472 4014.87500 4146.68262
4208.0 0.0002376 4014.55444 4129.15869
4126.0 0.0002424 4014.23364 4110.22803
4048.0 0.0002470 4013.91260 4092.48901
4177.0 0.0002394 4013.59106 4077.25171
4057.0 0.0002465 4013.26929 4064.95776
4032.0 0.0002480 4012.94702 4055.55933
4072.0 0.0002456 4012.62402 4049.43262
4034.0 0.0002479 4012.30078 4044.81567
3969.0 0.0002520 4011.97681 4041.92188
4035.0 0.0002478 4011.65210 4040.29468
3934.0 0.0002542 4011.32666 4039.46045
4019.0 0.0002488 4011.00073 4038.88599
4073.0 0.0002455 4010.67383 4038.00415
3939.0 0.0002539 4010.34619 4036.42676
4112.0 0.0002432 4010.01758 4034.14038
3980.0 0.0002513 4009.68799 4031.46021
3944.0 0.0002535 4009.35742 4028.74707
4087.0 0.0002447 4009.02612 4026.24487
3986.0 0.0002509 4008.69360 4024.06616
4018.0 0.0002489 4008.35986 4022.26001
4008.0 0.0002495 4008.02490 4020.81689
4041.0 0.0002475 4007.68896 4019.71655
3959.0 0.0002526 4007.35181 4018.93457
4041.0 0.0002475 4007.01294 4018.47241
4019.0 0.0002488 4006.67334 4018.28247
4074.0 0.0002455 4006.33179 4018.45972
4060.0 0.0002463 4005.98901 4018.97095
4076.0 0.0002453 4005.64478 4019.81128
4012.0 0.0002493 4005.29907 4020.93262
4085.0 0.0002448 4004.95190 4022.22021
3996.0 0.0002503 4004.60278 4023.42749
4008.0 0.0002495 4004.25244 4024.19043
4003.0 0.0002498 4003.89990 4024.12231
4065.0 0.0002460 4003.54590 4023.06958
4220.0 0.0002370 4003.18994 4021.24609
4095.0 0.0002442 4002.83252 4019.05957
4049.0 0.0002470 4002.47290 4016.85107
3937.0 0.0002540 4002.11133 4014.82690
4016.0 0.0002490 4001.74805 4013.07178
3939.0 0.0002539 4001.38232 4011.60376
3907.0 0.0002560 4001.01489 4010.33960
3926.0 0.0002547 4000.64526 4009.36816
4036.0 0.0002478 4000.27368 4008.57935
4058.0 0.0002464 3999.89966 4007.93066
4009.0 0.0002494 3999.52344 4007.38794
4018.0 0.0002489 3999.14502 4006.92407
4083.0 0.0002449 3998.76416 4006.52124
4015.0 0.0002491 3998.38110 4006.16821
3943.0 0.0002536 3997.99561 4005.85938
4055.0 0.0002466 3997.60791 4005.59351
4007.0 0.0002496 3997.21729 4005.37207
3929.0 0.0002545 3996.82471 4005.24854
3949.0 0.0002532 3996.42896 4005.14502
3948.0 0.0002533 3996.03101 4005.12402
3935.0 0.0002541 3995.63037 4005.21777
4041.0 0.0002475 3995.22705 4005.46582
4006.0 0.0002496 3994.82129 4005.92163
3970.0 0.0002519 3994.41235 4006.67896
3978.0 0.0002514 3994.00098 4008.07202
3964.0 0.0002523 3993.58643 4009.52295
4012.0 0.0002493 3993.16943 4011.45044
3954.0 0.0002529 3992.74927 4013.80835
4215.0 0.0002372 3992.32642 4016.48364
3859.0 0.0002591 3991.90039 4019.19775
4010.0 0.0002494 3991.47144 4021.51270
3966.0 0.0002521 3991.03955 4022.98267
3931.0 0.0002544 3990.60449 4023.36548
3995.0 0.0002503 3990.16626 4022.64673
4067.0 0.0002459 3989.72510 4020.90259
4028.0 0.0002483 3989.28076 4018.32617
4137.0 0.0002417 3988.83325 4015.28882
4032.0 0.0002480 3988.38232 4012.21289
3998.0 0.0002501 3987.92847 4009.40527
4007.0 0.0002496 3987.47119 4007.01416
4079.0 0.0002452 3987.01050 4005.07422
3924.0 0.0002548 3986.54663 4003.55640
4012.0 0.0002493 3986.07935 4002.40454
3944.0 0.0002535 3985.60864 4001.55176
4004.0 0.0002498 3985.13452 4000.93677
4005.0 0.0002497 3984.65698 4000.50464
4050.0 0.0002469 3984.17603 4000.21655
3996.0 0.0002503 3983.69165 4000.04297
4060.0 0.0002463 3983.20337 3999.96313
4026.0 0.0002484 3982.71191 3999.96973
4053.0 0.0002467 3982.21655 4000.05396
4025.0 0.0002484 3981.71802 4000.21606
4007.0 0.0002496 3981.21558 4000.45679
4007.0 0.0002496 3980.70972 4000.78101
3999.0 0.0002501 3980.20020 4001.19409
4092.0 0.0002444 3979.68652 4001.70337
3964.0 0.0002523 3979.16968 4002.32056
4127.0 0.0002423 3978.64868 4003.05518
4009.0 0.0002494 3978.12427 4003.92432
4049.0 0.0002470 3977.59595 4004.94287
4076.0 0.0002453 3977.06396 4006.13306
3958.0 0.0002527 3976.52808 4007.52026
4117.0 0.0002429 3975.98853 4009.13550
4005.0 0.0002497 3975.44507 4011.01660
4036.0 0.0002478 3974.89771 4013.20947
4012.0 0.0002493 3974.34668 4015.77222
4029.0 0.0002482 3973.79150 4018.78149
3996.0 0.0002503 3973.23267 4022.33716
3955.0 0.0002528 3972.66968 4026.58374
4098.0 0.0002440 3972.10303 4031.72534
4112.0 0.0002432 3971.53223 4038.07251
4048.0 0.0002470 3970.95801 4046.09180
3979.0 0.0002513 3970.37939 4056.46899
4090.0 0.0002445 3969.79688 4070.17944
4027.0 0.0002483 3969.21069 4088.53003
4094.0 0.0002443 3968.62012 4113.13525
4123.0 0.0002425 3968.02563 4145.81885
4122.0 0.0002426 3967.42725 4188.35059
4238.0 0.0002360 3966.82495 4242.07471
4305.0 0.0002323 3966.21875 4307.34375
4364.0 0.0002291 3965.60840 4382.61816
4484.0 0.0002230 3964.99414 4463.01123
4534.0 0.0002206 3964.37573 4538.46680
4490.0 0.0002227 3963.75342 4593.57178
4550.0 0.0002198 3963.12695 4613.56543
4540.0 0.0002203 3962.49683 4594.17773
4594.0 0.0002177 3961.86230 4545.98340
4565.0 0.0002191 3961.22388 4486.49268
4604.0 0.0002172 3960.58154 4430.76904
4386.0 0.0002280 3959.93506 4388.39844
4337.0 0.0002306 3959.28467 4364.51709
4477.0 0.0002234 3958.63013 4361.47266
4270.0 0.0002342 3957.97192 4379.74512
4411.0 0.0002267 3957.30933 4418.17969
4424.0 0.0002260 3956.64307 4473.55664
4480.0 0.0002232 3955.97266 4539.50977
4534.0 0.0002206 3955.29834 4606.23633
4676.0 0.0002139 3954.62012 4663.25293
4696.0 0.0002129 3953.93774 4705.85400
4768.0 0.0002097 3953.25146 4738.66455
4823.0 0.0002073 3952.56128 4769.96582
4773.0 0.0002095 3951.86719 4802.67627
4801.0 0.0002083 3951.16895 4829.28662
4770.0 0.0002096 3950.46704 4833.41211
4871.0 0.0002053 3949.76123 4799.54004
4817.0 0.0002076 3949.05127 4725.73340
4694.0 0.0002130 3948.33789 4625.45850
4619.0 0.0002165 3947.62012 4517.00293
4466.0 0.0002239 3946.89893 4414.02393
4376.0 0.0002285 3946.17358 4323.63477
4532.0 0.0002207 3945.44458 4248.27490
4243.0 0.0002357 3944.71143 4187.77100
4156.0 0.0002406 3943.97510 4140.53809
4074.0 0.0002455 3943.23486 4104.37646
4054.0 0.0002467 3942.49048 4076.96216
4024.0 0.0002485 3941.74268 4056.15625
4032.0 0.0002480 3940.99097 4040.18042
3970.0 0.0002519 3940.23560 4027.67505
3959.0 0.0002526 3939.47656 4017.65967
4016.0 0.0002490 3938.71411 4009.46338
4010.0 0.0002494 3937.94751 4002.63940
4045.0 0.0002472 3937.17773 3996.89063
3851.0 0.0002597 3936.40454 3992.01025
4008.0 0.0002495 3935.62720 3987.84204
3967.0 0.0002521 3934.84668 3984.24414
4041.0 0.0002475 3934.06250 3981.06641
3929.0 0.0002545 3933.27515 3978.14038
3984.0 0.0002510 3932.48389 3975.32349
3993.0 0.0002504 3931.68945 3972.55713
3960.0 0.0002525 3930.89185 3969.87256
3979.0 0.0002513 3930.09033 3967.30737
3972.0 0.0002518 3929.28564 3964.89380
3845.0 0.0002601 3928.47778 3962.57324
3999.0 0.0002501 3927.66650 3960.29419
3956.0 0.0002528 3926.85181 3958.05249
4041.0 0.0002475 3926.03418 3955.89648
3801.0 0.0002631 3925.21289 3953.88525
4014.0 0.0002491 3924.38892 3952.05688
4117.0 0.0002429 3923.56177 3950.42798
3900.0 0.0002564 3922.73120 3949.00220
3975.0 0.0002516 3921.89771 3947.78174
3974.0 0.0002516 3921.06104 3946.77124
3941.0 0.0002537 3920.22168 3945.98193
3907.0 0.0002560 3919.37891 3945.44116
3849.0 0.0002598 3918.53345 3945.19189
3968.0 0.0002520 3917.68481 3945.29395
3975.0 0.0002516 3916.83374 3945.82690
3898.0 0.0002565 3915.97949 3946.87769
3927.0 0.0002546 3915.12231 3948.53247
3927.0 0.0002546 3914.26294 3950.85596
3968.0 0.0002520 3913.40015 3953.86206
4083.0 0.0002449 3912.53516 3957.47314
3988.0 0.0002508 3911.66699 3961.44678
3935.0 0.0002541 3910.79688 3965.30200
4028.0 0.0002483 3909.92383 3968.33618
3946.0 0.0002534 3909.04810 3970.07324
3928.0 0.0002546 3908.17017 3970.18799
3966.0 0.0002521 3907.28931 3969.46655
3915.0 0.0002554 3906.40625 3968.89209
4033.0 0.0002480 3905.52075 3969.36914
3945.0 0.0002535 3904.63306 3971.60620
3993.0 0.0002504 3903.74292 3976.17944
3906.0 0.0002560 3902.85059 3983.60693
3911.0 0.0002557 3901.95630 3994.44604
4065.0 0.0002460 3901.05933 4009.20557
3990.0 0.0002506 3900.16040 4028.45166
4057.0 0.0002465 3899.25928 4052.00806
4067.0 0.0002459 3898.35620 4079.72827
4106.0 0.0002435 3897.45093 4111.08936
4182.0 0.0002391 3896.54395 4146.03955
4117.0 0.0002429 3895.63452 4185.11182
4162.0 0.0002403 3894.72388 4228.21729
4274.0 0.0002340 3893.81104 4272.65723
4230.0 0.0002364 3892.89624 4311.60986
4372.0 0.0002287 3891.97998 4334.70752
4344.0 0.0002302 3891.06152 4332.71143
4402.0 0.0002272 3890.14185 4304.10986
4174.0 0.0002396 3889.22021 4256.39941
4238.0 0.0002360 3888.29712 4200.45654
4218.0 0.0002371 3887.37280 4144.94141
4042.0 0.0002474 3886.44629 4094.79858
4004.0 0.0002498 3885.51880 4052.11890
4015.0 0.0002491 3884.58960 4017.28394
3898.0 0.0002565 3883.65918 3989.73022
3885.0 0.0002574 3882.72729 3968.41895
3970.0 0.0002519 3881.79419 3952.13892
3929.0 0.0002545 3880.85986 3939.71411
3935.0 0.0002541 3879.92432 3930.13135
3997.0 0.0002502 3878.98755 3922.58423
4035.0 0.0002478 3878.04956 3916.47827
3891.0 0.0002570 3877.11084 3911.39600
3831.0 0.0002610 3876.17065 3907.05151
3926.0 0.0002547 3875.22974 3903.25830
3886.0 0.0002573 3874.28760 3899.88745
3885.0 0.0002574 3873.34473 3896.85107
3868.0 0.0002585 3872.40088 3894.08618
3854.0 0.0002595 3871.45654 3891.54590
3984.0 0.0002510 3870.51123 3889.19385
3971.0 0.0002518 3869.56494 3887.00024
3789.0 0.0002639 3868.61841 3884.94336
3831.0 0.0002610 3867.67065 3883.00195
3896.0 0.0002567 3866.72266 3881.16187
3928.0 0.0002546 3865.77368 3879.40771
3929.0 0.0002545 3864.82471 3877.73071
4009.0 0.0002494 3863.87524 3876.12061
3827.0 0.0002613 3862.92480 3874.56909
3828.0 0.0002612 3861.97461 3873.06885
3902.0 0.0002563 3861.02344 3871.61523
3854.0 0.0002595 3860.07227 3870.20239
3899.0 0.0002565 3859.12036 3868.82568
3883.0 0.0002575 3858.16895 3867.48267
3957.0 0.0002527 3857.21655 3866.16919
3907.0 0.0002560 3856.26465 3864.88306
3858.0 0.0002592 3855.31250 3863.62085
3881.0 0.0002577 3854.35986 3862.38013
3839.0 0.0002605 3853.40747 3861.15991
3728.0 0.0002682 3852.45483 3859.40820
3914.0 0.0002555 3851.50269 3858.23218
3813.0 0.0002623 3850.55005 3857.07104
3806.0 0.0002627 3849.59790 3855.92456
3926.0 0.0002547 3848.64551 3854.80811
3850.0 0.0002597 3847.69360 3853.68848
3878.0 0.0002579 3846.74194 3852.57861
3833.0 0.0002609 3845.79028 3851.48022
3697.0 0.0002705 3844.83911 3850.39233
3931.0 0.0002544 3843.88794 3849.31274
3913.0 0.0002556 3842.93726 3848.24292
3878.0 0.0002579 3841.98706 3847.18115
3907.0 0.0002560 3841.03735 3846.12988
3832.0 0.0002610 3840.08789 3844.68726
3886.0 0.0002573 3839.13892 3843.65430
3815.0 0.0002621 3838.19067 3842.62915
3790.0 0.0002639 3837.24243 3841.61011
3929.0 0.0002545 3836.29541 3840.59790
3817.0 0.0002620 3835.34839 3839.63672
3725.0 0.0002685 3834.40259 3837.96045
3821.0 0.0002617 3833.45679 3836.97778
3816.0 0.0002621 3832.51221 3836.00000
3818.0 0.0002619 3831.56836 3835.05420
3843.0 0.0002602 3830.62476 3834.08765
3686.0 0.0002713 3829.68262 3833.12793
3758.0 0.0002661 3828.74072 3832.17358
3912.0 0.0002556 3827.79980 3831.22681
3852.0 0.0002596 3826.85962 3830.28418
3736.0 0.0002677 3825.92065 3829.34839
3780.0 0.0002646 3824.98218 3828.41772
3802.0 0.0002630 3824.04492 3827.49487
3892.0 0.0002569 3823.10864 3826.57959
3863.0 0.0002589 3822.17310 3825.67285
3854.0 0.0002595 3821.23853 3824.77588
3803.0 0.0002630 3820.30493 3823.88965
3794.0 0.0002636 3819.37280 3823.01929
3876.0 0.0002580 3818.44116 3822.16553
3834.0 0.0002608 3817.51099 3821.33398
3836.0 0.0002607 3816.58203 3820.52783
3872.0 0.0002583 3815.65381 3819.75244
3768.0 0.0002654 3814.72681 3819.01172
3835.0 0.0002608 3813.80103 3818.32324
3842.0 0.0002603 3812.87646 3817.64453
3840.0 0.0002604 3811.95288 3816.99170
3814.0 0.0002622 3811.03076 3816.33887
3787.0 0.0002641 3810.10938 3815.65161
3836.0 0.0002607 3809.18970 3814.89331
3765.0 0.0002656 3808.27124 3814.04175
3835.0 0.0002608 3807.35376 3813.10693
3833.0 0.0002609 3806.43774 3812.13525
3732.0 0.0002680 3805.52246 3811.15625
3865.0 0.0002587 3804.60913 3810.20068
3775.0 0.0002649 3803.69678 3809.28369
3802.0 0.0002630 3802.78589 3808.41333
3872.0 0.0002583 3801.87598 3807.59253
3850.0 0.0002597 3800.96777 3806.82349
3867.0 0.0002586 3800.06079 3806.10693
3766.0 0.0002655 3799.15479 3805.44507
3786.0 0.0002641 3798.25073 3804.84106
3842.0 0.0002603 3797.34741 3804.29980
3758.0 0.0002661 3796.44580 3803.82227
3801.0 0.0002631 3795.54517 3803.41187
3757.0 0.0002662 3794.64648 3803.07764
3804.0 0.0002629 3793.74878 3802.79370
3852.0 0.0002596 3792.85229 3802.55078
3719.0 0.0002689 3791.95752 3802.31714
3724.0 0.0002685 3791.06372 3802.05420
3788.0 0.0002640 3790.17163 3801.74146
3789.0 0.0002639 3789.28052 3801.39429
3705.0 0.0002699 3788.39111 3801.06445
3755.0 0.0002663 3787.50269 3800.81250
3864.0 0.0002588 3786.61597 3800.68823
3812.0 0.0002623 3785.73047 3800.73853
3820.0 0.0002618 3784.84619 3801.00391
3873.0 0.0002582 3783.96338 3801.53857
3675.0 0.0002721 3783.08179 3802.41260
3811.0 0.0002624 3782.20166 3803.72925
3865.0 0.0002587 3781.32251 3805.63843
3843.0 0.0002602 3780.44507 3808.35327
3879.0 0.0002578 3779.56836 3812.14844
3745.0 0.0002670 3778.69336 3817.38525
3764.0 0.0002657 3777.81982 3824.47949
3766.0 0.0002655 3776.94727 3833.87061
3804.0 0.0002629 3776.07593 3845.96143
3862.0 0.0002589 3775.20581 3861.02734
3722.0 0.0002687 3774.33716 3879.08789
3961.0 0.0002525 3773.46924 3899.69775
3955.0 0.0002528 3772.60303 3921.61646
3944.0 0.0002535 3771.73804 3942.44824
3961.0 0.0002525 3770.87378 3958.73584
3972.0 0.0002518 3770.01099 3967.25293
4017.0 0.0002489 3769.14893 3967.18408
4060.0 0.0002463 3768.28857 3961.19995
4058.0 0.0002464 3767.42896 3953.16699
4067.0 0.0002459 3766.57056 3947.02490
3923.0 0.0002549 3765.71289 3945.01392
3988.0 0.0002508 3764.85669 3947.76538
3984.0 0.0002510 3764.00146 3954.35034
3935.0 0.0002541 3763.14697 3962.18579
3980.0 0.0002513 3762.29395 3967.20630
3832.0 0.0002610 3761.44141 3965.13623
3939.0 0.0002539 3760.59009 3953.82813
4080.0 0.0002451 3759.73950 3934.60474
3957.0 0.0002527 3758.88989 3910.95068
3805.0 0.0002628 3758.04102 3886.53101
3952.0 0.0002530 3757.19336 3863.63721
3819.0 0.0002618 3756.34619 3843.45752
3839.0 0.0002605 3755.49976 3826.39575
3835.0 0.0002608 3754.65454 3812.39893
3771.0 0.0002652 3753.80957 3800.84009
3810.0 0.0002625 3752.96558 3791.94507
3716.0 0.0002691 3752.12207 3784.92896
3838.0 0.0002606 3751.27954 3779.36157
3754.0 0.0002664 3750.43750 3774.87695
3759.0 0.0002660 3749.59595 3771.18457
3722.0 0.0002687 3748.75537 3768.06763
3766.0 0.0002655 3747.91479 3765.37207
3888.0 0.0002572 3747.07520 3762.98975
3846.0 0.0002600 3746.23560 3760.84692
3667.0 0.0002727 3745.39697 3758.89478
3693.0 0.0002708 3744.55835 3757.09448
3718.0 0.0002690 3743.72046 3755.42114
3810.0 0.0002625 3742.88281 3753.85620
3775.0 0.0002649 3742.04541 3752.38159
3813.0 0.0002623 3741.20850 3750.98779
3726.0 0.0002684 3740.37158 3749.66260
3717.0 0.0002690 3739.53516 3748.39893
3720.0 0.0002688 3738.69873 3747.18970
3660.0 0.0002732 3737.86255 3746.02979
3799.0 0.0002632 3737.02661 3744.91528
3732.0 0.0002680 3736.19067 3743.84204
3726.0 0.0002684 3735.35498 3742.80713
3724.0 0.0002685 3734.51904 3741.80835
3788.0 0.0002640 3733.68335 3740.84595
3742.0 0.0002672 3732.84741 3739.91772
3795.0 0.0002635 3732.01172 3739.02466
3774.0 0.0002650 3731.17554 3738.16602
3824.0 0.0002615 3730.33936 3737.34546
3703.0 0.0002701 3729.50317 3736.56616
3768.0 0.0002654 3728.66650 3735.83374
3717.0 0.0002690 3727.82983 3735.15479
3755.0 0.0002663 3726.99268 3734.54395
3771.0 0.0002652 3726.15552 3734.01831
3704.0 0.0002700 3725.31738 3733.60303
3747.0 0.0002669 3724.47949 3733.33154
3658.0 0.0002734 3723.64063 3733.24585
3779.0 0.0002646 3722.80176 3733.39404
3719.0 0.0002689 3721.96240 3733.82788
3742.0 0.0002672 3721.12207 3734.59204
3734.0 0.0002678 3720.28149 3735.72290
3698.0 0.0002704 3719.44019 3737.22363
3746.0 0.0002670 3718.59839 3739.04932
3811.0 0.0002624 3717.75537 3741.06958
3818.0 0.0002619 3716.91235 3743.02905
3819.0 0.0002618 3716.06812 3744.54980
3808.0 0.0002626 3715.22339 3745.25806
3713.0 0.0002693 3714.37769 3745.02539
3678.0 0.0002719 3713.53101 3744.10864
3732.0 0.0002680 3712.68359 3743.02588
3764.0 0.0002657 3711.83496 3742.30884
3627.0 0.0002757 3710.98584 3742.36768
3818.0 0.0002619 3710.13501 3743.47095
3726.0 0.0002684 3709.28369 3745.76929
3662.0 0.0002731 3708.43140 3749.32813
3793.0 0.0002636 3707.57739 3754.12402
3734.0 0.0002678 3706.72266 3759.99585
3854.0 0.0002595 3705.86670 3766.50952
3767.0 0.0002655 3705.00952 3772.84229
3784.0 0.0002643 3704.15063 3777.84399
3715.0 0.0002692 3703.29126 3780.46802
3772.0 0.0002651 3702.42969 3780.31104
3944.0 0.0002535 3701.56738 3777.76196
3816.0 0.0002621 3700.70361 3773.17896
3868.0 0.0002585 3699.83813 3767.05127
3777.0 0.0002648 3698.97144 3759.65015
3757.0 0.0002662 3698.10278 3751.56641
3740.0 0.0002674 3697.23315 3743.45728
3736.0 0.0002677 3696.36157 3735.86157
3719.0 0.0002689 3695.48853 3729.10474
3664.0 0.0002729 3694.61377 3723.33643
3697.0 0.0002705 3693.73755 3718.58765
3607.0 0.0002772 3692.85986 3714.81763
3719.0 0.0002689 3691.97974 3711.95508
3647.0 0.0002742 3691.09863 3709.91846
3759.0 0.0002660 3690.21509 3708.63306
3693.0 0.0002708 3689.33008 3708.02686
3665.0 0.0002729 3688.44287 3708.02832
3733.0 0.0002679 3687.55420 3708.55029
3709.0 0.0002696 3686.66357 3709.45581
3789.0 0.0002639 3685.77075 3710.52393
3700.0 0.0002703 3684.87646 3711.40454
3703.0 0.0002701 3683.97949 3711.66553
3695.0 0.0002706 3683.08105 3710.93213
3718.0 0.0002690 3682.18018 3709.14404
3668.0 0.0002726 3681.27759 3706.57617
3689.0 0.0002711 3680.37256 3703.64478
3767.0 0.0002655 3679.46582 3700.70703
3667.0 0.0002727 3678.55688 3697.96265
3699.0 0.0002703 3677.64551 3695.47949
3840.0 0.0002604 3676.73218 3693.23877
3682.0 0.0002716 3675.81641 3691.20630
3670.0 0.0002725 3674.89844 3689.37695
3739.0 0.0002675 3673.97803 3687.78687
3668.0 0.0002726 3673.05591 3686.48315
3719.0 0.0002689 3672.13086 3685.50073
3679.0 0.0002718 3671.20410 3684.85156
3667.0 0.0002727 3670.27490 3684.52783
3710.0 0.0002695 3669.34277 3684.49243
3723.0 0.0002686 3668.40869 3684.67163
3719.0 0.0002689 3667.47192 3684.94214
3594.0 0.0002782 3666.53320 3685.13037
3658.0 0.0002734 3665.59180 3685.02148
3764.0 0.0002657 3664.64795 3684.41992
3652.0 0.0002738 3663.70190 3683.23315
3604.0 0.0002775 3662.75293 3681.54346
3731.0 0.0002680 3661.80176 3679.83569
3590.0 0.0002786 3660.84766 3677.80811
3659.0 0.0002733 3659.89160 3675.90234
3683.0 0.0002715 3658.93262 3674.22632
3701.0 0.0002702 3657.97119 3672.83228
3693.0 0.0002708 3657.00732 3671.74658
3681.0 0.0002717 3656.04077 3670.97437
3759.0 0.0002660 3655.07178 3670.51514
3690.0 0.0002710 3654.09985 3670.36426
3607.0 0.0002772 3653.12598 3670.51489
3679.0 0.0002718 3652.14893 3670.96118
3550.0 0.0002817 3651.16943 3671.74023
3748.0 0.0002668 3650.18726 3672.76318
3657.0 0.0002734 3649.20264 3674.09351
3631.0 0.0002754 3648.21509 3675.82349
3622.0 0.0002761 3647.22534 3678.27954
3638.0 0.0002749 3646.23267 3681.59741
3637.0 0.0002750 3645.23730 3686.32202
3636.0 0.0002750 3644.23950 3692.93457
3679.0 0.0002718 3643.23877 3701.89917
3662.0 0.0002731 3642.23560 3713.62085
3588.0 0.0002787 3641.22949 3728.35376
3742.0 0.0002672 3640.22144 3746.09595
3824.0 0.0002615 3639.21021 3766.39087
3714.0 0.0002693 3638.19629 3788.03491
3815.0 0.0002621 3637.18018 3808.56641
3663.0 0.0002730 3636.16064 3824.70801
3852.0 0.0002596 3635.13916 3832.32910
3865.0 0.0002587 3634.11450 3828.94800
3855.0 0.0002594 3633.08789 3815.24292
3805.0 0.0002628 3632.05786 3794.55811
3909.0 0.0002558 3631.02588 3770.87891
3736.0 0.0002677 3629.99121 3747.28296
3759.0 0.0002660 3628.95361 3725.58618
3731.0 0.0002680 3627.91382 3706.64014
3693.0 0.0002708 3626.87085 3690.68188
3632.0 0.0002753 3625.82593 3677.44946
3688.0 0.0002711 3624.77783 3666.91553
3660.0 0.0002732 3623.72778 3658.52612
3611.0 0.0002769 3622.67480 3651.85474
3671.0 0.0002724 3621.61963 3646.50757
3606.0 0.0002773 3620.56177 3642.15063
3587.0 0.0002788 3619.50122 3638.51855
3626.0 0.0002758 3618.43848 3635.41309
3649.0 0.0002740 3617.37280 3632.69214
3685.0 0.0002714 3616.30542 3630.25586
3604.0 0.0002775 3615.23486 3628.03394
3577.0 0.0002796 3614.16235 3625.98120
3638.0 0.0002749 3613.08740 3624.06299
3620.0 0.0002762 3612.00977 3622.25464
3528.0 0.0002834 3610.93018 3620.53711
3594.0 0.0002782 3609.84766 3618.89648
3626.0 0.0002758 3608.76343 3617.32300
3669.0 0.0002726 3607.67627 3615.80493
3631.0 0.0002754 3606.58740 3614.33667
3613.0 0.0002768 3605.49585 3612.91040
3674.0 0.0002722 3604.40259 3611.52222
3626.0 0.0002758 3603.30688 3610.16675
3609.0 0.0002771 3602.20850 3608.84155
3553.0 0.0002815 3601.10864 3607.54224
3531.0 0.0002832 3600.00610 3606.26611
3683.0 0.0002715 3598.90186 3605.01221
3686.0 0.0002713 3597.79517 3603.77661
3620.0 0.0002762 3596.68677 3602.56104
3573.0 0.0002799 3595.57593 3601.36108
3596.0 0.0002781 3594.46338 3600.17847
3622.0 0.0002761 3593.34912 3599.00977
3569.0 0.0002802 3592.23242 3597.85669
3582.0 0.0002792 3591.11401 3596.71753
3611.0 0.0002769 3589.99365 3595.59204
3545.0 0.0002821 3588.87158 3594.48096
3526.0 0.0002836 3587.74756 3593.38428
3656.0 0.0002735 3586.62183 3592.30298
3558.0 0.0002811 3585.49463 3591.23608
3604.0 0.0002775 3584.36499 3590.18579
3695.0 0.0002706 3583.23438 3589.15381
3677.0 0.0002720 3582.10156 3588.13989
3626.0 0.0002758 3580.96753 3587.14624
3568.0 0.0002803 3579.83154 3586.17505
3680.0 0.0002717 3578.69434 3585.22949
3588.0 0.0002787 3577.55542 3584.31104
3481.0 0.0002873 3576.41504 3583.42480
3511.0 0.0002848 3575.27368 3582.57471
3569.0 0.0002802 3574.13037 3581.76392
3583.0 0.0002791 3572.98584 3581.00049
3556.0 0.0002812 3571.83984 3580.28735
3625.0 0.0002759 3570.69312 3579.63599
3583.0 0.0002791 3569.54443 3579.05493
3605.0 0.0002774 3568.39526 3578.55957
3608.0 0.0002772 3567.24414 3578.17065
3574.0 0.0002798 3566.09277 3577.92480
3599.0 0.0002779 3564.93994 3577.85034
3573.0 0.0002799 3563.78589 3578.05054
3608.0 0.0002772 3562.63135 3578.60205
3527.0 0.0002835 3561.47510 3579.62769
3588.0 0.0002787 3560.31860 3581.28613
3604.0 0.0002775 3559.16089 3583.77148
3637.0 0.0002750 3558.00269 3587.30591
3636.0 0.0002750 3556.84375 3592.11743
3642.0 0.0002746 3555.68359 3598.42651
3714.0 0.0002693 3554.52319 3606.38623
3650.0 0.0002740 3553.36182 3616.02783
3610.0 0.0002770 3552.20020 3627.16455
3628.0 0.0002756 3551.03784 3639.24219
3606.0 0.0002773 3549.87524 3651.13330
3654.0 0.0002737 3548.71167 3661.28320
3609.0 0.0002771 3547.54834 3667.77002
3661.0 0.0002731 3546.38452 3669.19971
3746.0 0.0002670 3545.21997 3665.19507
3672.0 0.0002723 3544.05566 3656.50708
3671.0 0.0002724 3542.89063 3644.46899
3717.0 0.0002690 3541.72607 3630.70068
3563.0 0.0002807 3540.56079 3616.67456
3646.0 0.0002743 3539.39600 3603.45972
3560.0 0.0002809 3538.23071 3591.64795
3632.0 0.0002753 3537.06592 3581.47217
3508.0 0.0002851 3535.90112 3572.92554
3579.0 0.0002794 3534.73608 3565.86938
3487.0 0.0002868 3533.57178 3560.09863
3561.0 0.0002808 3532.40723 3555.38696
3642.0 0.0002746 3531.24341 3551.51953
3438.0 0.0002909 3530.07935 3548.30322
3634.0 0.0002752 3528.91626 3545.58447
3556.0 0.0002812 3527.75366 3543.23804
3564.0 0.0002806 3526.59106 3541.17407
3442.0 0.0002905 3525.42969 3539.32813
3532.0 0.0002831 3524.26807 3537.65820
3496.0 0.0002860 3523.10791 3536.11230
3460.0 0.0002890 3521.94800 3534.71069
3523.0 0.0002838 3520.78906 3533.42505
3444.0 0.0002904 3519.63062 3532.25000
3514.0 0.0002846 3518.47363 3531.18579
3491.0 0.0002865 3517.31714 3530.23584
3663.0 0.0002730 3516.16162 3529.40527
3554.0 0.0002814 3515.00732 3528.69971
3506.0 0.0002852 3513.85376 3528.12036
3501.0 0.0002856 3512.70190 3527.67651
3481.0 0.0002873 3511.55078 3527.35498
3516.0 0.0002844 3510.40112 3527.13745
3523.0 0.0002838 3509.25244 3527.00024
3535.0 0.0002829 3508.10547 3526.92773
3568.0 0.0002803 3506.95996 3526.92896
3557.0 0.0002811 3505.81543 3527.01978
3503.0 0.0002855 3504.67285 3527.19800
3489.0 0.0002866 3503.53149 3527.41162
3622.0 0.0002761 3502.39185 3527.55322
3599.0 0.0002779 3501.25366 3527.62695
3496.0 0.0002860 3500.11768 3527.29248
3561.0 0.0002808 3498.98340 3526.70483
3646.0 0.0002743 3497.85059 3526.02002
3542.0 0.0002823 3496.71997 3525.40698
3567.0 0.0002803 3495.59082 3525.02246
3497.0 0.0002860 3494.46411 3524.98950
3578.0 0.0002795 3493.33911 3525.40845
3492.0 0.0002864 3492.21655 3526.38599
3543.0 0.0002822 3491.09546 3528.04614
3538.0 0.0002826 3489.97729 3530.56519
3570.0 0.0002801 3488.86133 3534.17969
3558.0 0.0002811 3487.74707 3539.21802
3567.0 0.0002803 3486.63550 3546.10767
3595.0 0.0002782 3485.52588 3555.50049
3496.0 0.0002860 3484.41919 3567.76147
3568.0 0.0002803 3483.31445 3583.65723
3661.0 0.0002731 3482.21289 3603.80127
3519.0 0.0002842 3481.11328 3628.65601
3618.0 0.0002764 3480.01660 3658.40063
3581.0 0.0002793 3478.92285 3692.68530
3569.0 0.0002802 3477.83130 3730.29468
3648.0 0.0002741 3476.74268 3768.65503
3727.0 0.0002683 3475.65674 3803.39038
3784.0 0.0002643 3474.57373 3828.70093
3829.0 0.0002612 3473.49341 3839.24414
3832.0 0.0002610 3472.41650 3833.06934
3867.0 0.0002586 3471.34229 3813.01904
3963.0 0.0002523 3470.27100 3785.05957
3782.0 0.0002644 3469.20288 3755.35181
3714.0 0.0002693 3468.13745 3728.44214
3764.0 0.0002657 3467.07568 3706.97314
3631.0 0.0002754 3466.01660 3691.84888
3741.0 0.0002673 3464.96118 3683.31494
3748.0 0.0002668 3463.90845 3680.08398
3619.0 0.0002763 3462.85962 3680.30347
3799.0 0.0002632 3461.81396 3681.70630
3673.0 0.0002723 3460.77124 3681.94727
3635.0 0.0002751 3459.73218 3678.77441
3660.0 0.0002732 3458.69629 3670.34326
3643.0 0.0002745 3457.66431 3655.95947
3660.0 0.0002732 3456.63525 3636.60010
3570.0 0.0002801 3455.61011 3614.43677
3563.0 0.0002807 3454.58813 3591.76343
3549.0 0.0002818 3453.56982 3570.27271
3600.0 0.0002778 3452.55542 3550.91748
3525.0 0.0002837 3451.54419 3534.08496
3525.0 0.0002837 3450.53687 3519.80737
3515.0 0.0002845 3449.53296 3507.90942
3410.0 0.0002933 3448.53296 3498.10840
3515.0 0.0002845 3447.53613 3490.07617
3457.0 0.0002893 3446.54346 3483.48389
3461.0 0.0002889 3445.55469 3478.03027
3466.0 0.0002885 3444.56909 3473.45752
3448.0 0.0002900 3443.58765 3469.55640
3501.0 0.0002856 3442.60962 3466.16382
3492.0 0.0002864 3441.63574 3463.16064
3483.0 0.0002871 3440.66504 3460.45654
3385.0 0.0002954 3439.69873 3457.98926
3466.0 0.0002885 3438.73584 3455.71167
3500.0 0.0002857 3437.77686 3453.59229
3436.0 0.0002910 3436.82202 3451.60352
3388.0 0.0002952 3435.87036 3449.72705
3457.0 0.0002893 3434.92285 3447.94824
3565.0 0.0002805 3433.97876 3446.25415
3397.0 0.0002944 3433.03882 3444.63428
3482.0 0.0002872 3432.10229 3443.08032
3489.0 0.0002866 3431.16968 3441.58472
3526.0 0.0002836 3430.24072 3440.14185
3402.0 0.0002939 3429.31567 3438.74585
3418.0 0.0002926 3428.39453 3437.39307
3520.0 0.0002841 3427.47656 3436.07666
3416.0 0.0002927 3426.56274 3434.79663
3408.0 0.0002934 3425.65210 3433.54785
3352.0 0.0002983 3424.74536 3432.32910
3484.0 0.0002870 3423.84204 3431.13623
3490.0 0.0002865 3422.94263 3429.96875
3512.0 0.0002847 3422.04663 3428.82373
3391.0 0.0002949 3421.15381 3427.70020
3387.0 0.0002952 3420.26489 3426.59521
3390.0 0.0002950 3419.37891 3425.51025
3342.0 0.0002992 3418.49683 3424.44189
3547.0 0.0002819 3417.61768 3423.38965
3440.0 0.0002907 3416.74219 3422.35181
3468.0 0.0002884 3415.86963 3421.32935
3417.0 0.0002927 3415.00049 3420.32056
3395.0 0.0002946 3414.13477 3419.32471
3401.0 0.0002940 3413.27148 3418.49487
3499.0 0.0002858 3412.41187 3417.52466
3456.0 0.0002894 3411.55469 3416.56396
3463.0 0.0002888 3410.70068 3415.61450
3328.0 0.0003005 3409.84937 3414.67603
3422.0 0.0002922 3409.00122 3413.74683
3308.0 0.0003023 3408.15527 3412.82642
3385.0 0.0002954 3407.31226 3411.91553
3478.0 0.0002875 3406.47217 3411.01367
3373.0 0.0002965 3405.63403 3410.11987
3353.0 0.0002982 3404.79858 3409.23438
3411.0 0.0002932 3403.96509 3408.35645
3352.0 0.0002983 3403.13428 3407.48633
3482.0 0.0002872 3402.30542 3406.62402
3355.0 0.0002981 3401.47876 3405.91016
3473.0 0.0002879 3400.65430 3405.06494
3468.0 0.0002884 3399.83105 3404.22705
3333.0 0.0003000 3399.01025 3403.39526
3440.0 0.0002907 3398.19067 3402.57153
3392.0 0.0002948 3397.37329 3401.75488
3436.0 0.0002910 3396.55664 3400.94556
3340.0 0.0002994 3395.74194 3400.14355
3397.0 0.0002944 3394.92847 3399.34985
3246.0 0.0003081 3394.11621 3398.56372
3476.0 0.0002877 3393.30518 3397.70703
3401.0 0.0002940 3392.49463 3396.93970
3407.0 0.0002935 3391.68555 3396.13940
3382.0 0.0002957 3390.87671 3395.39307
3343.0 0.0002991 3390.06885 3394.65894
3327.0 0.0003006 3389.26123 3393.93970
3402.0 0.0002939 3388.45435 3393.23853
3418.0 0.0002926 3387.64746 3392.56665
3418.0 0.0002926 3386.84106 3391.91406
3449.0 0.0002899 3386.03467 3391.29517
3378.0 0.0002960 3385.22778 3390.71753
3348.0 0.0002987 3384.42139 3390.19019
3357.0 0.0002979 3383.61426 3389.72021
3367.0 0.0002970 3382.80688 3389.31665
3330.0 0.0003003 3381.99878 3388.98169
3394.0 0.0002946 3381.19043 3388.71802
3367.0 0.0002970 3380.38135 3388.51538
3427.0 0.0002918 3379.57104 3388.35425
3397.0 0.0002944 3378.76001 3388.19702
3401.0 0.0002940 3377.94751 3387.98022
3374.0 0.0002964 3377.13428 3387.63379
3355.0 0.0002981 3376.31934 3387.10229
3508.0 0.0002851 3375.50342 3386.37793
3431.0 0.0002915 3374.68555 3385.50781
3322.0 0.0003010 3373.86621 3384.56934
3456.0 0.0002894 3373.04541 3383.63110
3364.0 0.0002973 3372.22241 3382.74243
3360.0 0.0002976 3371.39771 3381.92920
3381.0 0.0002958 3370.57080 3381.19556
3400.0 0.0002941 3369.74219 3380.55029
3479.0 0.0002874 3368.91089 3379.98022
3453.0 0.0002896 3368.07788 3379.49878
3457.0 0.0002893 3367.24219 3379.11182
3418.0 0.0002926 3366.40454 3378.82080
3365.0 0.0002972 3365.56421 3378.61548
3383.0 0.0002956 3364.72144 3378.48120
3365.0 0.0002972 3363.87622 3378.40088
3324.0 0.0003008 3363.02808 3378.35962
3320.0 0.0003012 3362.17798 3378.33960
3431.0 0.0002915 3361.32471 3378.32422
3299.0 0.0003031 3360.46924 3378.30957
3442.0 0.0002905 3359.61108 3378.32739
3390.0 0.0002950 3358.75024 3378.44751
3380.0 0.0002959 3357.88696 3378.77344
3394.0 0.0002946 3357.02075 3379.42261
3407.0 0.0002935 3356.15259 3380.53003
3350.0 0.0002985 3355.28149 3382.24780
3359.0 0.0002977 3354.40845 3384.75635
3366.0 0.0002971 3353.53271 3388.26514
3392.0 0.0002948 3352.65527 3393.09570
3362.0 0.0002974 3351.77563 3399.31396
3347.0 0.0002988 3350.89355 3407.23438
3469.0 0.0002883 3350.01025 3417.03564
3458.0 0.0002892 3349.12500 3428.79419
3504.0 0.0002854 3348.23828 3442.42139
3372.0 0.0002966 3347.35034 3457.54248
3466.0 0.0002885 3346.46143 3473.34375
3474.0 0.0002879 3345.57153 3488.40601
3502.0 0.0002856 3344.68115 3500.70142
3503.0 0.0002855 3343.79077 3508.04614
3430.0 0.0002915 3342.89990 3509.03638
3556.0 0.0002812 3342.00952 3503.92139
3476.0 0.0002877 3341.11987 3494.50781
3593.0 0.0002783 3340.23120 3483.28931
3505.0 0.0002853 3339.34375 3472.52295
3426.0 0.0002919 3338.45874 3463.82666
3495.0 0.0002861 3337.57568 3458.18188
3399.0 0.0002942 3336.69507 3456.07007
3453.0 0.0002896 3335.81812 3457.57349
3369.0 0.0002968 3334.94482 3462.39893
3436.0 0.0002910 3334.07617 3469.82080
3430.0 0.0002915 3333.21216 3478.56274
3441.0 0.0002906 3332.35400 3486.72266
3505.0 0.0002853 3331.50171 3491.96655
3455.0 0.0002894 3330.65674 3492.19946
3509.0 0.0002850 3329.81958 3486.50146
3491.0 0.0002865 3328.99072 3475.56982
3516.0 0.0002844 3328.17114 3461.21924
3457.0 0.0002893 3327.36133 3445.43530
3491.0 0.0002865 3326.56299 3429.73169
3437.0 0.0002910 3325.77637 3414.99756
3375.0 0.0002963 3325.00269 3401.63745
3491.0 0.0002865 3324.24292 3389.78076
3459.0 0.0002891 3323.49829 3379.43311
3337.0 0.0002997 3322.76953 3370.27222
3426.0 0.0002919 3322.05786 3362.75488
3298.0 0.0003032 3321.36475 3356.46899
3392.0 0.0002948 3320.69116 3351.24683
3299.0 0.0003031 3320.03857 3346.91455
3363.0 0.0002974 3319.40796 3343.30884
3318.0 0.0003014 3318.80127 3340.28735
3315.0 0.0003017 3318.21948 3337.73389
3292.0 0.0003038 3317.66431 3335.55591
3333.0 0.0003000 3317.13721 3333.68140
3270.0 0.0003058 3316.63965 3332.05518
3314.0 0.0003018 3316.17358 3330.59375
3319.0 0.0003013 3315.74072 3329.35254
3414.0 0.0002929 3315.34229 3328.26343
3336.0 . . .
loop_
_refln_index_h
_refln_index_k
_refln_index_l
_refln_observed_status
_refln_F_squared_meas
_refln_F_squared_calc
_refln_phase_calc
_refln_d_spacing
_gsas_i100_meas
1 1 0 o 7783.018 8089.797 180.00 7.07327 11.17
0 0 1 o -766.396 272.162 180.00 5.01619 0.55
2 0 0 o 1144.098 2025.688 0.00 5.00156 1.09
1 1 1 o 25962.271 26270.396 0.00 4.09171 27.66
2 0 1 o 2697.049 2200.009 180.00 3.54180 2.60
2 2 0 o 701.586 174.797 0.00 3.53664 1.32
2 1 1 o -0.377 24.805 0.00 3.33870 0.00
3 1 0 o 14313.470 14058.436 0.00 3.16326 8.58
2 2 1 o 183228.30 184815.73 180.00 2.89046 100.00
3 1 1 o 4313.490 3669.667 180.00 2.67567 3.53
0 0 2 o 96072.37 96188.23 0.00 2.50810 9.23
4 0 0 o 113980.34 115478.34 0.00 2.50078 22.31
3 2 1 o 5276.177 5218.737 0.00 2.42778 4.98
1 1 2 o 2691.999 2531.201 180.00 2.36389 0.80
3 3 0 o 24551.963 24987.516 180.00 2.35776 4.22
2 0 2 o 288.228 373.478 0.00 2.24200 0.11
4 0 1 o 4349.081 5130.335 180.00 2.23807 1.23
4 2 0 o 759.825 950.613 0.00 2.23677 0.28
2 1 2 o 661.367 539.448 0.00 2.18772 0.51
4 1 1 o 2814.583 2178.591 0.00 2.18407 2.15
3 3 1 o 923.065 399.415 0.00 2.13380 0.33
2 2 2 o 4046.509 4786.174 0.00 2.04585 0.97
4 2 1 o 163.364 213.071 180.00 2.04287 0.12
3 1 2 o 17119.742 16855.453 0.00 1.96530 8.31
5 1 0 o 3204.784 3163.263 180.00 1.96177 0.72
3 2 2 o 506.441 485.595 0.00 1.86052 0.28
4 3 1 o 198.571 251.803 180.00 1.85828 0.11
5 1 1 o 18818.543 18900.404 0.00 1.82702 7.75
4 0 2 o 121976.02 121796.55 0.00 1.77090 24.98
4 4 0 o 112489.00 113250.30 0.00 1.76832 11.44
4 1 2 o 13.163 22.710 180.00 1.74378 0.01
5 2 1 o 22.009 37.933 180.00 1.74193 0.01
3 3 2 o 23569.680 22771.895 180.00 1.71788 4.47
5 3 0 o 4824.305 4637.812 0.00 1.71552 0.82
0 0 3 o 2611.761 2848.479 180.00 1.67206 0.12
4 2 2 o 1842.735 1778.663 0.00 1.66935 0.81
4 4 1 o 1761.722 1577.484 180.00 1.66773 0.42
6 0 0 o 204.862 174.216 0.00 1.66719 0.03
1 1 3 o 7150.085 6521.318 0.00 1.62722 1.12
5 3 1 o 10398.741 10039.170 180.00 1.62322 3.38
2 0 3 o 127.742 449.183 180.00 1.58579 0.03
6 0 1 o 1631.995 1953.756 180.00 1.58209 0.30
6 2 0 o 6336.773 7227.217 0.00 1.58163 0.89
2 1 3 o -5.269 204.828 0.00 1.56624 0.00
4 3 2 o -0.449 17.427 0.00 1.56400 0.00
6 1 1 o -0.768 29.798 180.00 1.56267 0.00
5 1 2 o 370.448 62.079 0.00 1.54523 0.37
2 2 3 o 84390.66 83833.68 180.00 1.51163 12.57
6 2 1 o 70745.04 70490.80 180.00 1.50843 20.78
5 2 2 o 172.894 136.241 0.00 1.49272 0.06
5 4 1 o 117.789 91.601 180.00 1.49156 0.04
3 1 3 o 3642.654 3729.973 180.00 1.47825 0.92
4 4 2 o 62162.80 62636.66 0.00 1.44523 8.36
3 2 3 o 431.459 563.275 180.00 1.43208 0.15
6 3 1 o 14.281 23.036 180.00 1.42936 0.01
5 3 2 o 1292.091 1337.424 0.00 1.41597 0.27
5 5 0 o 6783.931 5790.516 0.00 1.41465 0.71
7 1 0 o 8070.011 7382.577 0.00 1.41465 0.98
4 0 3 o 733.309 151.366 180.00 1.38999 0.30
6 0 2 o 506.035 360.294 180.00 1.38843 0.08
6 4 0 o 84.453 36.120 0.00 1.38718 0.02
4 1 3 o 784.546 928.337 180.00 1.37676 0.26
6 1 2 o 105.202 161.059 180.00 1.37524 0.03
3 3 3 o 17.473 5.907 0.00 1.36390 0.05
7 1 1 o 498.602 519.099 180.00 1.36155 0.12
5 5 1 o 22903.879 23888.699 0.00 1.36155 2.83
4 2 3 o 81.015 102.159 180.00 1.33923 0.03
6 2 2 o 526.704 577.265 0.00 1.33784 0.34
6 4 1 o 913.304 977.969 180.00 1.33700 0.27
5 4 2 o 2.888 2.718 180.00 1.32603 0.00
7 2 1 o 1356.347 1439.105 180.00 1.32522 0.42
7 3 0 o 25869.055 25441.549 180.00 1.31347 3.12
4 3 3 o 377.124 165.599 0.00 1.28298 0.11
6 3 2 o 266.298 192.272 0.00 1.28175 0.08
5 1 3 o 14001.715 13776.627 0.00 1.27255 3.10
7 3 1 o 464.563 291.384 180.00 1.27064 0.29
0 0 4 o 70101.34 71562.42 0.00 1.25405 1.94
8 0 0 o 35353.75 35404.03 0.00 1.25039 1.83
5 2 3 o 101.346 171.638 0.00 1.24274 0.03
6 5 1 o 162.533 275.373 0.00 1.24096 0.05
1 1 4 o 3170.615 3462.765 180.00 1.23479 0.30
5 5 2 o 377.923 390.368 180.00 1.23217 0.04
7 1 2 o 12382.222 12752.637 0.00 1.23217 2.60
2 0 4 o 315.945 240.468 0.00 1.21640 0.04
4 4 3 o 3147.807 2981.289 180.00 1.21493 0.32
6 4 2 o 8.755 8.906 180.00 1.21389 0.00
8 0 1 o 1979.066 1926.373 180.00 1.21326 0.22
8 2 0 o 2152.461 1995.874 0.00 1.21306 0.27
2 1 4 o 123.344 97.229 180.00 1.20750 0.03
7 2 2 o 114.009 182.849 180.00 1.20505 0.03
7 4 1 o 64.861 80.686 0.00 1.20444 0.02
8 1 1 o 65.237 81.153 180.00 1.20444 0.02
5 3 3 o 4212.117 3354.490 180.00 1.19740 0.82
2 2 4 o -404.327 73.476 0.00 1.18194 0.07
6 0 3 o 1342.230 1303.309 180.00 1.18060 0.16
8 2 1 o 349.148 324.774 0.00 1.17907 0.07
6 6 0 o 1421.812 1307.785 0.00 1.17888 0.09
6 1 3 o -1.656 46.638 180.00 1.17246 0.00
3 1 4 o 2217.973 2388.106 0.00 1.16578 0.35
7 3 2 o 10361.015 10339.983 180.00 1.16357 1.93
7 5 0 o 3614.622 3586.063 0.00 1.16284 0.32
6 2 3 o 35871.13 35817.86 180.00 1.14902 6.81
6 6 1 o 30653.402 29768.639 180.00 1.14761 2.90
3 2 4 o 84.250 81.668 180.00 1.14273 0.02
5 4 3 o 23.131 24.033 0.00 1.14152 0.01
6 5 2 o 46.775 45.791 0.00 1.14065 0.01
8 3 1 o 146.287 172.468 180.00 1.14013 0.04
7 5 1 o 1494.426 1502.007 180.00 1.13280 0.24
4 0 4 o 38454.77 39358.03 0.00 1.12100 3.58
8 0 2 o 36894.86 37186.31 0.00 1.11903 3.48
8 4 0 o 25141.057 24731.156 0.00 1.11838 2.28
4 1 4 o 6.224 8.571 0.00 1.11402 0.00
6 3 3 o 225.609 216.244 0.00 1.11290 0.06
7 4 2 o 6.120 5.024 0.00 1.11210 0.00
8 1 2 o 18.119 14.876 0.00 1.11210 0.00
3 3 4 o 8957.938 8435.229 180.00 1.10718 0.83
9 1 0 o 568.412 285.580 0.00 1.10466 0.13
4 2 4 o 150.629 75.636 0.00 1.09386 0.04
8 2 2 o 1128.211 1304.241 0.00 1.09204 0.25
8 4 1 o 3255.214 3682.507 180.00 1.09158 0.53
7 1 3 o 140.537 132.389 180.00 1.07998 0.05
5 5 3 o 10086.693 9769.496 0.00 1.07998 0.90
9 1 1 o 10658.397 10487.615 0.00 1.07881 1.95
6 4 3 o 306.058 189.772 180.00 1.06761 0.07
6 6 2 o 5891.681 4596.294 0.00 1.06690 0.54
4 3 4 o 11.699 5.386 180.00 1.06256 0.00
7 2 3 o 107.135 212.482 0.00 1.06158 0.03
8 3 2 o 1.095 13.078 180.00 1.06088 0.00
7 6 1 o 2.611 17.266 0.00 1.06047 0.00
9 2 1 o 6.274 41.481 180.00 1.06047 0.00
5 1 4 o 189.210 165.123 180.00 1.05661 0.05
7 5 2 o 3299.382 3374.957 0.00 1.05497 0.55
9 3 0 o 1115.411 1020.826 0.00 1.05442 0.09
5 2 4 o -1.480 36.300 180.00 1.03936 0.00
8 5 1 o -0.265 6.494 0.00 1.03741 0.00
7 3 3 o 104.918 44.746 180.00 1.03290 0.09
9 3 1 o 4196.548 3885.661 180.00 1.03187 0.71
4 4 4 o 22880.715 23218.383 0.00 1.02293 1.97
8 4 2 o 20451.361 19876.318 0.00 1.02144 3.57
6 5 3 o 36.733 34.536 180.00 1.01676 0.01
5 3 4 o 2235.926 2325.284 0.00 1.01240 0.37
9 1 2 o 11.795 28.736 180.00 1.01095 0.03
7 7 0 o 14342.133 14969.181 180.00 1.01047 0.65
0 0 5 o 400.227 142.781 180.00 1.00324 0.03
6 0 4 o 23.405 21.467 180.00 1.00218 0.00
8 0 3 o 3597.778 2712.966 180.00 1.00136 0.34
10 0 0 o 3499.655 2764.025 180.00 1.00031 0.19
8 6 0 o 188.344 146.319 0.00 1.00031 0.02
6 1 4 o -1.876 43.956 0.00 0.99719 0.00
7 4 3 o 5.304 19.922 180.00 0.99638 0.00
8 1 3 o 25.288 94.993 0.00 0.99638 0.01
9 2 2 o 7.898 13.318 180.00 0.99581 0.00
7 6 2 o 56.896 95.942 0.00 0.99581 0.01
9 4 1 o 428.004 699.655 0.00 0.99546 0.11
1 1 5 o 2563.255 3161.638 0.00 0.99330 0.19
7 7 1 o 137.042 554.520 180.00 0.99057 0.06
2 0 5 o 117.580 84.720 180.00 0.98364 0.02
6 2 4 o 2353.091 1985.177 0.00 0.98265 0.44
8 2 3 o 327.465 289.778 0.00 0.98188 0.06
10 0 1 o 1991.534 2018.116 180.00 0.98100 0.22
8 6 1 o 24.217 24.430 0.00 0.98100 0.00
10 2 0 o 2804.710 2852.176 0.00 0.98089 0.23
2 1 5 o 71.985 188.523 180.00 0.97892 0.02
5 4 4 o 0.442 0.517 0.00 0.97794 0.00
8 5 2 o 9.913 5.039 180.00 0.97664 0.00
10 1 1 o 361.556 192.030 0.00 0.97631 0.09
9 3 2 o 159.340 265.854 0.00 0.97202 0.03
9 5 0 o 79.890 106.804 0.00 0.97159 0.04
2 2 5 o 23814.221 23588.879 180.00 0.96516 2.14
6 6 3 o 17196.717 17149.771 180.00 0.96349 1.52
10 2 1 o 15160.779 14613.894 180.00 0.96265 2.68
6 3 4 o 54.886 59.613 180.00 0.95977 0.01
8 3 3 o 40.623 40.979 0.00 0.95905 0.01
7 5 3 o 1283.185 1351.134 180.00 0.95467 0.21
3 1 5 o 695.147 685.153 180.00 0.95630 0.11
9 5 1 o 8392.680 8603.499 0.00 0.95386 1.50
3 2 5 o 27.908 24.052 0.00 0.94345 0.01
9 4 2 o 0.000 0.003 180.00 0.94140 0.00
10 3 1 o -1.274 28.036 0.00 0.94111 0.00
5 5 4 o 609.490 595.995 0.00 0.93841 0.13
7 1 4 o 3027.953 3002.045 0.00 0.93841 0.52
7 7 2 o 7768.877 7477.392 180.00 0.93726 0.71
4 0 5 o 712.097 493.970 180.00 0.93111 0.11
6 4 4 o 22.431 23.659 0.00 0.93026 0.01
8 4 3 o 1044.556 933.452 180.00 0.92961 0.23
10 0 2 o 81.289 78.144 180.00 0.92914 0.00
8 6 2 o 476.136 431.535 0.00 0.92914 0.12
10 4 0 o 107.354 119.323 180.00 0.92877 0.01
4 1 5 o 362.392 304.253 0.00 0.92710 0.09
7 2 4 o 82.826 48.499 0.00 0.92627 0.02
10 1 2 o 31.155 30.212 0.00 0.92516 0.01
8 7 1 o 134.789 159.066 0.00 0.92488 0.04
3 3 5 o 12.234 77.729 0.00 0.92314 0.01
9 1 3 o 4031.105 4395.171 0.00 0.92168 0.70
4 2 5 o 0.740 0.008 180.00 0.91538 0.00
10 2 2 o 2016.549 1812.048 0.00 0.91351 0.39
10 4 1 o 821.146 751.254 180.00 0.91324 0.20
9 2 3 o 2.659 2.504 0.00 0.91016 0.00
7 6 3 o 33.132 31.205 0.00 0.91016 0.01
9 6 1 o 210.246 128.811 0.00 0.90946 0.06
7 3 4 o 7099.242 7209.462 180.00 0.90703 1.42
9 5 2 o 530.501 489.881 0.00 0.90599 0.24
11 1 0 o 5795.854 5714.113 0.00 0.90564 0.59
4 3 5 o 113.528 72.468 180.00 0.89680 0.03
6 5 4 o 32.324 13.197 180.00 0.89604 0.01
8 5 3 o 27.394 15.421 180.00 0.89546 0.01
10 3 2 o 53.727 45.439 180.00 0.89504 0.02
5 1 5 o 3373.664 3403.212 0.00 0.89322 0.66
9 3 3 o 3188.426 3165.951 180.00 0.89189 0.64
11 1 1 o 72.653 59.051 180.00 0.89123 0.04
