#------------------------------------------------------------------------------
#$Date: 2021-06-21 10:52:39 +0300 (Mon, 21 Jun 2021) $
#$Revision: 266593 $
#$URL: file:///home/coder/svn-repositories/cod/cif/1/56/36/1563622.cif $
#------------------------------------------------------------------------------
#
# This file is available in the Crystallography Open Database (COD),
# http://www.crystallography.net/
#
# All data on this site have been placed in the public domain by the
# contributors.
#
data_1563622
loop_
_publ_author_name
'Zubkov, Vladimir G.'
'Tarakina, Nadezda V.'
'Leonidov, Ivan I.'
'Tyutyunnik, Alexander P.'
'Surat, Ludmila L.'
'Melkozerova, Marina A.'
'Zabolotskaya, Elena V.'
'Kellerman, Dina G.'
_publ_section_title
;
 Synthesis and crystal structure of Ln2M2+Ge4O12, Ln=rare-earth element or
 Y; M=Ca, Mn, Zn
;
_journal_issue                   5
_journal_name_full               'Journal of Solid State Chemistry'
_journal_page_first              1186
_journal_page_last               1193
_journal_paper_doi               10.1016/j.jssc.2010.03.027
_journal_volume                  183
_journal_year                    2010
_chemical_formula_sum            'Ca Dy2 Ge4 O12'
_chemical_formula_weight         847.43
_space_group_IT_number           125
_space_group_name_Hall           '-P 4a 2b'
_space_group_name_H-M_alt        'P 4/n b m :2'
_symmetry_cell_setting           tetragonal
_symmetry_space_group_name_H-M   'P 4/n b m :2'
_cell_angle_alpha                90.0
_cell_angle_beta                 90.0
_cell_angle_gamma                90.0
_cell_formula_units_Z            2
_cell_length_a                   10.01432(7)
_cell_length_b                   10.01432
_cell_length_c                   5.08260(5)
_cell_volume                     509.717(6)
_computing_structure_refinement  GSAS
_diffrn_radiation_polarisn_ratio 0.8
_diffrn_radiation_probe          x-ray
_diffrn_radiation_wavelength     1.54056
_exptl_absorpt_correction_T_max  3.77901
_exptl_absorpt_correction_T_min  1.89965
_exptl_absorpt_process_details
;   GSAS Absorption/surface roughness correction: function number 4
 Flat plate transmission absorption correction
Terms =    -0.41405         0.0000    
Correction is refined.
;
_pd_calc_method                  'Rietveld Refinement'
_pd_instr_location               ' ?'
_pd_meas_2theta_range_inc        0.02
_pd_meas_2theta_range_max        119.98
_pd_meas_2theta_range_min        5.0
_pd_meas_number_of_points        5750
_pd_proc_2theta_range_inc        0.02
_pd_proc_2theta_range_max        119.92444
_pd_proc_2theta_range_min        4.94444
_pd_proc_info_datetime           2010-02-27T12:52:19
_pd_proc_info_excluded_regions   ' ?'
_pd_proc_ls_background_function
;   GSAS Background function number 1 with 36 terms.
 Shifted Chebyshev function of 1st kind
      1:    3653.83     2:   -1568.92     3:    532.118     4:   -401.287    
      5:    57.3818     6:    12.3040     7:   -14.3137     8:    20.4857    
      9:    9.24544    10:   -16.2749    11:    20.0237    12:   -7.95956    
     13:   -4.87195    14:    8.20749    15:  -0.855989    16:   -3.22036    
     17:    22.6036    18:   -12.9067    19:    5.59617    20:    4.79658    
     21:   -12.3762    22:    24.4733    23:   -22.6435    24:    9.65119    
     25:    12.4290    26:   -19.9741    27:    25.9394    28:   -13.3898    
     29:  -0.178948    30:    13.4176    31:   -19.0337    32:    8.41067    
     33:    4.64225    34:   -10.3509    35:    11.0012    36:   -5.21255    
;
_pd_proc_ls_peak_cutoff          0.00100
_pd_proc_ls_profile_function
;
 CW Profile function number 2 with  18 terms
 Profile coefficients for Simpson's rule integration of pseudovoigt function
 C.J. Howard (1982). J. Appl. Cryst.,15,615-620.
 P. Thompson, D.E. Cox & J.B. Hastings (1987). J. Appl. Cryst.,20,79-83.
 #1(GU)   =   18.280 #2(GV)   =  -14.900 #3(GW)   =   17.714
 #4(LX)   =    2.134 #5(LY)   =    7.278 #6(trns) =    0.000
 #7(asym) =   1.8456 #8(shft) =   0.0000 #9(GP)   =    0.000
 #10(stec)=     0.00 #11(ptec)=     0.00 #12(sfec)=     0.00
 #13(L11) =    0.000 #14(L22) =    0.000 #15(L33) =    0.000
 #16(L12) =    0.000 #17(L13) =    0.000 #18(L23) =    0.000
 Peak tails are ignored  where the intensity is below 0.0010 times the peak
   Aniso. broadening axis   0.0   0.0   1.0
;
_pd_proc_ls_prof_R_factor        0.0153
_pd_proc_ls_prof_wR_expected     0.0163
_pd_proc_ls_prof_wR_factor       0.0219
_pd_proc_number_of_points        5750
_pd_spec_mounting                ' ?'
_refine_ls_goodness_of_fit_all   1.35
_refine_ls_matrix_type           full
_refine_ls_number_parameters     56
_refine_ls_number_restraints     0
_refine_ls_R_Fsqd_factor         0.04145
_refine_ls_shift/su_max          0.01
_refine_ls_shift/su_mean         0.00
_reflns_d_resolution_high        0.892
_reflns_d_resolution_low         7.081
_reflns_limit_h_max              11
_reflns_limit_h_min              0
_reflns_limit_k_max              8
_reflns_limit_k_min              0
_reflns_limit_l_max              5
_reflns_limit_l_min              0
_reflns_number_total             212
_cod_data_source_file            JSSC-2010-183-1186.cif
_cod_data_source_block           DY2CAGE4O12_publ
_cod_depositor_comments
;
The following automatic conversions were performed:

data item '_geom_angle_publ_flag' value 'N' was changed to 'n' in
accordance with the built-in table derived from the CIF Core
dictionary named 'cif_core.dic' version 2.4.5 last updated on
2014-11-21 (127 times).

data item '_geom_bond_publ_flag' value 'N' was changed to 'n' in
accordance with the built-in table derived from the CIF Core
dictionary named 'cif_core.dic' version 2.4.5 last updated on
2014-11-21 (56 times).

Automatic conversion script
Id: cif_fix_values 8369 2020-08-20 11:38:08Z andrius 
;
_cod_original_cell_volume        509.717(9)
_cod_original_sg_symbol_H-M      'P 4/n b m'
_cod_original_formula_sum        'Ca1.00 Dy2.00 Ge4 O12'
_cod_database_code               1563622
_gsas_exptl_extinct_corr_t_min   1.00000
_gsas_exptl_extinct_corr_t_max   1.00000
loop_
_symmetry_equiv_pos_site_id
_symmetry_equiv_pos_as_xyz
1 +x,+y,+z
2 -y+1/2,+x,+z
3 -x+1/2,-y+1/2,+z
4 +y,-x+1/2,+z
5 -x,+y+1/2,+z
6 -y,-x,+z
7 +x+1/2,-y,+z
8 +y+1/2,+x+1/2,+z
-1 -x,-y,-z
-2 +y+1/2,-x,-z
-3 +x+1/2,+y+1/2,-z
-4 -y,+x+1/2,-z
-5 +x,-y+1/2,-z
-6 +y,+x,-z
-7 -x+1/2,+y,-z
-8 -y+1/2,-x+1/2,-z
loop_
_atom_site_type_symbol
_atom_site_label
_atom_site_fract_x
_atom_site_fract_y
_atom_site_fract_z
_atom_site_occupancy
_atom_site_thermal_displace_type
_atom_site_U_iso_or_equiv
_atom_site_symmetry_multiplicity
Ca Ca 0.0 0.0 0.5 0.5 Uiso 0.0317(14) 4
Dy Dy1 0.0 0.0 0.5 0.5 Uiso 0.0317(14) 4
Dy Dy2 0.25 0.25 0.5 1.0 Uiso 0.0290(14) 2
Ge Ge 0.52215(15) 0.25 0.0 1.0 Uiso 0.0282(13) 8
O O1 0.6280(6) 0.3720(6) 0.1546(13) 1.0 Uiso 0.0179(27) 8
O O2 0.1742(6) 0.0619(5) 0.2530(10) 1.0 Uiso 0.0206(21) 16
loop_
_atom_type_symbol
_atom_type_number_in_cell
_atom_type_scat_dispersion_real
_atom_type_scat_dispersion_imag
_atom_type_scat_Cromer_Mann_a1
_atom_type_scat_Cromer_Mann_a2
_atom_type_scat_Cromer_Mann_a3
_atom_type_scat_Cromer_Mann_a4
_atom_type_scat_Cromer_Mann_b1
_atom_type_scat_Cromer_Mann_b2
_atom_type_scat_Cromer_Mann_b3
_atom_type_scat_Cromer_Mann_b4
_atom_type_scat_Cromer_Mann_c
_atom_type_scat_source
Ca 2.0 0.000 0.000 8.62660 10.4421 7.38730 0.65990 1.58990 85.7484 1.02110
178.437 1.37510 International_Tables_Vol_C
Dy 4.0 0.000 0.000 26.5070 2.18020 17.6383 0.20217 14.5596 12.1899 2.96577
111.874 4.29728 International_Tables_Vol_C
Ge 8.0 0.000 0.000 16.0816 2.85090 6.37470 0.25160 3.70680 11.4468 3.68300
54.7625 2.13130 International_Tables_Vol_C
O 24.0 0.000 0.000 3.04850 13.2771 2.28680 5.70110 1.54630 0.32390 0.86700
32.9089 0.25080 International_Tables_Vol_C
loop_
_geom_angle_atom_site_label_1
_geom_angle_atom_site_label_2
_geom_angle_atom_site_label_3
_geom_angle
_geom_angle_site_symmetry_1
_geom_angle_site_symmetry_2
_geom_angle_site_symmetry_3
_geom_angle_publ_flag
Dy2 Ca Dy2 180.0 1_555 . 5_545 n
Dy2 Ca O1 89.9998 1_555 . 3_555 n
Dy2 Ca O1 90.0002 1_555 . -3_456 n
Dy2 Ca O2 41.64(13) 1_555 . 1_555 n
Dy2 Ca O2 138.36(13) 1_555 . 6_555 n
Dy2 Ca O2 138.36(13) 1_555 . -1_556 n
Dy2 Ca O2 41.64(13) 1_555 . -6_556 n
Dy2 Ca O1 90.0002 5_545 . 3_555 n
Dy2 Ca O1 89.9998 5_545 . -3_456 n
Dy2 Ca O2 138.36(13) 5_545 . 1_555 n
Dy2 Ca O2 41.64(13) 5_545 . 6_555 n
Dy2 Ca O2 41.64(13) 5_545 . -1_556 n
Dy2 Ca O2 138.36(13) 5_545 . -6_556 n
O1 Ca O1 180.0 3_555 . -3_456 n
O1 Ca O2 82.24(18) 3_555 . 1_555 n
O1 Ca O2 82.24(18) 3_555 . 6_555 n
O1 Ca O2 97.76(18) 3_555 . -1_556 n
O1 Ca O2 97.76(18) 3_555 . -6_556 n
O1 Ca O2 97.76(18) -3_446 . 1_555 n
O1 Ca O2 97.76(18) -3_446 . 6_555 n
O1 Ca O2 82.24(18) -3_446 . -1_556 n
O1 Ca O2 82.24(18) -3_446 . -6_556 n
O2 Ca O2 96.72(26) 1_555 . 6_555 n
O2 Ca O2 180.0 1_555 . -1_556 n
O2 Ca O2 83.28(26) 1_555 . -6_556 n
O2 Ca O2 83.28(26) 6_555 . -1_556 n
O2 Ca O2 180.0 6_555 . -6_556 n
O2 Ca O2 96.72(26) -1_556 . -6_556 n
O1 Dy1 O1 180.0 3_555 . -3_456 n
O1 Dy1 O2 82.24(18) 3_555 . 1_555 n
O1 Dy1 O2 82.24(18) 3_555 . 6_555 n
O1 Dy1 O2 97.76(18) 3_555 . -1_556 n
O1 Dy1 O2 97.76(18) 3_555 . -6_556 n
O1 Dy1 O2 97.76(18) -3_446 . 1_555 n
O1 Dy1 O2 97.76(18) -3_446 . 6_555 n
O1 Dy1 O2 82.24(18) -3_446 . -1_556 n
O1 Dy1 O2 82.24(18) -3_446 . -6_556 n
O2 Dy1 O2 96.72(26) 1_555 . 6_555 n
O2 Dy1 O2 180.0 1_555 . -1_556 n
O2 Dy1 O2 83.28(26) 1_555 . -6_556 n
O2 Dy1 O2 83.28(26) 6_555 . -1_556 n
O2 Dy1 O2 180.0 6_555 . -6_556 n
O2 Dy1 O2 96.72(26) -1_556 . -6_556 n
Ca Dy2 Ca 90.0 1_555 . 2_555 n
Ca Dy2 Ca 180.0 1_555 . 3_555 n
Ca Dy2 Ca 90.0 1_555 . 4_555 n
Ca Dy2 O2 38.50(14) 1_555 . 1_555 n
Ca Dy2 O2 109.47(11) 1_555 . 2_555 n
Ca Dy2 O2 141.50(14) 1_555 . 3_555 n
Ca Dy2 O2 70.53(11) 1_555 . 4_555 n
Ca Dy2 O2 109.47(11) 1_555 . -5_456 n
Ca Dy2 O2 38.50(14) 1_555 . -6_556 n
Ca Dy2 O2 70.53(11) 1_555 . -7_546 n
Ca Dy2 O2 141.50(14) 1_555 . -8_556 n
Ca Dy2 Ca 90.0 2_555 . 3_555 n
Ca Dy2 Ca 180.0 2_555 . 4_555 n
Ca Dy2 O2 70.53(11) 2_555 . 1_555 n
Ca Dy2 O2 38.50(14) 2_555 . 2_555 n
Ca Dy2 O2 109.47(11) 2_555 . 3_555 n
Ca Dy2 O2 141.50(14) 2_555 . 4_555 n
Ca Dy2 O2 141.50(14) 2_555 . -5_456 n
Ca Dy2 O2 109.47(11) 2_555 . -6_556 n
Ca Dy2 O2 38.50(14) 2_555 . -7_546 n
Ca Dy2 O2 70.53(11) 2_555 . -8_556 n
Ca Dy2 Ca 90.0 3_555 . 4_555 n
Ca Dy2 O2 141.50(14) 3_555 . 1_555 n
Ca Dy2 O2 70.53(11) 3_555 . 2_555 n
Ca Dy2 O2 38.50(14) 3_555 . 3_555 n
Ca Dy2 O2 109.47(11) 3_555 . 4_555 n
Ca Dy2 O2 70.53(11) 3_555 . -5_456 n
Ca Dy2 O2 141.50(14) 3_555 . -6_556 n
Ca Dy2 O2 109.47(11) 3_555 . -7_546 n
Ca Dy2 O2 38.50(14) 3_555 . -8_556 n
Ca Dy2 O2 109.47(11) 4_555 . 1_555 n
Ca Dy2 O2 141.50(14) 4_555 . 2_555 n
Ca Dy2 O2 70.53(11) 4_555 . 3_555 n
Ca Dy2 O2 38.50(14) 4_555 . 4_555 n
Ca Dy2 O2 38.50(14) 4_555 . -5_456 n
Ca Dy2 O2 70.53(11) 4_555 . -6_556 n
Ca Dy2 O2 141.50(14) 4_555 . -7_546 n
Ca Dy2 O2 109.47(11) 4_555 . -8_556 n
O2 Dy2 O2 73.95(13) 1_555 . 2_555 n
O2 Dy2 O2 116.55(28) 1_555 . 3_555 n
O2 Dy2 O2 73.95(13) 1_555 . 4_555 n
O2 Dy2 O2 142.95(24) 1_555 . -5_456 n
O2 Dy2 O2 77.01(29) 1_555 . -6_556 n
O2 Dy2 O2 75.81(23) 1_555 . -7_546 n
O2 Dy2 O2 141.06(21) 1_555 . -8_556 n
O2 Dy2 O2 73.95(13) 2_555 . 3_555 n
O2 Dy2 O2 116.55(28) 2_555 . 4_555 n
O2 Dy2 O2 141.06(21) 2_555 . -5_456 n
O2 Dy2 O2 142.95(24) 2_555 . -6_556 n
O2 Dy2 O2 77.01(29) 2_555 . -7_546 n
O2 Dy2 O2 75.81(23) 2_555 . -8_556 n
O2 Dy2 O2 73.95(13) 3_555 . 4_555 n
O2 Dy2 O2 75.81(23) 3_555 . -5_456 n
O2 Dy2 O2 141.06(21) 3_555 . -6_556 n
O2 Dy2 O2 142.95(24) 3_555 . -7_546 n
O2 Dy2 O2 77.01(29) 3_555 . -8_556 n
O2 Dy2 O2 77.01(29) 4_555 . -5_456 n
O2 Dy2 O2 75.81(23) 4_555 . -6_556 n
O2 Dy2 O2 141.06(21) 4_555 . -7_546 n
O2 Dy2 O2 142.95(24) 4_555 . -8_556 n
O2 Dy2 O2 73.95(13) -5_456 . -6_556 n
O2 Dy2 O2 116.55(28) -5_456 . -7_546 n
O2 Dy2 O2 73.95(13) -5_456 . -8_556 n
O2 Dy2 O2 73.95(13) -6_556 . -7_546 n
O2 Dy2 O2 116.55(28) -6_556 . -8_556 n
O2 Dy2 O2 73.95(13) -7_546 . -8_556 n
O1 Ge O1 107.8(5) 1_555 . -4_555 n
O1 Ge O2 105.21(27) 1_555 . 2_555 n
O1 Ge O2 108.4(4) 1_555 . -8_555 n
O1 Ge O2 108.4(4) -4_545 . 2_555 n
O1 Ge O2 105.21(27) -4_545 . -8_555 n
O2 Ge O2 121.2(4) 2_555 . -8_555 n
Ca O1 Dy1 0.0 3_555 . 3_555 n
Ca O1 Ge 110.48(25) 3_555 . 1_555 n
Ca O1 Ge 110.48(25) 3_555 . 6_665 n
Dy1 O1 Ge 110.48(25) 3_555 . 1_555 n
Dy1 O1 Ge 110.48(25) 3_555 . 6_665 n
Ge O1 Ge 127.6(4) 1_555 . 6_665 n
Ca O2 Dy1 0.0 1_555 . 1_555 n
Ca O2 Dy2 99.85(19) 1_555 . 1_555 n
Ca O2 Ge 129.08(32) 1_555 . 4_555 n
Dy1 O2 Dy2 99.85(19) 1_555 . 1_555 n
Dy1 O2 Ge 129.08(32) 1_555 . 4_555 n
Dy2 O2 Ge 129.89(34) 1_555 . 4_555 n
loop_
_geom_bond_atom_site_label_1
_geom_bond_atom_site_label_2
_geom_bond_distance
_geom_bond_site_symmetry_1
_geom_bond_site_symmetry_2
_geom_bond_publ_flag
Ca Dy2 3.540600(20) . 1_555 n
Ca Dy2 3.540600(20) . 5_545 n
Ca Ge 3.57426(10) . 3_555 n
Ca Ge 3.57426(10) . 3_556 n
Ca Ge 3.57426(10) . 4_555 n
Ca Ge 3.57426(10) . 4_556 n
Ca Ge 3.57426(10) . 7_455 n
Ca Ge 3.57426(10) . 7_456 n
Ca Ge 3.57426(10) . 8_445 n
Ca Ge 3.57426(10) . 8_446 n
Ca O1 2.523(7) . 3_555 n
Ca O1 2.523(7) . -3_446 n
Ca O2 2.237(6) . 1_555 n
Ca O2 2.237(6) . 6_555 n
Ca O2 2.237(6) . -1_556 n
Ca O2 2.237(6) . -6_556 n
Dy1 Dy2 3.540600(20) . 1_555 n
Dy1 Dy2 3.540600(20) . 5_545 n
Dy1 O1 2.523(7) . 3_555 n
Dy1 O1 2.523(7) . -3_446 n
Dy1 O2 2.237(6) . 1_555 n
Dy1 O2 2.237(6) . 6_555 n
Dy1 O2 2.237(6) . -1_556 n
Dy1 O2 2.237(6) . -6_556 n
Dy2 Ca 3.540600(20) . 1_555 n
Dy2 Ca 3.540600(20) . 2_555 n
Dy2 Ca 3.540600(20) . 3_555 n
Dy2 Ca 3.540600(20) . 4_555 n
Dy2 Dy1 3.540600(20) . 1_555 n
Dy2 Dy1 3.540600(20) . 2_555 n
Dy2 Dy1 3.540600(20) . 3_555 n
Dy2 Dy1 3.540600(20) . 4_555 n
Dy2 O2 2.388(5) . 1_555 n
Dy2 O2 2.388(5) . 2_555 n
Dy2 O2 2.388(5) . 3_555 n
Dy2 O2 2.388(5) . 4_555 n
Dy2 O2 2.388(5) . -5_556 n
Dy2 O2 2.388(5) . -6_556 n
Dy2 O2 2.388(5) . -7_556 n
Dy2 O2 2.388(5) . -8_556 n
Ge Ca 3.57426(10) . 2_554 n
Ge Ca 3.57426(10) . 2_555 n
Ge Ca 3.57426(10) . 3_554 n
Ge Ca 3.57426(10) . 3_555 n
Ge O1 1.7982(29) . 1_555 n
Ge O1 1.7983(29) . -4_645 n
Ge O2 1.714(5) . 2_555 n
Ge O2 1.714(5) . -8_555 n
O1 Ca 2.523(7) . 3_555 n
O1 Dy1 2.523(7) . 3_555 n
O1 Ge 1.7982(29) . 1_555 n
O1 Ge 1.7983(29) . 6_665 n
O2 Ca 2.237(6) . 1_555 n
O2 Dy1 2.237(6) . 1_555 n
O2 Dy2 2.388(5) . 1_555 n
O2 Ge 1.714(5) . 4_555 n
loop_
_pd_meas_counts_total
_pd_proc_ls_weight
_pd_proc_intensity_bkg_calc
_pd_calc_intensity_total
6207.0 0.0001611 6238.28613 6238.28662
6236.0 0.0001604 6227.32227 6227.32227
6225.0 0.0001606 6217.31787 6217.31787
6182.0 0.0001618 6208.19580 6208.19580
6391.0 0.0001565 6199.88525 6199.88525
5879.0 0.0001701 6192.31787 6192.31787
6216.0 0.0001609 6185.43115 6185.43066
6260.0 0.0001597 6179.16406 6179.16357
6213.0 0.0001610 6173.46143 6173.46094
6037.0 0.0001656 6168.27051 6168.27002
6195.0 0.0001614 6163.54199 6163.54150
6117.0 0.0001635 6159.22998 6159.22949
6132.0 0.0001631 6155.29150 6155.29102
6187.0 0.0001616 6151.68604 6151.68555
6205.0 0.0001612 6148.37646 6148.37598
6134.0 0.0001630 6145.32764 6145.32715
6168.0 0.0001621 6142.50781 6142.50732
6134.0 0.0001630 6139.88623 6139.88574
6214.0 0.0001609 6137.43506 6137.43457
6149.0 0.0001626 6135.12891 6135.12842
6170.0 0.0001621 6132.94385 6132.94336
6222.0 0.0001607 6130.85791 6130.85742
6114.0 0.0001636 6128.85059 6128.85010
6167.0 0.0001622 6126.90430 6126.90381
5988.0 0.0001670 6125.00098 6125.00049
6215.0 0.0001609 6123.12646 6123.12598
6291.0 0.0001590 6121.26611 6121.26563
6112.0 0.0001636 6119.40771 6119.40723
6038.0 0.0001656 6117.53906 6117.53906
6138.0 0.0001629 6115.65088 6115.65039
6095.0 0.0001641 6113.73389 6113.73340
6238.0 0.0001603 6111.77930 6111.77881
6131.0 0.0001631 6109.78027 6109.78027
6149.0 0.0001626 6107.73145 6107.73096
6144.0 0.0001628 6105.62598 6105.62598
6097.0 0.0001640 6103.46094 6103.46094
6114.0 0.0001636 6101.23145 6101.23096
6091.0 0.0001642 6098.93408 6098.93408
5839.0 0.0001713 6096.56787 6096.56738
6155.0 0.0001625 6094.12891 6094.12891
6102.0 0.0001639 6091.61719 6091.61719
6226.0 0.0001606 6089.03174 6089.03125
5977.0 0.0001673 6086.37109 6086.37109
5989.0 0.0001670 6083.63672 6083.63672
6100.0 0.0001639 6080.82813 6080.82813
6135.0 0.0001630 6077.94629 6077.94629
6068.0 0.0001648 6074.99219 6074.99219
5915.0 0.0001691 6071.96729 6071.96777
5934.0 0.0001685 6068.87354 6068.87354
6093.0 0.0001641 6065.71191 6065.71240
6106.0 0.0001638 6062.48584 6062.48584
6034.0 0.0001657 6059.19678 6059.19678
6103.0 0.0001639 6055.84717 6055.84717
6116.0 0.0001635 6052.43945 6052.43945
6067.0 0.0001648 6048.97705 6048.97705
5992.0 0.0001669 6045.46191 6045.46191
5974.0 0.0001674 6041.89746 6041.89795
6116.0 0.0001635 6038.28711 6038.28711
5926.0 0.0001687 6034.63281 6034.63281
6124.0 0.0001633 6030.93848 6030.93848
5976.0 0.0001673 6027.20654 6027.20654
6022.0 0.0001661 6023.44043 6023.44092
5952.0 0.0001680 6019.64355 6019.64404
5928.0 0.0001687 6015.81885 6015.81885
6061.0 0.0001650 6011.96924 6011.96973
5966.0 0.0001676 6008.09814 6008.09814
6010.0 0.0001664 6004.20752 6004.20801
6009.0 0.0001664 6000.30225 6000.30225
5910.0 0.0001692 5996.38330 5996.38379
6003.0 0.0001666 5992.45508 5992.45508
5902.0 0.0001694 5988.51904 5988.51953
6013.0 0.0001663 5984.57959 5984.57959
6012.0 0.0001663 5980.63770 5980.63770
5884.0 0.0001700 5976.69678 5976.69678
5979.0 0.0001673 5972.75977 5972.75977
6107.0 0.0001637 5968.82813 5968.82813
6074.0 0.0001646 5964.90479 5964.90527
5961.0 0.0001678 5960.99219 5960.99219
5862.0 0.0001706 5957.09229 5957.09229
5966.0 0.0001676 5953.20703 5953.20752
5962.0 0.0001677 5949.33887 5949.33887
5950.0 0.0001681 5945.48926 5945.48926
6042.0 0.0001655 5941.66016 5941.66016
5905.0 0.0001693 5937.85303 5937.85352
5903.0 0.0001694 5934.06982 5934.07031
5981.0 0.0001672 5930.31201 5930.31250
5972.0 0.0001674 5926.58154 5926.58154
5916.0 0.0001690 5922.87891 5922.87891
5812.0 0.0001721 5919.20557 5919.20557
6060.0 0.0001650 5915.56299 5915.56299
5771.0 0.0001733 5911.95166 5911.95215
5871.0 0.0001703 5908.37354 5908.37354
5797.0 0.0001725 5904.82910 5904.82910
5887.0 0.0001699 5901.31885 5901.31885
6029.0 0.0001659 5897.84326 5897.84375
5907.0 0.0001693 5894.40430 5894.40430
5927.0 0.0001687 5891.00098 5891.00098
5901.0 0.0001695 5887.63477 5887.63477
5938.0 0.0001684 5884.30615 5884.30615
5950.0 0.0001681 5881.01465 5881.01465
5861.0 0.0001706 5877.76172 5877.76172
5979.0 0.0001673 5874.54639 5874.54639
5943.0 0.0001683 5871.36963 5871.36963
5962.0 0.0001677 5868.23145 5868.23145
5723.0 0.0001747 5865.13135 5865.13135
5807.0 0.0001722 5862.06982 5862.06982
5839.0 0.0001713 5859.04590 5859.04590
5890.0 0.0001698 5856.06104 5856.06104
5887.0 0.0001699 5853.11377 5853.11377
5707.0 0.0001752 5850.20410 5850.20410
5876.0 0.0001702 5847.33203 5847.33203
5807.0 0.0001722 5844.49707 5844.49707
5746.0 0.0001740 5841.69873 5841.69873
5826.0 0.0001716 5838.93652 5838.93652
5808.0 0.0001722 5836.20996 5836.20996
5937.0 0.0001684 5833.51953 5833.51953
5867.0 0.0001704 5830.86328 5830.86328
5762.0 0.0001736 5828.24219 5828.24219
5746.0 0.0001740 5825.65381 5825.65381
5897.0 0.0001696 5823.09912 5823.09912
5916.0 0.0001690 5820.57715 5820.57715
5848.0 0.0001710 5818.08643 5818.08643
5953.0 0.0001680 5815.62744 5815.62744
5843.0 0.0001711 5813.19873 5813.19922
5833.0 0.0001714 5810.80029 5810.80029
5791.0 0.0001727 5808.43066 5808.43066
5814.0 0.0001720 5806.08936 5806.08936
5748.0 0.0001740 5803.77588 5803.77588
5872.0 0.0001703 5801.48926 5801.48926
5812.0 0.0001721 5799.22900 5799.22900
5779.0 0.0001730 5796.99365 5796.99365
5823.0 0.0001717 5794.78369 5794.78369
5768.0 0.0001734 5792.59717 5792.59717
5764.0 0.0001735 5790.43408 5790.43408
5780.0 0.0001730 5788.29346 5788.29346
5737.0 0.0001743 5786.17432 5786.17432
5828.0 0.0001716 5784.07617 5784.07666
5916.0 0.0001690 5781.99854 5781.99854
5633.0 0.0001775 5779.93994 5779.93994
5854.0 0.0001708 5777.90039 5777.90039
5890.0 0.0001698 5775.87842 5775.87891
5852.0 0.0001709 5773.87451 5773.87451
5749.0 0.0001739 5771.88672 5771.88672
5708.0 0.0001752 5769.91455 5769.91504
5770.0 0.0001733 5767.95801 5767.95850
5731.0 0.0001745 5766.01611 5766.01611
5813.0 0.0001720 5764.08789 5764.08838
5646.0 0.0001771 5762.17285 5762.17334
5672.0 0.0001763 5760.27100 5760.27148
5800.0 0.0001724 5758.38086 5758.38135
5743.0 0.0001741 5756.50244 5756.50244
5889.0 0.0001698 5754.63477 5754.63477
5709.0 0.0001752 5752.77734 5752.77734
5841.0 0.0001712 5750.92969 5750.93018
5833.0 0.0001714 5749.09131 5749.09180
5863.0 0.0001706 5747.26172 5747.26221
5747.0 0.0001740 5745.44092 5745.44092
5784.0 0.0001729 5743.62744 5743.62744
5727.0 0.0001746 5741.82129 5741.82178
5777.0 0.0001731 5740.02246 5740.02246
5794.0 0.0001726 5738.22998 5738.23047
5710.0 0.0001751 5736.44336 5736.44385
5678.0 0.0001761 5734.66260 5734.66309
5628.0 0.0001777 5732.88770 5732.88818
5700.0 0.0001754 5731.11768 5731.11816
5765.0 0.0001735 5729.35254 5729.35254
5778.0 0.0001731 5727.59131 5727.59180
5678.0 0.0001761 5725.83496 5725.83496
5835.0 0.0001714 5724.08203 5724.08252
5892.0 0.0001697 5722.33301 5722.33350
5750.0 0.0001739 5720.58789 5720.58789
5739.0 0.0001742 5718.84521 5718.84570
5792.0 0.0001727 5717.10645 5717.10693
5721.0 0.0001748 5715.37012 5715.37061
5801.0 0.0001724 5713.63672 5713.63721
5669.0 0.0001764 5711.90576 5711.90625
5569.0 0.0001796 5710.17725 5710.17773
5694.0 0.0001756 5708.45117 5708.45166
5598.0 0.0001786 5706.72754 5706.72803
5623.0 0.0001778 5705.00635 5705.00635
5621.0 0.0001779 5703.28662 5703.28711
5717.0 0.0001749 5701.56934 5701.56982
5697.0 0.0001755 5699.85449 5699.85498
5673.0 0.0001763 5698.14160 5698.14209
5645.0 0.0001771 5696.43066 5696.43066
5620.0 0.0001779 5694.72168 5694.72217
5622.0 0.0001779 5693.01514 5693.01514
5698.0 0.0001755 5691.31055 5691.31104
5534.0 0.0001807 5689.60791 5689.60840
5598.0 0.0001786 5687.90771 5687.90820
5667.0 0.0001765 5686.20996 5686.21045
5672.0 0.0001763 5684.51465 5684.51514
5636.0 0.0001774 5682.82129 5682.82178
5828.0 0.0001716 5681.13086 5681.13135
5691.0 0.0001757 5679.44287 5679.44336
5712.0 0.0001751 5677.75781 5677.75830
5689.0 0.0001758 5676.07568 5676.07617
5632.0 0.0001776 5674.39648 5674.39697
5684.0 0.0001759 5672.72021 5672.72070
5663.0 0.0001766 5671.04736 5671.04785
5637.0 0.0001774 5669.37793 5669.37793
5651.0 0.0001770 5667.71191 5667.71240
5648.0 0.0001771 5666.04932 5666.04980
5716.0 0.0001749 5664.39063 5664.39111
5517.0 0.0001813 5662.73633 5662.73682
5673.0 0.0001763 5661.08594 5661.08643
5756.0 0.0001737 5659.43994 5659.43994
5744.0 0.0001741 5657.79785 5657.79834
5611.0 0.0001782 5656.16113 5656.16113
5621.0 0.0001779 5654.52832 5654.52881
5430.0 0.0001842 5652.90088 5652.90137
5676.0 0.0001762 5651.27881 5651.27881
5544.0 0.0001804 5649.66113 5649.66162
5676.0 0.0001762 5648.04932 5648.04980
5718.0 0.0001749 5646.44336 5646.44336
5680.0 0.0001761 5644.84229 5644.84277
5531.0 0.0001808 5643.24756 5643.24805
5552.0 0.0001801 5641.65869 5641.65918
5643.0 0.0001772 5640.07617 5640.07666
5524.0 0.0001810 5638.49951 5638.50000
5708.0 0.0001752 5636.92969 5636.92969
5623.0 0.0001778 5635.36621 5635.36621
5517.0 0.0001813 5633.80908 5633.80908
5602.0 0.0001785 5632.25879 5632.25879
5591.0 0.0001789 5630.71533 5630.71582
5515.0 0.0001813 5629.17920 5629.17920
5630.0 0.0001776 5627.64990 5627.64990
5604.0 0.0001784 5626.12744 5626.12744
5604.0 0.0001784 5624.61279 5624.61279
5547.0 0.0001803 5623.10498 5623.10498
5560.0 0.0001799 5621.60498 5621.60498
5582.0 0.0001791 5620.11230 5620.11230
5647.0 0.0001771 5618.62695 5618.62695
5719.0 0.0001749 5617.14941 5617.14941
5595.0 0.0001787 5615.67920 5615.67969
5546.0 0.0001803 5614.21729 5614.21729
5676.0 0.0001762 5612.76221 5612.76270
5630.0 0.0001776 5611.31543 5611.31543
5709.0 0.0001752 5609.87598 5609.87598
5590.0 0.0001789 5608.44482 5608.44482
5679.0 0.0001761 5607.02051 5607.02051
5635.0 0.0001775 5605.60400 5605.60400
5572.0 0.0001795 5604.19580 5604.19580
5539.0 0.0001805 5602.79443 5602.79443
5471.0 0.0001828 5601.40088 5601.40039
5523.0 0.0001811 5600.01465 5600.01465
5652.0 0.0001769 5598.63574 5598.63574
5679.0 0.0001761 5597.26416 5597.26416
5591.0 0.0001789 5595.89990 5595.89990
5701.0 0.0001754 5594.54297 5594.54297
5757.0 0.0001737 5593.19238 5593.19238
5535.0 0.0001807 5591.84912 5591.84912
5549.0 0.0001802 5590.51270 5590.51270
5461.0 0.0001831 5589.18262 5589.18262
5499.0 0.0001819 5587.85889 5587.85889
5516.0 0.0001813 5586.54150 5586.54150
5766.0 0.0001734 5585.23047 5585.23047
5642.0 0.0001772 5583.92529 5583.92480
5641.0 0.0001773 5582.62549 5582.62549
5598.0 0.0001786 5581.33154 5581.33154
5680.0 0.0001761 5580.04297 5580.04248
5632.0 0.0001776 5578.75928 5578.75928
5588.0 0.0001790 5577.48047 5577.48047
5577.0 0.0001793 5576.20605 5576.20605
5538.0 0.0001806 5574.93652 5574.93652
5652.0 0.0001769 5573.67090 5573.67041
5600.0 0.0001786 5572.40918 5572.40869
5654.0 0.0001769 5571.15088 5571.15039
5524.0 0.0001810 5569.89600 5569.89551
5679.0 0.0001761 5568.64404 5568.64355
5690.0 0.0001757 5567.39453 5567.39404
5688.0 0.0001758 5566.14795 5566.14746
5525.0 0.0001810 5564.90283 5564.90234
5569.0 0.0001796 5563.65967 5563.65967
5594.0 0.0001788 5562.41797 5562.41797
5540.0 0.0001805 5561.17725 5561.17676
5488.0 0.0001822 5559.93750 5559.93701
5696.0 0.0001756 5558.69775 5558.69727
5564.0 0.0001797 5557.45801 5557.45801
5514.0 0.0001814 5556.21826 5556.21777
5673.0 0.0001763 5554.97754 5554.97705
5707.0 0.0001752 5553.73535 5553.73535
5577.0 0.0001793 5552.49219 5552.49170
5604.0 0.0001784 5551.24707 5551.24658
5587.0 0.0001790 5549.99951 5549.99902
5599.0 0.0001786 5548.74902 5548.74902
5588.0 0.0001790 5547.49561 5547.49512
5541.0 0.0001805 5546.23877 5546.23828
5525.0 0.0001810 5544.97803 5544.97754
5587.0 0.0001790 5543.71240 5543.71240
5468.0 0.0001829 5542.44287 5542.44238
5659.0 0.0001767 5541.16748 5541.16699
5581.0 0.0001792 5539.88672 5539.88623
5594.0 0.0001788 5538.59961 5538.59912
5734.0 0.0001744 5537.30615 5537.30566
5644.0 0.0001772 5536.00586 5536.00537
5528.0 0.0001809 5534.69824 5534.69775
5585.0 0.0001791 5533.38281 5533.38232
5615.0 0.0001781 5532.05908 5532.05859
5511.0 0.0001815 5530.72656 5530.72607
5460.0 0.0001832 5529.38477 5529.38428
5557.0 0.0001800 5528.03320 5528.03271
5561.0 0.0001798 5526.67236 5526.67188
5397.0 0.0001853 5525.30029 5525.29980
5619.0 0.0001780 5523.91748 5523.91748
5614.0 0.0001781 5522.52344 5522.52295
5537.0 0.0001806 5521.11768 5521.11719
5490.0 0.0001821 5519.69971 5519.69922
5474.0 0.0001827 5518.26855 5518.26807
5474.0 0.0001827 5516.82422 5516.82373
5451.0 0.0001835 5515.36719 5515.36670
5592.0 0.0001788 5513.89502 5513.89502
5601.0 0.0001785 5512.40918 5512.40869
5471.0 0.0001828 5510.90820 5510.90771
5495.0 0.0001820 5509.39209 5509.39160
5588.0 0.0001790 5507.86035 5507.85986
5649.0 0.0001770 5506.31250 5506.31201
5476.0 0.0001826 5504.74756 5504.74707
5429.0 0.0001842 5503.16602 5503.16553
5479.0 0.0001825 5501.56689 5506.72217
5513.0 0.0001814 5499.95020 5505.29150
5501.0 0.0001818 5498.31543 5503.85303
5643.0 0.0001772 5496.66211 5502.40723
5572.0 0.0001795 5494.98926 5500.95361
5622.0 0.0001779 5493.29785 5499.49414
5450.0 0.0001835 5491.58643 5498.02832
5437.0 0.0001839 5489.85498 5496.55762
5577.0 0.0001793 5488.10254 5495.08203
5376.0 0.0001860 5486.33008 5493.60352
5400.0 0.0001852 5484.53613 5492.12305
5566.0 0.0001797 5482.72070 5490.64111
5538.0 0.0001806 5480.88379 5489.16064
5396.0 0.0001853 5479.02441 5487.68262
5315.0 0.0001881 5477.14258 5486.20850
5469.0 0.0001828 5475.23779 5484.74219
5354.0 0.0001868 5473.31006 5483.28418
5392.0 0.0001855 5471.35938 5481.83887
5453.0 0.0001834 5469.38477 5480.40918
5381.0 0.0001858 5467.38623 5478.99951
5624.0 0.0001778 5465.36328 5477.61377
5357.0 0.0001867 5463.31592 5476.25781
5446.0 0.0001836 5461.24414 5474.93652
5536.0 0.0001806 5459.14697 5473.65869
5262.0 0.0001900 5457.02539 5472.43066
5381.0 0.0001858 5454.87744 5471.26270
5466.0 0.0001829 5452.70459 5470.16553
5468.0 0.0001829 5450.50586 5469.15137
5474.0 0.0001827 5448.28076 5468.23682
5363.0 0.0001865 5446.02979 5467.43799
5469.0 0.0001828 5443.75195 5466.77783
5371.0 0.0001862 5441.44824 5466.28174
5397.0 0.0001853 5439.11719 5465.97998
5291.0 0.0001890 5436.75977 5465.91016
5309.0 0.0001884 5434.37549 5466.11865
5373.0 0.0001861 5431.96387 5466.66113
5337.0 0.0001874 5429.52490 5467.60889
5401.0 0.0001852 5427.05908 5469.04932
5386.0 0.0001857 5424.56543 5471.09521
5343.0 0.0001872 5422.04492 5473.88965
5431.0 0.0001841 5419.49658 5477.62012
5451.0 0.0001835 5416.92090 5482.53418
5394.0 0.0001854 5414.31738 5488.96436
5384.0 0.0001857 5411.68652 5497.37451
5455.0 0.0001833 5409.02734 5508.46289
5525.0 0.0001810 5406.34131 5523.47314
5675.0 0.0001762 5403.62744 5545.12842
5811.0 0.0001721 5400.88574 5580.08691
5993.0 0.0001669 5398.11670 5643.89453
6162.0 0.0001623 5395.31982 5767.96631
6385.0 0.0001566 5392.49561 6004.88574
6816.0 0.0001467 5389.64404 6426.72998
7305.0 0.0001369 5386.76465 7113.40674
8120.0 0.0001232 5383.85840 8123.38086
9201.0 0.0001087 5380.92480 9433.74512
10327.0 0.0000968 5377.96436 10902.62207
11727.0 0.0000853 5374.97656 12257.04785
12820.0 0.0000780 5371.96191 12992.55957
12736.0 0.0000785 5368.92090 12607.71484
11688.0 0.0000856 5365.85303 11215.41602
9755.0 0.0001025 5362.75928 9445.56543
8045.0 0.0001243 5359.63916 7873.46729
6964.0 0.0001436 5356.49268 6765.21973
6175.0 0.0001619 5353.32080 6113.98438
5930.0 0.0001686 5350.12305 5781.22754
5590.0 0.0001789 5346.90039 5622.93555
5504.0 0.0001817 5343.65186 5544.58887
5378.0 0.0001859 5340.37891 5499.42236
5573.0 0.0001794 5337.08105 5468.45117
5339.0 0.0001873 5333.75879 5444.69678
5335.0 0.0001874 5330.41309 5425.43604
5354.0 0.0001868 5327.04248 5409.34033
5251.0 0.0001904 5323.64941 5395.60205
5274.0 0.0001896 5320.23242 5383.66357
5379.0 0.0001859 5316.79297 5373.12354
5317.0 0.0001881 5313.33008 5363.68359
5267.0 0.0001899 5309.84570 5355.12061
5444.0 0.0001837 5306.33936 5347.26465
5331.0 0.0001876 5302.81104 5339.98291
5332.0 0.0001875 5299.26221 5333.17285
5293.0 0.0001889 5295.69189 5326.75098
5154.0 0.0001940 5292.10107 5320.65332
5259.0 0.0001902 5288.49072 5314.82666
5227.0 0.0001913 5284.86035 5309.22852
5241.0 0.0001908 5281.21143 5303.82324
5306.0 0.0001885 5277.54297 5298.58154
5265.0 0.0001899 5273.85645 5293.48047
5291.0 0.0001890 5270.15186 5288.49902
5202.0 0.0001922 5266.42969 5283.62061
5165.0 0.0001936 5262.69043 5278.83105
5262.0 0.0001900 5258.93457 5274.11768
5214.0 0.0001918 5255.16309 5269.47168
5189.0 0.0001927 5251.37500 5264.88281
5234.0 0.0001911 5247.57227 5260.34424
5203.0 0.0001922 5243.75488 5255.84961
5311.0 0.0001883 5239.92334 5251.39258
5171.0 0.0001934 5236.07813 5246.96973
5323.0 0.0001879 5232.21973 5242.57617
5169.0 0.0001935 5228.34814 5238.20801
5155.0 0.0001940 5224.46484 5233.86328
5187.0 0.0001928 5220.56982 5229.53760
5143.0 0.0001944 5216.66406 5225.23047
5288.0 0.0001891 5212.74707 5220.93848
5184.0 0.0001929 5208.82031 5216.66113
5117.0 0.0001954 5204.88428 5212.39600
5167.0 0.0001935 5200.93945 5208.14258
5317.0 0.0001881 5196.98584 5203.89893
5230.0 0.0001912 5193.02441 5199.66455
5172.0 0.0001933 5189.05615 5195.43945
5267.0 0.0001899 5185.08105 5191.22217
5266.0 0.0001899 5181.09961 5187.01221
5251.0 0.0001904 5177.11279 5182.80908
5276.0 0.0001895 5173.12109 5178.61279
5208.0 0.0001920 5169.12549 5174.42285
5146.0 0.0001943 5165.12549 5165.12598
5106.0 0.0001958 5161.12256 5161.12305
5094.0 0.0001963 5157.11719 5157.11768
5068.0 0.0001973 5153.10986 5153.11035
5097.0 0.0001962 5149.10156 5149.10156
5084.0 0.0001967 5145.09180 5145.09180
5089.0 0.0001965 5141.08203 5141.08252
5043.0 0.0001983 5137.07275 5137.07324
5084.0 0.0001967 5133.06494 5133.06494
5031.0 0.0001988 5129.05811 5129.05859
5075.0 0.0001970 5125.05371 5125.05420
4995.0 0.0002002 5121.05225 5121.05273
5125.0 0.0001951 5117.05469 5117.05469
5188.0 0.0001928 5113.06055 5113.06104
5197.0 0.0001924 5109.07178 5109.07178
5249.0 0.0001905 5105.08740 5105.08789
5216.0 0.0001917 5101.10986 5101.11035
5316.0 0.0001881 5097.13818 5097.13867
5274.0 0.0001896 5093.17432 5093.17432
5002.0 0.0001999 5089.21777 5089.21777
5085.0 0.0001967 5085.26953 5085.26953
5202.0 0.0001922 5081.33057 5081.33057
5224.0 0.0001914 5077.40039 5077.40088
5035.0 0.0001986 5073.48145 5073.48145
5164.0 0.0001936 5069.57227 5069.57275
5095.0 0.0001963 5065.67529 5065.67578
5180.0 0.0001931 5061.78955 5061.79004
5069.0 0.0001973 5057.91699 5057.91699
5091.0 0.0001964 5054.05713 5054.05762
5046.0 0.0001982 5050.21094 5050.21143
4996.0 0.0002002 5046.37939 5046.37988
4968.0 0.0002013 5042.56250 5042.56299
5167.0 0.0001935 5038.76074 5038.76123
5137.0 0.0001947 5034.97559 5034.97607
5155.0 0.0001940 5031.20703 5031.20703
5025.0 0.0001990 5027.45557 5027.45557
5051.0 0.0001980 5023.72168 5023.72168
5051.0 0.0001980 5020.00635 5020.00635
5104.0 0.0001959 5016.30908 5016.30957
4920.0 0.0002033 5012.63184 5012.63232
5006.0 0.0001998 5008.97461 5008.97461
4973.0 0.0002011 5005.33740 5005.33789
4951.0 0.0002020 5001.72168 5001.72168
4960.0 0.0002016 4998.12695 4998.12744
4979.0 0.0002008 4994.55469 4994.55469
4868.0 0.0002054 4991.00488 4991.00488
5070.0 0.0001972 4987.47803 4987.47803
4944.0 0.0002023 4983.97461 4983.97510
4845.0 0.0002064 4980.49561 4980.49561
4948.0 0.0002021 4977.04053 4977.04102
5010.0 0.0001996 4973.61133 4973.61133
4887.0 0.0002046 4970.20703 4970.20752
4923.0 0.0002031 4966.82910 4966.82959
4892.0 0.0002044 4963.47705 4963.47754
4941.0 0.0002024 4960.15283 4960.15283
4849.0 0.0002062 4956.85498 4956.85547
4916.0 0.0002034 4953.58594 4953.58594
4973.0 0.0002011 4950.34424 4950.34424
5069.0 0.0001973 4947.13135 4947.13184
4950.0 0.0002020 4943.94775 4943.94824
4917.0 0.0002034 4940.79346 4940.79395
4922.0 0.0002032 4937.66943 4937.66943
4898.0 0.0002042 4934.57520 4934.57568
5004.0 0.0001998 4931.51172 4931.51221
4911.0 0.0002036 4928.47949 4928.47998
4920.0 0.0002033 4925.47852 4925.47900
4973.0 0.0002011 4922.50928 4922.50977
4889.0 0.0002045 4919.57227 4919.57275
5025.0 0.0001990 4916.66748 4916.66797
4788.0 0.0002089 4913.79590 4913.79639
5025.0 0.0001990 4910.95703 4910.95752
4866.0 0.0002055 4908.15234 4908.15234
4820.0 0.0002075 4905.38037 4905.38086
4949.0 0.0002021 4902.64307 4902.64355
4995.0 0.0002002 4899.93994 4899.94043
4953.0 0.0002019 4897.27148 4897.27197
4928.0 0.0002029 4894.63818 4894.63818
5008.0 0.0001997 4892.03955 4892.04004
4854.0 0.0002060 4889.47656 4889.47705
4963.0 0.0002015 4886.94922 4886.94922
4815.0 0.0002077 4884.45752 4884.45801
4976.0 0.0002010 4882.00244 4882.00244
4791.0 0.0002087 4879.58301 4879.58350
4926.0 0.0002030 4877.20068 4877.20068
4936.0 0.0002026 4874.85449 4874.85498
4875.0 0.0002051 4872.54590 4872.54590
4849.0 0.0002062 4870.27344 4870.27393
4880.0 0.0002049 4868.03906 4868.03906
4882.0 0.0002048 4865.84180 4865.84180
4923.0 0.0002031 4863.68164 4863.68213
4943.0 0.0002023 4861.55957 4861.56006
4918.0 0.0002033 4859.47559 4859.47559
4915.0 0.0002035 4857.42871 4857.42920
4984.0 0.0002006 4855.42041 4855.42041
4849.0 0.0002062 4853.44971 4853.45020
4958.0 0.0002017 4851.51807 4851.51807
4901.0 0.0002040 4849.62402 4849.62402
4954.0 0.0002019 4847.76807 4847.76855
4923.0 0.0002031 4845.95117 4845.95117
4863.0 0.0002056 4844.17188 4844.17236
4942.0 0.0002023 4842.43164 4842.43213
4913.0 0.0002035 4840.72949 4840.72998
4724.0 0.0002117 4839.06641 4839.06641
4956.0 0.0002018 4837.44141 4837.44141
4873.0 0.0002052 4835.85498 4835.85498
5012.0 0.0001995 4834.30664 4834.30713
4841.0 0.0002066 4832.79688 4832.79736
4919.0 0.0002033 4831.32568 4831.32617
4821.0 0.0002074 4829.89307 4829.89307
4849.0 0.0002062 4828.49805 4828.49854
4888.0 0.0002046 4827.14209 4827.14209
4917.0 0.0002034 4825.82373 4825.82373
4778.0 0.0002093 4824.54346 4824.54395
4946.0 0.0002022 4823.30127 4823.30127
4915.0 0.0002035 4822.09717 4822.09717
4749.0 0.0002106 4820.93018 4820.93066
4831.0 0.0002070 4819.80127 4819.80127
4832.0 0.0002070 4818.70996 4818.70996
4792.0 0.0002087 4817.65527 4817.65576
4763.0 0.0002100 4816.63818 4816.63867
4817.0 0.0002076 4815.65869 4815.65869
4917.0 0.0002034 4814.71533 4814.71582
4871.0 0.0002053 4813.80908 4813.80908
4843.0 0.0002065 4812.93896 4812.93896
4755.0 0.0002103 4812.10547 4812.10547
4686.0 0.0002134 4811.30762 4811.30762
4682.0 0.0002136 4810.54590 4810.54590
4918.0 0.0002033 4809.81982 4809.81982
4813.0 0.0002078 4809.12891 4809.12891
4763.0 0.0002100 4808.47314 4808.47314
4754.0 0.0002103 4807.85254 4807.85254
4955.0 0.0002018 4807.26611 4807.26611
4789.0 0.0002088 4806.71436 4806.71484
4922.0 0.0002032 4806.19727 4806.19727
4818.0 0.0002076 4805.71289 4806.00098
4788.0 0.0002089 4805.26270 4805.56055
4752.0 0.0002104 4804.84570 4805.15430
4730.0 0.0002114 4804.46143 4804.78174
4832.0 0.0002070 4804.10986 4804.44238
4853.0 0.0002061 4803.79004 4804.13623
4799.0 0.0002084 4803.50293 4803.86230
4900.0 0.0002041 4803.24658 4803.62109
4738.0 0.0002111 4803.02197 4803.41162
4851.0 0.0002061 4802.82813 4803.23486
4768.0 0.0002097 4802.66504 4803.08887
4860.0 0.0002058 4802.53174 4802.97461
4736.0 0.0002111 4802.42822 4802.89111
4773.0 0.0002095 4802.35400 4803.33887
4839.0 0.0002067 4802.30908 4803.33496
4639.0 0.0002156 4802.29248 4803.36182
4819.0 0.0002075 4802.30469 4803.42041
4811.0 0.0002079 4802.34424 4803.50977
4672.0 0.0002140 4802.41113 4803.62988
4767.0 0.0002098 4802.50488 4803.78076
4691.0 0.0002132 4802.62500 4803.96240
4775.0 0.0002094 4802.77148 4804.17480
4803.0 0.0002082 4802.94336 4804.41797
4798.0 0.0002084 4803.14063 4804.69189
4835.0 0.0002068 4803.36279 4804.99707
4818.0 0.0002076 4803.60889 4805.33350
4848.0 0.0002063 4803.87891 4805.70215
4754.0 0.0002103 4804.17236 4806.10205
4788.0 0.0002089 4804.48877 4806.53564
4816.0 0.0002076 4804.82764 4807.00293
4784.0 0.0002090 4805.18848 4807.50488
4715.0 0.0002121 4805.57031 4808.04297
4727.0 0.0002116 4805.97363 4808.61914
4778.0 0.0002093 4806.39697 4809.23535
4807.0 0.0002080 4806.84033 4809.89502
4796.0 0.0002085 4807.30322 4810.60010
4868.0 0.0002054 4807.78516 4811.35547
4773.0 0.0002095 4808.28564 4812.16699
4841.0 0.0002066 4808.80420 4813.04199
4666.0 0.0002143 4809.33936 4813.98877
4921.0 0.0002032 4809.89209 4815.01807
4876.0 0.0002051 4810.46094 4816.14697
4817.0 0.0002076 4811.04590 4817.39502
4664.0 0.0002144 4811.64600 4818.79102
4819.0 0.0002075 4812.26074 4820.37500
4774.0 0.0002095 4812.88965 4822.21143
4714.0 0.0002121 4813.53223 4824.42432
4770.0 0.0002096 4814.18848 4827.29736
4852.0 0.0002061 4814.85693 4831.52441
4805.0 0.0002081 4815.53760 4838.68604
4734.0 0.0002112 4816.22949 4851.90771
4768.0 0.0002097 4816.93262 4876.27734
4868.0 0.0002054 4817.64648 4918.10986
4972.0 0.0002011 4818.36963 4981.81592
4897.0 0.0002042 4819.10254 5064.02002
5039.0 0.0001985 4819.84424 5148.82861
5093.0 0.0001963 4820.59375 5210.45850
5269.0 0.0001898 4821.35107 5219.93359
5235.0 0.0001910 4822.11572 5168.43311
5085.0 0.0001967 4822.88672 5083.30322
4953.0 0.0002019 4823.66357 4999.82129
4924.0 0.0002031 4824.44580 4938.93896
4931.0 0.0002028 4825.23340 4906.92578
4859.0 0.0002058 4826.02490 4902.95654
5034.0 0.0001986 4826.82031 4927.28418
5054.0 0.0001979 4827.61914 4984.89453
4916.0 0.0002034 4828.42041 5082.04785
5171.0 0.0001934 4829.22363 5216.08545
5346.0 0.0001871 4830.02832 5364.20215
5392.0 0.0001855 4830.83447 5484.06543
5481.0 0.0001824 4831.64063 5523.84570
5328.0 0.0001877 4832.44629 5453.89502
5267.0 0.0001899 4833.25195 5308.72656
5135.0 0.0001947 4834.05615 5151.64551
4948.0 0.0002021 4834.85840 5025.16602
4937.0 0.0002026 4835.65820 4942.37451
4751.0 0.0002105 4836.45508 4896.54834
4747.0 0.0002107 4837.24902 4874.15088
4778.0 0.0002093 4838.03857 4863.76074
4837.0 0.0002067 4838.82373 4858.68555
4799.0 0.0002084 4839.60352 4855.85498
4750.0 0.0002105 4840.37793 4854.07129
4780.0 0.0002092 4841.14600 4852.88135
4827.0 0.0002072 4841.90771 4852.08789
4811.0 0.0002079 4842.66211 4851.58252
4724.0 0.0002117 4843.40869 4851.29248
4716.0 0.0002120 4844.14697 4851.16797
4807.0 0.0002080 4844.87646 4851.17090
4832.0 0.0002070 4845.59668 4851.27344
4760.0 0.0002101 4846.30713 4851.45508
4755.0 0.0002103 4847.00732 4851.69775
4724.0 0.0002117 4847.69678 4851.98926
4810.0 0.0002079 4848.37451 4852.31836
4814.0 0.0002077 4849.04053 4852.67773
4898.0 0.0002042 4849.69385 4853.05908
4889.0 0.0002045 4850.33496 4853.45801
4897.0 0.0002042 4850.96240 4853.86914
4823.0 0.0002073 4851.57568 4854.28857
4776.0 0.0002094 4852.17529 4854.71191
4820.0 0.0002075 4852.75977 4855.13818
4874.0 0.0002052 4853.32910 4855.56396
4727.0 0.0002116 4853.88281 4855.98633
4803.0 0.0002082 4854.41992 4856.40381
4823.0 0.0002073 4854.94043 4856.81445
4702.0 0.0002127 4855.44385 4857.21729
4882.0 0.0002048 4855.93018 4857.61133
4916.0 0.0002034 4856.39795 4857.99365
4718.0 0.0002120 4856.84766 4858.36426
4864.0 0.0002056 4857.27783 4858.72168
4950.0 0.0002020 4857.68945 4859.06445
4869.0 0.0002054 4858.08057 4859.39258
4799.0 0.0002084 4858.45215 4859.70508
4851.0 0.0002061 4858.80273 4860.00049
4864.0 0.0002056 4859.13232 4859.99219
4958.0 0.0002017 4859.44092 4860.26172
4896.0 0.0002042 4859.72754 4860.51270
4874.0 0.0002052 4859.99170 4860.74316
4874.0 0.0002052 4860.23340 4860.95361
4837.0 0.0002067 4860.45215 4861.14307
4878.0 0.0002050 4860.64746 4861.31055
4851.0 0.0002061 4860.81885 4861.45605
4881.0 0.0002049 4860.96631 4861.57910
4828.0 0.0002071 4861.08936 4861.67920
4819.0 0.0002075 4861.18799 4861.75537
4821.0 0.0002074 4861.26123 4861.80811
4982.0 0.0002007 4861.30859 4861.83643
4889.0 0.0002045 4861.33057 4861.83936
5021.0 0.0001992 4861.32617 4861.32666
4948.0 0.0002021 4861.29541 4861.29541
4933.0 0.0002027 4861.23828 4861.23828
4942.0 0.0002023 4861.15332 4861.15332
4789.0 0.0002088 4861.04150 4861.04150
4856.0 0.0002059 4860.90186 4860.90186
4949.0 0.0002021 4860.73389 4860.73389
4967.0 0.0002013 4860.53809 4860.53809
4956.0 0.0002018 4860.31348 4860.31348
4925.0 0.0002030 4860.06006 4860.06055
5031.0 0.0001988 4859.77783 4859.77783
5030.0 0.0001988 4859.46582 4859.46631
4913.0 0.0002035 4859.12500 4859.12500
4929.0 0.0002029 4858.75391 4858.75391
4902.0 0.0002040 4858.35254 4858.35254
4980.0 0.0002008 4857.92139 4857.92139
4922.0 0.0002032 4857.45947 4857.45947
4862.0 0.0002057 4856.96680 4856.96680
5032.0 0.0001987 4856.44336 4856.44336
4880.0 0.0002049 4855.88867 4855.88867
4960.0 0.0002016 4855.30273 4855.30273
4948.0 0.0002021 4854.68506 4854.68506
4970.0 0.0002012 4854.03613 4854.03613
5033.0 0.0001987 4853.35498 4853.35498
4895.0 0.0002043 4852.64209 4852.64209
4954.0 0.0002019 4851.89697 4851.89697
4988.0 0.0002005 4851.11963 4851.11963
4987.0 0.0002005 4850.30957 4850.30957
4913.0 0.0002035 4849.46680 4849.46680
4867.0 0.0002055 4848.59180 4848.59180
4961.0 0.0002016 4847.68359 4847.68359
4917.0 0.0002034 4846.74268 4846.74268
4950.0 0.0002020 4845.76855 4845.76855
4967.0 0.0002013 4844.76123 4844.76123
4957.0 0.0002017 4843.72070 4843.72070
4924.0 0.0002031 4842.64648 4842.64697
4913.0 0.0002035 4841.53955 4841.53955
4877.0 0.0002050 4840.39844 4840.39844
4960.0 0.0002016 4839.22412 4839.22412
4849.0 0.0002062 4838.01611 4838.01611
4926.0 0.0002030 4836.77441 4836.77441
4913.0 0.0002035 4835.49902 4835.49902
4882.0 0.0002048 4834.18945 4834.18994
4933.0 0.0002027 4832.84668 4832.84668
4837.0 0.0002067 4831.46973 4831.46973
4861.0 0.0002057 4830.05908 4830.05908
4977.0 0.0002009 4828.61475 4828.61475
4814.0 0.0002077 4827.13672 4827.13672
4837.0 0.0002067 4825.62451 4825.62451
4833.0 0.0002069 4824.07861 4824.07861
4866.0 0.0002055 4822.49854 4822.49902
4854.0 0.0002060 4820.88525 4820.88525
4945.0 0.0002022 4819.23779 4819.23779
4851.0 0.0002061 4817.55664 4817.55664
4825.0 0.0002073 4815.84229 4815.84229
4940.0 0.0002024 4814.09375 4814.09424
4873.0 0.0002052 4812.31201 4812.31201
4852.0 0.0002061 4810.49658 4810.49658
4916.0 0.0002034 4808.64795 4808.64795
4865.0 0.0002055 4806.76611 4806.76611
4934.0 0.0002027 4804.85059 4804.85059
4854.0 0.0002060 4802.90234 4802.90234
4741.0 0.0002109 4800.92041 4800.92041
4810.0 0.0002079 4798.90625 4798.90625
4831.0 0.0002070 4796.85889 4796.85889
4883.0 0.0002048 4794.77881 4794.77881
4914.0 0.0002035 4792.66602 4792.66602
4757.0 0.0002102 4790.52100 4790.52100
4700.0 0.0002128 4788.34326 4788.34326
4770.0 0.0002096 4786.13330 4786.13330
4817.0 0.0002076 4783.89160 4783.89160
4755.0 0.0002103 4781.61816 4781.61816
4883.0 0.0002048 4779.31250 4779.31299
4795.0 0.0002086 4776.97559 4776.97559
4760.0 0.0002101 4774.60693 4774.60693
4750.0 0.0002105 4772.20752 4772.20752
4772.0 0.0002096 4769.77686 4781.78906
4772.0 0.0002096 4767.31543 4779.75879
4782.0 0.0002091 4764.82275 4777.72021
4652.0 0.0002150 4762.30029 4775.67773
4664.0 0.0002144 4759.74756 4773.63184
4807.0 0.0002080 4757.16406 4771.58496
4798.0 0.0002084 4754.55127 4769.54004
4666.0 0.0002143 4751.90869 4767.49951
4779.0 0.0002092 4749.23682 4765.46680
4743.0 0.0002108 4746.53564 4763.44531
4706.0 0.0002125 4743.80566 4761.43799
4753.0 0.0002104 4741.04688 4759.44922
4826.0 0.0002072 4738.25977 4757.48389
4693.0 0.0002131 4735.44434 4755.54639
4677.0 0.0002138 4732.60107 4753.64258
4675.0 0.0002139 4729.72998 4751.77832
4641.0 0.0002155 4726.83154 4749.96045
4718.0 0.0002120 4723.90625 4748.19678
4571.0 0.0002188 4720.95361 4746.49609
4732.0 0.0002113 4717.97412 4744.86719
4689.0 0.0002133 4714.96924 4743.32275
4748.0 0.0002106 4711.93750 4741.87402
4659.0 0.0002146 4708.88037 4740.53564
4682.0 0.0002136 4705.79736 4739.32373
4688.0 0.0002133 4702.68994 4738.25781
4608.0 0.0002170 4699.55713 4737.35840
4670.0 0.0002141 4696.39990 4736.65137
4597.0 0.0002175 4693.21826 4736.16602
4640.0 0.0002155 4690.01318 4735.93604
4648.0 0.0002151 4686.78418 4736.00146
4713.0 0.0002122 4683.53174 4736.41064
4634.0 0.0002158 4680.25635 4737.21924
4720.0 0.0002119 4676.95801 4738.49561
4751.0 0.0002105 4673.63818 4740.32227
4712.0 0.0002122 4670.29590 4742.79736
4700.0 0.0002128 4666.93213 4746.04346
4637.0 0.0002157 4663.54688 4750.21045
4752.0 0.0002104 4660.14111 4755.48535
4729.0 0.0002115 4656.71387 4762.10449
4821.0 0.0002074 4653.26709 4770.36816
4851.0 0.0002061 4649.79980 4780.66162
4714.0 0.0002121 4646.31396 4793.49023
4819.0 0.0002075 4642.80811 4809.52002
4778.0 0.0002093 4639.28369 4829.64941
4789.0 0.0002088 4635.74072 4855.11768
4890.0 0.0002045 4632.17969 4887.71191
4906.0 0.0002038 4628.60059 4930.29639
4985.0 0.0002006 4625.00439 4988.38232
5102.0 0.0001960 4621.39111 5074.75244
5486.0 0.0001823 4617.76123 5221.15283
5841.0 0.0001712 4614.11523 5501.54932
6490.0 0.0001541 4610.45313 6064.01660
7469.0 0.0001339 4606.77539 7146.43604
9154.0 0.0001092 4603.08301 9022.93457
11423.0 0.0000875 4599.37549 11828.79199
14569.0 0.0000686 4595.65332 15284.87891
18090.0 0.0000553 4591.91797 18520.41992
20354.0 0.0000491 4588.16846 20271.00781
19819.0 0.0000505 4584.40576 19517.98438
17202.0 0.0000581 4580.63037 16594.04883
13217.0 0.0000757 4576.84229 12942.06641
9814.0 0.0001019 4573.04248 9754.96484
7402.0 0.0001351 4569.23145 7526.64063
6205.0 0.0001612 4565.40869 6215.09180
5409.0 0.0001849 4561.57471 5536.16504
5170.0 0.0001934 4557.73047 5204.38428
5004.0 0.0001998 4553.87646 5033.96875
4785.0 0.0002090 4550.01221 4932.77148
4751.0 0.0002105 4546.13916 4862.81982
4756.0 0.0002103 4542.25684 4809.64648
4636.0 0.0002157 4538.36670 4767.26123
4672.0 0.0002140 4534.46777 4732.57324
4750.0 0.0002105 4530.56152 4703.64404
4590.0 0.0002179 4526.64746 4679.12695
4703.0 0.0002126 4522.72705 4658.04736
4714.0 0.0002121 4518.80029 4639.68408
4546.0 0.0002200 4514.86670 4623.49365
4457.0 0.0002244 4510.92773 4609.06152
4474.0 0.0002235 4506.98340 4596.06689
4477.0 0.0002234 4503.03418 4584.25879
4497.0 0.0002224 4499.08057 4573.43799
4577.0 0.0002185 4495.12256 4563.44434
4472.0 0.0002236 4491.16064 4554.15137
4476.0 0.0002234 4487.19580 4545.45361
4599.0 0.0002174 4483.22754 4537.26514
4557.0 0.0002194 4479.25732 4529.51514
4517.0 0.0002214 4475.28418 4522.14551
4482.0 0.0002231 4471.31006 4515.10693
4469.0 0.0002238 4467.33398 4508.35645
4540.0 0.0002203 4463.35645 4501.85938
4546.0 0.0002200 4459.37891 4495.58740
4445.0 0.0002250 4455.40137 4489.51416
4348.0 0.0002300 4451.42383 4483.61719
4471.0 0.0002237 4447.44629 4477.87744
4277.0 0.0002338 4443.46973 4472.27930
4444.0 0.0002250 4439.49512 4466.80957
4450.0 0.0002247 4435.52148 4461.45361
4401.0 0.0002272 4431.55029 4456.20264
4369.0 0.0002289 4427.58105 4451.04590
4375.0 0.0002286 4423.61523 4445.97607
4330.0 0.0002309 4419.65234 4440.98535
4461.0 0.0002242 4415.69287 4436.06689
4290.0 0.0002331 4411.73730 4431.21631
4412.0 0.0002267 4407.78613 4426.42725
4418.0 0.0002263 4403.83936 4421.69531
4419.0 0.0002263 4399.89746 4417.01709
4294.0 0.0002329 4395.96094 4412.38867
4343.0 0.0002303 4392.03027 4407.80713
4403.0 0.0002271 4388.10596 4403.26953
4376.0 0.0002285 4384.18750 4398.77393
4425.0 0.0002260 4380.27588 4394.31641
4307.0 0.0002322 4376.37158 4389.89648
4339.0 0.0002305 4372.47461 4385.51221
4341.0 0.0002304 4368.58545 4381.16113
4225.0 0.0002367 4364.70459 4364.70459
4330.0 0.0002309 4360.83154 4360.83154
4322.0 0.0002314 4356.96826 4356.96826
4412.0 0.0002267 4353.11328 4353.11328
4388.0 0.0002279 4349.26807 4349.26807
4414.0 0.0002266 4345.43262 4345.43262
4401.0 0.0002272 4341.60791 4341.60791
4314.0 0.0002318 4337.79297 4337.79248
4252.0 0.0002352 4333.98828 4333.98828
4339.0 0.0002305 4330.19531 4330.19531
4293.0 0.0002329 4326.41357 4326.41357
4196.0 0.0002383 4322.64404 4322.64355
4429.0 0.0002258 4318.88574 4318.88574
4242.0 0.0002357 4315.13965 4315.13965
4230.0 0.0002364 4311.40674 4311.40674
4355.0 0.0002296 4307.68652 4307.68604
4263.0 0.0002346 4303.97900 4303.97900
4281.0 0.0002336 4300.28516 4300.28516
4290.0 0.0002331 4296.60498 4296.60498
4244.0 0.0002356 4292.93945 4292.93945
4232.0 0.0002363 4289.28760 4289.28760
4371.0 0.0002288 4285.65039 4285.65039
4247.0 0.0002355 4282.02832 4282.02832
4297.0 0.0002327 4278.42139 4278.42139
4398.0 0.0002274 4274.82959 4274.82910
4338.0 0.0002305 4271.25293 4271.25293
4188.0 0.0002388 4267.69287 4267.69238
4310.0 0.0002320 4264.14893 4264.14893
4282.0 0.0002335 4260.62109 4260.62109
4188.0 0.0002388 4257.10986 4257.10986
4202.0 0.0002380 4253.61523 4253.61523
4264.0 0.0002345 4250.13867 4250.13867
4230.0 0.0002364 4246.67871 4246.67871
4234.0 0.0002362 4243.23633 4243.23633
4248.0 0.0002354 4239.81152 4239.81152
4260.0 0.0002347 4236.40576 4236.40576
4159.0 0.0002404 4233.01709 4233.01709
4232.0 0.0002363 4229.64746 4229.64746
4244.0 0.0002356 4226.29590 4226.29590
4221.0 0.0002369 4222.96436 4222.96436
4246.0 0.0002355 4219.65088 4219.65088
4157.0 0.0002406 4216.35693 4216.35693
4147.0 0.0002411 4213.08252 4213.08252
4242.0 0.0002357 4209.82764 4209.82764
4176.0 0.0002395 4206.59277 4206.59277
4271.0 0.0002341 4203.37793 4203.37793
4209.0 0.0002376 4200.18311 4200.18311
4252.0 0.0002352 4197.00830 4197.00830
4341.0 0.0002304 4193.85498 4193.85498
4118.0 0.0002428 4190.72168 4190.72168
4111.0 0.0002432 4187.60938 4187.60938
4241.0 0.0002358 4184.51758 4184.51758
4215.0 0.0002372 4181.44775 4181.44775
4255.0 0.0002350 4178.39893 4178.39893
4157.0 0.0002406 4175.37158 4175.37158
4209.0 0.0002376 4172.36572 4172.36572
4078.0 0.0002452 4169.38184 4169.38184
4216.0 0.0002372 4166.41943 4166.41943
4141.0 0.0002415 4163.47949 4164.06299
4119.0 0.0002428 4160.56104 4161.16553
4149.0 0.0002410 4157.66553 4158.29199
4192.0 0.0002385 4154.79199 4155.44141
4184.0 0.0002390 4151.94092 4152.61523
4167.0 0.0002400 4149.11230 4149.81250
4142.0 0.0002414 4146.30713 4147.03467
4118.0 0.0002428 4143.52393 4144.28076
4099.0 0.0002440 4140.76367 4141.55127
4229.0 0.0002365 4138.02637 4138.84717
4183.0 0.0002391 4135.31201 4136.51709
4206.0 0.0002378 4132.62109 4133.87695
4200.0 0.0002381 4129.95361 4131.26172
4155.0 0.0002407 4127.30859 4128.67334
4201.0 0.0002380 4124.68750 4126.11230
4269.0 0.0002342 4122.08984 4123.57959
4196.0 0.0002383 4119.51563 4121.07422
4105.0 0.0002436 4116.96436 4118.59668
4217.0 0.0002371 4114.43701 4116.14893
4205.0 0.0002378 4111.93359 4113.73096
4167.0 0.0002400 4109.45361 4111.34277
4057.0 0.0002465 4106.99756 4108.98633
4088.0 0.0002446 4104.56494 4106.66113
4179.0 0.0002393 4102.15625 4104.36865
4131.0 0.0002421 4099.77100 4102.10986
4118.0 0.0002428 4097.40967 4099.88672
4075.0 0.0002454 4095.07275 4097.69922
4104.0 0.0002437 4092.75928 4095.55029
4110.0 0.0002433 4090.46973 4093.44141
4063.0 0.0002461 4088.20386 4091.37476
4179.0 0.0002393 4085.96216 4089.35254
4142.0 0.0002414 4083.74438 4087.37866
4067.0 0.0002459 4081.55029 4085.45605
4167.0 0.0002400 4079.38013 4083.58960
4244.0 0.0002356 4077.23389 4081.78394
4156.0 0.0002406 4075.11133 4080.04565
4143.0 0.0002414 4073.01294 4078.38354
4179.0 0.0002393 4070.93799 4076.80591
3987.0 0.0002508 4068.88721 4075.32617
4130.0 0.0002421 4066.85986 4073.95874
4110.0 0.0002433 4064.85645 4072.72412
4118.0 0.0002428 4062.87646 4071.64722
4066.0 0.0002459 4060.92017 4070.76123
4107.0 0.0002435 4058.98779 4070.11206
4052.0 0.0002468 4057.07861 4069.75879
4198.0 0.0002382 4055.19312 4069.78882
4095.0 0.0002442 4053.33105 4070.33228
4064.0 0.0002461 4051.49219 4071.62671
4077.0 0.0002453 4049.67700 4074.19287
4170.0 0.0002398 4047.88477 4079.31030
4115.0 0.0002430 4046.11572 4090.03003
4277.0 0.0002338 4044.36987 4112.69238
4176.0 0.0002395 4042.64722 4157.93848
4250.0 0.0002353 4040.94727 4238.73975
4459.0 0.0002243 4039.27026 4362.88574
4457.0 0.0002244 4037.61597 4520.50195
4689.0 0.0002133 4035.98486 4673.67236
4897.0 0.0002042 4034.37573 4762.08691
4718.0 0.0002120 4032.78931 4735.89746
4666.0 0.0002143 4031.22534 4609.43994
4549.0 0.0002198 4029.68384 4451.92383
4272.0 0.0002341 4028.16455 4324.08838
4158.0 0.0002405 4026.66724 4256.68115
4288.0 0.0002332 4025.19189 4255.23877
4472.0 0.0002236 4023.73828 4307.03760
4399.0 0.0002273 4022.30688 4384.56201
4541.0 0.0002202 4020.89673 4448.27783
4497.0 0.0002224 4019.50830 4457.96729
4404.0 0.0002271 4018.14111 4399.96582
4302.0 0.0002325 4016.79541 4303.18115
4253.0 0.0002351 4015.47070 4206.18262
4051.0 0.0002469 4014.16699 4130.85791
4043.0 0.0002473 4012.88428 4081.95020
4055.0 0.0002466 4011.62256 4054.07813
4056.0 0.0002465 4010.38086 4039.14478
4054.0 0.0002467 4009.15991 4030.81104
4031.0 0.0002481 4007.95898 4025.48730
4086.0 0.0002447 4006.77881 4021.54028
3962.0 0.0002524 4005.61816 4018.31470
4012.0 0.0002493 4004.47754 4015.58813
3965.0 0.0002522 4003.35645 4013.14648
3992.0 0.0002505 4002.25513 4010.95581
4032.0 0.0002480 4001.17310 4008.96362
3970.0 0.0002519 4000.11035 4007.13159
4081.0 0.0002450 3999.06665 4005.43188
3999.0 0.0002501 3998.04175 4003.84253
4042.0 0.0002474 3997.03564 4002.34692
3993.0 0.0002504 3996.04810 4000.93213
4025.0 0.0002484 3995.07886 3999.58740
4019.0 0.0002488 3994.12793 3998.30493
3952.0 0.0002530 3993.19507 3997.07788
4041.0 0.0002475 3992.28003 3995.90015
3954.0 0.0002529 3991.38257 3994.76807
3984.0 0.0002510 3990.50244 3993.67725
3873.0 0.0002582 3989.63989 3992.62451
3891.0 0.0002570 3988.79468 3991.60693
3971.0 0.0002518 3987.96606 3990.62280
4020.0 0.0002488 3987.15405 3989.66895
4150.0 0.0002410 3986.35889 3988.74512
4107.0 0.0002435 3985.58008 3987.84888
3907.0 0.0002560 3984.81738 3986.97876
3952.0 0.0002530 3984.07080 3986.13452
4031.0 0.0002481 3983.33984 3985.31396
3910.0 0.0002558 3982.62451 3984.51685
4082.0 0.0002450 3981.92456 3983.74243
4038.0 0.0002476 3981.23975 3982.98950
3932.0 0.0002543 3980.57007 3982.25806
3977.0 0.0002514 3979.91528 3981.54761
4001.0 0.0002499 3979.27490 3980.85718
4069.0 0.0002458 3978.64893 3980.18652
4009.0 0.0002494 3978.03711 3979.53516
4095.0 0.0002442 3977.43921 3978.90356
4059.0 0.0002464 3976.85522 3978.29077
4125.0 0.0002424 3976.28467 3977.69702
3957.0 0.0002527 3975.72754 3976.52954
3929.0 0.0002545 3975.18359 3975.99487
3915.0 0.0002554 3974.65259 3975.47925
3951.0 0.0002531 3974.13428 3974.98267
3923.0 0.0002549 3973.62842 3974.50659
4017.0 0.0002489 3973.13501 3974.05225
3889.0 0.0002571 3972.65332 3973.62134
3912.0 0.0002556 3972.18359 3973.21729
3990.0 0.0002506 3971.72583 3972.84326
3957.0 0.0002527 3971.27930 3972.50439
4024.0 0.0002485 3970.84399 3971.86743
3946.0 0.0002534 3970.41968 3971.64209
3903.0 0.0002562 3970.00610 3971.50586
4044.0 0.0002473 3969.60327 3971.53638
3886.0 0.0002573 3969.21069 3971.92114
4014.0 0.0002491 3968.82813 3973.06470
4031.0 0.0002481 3968.45557 3975.67285
4015.0 0.0002491 3968.09277 3980.66187
4173.0 0.0002396 3967.73950 3988.69092
4247.0 0.0002355 3967.39551 3999.31885
4248.0 0.0002354 3967.06055 4010.17676
4203.0 0.0002379 3966.73413 4017.06079
4089.0 0.0002446 3966.41675 4016.01025
4101.0 0.0002438 3966.10742 4007.23657
3989.0 0.0002507 3965.80640 3995.25293
4004.0 0.0002498 3965.51343 3984.26318
3910.0 0.0002558 3965.22803 3976.20630
3970.0 0.0002519 3964.95044 3971.18579
4037.0 0.0002477 3964.67993 3968.37988
3948.0 0.0002533 3964.41650 3966.85303
4012.0 0.0002493 3964.16016 3965.95044
4027.0 0.0002483 3963.91016 3965.32690
4008.0 0.0002495 3963.66699 3964.83398
4055.0 0.0002466 3963.42969 3964.41211
3932.0 0.0002543 3963.19873 3964.03784
3942.0 0.0002537 3962.97339 3963.69800
3895.0 0.0002567 3962.75342 3963.38574
3917.0 0.0002553 3962.53931 3963.09570
3867.0 0.0002586 3962.32983 3962.82300
3816.0 0.0002621 3962.12573 3962.56567
3922.0 0.0002550 3961.92627 3962.32129
3828.0 0.0002612 3961.73120 3962.08765
3793.0 0.0002636 3961.54053 3961.86377
3855.0 0.0002594 3961.35400 3961.64844
3948.0 0.0002533 3961.17139 3961.44092
3988.0 0.0002508 3960.99243 3961.23950
3903.0 0.0002562 3960.81689 3961.04492
3926.0 0.0002547 3960.64478 3965.02979
3981.0 0.0002512 3960.47559 3964.99536
3903.0 0.0002562 3960.30933 3964.97412
3915.0 0.0002554 3960.14575 3964.96533
3856.0 0.0002593 3959.98462 3964.96997
3900.0 0.0002564 3959.82568 3964.98804
4018.0 0.0002489 3959.66895 3965.02026
3923.0 0.0002549 3959.51416 3965.06738
4022.0 0.0002486 3959.36084 3965.12939
3951.0 0.0002531 3959.20923 3965.20825
4155.0 0.0002407 3959.05884 3965.30322
4047.0 0.0002471 3958.90942 3965.41699
4048.0 0.0002470 3958.76099 3965.55005
3997.0 0.0002502 3958.61304 3965.70410
3939.0 0.0002539 3958.46606 3965.88062
3914.0 0.0002555 3958.31909 3966.08105
3944.0 0.0002535 3958.17212 3966.30835
3877.0 0.0002579 3958.02539 3966.56421
3905.0 0.0002561 3957.87842 3966.85132
3974.0 0.0002516 3957.73096 3967.17334
3928.0 0.0002546 3957.58301 3967.53369
3858.0 0.0002592 3957.43408 3967.93604
3910.0 0.0002558 3957.28418 3968.38550
3958.0 0.0002527 3957.13330 3968.88770
3910.0 0.0002558 3956.98120 3969.44897
3990.0 0.0002506 3956.82764 3970.07593
3880.0 0.0002577 3956.67212 3970.77808
3885.0 0.0002574 3956.51514 3971.56470
3898.0 0.0002565 3956.35596 3972.44824
3934.0 0.0002542 3956.19458 3973.44263
3835.0 0.0002608 3956.03101 3974.56396
3809.0 0.0002625 3955.86499 3975.78857
3825.0 0.0002614 3955.69604 3977.22925
3892.0 0.0002569 3955.52466 3978.86963
3885.0 0.0002574 3955.35010 3980.74414
3902.0 0.0002563 3955.17236 3982.89600
3934.0 0.0002542 3954.99170 3985.37891
3896.0 0.0002567 3954.80737 3988.25903
3953.0 0.0002530 3954.61938 3991.61987
3969.0 0.0002520 3954.42773 3995.56836
3993.0 0.0002504 3954.23218 4000.24243
3901.0 0.0002563 3954.03247 4005.82178
3912.0 0.0002556 3953.82910 4012.54492
4059.0 0.0002464 3953.62085 4020.73267
4019.0 0.0002488 3953.40845 4030.82764
4017.0 0.0002489 3953.19141 4043.46631
4015.0 0.0002491 3952.96948 4059.65356
4032.0 0.0002480 3952.74292 4081.27954
4159.0 0.0002404 3952.51123 4112.64697
4145.0 0.0002413 3952.27441 4164.38428
4301.0 0.0002325 3952.03247 4261.25342
4532.0 0.0002207 3951.78491 4452.52051
5031.0 0.0001988 3951.53198 4815.47900
5614.0 0.0001781 3951.27368 5433.88672
6612.0 0.0001512 3951.00952 6337.91357
7716.0 0.0001296 3950.73926 7419.03760
8707.0 0.0001149 3950.46313 8372.24902
9073.0 0.0001102 3950.18091 8767.29395
8719.0 0.0001147 3949.89258 8353.27930
7520.0 0.0001330 3949.59790 7368.73633
6378.0 0.0001568 3949.29663 6274.70996
5298.0 0.0001888 3948.98901 5376.36670
4818.0 0.0002076 3948.67480 4771.85010
4395.0 0.0002275 3948.35376 4423.46826
4147.0 0.0002411 3948.02588 4243.12744
3960.0 0.0002525 3947.69116 4152.56982
3880.0 0.0002577 3947.34937 4103.69824
3840.0 0.0002604 3947.00024 4073.30518
3910.0 0.0002558 3946.64404 4051.81396
3819.0 0.0002618 3946.28076 4035.42554
3891.0 0.0002570 3945.90991 4022.44409
3806.0 0.0002627 3945.53174 4011.93311
3886.0 0.0002573 3945.14575 4003.28223
3766.0 0.0002655 3944.75244 3996.06299
3893.0 0.0002569 3944.35107 3989.96143
3851.0 0.0002597 3943.94214 3984.74512
3737.0 0.0002676 3943.52539 3980.23828
3822.0 0.0002616 3943.10059 3976.30542
3786.0 0.0002641 3942.66797 3972.84180
3835.0 0.0002608 3942.22705 3969.76489
3822.0 0.0002616 3941.77808 3967.00928
3769.0 0.0002653 3941.32104 3964.52246
3834.0 0.0002608 3940.85571 3962.26172
3891.0 0.0002570 3940.38208 3960.19287
3842.0 0.0002603 3939.89990 3958.28687
3871.0 0.0002583 3939.40918 3956.52002
3841.0 0.0002603 3938.91040 3954.87305
3764.0 0.0002657 3938.40283 3953.32837
3856.0 0.0002593 3937.88672 3951.87354
3962.0 0.0002524 3937.36206 3950.49536
3785.0 0.0002642 3936.82861 3949.18408
3853.0 0.0002595 3936.28662 3947.93115
3913.0 0.0002556 3935.73560 3946.72900
3943.0 0.0002536 3935.17603 3945.57129
3958.0 0.0002527 3934.60767 3944.45190
3929.0 0.0002545 3934.03027 3943.36646
4054.0 0.0002467 3933.44409 3942.31030
3929.0 0.0002545 3932.84888 3941.27979
3937.0 0.0002540 3932.24487 3940.27148
3968.0 0.0002520 3931.63184 3939.28271
3926.0 0.0002547 3931.01001 3938.31104
3984.0 0.0002510 3930.37891 3937.35327
3943.0 0.0002536 3929.73877 3936.40796
3953.0 0.0002530 3929.08984 3935.47339
4039.0 0.0002476 3928.43164 3934.54736
3960.0 0.0002525 3927.76440 3933.62915
3962.0 0.0002524 3927.08813 3932.71680
3880.0 0.0002577 3926.40283 3931.80933
3921.0 0.0002550 3925.70825 3930.90576
3960.0 0.0002525 3925.00464 3930.00464
3839.0 0.0002605 3924.29199 3929.10571
3922.0 0.0002550 3923.57007 3928.20776
3795.0 0.0002635 3922.83936 3927.31030
3855.0 0.0002594 3922.09912 3926.41260
3809.0 0.0002625 3921.35010 3921.34985
3897.0 0.0002566 3920.59204 3920.59180
3961.0 0.0002525 3919.82471 3919.82446
3939.0 0.0002539 3919.04834 3919.04810
3955.0 0.0002528 3918.26294 3918.26270
4060.0 0.0002463 3917.46826 3917.46826
4010.0 0.0002494 3916.66479 3916.66479
3977.0 0.0002514 3915.85229 3915.85205
3959.0 0.0002526 3915.03101 3915.03076
3853.0 0.0002595 3914.20044 3914.20020
3937.0 0.0002540 3913.36108 3913.36084
4038.0 0.0002476 3912.51270 3912.51245
3877.0 0.0002579 3911.65552 3911.65527
3971.0 0.0002518 3910.78955 3910.78931
4127.0 0.0002423 3909.91455 3909.91431
4114.0 0.0002431 3909.03076 3909.03052
3977.0 0.0002514 3908.13818 3958.84985
4075.0 0.0002454 3907.23706 3959.77832
3938.0 0.0002539 3906.32715 3960.79907
3925.0 0.0002548 3905.40845 3961.91968
3948.0 0.0002533 3904.48145 3963.14795
3787.0 0.0002641 3903.54565 3964.49341
3806.0 0.0002627 3902.60132 3965.96582
3879.0 0.0002578 3901.64868 3967.57617
3794.0 0.0002636 3900.68726 3969.33691
3818.0 0.0002619 3899.71777 3971.26074
3792.0 0.0002637 3898.73975 3973.36304
3910.0 0.0002558 3897.75366 3975.66040
3896.0 0.0002567 3896.75928 3978.17065
3828.0 0.0002612 3895.75659 3980.91406
3746.0 0.0002670 3894.74585 3983.91382
3772.0 0.0002651 3893.72705 3987.19531
3886.0 0.0002573 3892.70020 3990.78687
3985.0 0.0002509 3891.66553 3994.72070
3851.0 0.0002597 3890.62280 3999.03345
4089.0 0.0002446 3889.57227 4003.76660
4130.0 0.0002421 3888.51416 4008.96631
4471.0 0.0002237 3887.44824 4014.68604
4562.0 0.0002192 3886.37451 4020.98657
4815.0 0.0002077 3885.29346 4027.93848
4980.0 0.0002008 3884.20483 4035.62207
5282.0 0.0001893 3883.10889 4044.13086
5525.0 0.0001810 3882.00562 4053.57373
5525.0 0.0001810 3880.89478 4064.07715
5516.0 0.0001813 3879.77710 4075.79004
5471.0 0.0001828 3878.65210 4088.88794
5195.0 0.0001925 3877.52002 4103.57861
4863.0 0.0002056 3876.38110 4120.11133
4692.0 0.0002131 3875.23535 4138.78369
4502.0 0.0002221 3874.08276 4159.95703
4296.0 0.0002328 3872.92334 4184.07031
4253.0 0.0002351 3871.75708 4211.66309
4215.0 0.0002372 3870.58472 4243.40381
4165.0 0.0002401 3869.40576 4280.12598
4162.0 0.0002403 3868.22021 4322.88330
4125.0 0.0002424 3867.02832 4373.02002
4108.0 0.0002434 3865.83057 4432.27246
4242.0 0.0002357 3864.62622 4502.91113
4197.0 0.0002383 3863.41626 4587.95166
4411.0 0.0002267 3862.19995 4691.46631
4448.0 0.0002248 3860.97803 4819.09131
4680.0 0.0002137 3859.75049 4978.99805
4942.0 0.0002023 3858.51685 5184.33301
5319.0 0.0001880 3857.27783 5460.43457
5859.0 0.0001707 3856.03345 5865.76074
6711.0 0.0001490 3854.78369 6543.44727
7927.0 0.0001262 3853.52832 7818.28613
10819.0 0.0000924 3852.26807 10311.45898
15176.0 0.0000659 3851.00244 14944.80664
22681.0 0.0000441 3849.73193 22622.58203
33135.0 0.0000302 3848.45679 33484.31641
45315.0 0.0000221 3847.17651 45944.70313
56573.0 0.0000177 3845.89136 56128.66406
59694.0 0.0000168 3844.60181 59036.89453
54016.0 0.0000185 3843.30786 52701.60938
41125.0 0.0000243 3842.00928 40833.10547
27918.0 0.0000358 3840.70654 28574.52344
17965.0 0.0000557 3839.39966 18902.76953
12413.0 0.0000806 3838.08838 12565.95410
9049.0 0.0001105 3836.77319 8971.87500
7069.0 0.0001415 3835.45435 7114.82422
6045.0 0.0001654 3834.13159 6166.85645
5490.0 0.0001821 3832.80518 5639.40869
5303.0 0.0001886 3831.47485 5301.94482
5149.0 0.0001942 3830.14136 5059.58447
5041.0 0.0001984 3828.80420 4873.79980
4719.0 0.0002119 3827.46411 4726.60889
4733.0 0.0002113 3826.12085 4607.68750
4565.0 0.0002191 3824.77441 4510.18408
4431.0 0.0002257 3823.42480 4429.23438
4258.0 0.0002349 3822.07275 4361.27441
4156.0 0.0002406 3820.71777 4303.64404
4024.0 0.0002485 3819.36011 4254.32666
4073.0 0.0002455 3818.00000 4211.77051
3975.0 0.0002516 3816.63745 4174.76807
3916.0 0.0002554 3815.27271 4142.36816
3997.0 0.0002502 3813.90552 4113.81445
3998.0 0.0002501 3812.53638 4088.49878
3926.0 0.0002547 3811.16528 4065.92798
3990.0 0.0002506 3809.79224 4045.69897
3897.0 0.0002566 3808.41724 4027.47974
3821.0 0.0002617 3807.04077 4010.99536
3772.0 0.0002651 3805.66284 3996.01563
3798.0 0.0002633 3804.28345 3982.34741
3810.0 0.0002625 3802.90259 3969.82788
3817.0 0.0002620 3801.52051 3958.31738
3867.0 0.0002586 3800.13745 3947.69897
3848.0 0.0002599 3798.75317 3937.87036
3836.0 0.0002607 3797.36816 3928.74390
3782.0 0.0002644 3795.98218 3920.24414
3823.0 0.0002616 3794.59546 3912.30518
3743.0 0.0002672 3793.20850 3904.86963
3819.0 0.0002618 3791.82080 3897.88745
3752.0 0.0002665 3790.43262 3891.31445
3762.0 0.0002658 3789.04443 3885.11157
3861.0 0.0002590 3787.65601 3879.24487
3725.0 0.0002685 3786.26758 3873.68359
3790.0 0.0002639 3784.87891 3868.40088
3800.0 0.0002632 3783.49048 3863.37231
3841.0 0.0002603 3782.10254 3858.57690
3737.0 0.0002676 3780.71484 3853.99487
3730.0 0.0002681 3779.32764 3849.60913
3749.0 0.0002667 3777.94092 3845.40430
3718.0 0.0002690 3776.55518 3841.36621
3855.0 0.0002594 3775.16968 3837.48193
3748.0 0.0002668 3773.78540 3833.73999
3810.0 0.0002625 3772.40210 3830.13086
3759.0 0.0002660 3771.01978 3826.64380
3702.0 0.0002701 3769.63892 3823.27124
3673.0 0.0002723 3768.25903 3820.00464
3825.0 0.0002614 3766.88037 3766.88013
3654.0 0.0002737 3765.50366 3765.50342
3755.0 0.0002663 3764.12842 3764.12793
3872.0 0.0002583 3762.75464 3762.75439
3975.0 0.0002516 3761.38281 3761.38232
4206.0 0.0002378 3760.01270 3760.01245
4056.0 0.0002465 3758.64478 3758.64453
4114.0 0.0002431 3757.27881 3757.27856
4041.0 0.0002475 3755.91528 3755.91479
4022.0 0.0002486 3754.55371 3754.55347
4058.0 0.0002464 3753.19458 3753.19434
3988.0 0.0002508 3751.83789 3751.83740
4032.0 0.0002480 3750.48364 3750.48340
3849.0 0.0002598 3749.13232 3749.13184
3806.0 0.0002627 3747.78345 3749.32935
3805.0 0.0002628 3746.43750 3748.03931
3793.0 0.0002636 3745.09473 3746.75562
3703.0 0.0002701 3743.75464 3745.47778
3685.0 0.0002714 3742.41772 3744.20654
3743.0 0.0002672 3741.08374 3742.94263
3670.0 0.0002725 3739.75342 3741.68628
3616.0 0.0002765 3738.42627 3740.43750
3710.0 0.0002695 3737.10254 3739.19653
3706.0 0.0002698 3735.78247 3737.96509
3742.0 0.0002672 3734.46606 3736.74292
3694.0 0.0002707 3733.15308 3735.53052
3775.0 0.0002649 3731.84424 3734.32861
3707.0 0.0002698 3730.53882 3733.13794
3862.0 0.0002589 3729.23755 3731.95947
3784.0 0.0002643 3727.94019 3730.79370
3735.0 0.0002677 3726.64722 3729.64185
3705.0 0.0002699 3725.35815 3728.50513
3743.0 0.0002672 3724.07349 3727.38428
3691.0 0.0002709 3722.79321 3726.28125
3782.0 0.0002644 3721.51733 3725.19678
3821.0 0.0002617 3720.24561 3724.13330
3607.0 0.0002772 3718.97876 3723.09253
3695.0 0.0002706 3717.71655 3722.07617
3742.0 0.0002672 3716.45874 3721.08765
3713.0 0.0002693 3715.20581 3720.12915
3744.0 0.0002671 3713.95801 3719.20459
3786.0 0.0002641 3712.71509 3718.31812
3670.0 0.0002725 3711.47681 3717.47388
3731.0 0.0002680 3710.24390 3716.67773
3760.0 0.0002660 3709.01587 3715.93555
3739.0 0.0002675 3707.79321 3715.25562
3634.0 0.0002752 3706.57544 3714.64746
3712.0 0.0002694 3705.36353 3714.12183
3721.0 0.0002687 3704.15649 3713.69263
3658.0 0.0002734 3702.95532 3713.37646
3668.0 0.0002726 3701.75928 3713.19434
3646.0 0.0002743 3700.56885 3713.17188
3699.0 0.0002703 3699.38403 3713.34204
3713.0 0.0002693 3698.20508 3713.74683
3792.0 0.0002637 3697.03174 3714.43994
3719.0 0.0002689 3695.86401 3715.49268
3718.0 0.0002690 3694.70215 3716.99878
3832.0 0.0002610 3693.54639 3719.08594
3681.0 0.0002717 3692.39648 3721.93018
3635.0 0.0002751 3691.25244 3725.78955
3739.0 0.0002675 3690.11475 3731.08301
3802.0 0.0002630 3688.98267 3738.63135
3904.0 0.0002561 3687.85693 3750.33179
3771.0 0.0002652 3686.73730 3770.77417
3972.0 0.0002518 3685.62427 3810.13330
3859.0 0.0002591 3684.51709 3887.27368
4068.0 0.0002458 3683.41650 4029.05029
4266.0 0.0002344 3682.32227 4259.90186
4591.0 0.0002178 3681.23413 4579.74512
5012.0 0.0001995 3680.15259 4937.06885
5198.0 0.0001924 3679.07739 5213.98096
5354.0 0.0001868 3678.00879 5266.85156
5080.0 0.0001969 3676.94678 5057.59912
4637.0 0.0002157 3675.89136 4707.69971
4437.0 0.0002254 3674.84277 4360.07275
4083.0 0.0002449 3673.80054 4091.13940
3927.0 0.0002546 3672.76489 3916.62500
3771.0 0.0002652 3671.73633 3817.58081
3822.0 0.0002616 3670.71436 3765.62524
3755.0 0.0002663 3669.69897 3738.18872
3684.0 0.0002714 3668.69043 3722.16235
3690.0 0.0002710 3667.68896 3711.38940
3674.0 0.0002722 3666.69409 3703.31689
3697.0 0.0002705 3665.70630 3696.88623
3671.0 0.0002724 3664.72534 3691.58984
3683.0 0.0002715 3663.75122 3687.12988
3674.0 0.0002722 3662.78418 3683.30713
3644.0 0.0002744 3661.82422 3679.97998
3666.0 0.0002728 3660.87085 3677.04321
3701.0 0.0002702 3659.92480 3674.41968
3724.0 0.0002685 3658.98560 3672.04907
3660.0 0.0002732 3658.05371 3669.88672
3546.0 0.0002820 3657.12866 3667.89624
3658.0 0.0002734 3656.21069 3666.04980
3629.0 0.0002756 3655.29980 3664.32520
3676.0 0.0002720 3654.39600 3662.70410
3670.0 0.0002725 3653.49951 3661.17212
3619.0 0.0002763 3652.60986 3659.71680
3707.0 0.0002698 3651.72729 3658.32910
3715.0 0.0002692 3650.85205 3657.00049
3632.0 0.0002753 3649.98413 3659.16382
3691.0 0.0002709 3649.12305 3658.03394
3676.0 0.0002720 3648.26904 3656.95020
3648.0 0.0002741 3647.42236 3655.90894
3615.0 0.0002766 3646.58276 3654.90649
3555.0 0.0002813 3645.75024 3653.94019
3530.0 0.0002833 3644.92480 3653.00781
3626.0 0.0002758 3644.10669 3652.10742
3716.0 0.0002691 3643.29590 3651.23779
3648.0 0.0002741 3642.49219 3650.39697
3606.0 0.0002773 3641.69531 3649.58447
3567.0 0.0002803 3640.90576 3648.79907
3532.0 0.0002831 3640.12329 3648.04053
3583.0 0.0002791 3639.34814 3647.30786
3730.0 0.0002681 3638.57983 3646.60156
3593.0 0.0002783 3637.81885 3645.92041
3623.0 0.0002760 3637.06494 3645.26563
3512.0 0.0002847 3636.31812 3644.63672
3646.0 0.0002743 3635.57837 3644.03418
3697.0 0.0002705 3634.84546 3643.45874
3582.0 0.0002792 3634.11987 3642.91016
3590.0 0.0002786 3633.40112 3642.39014
3574.0 0.0002798 3632.68945 3641.89966
3672.0 0.0002723 3631.98486 3641.43921
3662.0 0.0002731 3631.28735 3641.01074
3712.0 0.0002694 3630.59668 3640.61548
3564.0 0.0002806 3629.91284 3640.25537
3546.0 0.0002820 3629.23608 3639.93237
3541.0 0.0002824 3628.56616 3646.49585
3683.0 0.0002715 3627.90308 3646.55249
3667.0 0.0002727 3627.24707 3646.66284
3607.0 0.0002772 3626.59766 3646.83130
3629.0 0.0002756 3625.95532 3647.06274
3642.0 0.0002746 3625.31958 3647.36279
3608.0 0.0002772 3624.69067 3647.73804
3595.0 0.0002782 3624.06860 3648.19482
3593.0 0.0002783 3623.45313 3648.74194
3618.0 0.0002764 3622.84424 3649.38867
3653.0 0.0002737 3622.24194 3650.14551
3460.0 0.0002890 3621.64648 3651.02490
3750.0 0.0002667 3621.05762 3652.04053
3542.0 0.0002823 3620.47534 3653.21021
3669.0 0.0002726 3619.89941 3654.55298
3582.0 0.0002792 3619.33008 3656.09180
3672.0 0.0002723 3618.76733 3657.85352
3643.0 0.0002745 3618.21069 3659.87207
3581.0 0.0002793 3617.66064 3662.18555
3715.0 0.0002692 3617.11694 3664.84204
3705.0 0.0002699 3616.57959 3667.89941
3585.0 0.0002789 3616.04858 3671.42944
3609.0 0.0002771 3615.52368 3675.52051
3697.0 0.0002705 3615.00488 3680.28418
3701.0 0.0002702 3614.49243 3685.86279
3627.0 0.0002757 3613.98608 3692.43774
3641.0 0.0002746 3613.48560 3700.24780
3599.0 0.0002779 3612.99121 3709.60547
3595.0 0.0002782 3612.50317 3720.93433
3737.0 0.0002676 3612.02075 3734.81738
3715.0 0.0002692 3611.54419 3752.09741
3761.0 0.0002659 3611.07373 3774.12646
3815.0 0.0002621 3610.60913 3803.48950
3797.0 0.0002634 3610.15015 3846.05640
3997.0 0.0002502 3609.69678 3915.90283
4062.0 0.0002462 3609.24927 4044.26099
4439.0 0.0002253 3608.80737 4289.50537
5043.0 0.0001983 3608.37109 4736.14063
5569.0 0.0001796 3607.94019 5464.33984
6547.0 0.0001527 3607.51489 6482.63574
7452.0 0.0001342 3607.09497 7642.81104
8636.0 0.0001158 3606.68066 8582.26660
8561.0 0.0001168 3606.27148 8828.25586
7913.0 0.0001264 3605.86768 8216.31934
7063.0 0.0001416 3605.46899 7113.53711
5842.0 0.0001712 3605.07568 5989.58789
5124.0 0.0001952 3604.68750 5106.12500
4530.0 0.0002208 3604.30420 4526.36279
4197.0 0.0002383 3603.92603 4196.73682
4110.0 0.0002433 3603.55273 4027.60889
3951.0 0.0002531 3603.18457 3946.28198
3866.0 0.0002587 3602.82104 3905.19995
3836.0 0.0002607 3602.46240 3884.73486
3791.0 0.0002638 3602.10864 3876.26123
3744.0 0.0002671 3601.75952 3876.62500
3935.0 0.0002541 3601.41504 3884.88403
3955.0 0.0002528 3601.07520 3901.17139
3915.0 0.0002554 3600.73975 3926.44897
3865.0 0.0002587 3600.40894 3962.72949
4064.0 0.0002461 3600.08252 4014.02490
4194.0 0.0002384 3599.76050 4089.28735
4324.0 0.0002313 3599.44263 4210.21924
4604.0 0.0002172 3599.12915 4427.74902
5030.0 0.0001988 3598.81982 4846.34180
5877.0 0.0001702 3598.51440 5639.04590
7065.0 0.0001415 3598.21338 7014.30469
9060.0 0.0001104 3597.91626 9098.14746
11567.0 0.0000865 3597.62280 11745.50781
13915.0 0.0000719 3597.33374 14352.53711
15316.0 0.0000653 3597.04810 15849.82617
15059.0 0.0000664 3596.76636 15340.86230
13261.0 0.0000754 3596.48853 13133.48340
10316.0 0.0000969 3596.21411 10375.83887
7850.0 0.0001274 3595.94336 7951.16357
6275.0 0.0001594 3595.67627 6215.56299
5069.0 0.0001973 3595.41260 5151.89307
4611.0 0.0002169 3595.15210 4569.90039
4228.0 0.0002365 3594.89526 4267.08789
4134.0 0.0002419 3594.64160 4103.34766
3954.0 0.0002529 3594.39111 4004.01074
3955.0 0.0002528 3594.14380 3935.68433
3970.0 0.0002519 3593.89966 3884.55688
3910.0 0.0002558 3593.65845 3844.56665
3905.0 0.0002561 3593.42017 3812.53394
3811.0 0.0002624 3593.18506 3786.46875
3848.0 0.0002599 3592.95264 3764.99512
3862.0 0.0002589 3592.72290 3747.11646
3739.0 0.0002675 3592.49609 3732.37500
3682.0 0.0002716 3592.27197 3719.66821
3698.0 0.0002704 3592.05029 3708.84351
3646.0 0.0002743 3591.83130 3699.57642
3630.0 0.0002755 3591.61475 3691.61304
3694.0 0.0002707 3591.40063 3684.75659
3657.0 0.0002734 3591.18896 3678.85107
3666.0 0.0002728 3590.97925 3673.77466
3669.0 0.0002726 3590.77222 3669.43359
3808.0 0.0002626 3590.56714 3665.75439
3594.0 0.0002782 3590.36426 3662.68506
3620.0 0.0002762 3590.16333 3660.18896
3584.0 0.0002790 3589.96436 3658.24683
3680.0 0.0002717 3589.76758 3656.85400
3699.0 0.0002703 3589.57227 3656.02490
3747.0 0.0002669 3589.37915 3655.79102
3617.0 0.0002765 3589.18750 3656.20947
3550.0 0.0002817 3588.99780 3657.36523
3620.0 0.0002762 3588.80957 3659.38257
3646.0 0.0002743 3588.62280 3662.43896
3590.0 0.0002786 3588.43774 3666.78979
3554.0 0.0002814 3588.25415 3672.81372
3570.0 0.0002801 3588.07178 3681.13574
3649.0 0.0002740 3587.89087 3692.97070
3678.0 0.0002719 3587.71118 3707.60522
3747.0 0.0002669 3587.53271 3738.74438
3817.0 0.0002620 3587.35547 3798.59106
3945.0 0.0002535 3587.17896 3911.32739
4149.0 0.0002410 3587.00391 4116.10986
4531.0 0.0002207 3586.82959 4447.77246
4823.0 0.0002073 3586.65625 4907.84326
5488.0 0.0001822 3586.48364 5426.99512
5921.0 0.0001689 3586.31201 5839.44531
6054.0 0.0001652 3586.14111 5932.90527
5799.0 0.0001724 3585.97095 5642.98096
5087.0 0.0001966 3585.80127 5141.70703
4598.0 0.0002175 3585.63232 4636.93945
4254.0 0.0002351 3585.46387 4241.37109
3960.0 0.0002525 3585.29565 3980.74194
3777.0 0.0002648 3585.12793 3830.41406
3756.0 0.0002662 3584.96069 3750.57617
3676.0 0.0002720 3584.79370 3708.39282
3720.0 0.0002688 3584.62695 3684.16724
3624.0 0.0002759 3584.46021 3668.35791
3579.0 0.0002794 3584.29395 3656.90112
3615.0 0.0002766 3584.12744 3648.08765
3653.0 0.0002737 3583.96094 3641.10205
3545.0 0.0002821 3583.79468 3635.47437
3773.0 0.0002650 3583.62817 3630.89380
3653.0 0.0002737 3583.46167 3627.14185
3726.0 0.0002684 3583.29468 3624.06201
3611.0 0.0002769 3583.12769 3621.54102
3738.0 0.0002675 3582.96045 3611.26001
3689.0 0.0002711 3582.79272 3609.87305
3694.0 0.0002707 3582.62451 3608.86816
3599.0 0.0002779 3582.45630 3608.23291
3593.0 0.0002783 3582.28711 3607.97485
3581.0 0.0002793 3582.11768 3608.12769
3588.0 0.0002787 3581.94751 3608.76538
3610.0 0.0002770 3581.77686 3610.04443
3573.0 0.0002799 3581.60547 3612.33472
3691.0 0.0002709 3581.43335 3616.53467
3665.0 0.0002729 3581.26025 3624.68042
3631.0 0.0002754 3581.08667 3640.69897
3686.0 0.0002713 3580.91187 3670.56787
3771.0 0.0002652 3580.73633 3720.56567
3759.0 0.0002660 3580.56006 3792.83594
3837.0 0.0002606 3580.38257 3879.25415
3851.0 0.0002597 3580.20410 3956.12085
3992.0 0.0002505 3580.02441 3987.62231
3946.0 0.0002534 3579.84375 3953.59448
3839.0 0.0002605 3579.66187 3875.22412
3749.0 0.0002667 3579.47876 3789.12402
3717.0 0.0002690 3579.29419 3718.29785
3788.0 0.0002640 3579.10864 3670.08423
3619.0 0.0002763 3578.92163 3641.91162
3680.0 0.0002717 3578.73315 3627.37988
3650.0 0.0002740 3578.54346 3620.59277
3694.0 0.0002707 3578.35205 3617.78638
3675.0 0.0002721 3578.15942 3617.09155
3690.0 0.0002710 3577.96509 3617.75757
3616.0 0.0002765 3577.76929 3619.56543
3775.0 0.0002649 3577.57202 3622.54102
3716.0 0.0002691 3577.37280 3626.86499
3749.0 0.0002667 3577.17212 3632.90015
3723.0 0.0002686 3576.96948 3641.37280
3745.0 0.0002670 3576.76538 3653.92041
3708.0 0.0002697 3576.55933 3674.47290
3683.0 0.0002715 3576.35156 3711.92505
3801.0 0.0002631 3576.14185 3783.57666
3954.0 0.0002529 3575.93042 3916.13647
4272.0 0.0002341 3575.71704 4138.46338
4418.0 0.0002263 3575.50146 4462.18604
4876.0 0.0002051 3575.28418 4854.17285
5113.0 0.0001956 3575.06494 5211.49365
5258.0 0.0001902 3574.84351 5371.92236
5101.0 0.0001960 3574.62012 5233.50439
4932.0 0.0002028 3574.39453 4882.17041
4477.0 0.0002234 3574.16699 4485.58838
4165.0 0.0002401 3573.93701 4153.37451
3922.0 0.0002550 3573.70508 3922.72119
3766.0 0.0002655 3573.47095 3783.99194
3645.0 0.0002743 3573.23462 3706.81787
3618.0 0.0002764 3572.99609 3666.99341
3720.0 0.0002688 3572.75513 3644.76440
3740.0 0.0002674 3572.51196 3630.76709
3625.0 0.0002759 3572.26660 3620.85571
3688.0 0.0002711 3572.01880 3613.29175
3739.0 0.0002675 3571.76855 3607.32617
3725.0 0.0002685 3571.51611 3602.44385
3634.0 0.0002752 3571.26099 3598.40796
3625.0 0.0002759 3571.00366 3595.02344
3548.0 0.0002818 3570.74390 3592.14868
3519.0 0.0002842 3570.48169 3589.67822
3632.0 0.0002753 3570.21680 3587.53223
3617.0 0.0002765 3569.94946 3585.64966
3576.0 0.0002796 3569.67993 3583.98267
3624.0 0.0002759 3569.40747 3582.49365
3601.0 0.0002777 3569.13257 3581.15259
3635.0 0.0002751 3568.85522 3579.93652
3548.0 0.0002818 3568.57520 3578.82520
3439.0 0.0002908 3568.29272 3577.80298
3570.0 0.0002801 3568.00757 3576.85718
3571.0 0.0002800 3567.71973 3575.97681
3624.0 0.0002759 3567.42920 3575.15283
3520.0 0.0002841 3567.13623 3574.37769
3535.0 0.0002829 3566.84058 3573.64551
3600.0 0.0002778 3566.54199 3573.42798
3590.0 0.0002786 3566.24097 3572.77905
3643.0 0.0002745 3565.93726 3572.15918
3501.0 0.0002856 3565.63062 3571.56543
3574.0 0.0002798 3565.32153 3570.99414
3510.0 0.0002849 3565.00977 3570.44312
3597.0 0.0002780 3564.69507 3570.01147
3652.0 0.0002738 3564.37769 3569.49829
3609.0 0.0002771 3564.05762 3568.99902
3530.0 0.0002833 3563.73486 3568.51392
3569.0 0.0002802 3563.40942 3568.04028
3496.0 0.0002860 3563.08105 3567.30005
3551.0 0.0002816 3562.75000 3566.85571
3547.0 0.0002819 3562.41626 3566.41968
3571.0 0.0002800 3562.07959 3565.99268
3671.0 0.0002724 3561.74023 3565.57275
3543.0 0.0002822 3561.39819 3565.16040
3464.0 0.0002887 3561.05322 3564.75513
3564.0 0.0002806 3560.70581 3564.35596
3726.0 0.0002684 3560.35522 3563.96313
3648.0 0.0002741 3560.00220 3563.57666
3651.0 0.0002739 3559.64624 3563.19629
3679.0 0.0002718 3559.28760 3562.82227
3699.0 0.0002703 3558.92603 3562.45508
3590.0 0.0002786 3558.56177 3562.09375
3634.0 0.0002752 3558.19482 3561.73999
3681.0 0.0002717 3557.82520 3561.39307
3549.0 0.0002818 3557.45239 3561.05469
3473.0 0.0002879 3557.07715 3560.72485
3588.0 0.0002787 3556.69922 3560.40503
3518.0 0.0002843 3556.31860 3560.09595
3575.0 0.0002797 3555.93506 3559.79956
3598.0 0.0002779 3555.54883 3559.51782
3439.0 0.0002908 3555.15991 3559.25244
3530.0 0.0002833 3554.76831 3559.21143
3550.0 0.0002817 3554.37402 3558.99561
3608.0 0.0002772 3553.97681 3558.80908
3621.0 0.0002762 3553.57715 3557.37402
3626.0 0.0002758 3553.17456 3557.30298
3515.0 0.0002845 3552.76953 3557.28809
3566.0 0.0002804 3552.36182 3557.34888
3551.0 0.0002816 3551.95142 3557.52466
3612.0 0.0002769 3551.53833 3557.90137
3574.0 0.0002798 3551.12256 3558.67725
3508.0 0.0002851 3550.70435 3560.26221
3484.0 0.0002870 3550.28345 3563.36523
3575.0 0.0002797 3549.85986 3568.91528
3562.0 0.0002807 3549.43384 3577.64502
3590.0 0.0002786 3549.00513 3589.33325
3615.0 0.0002766 3548.57397 3601.93042
3581.0 0.0002793 3548.14014 3611.06104
3586.0 0.0002789 3547.70386 3611.82031
3614.0 0.0002767 3547.26514 3604.60010
3606.0 0.0002773 3546.82373 3592.76807
3539.0 0.0002826 3546.37988 3581.71899
3550.0 0.0002817 3545.93384 3573.74878
3537.0 0.0002827 3545.48486 3569.26733
3561.0 0.0002808 3545.03394 3567.68652
3585.0 0.0002789 3544.58032 3568.21973
3474.0 0.0002879 3544.12451 3570.39453
3485.0 0.0002869 3543.66602 3574.32617
3557.0 0.0002811 3543.20532 3581.06787
3578.0 0.0002795 3542.74243 3593.37573
3692.0 0.0002709 3542.27710 3616.83984
3572.0 0.0002800 3541.80933 3660.44067
3596.0 0.0002781 3541.33960 3734.60010
3752.0 0.0002665 3540.86743 3845.15308
3977.0 0.0002514 3540.39282 3984.14819
4007.0 0.0002496 3539.91626 4120.54004
4181.0 0.0002392 3539.43750 4199.47168
4204.0 0.0002379 3538.95630 4177.23145
4045.0 0.0002472 3538.47314 4074.95898
3942.0 0.0002537 3537.98779 3953.85327
3791.0 0.0002638 3537.50024 3856.98560
3824.0 0.0002615 3537.01074 3796.16138
3833.0 0.0002609 3536.51929 3759.37427
3714.0 0.0002693 3536.02563 3726.07764
3694.0 0.0002707 3535.52979 3687.20947
3651.0 0.0002739 3535.03223 3647.73364
3650.0 0.0002740 3534.53247 3614.19531
3508.0 0.0002851 3534.03076 3589.48804
3478.0 0.0002875 3533.52734 3573.25244
3527.0 0.0002835 3533.02197 3563.35718
3491.0 0.0002865 3532.51465 3557.41968
3443.0 0.0002904 3532.00537 3553.67236
3380.0 0.0002959 3531.49438 3551.09961
3395.0 0.0002946 3530.98145 3549.20776
3494.0 0.0002862 3530.46704 3547.77759
3577.0 0.0002796 3529.95068 3546.71069
3448.0 0.0002900 3529.43262 3545.96606
3502.0 0.0002856 3528.91260 3545.53101
3564.0 0.0002806 3528.39136 3545.42065
3574.0 0.0002798 3527.86841 3545.68115
3580.0 0.0002793 3527.34351 3546.42334
3519.0 0.0002842 3526.81738 3547.91040
3538.0 0.0002826 3526.28931 3550.77344
3514.0 0.0002846 3525.76001 3556.41626
3624.0 0.0002759 3525.22900 3567.50269
3632.0 0.0002753 3524.69653 3588.03320
3533.0 0.0002830 3524.16284 3622.17651
3713.0 0.0002693 3523.62769 3671.38281
3878.0 0.0002579 3523.09082 3730.39819
3739.0 0.0002675 3522.55298 3783.56104
3760.0 0.0002660 3522.01343 3806.53833
3863.0 0.0002589 3521.47266 3784.75635
3785.0 0.0002642 3520.93066 3732.27710
3639.0 0.0002748 3520.38745 3674.07666
3681.0 0.0002717 3519.84302 3626.02979
3583.0 0.0002791 3519.29736 3593.47388
3654.0 0.0002737 3518.75049 3575.08081
3545.0 0.0002821 3518.20239 3566.86719
3485.0 0.0002869 3517.65332 3565.18433
3475.0 0.0002878 3517.10327 3568.14258
3543.0 0.0002822 3516.55200 3576.14795
3481.0 0.0002873 3515.99976 3592.66406
3644.0 0.0002744 3515.44653 3625.56372
3777.0 0.0002648 3514.89233 3687.86133
3816.0 0.0002621 3514.33716 3794.97998
4011.0 0.0002493 3513.78101 3956.10522
4251.0 0.0002352 3513.22412 4160.65869
4364.0 0.0002291 3512.66626 4363.96680
4591.0 0.0002178 3512.10767 4483.87256
4529.0 0.0002208 3511.54834 4448.16064
4376.0 0.0002285 3510.98804 4278.70264
4077.0 0.0002453 3510.42725 4064.06421
3955.0 0.0002528 3509.86572 3872.70728
3754.0 0.0002664 3509.30347 3732.91748
3768.0 0.0002654 3508.74048 3644.81372
3670.0 0.0002725 3508.17700 3594.90503
3615.0 0.0002766 3507.61304 3567.92651
3644.0 0.0002744 3507.04834 3552.80566
3658.0 0.0002734 3506.48315 3543.36206
3614.0 0.0002767 3505.91772 3536.70288
3540.0 0.0002825 3505.35156 3531.58716
3638.0 0.0002749 3504.78491 3527.46289
3549.0 0.0002818 3504.21802 3524.04370
3625.0 0.0002759 3503.65063 3521.15210
3616.0 0.0002765 3503.08301 3518.66553
3598.0 0.0002779 3502.51489 3516.49707
3630.0 0.0002755 3501.94678 3514.10962
3634.0 0.0002752 3501.37817 3512.40918
3563.0 0.0002807 3500.80957 3510.87329
3451.0 0.0002898 3500.24048 3509.47363
3500.0 0.0002857 3499.67139 3508.18701
3492.0 0.0002864 3499.10229 3506.99536
3522.0 0.0002839 3498.53296 3505.78467
3534.0 0.0002830 3497.96338 3504.74634
3634.0 0.0002752 3497.39380 3503.76929
3506.0 0.0002852 3496.82422 3502.84570
3587.0 0.0002788 3496.25488 3501.96973
3498.0 0.0002859 3495.68530 3501.13770
3536.0 0.0002828 3495.11597 3500.34595
3472.0 0.0002880 3494.54639 3499.59277
3543.0 0.0002822 3493.97729 3498.87622
3537.0 0.0002827 3493.40820 3498.19727
3488.0 0.0002867 3492.83936 3497.55688
3635.0 0.0002751 3492.27051 3496.95728
3607.0 0.0002772 3491.70190 3496.40381
3462.0 0.0002889 3491.13379 3495.90161
3516.0 0.0002844 3490.56567 3495.46191
3471.0 0.0002881 3489.99805 3495.09814
3493.0 0.0002863 3489.43066 3494.83423
3597.0 0.0002780 3488.86377 3494.71045
3513.0 0.0002847 3488.29712 3494.81323
3559.0 0.0002810 3487.73096 3495.34155
3498.0 0.0002859 3487.16504 3496.74463
3534.0 0.0002830 3486.59985 3499.90894
3485.0 0.0002869 3486.03516 3506.25464
3455.0 0.0002894 3485.47070 3517.44580
3483.0 0.0002871 3484.90698 3534.46313
3507.0 0.0002851 3484.34375 3556.16064
3500.0 0.0002857 3483.78101 3577.72632
3570.0 0.0002801 3483.21899 3590.05127
3608.0 0.0002772 3482.65771 3585.70093
3463.0 0.0002888 3482.09692 3566.82300
3512.0 0.0002847 3481.53687 3543.01270
3547.0 0.0002819 3480.97754 3521.68384
3541.0 0.0002824 3480.41895 3505.91064
3453.0 0.0002896 3479.86133 3495.73267
3418.0 0.0002926 3479.30420 3489.71313
3497.0 0.0002860 3478.74780 3486.20752
3396.0 0.0002945 3478.19238 3484.01196
3419.0 0.0002925 3477.63794 3482.44824
3331.0 0.0003002 3477.08423 3481.19653
3443.0 0.0002904 3476.53125 3480.11792
3516.0 0.0002844 3475.97925 3479.57324
3475.0 0.0002878 3475.42822 3478.69873
3433.0 0.0002913 3474.87817 3477.88452
3444.0 0.0002904 3474.32910 3477.11743
3400.0 0.0002941 3473.78101 3476.38770
3393.0 0.0002947 3473.23413 3475.68774
3483.0 0.0002871 3472.68799 3474.28784
3440.0 0.0002907 3472.14307 3473.65356
3462.0 0.0002889 3471.59937 3473.03564
3529.0 0.0002834 3471.05640 3472.43188
3437.0 0.0002910 3470.51489 3471.83960
3469.0 0.0002883 3469.97412 3471.25830
3520.0 0.0002841 3469.43481 3470.68604
3470.0 0.0002882 3468.89648 3470.12256
3388.0 0.0002952 3468.35962 3469.56616
3429.0 0.0002916 3467.82373 3469.01709
3417.0 0.0002927 3467.28906 3468.47437
3388.0 0.0002952 3466.75586 3467.98022
3333.0 0.0003000 3466.22363 3467.45044
3401.0 0.0002940 3465.69287 3466.92651
3479.0 0.0002874 3465.16333 3466.40796
3378.0 0.0002960 3464.63501 3465.89502
3398.0 0.0002943 3464.10815 3465.38745
3453.0 0.0002896 3463.58252 3464.88501
3343.0 0.0002991 3463.05835 3464.38818
3435.0 0.0002911 3462.53540 3463.89697
3457.0 0.0002893 3462.01392 3463.41162
3542.0 0.0002823 3461.49365 3462.93237
3487.0 0.0002868 3460.97510 3462.45898
3503.0 0.0002855 3460.45776 3461.99243
3529.0 0.0002834 3459.94189 3461.53271
3579.0 0.0002794 3459.42749 3461.08057
3496.0 0.0002860 3458.91455 3460.63574
3543.0 0.0002822 3458.40308 3460.19946
3517.0 0.0002843 3457.89331 3459.77246
3484.0 0.0002870 3457.38477 3459.35547
3561.0 0.0002808 3456.87769 3458.94922
3410.0 0.0002933 3456.37231 3458.55469
3425.0 0.0002920 3455.86841 3458.17358
3492.0 0.0002864 3455.36621 3457.80713
3508.0 0.0002851 3454.86548 3457.45703
3383.0 0.0002956 3454.36621 3457.12524
3490.0 0.0002865 3453.86841 3456.81470
3430.0 0.0002915 3453.37231 3456.52710
3432.0 0.0002914 3452.87793 3456.26685
3543.0 0.0002822 3452.38501 3456.03760
3447.0 0.0002901 3451.89355 3455.84497
3492.0 0.0002864 3451.40405 3455.69507
3359.0 0.0002977 3450.91602 3455.59424
3422.0 0.0002922 3450.42944 3455.55347
3412.0 0.0002931 3449.94482 3455.58374
3560.0 0.0002809 3449.46167 3455.69995
3454.0 0.0002895 3448.98022 3455.92163
3490.0 0.0002865 3448.50024 3456.27368
3486.0 0.0002869 3448.02222 3456.78906
3413.0 0.0002930 3447.54565 3457.51123
3422.0 0.0002922 3447.07104 3458.50146
3473.0 0.0002879 3446.59790 3459.76343
3309.0 0.0003022 3446.12622 3461.59375
3450.0 0.0002899 3445.65649 3464.14624
3425.0 0.0002920 3445.18848 3467.92310
3364.0 0.0002973 3444.72217 3474.07568
3473.0 0.0002879 3444.25757 3485.12427
3431.0 0.0002915 3443.79443 3505.85864
3535.0 0.0002829 3443.33325 3543.58618
3502.0 0.0002856 3442.87378 3606.26465
3596.0 0.0002781 3442.41602 3697.55078
3810.0 0.0002625 3441.95972 3809.64014
3815.0 0.0002621 3441.50537 3915.87427
3853.0 0.0002595 3441.05273 3970.51880
3926.0 0.0002547 3440.60181 3939.57642
3843.0 0.0002602 3440.15259 3842.51318
3691.0 0.0002709 3439.70508 3727.33276
3609.0 0.0002771 3439.25928 3627.45386
3482.0 0.0002872 3438.81519 3555.54541
3572.0 0.0002800 3438.37280 3510.53809
3348.0 0.0002987 3437.93213 3485.08008
3493.0 0.0002863 3437.49316 3471.34570
3349.0 0.0002986 3437.05615 3463.83618
3345.0 0.0002990 3436.62036 3459.65747
3346.0 0.0002989 3436.18677 3457.76660
3477.0 0.0002876 3435.75464 3458.20630
3453.0 0.0002896 3435.32422 3461.50513
3488.0 0.0002867 3434.89575 3468.05420
3383.0 0.0002956 3434.46875 3477.34619
3442.0 0.0002905 3434.04346 3487.18799
3473.0 0.0002879 3433.61987 3493.29883
3527.0 0.0002835 3433.19800 3491.38403
3466.0 0.0002885 3432.77783 3481.88013
3434.0 0.0002912 3432.35938 3469.39648
3565.0 0.0002805 3431.94263 3457.85962
3494.0 0.0002862 3431.52759 3449.02783
3469.0 0.0002883 3431.11401 3443.07422
3300.0 0.0003030 3430.70215 3439.35132
3454.0 0.0002895 3430.29199 3437.03442
3401.0 0.0002940 3429.88354 3435.48291
3492.0 0.0002864 3429.47656 3437.80933
3434.0 0.0002912 3429.07153 3436.94873
3483.0 0.0002871 3428.66797 3436.20923
3344.0 0.0002990 3428.26587 3435.55396
3481.0 0.0002873 3427.86572 3434.96240
3412.0 0.0002931 3427.46680 3434.42261
3464.0 0.0002887 3427.06982 3433.92529
3455.0 0.0002894 3426.67432 3433.46436
3390.0 0.0002950 3426.28027 3433.03564
3467.0 0.0002884 3425.88794 3432.63550
3377.0 0.0002961 3425.49731 3432.26099
3452.0 0.0002897 3425.10791 3431.91064
3458.0 0.0002892 3424.72021 3431.58228
3428.0 0.0002917 3424.33398 3431.27515
3401.0 0.0002940 3423.94946 3430.98901
3403.0 0.0002939 3423.56641 3430.72290
3414.0 0.0002929 3423.18481 3430.47705
3430.0 0.0002915 3422.80469 3430.25122
3451.0 0.0002898 3422.42627 3430.04565
3351.0 0.0002984 3422.04907 3429.86060
3499.0 0.0002858 3421.67358 3429.69727
3455.0 0.0002894 3421.29932 3429.55615
3368.0 0.0002969 3420.92651 3429.78101
3428.0 0.0002917 3420.55518 3429.69775
3498.0 0.0002859 3420.18530 3429.64087
3425.0 0.0002920 3419.81689 3429.61206
3434.0 0.0002912 3419.44995 3429.61304
3380.0 0.0002959 3419.08423 3429.64673
3475.0 0.0002878 3418.71997 3429.71436
3407.0 0.0002935 3418.35693 3429.82007
3342.0 0.0002992 3417.99536 3429.96704
3450.0 0.0002899 3417.63525 3430.15820
3435.0 0.0002911 3417.27637 3430.39893
3432.0 0.0002914 3416.91870 3430.69312
3478.0 0.0002875 3416.56226 3431.04761
3399.0 0.0002942 3416.20728 3431.46802
3324.0 0.0003008 3415.85352 3431.96216
3416.0 0.0002927 3415.50122 3432.53833
3402.0 0.0002939 3415.14990 3433.20703
3357.0 0.0002979 3414.79980 3433.97974
3366.0 0.0002971 3414.45093 3434.87012
3347.0 0.0002988 3414.10327 3435.89429
3371.0 0.0002966 3413.75684 3436.64575
3446.0 0.0002902 3413.41162 3438.01050
3484.0 0.0002870 3413.06763 3439.57788
3347.0 0.0002988 3412.72437 3441.37939
3493.0 0.0002863 3412.38257 3443.45532
3441.0 0.0002906 3412.04175 3445.85352
3438.0 0.0002909 3411.70215 3448.63281
3335.0 0.0002999 3411.36353 3451.86719
3467.0 0.0002884 3411.02588 3455.64819
3483.0 0.0002871 3410.68945 3460.09204
3362.0 0.0002974 3410.35400 3465.34717
3557.0 0.0002811 3410.01953 3471.60596
3433.0 0.0002913 3409.68604 3479.12012
3510.0 0.0002849 3409.35352 3488.22583
3486.0 0.0002869 3409.02197 3499.37866
3514.0 0.0002846 3408.69141 3513.21851
3539.0 0.0002826 3408.36157 3530.71045
3495.0 0.0002861 3408.03296 3553.51367
3632.0 0.0002753 3407.70508 3584.95532
3624.0 0.0002759 3407.37817 3632.70605
3644.0 0.0002744 3407.05176 3713.48389
3884.0 0.0002575 3406.72656 3860.14478
4092.0 0.0002444 3406.40210 4125.55469
4586.0 0.0002181 3406.07837 4573.12061
5449.0 0.0001835 3405.75562 5244.67383
6246.0 0.0001601 3405.43335 6108.62939
7199.0 0.0001389 3405.11206 7000.90283
7642.0 0.0001309 3404.79150 7591.75488
7681.0 0.0001302 3404.47144 7543.42676
6959.0 0.0001437 3404.15234 6885.16797
5870.0 0.0001704 3403.83374 5978.27490
5182.0 0.0001930 3403.51587 5134.19775
4409.0 0.0002268 3403.19873 4494.58252
4196.0 0.0002383 3402.88208 4076.75244
4009.0 0.0002494 3402.56616 3832.74292
3820.0 0.0002618 3402.25073 3699.02832
3728.0 0.0002682 3401.93604 3625.35815
3698.0 0.0002704 3401.62158 3581.61621
3628.0 0.0002756 3401.30811 3552.88208
3549.0 0.0002818 3400.99487 3532.59741
3566.0 0.0002804 3400.68213 3518.04590
3516.0 0.0002844 3400.36987 3508.33667
3423.0 0.0002921 3400.05811 3503.94922
3478.0 0.0002875 3399.74683 3507.07031
3661.0 0.0002731 3399.43604 3521.98730
3600.0 0.0002778 3399.12549 3554.50586
3668.0 0.0002726 3398.81543 3609.33228
3777.0 0.0002648 3398.50586 3685.37256
3792.0 0.0002637 3398.19653 3770.02344
3763.0 0.0002657 3397.88745 3834.52856
3852.0 0.0002596 3397.57886 3842.82764
3794.0 0.0002636 3397.27051 3786.99487
3718.0 0.0002690 3396.96240 3698.06689
3651.0 0.0002739 3396.65454 3609.80225
3530.0 0.0002833 3396.34692 3539.71338
3603.0 0.0002775 3396.03955 3491.83301
3430.0 0.0002915 3395.73267 3462.51245
3452.0 0.0002897 3395.42554 3445.56494
3592.0 0.0002784 3395.11890 3435.62524
3331.0 0.0003002 3394.81226 3429.27100
3417.0 0.0002927 3394.50586 3424.72266
3433.0 0.0002913 3394.19946 3421.16260
3396.0 0.0002945 3393.89331 3418.22437
3424.0 0.0002921 3393.58716 3415.72705
3358.0 0.0002978 3393.28101 3413.56250
3408.0 0.0002934 3392.97510 3411.66016
3413.0 0.0002930 3392.66895 3409.96802
3357.0 0.0002979 3392.36304 3408.44678
3291.0 0.0003039 3392.05713 3407.06689
3507.0 0.0002851 3391.75122 3405.80420
3468.0 0.0002884 3391.44507 3404.64185
3400.0 0.0002941 3391.13916 3403.56396
3429.0 0.0002916 3390.83301 3402.55908
3418.0 0.0002926 3390.52661 3401.61743
3457.0 0.0002893 3390.22021 3400.73047
3389.0 0.0002951 3389.91382 3399.89185
3417.0 0.0002927 3389.60742 3399.09595
3385.0 0.0002954 3389.30054 3398.33789
3387.0 0.0002952 3388.99365 3397.61328
3399.0 0.0002942 3388.68652 3396.91846
3466.0 0.0002885 3388.37939 3396.25098
3369.0 0.0002968 3388.07178 3395.60767
3301.0 0.0003029 3387.76392 3394.98657
3346.0 0.0002989 3387.45605 3394.38525
3509.0 0.0002850 3387.14771 3393.80225
3414.0 0.0002929 3386.83911 3393.23584
3358.0 0.0002978 3386.53027 3392.68408
3450.0 0.0002899 3386.22119 3392.14648
3412.0 0.0002931 3385.91162 3391.62134
3392.0 0.0002948 3385.60181 3391.10815
3368.0 0.0002969 3385.29175 3390.60522
3284.0 0.0003045 3384.98096 3390.11255
3317.0 0.0003015 3384.67017 3389.62866
3323.0 0.0003009 3384.35889 3389.15356
3403.0 0.0002939 3384.04688 3388.68652
3376.0 0.0002962 3383.73486 3388.22632
3358.0 0.0002978 3383.42212 3387.77271
3408.0 0.0002934 3383.10889 3383.96924
3377.0 0.0002961 3382.79541 3383.62915
3443.0 0.0002904 3382.48120 3383.29004
3324.0 0.0003008 3382.16675 3382.95264
3338.0 0.0002996 3381.85156 3382.61621
3292.0 0.0003038 3381.53589 3382.28101
3407.0 0.0002935 3381.21973 3381.94678
3356.0 0.0002980 3380.90308 3381.61353
3463.0 0.0002888 3380.58569 3381.28101
3364.0 0.0002973 3380.26782 3380.94922
3353.0 0.0002982 3379.94922 3380.61792
3380.0 0.0002959 3379.63013 3380.28735
3413.0 0.0002930 3379.31030 3379.95703
3385.0 0.0002954 3378.98999 3379.62769
3336.0 0.0002998 3378.66895 3379.29834
3416.0 0.0002927 3378.34717 3378.96973
3425.0 0.0002920 3378.02490 3378.72681
3405.0 0.0002937 3377.70190 3378.40161
3361.0 0.0002975 3377.37817 3378.07666
3363.0 0.0002974 3377.05371 3377.75171
3423.0 0.0002921 3376.72852 3377.42773
3501.0 0.0002856 3376.40259 3377.10400
3517.0 0.0002843 3376.07593 3376.43481
3532.0 0.0002831 3375.74878 3376.12207
3394.0 0.0002946 3375.42041 3375.80908
3480.0 0.0002874 3375.09155 3375.49658
3486.0 0.0002869 3374.76196 3375.18457
3505.0 0.0002853 3374.43140 3374.87231
3544.0 0.0002822 3374.10010 3374.56104
3386.0 0.0002953 3373.76831 3374.25024
3587.0 0.0002788 3373.43530 3373.94043
3492.0 0.0002864 3373.10156 3373.63110
3439.0 0.0002908 3372.76709 3373.32300
3488.0 0.0002867 3372.43164 3373.01611
3329.0 0.0003004 3372.09546 3372.71045
3375.0 0.0002963 3371.75830 3372.40674
3390.0 0.0002950 3371.42041 3372.10449
3432.0 0.0002914 3371.08154 3371.80518
3407.0 0.0002935 3370.74170 3371.50806
3336.0 0.0002998 3370.40112 3371.21436
3430.0 0.0002915 3370.05957 3370.92407
3358.0 0.0002978 3369.71729 3370.63794
3386.0 0.0002953 3369.37378 3370.35693
3379.0 0.0002959 3369.02954 3370.08179
3349.0 0.0002986 3368.68433 3369.81323
3485.0 0.0002869 3368.33838 3369.55249
3483.0 0.0002871 3367.99121 3369.30200
3512.0 0.0002847 3367.64331 3369.06226
3429.0 0.0002916 3367.29443 3368.83569
3357.0 0.0002979 3366.94434 3368.62598
3544.0 0.0002822 3366.59351 3368.43555
3472.0 0.0002880 3366.24170 3368.26880
3265.0 0.0003063 3365.88892 3368.13135
3500.0 0.0002857 3365.53516 3368.03052
3380.0 0.0002959 3365.18042 3367.97510
3456.0 0.0002894 3364.82471 3367.97754
3364.0 0.0002973 3364.46802 3368.05469
3445.0 0.0002903 3364.11035 3368.23022
3453.0 0.0002896 3363.75171 3368.54102
3304.0 0.0003027 3363.39185 3369.05273
3440.0 0.0002907 3363.03125 3369.90039
3333.0 0.0003000 3362.66943 3374.77588
3368.0 0.0002969 3362.30688 3377.64258
3404.0 0.0002938 3361.94312 3382.97729
3433.0 0.0002913 3361.57837 3392.54883
3386.0 0.0002953 3361.21265 3408.26538
3349.0 0.0002986 3360.84595 3431.04370
3499.0 0.0002858 3360.47803 3459.16431
3488.0 0.0002867 3360.10913 3486.45410
3452.0 0.0002897 3359.73950 3501.76685
3506.0 0.0002852 3359.36865 3495.86719
3442.0 0.0002905 3358.99683 3472.52124
3567.0 0.0002803 3358.62378 3443.60718
3313.0 0.0003018 3358.25000 3417.88892
3391.0 0.0002949 3357.87500 3398.96899
3317.0 0.0003015 3357.49902 3386.98511
3306.0 0.0003025 3357.12207 3380.40991
3341.0 0.0002993 3356.74414 3377.53174
3383.0 0.0002956 3356.36523 3377.34668
3308.0 0.0003023 3355.98511 3379.84326
3393.0 0.0002947 3355.60425 3385.85718
3426.0 0.0002919 3355.22217 3396.53662
3411.0 0.0002932 3354.83887 3412.39014
3414.0 0.0002929 3354.45483 3432.05249
3340.0 0.0002994 3354.06982 3450.97021
3432.0 0.0002914 3353.68359 3461.11133
3472.0 0.0002880 3353.29663 3456.11279
3450.0 0.0002899 3352.90845 3438.98584
3421.0 0.0002923 3352.51929 3418.18872
3398.0 0.0002943 3352.12915 3399.80151
3367.0 0.0002970 3351.73804 3386.25830
3308.0 0.0003023 3351.34595 3377.56689
3328.0 0.0003005 3350.95288 3372.55396
3351.0 0.0002984 3350.55884 3369.85449
3348.0 0.0002987 3350.16357 3368.43604
3278.0 0.0003051 3349.76758 3367.69482
3400.0 0.0002941 3349.37061 3367.33398
3287.0 0.0003042 3348.97266 3367.22388
3437.0 0.0002910 3348.57373 3367.30981
3360.0 0.0002976 3348.17383 3367.56836
3347.0 0.0002988 3347.77295 3367.99146
3427.0 0.0002918 3347.37109 3368.57910
3429.0 0.0002916 3346.96826 3369.33765
3308.0 0.0003023 3346.56470 3370.27856
3291.0 0.0003039 3346.15991 3371.42065
3300.0 0.0003030 3345.75439 3372.78687
3352.0 0.0002983 3345.34790 3374.40820
3422.0 0.0002922 3344.94067 3376.32227
3332.0 0.0003001 3344.53223 3378.57837
3386.0 0.0002953 3344.12305 3381.23730
3385.0 0.0002954 3343.71289 3384.37427
3331.0 0.0003002 3343.30200 3388.08691
3444.0 0.0002904 3342.89038 3392.49902
3449.0 0.0002899 3342.47754 3397.76880
3380.0 0.0002959 3342.06396 3404.10474
3536.0 0.0002828 3341.64966 3411.78003
3512.0 0.0002847 3341.23438 3421.16479
3513.0 0.0002847 3340.81812 3432.76782
3513.0 0.0002847 3340.40137 3447.33105
3471.0 0.0002881 3339.98340 3466.05493
3528.0 0.0002834 3339.56494 3491.20264
3483.0 0.0002871 3339.14551 3527.63354
3668.0 0.0002726 3338.72559 3586.04272
3667.0 0.0002727 3338.30444 3688.12964
3867.0 0.0002586 3337.88281 3871.35815
4183.0 0.0002391 3337.46021 4186.69434
4673.0 0.0002140 3337.03711 4680.90430
5223.0 0.0001915 3336.61304 5361.15625
6099.0 0.0001640 3336.18823 6148.78564
6772.0 0.0001477 3335.76294 6831.88721
6976.0 0.0001433 3335.33691 7089.82959
6605.0 0.0001514 3334.90991 6757.74805
6003.0 0.0001666 3334.48242 6040.81836
5318.0 0.0001880 3334.05420 5268.18359
4595.0 0.0002176 3333.62524 4609.94092
4160.0 0.0002404 3333.19580 4141.07227
3815.0 0.0002621 3332.76538 3846.36914
3806.0 0.0002627 3332.33472 3676.63477
3743.0 0.0002672 3331.90332 3581.99438
3574.0 0.0002798 3331.47119 3527.07275
3388.0 0.0002952 3331.03833 3492.24487
3465.0 0.0002886 3330.60522 3467.77734
3374.0 0.0002964 3330.17139 3449.32764
3364.0 0.0002973 3329.73682 3434.84814
3422.0 0.0002922 3329.30200 3423.22974
3480.0 0.0002874 3328.86646 3413.77368
3486.0 0.0002869 3328.43042 3405.99585
3427.0 0.0002918 3327.99390 3399.54321
3467.0 0.0002884 3327.55688 3394.15479
3400.0 0.0002941 3327.11914 3389.63232
3379.0 0.0002959 3326.68115 3385.82397
3261.0 0.0003067 3326.24268 3382.61255
3376.0 0.0002962 3325.80371 3379.90723
3443.0 0.0002904 3325.36450 3383.09033
3341.0 0.0002993 3324.92456 3381.35596
3216.0 0.0003109 3324.48438 3379.87744
3234.0 0.0003092 3324.04395 3378.79053
3292.0 0.0003038 3323.60278 3377.98267
3388.0 0.0002952 3323.16162 3377.43237
3390.0 0.0002950 3322.71973 3377.12476
3240.0 0.0003086 3322.27783 3377.04858
3414.0 0.0002929 3321.83545 3377.19751
3392.0 0.0002948 3321.39282 3377.56909
3341.0 0.0002993 3320.94995 3378.16162
3403.0 0.0002939 3320.50659 3378.98022
3309.0 0.0003022 3320.06299 3380.03052
3377.0 0.0002961 3319.61938 3381.32300
3371.0 0.0002966 3319.17529 3382.87061
3344.0 0.0002990 3318.73120 3384.68994
3325.0 0.0003008 3318.28662 3386.80249
3327.0 0.0003006 3317.84204 3389.23315
3246.0 0.0003081 3317.39722 3392.01343
3284.0 0.0003045 3316.95239 3395.17871
3357.0 0.0002979 3316.50732 3398.77393
3365.0 0.0002972 3316.06201 3402.85059
3398.0 0.0002943 3315.61670 3407.47168
3437.0 0.0002910 3315.17114 3412.71338
3432.0 0.0002914 3314.72559 3418.66113
3357.0 0.0002979 3314.28003 3425.42505
3471.0 0.0002881 3313.83447 3433.13672
3533.0 0.0002830 3313.38867 3441.95679
3427.0 0.0002918 3312.94312 3452.08203
3445.0 0.0002903 3312.49731 3463.75732
3379.0 0.0002959 3312.05151 3477.29053
3396.0 0.0002945 3311.60596 3493.06812
3484.0 0.0002870 3311.16016 3511.58594
3466.0 0.0002885 3310.71460 3533.48560
3479.0 0.0002874 3310.26929 3559.60596
3602.0 0.0002776 3309.82373 3591.06665
3595.0 0.0002782 3309.37842 3629.39160
3701.0 0.0002702 3308.93335 3676.74536
3671.0 0.0002724 3308.48828 3736.48535
3863.0 0.0002589 3308.04321 3814.53247
3909.0 0.0002558 3307.59863 3923.11768
4146.0 0.0002412 3307.15405 4088.98901
4363.0 0.0002292 3306.70972 4368.01953
4829.0 0.0002071 3306.26563 4862.30371
5805.0 0.0001723 3305.82178 5723.75586
7116.0 0.0001405 3305.37793 7117.75830
9115.0 0.0001097 3304.93457 9126.77148
11617.0 0.0000861 3304.49146 11627.16992
14072.0 0.0000711 3304.04883 14110.66797
15497.0 0.0000645 3303.60620 15622.64648
15456.0 0.0000647 3303.16406 15285.31152
13277.0 0.0000753 3302.72241 13317.54688
10609.0 0.0000943 3302.28101 10749.45605
8339.0 0.0001199 3301.83984 8395.87012
6794.0 0.0001472 3301.39917 6612.55225
5495.0 0.0001820 3300.95898 5437.23047
4820.0 0.0002075 3300.51929 4742.69971
4411.0 0.0002267 3300.07983 4361.22607
4273.0 0.0002340 3299.64087 4157.95117
4045.0 0.0002472 3299.20264 4050.72412
3953.0 0.0002530 3298.76465 4000.16602
4008.0 0.0002495 3298.32739 3995.10254
3967.0 0.0002521 3297.89038 4045.77930
4288.0 0.0002332 3297.45410 4185.66943
4441.0 0.0002252 3297.01831 4474.76758
4863.0 0.0002056 3296.58301 4991.33154
5800.0 0.0001724 3296.14844 5801.52490
6895.0 0.0001450 3295.71436 6893.52783
8133.0 0.0001230 3295.28125 8117.90625
9101.0 0.0001099 3294.84839 9108.94629
9261.0 0.0001080 3294.41626 9366.10059
8768.0 0.0001141 3293.98486 8713.90723
7300.0 0.0001370 3293.55420 7535.09424
6241.0 0.0001602 3293.12427 6307.96533
5247.0 0.0001906 3292.69482 5299.55225
4623.0 0.0002163 3292.26636 4588.55469
4067.0 0.0002459 3291.83862 4142.04541
3816.0 0.0002621 3291.41162 3882.25586
3577.0 0.0002796 3290.98535 3734.01416
3600.0 0.0002778 3290.55981 3645.20166
3520.0 0.0002841 3290.13501 3586.65210
3479.0 0.0002874 3289.71118 3544.19946
3510.0 0.0002849 3289.28833 3511.35034
3557.0 0.0002811 3288.86621 3484.97217
3465.0 0.0002886 3288.44507 3463.32837
3449.0 0.0002899 3288.02466 3445.30933
3413.0 0.0002930 3287.60522 3430.52637
3401.0 0.0002940 3287.18652 3417.68018
3391.0 0.0002949 3286.76904 3406.73560
3371.0 0.0002966 3286.35229 3397.38306
3275.0 0.0003053 3285.93677 3389.35303
3280.0 0.0003049 3285.52197 3382.37451
3371.0 0.0002966 3285.10815 3376.13525
3350.0 0.0002985 3284.69556 3370.33130
3403.0 0.0002939 3284.28394 3364.83887
3282.0 0.0003047 3283.87329 3359.74292
3323.0 0.0003009 3283.46362 3355.14282
3333.0 0.0003000 3283.05493 3351.06812
3231.0 0.0003095 3282.64746 3347.50220
3362.0 0.0002974 3282.24121 3344.41016
3398.0 0.0002943 3281.83594 3341.77539
3167.0 0.0003158 3281.43188 3339.63379
3255.0 0.0003072 3281.02881 3338.08740
3336.0 0.0002998 3280.62695 3337.28882
3363.0 0.0002974 3280.22632 3337.36035
3295.0 0.0003035 3279.82666 3338.26733
3346.0 0.0002989 3279.42847 3339.65234
3336.0 0.0002998 3279.03125 3340.68506
3401.0 0.0002940 3278.63525 3340.25342
3330.0 0.0003003 3278.24072 3338.00830
3257.0 0.0003070 3277.84717 3334.83350
3263.0 0.0003065 3277.45508 3331.79712
3382.0 0.0002957 3277.06396 3329.50024
3297.0 0.0003033 3276.67432 3328.13330
3290.0 0.0003040 3276.28589 3327.65234
3308.0 0.0003023 3275.89893 3327.92554
3272.0 0.0003056 3275.51294 3328.83813
3253.0 0.0003074 3275.12866 3330.34351
3258.0 0.0003069 3274.74561 3332.46338
3367.0 0.0002970 3274.36377 3324.03271
3421.0 0.0002923 3273.98340 3328.00122
3227.0 0.0003099 3273.60425 3332.98779
3283.0 0.0003046 3273.22681 3339.26953
3330.0 0.0003003 3272.85059 3347.24121
3342.0 0.0002992 3272.47559 3357.52466
3248.0 0.0003079 3272.10229 3371.23022
3320.0 0.0003012 3271.73022 3390.69019
3348.0 0.0002987 3271.35962 3420.75244
3416.0 0.0002927 3270.99072 3471.64307
3475.0 0.0002878 3270.62305 3561.66089
3712.0 0.0002694 3270.25684 3717.60620
4004.0 0.0002498 3269.89209 3968.20142
4247.0 0.0002355 3269.52881 4327.89844
4725.0 0.0002116 3269.16724 4773.31982
5194.0 0.0001925 3268.80713 5215.59473
5620.0 0.0001779 3268.44849 5486.28857
5542.0 0.0001804 3268.09131 5429.01514
5152.0 0.0001941 3267.73560 5080.12402
4624.0 0.0002163 3267.38159 4621.22998
4240.0 0.0002358 3267.02905 4191.98730
3880.0 0.0002577 3266.67822 3867.90186
3616.0 0.0002765 3266.32886 3651.34229
3552.0 0.0002815 3265.98096 3520.86011
3650.0 0.0002740 3265.63501 3447.07422
3454.0 0.0002895 3265.29028 3405.75781
3335.0 0.0002999 3264.94727 3381.71924
3473.0 0.0002879 3264.60596 3367.25195
3297.0 0.0003033 3264.26636 3359.41650
3295.0 0.0003035 3263.92822 3358.26489
3338.0 0.0002996 3263.59180 3366.16479
3356.0 0.0002980 3263.25708 3387.57813
3430.0 0.0002915 3262.92383 3426.80835
3549.0 0.0002818 3262.59229 3486.16260
3563.0 0.0002807 3262.26245 3561.25464
3697.0 0.0002705 3261.93457 3636.05029
3700.0 0.0002703 3261.60791 3680.50464
3599.0 0.0002779 3261.28320 3667.06226
3632.0 0.0002753 3260.96021 3602.49097
3525.0 0.0002837 3260.63892 3518.94751
3458.0 0.0002892 3260.31934 3441.95190
3400.0 0.0002941 3260.00122 3382.74072
3390.0 0.0002950 3259.68506 3342.67603
3274.0 0.0003054 3259.37061 3317.93628
3436.0 0.0002910 3259.05786 3303.30981
3355.0 0.0002981 3258.74683 3294.47925
3320.0 0.0003012 3258.43750 3288.70654
3385.0 0.0002954 3258.12988 3284.53906
3320.0 0.0003012 3257.82422 3281.28516
3456.0 0.0002894 3257.52026 3278.61938
3408.0 0.0002934 3257.21802 3276.37427
3391.0 0.0002949 3256.91748 3274.45020
3428.0 0.0002917 3256.61865 3272.78003
3311.0 0.0003020 3256.32178 3271.31396
3321.0 0.0003011 3256.02661 3270.01636
3354.0 0.0002982 3255.73315 3268.86035
3207.0 0.0003118 3255.44165 3267.82397
3294.0 0.0003036 3255.15186 3266.89136
3305.0 0.0003026 3254.86377 3266.03931
3207.0 0.0003118 3254.57764 3265.28296
3238.0 0.0003088 3254.29321 3264.60474
3254.0 0.0003073 3254.01050 3264.00122
3433.0 0.0002913 3253.72974 3263.47095
3224.0 0.0003102 3253.45068 3263.01855
3223.0 0.0003103 3253.17334 3262.64941
3257.0 0.0003070 3252.89819 3262.38135
3459.0 0.0002891 3252.62451 3262.24756
3218.0 0.0003108 3252.35278 3262.32520
3328.0 0.0003005 3252.08276 3262.78101
3392.0 0.0002948 3251.81470 3263.93481
3421.0 0.0002923 3251.54834 3266.30542
3364.0 0.0002973 3251.28369 3270.54883
3318.0 0.0003014 3251.02100 3277.20093
3276.0 0.0003053 3250.76025 3286.22144
3371.0 0.0002966 3250.50122 3296.41479
3349.0 0.0002986 3250.24390 3304.82861
3259.0 0.0003068 3249.98853 3307.62378
3398.0 0.0002943 3249.73486 3302.39673
3313.0 0.0003018 3249.48315 3292.49438
3276.0 0.0003053 3249.23315 3281.97510
3324.0 0.0003008 3248.98511 3273.19458
3177.0 0.0003148 3248.73877 3266.91455
3244.0 0.0003083 3248.49438 3262.94116
3255.0 0.0003072 3248.25171 3260.66650
3255.0 0.0003072 3248.01099 3259.47290
3318.0 0.0003014 3247.77197 3258.91943
3238.0 0.0003088 3247.53467 3256.66406
3206.0 0.0003119 3247.29932 3256.86133
3235.0 0.0003091 3247.06567 3257.33350
3291.0 0.0003039 3246.83398 3258.11743
3269.0 0.0003059 3246.60400 3259.31519
3220.0 0.0003106 3246.37598 3261.15698
3248.0 0.0003079 3246.14966 3264.15015
3313.0 0.0003018 3245.92505 3269.33887
3253.0 0.0003074 3245.70239 3278.60034
3298.0 0.0003032 3245.48145 3294.70044
3457.0 0.0002893 3245.26245 3320.66138
3447.0 0.0002901 3245.04492 3358.15796
3465.0 0.0002886 3244.82935 3405.14282
3446.0 0.0002902 3244.61572 3452.97607
3421.0 0.0002923 3244.40381 3484.50879
3580.0 0.0002793 3244.19360 3482.17920
3442.0 0.0002905 3243.98511 3447.48730
3298.0 0.0003032 3243.77856 3399.09790
3351.0 0.0002984 3243.57373 3353.25879
3363.0 0.0002974 3243.37061 3317.64819
3282.0 0.0003047 3243.16919 3293.43311
3337.0 0.0002997 3242.96973 3279.68042
3303.0 0.0003028 3242.77197 3273.49219
3273.0 0.0003055 3242.57568 3273.12793
3346.0 0.0002989 3242.38135 3278.09277
3379.0 0.0002959 3242.18872 3288.62500
3343.0 0.0002991 3241.99805 3304.59326
3332.0 0.0003001 3241.80884 3324.16382
3428.0 0.0002917 3241.62134 3343.55469
3460.0 0.0002890 3241.43579 3352.37402
3367.0 0.0002970 3241.25171 3345.98804
3238.0 0.0003088 3241.06934 3328.09888
3230.0 0.0003096 3240.88892 3307.01904
3263.0 0.0003065 3240.70996 3288.37354
3294.0 0.0003036 3240.53271 3274.24707
3195.0 0.0003130 3240.35718 3264.56079
3153.0 0.0003172 3240.18335 3258.33691
3276.0 0.0003053 3240.01123 3254.45337
3189.0 0.0003136 3239.84082 3251.99707
3168.0 0.0003157 3239.67188 3250.37378
3136.0 0.0003189 3239.50464 3249.24658
3145.0 0.0003180 3239.33911 3248.43188
3206.0 0.0003119 3239.17505 3247.82642
3263.0 0.0003065 3239.01270 3247.37036
3281.0 0.0003048 3238.85205 3247.02734
3244.0 0.0003083 3238.69312 3246.77686
3269.0 0.0003059 3238.53564 3246.60669
3297.0 0.0003033 3238.37964 3246.50903
3191.0 0.0003134 3238.22534 3246.48169
3273.0 0.0003055 3238.07275 3246.52222
3298.0 0.0003032 3237.92163 3246.63354
3278.0 0.0003051 3237.77197 3246.81958
3317.0 0.0003015 3237.62402 3247.08789
3345.0 0.0002990 3237.47754 3247.44678
3399.0 0.0002942 3237.33252 3247.91089
3313.0 0.0003018 3237.18921 3248.49707
3384.0 0.0002955 3237.04736 3249.22925
3292.0 0.0003038 3236.90698 3250.13940
3287.0 0.0003042 3236.76807 3251.26880
3251.0 0.0003076 3236.63086 3252.62476
3321.0 0.0003011 3236.49487 3254.38916
3254.0 0.0003073 3236.36060 3256.63379
3176.0 0.0003149 3236.22754 3259.56641
3141.0 0.0003184 3236.09619 3263.59961
3278.0 0.0003051 3235.96606 3269.60669
3262.0 0.0003066 3235.83740 3279.39014
3212.0 0.0003113 3235.71045 3296.28125
3306.0 0.0003025 3235.58472 3325.42285
3304.0 0.0003027 3235.46021 3372.91943
3405.0 0.0002937 3235.33740 3443.15039
3478.0 0.0002875 3235.21582 3534.41382
3720.0 0.0002688 3235.09570 3633.49634
3777.0 0.0002648 3234.97705 3710.27417
3656.0 0.0002735 3234.85962 3726.07959
3718.0 0.0002690 3234.74341 3670.86816
3527.0 0.0002835 3234.62866 3576.61011
3481.0 0.0002873 3234.51538 3479.85107
3405.0 0.0002937 3234.40332 3400.41724
3336.0 0.0002998 3234.29248 3344.07764
3392.0 0.0002948 3234.18311 3308.37744
3249.0 0.0003078 3234.07495 3287.49048
3185.0 0.0003140 3233.96802 3275.67554
3228.0 0.0003098 3233.86230 3268.84375
3245.0 0.0003082 3233.75781 3264.63525
3267.0 0.0003061 3233.65479 3261.63550
3244.0 0.0003083 3233.55273 3259.77246
3168.0 0.0003157 3233.45190 3258.54346
3293.0 0.0003037 3233.35254 3257.81543
3311.0 0.0003020 3233.25415 3257.51221
3273.0 0.0003055 3233.15698 3257.59106
3306.0 0.0003025 3233.06128 3258.03198
3245.0 0.0003082 3232.96631 3258.83521
3164.0 0.0003161 3232.87280 3260.01587
3322.0 0.0003010 3232.78027 3261.61060
3379.0 0.0002959 3232.68872 3263.67383
3260.0 0.0003067 3232.59863 3266.28564
3331.0 0.0003002 3232.50952 3269.55786
3204.0 0.0003121 3232.42139 3273.64551
3260.0 0.0003067 3232.33447 3278.76587
3302.0 0.0003028 3232.24854 3285.23950
3312.0 0.0003019 3232.16357 3293.58350
3372.0 0.0002966 3232.07983 3304.75806
3204.0 0.0003121 3231.99707 3320.74854
3249.0 0.0003078 3231.91504 3345.73706
3333.0 0.0003000 3231.83447 3387.90869
3394.0 0.0002946 3231.75464 3461.08960
3580.0 0.0002793 3231.67578 3584.11060
3920.0 0.0002551 3231.59790 3775.19580
3944.0 0.0002535 3231.52100 4040.41748
4395.0 0.0002275 3231.44531 4357.97168
4752.0 0.0002104 3231.37012 4658.94287
4870.0 0.0002053 3231.29614 4822.71729
4749.0 0.0002106 3231.22290 4752.93799
4613.0 0.0002168 3231.15063 4493.62402
4299.0 0.0002326 3231.07935 4170.89404
3859.0 0.0002591 3231.00879 3878.18042
3643.0 0.0002745 3230.93921 3654.82935
3514.0 0.0002846 3230.87036 3504.48315
3419.0 0.0002925 3230.80225 3412.34204
3309.0 0.0003022 3230.73511 3358.76636
3399.0 0.0002942 3230.66870 3327.48145
3331.0 0.0003002 3230.60327 3308.03613
3421.0 0.0002923 3230.53833 3294.79395
3379.0 0.0002959 3230.47437 3285.02197
3344.0 0.0002990 3230.41113 3277.42578
3340.0 0.0002994 3230.34863 3271.34033
3247.0 0.0003080 3230.28662 3266.37354
3295.0 0.0003035 3230.22559 3262.26660
3270.0 0.0003058 3230.16528 3258.83252
3349.0 0.0002986 3230.10571 3255.93408
3252.0 0.0003075 3230.04663 3253.46753
3219.0 0.0003107 3229.98828 3251.35278
3266.0 0.0003062 3229.93066 3249.52808
3291.0 0.0003039 3229.87354 3247.94556
3240.0 0.0003086 3229.81714 3246.56665
3220.0 0.0003106 3229.76123 3245.36157
3217.0 0.0003108 3229.70605 3244.30615
3224.0 0.0003102 3229.65137 3243.38232
3217.0 0.0003108 3229.59741 3242.57422
3224.0 0.0003102 3229.54395 3241.87134
3257.0 0.0003070 3229.49097 3241.26563
3220.0 0.0003106 3229.43848 3240.75317
3288.0 0.0003041 3229.38672 3240.33374
3322.0 0.0003010 3229.33521 3240.01489
3237.0 0.0003089 3229.28442 3239.81543
3302.0 0.0003028 3229.23413 3239.78564
3231.0 0.0003095 3229.18408 3240.03223
3285.0 0.0003044 3229.13477 3240.76245
3208.0 0.0003117 3229.08569 3242.33594
3231.0 0.0003095 3229.03711 3245.12354
3238.0 0.0003088 3228.98901 3249.50586
3205.0 0.0003120 3228.94116 3255.49243
3281.0 0.0003048 3228.89380 3262.38599
3292.0 0.0003038 3228.84692 3268.37402
3258.0 0.0003069 3228.80029 3270.67896
3203.0 0.0003122 3228.75415 3267.77930
3240.0 0.0003086 3228.70825 3260.99365
3137.0 0.0003188 3228.66260 3253.78003
3283.0 0.0003046 3228.61743 3247.53467
3255.0 0.0003072 3228.57251 3242.90332
3152.0 0.0003173 3228.52783 3239.84546
3331.0 0.0003002 3228.48364 3237.99585
3226.0 0.0003100 3228.43945 3236.92993
3320.0 0.0003012 3228.39575 3236.32056
3312.0 0.0003019 3228.35205 3235.96387
3284.0 0.0003045 3228.30884 3235.75391
3315.0 0.0003017 3228.26563 3235.64233
3222.0 0.0003104 3228.22290 3235.60522
3245.0 0.0003082 3228.18018 3235.63477
3221.0 0.0003105 3228.13770 3235.72607
3315.0 0.0003017 3228.09521 3235.87866
3250.0 0.0003077 3228.05322 3236.09644
3223.0 0.0003103 3228.01123 3236.38306
3219.0 0.0003107 3227.96924 3236.74609
3200.0 0.0003125 3227.92749 3237.24194
3259.0 0.0003068 3227.88574 3237.79565
3382.0 0.0002957 3227.84424 3238.46948
3285.0 0.0003044 3227.80273 3239.28857
3270.0 0.0003058 3227.76147 3240.28467
3293.0 0.0003037 3227.72021 3241.50269
3307.0 0.0003024 3227.67896 3243.00562
3201.0 0.0003124 3227.63770 3244.89038
3192.0 0.0003133 3227.59644 3247.32690
3202.0 0.0003123 3227.55542 3250.63257
3230.0 0.0003096 3227.51416 3255.42017
3203.0 0.0003122 3227.47314 3262.79077
3272.0 0.0003056 3227.43188 3274.49219
3344.0 0.0002990 3227.39063 3292.87207
3276.0 0.0003053 3227.34961 3320.47217
3417.0 0.0002927 3227.30835 3359.27979
3434.0 0.0002912 3227.26685 3409.52051
3554.0 0.0002814 3227.22559 3467.81201
3634.0 0.0002752 3227.18408 3527.40063
3450.0 0.0002899 3227.14258 3584.85278
3564.0 0.0002806 3227.10083 3639.98438
3608.0 0.0002772 3227.05908 3689.15210
3613.0 0.0002768 3227.01709 3711.53735
3566.0 0.0002804 3226.97510 3683.91040
3546.0 0.0002820 3226.93286 3609.12183
3499.0 0.0002858 3226.89063 3516.22437
3341.0 0.0002993 3226.84814 3430.58276
3329.0 0.0003004 3226.80542 3363.70361
3272.0 0.0003056 3226.76270 3317.30859
3214.0 0.0003111 3226.71948 3287.90332
3274.0 0.0003054 3226.67627 3270.26904
3247.0 0.0003080 3226.63281 3259.75098
3227.0 0.0003099 3226.58911 3253.16357
3221.0 0.0003105 3226.54517 3248.68628
3184.0 0.0003141 3226.50098 3245.39771
3348.0 0.0002987 3226.45654 3242.84985
3207.0 0.0003118 3226.41162 3240.81787
3146.0 0.0003179 3226.36670 3239.17578
3155.0 0.0003170 3226.32153 3237.84717
3265.0 0.0003063 3226.27588 3236.78052
3196.0 0.0003129 3226.22998 3235.93604
3086.0 0.0003240 3226.18384 3235.27539
3105.0 0.0003221 3226.13721 3234.74976
3183.0 0.0003142 3226.09058 3234.28882
3168.0 0.0003157 3226.04321 3233.82520
3242.0 0.0003085 3225.99561 3233.35156
3195.0 0.0003130 3225.94775 3232.92358
3194.0 0.0003131 3225.89966 3232.60400
3164.0 0.0003161 3225.85083 3232.44873
3238.0 0.0003088 3225.80200 3232.53564
3326.0 0.0003007 3225.75244 3233.00708
3426.0 0.0002919 3225.70264 3234.11279
3281.0 0.0003048 3225.65234 3236.21582
3230.0 0.0003096 3225.60181 3239.70972
3204.0 0.0003121 3225.55054 3244.80957
3338.0 0.0002996 3225.49902 3255.93335
3233.0 0.0003093 3225.44702 3262.71265
3143.0 0.0003182 3225.39453 3267.43091
3179.0 0.0003146 3225.34180 3267.56421
3232.0 0.0003094 3225.28833 3263.00903
3201.0 0.0003124 3225.23462 3256.22510
3210.0 0.0003115 3225.18018 3249.56323
3260.0 0.0003067 3225.12524 3244.20825
3193.0 0.0003132 3225.07007 3240.43384
3126.0 0.0003199 3225.01416 3238.09009
3229.0 0.0003097 3224.95776 3236.75488
3182.0 0.0003143 3224.90088 3236.05103
3165.0 0.0003160 3224.84351 3235.71191
3132.0 0.0003193 3224.78540 3235.58545
3247.0 0.0003080 3224.72705 3235.59814
3152.0 0.0003173 3224.66797 3235.72095
3205.0 0.0003120 3224.60840 3235.94971
3135.0 0.0003190 3224.54810 3236.29565
3291.0 0.0003039 3224.48730 3236.79712
3326.0 0.0003007 3224.42603 3237.54053
3217.0 0.0003108 3224.36401 3238.70703
3151.0 0.0003174 3224.30151 3240.63721
3273.0 0.0003055 3224.23853 3243.87158
3277.0 0.0003052 3224.17480 3249.09106
3317.0 0.0003015 3224.11035 3256.87329
3260.0 0.0003067 3224.04541 3267.26563
3293.0 0.0003037 3223.97998 3279.21655
3152.0 0.0003173 3223.91357 3289.90527
3301.0 0.0003029 3223.84692 3294.85059
3229.0 0.0003097 3223.77930 3291.25000
3214.0 0.0003111 3223.71118 3281.45483
3152.0 0.0003173 3223.64233 3270.00854
3158.0 0.0003167 3223.57275 3259.93872
3188.0 0.0003137 3223.50269 3252.44360
3204.0 0.0003121 3223.43188 3247.55933
3235.0 0.0003091 3223.36035 3244.74097
3304.0 0.0003027 3223.28833 3243.30396
3256.0 0.0003071 3223.21533 3250.55420
3333.0 0.0003000 3223.14185 3250.59888
3233.0 0.0003093 3223.06763 3250.92236
3285.0 0.0003044 3222.99268 3251.43188
3289.0 0.0003040 3222.91699 3252.08569
3152.0 0.0003173 3222.84058 3252.86426
3248.0 0.0003079 3222.76343 3253.76025
3215.0 0.0003110 3222.68579 3254.76978
3247.0 0.0003080 3222.60718 3255.89429
3309.0 0.0003022 3222.52783 3257.03784
3261.0 0.0003067 3222.44800 3258.41064
3295.0 0.0003035 3222.36719 3259.87915
3385.0 0.0002954 3222.28564 3261.53149
3253.0 0.0003074 3222.20337 3263.34229
3303.0 0.0003028 3222.12036 3265.03027
3227.0 0.0003099 3222.03662 3267.21680
3270.0 0.0003058 3221.95215 3269.61987
3224.0 0.0003102 3221.86694 3272.26660
3252.0 0.0003075 3221.78076 3275.18848
3275.0 0.0003053 3221.69385 3278.42310
3268.0 0.0003060 3221.60645 3282.01538
3265.0 0.0003063 3221.51807 3286.01880
3326.0 0.0003007 3221.42871 3290.49829
3329.0 0.0003004 3221.33887 3295.53101
3284.0 0.0003045 3221.24805 3301.21265
3232.0 0.0003094 3221.15649 3307.69531
3368.0 0.0002969 3221.06421 3315.05396
3293.0 0.0003037 3220.97119 3323.50317
3236.0 0.0003090 3220.87720 3333.27075
3374.0 0.0002964 3220.78247 3344.64917
3233.0 0.0003093 3220.68701 3358.01416
3268.0 0.0003060 3220.59058 3373.85767
3377.0 0.0002961 3220.49341 3392.83765
3419.0 0.0002925 3220.39551 3415.85889
3394.0 0.0002946 3220.29663 3444.24243
3405.0 0.0002937 3220.19702 3480.13086
3516.0 0.0002844 3220.09668 3527.48267
3569.0 0.0002802 3219.99536 3594.32642
3757.0 0.0002662 3219.89331 3697.05151
3948.0 0.0002533 3219.79028 3866.48877
4133.0 0.0002420 3219.68652 4153.34375
4692.0 0.0002131 3219.58203 4623.19775
5529.0 0.0001809 3219.47656 5339.04980
6556.0 0.0001525 3219.37036 6320.92383
7643.0 0.0001308 3219.26318 7493.20801
8711.0 0.0001148 3219.15527 8618.60645
9344.0 0.0001070 3219.04663 9270.90820
8942.0 0.0001118 3218.93701 9083.52832
8215.0 0.0001217 3218.82642 8173.11670
7147.0 0.0001399 3218.71509 6989.10889
6001.0 0.0001666 3218.60303 5884.61279
5223.0 0.0001915 3218.48999 5018.92676
4501.0 0.0002222 3218.37622 4419.31201
4225.0 0.0002367 3218.26147 4041.70703
3869.0 0.0002585 3218.14575 3818.19165
3793.0 0.0002636 3218.02954 3688.00659
3723.0 0.0002686 3217.91211 3609.54248
3689.0 0.0002711 3217.79419 3559.03760
3507.0 0.0002851 3217.67505 3524.47314
3510.0 0.0002849 3217.55518 3500.08228
3544.0 0.0002822 3217.43457 3483.01709
3496.0 0.0002860 3217.31299 3471.73779
3518.0 0.0002843 3217.19067 3465.34570
3536.0 0.0002828 3217.06738 3463.31982
3583.0 0.0002791 3216.94336 3465.41040
3534.0 0.0002830 3216.81836 3471.59839
3612.0 0.0002769 3216.69238 3482.08130
3452.0 0.0002897 3216.56567 3497.29370
3528.0 0.0002834 3216.43823 3517.94434
3535.0 0.0002829 3216.30981 3545.10669
3528.0 0.0002834 3216.18066 3580.38916
3604.0 0.0002775 3216.05054 3626.33472
3721.0 0.0002687 3215.91943 3687.40771
3742.0 0.0002672 3215.78760 3772.36060
3832.0 0.0002610 3215.65503 3899.16162
4063.0 0.0002461 3215.52148 4103.58057
4457.0 0.0002244 3215.38696 4448.83252
4959.0 0.0002017 3215.25171 5029.43652
5866.0 0.0001705 3215.11548 5955.47949
7218.0 0.0001385 3214.97852 7307.24316
8890.0 0.0001125 3214.84082 9062.49316
11183.0 0.0000894 3214.70215 11002.36719
12535.0 0.0000798 3214.56250 12605.76758
12746.0 0.0000785 3214.42212 13134.93262
12112.0 0.0000826 3214.28101 12267.76563
10394.0 0.0000962 3214.13867 10507.48730
8519.0 0.0001174 3213.99585 8575.42188
6896.0 0.0001450 3213.85205 6908.92480
5574.0 0.0001794 3213.70752 5666.23242
4783.0 0.0002091 3213.56201 4835.25781
4339.0 0.0002305 3213.41553 4322.03906
4009.0 0.0002494 3213.26831 4017.31616
3912.0 0.0002556 3213.12036 3834.00122
3630.0 0.0002755 3212.97144 3716.62354
3623.0 0.0002760 3212.82178 3634.93506
3623.0 0.0002760 3212.67114 3573.90527
3503.0 0.0002855 3212.51978 3526.16699
3491.0 0.0002865 3212.36768 3487.83350
3514.0 0.0002846 3212.21460 3456.59619
3499.0 0.0002858 3212.06079 3430.95972
3363.0 0.0002974 3211.90601 3409.95654
3438.0 0.0002909 3211.75049 3393.03516
3358.0 0.0002978 3211.59399 3379.98438
3333.0 0.0003000 3211.43677 3370.79956
3402.0 0.0002939 3211.27881 3365.43579
3409.0 0.0002933 3211.12012 3363.45386
3475.0 0.0002878 3210.96045 3363.58154
3366.0 0.0002971 3210.79980 3363.24463
3423.0 0.0002921 3210.63867 3359.07031
3425.0 0.0002920 3210.47656 3349.79834
3435.0 0.0002911 3210.31348 3337.79858
3420.0 0.0002924 3210.14990 3326.23828
3316.0 0.0003016 3209.98535 3317.06641
3362.0 0.0002974 3209.82007 3311.19263
3364.0 0.0002973 3209.65381 3309.13281
3403.0 0.0002939 3209.48682 3311.71045
3400.0 0.0002941 3209.31909 3320.80737
3354.0 0.0002982 3209.15063 3339.92578
3444.0 0.0002904 3208.98120 3374.07593
3360.0 0.0002976 3208.81104 3428.38013
3458.0 0.0002892 3208.64014 3505.11182
3622.0 0.0002761 3208.46851 3599.55957
3636.0 0.0002750 3208.29590 3695.41992
3764.0 0.0002657 3208.12280 3761.41333
3630.0 0.0002755 3207.94873 3762.71680
3623.0 0.0002760 3207.77393 3696.31519
3618.0 0.0002764 3207.59814 3595.85010
3543.0 0.0002822 3207.42188 3495.32031
3442.0 0.0002905 3207.24463 3412.45630
3364.0 0.0002973 3207.06689 3347.52588
3152.0 0.0003173 3206.88818 3307.84595
3194.0 0.0003131 3206.70874 3283.18066
3356.0 0.0002980 3206.52856 3268.06885
3244.0 0.0003083 3206.34766 3258.43774
3271.0 0.0003057 3206.16602 3251.79712
3338.0 0.0002996 3205.98364 3246.82178
3245.0 0.0003082 3205.80029 3242.85254
3231.0 0.0003095 3205.61646 3239.55933
3210.0 0.0003115 3205.43188 3236.75952
3248.0 0.0003079 3205.24658 3237.67969
3212.0 0.0003113 3205.06030 3235.64111
3174.0 0.0003151 3204.87354 3233.84668
3237.0 0.0003089 3204.68604 3232.25317
3304.0 0.0003027 3204.49756 3230.82617
3279.0 0.0003050 3204.30859 3229.53979
3151.0 0.0003174 3204.11890 3228.37207
3181.0 0.0003144 3203.92847 3227.30737
3228.0 0.0003098 3203.73730 3226.33105
3215.0 0.0003110 3203.54541 3225.43286
3202.0 0.0003123 3203.35303 3224.60303
3125.0 0.0003200 3203.15967 3223.83447
3136.0 0.0003189 3202.96558 3223.12109
3281.0 0.0003048 3202.77100 3222.45728
3320.0 0.0003012 3202.57568 3221.83838
3235.0 0.0003091 3202.37964 3221.31396
3290.0 0.0003040 3202.18311 3220.77661
3302.0 0.0003028 3201.98560 3220.27441
3270.0 0.0003058 3201.78760 3219.80615
3355.0 0.0002981 3201.58887 3219.36890
3407.0 0.0002935 3201.38940 3218.96191
3306.0 0.0003025 3201.18945 3218.58350
3274.0 0.0003054 3200.98877 3218.23315
3213.0 0.0003112 3200.78735 3217.90967
3289.0 0.0003040 3200.58521 3217.61206
3363.0 0.0002974 3200.38257 3217.34033
3172.0 0.0003153 3200.17920 3217.09448
3163.0 0.0003162 3199.97534 3209.05786
3232.0 0.0003094 3199.77075 3209.04688
3255.0 0.0003072 3199.56543 3209.05518
3229.0 0.0003097 3199.35962 3209.08374
3100.0 0.0003226 3199.15308 3209.13281
3220.0 0.0003106 3198.94580 3209.20410
3152.0 0.0003173 3198.73804 3209.29883
3117.0 0.0003208 3198.52979 3209.41748
3171.0 0.0003154 3198.32080 3209.56201
3173.0 0.0003152 3198.11108 3209.73511
3211.0 0.0003114 3197.90088 3209.93774
3118.0 0.0003207 3197.69019 3210.17212
3235.0 0.0003091 3197.47876 3210.44165
3195.0 0.0003130 3197.26685 3210.74902
3193.0 0.0003132 3197.05420 3211.09741
3274.0 0.0003054 3196.84106 3211.48999
3233.0 0.0003093 3196.62744 3211.93213
3292.0 0.0003038 3196.41309 3212.42749
3242.0 0.0003085 3196.19800 3212.98267
3129.0 0.0003196 3195.98267 3213.60303
3202.0 0.0003123 3195.76660 3214.29565
3219.0 0.0003107 3195.55005 3215.06934
3189.0 0.0003136 3195.33276 3215.93237
3253.0 0.0003074 3195.11523 3216.89648
3195.0 0.0003130 3194.89697 3217.97632
3248.0 0.0003079 3194.67798 3219.14502
3080.0 0.0003247 3194.45874 3220.49463
3348.0 0.0002987 3194.23877 3222.00757
3184.0 0.0003141 3194.01831 3223.70728
3189.0 0.0003136 3193.79736 3225.62158
3290.0 0.0003040 3193.57593 3227.78174
3237.0 0.0003089 3193.35400 3230.22778
3176.0 0.0003149 3193.13135 3233.00610
3309.0 0.0003022 3192.90845 3236.17407
3251.0 0.0003076 3192.68481 3239.80005
3273.0 0.0003055 3192.46069 3243.97021
3213.0 0.0003112 3192.23608 3248.79028
3302.0 0.0003028 3192.01099 3254.39307
3287.0 0.0003042 3191.78540 3260.93506
3294.0 0.0003036 3191.55957 3268.65698
3305.0 0.0003026 3191.33301 3277.82471
3266.0 0.0003062 3191.10596 3288.39746
3284.0 0.0003045 3190.87842 3301.69800
3361.0 0.0002975 3190.65039 3318.00195
3349.0 0.0002986 3190.42212 3338.36377
3338.0 0.0002996 3190.19312 3364.57544
3461.0 0.0002889 3189.96362 3400.05737
3529.0 0.0002834 3189.73389 3451.68311
3660.0 0.0002732 3189.50366 3532.93408
3694.0 0.0002707 3189.27295 3667.05127
3842.0 0.0002603 3189.04175 3889.20337
4108.0 0.0002434 3188.81006 4240.91797
4835.0 0.0002068 3188.57813 4754.68701
5456.0 0.0001833 3188.34546 5428.47461
6310.0 0.0001585 3188.11279 6192.08691
7038.0 0.0001421 3187.87939 6865.90332
7411.0 0.0001349 3187.64551 7169.16553
7156.0 0.0001397 3187.41138 6926.60254
6254.0 0.0001599 3187.17676 6280.79639
5390.0 0.0001855 3186.94189 5515.70264
4759.0 0.0002101 3186.70630 4825.92139
4239.0 0.0002359 3186.47070 4292.35205
3962.0 0.0002524 3186.23438 3923.18604
3622.0 0.0002761 3185.99780 3688.65576
3486.0 0.0002869 3185.76099 3547.55737
3479.0 0.0002874 3185.52344 3464.56201
3409.0 0.0002933 3185.28564 3414.55103
3295.0 0.0003035 3185.04761 3384.22852
3379.0 0.0002959 3184.80933 3366.41797
3284.0 0.0003045 3184.57031 3356.86548
3365.0 0.0002972 3184.33130 3351.66504
3300.0 0.0003030 3184.09155 3345.79443
3262.0 0.0003066 3183.85181 3334.34009
3204.0 0.0003121 3183.61133 3316.66284
3257.0 0.0003070 3183.37085 3296.49048
3258.0 0.0003069 3183.12988 3277.52051
3222.0 0.0003104 3182.88867 3261.59497
3212.0 0.0003113 3182.64697 3249.13477
3211.0 0.0003114 3182.40503 3239.75366
3119.0 0.0003206 3182.16284 3232.72485
3285.0 0.0003044 3181.92017 3227.32275
3177.0 0.0003148 3181.67725 3222.98999
3196.0 0.0003129 3181.43408 3219.36621
3200.0 0.0003125 3181.19043 3216.23828
3241.0 0.0003085 3180.94678 3213.48438
3189.0 0.0003136 3180.70264 3211.03027
3096.0 0.0003230 3180.45825 3208.82520
3156.0 0.0003169 3180.21338 3206.83032
3112.0 0.0003213 3179.96851 3205.01831
3120.0 0.0003205 3179.72314 3203.36401
3188.0 0.0003137 3179.47754 3201.84888
3279.0 0.0003050 3179.23169 3200.45630
3117.0 0.0003208 3178.98560 3199.17310
3185.0 0.0003140 3178.73950 3197.98755
3228.0 0.0003098 3178.49268 3196.89087
3213.0 0.0003112 3178.24585 3195.87622
3154.0 0.0003171 3177.99878 3194.93677
3158.0 0.0003167 3177.75146 3194.07153
3125.0 0.0003200 3177.50366 3193.28101
3185.0 0.0003140 3177.25586 3192.57373
3304.0 0.0003027 3177.00781 3192.02124
3146.0 0.0003179 3176.75952 3191.54736
3072.0 0.0003255 3176.51099 3191.23535
3062.0 0.0003266 3176.26221 3191.10742
3197.0 0.0003128 3176.01318 3191.14941
3201.0 0.0003124 3175.76392 3191.28760
3165.0 0.0003160 3175.51465 3191.34937
3237.0 0.0003089 3175.26489 3191.09424
3182.0 0.0003143 3175.01514 3190.41870
3162.0 0.0003163 3174.76514 3189.48438
3192.0 0.0003133 3174.51489 3188.52905
3159.0 0.0003166 3174.26465 3187.70190
3207.0 0.0003118 3174.01416 3187.06348
3178.0 0.0003147 3173.76343 3186.61890
3182.0 0.0003143 3173.51245 3186.34863
3141.0 0.0003184 3173.26123 3186.22754
3211.0 0.0003114 3173.01001 3186.23975
3269.0 0.0003059 3172.75879 3186.38379
3232.0 0.0003094 3172.50708 3186.67456
3277.0 0.0003052 3172.25537 3187.14380
3208.0 0.0003117 3172.00366 3187.85522
3175.0 0.0003150 3171.75146 3188.93408
3176.0 0.0003149 3171.49927 3190.63477
3196.0 0.0003129 3171.24707 3193.40771
3168.0 0.0003157 3170.99463 3198.06055
3302.0 0.0003028 3170.74194 3205.74731
3185.0 0.0003140 3170.48950 3217.78369
3309.0 0.0003022 3170.23657 3235.13062
3178.0 0.0003147 3169.98364 3257.57837
3302.0 0.0003028 3169.73071 3282.67554
3310.0 0.0003021 3169.47754 3304.42700
3448.0 0.0002900 3169.22437 3313.85156
3308.0 0.0003023 3168.97119 3305.93384
3360.0 0.0002976 3168.71777 3285.77100
3212.0 0.0003113 3168.46411 3262.43896
3159.0 0.0003166 3168.21069 3242.03369
3277.0 0.0003052 3167.95703 3227.13818
3245.0 0.0003082 3167.70337 3218.28735
3230.0 0.0003096 3167.44971 3214.65479
3179.0 0.0003146 3167.19580 3212.40771
3282.0 0.0003047 3166.94189 3218.55957
3261.0 0.0003067 3166.68774 3231.40601
3212.0 0.0003113 3166.43384 3254.47510
3295.0 0.0003035 3166.17993 3292.73145
3400.0 0.0002941 3165.92578 3351.06836
3426.0 0.0002919 3165.67163 3431.51416
3541.0 0.0002824 3165.41724 3529.38525
3654.0 0.0002737 3165.16309 3628.25635
3785.0 0.0002642 3164.90894 3695.99805
3683.0 0.0002715 3164.65479 3698.05957
3666.0 0.0002728 3164.40039 3632.87671
3564.0 0.0002806 3164.14624 3533.88037
3458.0 0.0002892 3163.89185 3434.14429
3388.0 0.0002952 3163.63770 3351.07959
3264.0 0.0003064 3163.38330 3289.95361
3207.0 0.0003118 3163.12891 3248.94653
3221.0 0.0003105 3162.87476 3223.24683
3220.0 0.0003106 3162.62061 3207.53979
3244.0 0.0003083 3162.36646 3197.73291
3248.0 0.0003079 3162.11206 3191.24023
3108.0 0.0003218 3161.85791 3186.55688
3160.0 0.0003165 3161.60376 3182.97021
3180.0 0.0003145 3161.34961 3180.10400
3132.0 0.0003193 3161.09570 3177.75562
3094.0 0.0003232 3160.84155 3175.80151
3047.0 0.0003282 3160.58765 3174.15918
3160.0 0.0003165 3160.33374 3172.77051
3164.0 0.0003161 3160.08008 3171.59204
3086.0 0.0003240 3159.82642 3170.59473
3169.0 0.0003156 3159.57251 3169.75781
3157.0 0.0003168 3159.31909 3169.07007
3228.0 0.0003098 3159.06543 3168.52954
3171.0 0.0003154 3158.81201 3168.14746
3177.0 0.0003148 3158.55859 3167.95874
3146.0 0.0003179 3158.30542 3168.06030
3251.0 0.0003076 3158.05225 3168.59839
3143.0 0.0003182 3157.79907 3169.89111
3245.0 0.0003082 3157.54614 3172.40771
3201.0 0.0003124 3157.29321 3176.72461
3137.0 0.0003188 3157.04053 3183.34033
3188.0 0.0003137 3156.78784 3192.35059
3272.0 0.0003056 3156.53540 3203.00977
3250.0 0.0003077 3156.28320 3213.15967
3266.0 0.0003062 3156.03101 3218.99292
3192.0 0.0003133 3155.77881 3217.18506
3171.0 0.0003154 3155.52686 3208.58740
3216.0 0.0003109 3155.27515 3197.15503
3261.0 0.0003067 3155.02344 3186.17749
3173.0 0.0003152 3154.77222 3177.23706
3133.0 0.0003192 3154.52075 3170.71875
3162.0 0.0003163 3154.26978 3166.33545
3260.0 0.0003067 3154.01880 3163.53271
3094.0 0.0003232 3153.76807 3161.75366
3136.0 0.0003189 3153.51733 3160.58398
3154.0 0.0003171 3153.26685 3159.77075
3091.0 0.0003235 3153.01685 3159.18237
3138.0 0.0003187 3152.76660 3158.76733
3255.0 0.0003072 3152.51685 3158.52710
3235.0 0.0003091 3152.26733 3158.50439
3176.0 0.0003149 3152.01782 3158.77881
3178.0 0.0003147 3151.76880 3159.44507
3243.0 0.0003084 3151.51978 3160.57520
3106.0 0.0003220 3151.27100 3162.15527
3248.0 0.0003079 3151.02246 3164.00513
3083.0 0.0003244 3150.77441 3165.67725
3106.0 0.0003220 3150.52637 3166.48511
3207.0 0.0003118 3150.27856 3166.01343
3213.0 0.0003112 3150.03101 3164.63623
3217.0 0.0003108 3149.78369 3164.28394
3155.0 0.0003170 3149.53662 3163.15527
3125.0 0.0003200 3149.29004 3162.74438
3111.0 0.0003214 3149.04346 3163.31519
3089.0 0.0003237 3148.79736 3165.24536
3103.0 0.0003223 3148.55127 3169.19360
3192.0 0.0003133 3148.30566 3176.06470
3216.0 0.0003109 3148.06030 3187.31812
3150.0 0.0003175 3147.81519 3203.81958
3301.0 0.0003029 3147.57056 3225.54321
3261.0 0.0003067 3147.32617 3250.44067
3199.0 0.0003126 3147.08203 3273.13818
3285.0 0.0003044 3146.83813 3284.88013
3196.0 0.0003129 3146.59448 3279.29419
3210.0 0.0003115 3146.35132 3259.63037
3158.0 0.0003167 3146.10840 3234.60205
3227.0 0.0003099 3145.86597 3210.88794
3217.0 0.0003108 3145.62378 3191.70679
3197.0 0.0003128 3145.38184 3177.82886
3183.0 0.0003142 3145.14038 3168.60205
3123.0 0.0003202 3144.89917 3162.80396
3171.0 0.0003154 3144.65845 3159.23999
3145.0 0.0003180 3144.41797 3157.01904
3133.0 0.0003192 3144.17798 3155.59473
3223.0 0.0003103 3143.93823 3154.22412
3156.0 0.0003169 3143.69897 3153.75879
3165.0 0.0003160 3143.45996 3153.76660
3108.0 0.0003218 3143.22144 3154.41187
3135.0 0.0003190 3142.98315 3155.94800
3149.0 0.0003176 3142.74536 3158.64624
3147.0 0.0003178 3142.50806 3162.65454
3151.0 0.0003174 3142.27100 3167.79858
3164.0 0.0003161 3142.03467 3173.32104
3242.0 0.0003085 3141.79834 3177.59937
3323.0 0.0003009 3141.56274 3178.54932
3155.0 0.0003170 3141.32739 3175.48022
3115.0 0.0003210 3141.09253 3169.94971
3168.0 0.0003157 3140.85815 3163.99048
3137.0 0.0003188 3140.62402 3158.83667
3133.0 0.0003192 3140.39063 3154.94165
3185.0 0.0003140 3140.15747 3152.33667
3102.0 0.0003224 3139.92480 3150.83521
3054.0 0.0003274 3139.69263 3150.22095
3068.0 0.0003259 3139.46094 3150.35205
3145.0 0.0003180 3139.22949 3151.16968
3193.0 0.0003132 3138.99878 3152.63892
3130.0 0.0003195 3138.76855 3154.64526
3079.0 0.0003248 3138.53857 3156.87036
3182.0 0.0003143 3138.30933 3158.66455
3217.0 0.0003108 3138.08032 3159.19043
3141.0 0.0003184 3137.85205 3158.14819
3161.0 0.0003164 3137.62427 3156.14038
3223.0 0.0003103 3137.39697 3153.98389
3111.0 0.0003214 3137.17017 3152.17920
3287.0 0.0003042 3136.94360 3150.92090
3185.0 0.0003140 3136.71802 3150.21753
3238.0 0.0003088 3136.49268 3149.98608
3218.0 0.0003108 3136.26782 3150.11450
3157.0 0.0003168 3136.04370 3150.46167
3204.0 0.0003121 3135.82007 3151.07886
3302.0 0.0003028 3135.59692 3151.97705
3198.0 0.0003127 3135.37427 3152.98389
3209.0 0.0003116 3135.15234 3154.20264
3059.0 0.0003269 3134.93066 3155.66333
3085.0 0.0003241 3134.70996 3157.40869
3172.0 0.0003153 3134.48950 3159.49341
3174.0 0.0003151 3134.26978 3161.98804
3135.0 0.0003190 3134.05054 3164.98853
3194.0 0.0003131 3133.83203 3168.61768
3275.0 0.0003053 3133.61401 3173.04468
3264.0 0.0003064 3133.39648 3178.50684
3179.0 0.0003146 3133.17969 3185.37305
3141.0 0.0003184 3132.96338 3194.35327
3181.0 0.0003144 3132.74780 3206.48364
3179.0 0.0003146 3132.53271 3224.15967
3301.0 0.0003029 3132.31836 3251.70532
3296.0 0.0003034 3132.10449 3296.37207
3285.0 0.0003044 3131.89136 3368.57202
3486.0 0.0002869 3131.67871 3480.24585
3701.0 0.0002702 3131.46680 3640.53027
3759.0 0.0002660 3131.25562 3848.85938
4081.0 0.0002450 3131.04492 4085.77930
4234.0 0.0002362 3130.83496 4300.93018
4421.0 0.0002262 3130.62549 4412.37402
4212.0 0.0002374 3130.41699 4359.68457
4200.0 0.0002381 3130.20898 4172.93848
3984.0 0.0002510 3130.00146 3935.85156
3696.0 0.0002706 3129.79468 3712.58887
3527.0 0.0002835 3129.58862 3532.84497
3386.0 0.0002953 3129.38330 3403.08643
3357.0 0.0002979 3129.17847 3316.91382
3323.0 0.0003009 3128.97461 3262.78442
3257.0 0.0003070 3128.77124 3229.37671
3070.0 0.0003257 3128.56860 3208.19702
3088.0 0.0003238 3128.36670 3193.90747
3272.0 0.0003056 3128.16553 3183.42676
3200.0 0.0003125 3127.96484 3175.46362
3185.0 0.0003140 3127.76514 3169.09912
3124.0 0.0003201 3127.56592 3163.88477
3133.0 0.0003192 3127.36743 3159.54883
3103.0 0.0003223 3127.16992 3155.89746
3177.0 0.0003148 3126.97290 3152.79102
3162.0 0.0003163 3126.77661 3150.12402
3252.0 0.0003075 3126.58130 3147.81689
3115.0 0.0003210 3126.38647 3145.80640
3055.0 0.0003273 3126.19238 3144.04395
3089.0 0.0003237 3125.99902 3142.49097
3100.0 0.0003226 3125.80664 3141.11572
3208.0 0.0003117 3125.61475 3140.03149
3139.0 0.0003186 3125.42383 3138.95117
3173.0 0.0003152 3125.23340 3137.99463
3140.0 0.0003185 3125.04395 3137.15479
3213.0 0.0003112 3124.85522 3136.43506
3076.0 0.0003251 3124.66724 3135.85303
3144.0 0.0003181 3124.47998 3135.44800
3035.0 0.0003295 3124.29346 3135.28516
3103.0 0.0003223 3124.10791 3135.44922
3042.0 0.0003287 3123.92285 3135.98657
3109.0 0.0003216 3123.73901 3136.97876
3185.0 0.0003140 3123.55566 3138.30371
3127.0 0.0003198 3123.37305 3139.66699
3230.0 0.0003096 3123.19141 3140.51050
3245.0 0.0003082 3123.01050 3140.24316
3195.0 0.0003130 3122.83032 3138.83496
3129.0 0.0003196 3122.65112 3136.85620
3112.0 0.0003213 3122.47266 3134.88525
3139.0 0.0003186 3122.29492 3133.23975
3135.0 0.0003190 3122.11792 3132.02954
3141.0 0.0003184 3121.94189 3131.24463
3172.0 0.0003153 3121.76685 3130.82104
3083.0 0.0003244 3121.59229 3130.68848
3114.0 0.0003211 3121.41870 3130.80518
3215.0 0.0003110 3121.24609 3131.16895
3095.0 0.0003231 3121.07397 3132.82129
3155.0 0.0003170 3120.90308 3134.09814
3098.0 0.0003228 3120.73291 3136.28662
3191.0 0.0003134 3120.56348 3139.97778
3124.0 0.0003201 3120.39478 3145.95435
3166.0 0.0003159 3120.22729 3155.00854
3245.0 0.0003082 3120.06030 3167.57568
3084.0 0.0003243 3119.89429 3183.21387
3262.0 0.0003066 3119.72925 3199.89624
3299.0 0.0003031 3119.56494 3213.23706
3148.0 0.0003177 3119.40161 3217.45142
3146.0 0.0003179 3119.23901 3210.31543
3184.0 0.0003141 3119.07715 3195.91821
3116.0 0.0003209 3118.91650 3180.09741
3222.0 0.0003104 3118.75635 3166.67651
3120.0 0.0003205 3118.59741 3157.48535
3185.0 0.0003140 3118.43921 3153.21729
3173.0 0.0003152 3118.28198 3154.01294
3095.0 0.0003231 3118.12524 3159.72900
3198.0 0.0003127 3117.96973 3169.87036
3163.0 0.0003162 3117.81519 3183.20728
3276.0 0.0003053 3117.66138 3197.07251
3236.0 0.0003090 3117.50854 3206.73706
3215.0 0.0003110 3117.35645 3207.09668
3267.0 0.0003061 3117.20532 3197.53198
3349.0 0.0002986 3117.05493 3182.59058
3157.0 0.0003168 3116.90576 3167.15234
3126.0 0.0003199 3116.75732 3153.94360
3148.0 0.0003177 3116.60962 3143.90430
3295.0 0.0003035 3116.46289 3136.92236
3164.0 0.0003161 3116.31714 3132.36694
3153.0 0.0003172 3116.17236 3129.48828
3047.0 0.0003282 3116.02832 3127.65625
3178.0 0.0003147 3115.88525 3125.23828
3045.0 0.0003284 3115.74316 3124.41382
3168.0 0.0003157 3115.60205 3123.81445
3092.0 0.0003234 3115.46167 3123.37061
3157.0 0.0003168 3115.32227 3123.04688
3055.0 0.0003273 3115.18384 3122.82446
3148.0 0.0003177 3115.04614 3122.69238
3176.0 0.0003149 3114.90942 3122.64624
3202.0 0.0003123 3114.77368 3122.68652
3168.0 0.0003157 3114.63892 3122.81689
3096.0 0.0003230 3114.50488 3123.04492
3098.0 0.0003228 3114.37183 3123.38379
3102.0 0.0003224 3114.23975 3123.85059
3148.0 0.0003177 3114.10840 3124.47607
3147.0 0.0003178 3113.97827 3125.31738
3143.0 0.0003182 3113.84888 3126.48877
3121.0 0.0003204 3113.72046 3128.20532
3161.0 0.0003164 3113.59302 3130.86865
3259.0 0.0003068 3113.46631 3135.15601
3222.0 0.0003104 3113.34058 3142.07202
3195.0 0.0003130 3113.21582 3152.83521
3172.0 0.0003153 3113.09204 3168.52295
3320.0 0.0003012 3112.96924 3189.44604
3229.0 0.0003097 3112.84717 3214.30151
3250.0 0.0003077 3112.72607 3239.01514
3224.0 0.0003102 3112.60596 3255.88989
3265.0 0.0003063 3112.48682 3256.82031
3256.0 0.0003071 3112.36841 3241.34668
3186.0 0.0003139 3112.25098 3217.22583
3163.0 0.0003162 3112.13452 3192.43164
3284.0 0.0003045 3112.01904 3171.35229
3188.0 0.0003137 3111.90430 3155.48779
3117.0 0.0003208 3111.79077 3144.63818
3137.0 0.0003188 3111.67798 3137.76953
3030.0 0.0003300 3111.56592 3133.66162
3182.0 0.0003143 3111.45508 3131.28955
3190.0 0.0003135 3111.34497 3129.96899
3218.0 0.0003108 3111.23584 3129.26001
3189.0 0.0003136 3111.12769 3128.95972
3077.0 0.0003250 3111.02051 3128.95239
3182.0 0.0003143 3110.91406 3129.20679
3144.0 0.0003181 3110.80859 3129.69263
3154.0 0.0003171 3110.70410 3130.40454
3084.0 0.0003243 3110.60034 3131.34888
3055.0 0.0003273 3110.49756 3132.54297
3153.0 0.0003172 3110.39575 3134.01294
3192.0 0.0003133 3110.29492 3135.79736
3085.0 0.0003241 3110.19482 3137.94678
3200.0 0.0003125 3110.09570 3140.53149
3062.0 0.0003266 3109.99756 3143.64111
3181.0 0.0003144 3109.90015 3147.39575
3147.0 0.0003178 3109.80371 3151.95874
3136.0 0.0003189 3109.70825 3157.55957
3073.0 0.0003254 3109.61377 3164.54761
3233.0 0.0003093 3109.52002 3173.50903
3100.0 0.0003226 3109.42700 3185.52466
3170.0 0.0003155 3109.33521 3202.65649
3201.0 0.0003124 3109.24414 3228.73047
3229.0 0.0003097 3109.15381 3270.12231
3297.0 0.0003033 3109.06470 3336.25024
3387.0 0.0002952 3108.97632 3438.33472
3407.0 0.0002935 3108.88867 3586.39502
3821.0 0.0002617 3108.80200 3782.99414
3951.0 0.0002531 3108.71631 4015.77783
4077.0 0.0002453 3108.63135 4246.67432
4185.0 0.0002389 3108.54736 4404.07959
4300.0 0.0002326 3108.46411 4412.57422
4163.0 0.0002402 3108.38184 4267.28027
4017.0 0.0002489 3108.30054 4039.84497
3699.0 0.0002703 3108.21997 3804.72192
3553.0 0.0002815 3108.14014 3603.28833
3412.0 0.0002931 3108.06128 3449.97412
3309.0 0.0003022 3107.98315 3344.18555
3252.0 0.0003075 3107.90601 3274.60620
3301.0 0.0003029 3107.82983 3230.94604
3134.0 0.0003191 3107.75415 3203.44507
3203.0 0.0003122 3107.67969 3185.38330
3212.0 0.0003113 3107.60571 3172.72510
3201.0 0.0003124 3107.53271 3163.26880
3214.0 0.0003111 3107.46069 3155.85938
3062.0 0.0003266 3107.38940 3149.87378
3116.0 0.0003209 3107.31885 3144.94336
3240.0 0.0003086 3107.24902 3140.82788
3111.0 0.0003214 3107.18018 3137.35596
3149.0 0.0003176 3107.11206 3134.40015
3148.0 0.0003177 3107.04492 3131.86426
3158.0 0.0003167 3106.97852 3129.67236
3133.0 0.0003192 3106.91284 3127.76563
3161.0 0.0003164 3106.84790 3126.09741
3166.0 0.0003159 3106.78394 3124.62915
3192.0 0.0003133 3106.72070 3123.33057
3122.0 0.0003203 3106.65796 3122.17725
3138.0 0.0003187 3106.59644 3121.14868
3207.0 0.0003118 3106.53540 3120.22803
3091.0 0.0003235 3106.47534 3119.40088
3094.0 0.0003232 3106.41577 3118.65625
3069.0 0.0003258 3106.35718 3117.98389
3062.0 0.0003266 3106.29932 3117.37524
3000.0 0.0003333 3106.24219 3116.82324
3132.0 0.0003193 3106.18579 3116.32227
3056.0 0.0003272 3106.13013 3115.86646
3111.0 0.0003214 3106.07520 3115.45215
3085.0 0.0003241 3106.02100 3115.07593
3132.0 0.0003193 3105.96753 3114.73340
3118.0 0.0003207 3105.91479 3114.42212
3113.0 0.0003212 3105.86279 3114.19580
3114.0 0.0003211 3105.81152 3113.94189
3152.0 0.0003173 3105.76099 3113.71289
3135.0 0.0003190 3105.71118 3113.50806
3110.0 0.0003215 3105.66211 3113.19092
3062.0 0.0003266 3105.61353 3113.03345
3127.0 0.0003198 3105.56567 3112.89746
3018.0 0.0003313 3105.51855 3112.78223
3146.0 0.0003179 3105.47217 3113.32520
3113.0 0.0003212 3105.42651 3113.26294
3065.0 0.0003263 3105.38135 3113.22241
3138.0 0.0003187 3105.33691 3113.20288
3168.0 0.0003157 3105.29321 3113.20654
3093.0 0.0003233 3105.25024 3113.23364
3061.0 0.0003267 3105.20776 3113.28711
3056.0 0.0003272 3105.16577 3113.36890
3165.0 0.0003160 3105.12476 3113.48364
3097.0 0.0003229 3105.08423 3113.63721
3139.0 0.0003186 3105.04419 3113.83960
3096.0 0.0003230 3105.00488 3114.10962
3094.0 0.0003232 3104.96631 3114.48047
3119.0 0.0003206 3104.92822 3115.01416
3153.0 0.0003172 3104.89063 3115.81201
3200.0 0.0003125 3104.85376 3117.01733
3170.0 0.0003155 3104.81738 3118.79834
3218.0 0.0003108 3104.78174 3121.29517
3228.0 0.0003098 3104.74658 3124.53662
3178.0 0.0003147 3104.71191 3128.32349
3173.0 0.0003152 3104.67798 3132.07080
3154.0 0.0003171 3104.64453 3134.70386
3160.0 0.0003165 3104.61157 3135.13135
3151.0 0.0003174 3104.57935 3133.32739
3133.0 0.0003192 3104.54736 3130.37109
3133.0 0.0003192 3104.51611 3127.36328
3187.0 0.0003138 3104.48535 3124.91968
3144.0 0.0003181 3104.45508 3123.26392
3153.0 0.0003172 3104.42529 3122.38745
3119.0 0.0003206 3104.39600 3122.16943
3192.0 0.0003133 3104.36743 3122.46216
3210.0 0.0003115 3104.33911 3123.14795
3046.0 0.0003283 3104.31128 3124.16821
3111.0 0.0003214 3104.28418 3125.52881
3195.0 0.0003130 3104.25732 3127.30786
3190.0 0.0003135 3104.23096 3129.65771
3156.0 0.0003169 3104.20508 3132.80200
3210.0 0.0003115 3104.17969 3137.00024
3155.0 0.0003170 3104.15479 3142.47168
3110.0 0.0003215 3104.13013 3149.27832
3144.0 0.0003181 3104.10620 3157.16870
3186.0 0.0003139 3104.08252 3165.36084
3146.0 0.0003179 3104.05908 3172.47559
3082.0 0.0003245 3104.03638 3177.35181
3149.0 0.0003176 3104.01392 3180.51343
3211.0 0.0003114 3103.99170 3183.98828
3154.0 0.0003171 3103.97021 3190.05566
3104.0 0.0003222 3103.94873 3201.10767
3236.0 0.0003090 3103.92798 3220.42480
3274.0 0.0003054 3103.90747 3253.12622
3308.0 0.0003023 3103.88721 3306.77026
3483.0 0.0002871 3103.86743 3389.93359
3422.0 0.0002922 3103.84790 3513.65552
3651.0 0.0002739 3103.82886 3681.38745
3833.0 0.0002609 3103.81006 3886.63306
4030.0 0.0002481 3103.79150 4103.46729
4201.0 0.0002380 3103.77344 4277.09912
4296.0 0.0002328 3103.75562 4335.08936
4199.0 0.0002382 3103.73804 4246.17920
3996.0 0.0002503 3103.72070 4056.80078
3781.0 0.0002645 3103.70361 3838.99780
3644.0 0.0002744 3103.68701 3640.72827
3418.0 0.0002926 3103.67065 3482.64917
3301.0 0.0003029 3103.65454 3368.11206
3329.0 0.0003004 3103.63867 3291.07104
3228.0 0.0003098 3103.62305 3241.73315
3160.0 0.0003165 3103.60767 3211.32568
3148.0 0.0003177 3103.59253 3191.43848
3095.0 0.0003231 3103.57739 3178.04907
3258.0 0.0003069 3103.56274 3168.49170
3200.0 0.0003125 3103.54834 3161.46558
3124.0 0.0003201 3103.53394 3155.95459
3183.0 0.0003142 3103.52002 3151.66162
3241.0 0.0003085 3103.50610 3148.32935
3127.0 0.0003198 3103.49243 3145.78882
3202.0 0.0003123 3103.47876 3143.92700
3229.0 0.0003097 3103.46558 3142.66895
3149.0 0.0003176 3103.45215 3141.97363
3138.0 0.0003187 3103.43921 3141.83105
3239.0 0.0003087 3103.42627 3142.27197
3207.0 0.0003118 3103.41357 3143.38525
3166.0 0.0003159 3103.40088 3145.35400
3203.0 0.0003122 3103.38843 3148.49585
3162.0 0.0003163 3103.37598 3153.30664
3144.0 0.0003181 3103.36377 3160.44507
3130.0 0.0003195 3103.35156 3170.64160
3161.0 0.0003164 3103.33936 3184.51489
3020.0 0.0003311 3103.32739 3202.34155
3230.0 0.0003096 3103.31543 3223.80444
3189.0 0.0003136 3103.30371 3247.76929
3307.0 0.0003024 3103.29199 3272.94409
3353.0 0.0002982 3103.28027 3301.16455
3341.0 0.0002993 3103.26855 3340.36475
3538.0 0.0002826 3103.25684 3401.38745
3490.0 0.0002865 3103.24536 3492.06982
3566.0 0.0002804 3103.23364 3612.89966
3730.0 0.0002681 3103.22217 3752.59595
3714.0 0.0002693 3103.21045 3882.00391
3791.0 0.0002638 3103.19897 3953.47314
3911.0 0.0002557 3103.18750 3929.00244
3891.0 0.0002570 3103.17603 3820.13452
3640.0 0.0002747 3103.16431 3673.86255
3481.0 0.0002873 3103.15283 3530.33813
3437.0 0.0002910 3103.14111 3410.04736
3337.0 0.0002997 3103.12939 3319.25659
3307.0 0.0003024 3103.11768 3256.01563
3270.0 0.0003058 3103.10596 3214.45801
3217.0 0.0003108 3103.09424 3187.94116
3210.0 0.0003115 3103.08228 3170.90991
3288.0 0.0003041 3103.07031 3159.50830
3242.0 0.0003085 3103.05835 3151.40039
3199.0 0.0003126 3103.04614 3145.28613
3073.0 0.0003254 3103.03394 3140.47046
3121.0 0.0003204 3103.02148 3136.57080
3156.0 0.0003169 3103.00903 3133.35620
3051.0 0.0003278 3102.99658 3130.67725
3158.0 0.0003167 3102.98389 3128.42456
3131.0 0.0003194 3102.97095 3126.51831
3151.0 0.0003174 3102.95801 3124.89746
3146.0 0.0003179 3102.94482 3123.51416
3093.0 0.0003233 3102.93164 3123.20825
3092.0 0.0003234 3102.91821 3122.21387
3075.0 0.0003252 3102.90454 3121.36523
3101.0 0.0003225 3102.89087 3120.64526
3104.0 0.0003222 3102.87695 3120.03833
3066.0 0.0003262 3102.86279 3119.53174
3105.0 0.0003221 3102.84839 3119.11694
3049.0 0.0003280 3102.83374 3118.78516
3145.0 0.0003180 3102.81909 3118.53076
3045.0 0.0003284 3102.80420 3118.35181
3180.0 0.0003145 3102.78906 3118.24146
3106.0 0.0003220 3102.77368 3118.20068
3050.0 0.0003279 3102.75806 3118.22803
3069.0 0.0003258 3102.74219 3118.32446
3085.0 0.0003241 3102.72607 3118.49146
3254.0 0.0003073 3102.70947 3118.73145
3126.0 0.0003199 3102.69287 3119.05029
3082.0 0.0003245 3102.67603 3119.45264
3130.0 0.0003195 3102.65894 3119.94629
3092.0 0.0003234 3102.64136 3120.54077
3171.0 0.0003154 3102.62378 3121.23511
3148.0 0.0003177 3102.60571 3122.06982
3136.0 0.0003189 3102.58740 3123.05103
3212.0 0.0003113 3102.56885 3124.20166
3072.0 0.0003255 3102.54980 3125.54932
3073.0 0.0003254 3102.53076 3127.13062
3150.0 0.0003175 3102.51099 3128.99097
3072.0 0.0003255 3102.49121 3131.18848
3159.0 0.0003166 3102.47095 3133.79883
3176.0 0.0003149 3102.45044 3136.92114
3128.0 0.0003197 3102.42969 3140.69409
3084.0 0.0003243 3102.40845 3145.31836
3165.0 0.0003160 3102.38672 3151.11792
3183.0 0.0003142 3102.36475 3158.65063
3114.0 0.0003211 3102.34253 3168.92578
3181.0 0.0003144 3102.31982 3182.82690
3192.0 0.0003133 3102.29688 3205.23828
3134.0 0.0003191 3102.27344 3239.80103
3371.0 0.0002966 3102.24951 3292.49512
3392.0 0.0002948 3102.22534 3369.63721
3434.0 0.0002912 3102.20068 3475.60474
3536.0 0.0002828 3102.17578 3609.41724
3664.0 0.0002729 3102.15015 3760.32397
3846.0 0.0002600 3102.12451 3902.80176
3970.0 0.0002519 3102.09814 3995.87891
3949.0 0.0002532 3102.07153 4004.12305
3768.0 0.0002654 3102.04443 3933.01147
3746.0 0.0002670 3102.01685 3820.28394
3699.0 0.0002703 3101.98901 3696.56885
3452.0 0.0002897 3101.96045 3575.33105
3488.0 0.0002867 3101.93164 3464.79492
3376.0 0.0002962 3101.90234 3372.68237
3307.0 0.0003024 3101.87256 3301.88599
3236.0 0.0003090 3101.84229 3250.49121
3258.0 0.0003069 3101.81177 3214.54346
3227.0 0.0003099 3101.78052 3189.95703
3268.0 0.0003060 3101.74902 3173.24414
3209.0 0.0003116 3101.71680 3161.76587
3166.0 0.0003159 3101.68433 3153.67139
3277.0 0.0003052 3101.65137 3147.75879
3197.0 0.0003128 3101.61768 3143.29517
3098.0 0.0003228 3101.58374 3139.85229
3094.0 0.0003232 3101.54907 3137.18091
3038.0 0.0003292 3101.51416 3135.13989
3152.0 0.0003173 3101.47852 3133.65625
3216.0 0.0003109 3101.44263 3132.72046
3117.0 0.0003208 3101.40601 3132.39722
3136.0 0.0003189 3101.36890 3132.84985
3132.0 0.0003193 3101.33130 3134.29785
3144.0 0.0003181 3101.29321 3137.22144
3294.0 0.0003036 3101.25464 3141.93750
3156.0 0.0003169 3101.21558 3148.67114
3165.0 0.0003160 3101.17578 3157.26245
3125.0 0.0003200 3101.13574 3166.85913
3211.0 0.0003114 3101.09497 3175.50854
3188.0 0.0003137 3101.05371 3180.26294
3151.0 0.0003174 3101.01172 3178.45337
3210.0 0.0003115 3100.96948 3172.49561
3144.0 0.0003181 3100.92651 3164.72998
3155.0 0.0003170 3100.88306 3157.58740
3148.0 0.0003177 3100.83887 3152.31934
3175.0 0.0003150 3100.79443 3149.39990
3158.0 0.0003167 3100.74927 3148.72754
3163.0 0.0003162 3100.70361 3150.13159
3207.0 0.0003118 3100.65723 3153.41992
3304.0 0.0003027 3100.61035 3158.64014
3212.0 0.0003113 3100.56299 3165.99097
3320.0 0.0003012 3100.51514 3176.40063
3198.0 0.0003127 3100.46655 3191.64526
3209.0 0.0003116 3100.41748 3214.93042
3236.0 0.0003090 3100.36768 3251.38672
3238.0 0.0003088 3100.31738 3308.12793
3420.0 0.0002924 3100.26660 3393.27344
3497.0 0.0002860 3100.21509 3513.49976
3687.0 0.0002712 3100.16309 3670.16748
3812.0 0.0002623 3100.11060 3854.03174
4106.0 0.0002435 3100.05737 4037.76831
4160.0 0.0002404 3100.00366 4169.94922
4078.0 0.0002452 3099.94922 4192.93799
4120.0 0.0002427 3099.89429 4094.50488
3955.0 0.0002528 3099.83862 3921.97705
3688.0 0.0002711 3099.78247 3733.37524
3531.0 0.0002832 3099.72583 3564.60205
3418.0 0.0002926 3099.66846 3430.46533
3305.0 0.0003026 3099.61060 3332.75903
3226.0 0.0003100 3099.55200 3266.18140
3327.0 0.0003006 3099.49292 3222.78467
3192.0 0.0003133 3099.43311 3194.89624
3188.0 0.0003137 3099.37280 3176.62280
3183.0 0.0003142 3099.31177 3164.09351
3137.0 0.0003188 3099.25024 3155.04785
3195.0 0.0003130 3099.18823 3148.27295
3221.0 0.0003105 3099.12549 3143.14380
3091.0 0.0003235 3099.06201 3139.32837
3211.0 0.0003114 3098.99805 3136.61206
3122.0 0.0003203 3098.93359 3134.78418
3017.0 0.0003315 3098.86841 3133.57642
3123.0 0.0003202 3098.80249 3132.49023
3167.0 0.0003158 3098.73633 3131.17114
3160.0 0.0003165 3098.66919 3128.87695
3089.0 0.0003237 3098.60156 3126.01245
3169.0 0.0003156 3098.53345 3123.05005
3168.0 0.0003157 3098.46460 3120.34033
3134.0 0.0003191 3098.39526 3118.04272
3117.0 0.0003208 3098.32520 3116.18701
3190.0 0.0003135 3098.25464 3114.73438
3082.0 0.0003245 3098.18335 3113.61060
3086.0 0.0003240 3098.11157 3112.74292
3186.0 0.0003139 3098.03931 3112.06909
3107.0 0.0003219 3097.96631 3111.54956
3080.0 0.0003247 3097.89258 3111.16040
3136.0 0.0003189 3097.81836 3110.89307
3079.0 0.0003248 3097.74365 3110.74927
3123.0 0.0003202 3097.66821 3110.74146
3028.0 0.0003303 3097.59204 3110.89380
3111.0 0.0003214 3097.51563 3111.25708
3112.0 0.0003213 3097.43848 3111.92310
3159.0 0.0003166 3097.36060 3113.06592
3095.0 0.0003231 3097.28223 3114.98291
3129.0 0.0003196 3097.20313 3118.14722
3015.0 0.0003317 3097.12354 3123.16797
3144.0 0.0003181 3097.04346 3130.82080
3152.0 0.0003173 3096.96265 3141.02026
3193.0 0.0003132 3096.88135 3155.14478
3264.0 0.0003064 3096.79932 3171.70410
3111.0 0.0003214 3096.71680 3188.25977
3224.0 0.0003102 3096.63379 3200.14355
3236.0 0.0003090 3096.55005 3202.63818
3154.0 0.0003171 3096.46582 3194.68652
3241.0 0.0003085 3096.38110 3180.51831
3115.0 0.0003210 3096.29565 3165.17432
3167.0 0.0003158 3096.20947 3151.58862
3089.0 0.0003237 3096.12305 3140.62744
3131.0 0.0003194 3096.03589 3131.94067
3110.0 0.0003215 3095.94824 3124.94336
3049.0 0.0003280 3095.85986 3119.34741
3176.0 0.0003149 3095.77100 3115.00269
3121.0 0.0003204 3095.68164 3111.71948
3109.0 0.0003216 3095.59180 3109.32104
3076.0 0.0003251 3095.50122 3107.56348
3091.0 0.0003235 3095.41016 3106.32007
3048.0 0.0003281 3095.31860 3105.46069
3050.0 0.0003279 3095.22632 3104.88428
3084.0 0.0003243 3095.13379 3104.52075
3261.0 0.0003067 3095.04028 3104.32568
3124.0 0.0003201 3094.94653 3104.27417
3084.0 0.0003243 3094.85229 3104.35547
3049.0 0.0003280 3094.75732 3104.57495
3156.0 0.0003169 3094.66187 3104.96069
3140.0 0.0003185 3094.56592 3105.58203
3150.0 0.0003175 3094.46948 3106.56689
3142.0 0.0003183 3094.37256 3108.12573
3160.0 0.0003165 3094.27490 3110.57300
3120.0 0.0003205 3094.17676 3114.28564
3128.0 0.0003197 3094.07837 3119.84058
3255.0 0.0003072 3093.97925 3127.66187
3133.0 0.0003192 3093.87964 3138.02393
3159.0 0.0003166 3093.77954 3150.74194
3206.0 0.0003119 3093.67896 3164.72437
3286.0 0.0003043 3093.57764 3177.77490
3183.0 0.0003142 3093.47607 3187.76343
3156.0 0.0003169 3093.37402 3194.30786
3118.0 0.0003207 3093.27124 3197.63989
3244.0 0.0003083 3093.16821 3196.29858
3204.0 0.0003121 3093.06445 3188.30737
3166.0 0.0003159 3092.96045 3174.59399
3232.0 0.0003094 3092.85596 3158.74048
3234.0 0.0003092 3092.75073 3143.94824
3027.0 0.0003304 3092.64526 3131.71045
3093.0 0.0003233 3092.53931 3122.45947
3168.0 0.0003157 3092.43286 3115.95972
3001.0 0.0003332 3092.32593 3111.69043
3057.0 0.0003271 3092.21851 3109.08862
3147.0 0.0003178 3092.11060 3107.69434
3106.0 0.0003220 3092.00220 3107.22485
3077.0 0.0003250 3091.89355 3107.56250
3195.0 0.0003130 3091.78418 3107.82422
3223.0 0.0003103 3091.67456 3109.82153
3147.0 0.0003178 3091.56445 3112.63135
3108.0 0.0003218 3091.45410 3116.07007
3139.0 0.0003186 3091.34302 3119.66211
3065.0 0.0003263 3091.23169 3122.55420
3144.0 0.0003181 3091.11963 3123.85522
3031.0 0.0003299 3091.00757 3123.49561
3045.0 0.0003284 3090.89478 3122.44263
3094.0 0.0003232 3090.78174 3121.94824
3168.0 0.0003157 3090.66821 3123.12085
3134.0 0.0003191 3090.55420 3127.04907
3073.0 0.0003254 3090.43994 3135.00366
3124.0 0.0003201 3090.32520 3148.49292
3221.0 0.0003105 3090.20996 3169.05420
3153.0 0.0003172 3090.09448 3197.72192
3288.0 0.0003041 3089.97852 3234.15356
3398.0 0.0002943 3089.86230 3275.47803
3235.0 0.0003091 3089.74561 3315.12720
3291.0 0.0003039 3089.62842 3342.58447
3333.0 0.0003000 3089.51099 3346.71582
3489.0 0.0002866 3089.39307 3324.72363
3309.0 0.0003022 3089.27490 3285.85596
3328.0 0.0003005 3089.15649 3242.64917
3263.0 0.0003065 3089.03760 3203.32739
3172.0 0.0003153 3088.91821 3171.50708
3064.0 0.0003264 3088.79858 3147.82764
3080.0 0.0003247 3088.67847 3131.32080
3012.0 0.0003320 3088.55811 3120.28638
3125.0 0.0003200 3088.43750 3113.03882
3051.0 0.0003278 3088.31641 3108.20703
3129.0 0.0003196 3088.19507 3104.97559
3123.0 0.0003202 3088.07324 3102.50366
3125.0 0.0003200 3087.95142 3100.58740
3139.0 0.0003186 3087.82886 3099.04150
3095.0 0.0003231 3087.70630 3097.76294
3074.0 0.0003253 3087.58325 3096.68628
3093.0 0.0003233 3087.45996 3095.76929
3028.0 0.0003303 3087.33643 3094.98267
3125.0 0.0003200 3087.21240 3094.30298
3085.0 0.0003241 3087.08813 3093.71484
3124.0 0.0003201 3086.96362 3093.20386
3093.0 0.0003233 3086.83887 3092.76123
2989.0 0.0003346 3086.71362 3092.38013
3108.0 0.0003218 3086.58813 3092.05811
3050.0 0.0003279 3086.46240 3091.79150
3105.0 0.0003221 3086.33643 3091.58179
3052.0 0.0003277 3086.21021 3091.43408
3107.0 0.0003219 3086.08374 3091.35767
3200.0 0.0003125 3085.95679 3091.29565
3135.0 0.0003190 3085.82959 3091.45435
3049.0 0.0003280 3085.70239 3091.82739
3107.0 0.0003219 3085.57471 3092.54053
3091.0 0.0003235 3085.44678 3093.77539
3166.0 0.0003159 3085.31860 3095.75635
3073.0 0.0003254 3085.19019 3098.69238
3062.0 0.0003266 3085.06152 3102.72266
3066.0 0.0003262 3084.93262 3107.74536
3107.0 0.0003219 3084.80347 3113.27466
3185.0 0.0003140 3084.67407 3118.21094
3116.0 0.0003209 3084.54443 3120.85669
3054.0 0.0003274 3084.41455 3119.90088
3038.0 0.0003292 3084.28442 3115.74805
3093.0 0.0003233 3084.15405 3110.06128
3211.0 0.0003114 3084.02344 3104.33618
3168.0 0.0003157 3083.89282 3099.38574
3166.0 0.0003159 3083.76172 3095.50269
3085.0 0.0003241 3083.63062 3092.67310
3161.0 0.0003164 3083.49902 3090.72192
3138.0 0.0003187 3083.36743 3089.41895
3126.0 0.0003199 3083.23560 3088.55640
3052.0 0.0003277 3083.10352 3087.97803
2993.0 0.0003341 3082.97119 3087.58179
3112.0 0.0003213 3082.83862 3087.30835
3217.0 0.0003108 3082.70605 3087.13062
3200.0 0.0003125 3082.57300 3087.03760
3071.0 0.0003256 3082.43994 3087.03320
3052.0 0.0003277 3082.30664 3087.13550
3082.0 0.0003245 3082.17334 3087.38623
2987.0 0.0003348 3082.03955 3088.50317
3096.0 0.0003230 3081.90576 3089.35352
3102.0 0.0003224 3081.77173 3090.72290
3088.0 0.0003238 3081.63745 3092.95630
3034.0 0.0003296 3081.50317 3096.28955
3147.0 0.0003178 3081.36865 3100.92651
3118.0 0.0003207 3081.23389 3106.79761
3064.0 0.0003264 3081.09888 3113.63086
3043.0 0.0003286 3080.96387 3120.30664
3111.0 0.0003214 3080.82861 3124.94336
3198.0 0.0003127 3080.69312 3125.54053
3199.0 0.0003126 3080.55762 3121.74902
3067.0 0.0003261 3080.42188 3115.25342
3167.0 0.0003158 3080.28589 3108.11450
3094.0 0.0003232 3080.14990 3101.63867
3129.0 0.0003196 3080.01367 3096.39185
3048.0 0.0003281 3079.87720 3092.58911
3098.0 0.0003228 3079.74072 3089.85181
3109.0 0.0003216 3079.60400 3088.02124
3093.0 0.0003233 3079.46704 3086.82544
3120.0 0.0003205 3079.33008 3086.04346
3107.0 0.0003219 3079.19287 3085.52100
3031.0 0.0003299 3079.05566 3085.16504
3108.0 0.0003218 3078.91821 3084.92236
3074.0 0.0003253 3078.78052 3084.76538
3088.0 0.0003238 3078.64282 3084.66479
3036.0 0.0003294 3078.50488 3084.64819
3099.0 0.0003227 3078.36694 3084.69751
3108.0 0.0003218 3078.22876 3084.81641
3051.0 0.0003278 3078.09033 3085.01196
3011.0 0.0003321 3077.95190 3085.29980
3043.0 0.0003286 3077.81323 3085.70264
3112.0 0.0003213 3077.67456 3086.26147
3045.0 0.0003284 3077.53564 3087.04199
3128.0 0.0003197 3077.39648 3088.14624
3147.0 0.0003178 3077.25757 3089.71631
2962.0 0.0003376 3077.11816 3091.93188
3074.0 0.0003253 3076.97876 3094.97266
3028.0 0.0003303 3076.83911 3099.07520
3090.0 0.0003236 3076.69946 3104.15649
3135.0 0.0003190 3076.55957 3110.64209
3172.0 0.0003153 3076.41943 3118.14111
3143.0 0.0003182 3076.27930 3126.38086
3035.0 0.0003295 3076.13916 3135.56665
3204.0 0.0003121 3075.99878 3146.69653
3148.0 0.0003177 3075.85815 3160.78101
3236.0 0.0003090 3075.71729 3177.92627
3241.0 0.0003085 3075.57666 3197.20264
3172.0 0.0003153 3075.43555 3219.03638
3217.0 0.0003108 3075.29443 3233.55127
3236.0 0.0003090 3075.15332 3236.82373
3213.0 0.0003112 3075.01172 3225.66187
3210.0 0.0003115 3074.87036 3203.96362
3277.0 0.0003052 3074.72852 3178.71069
3147.0 0.0003178 3074.58691 3155.03687
3085.0 0.0003241 3074.44482 3135.37842
3146.0 0.0003179 3074.30273 3120.39380
3113.0 0.0003212 3074.16040 3109.71167
3115.0 0.0003210 3074.01807 3102.47705
3089.0 0.0003237 3073.87549 3097.72314
3059.0 0.0003269 3073.73291 3094.61792
3012.0 0.0003320 3073.59009 3092.55054
3113.0 0.0003212 3073.44702 3091.12891
3062.0 0.0003266 3073.30396 3090.11987
3094.0 0.0003232 3073.16040 3089.39355
3028.0 0.0003303 3073.01709 3088.87451
3011.0 0.0003321 3072.87329 3088.52319
2983.0 0.0003352 3072.72974 3088.31201
3064.0 0.0003264 3072.58569 3088.22437
3080.0 0.0003247 3072.44165 3088.25073
3105.0 0.0003221 3072.29736 3088.38477
3097.0 0.0003229 3072.15283 3088.62402
3105.0 0.0003221 3072.00830 3088.96899
3040.0 0.0003289 3071.86353 3089.42432
3088.0 0.0003238 3071.71851 3089.99756
3159.0 0.0003166 3071.57349 3090.69751
3132.0 0.0003193 3071.42822 3091.53931
3029.0 0.0003301 3071.28271 3092.54053
3024.0 0.0003307 3071.13696 3093.72607
3161.0 0.0003164 3070.99121 3095.09497
3202.0 0.0003123 3070.84521 3096.74854
3086.0 0.0003240 3070.69897 3099.83594
3037.0 0.0003293 3070.55273 3102.18335
3097.0 0.0003229 3070.40601 3104.99048
3188.0 0.0003137 3070.25928 3108.37451
3148.0 0.0003177 3070.11230 3112.52686
3060.0 0.0003268 3069.96509 3117.75464
3072.0 0.0003255 3069.81787 3124.59473
3110.0 0.0003215 3069.67017 3133.99829
3091.0 0.0003235 3069.52246 3147.57861
3175.0 0.0003150 3069.37451 3167.88208
3220.0 0.0003106 3069.22607 3198.48364
3183.0 0.0003142 3069.07764 3243.68286
3265.0 0.0003063 3068.92896 3307.56909
3326.0 0.0003007 3068.78027 3392.40845
3558.0 0.0002811 3068.63110 3496.39917
3528.0 0.0002834 3068.48169 3610.50269
3684.0 0.0002714 3068.33228 3714.21777
3671.0 0.0002724 3068.18237 3775.40503
3703.0 0.0002701 3068.03223 3767.32324
3713.0 0.0002693 3067.88184 3694.34033
3556.0 0.0002812 3067.73145 3587.18774
3489.0 0.0002866 3067.58057 3475.97534
3302.0 0.0003028 3067.42944 3378.19385
3235.0 0.0003091 3067.27832 3300.92773
3314.0 0.0003018 3067.12671 3245.04053
3240.0 0.0003086 3066.97485 3208.08545
3236.0 0.0003090 3066.82275 3186.41431
3152.0 0.0003173 3066.67041 3176.55664
3155.0 0.0003170 3066.51758 3175.98828
3169.0 0.0003156 3066.36475 3182.81934
3162.0 0.0003163 3066.21143 3195.40820
3231.0 0.0003095 3066.05786 3211.52539
3164.0 0.0003161 3065.90405 3227.38232
3303.0 0.0003028 3065.75000 3237.26270
3250.0 0.0003077 3065.59570 3235.98730
3324.0 0.0003008 3065.44092 3223.48877
3314.0 0.0003018 3065.28589 3204.76904
3235.0 0.0003091 3065.13037 3185.23413
3129.0 0.0003196 3064.97485 3168.16992
3232.0 0.0003094 3064.81885 3154.96753
3133.0 0.0003192 3064.66235 3145.84814
3198.0 0.0003127 3064.50586 3140.38794
3182.0 0.0003143 3064.34863 3137.89746
3132.0 0.0003193 3064.19141 3137.68628
3109.0 0.0003216 3064.03369 3139.21851
3112.0 0.0003213 3063.87573 3142.15820
3072.0 0.0003255 3063.71729 3146.35400
3171.0 0.0003154 3063.55859 3151.79810
3188.0 0.0003137 3063.39941 3158.59521
3114.0 0.0003211 3063.23999 3166.94751
3176.0 0.0003149 3063.08008 3177.16284
3156.0 0.0003169 3062.91968 3189.75830
3239.0 0.0003087 3062.75903 3205.32153
3200.0 0.0003125 3062.59814 3225.07764
3215.0 0.0003110 3062.43677 3251.05420
3267.0 0.0003061 3062.27490 3286.82910
3307.0 0.0003024 3062.11255 3338.48730
3351.0 0.0002984 3061.94995 3415.65356
3568.0 0.0002803 3061.78687 3531.96582
3606.0 0.0002773 3061.62354 3705.22778
3887.0 0.0002573 3061.45947 3949.61182
4250.0 0.0002353 3061.29517 4276.46680
4747.0 0.0002107 3061.13037 4681.55811
5107.0 0.0001958 3060.96533 5134.55078
5716.0 0.0001749 3060.79956 5562.83887
5907.0 0.0001693 3060.63354 5845.07178
5918.0 0.0001690 3060.46704 5863.87109
5818.0 0.0001719 3060.30005 5610.45166
5312.0 0.0001883 3060.13257 5194.51611
4793.0 0.0002086 3059.96460 4741.35596
4420.0 0.0002262 3059.79614 4329.75293
3939.0 0.0002539 3059.62720 3994.07031
3672.0 0.0002723 3059.45801 3740.83057
3514.0 0.0002846 3059.28809 3561.09106
3486.0 0.0002869 3059.11768 3439.08276
3331.0 0.0003002 3058.94678 3358.20972
3330.0 0.0003003 3058.77539 3304.55420
3285.0 0.0003044 3058.60352 3268.11060
3192.0 0.0003133 3058.43115 3242.46729
3247.0 0.0003080 3058.25830 3223.83496
3146.0 0.0003179 3058.08472 3210.07568
3229.0 0.0003097 3057.91089 3200.00293
3177.0 0.0003148 3057.73633 3192.96167
3089.0 0.0003237 3057.56128 3188.62256
3181.0 0.0003144 3057.38574 3186.90161
3096.0 0.0003230 3057.20947 3187.98999
3278.0 0.0003051 3057.03271 3192.47705
3238.0 0.0003088 3056.85547 3201.59644
3255.0 0.0003072 3056.67749 3217.59497
3288.0 0.0003041 3056.49927 3244.14185
3273.0 0.0003055 3056.32007 3286.54712
3356.0 0.0002980 3056.14063 3351.44385
3412.0 0.0002931 3055.96045 3445.56787
3617.0 0.0002765 3055.77979 3573.49805
3852.0 0.0002596 3055.59839 3734.44019
3925.0 0.0002548 3055.41626 3917.76196
4178.0 0.0002393 3055.23364 4096.60645
4301.0 0.0002325 3055.05054 4223.79492
4366.0 0.0002290 3054.86670 4248.45068
4187.0 0.0002388 3054.68237 4158.15186
4032.0 0.0002480 3054.49731 3992.07129
3756.0 0.0002662 3054.31152 3802.93481
3703.0 0.0002701 3054.12524 3626.58350
3546.0 0.0002820 3053.93823 3479.89404
3337.0 0.0002997 3053.75073 3367.32788
3294.0 0.0003036 3053.56250 3286.18701
3228.0 0.0003098 3053.37354 3230.30298
3181.0 0.0003144 3053.18408 3193.81641
3130.0 0.0003195 3052.99365 3168.51709
3208.0 0.0003117 3052.80273 3150.99902
3196.0 0.0003129 3052.61108 3138.32935
3020.0 0.0003311 3052.41895 3128.75830
3001.0 0.0003332 3052.22583 3121.29980
3118.0 0.0003207 3052.03223 3115.41724
3095.0 0.0003231 3051.83789 3110.80957
3048.0 0.0003281 3051.64282 3106.63306
3106.0 0.0003220 3051.44727 3104.03442
3075.0 0.0003252 3051.25073 3102.14722
3190.0 0.0003135 3051.05347 3100.67041
3070.0 0.0003257 3050.85571 3099.15991
3113.0 0.0003212 3050.65723 3097.15723
3030.0 0.0003300 3050.45776 3094.53125
3065.0 0.0003263 3050.25781 3091.52246
3047.0 0.0003282 3050.05713 3089.19629
3061.0 0.0003267 3049.85547 3086.55469
3047.0 0.0003282 3049.65332 3084.36938
2981.0 0.0003355 3049.45020 3082.68188
3134.0 0.0003191 3049.24658 3081.68164
3058.0 0.0003270 3049.04199 3080.89600
3137.0 0.0003188 3048.83667 3080.43286
3067.0 0.0003261 3048.63086 3080.15991
3120.0 0.0003205 3048.42407 3079.89307
2998.0 0.0003336 3048.21655 3079.33472
3021.0 0.0003310 3048.00830 3078.64941
3155.0 0.0003170 3047.79907 3077.82202
3034.0 0.0003296 3047.58936 3077.00977
3024.0 0.0003307 3047.37866 3076.32300
3177.0 0.0003148 3047.16724 3075.81567
3128.0 0.0003197 3046.95508 3075.50513
3167.0 0.0003158 3046.74219 3075.38696
2979.0 0.0003357 3046.52832 3075.44800
3066.0 0.0003262 3046.31396 3075.67334
3082.0 0.0003245 3046.09863 3076.05127
3010.0 0.0003322 3045.88232 3076.57715
3042.0 0.0003287 3045.66553 3077.25366
3026.0 0.0003305 3045.44775 3078.08984
3119.0 0.0003206 3045.22900 3079.09985
3055.0 0.0003273 3045.00977 3080.30347
3101.0 0.0003225 3044.78955 3081.72656
3085.0 0.0003241 3044.56860 3083.39990
3068.0 0.0003259 3044.34692 3085.36401
3062.0 0.0003266 3044.12427 3087.67065
3086.0 0.0003240 3043.90088 3090.38403
3087.0 0.0003239 3043.67651 3093.59546
2980.0 0.0003356 3043.45142 3097.43091
3063.0 0.0003265 3043.22559 3102.07886
3215.0 0.0003110 3042.99878 3107.81641
3098.0 0.0003228 3042.77124 3115.04907
3080.0 0.0003247 3042.54272 3124.33911
3114.0 0.0003211 3042.31372 3136.41357
3191.0 0.0003134 3042.08350 3152.14282
3243.0 0.0003084 3041.85254 3172.51465
3276.0 0.0003053 3041.62085 3198.64771
3260.0 0.0003067 3041.38843 3231.85864
3392.0 0.0002948 3041.15503 3271.09009
3420.0 0.0002924 3040.92065 3323.73853
3374.0 0.0002964 3040.68555 3390.79248
3572.0 0.0002800 3040.44971 3479.79492
3755.0 0.0002663 3040.21289 3601.63062
3866.0 0.0002587 3039.97510 3765.22266
4080.0 0.0002451 3039.73682 3971.19287
4173.0 0.0002396 3039.49756 4205.85010
4390.0 0.0002278 3039.25732 4433.42334
4550.0 0.0002198 3039.01636 4592.10107
4652.0 0.0002150 3038.77441 4617.25586
4488.0 0.0002228 3038.53198 4494.86426
4190.0 0.0002387 3038.28833 4275.82178
4077.0 0.0002453 3038.04395 4027.45703
3892.0 0.0002569 3037.79883 3795.59521
3692.0 0.0002709 3037.55273 3601.98682
3474.0 0.0002879 3037.30591 3452.60669
3380.0 0.0002959 3037.05811 3344.28467
3266.0 0.0003062 3036.80957 3269.31396
3279.0 0.0003050 3036.56006 3218.82227
3287.0 0.0003042 3036.31006 3184.92822
3106.0 0.0003220 3036.05884 3161.68652
3104.0 0.0003222 3035.80688 3145.11108
3198.0 0.0003127 3035.55420 3132.75610
3120.0 0.0003205 3035.30054 3123.19531
3156.0 0.0003169 3035.04614 3115.60693
3063.0 0.0003265 3034.79102 3109.50146
3046.0 0.0003283 3034.53491 3104.59644
3057.0 0.0003271 3034.27808 3100.62793
3137.0 0.0003188 3034.02026 3097.47339
3084.0 0.0003243 3033.76172 3095.02368
3118.0 0.0003207 3033.50244 3093.20703
3067.0 0.0003261 3033.24219 3090.83447
3101.0 0.0003225 3032.98120 3090.13721
3071.0 0.0003256 3032.71924 3089.95459
3055.0 0.0003273 3032.45654 3090.28638
3097.0 0.0003229 3032.19336 3091.14746
3011.0 0.0003321 3031.92896 3092.56616
3004.0 0.0003329 3031.66382 3094.59033
3167.0 0.0003158 3031.39795 3097.28979
3112.0 0.0003213 3031.13135 3100.75610
3150.0 0.0003175 3030.86401 3105.11060
3032.0 0.0003298 3030.59570 3110.52026
3093.0 0.0003233 3030.32666 3117.22192
3157.0 0.0003168 3030.05688 3125.58667
3093.0 0.0003233 3029.78638 3136.24927
3162.0 0.0003163 3029.51489 3150.31836
3143.0 0.0003182 3029.24268 3169.68652
3136.0 0.0003189 3028.96973 3197.45947
3218.0 0.0003108 3028.69604 3238.38672
3281.0 0.0003048 3028.42188 3299.01367
3335.0 0.0002999 3028.14648 3387.17505
3411.0 0.0002932 3027.87061 3510.49438
3613.0 0.0002768 3027.59375 3673.78833
3884.0 0.0002575 3027.31641 3875.44019
4129.0 0.0002422 3027.03833 4102.37598
4254.0 0.0002351 3026.75928 4322.78369
4466.0 0.0002239 3026.47974 4481.85205
4508.0 0.0002218 3026.19922 4520.69385
4431.0 0.0002257 3025.91821 4423.49463
4285.0 0.0002334 3025.63647 4234.00928
4001.0 0.0002499 3025.35400 4014.34302
3833.0 0.0002609 3025.07080 3808.83691
3724.0 0.0002685 3024.78687 3640.19336
3562.0 0.0002807 3024.50220 3517.02148
3496.0 0.0002860 3024.21704 3440.25000
3437.0 0.0002910 3023.93091 3407.44629
3301.0 0.0003029 3023.64429 3415.65820
3447.0 0.0002901 3023.35718 3462.58325
3578.0 0.0002795 3023.06909 3546.04028
3738.0 0.0002675 3022.78052 3661.89697
3919.0 0.0002552 3022.49121 3800.61523
3989.0 0.0002507 3022.20117 3942.63696
4058.0 0.0002464 3021.91064 4055.75903
4190.0 0.0002387 3021.61963 4105.26611
4188.0 0.0002388 3021.32788 4079.38403
4053.0 0.0002467 3021.03540 3997.13403
3885.0 0.0002574 3020.74243 3884.01025
3728.0 0.0002682 3020.44873 3755.12036
3643.0 0.0002745 3020.15454 3621.54395
3583.0 0.0002791 3019.85962 3495.93555
3471.0 0.0002881 3019.56421 3388.36987
3267.0 0.0003061 3019.26831 3302.53809
3289.0 0.0003040 3018.97168 3237.32373
3189.0 0.0003136 3018.67480 3189.39063
3140.0 0.0003185 3018.37695 3154.85254
3084.0 0.0003243 3018.07886 3130.10938
3173.0 0.0003152 3017.78027 3112.21069
3036.0 0.0003294 3017.48096 3098.94336
3152.0 0.0003173 3017.18115 3088.76709
3079.0 0.0003248 3016.88110 3080.66772
3096.0 0.0003230 3016.58032 3074.14526
3074.0 0.0003253 3016.27905 3068.49536
3059.0 0.0003269 3015.97729 3063.60962
3008.0 0.0003324 3015.67505 3059.33105
3051.0 0.0003278 3015.37256 3055.55664
3050.0 0.0003279 3015.06934 3052.20776
3116.0 0.0003209 3014.76587 3049.21924
3125.0 0.0003200 3014.46167 3046.53979
3113.0 0.0003212 3014.15747 3044.12354
3126.0 0.0003199 3013.85254 3041.93237
3044.0 0.0003285 3013.54712 3039.93481
3063.0 0.0003265 3013.24170 3038.10522
3046.0 0.0003283 3012.93555 3036.41968
3035.0 0.0003295 3012.62915 3034.86157
3030.0 0.0003300 3012.32227 3033.41455
3089.0 0.0003237 3012.01514 3032.06616
3111.0 0.0003214 3011.70752 3030.80518
2998.0 0.0003336 3011.39966 3029.62354
3041.0 0.0003288 3011.09155 3028.51147
3085.0 0.0003241 3010.78296 3027.46387
3023.0 0.0003308 3010.47412 3026.47437
2988.0 0.0003347 3010.16479 3025.53638
3006.0 0.0003327 3009.85547 3024.64722
3049.0 0.0003280 3009.54565 3023.80298
3035.0 0.0003295 3009.23560 3023.00024
2997.0 0.0003337 3008.92554 3022.17554
2904.0 0.0003444 3008.61499 3021.44897
3000.0 0.0003333 3008.30420 3020.75708
3010.0 0.0003322 3007.99316 3020.09912
3131.0 0.0003194 3007.68188 3019.47363
3096.0 0.0003230 3007.37036 3018.88086
3089.0 0.0003237 3007.05884 3018.32007
3033.0 0.0003297 3006.74707 3017.79297
2996.0 0.0003338 3006.43506 3016.14868
2936.0 0.0003406 3006.12280 3015.71362
3067.0 0.0003261 3005.81055 3015.32056
3004.0 0.0003329 3005.49805 3015.23901
2910.0 0.0003436 3005.18530 3014.95581
3031.0 0.0003299 3004.87256 3014.74707
2998.0 0.0003336 3004.55981 3014.64355
3056.0 0.0003272 3004.24683 3014.69629
2958.0 0.0003381 3003.93384 3014.98633
2937.0 0.0003405 3003.62061 3015.63525
3043.0 0.0003286 3003.30762 3016.80518
3047.0 0.0003282 3002.99414 3018.68726
3023.0 0.0003308 3002.68091 3021.46143
3040.0 0.0003289 3002.36743 3025.24390
2943.0 0.0003398 3002.05420 3030.00049
3096.0 0.0003230 3001.74072 3035.42383
3097.0 0.0003229 3001.42749 3040.75903
3018.0 0.0003313 3001.11401 3044.74170
3051.0 0.0003278 3000.80054 3046.09644
3094.0 0.0003232 3000.48730 3044.53564
3055.0 0.0003273 3000.17407 3040.88647
3052.0 0.0003277 2999.86084 3036.12476
2979.0 0.0003357 2999.54761 3030.84814
3062.0 0.0003266 2999.23462 3025.50684
3018.0 0.0003313 2998.92163 3020.56714
3028.0 0.0003303 2998.60864 3016.35278
3058.0 0.0003270 2998.29614 3012.96143
2905.0 0.0003442 2997.98340 3010.32959
3022.0 0.0003309 2997.67090 3008.32593
2914.0 0.0003432 2997.35840 3006.80566
2933.0 0.0003409 2997.04614 3005.63721
2993.0 0.0003341 2996.73413 3004.71606
2892.0 0.0003458 2996.42236 3003.96509
2947.0 0.0003393 2996.11060 3003.32861
2953.0 0.0003386 2995.79932 3002.77417
2904.0 0.0003444 2995.48804 3002.84888
3053.0 0.0003275 2995.17700 3002.40796
2896.0 0.0003453 2994.86621 3002.00537
2917.0 0.0003428 2994.55566 3001.63452
2930.0 0.0003413 2994.24561 3001.29321
3016.0 0.0003316 2993.93555 3000.97827
3029.0 0.0003301 2993.62598 3000.68896
2988.0 0.0003347 2993.31665 3000.42407
3033.0 0.0003297 2993.00732 3000.18433
2881.0 0.0003471 2992.69873 2999.97119
2943.0 0.0003398 2992.39014 2999.78394
2930.0 0.0003413 2992.08228 2999.62598
2948.0 0.0003392 2991.77441 2999.49902
3025.0 0.0003306 2991.46704 2998.30835
3109.0 0.0003216 2991.15991 2998.27393
2932.0 0.0003411 2990.85352 2998.28223
3038.0 0.0003292 2990.54736 2998.34082
2960.0 0.0003378 2990.24146 2998.45801
2963.0 0.0003375 2989.93628 2998.64600
2992.0 0.0003342 2989.63110 2998.91772
2963.0 0.0003375 2989.32666 2999.29810
2993.0 0.0003341 2989.02271 2999.81860
3083.0 0.0003244 2988.71924 3000.53516
2930.0 0.0003413 2988.41602 3001.53882
3031.0 0.0003299 2988.11353 3002.97827
2933.0 0.0003409 2987.81152 3005.08398
3089.0 0.0003237 2987.50977 3008.18188
3024.0 0.0003307 2987.20874 3012.67261
3002.0 0.0003331 2986.90820 3019.04199
2999.0 0.0003334 2986.60840 3027.00464
3112.0 0.0003213 2986.30884 3038.02319
3083.0 0.0003244 2986.01001 3051.14331
3104.0 0.0003222 2985.71167 3065.31494
3030.0 0.0003300 2985.41406 3078.13184
3115.0 0.0003210 2985.11694 3086.74976
3175.0 0.0003150 2984.82031 3088.30811
3156.0 0.0003169 2984.52466 3083.29346
3088.0 0.0003238 2984.22925 3075.14038
3074.0 0.0003253 2983.93457 3067.84521
3085.0 0.0003241 2983.64063 3064.39160
3093.0 0.0003233 2983.34717 3066.69189
3025.0 0.0003306 2983.05469 3075.75952
3062.0 0.0003266 2982.76270 3091.68726
3030.0 0.0003300 2982.47144 3113.40479
3129.0 0.0003196 2982.18066 3138.17383
3133.0 0.0003192 2981.89087 3160.87158
3220.0 0.0003106 2981.60156 3174.19214
3128.0 0.0003197 2981.31323 3172.12280
3148.0 0.0003177 2981.02539 3154.95361
3054.0 0.0003274 2980.73828 3128.83154
3204.0 0.0003121 2980.45215 3100.54102
3018.0 0.0003313 2980.16650 3074.46558
3066.0 0.0003262 2979.88184 3052.65771
3078.0 0.0003249 2979.59790 3035.66064
3086.0 0.0003240 2979.31470 3023.13843
3121.0 0.0003204 2979.03223 3014.30737
2922.0 0.0003422 2978.75073 3008.35693
3000.0 0.0003333 2978.46997 3004.26294
2942.0 0.0003399 2978.18994 3001.48145
2976.0 0.0003360 2977.91089 2999.56909
3094.0 0.0003232 2977.63257 2998.24756
3069.0 0.0003258 2977.35522 2997.35425
3004.0 0.0003329 2977.07861 2996.79834
2957.0 0.0003382 2976.80273 2996.53491
2982.0 0.0003353 2976.52783 2996.54590
2963.0 0.0003375 2976.25391 2996.83228
2907.0 0.0003440 2975.98071 2997.41211
3040.0 0.0003289 2975.70850 2998.32324
2942.0 0.0003399 2975.43701 2999.63452
3014.0 0.0003318 2975.16650 3001.46533
2976.0 0.0003360 2974.89697 3004.02832
2990.0 0.0003344 2974.62842 3007.66064
3015.0 0.0003317 2974.36060 3012.94336
3004.0 0.0003329 2974.09375 3020.75000
2987.0 0.0003348 2973.82788 3032.29053
3031.0 0.0003299 2973.56299 3049.04199
3039.0 0.0003291 2973.29907 3072.53223
3045.0 0.0003284 2973.03589 3103.87744
3136.0 0.0003189 2972.77368 3143.25757
3150.0 0.0003175 2972.51270 3189.06470
3293.0 0.0003037 2972.25244 3236.71753
3281.0 0.0003048 2971.99341 3277.35425
3330.0 0.0003003 2971.73511 3298.82520
3318.0 0.0003014 2971.47778 3292.56494
3298.0 0.0003032 2971.22144 3261.29492
3229.0 0.0003097 2970.96631 3216.36206
3163.0 0.0003162 2970.71191 3168.92822
3097.0 0.0003229 2970.45874 3125.86084
3116.0 0.0003209 2970.20630 3090.26001
3064.0 0.0003264 2969.95508 3062.83936
3004.0 0.0003329 2969.70483 3042.92920
3120.0 0.0003205 2969.45557 3029.17627
3073.0 0.0003254 2969.20728 3020.06006
2952.0 0.0003388 2968.95996 3014.22656
3053.0 0.0003275 2968.71387 3010.64185
3019.0 0.0003312 2968.46875 3008.60767
3079.0 0.0003248 2968.22437 3007.70020
2989.0 0.0003346 2967.98145 3007.67090
3006.0 0.0003327 2967.73926 3008.48608
3018.0 0.0003313 2967.49829 3010.13208
2992.0 0.0003342 2967.25830 3012.71924
3006.0 0.0003327 2967.01929 3016.47754
2955.0 0.0003384 2966.78125 3021.86865
3095.0 0.0003231 2966.54443 3029.62793
3087.0 0.0003239 2966.30859 3041.00220
3113.0 0.0003212 2966.07373 3057.85962
3147.0 0.0003178 2965.84009 3082.75684
3066.0 0.0003262 2965.60742 3118.77026
3138.0 0.0003187 2965.37573 3168.99561
3324.0 0.0003008 2965.14502 3235.67236
3212.0 0.0003113 2964.91553 3318.94922
3296.0 0.0003034 2964.68701 3415.19116
3571.0 0.0002800 2964.45947 3514.49121
3655.0 0.0002736 2964.23315 3598.04126
3672.0 0.0002723 2964.00781 3640.61328
3606.0 0.0002773 2963.78345 3625.10034
3604.0 0.0002775 2963.56030 3557.86230
3283.0 0.0003046 2963.33813 3462.57227
3287.0 0.0003042 2963.11694 3362.20337
3132.0 0.0003193 2962.89673 3270.85205
3154.0 0.0003171 2962.67773 3194.88428
3242.0 0.0003085 2962.45972 3135.76392
3129.0 0.0003196 2962.24268 3092.10425
3077.0 0.0003250 2962.02686 3061.09155
2987.0 0.0003348 2961.81201 3039.74243
3037.0 0.0003293 2961.59814 3024.79858
2988.0 0.0003347 2961.38525 3014.22754
3057.0 0.0003271 2961.17358 3006.47656
3017.0 0.0003315 2960.96265 3000.54932
2946.0 0.0003394 2960.75293 2995.83691
2975.0 0.0003361 2960.54443 2991.97729
3006.0 0.0003327 2960.33667 2988.74829
3019.0 0.0003312 2960.13013 2986.01001
3003.0 0.0003330 2959.92432 2983.66699
2945.0 0.0003396 2959.71973 2981.65137
2927.0 0.0003416 2959.51611 2979.91064
3046.0 0.0003283 2959.31348 2978.40991
3023.0 0.0003308 2959.11182 2977.12402
2955.0 0.0003384 2958.91113 2976.04028
2937.0 0.0003405 2958.71143 2975.16089
2968.0 0.0003369 2958.51294 2974.53735
2893.0 0.0003457 2958.31519 2974.14697
3014.0 0.0003318 2958.11841 2974.08032
2917.0 0.0003428 2957.92285 2974.41284
3136.0 0.0003189 2957.72803 2975.21606
3062.0 0.0003266 2957.53418 2976.53638
2986.0 0.0003349 2957.34131 2978.35889
2922.0 0.0003422 2957.14941 2980.55957
3062.0 0.0003266 2956.95825 2982.83667
2953.0 0.0003386 2956.76831 2984.57886
3083.0 0.0003244 2956.57935 2985.26440
3037.0 0.0003293 2956.39087 2984.45117
2947.0 0.0003393 2956.20361 2982.40991
2992.0 0.0003342 2956.01733 2979.80200
3030.0 0.0003300 2955.83179 2977.22095
2999.0 0.0003334 2955.64722 2975.02588
3051.0 0.0003278 2955.46338 2973.39453
2994.0 0.0003340 2955.28076 2972.40601
3003.0 0.0003330 2955.09863 2972.10986
2963.0 0.0003375 2954.91748 2972.58545
2982.0 0.0003353 2954.73730 2973.98633
2986.0 0.0003349 2954.55786 2976.43164
3042.0 0.0003287 2954.37915 2980.61377
2952.0 0.0003388 2954.20142 2986.85547
2967.0 0.0003370 2954.02466 2995.61621
3028.0 0.0003303 2953.84839 3007.18726
3031.0 0.0003299 2953.67310 3021.46753
2989.0 0.0003346 2953.49854 3037.67554
3125.0 0.0003200 2953.32471 3053.91724
3117.0 0.0003208 2953.15161 3066.82544
3176.0 0.0003149 2952.97949 3072.27295
3096.0 0.0003230 2952.80811 3068.00122
2967.0 0.0003370 2952.63721 3055.68481
3063.0 0.0003265 2952.46729 3039.37109
2991.0 0.0003343 2952.29785 3022.67529
3085.0 0.0003241 2952.12939 3007.75098
2998.0 0.0003336 2951.96143 2995.56470
2995.0 0.0003339 2951.79419 2986.34351
2885.0 0.0003466 2951.62769 2979.88159
2973.0 0.0003364 2951.46167 2975.74341
2906.0 0.0003441 2951.29639 2973.43140
3029.0 0.0003301 2951.13208 2972.45581
2997.0 0.0003337 2950.96802 2972.35718
2910.0 0.0003436 2950.80469 2972.67627
2859.0 0.0003498 2950.64209 2972.98755
2953.0 0.0003386 2950.47974 2973.06738
2975.0 0.0003361 2950.31812 2972.98096
2987.0 0.0003348 2950.15723 2972.90356
2896.0 0.0003453 2949.99683 2972.84644
2915.0 0.0003431 2949.83691 2972.55420
2934.0 0.0003408 2949.67749 2971.63403
2866.0 0.0003489 2949.51880 2969.89014
3021.0 0.0003310 2949.36035 2967.53198
2974.0 0.0003362 2949.20264 2964.97461
2960.0 0.0003378 2949.04517 2962.55127
2833.0 0.000353 2948.88843 2960.44556
2958.0 0.0003381 2948.73193 2958.71729
2980.0 0.0003356 2948.57593 2957.09766
2892.0 0.0003458 2948.42017 2956.07373
2970.0 0.0003367 2948.26514 2955.31592
2943.0 0.0003398 2948.11035 2954.76318
2907.0 0.0003440 2947.95605 2954.36279
3035.0 0.0003295 2947.80200 2954.07300
2938.0 0.0003404 2947.64819 2953.86401
3040.0 0.0003289 2947.49512 2953.72046
2987.0 0.0003348 2947.34204 2953.63989
2988.0 0.0003347 2947.18921 2953.63745
3011.0 0.0003321 2947.03711 2953.74243
2919.0 0.0003426 2946.88477 2953.99219
2931.0 0.0003412 2946.73315 2954.42700
2907.0 0.0003440 2946.58154 2955.08374
2980.0 0.0003356 2946.43018 2955.98340
2948.0 0.0003392 2946.27905 2957.11670
3020.0 0.0003311 2946.12817 2958.42212
3077.0 0.0003250 2945.97729 2959.75391
3014.0 0.0003318 2945.82690 2960.86206
2986.0 0.0003349 2945.67651 2961.45215
2965.0 0.0003373 2945.52637 2961.38330
3052.0 0.0003277 2945.37622 2960.80615
3064.0 0.0003264 2945.22632 2960.03247
2958.0 0.0003381 2945.07642 2959.33862
3006.0 0.0003327 2944.92651 2958.90015
2972.0 0.0003365 2944.77686 2958.81421
2932.0 0.0003411 2944.62720 2959.14282
2939.0 0.0003403 2944.47754 2959.93848
2999.0 0.0003334 2944.32813 2961.28882
3007.0 0.0003326 2944.17847 2963.35132
2967.0 0.0003370 2944.02881 2966.40674
2978.0 0.0003358 2943.87915 2970.90894
2918.0 0.0003427 2943.72949 2976.94897
3064.0 0.0003264 2943.57983 2986.50903
2963.0 0.0003375 2943.43018 2999.94653
3038.0 0.0003292 2943.28027 3018.09155
3106.0 0.0003220 2943.13013 3041.37646
3139.0 0.0003186 2942.98022 3069.44214
3179.0 0.0003146 2942.82983 3100.57837
3140.0 0.0003185 2942.67944 3130.92554
3207.0 0.0003118 2942.52881 3153.98462
3163.0 0.0003162 2942.37817 3162.37427
3166.0 0.0003159 2942.22705 3152.78345
3096.0 0.0003230 2942.07593 3128.99976
3163.0 0.0003162 2941.92456 3098.47778
3181.0 0.0003144 2941.77295 3067.59766
3038.0 0.0003292 2941.62109 3040.09570
2965.0 0.0003373 2941.46875 3017.64307
2963.0 0.0003375 2941.31641 3000.63770
2992.0 0.0003342 2941.16333 2988.74243
2949.0 0.0003391 2941.01025 2981.25830
2868.0 0.0003487 2940.85669 2977.37988
2991.0 0.0003343 2940.70288 2976.33203
2999.0 0.0003334 2940.54858 2977.39673
2995.0 0.0003339 2940.39404 2979.83130
3069.0 0.0003258 2940.23901 2982.71606
2938.0 0.0003404 2940.08325 2984.82153
2981.0 0.0003355 2939.92749 2984.85010
2999.0 0.0003334 2939.77100 2982.18604
2946.0 0.0003394 2939.61426 2977.36792
2886.0 0.0003465 2939.45679 2971.55493
2995.0 0.0003339 2939.29883 2965.74780
2971.0 0.0003366 2939.14038 2960.52856
2965.0 0.0003373 2938.98145 2956.14722
2944.0 0.0003397 2938.82202 2952.64453
2911.0 0.0003435 2938.66187 2949.93896
2909.0 0.0003438 2938.50122 2947.89014
2877.0 0.0003476 2938.33984 2946.32593
2997.0 0.0003337 2938.17798 2945.13721
2919.0 0.0003426 2938.01538 2944.19678
2913.0 0.0003433 2937.85205 2943.42480
2870.0 0.0003484 2937.68848 2942.76782
2939.0 0.0003403 2937.52368 2942.19214
2957.0 0.0003382 2937.35840 2941.67749
2886.0 0.0003465 2937.19238 2941.20972
2881.0 0.0003471 2937.02588 2940.99805
2935.0 0.0003407 2936.85840 2940.60498
2893.0 0.0003457 2936.69019 2940.23926
2956.0 0.0003383 2936.52124 2939.89844
2934.0 0.0003408 2936.35132 2939.57861
2939.0 0.0003403 2936.18091 2939.27979
2852.0 0.0003506 2936.00952 2939.00098
2907.0 0.0003440 2935.83716 2938.74194
2968.0 0.0003369 2935.66406 2939.22192
2935.0 0.0003407 2935.49023 2939.03052
2938.0 0.0003404 2935.31543 2938.87720
2964.0 0.0003374 2935.13965 2938.77710
2895.0 0.0003454 2934.96313 2938.64526
2969.0 0.0003368 2934.78564 2938.70313
2997.0 0.0003337 2934.60718 2938.86255
2956.0 0.0003383 2934.42773 2939.12793
2935.0 0.0003407 2934.24731 2939.49097
2983.0 0.0003352 2934.06592 2939.90869
2929.0 0.0003414 2933.88379 2940.29712
2895.0 0.0003454 2933.70044 2940.52173
2828.0 0.000354 2933.51611 2940.43945
2902.0 0.0003446 2933.33081 2940.00122
2944.0 0.0003397 2933.14429 2939.29395
2998.0 0.0003336 2932.95679 2938.46753
2959.0 0.0003380 2932.76831 2937.64111
2989.0 0.0003346 2932.57861 2936.88477
2948.0 0.0003392 2932.38794 2936.22021
2961.0 0.0003377 2932.19629 2935.66675
2978.0 0.0003358 2932.00342 2935.20728
2975.0 0.0003361 2931.80933 2934.82495
2961.0 0.0003377 2931.61426 2934.50146
2925.0 0.0003419 2931.41797 2934.21899
2874.0 0.0003479 2931.22046 2933.95435
2987.0 0.0003348 2931.02173 2933.72046
2889.0 0.0003461 2930.82202 2933.50000
2989.0 0.0003346 2930.62109 2933.28809
2916.0 0.0003429 2930.41870 2933.08374
2833.0 0.000353 2930.21533 2932.88452
2934.0 0.0003408 2930.01074 2932.69019
2898.0 0.0003451 2929.80493 2933.50659
2861.0 0.0003495 2929.59766 2933.33521
2958.0 0.0003381 2929.38940 2933.16772
2898.0 0.0003451 2929.17969 2933.00317
2868.0 0.0003487 2928.96875 2932.84131
2856.0 0.0003501 2928.75659 2932.68359
2906.0 0.0003441 2928.54321 2932.52881
2947.0 0.0003393 2928.32837 2932.37720
2942.0 0.0003399 2928.11230 2932.22876
2940.0 0.0003401 2927.89478 2932.08398
2883.0 0.0003469 2927.67603 2931.94263
2933.0 0.0003409 2927.45605 2931.80493
2872.0 0.0003482 2927.23462 2931.67114
2881.0 0.0003471 2927.01196 2931.54126
2882.0 0.0003470 2926.78784 2931.41821
2987.0 0.0003348 2926.56226 2931.29785
2927.0 0.0003416 2926.33545 2931.18262
2877.0 0.0003476 2926.10718 2931.07202
3007.0 0.0003326 2925.87769 2930.96851
2947.0 0.0003393 2925.64648 2930.86304
3058.0 0.0003270 2925.41406 2930.88477
2933.0 0.0003409 2925.18042 2930.80493
2891.0 0.0003459 2924.94507 2930.73413
2916.0 0.0003429 2924.70850 2930.67285
2881.0 0.0003471 2924.47046 2930.62354
2966.0 0.0003372 2924.23096 2930.58716
2933.0 0.0003409 2923.98999 2930.56592
2844.0 0.000352 2923.74780 2930.56274
2887.0 0.0003464 2923.50391 2930.58105
2946.0 0.0003394 2923.25879 2930.62769
2914.0 0.0003432 2923.01221 2930.71118
2948.0 0.0003392 2922.76392 2930.84497
2973.0 0.0003364 2922.51440 2931.05127
2976.0 0.0003360 2922.26318 2931.36084
2920.0 0.0003425 2922.01074 2931.81543
2898.0 0.0003451 2921.75684 2932.46411
2864.0 0.0003492 2921.50146 2933.35791
2871.0 0.0003483 2921.24438 2934.53760
2880.0 0.0003472 2920.98608 2936.02124
2907.0 0.0003440 2920.72632 2937.77515
2931.0 0.0003412 2920.46484 2939.68945
2981.0 0.0003355 2920.20215 2941.33887
2921.0 0.0003423 2919.93774 2942.76880
2895.0 0.0003454 2919.67212 2943.39819
2936.0 0.0003406 2919.40479 2943.07080
2966.0 0.0003372 2919.13599 2941.99707
2946.0 0.0003394 2918.86572 2940.58276
2935.0 0.0003407 2918.59399 2939.17993
2888.0 0.0003463 2918.32080 2938.00439
2926.0 0.0003418 2918.04614 2937.15552
2958.0 0.0003381 2917.77002 2936.66504
3035.0 0.0003295 2917.49219 2936.52197
2922.0 0.0003422 2917.21313 2936.69751
2919.0 0.0003426 2916.93262 2937.14868
2951.0 0.0003389 2916.65039 2937.84912
3027.0 0.0003304 2916.36694 2938.78052
2974.0 0.0003362 2916.08179 2939.93994
2884.0 0.0003467 2915.79541 2941.30713
3033.0 0.0003297 2915.50732 2942.97534
2970.0 0.0003367 2915.21802 2944.95654
2963.0 0.0003375 2914.92700 2947.31934
3004.0 0.0003329 2914.63452 2950.16699
2909.0 0.0003438 2914.34082 2953.66016
2905.0 0.0003442 2914.04541 2958.04370
2863.0 0.0003493 2913.74878 2963.69238
2887.0 0.0003464 2913.45044 2971.14453
2977.0 0.0003359 2913.15088 2981.13428
2947.0 0.0003393 2912.84985 2994.57373
3018.0 0.0003313 2912.54736 3012.49561
3060.0 0.0003268 2912.24341 3035.89380
3103.0 0.0003223 2911.93799 3065.57422
3134.0 0.0003191 2911.63110 3101.89331
3173.0 0.0003152 2911.32300 3144.40137
3217.0 0.0003108 2911.01343 3191.27197
3261.0 0.0003067 2910.70239 3238.88086
3322.0 0.0003010 2910.38989 3283.00488
3422.0 0.0002922 2910.07617 3322.60327
3424.0 0.0002921 2909.76099 3362.42432
3353.0 0.0002982 2909.44434 3410.01611
3518.0 0.0002843 2909.12646 3470.17651
3578.0 0.0002795 2908.80713 3541.35181
3706.0 0.0002698 2908.48657 3613.61816
3741.0 0.0002673 2908.16455 3668.12012
3714.0 0.0002693 2907.84131 3682.63916
3758.0 0.0002661 2907.51660 3645.89233
3654.0 0.0002737 2907.19067 3566.37988
3562.0 0.0002807 2906.86328 3465.20459
3468.0 0.0002884 2906.53467 3361.51929
3313.0 0.0003018 2906.20483 3267.10864
3281.0 0.0003048 2905.87378 3187.45557
3123.0 0.0003202 2905.54126 3123.98315
3069.0 0.0003258 2905.20776 3075.68115
3137.0 0.0003188 2904.87256 3040.23120
3018.0 0.0003313 2904.53662 3014.84009
3078.0 0.0003249 2904.19897 2996.83521
2994.0 0.0003340 2903.86035 2983.99438
2980.0 0.0003356 2903.52075 2974.66699
3001.0 0.0003332 2903.17944 2967.70752
3069.0 0.0003258 2902.83716 2962.37793
2989.0 0.0003346 2902.49390 2958.21582
3004.0 0.0003329 2902.14917 2954.93921
2928.0 0.0003415 2901.80347 2952.36963
2901.0 0.0003447 2901.45654 2950.39551
2983.0 0.0003352 2901.10840 2948.94043
2975.0 0.0003361 2900.75928 2947.95654
2912.0 0.0003434 2900.40918 2947.41211
2910.0 0.0003436 2900.05786 2947.29175
2844.0 0.000352 2899.70532 2947.59204
2949.0 0.0003391 2899.35181 2948.32178
2920.0 0.0003425 2898.99731 2949.50415
2932.0 0.0003411 2898.64160 2951.17432
2945.0 0.0003396 2898.28491 2953.38403
2971.0 0.0003366 2897.92725 2956.20581
3069.0 0.0003258 2897.56860 2959.73535
2935.0 0.0003407 2897.20898 2964.10864
2949.0 0.0003391 2896.84839 2969.51978
2865.0 0.0003490 2896.48682 2976.31201
2951.0 0.0003389 2896.12427 2984.83374
2983.0 0.0003352 2895.76099 2995.86865
2994.0 0.0003340 2895.39648 3010.58447
3054.0 0.0003274 2895.03125 3030.86035
3080.0 0.0003247 2894.66528 3059.21875
3048.0 0.0003281 2894.29810 3099.34473
3132.0 0.0003193 2893.93042 3155.69678
3150.0 0.0003175 2893.56152 3233.11108
3333.0 0.0003000 2893.19189 3335.88208
3489.0 0.0002866 2892.82153 3466.41309
3554.0 0.0002814 2892.45044 3623.42065
3722.0 0.0002687 2892.07861 3799.40015
4017.0 0.0002489 2891.70581 3976.95654
4103.0 0.0002437 2891.33252 4125.50488
4235.0 0.0002361 2890.95825 4205.73145
4313.0 0.0002319 2890.58350 4189.91699
4126.0 0.0002424 2890.20776 4083.89648
3988.0 0.0002508 2889.83154 3922.00098
3842.0 0.0002603 2889.45459 3742.24438
3663.0 0.0002730 2889.07715 3570.99194
3400.0 0.0002941 2888.69897 3422.13477
3251.0 0.0003076 2888.32007 3300.97485
3194.0 0.0003131 2887.94067 3207.54565
3146.0 0.0003179 2887.56079 3138.88110
3141.0 0.0003184 2887.18018 3090.68115
3135.0 0.0003190 2886.79907 3058.52563
2978.0 0.0003358 2886.41748 3038.63110
3062.0 0.0003266 2886.03516 3028.13672
3074.0 0.0003253 2885.65259 3025.03857
3047.0 0.0003282 2885.26978 3027.94263
2887.0 0.0003464 2884.88599 3035.70825
3069.0 0.0003258 2884.50195 3046.97437
3007.0 0.0003326 2884.11743 3059.56421
2992.0 0.0003342 2883.73267 3069.99512
3125.0 0.0003200 2883.34741 3073.87085
3046.0 0.0003283 2882.96191 3067.97754
2996.0 0.0003338 2882.57568 3052.74683
3009.0 0.0003323 2882.18970 3031.69214
3087.0 0.0003239 2881.80298 3008.91016
2976.0 0.0003360 2881.41602 2987.25757
2998.0 0.0003336 2881.02881 2968.22852
3021.0 0.0003310 2880.64136 2952.41260
2910.0 0.0003436 2880.25366 2939.77515
2942.0 0.0003399 2879.86572 2929.96533
2936.0 0.0003406 2879.47754 2922.46826
2904.0 0.0003444 2879.08911 2916.74487
2919.0 0.0003426 2878.70068 2912.31470
2936.0 0.0003406 2878.31201 2908.79736
2865.0 0.0003490 2877.92285 2905.91479
2836.0 0.000353 2877.53394 2903.48120
2931.0 0.0003412 2877.14478 2901.37134
3043.0 0.0003286 2876.75562 2899.50806
2974.0 0.0003362 2876.36646 2897.84082
2959.0 0.0003380 2875.97705 2896.33740
2888.0 0.0003463 2875.58789 2894.98560
2878.0 0.0003475 2875.19824 2893.75244
2949.0 0.0003391 2874.80908 2892.64038
2829.0 0.000353 2874.41968 2891.64893
2981.0 0.0003355 2874.03027 2890.78125
2845.0 0.000351 2873.64087 2890.04321
2846.0 0.000351 2873.25171 2889.44165
2838.0 0.000352 2872.86255 2888.98047
2940.0 0.0003401 2872.47339 2888.65283
2917.0 0.0003428 2872.08472 2888.43579
2884.0 0.0003467 2871.69580 2888.28296
2842.0 0.000352 2871.30713 2888.10840
2890.0 0.0003460 2870.91846 2887.83667
2888.0 0.0003463 2870.53027 2887.29614
2869.0 0.0003486 2870.14209 2886.52271
2842.0 0.000352 2869.75415 2885.60938
2885.0 0.0003466 2869.36646 2884.67480
2893.0 0.0003457 2868.97900 2883.81714
2886.0 0.0003465 2868.59180 2882.88501
2893.0 0.0003457 2868.20483 2882.35278
2865.0 0.0003490 2867.81836 2882.03174
2858.0 0.0003499 2867.43188 2881.94409
2867.0 0.0003488 2867.04614 2882.10742
2832.0 0.000353 2866.66040 2882.53320
2960.0 0.0003378 2866.27515 2883.21875
2865.0 0.0003490 2865.89014 2884.13867
2777.0 0.000360 2865.50562 2884.51709
2889.0 0.0003461 2865.12158 2885.67554
2858.0 0.0003499 2864.73779 2886.70874
2857.0 0.0003500 2864.35449 2887.45215
2930.0 0.0003413 2863.97144 2887.89282
2861.0 0.0003495 2863.58911 2888.23950
2841.0 0.000352 2863.20703 2888.84473
2995.0 0.0003339 2862.82568 2890.10742
2845.0 0.000351 2862.44482 2892.46313
2893.0 0.0003457 2862.06421 2896.41675
2837.0 0.000352 2861.68433 2902.56641
2828.0 0.000354 2861.30493 2911.57568
2958.0 0.0003381 2860.92603 2924.09277
2996.0 0.0003338 2860.54761 2940.60205
3009.0 0.0003323 2860.16992 2961.22339
2971.0 0.0003366 2859.79272 2985.42725
2909.0 0.0003438 2859.41626 3011.63110
2998.0 0.0003336 2859.04028 3036.65381
3067.0 0.0003261 2858.66479 3055.48779
3088.0 0.0003238 2858.29028 3062.65991
2990.0 0.0003344 2857.91602 3055.53882
3043.0 0.0003286 2857.54272 3036.50928
2957.0 0.0003382 2857.16992 3010.93237
2923.0 0.0003421 2856.79785 2983.91406
2905.0 0.0003442 2856.42651 2958.73022
2931.0 0.0003412 2856.05566 2937.02539
2914.0 0.0003432 2855.68579 2919.36133
2855.0 0.0003503 2855.31641 2905.64233
2907.0 0.0003440 2854.94775 2895.34644
2881.0 0.0003471 2854.57983 2887.90796
2744.0 0.000364 2854.21289 2882.50195
2942.0 0.0003399 2853.84644 2878.62061
2954.0 0.0003385 2853.48071 2875.80933
2781.0 0.000360 2853.11597 2873.74683
2865.0 0.0003490 2852.75195 2872.22095
2852.0 0.0003506 2852.38867 2871.10303
2854.0 0.0003504 2852.02612 2870.32520
2879.0 0.0003473 2851.66431 2869.86523
2954.0 0.0003385 2851.30347 2869.73755
2786.0 0.000359 2850.94336 2869.99658
2832.0 0.000353 2850.58374 2870.74512
2858.0 0.0003499 2850.22559 2872.14258
2791.0 0.000358 2849.86792 2874.41650
2859.0 0.0003498 2849.51074 2877.85913
2815.0 0.000355 2849.15503 2882.81494
2935.0 0.0003407 2848.79956 2889.64063
2940.0 0.0003401 2848.44531 2898.65039
2833.0 0.000353 2848.09180 2910.01221
2955.0 0.0003384 2847.73926 2923.59814
2895.0 0.0003454 2847.38745 2938.75366
2969.0 0.0003368 2847.03638 2954.08545
3041.0 0.0003288 2846.68628 2967.61816
3014.0 0.0003318 2846.33691 2977.57300
2971.0 0.0003366 2845.98853 2983.09644
2970.0 0.0003367 2845.64111 2983.85059
2952.0 0.0003388 2845.29443 2979.28076
2895.0 0.0003454 2844.94849 2969.14819
3027.0 0.0003304 2844.60376 2954.58228
2949.0 0.0003391 2844.25977 2937.86597
2964.0 0.0003374 2843.91650 2921.21167
2862.0 0.0003494 2843.57422 2906.10254
2910.0 0.0003436 2843.23267 2893.24121
2882.0 0.0003470 2842.89209 2882.79102
2925.0 0.0003419 2842.55225 2874.59717
2865.0 0.0003490 2842.21338 2868.34253
2797.0 0.000358 2841.87549 2863.64551
2839.0 0.000352 2841.53833 2859.13647
2857.0 0.0003500 2841.20215 2856.51685
2814.0 0.000355 2840.86646 2854.52026
2888.0 0.0003463 2840.53198 2852.96436
2877.0 0.0003476 2840.19824 2851.72632
2808.0 0.000356 2839.86548 2850.73218
2792.0 0.000358 2839.53320 2849.93579
2890.0 0.0003460 2839.20215 2849.32104
2906.0 0.0003441 2838.87183 2848.89307
2922.0 0.0003422 2838.54224 2848.67651
2969.0 0.0003368 2838.21338 2848.72241
2826.0 0.000354 2837.88550 2849.10596
2901.0 0.0003447 2837.55859 2849.92432
2854.0 0.0003504 2837.23218 2851.29053
2867.0 0.0003488 2836.90674 2853.31274
2773.0 0.000361 2836.58179 2856.07935
2795.0 0.000358 2836.25806 2859.60107
2847.0 0.000351 2835.93481 2863.77222
2883.0 0.0003469 2835.61255 2868.29541
2842.0 0.000352 2835.29102 2872.62793
2899.0 0.0003449 2834.96997 2875.89697
2957.0 0.0003382 2834.64990 2877.51709
3016.0 0.0003316 2834.33057 2876.81982
2858.0 0.0003499 2834.01196 2873.84009
2828.0 0.000354 2833.69385 2869.25342
2866.0 0.0003489 2833.37671 2864.03979
2794.0 0.000358 2833.06030 2858.86255
2886.0 0.0003465 2832.74438 2854.23218
2920.0 0.0003425 2832.42920 2850.36743
2867.0 0.0003488 2832.11450 2847.38892
2843.0 0.000352 2831.80078 2845.15820
2905.0 0.0003442 2831.48730 2843.66431
2892.0 0.0003458 2831.17480 2842.82886
2850.0 0.000351 2830.86279 2842.57617
2887.0 0.0003464 2830.55151 2842.84033
2871.0 0.0003483 2830.24072 2843.55664
2801.0 0.000357 2829.93042 2844.64673
2821.0 0.000354 2829.62061 2845.98755
2822.0 0.000354 2829.31152 2847.38696
2770.0 0.000361 2829.00293 2848.55957
2820.0 0.000355 2828.69482 2849.21387
2837.0 0.000352 2828.38721 2849.24097
2856.0 0.0003501 2828.08008 2848.85449
2901.0 0.0003447 2827.77344 2848.48999
2777.0 0.000360 2827.46729 2848.60254
2851.0 0.000351 2827.16138 2849.54053
2808.0 0.000356 2826.85620 2851.53149
2945.0 0.0003396 2826.55103 2854.66211
2884.0 0.0003467 2826.24658 2858.85425
2920.0 0.0003425 2825.94238 2863.80615
2856.0 0.0003501 2825.63843 2868.89526
2847.0 0.000351 2825.33496 2873.11475
2883.0 0.0003469 2825.03174 2875.25317
2782.0 0.000359 2824.72900 2874.51245
2829.0 0.000353 2824.42627 2871.06714
2865.0 0.0003490 2824.12402 2865.90063
2787.0 0.000359 2823.82178 2860.10327
2787.0 0.000359 2823.51978 2854.41895
2807.0 0.000356 2823.21826 2849.21436
2752.0 0.000363 2822.91675 2844.64551
2762.0 0.000362 2822.61523 2840.72803
2914.0 0.0003432 2822.31396 2837.48560
2849.0 0.000351 2822.01294 2834.88013
2785.0 0.000359 2821.71167 2832.83105
2830.0 0.000353 2821.41089 2831.23779
2899.0 0.0003449 2821.10986 2830.66357
2968.0 0.0003369 2820.80908 2829.71802
2888.0 0.0003463 2820.50830 2828.98779
2877.0 0.0003476 2820.20728 2828.42603
2817.0 0.000355 2819.90649 2827.99585
2780.0 0.000360 2819.60547 2827.68604
2805.0 0.000357 2819.30420 2827.48315
2796.0 0.000358 2819.00317 2827.38330
2760.0 0.000362 2818.70190 2827.39624
2854.0 0.0003504 2818.40039 2827.54199
2865.0 0.0003490 2818.09863 2827.85425
2801.0 0.000357 2817.79688 2828.38306
2792.0 0.000358 2817.49487 2829.19824
2828.0 0.000354 2817.19263 2830.38989
2882.0 0.0003470 2816.88989 2832.06177
2877.0 0.0003476 2816.58716 2834.32837
2872.0 0.0003482 2816.28369 2837.30469
2848.0 0.000351 2815.98022 2841.10010
2803.0 0.000357 2815.67651 2845.75854
2856.0 0.0003501 2815.37207 2851.27710
2980.0 0.0003356 2815.06738 2857.34790
2802.0 0.000357 2814.76221 2863.99268
2926.0 0.0003418 2814.45654 2870.75903
2935.0 0.0003407 2814.15015 2877.66235
2938.0 0.0003404 2813.84375 2885.12012
2892.0 0.0003458 2813.53638 2893.58057
2936.0 0.0003406 2813.22852 2903.01685
2921.0 0.0003423 2812.92017 2912.61572
2937.0 0.0003405 2812.61108 2920.73975
2903.0 0.0003445 2812.30127 2925.22803
2913.0 0.0003433 2811.99097 2924.19214
2898.0 0.0003451 2811.67993 2917.15552
2915.0 0.0003431 2811.36792 2905.50317
2856.0 0.0003501 2811.05542 2891.59033
2885.0 0.0003466 2810.74194 2877.52319
2862.0 0.0003494 2810.42773 2864.60205
2948.0 0.0003392 2810.11279 2853.48706
2913.0 0.0003433 2809.79663 2844.37036
2843.0 0.000352 2809.47998 2837.16919
2842.0 0.000352 2809.16211 2831.64331
2815.0 0.000355 2808.84351 2827.47998
2778.0 0.000360 2808.52368 2824.36646
2808.0 0.000356 2808.20288 2822.02612
2777.0 0.000360 2807.88135 2820.23706
2731.0 0.000366 2807.55835 2818.83716
2867.0 0.0003488 2807.23462 2817.71899
2807.0 0.000356 2806.90942 2816.81274
2907.0 0.0003440 2806.58325 2816.08569
2901.0 0.0003447 2806.25610 2815.52075
2894.0 0.0003455 2805.92749 2815.12280
2892.0 0.0003458 2805.59766 2814.90308
2821.0 0.000354 2805.26660 2814.88086
2803.0 0.000357 2804.93457 2815.01465
2807.0 0.000356 2804.60083 2815.41992
2794.0 0.000358 2804.26587 2816.02417
2844.0 0.000352 2803.92944 2816.77588
2888.0 0.0003463 2803.59180 2817.49780
2795.0 0.000358 2803.25269 2818.14624
2834.0 0.000353 2802.91211 2818.41431
2836.0 0.000353 2802.57007 2818.11621
2822.0 0.000354 2802.22656 2817.23193
2766.0 0.000362 2801.88159 2815.93384
2886.0 0.0003465 2801.53491 2814.45654
2878.0 0.0003475 2801.18677 2812.98901
2855.0 0.0003503 2800.83691 2811.64917
2762.0 0.000362 2800.48560 2810.49048
2814.0 0.000355 2800.13257 2809.53101
2843.0 0.000352 2799.77783 2809.27295
2822.0 0.000354 2799.42139 2808.68970
2852.0 0.0003506 2799.06299 2808.25732
2821.0 0.000354 2798.70313 2807.95117
2800.0 0.000357 2798.34131 2807.78638
2751.0 0.000364 2797.97778 2807.67969
2911.0 0.0003435 2797.61230 2807.66284
2761.0 0.000362 2797.24512 2807.72925
2816.0 0.000355 2796.87598 2807.89063
2838.0 0.000352 2796.50488 2808.16504
2748.0 0.000364 2796.13208 2808.58203
2817.0 0.000355 2795.75684 2809.18823
2780.0 0.000360 2795.38013 2810.05566
2864.0 0.0003492 2795.00098 2811.28369
2832.0 0.000353 2794.62012 2813.02026
2795.0 0.000358 2794.23706 2815.44531
2828.0 0.000354 2793.85205 2818.78540
2822.0 0.000354 2793.46460 2823.28833
2796.0 0.000358 2793.07544 2829.19775
2893.0 0.0003457 2792.68408 2836.70996
2855.0 0.0003503 2792.29028 2845.89160
2786.0 0.000359 2791.89429 2856.60840
2803.0 0.000357 2791.49634 2868.29688
2873.0 0.0003481 2791.09595 2879.97266
2885.0 0.0003466 2790.69336 2890.19556
2859.0 0.0003498 2790.28857 2897.71313
2976.0 0.0003360 2789.88159 2901.92700
2954.0 0.0003385 2789.47192 2902.68994
2847.0 0.000351 2789.06030 2899.75830
2802.0 0.000357 2788.64600 2892.96704
2912.0 0.0003434 2788.22949 2882.92090
2841.0 0.000352 2787.81030 2871.08203
2828.0 0.000354 2787.38916 2859.05737
2922.0 0.0003422 2786.96509 2848.88354
2781.0 0.000360 2786.53882 2839.42017
2904.0 0.0003444 2786.11035 2831.73267
2821.0 0.000354 2785.67896 2825.77393
2738.0 0.000365 2785.24536 2821.36768
2797.0 0.000358 2784.80884 2818.27783
2844.0 0.000352 2784.37012 2816.26270
2860.0 0.0003497 2783.92871 2815.09180
2875.0 0.0003478 2783.48462 2814.61499
2799.0 0.000357 2783.03809 2814.69507
2818.0 0.000355 2782.58887 2815.25610
2792.0 0.000358 2782.13721 2816.26196
2775.0 0.000360 2781.68262 2817.71509
2783.0 0.000359 2781.22559 2819.65234
2793.0 0.000358 2780.76587 2822.14771
2856.0 0.0003501 2780.30347 2825.32422
2834.0 0.000353 2779.83813 2829.37427
2846.0 0.000351 2779.37036 2834.58594
2809.0 0.000356 2778.89990 2841.44214
2749.0 0.000364 2778.42651 2850.40503
2902.0 0.0003446 2777.95044 2862.48291
2911.0 0.0003435 2777.47168 2878.81250
2975.0 0.0003361 2776.99023 2900.89185
2949.0 0.0003391 2776.50562 2930.45020
2929.0 0.0003414 2776.01855 2969.26123
3057.0 0.0003271 2775.52856 3018.81128
3173.0 0.0003152 2775.03589 3079.95459
3183.0 0.0003142 2774.54053 3152.52563
3328.0 0.0003005 2774.04199 3234.75244
3337.0 0.0002997 2773.54077 3322.04907
3329.0 0.0003004 2773.03662 3405.32202
3324.0 0.0003008 2772.52979 3470.21753
3385.0 0.0002954 2772.02002 3500.37866
3413.0 0.0002930 2771.50732 3486.02515
3508.0 0.0002851 2770.99170 3431.04761
3299.0 0.0003031 2770.47363 3350.10791
3208.0 0.0003117 2769.95239 3259.46533
3202.0 0.0003123 2769.42822 3171.05127
3168.0 0.0003157 2768.90112 3091.71851
3052.0 0.0003277 2768.37109 3024.57397
2936.0 0.0003406 2767.83862 2970.30591
2970.0 0.0003367 2767.30273 2928.11230
2859.0 0.0003498 2766.76416 2896.34985
2834.0 0.000353 2766.22290 2873.03247
2890.0 0.0003460 2765.67847 2856.18774
2839.0 0.000352 2765.13110 2844.07446
2849.0 0.000351 2764.58105 2835.25586
2851.0 0.000351 2764.02808 2828.58765
2803.0 0.000357 2763.47192 2823.16846
2784.0 0.000359 2762.91309 2818.34302
2830.0 0.000353 2762.35132 2813.74561
2868.0 0.0003487 2761.78662 2809.30615
2876.0 0.0003477 2761.21924 2805.48755
2731.0 0.000366 2760.64868 2801.68262
2768.0 0.000361 2760.07544 2798.32275
2846.0 0.000351 2759.49902 2795.49927
2797.0 0.000358 2758.92017 2793.21631
2812.0 0.000356 2758.33813 2791.47998
2781.0 0.000360 2757.75342 2790.28589
2769.0 0.000361 2757.16553 2789.61426
2801.0 0.000357 2756.57520 2789.41064
2798.0 0.000357 2755.98193 2789.63721
2693.0 0.000371 2755.38550 2790.08179
2731.0 0.000366 2754.78662 2790.70752
2862.0 0.0003494 2754.18457 2791.15234
2789.0 0.000359 2753.57983 2791.09033
2777.0 0.000360 2752.97217 2790.29956
2817.0 0.000355 2752.36206 2788.81396
2794.0 0.000358 2751.74902 2786.88745
2733.0 0.000366 2751.13306 2784.83252
2887.0 0.0003464 2750.51465 2782.89526
2860.0 0.0003497 2749.89307 2781.22559
2721.0 0.000368 2749.26904 2779.89966
2804.0 0.000357 2748.64209 2778.95020
2731.0 0.000366 2748.01270 2778.37622
2724.0 0.000367 2747.38013 2778.16870
2833.0 0.000353 2746.74536 2778.31079
2696.0 0.000371 2746.10791 2778.79248
2676.0 0.000374 2745.46753 2779.61279
2812.0 0.000356 2744.82446 2780.79028
2823.0 0.000354 2744.17896 2782.36377
2900.0 0.0003448 2743.53076 2784.40405
2786.0 0.000359 2742.87988 2787.02686
2792.0 0.000358 2742.22681 2790.41284
2762.0 0.000362 2741.57080 2794.84448
2768.0 0.000361 2740.91235 2800.74634
2704.0 0.000370 2740.25146 2808.73413
2803.0 0.000357 2739.58789 2819.66187
2887.0 0.0003464 2738.92212 2834.63721
2830.0 0.000353 2738.25342 2854.97876
2817.0 0.000355 2737.58276 2882.10669
2845.0 0.000351 2736.90942 2917.36230
2981.0 0.0003355 2736.23364 2961.67114
2839.0 0.000352 2735.55591 3015.18213
3062.0 0.0003266 2734.87524 3076.73340
3163.0 0.0003162 2734.19263 3143.08374
3179.0 0.0003146 2733.50732 3207.91968
3251.0 0.0003076 2732.82007 3261.35889
3430.0 0.0002915 2732.13037 3291.87109
3458.0 0.0002892 2731.43848 3291.71875
3387.0 0.0002952 2730.74414 3262.01904
3362.0 0.0002974 2730.04810 3211.54541
3166.0 0.0003159 2729.34985 3150.86084
3204.0 0.0003121 2728.64893 3088.19995
3014.0 0.0003318 2727.94653 3028.90430
2969.0 0.0003368 2727.24146 2976.17065
3008.0 0.0003324 2726.53467 2931.60669
2952.0 0.0003388 2725.82568 2895.57983
2860.0 0.0003497 2725.11475 2867.57104
2848.0 0.000351 2724.40186 2846.54688
2766.0 0.000362 2723.68701 2831.28809
2854.0 0.0003504 2722.97046 2820.61523
2910.0 0.0003436 2722.25146 2813.53101
2747.0 0.000364 2721.53101 2809.27417
2789.0 0.000359 2720.80859 2807.33472
2786.0 0.000359 2720.08447 2807.44385
2755.0 0.000363 2719.35840 2809.57275
2846.0 0.000351 2718.63086 2813.95288
2888.0 0.0003463 2717.90137 2821.10864
2810.0 0.000356 2717.17017 2831.91748
2847.0 0.000351 2716.43750 2847.66333
2789.0 0.000359 2715.70288 2870.05298
2851.0 0.000351 2714.96704 2901.15820
2885.0 0.0003466 2714.22925 2943.18506
2936.0 0.0003406 2713.49023 2998.35254
3064.0 0.0003264 2712.74951 3068.12842
3091.0 0.0003235 2712.00757 3152.81958
3233.0 0.0003093 2711.26440 3250.65845
3327.0 0.0003006 2710.51929 3356.87134
3313.0 0.0003018 2709.77319 3461.77271
3538.0 0.0002826 2709.02539 3549.89819
3617.0 0.0002765 2708.27661 3602.30371
3522.0 0.0002839 2707.52637 3603.96973
3514.0 0.0002846 2706.77515 3554.19727
3441.0 0.0002906 2706.02246 3466.58521
3347.0 0.0002988 2705.26904 3360.23291
3213.0 0.0003112 2704.51416 3251.16553
3180.0 0.0003145 2703.75830 3149.59229
2953.0 0.0003386 2703.00146 3060.81616
2903.0 0.0003445 2702.24316 2986.80981
2868.0 0.0003487 2701.48438 2927.42139
2986.0 0.0003349 2700.72437 2881.21143
2880.0 0.0003472 2699.96362 2846.07593
2923.0 0.0003421 2699.20215 2819.72607
2865.0 0.0003490 2698.43945 2800.02100
2784.0 0.000359 2697.67627 2785.15869
2807.0 0.000356 2696.91211 2773.74097
2727.0 0.000367 2696.14746 2764.74780
2758.0 0.000363 2695.38184 2757.47583
2738.0 0.000365 2694.61572 2751.45459
2791.0 0.000358 2693.84888 2746.37549
2659.0 0.000376 2693.08154 2742.04321
2802.0 0.000357 2692.31396 2738.32788
2768.0 0.000361 2691.54517 2735.15454
2717.0 0.000368 2690.77661 2732.48071
2684.0 0.000373 2690.00708 2730.30273
2807.0 0.000356 2689.23755 2728.64990
2815.0 0.000355 2688.46729 2727.59155
2784.0 0.000359 2687.69702 2727.21826
2752.0 0.000363 2686.92627 2727.70801
2799.0 0.000357 2686.15552 2729.20752
2703.0 0.000370 2685.38452 2731.88306
2709.0 0.000369 2684.61304 2735.86597
2732.0 0.000366 2683.84180 2741.20532
2787.0 0.000359 2683.07007 2747.14575
2786.0 0.000359 2682.29858 2754.71899
2835.0 0.000353 2681.52686 2762.56689
2749.0 0.000364 2680.75537 2769.57861
2767.0 0.000361 2679.98413 2774.22729
2784.0 0.000359 2679.21240 2775.07397
2769.0 0.000361 2678.44116 2771.58008
2710.0 0.000369 2677.66992 2764.48853
2683.0 0.000373 2676.89893 2755.30908
2671.0 0.000374 2676.12793 2745.51904
2796.0 0.000358 2675.35767 2736.15649
2605.0 0.000384 2674.58740 2727.81128
2749.0 0.000364 2673.81763 2720.75537
2761.0 0.000362 2673.04834 2715.04980
2652.0 0.000377 2672.27905 2710.62891
2777.0 0.000360 2671.51050 2707.35400
2678.0 0.000373 2670.74219 2705.05640
2710.0 0.000369 2669.97485 2703.56836
2714.0 0.000368 2669.20752 2702.95410
2623.0 0.000381 2668.44116 2702.75806
2705.0 0.000370 2667.67505 2703.11646
2691.0 0.000372 2666.90991 2704.03955
2762.0 0.000362 2666.14551 2705.59961
2674.0 0.000374 2665.38159 2707.94946
2743.0 0.000365 2664.61865 2711.34155
2672.0 0.000374 2663.85620 2716.16113
2716.0 0.000368 2663.09497 2722.96484
2809.0 0.000356 2662.33423 2732.49927
2731.0 0.000366 2661.57471 2745.70142
2730.0 0.000366 2660.81592 2763.64990
2718.0 0.000368 2660.05786 2787.45630
2776.0 0.000360 2659.30127 2818.08960
2865.0 0.0003490 2658.54517 2856.13281
2958.0 0.0003381 2657.79053 2901.45874
2882.0 0.0003470 2657.03687 2952.85791
2970.0 0.0003367 2656.28418 3007.35059
3054.0 0.0003274 2655.53271 3059.48022
3011.0 0.0003321 2654.78247 3101.04053
3122.0 0.0003203 2654.03345 3122.65308
3070.0 0.0003257 2653.28540 3118.19141
3107.0 0.0003219 2652.53906 3088.70801
3029.0 0.0003301 2651.79346 3041.69629
2950.0 0.0003390 2651.04956 2986.52246
2967.0 0.0003370 2650.30688 2930.70679
2873.0 0.0003481 2649.56567 2878.95703
2880.0 0.0003472 2648.82568 2833.69214
2883.0 0.0003469 2648.08716 2795.79688
2757.0 0.000363 2647.35034 2765.16724
2803.0 0.000357 2646.61450 2741.09912
2761.0 0.000362 2645.88062 2722.57129
2565.0 0.000390 2645.14795 2708.46851
2743.0 0.000365 2644.41724 2697.73999
2668.0 0.000375 2643.68750 2689.49243
2659.0 0.000376 2642.95996 2683.02319
2655.0 0.000377 2642.23389 2677.81348
2649.0 0.000378 2641.50928 2673.49634
2612.0 0.000383 2640.78638 2669.82471
2654.0 0.000377 2640.06519 2666.63086
2649.0 0.000378 2639.34595 2663.80444
2671.0 0.000374 2638.62793 2661.26807
2592.0 0.000386 2637.91211 2658.96924
2683.0 0.000373 2637.19775 2656.86621
2736.0 0.000365 2636.48560 2654.92993
2753.0 0.000363 2635.77515 2653.13623
2714.0 0.000368 2635.06616 2651.46436
2643.0 0.000378 2634.35962 2649.89990
2624.0 0.000381 2633.65430 2647.92529
2634.0 0.000380 2632.95142 2646.54468
2748.0 0.000364 2632.25000 2645.23657
2590.0 0.000386 2631.55078 2644.02539
2686.0 0.000372 2630.85327 2642.80615
2630.0 0.000380 2630.15820 2641.67627
2653.0 0.000377 2629.46484 2640.58984
2572.0 0.000389 2628.77319 2639.55176
2735.0 0.000366 2628.08398 2638.55762
2709.0 0.000369 2627.39648 2637.59814
2640.0 0.000379 2626.71118 2636.67603
2695.0 0.000371 2626.02759 2635.78442
2689.0 0.000372 2625.34668 2634.92505
2724.0 0.000367 2624.66748 2634.09741
2630.0 0.000380 2623.99023 2633.29810
2620.0 0.000382 2623.31519 2632.52832
2624.0 0.000381 2622.64209 2631.78662
2617.0 0.000382 2621.97144 2631.07422
2593.0 0.000386 2621.30249 2630.39038
2643.0 0.000378 2620.63599 2629.73584
2594.0 0.000386 2619.97144 2629.11157
2557.0 0.000391 2619.30908 2628.51953
2624.0 0.000381 2618.64917 2627.96069
2613.0 0.000383 2617.99097 2627.43701
2694.0 0.000371 2617.33521 2626.95215
2657.0 0.000376 2616.68140 2626.53418
2622.0 0.000381 2616.03003 2626.13721
2618.0 0.000382 2615.38037 2625.79053
2642.0 0.000379 2614.73340 2625.50122
2597.0 0.000385 2614.08813 2625.27563
2674.0 0.000374 2613.44556 2625.12476
2602.0 0.000384 2612.80493 2625.05933
2679.0 0.000373 2612.16650 2625.09448
2683.0 0.000373 2611.53027 2624.37305
2651.0 0.000377 2610.89600 2624.69653
2603.0 0.000384 2610.26416 2625.21411
2596.0 0.000385 2609.63452 2625.99316
2628.0 0.000381 2609.00708 2627.12769
2630.0 0.000380 2608.38184 2628.75659
2617.0 0.000382 2607.75854 2631.07715
2575.0 0.000388 2607.13770 2634.35767
2724.0 0.000367 2606.51880 2638.93701
2655.0 0.000377 2605.90234 2645.22388
2598.0 0.000385 2605.28784 2653.64819
2605.0 0.000384 2604.67554 2664.62891
2741.0 0.000365 2604.06543 2678.48096
2807.0 0.000356 2603.45752 2695.32007
2728.0 0.000367 2602.85205 2714.92236
2782.0 0.000359 2602.24805 2736.54224
2787.0 0.000359 2601.64673 2758.64990
2832.0 0.000353 2601.04736 2778.67139
2753.0 0.000363 2600.45020 2793.08521
2823.0 0.000354 2599.85498 2798.43555
2842.0 0.000352 2599.26196 2793.12305
2818.0 0.000355 2598.67090 2778.45190
2775.0 0.000360 2598.08228 2757.76880
2771.0 0.000361 2597.49561 2734.65601
2828.0 0.000354 2596.91064 2711.80811
2749.0 0.000364 2596.32813 2690.85913
2700.0 0.000370 2595.74731 2672.62598
2557.0 0.000391 2595.16895 2657.37988
2636.0 0.000379 2594.59229 2645.04297
2702.0 0.000370 2594.01782 2635.30737
2609.0 0.000383 2593.44531 2627.77271
2656.0 0.000377 2592.87451 2622.00000
2613.0 0.000383 2592.30591 2617.58569
2678.0 0.000373 2591.73926 2614.18384
2607.0 0.000384 2591.17456 2611.52417
2593.0 0.000386 2590.61157 2609.41040
2603.0 0.000384 2590.05078 2607.70508
2627.0 0.000381 2589.49146 2606.31934
2583.0 0.000387 2588.93433 2605.20166
2612.0 0.000383 2588.37915 2604.32422
2618.0 0.000382 2587.82544 2603.67432
2633.0 0.000380 2587.27393 2603.26123
2627.0 0.000381 2586.72363 2603.08398
2530.0 0.000395 2586.17578 2603.37939
2617.0 0.000382 2585.62915 2603.72046
2619.0 0.000382 2585.08447 2604.32178
2572.0 0.000389 2584.54150 2605.16699
2612.0 0.000383 2584.00024 2606.23438
2585.0 0.000387 2583.46094 2607.49927
2601.0 0.000384 2582.92285 2608.92725
2660.0 0.000376 2582.38647 2610.43457
2586.0 0.000387 2581.85181 2611.86938
2643.0 0.000378 2581.31860 2613.02197
2703.0 0.000370 2580.78711 2613.72632
2597.0 0.000385 2580.25708 2613.99658
2570.0 0.000389 2579.72876 2614.08472
2613.0 0.000383 2579.20166 2614.40601
2613.0 0.000383 2578.67627 2615.37207
2598.0 0.000385 2578.15210 2617.56982
2646.0 0.000378 2577.62939 2621.41040
2628.0 0.000381 2577.10815 2627.36646
2611.0 0.000383 2576.58838 2635.89575
2575.0 0.000388 2576.06958 2647.39502
2610.0 0.000383 2575.55249 2662.12305
2649.0 0.000378 2575.03662 2680.10181
2585.0 0.000387 2574.52197 2700.98022
2640.0 0.000379 2574.00854 2723.83691
2640.0 0.000379 2573.49634 2746.91187
2754.0 0.000363 2572.98560 2767.37158
2715.0 0.000368 2572.47559 2781.51270
2786.0 0.000359 2571.96704 2785.92529
2753.0 0.000363 2571.45947 2779.27930
2842.0 0.000352 2570.95313 2763.19385
2808.0 0.000356 2570.44775 2741.18896
2737.0 0.000365 2569.94336 2716.90527
2738.0 0.000365 2569.44019 2693.05713
2670.0 0.000375 2568.93750 2671.29834
2607.0 0.000384 2568.43628 2652.47754
2638.0 0.000379 2567.93579 2636.90283
2661.0 0.000376 2567.43628 2624.53394
2548.0 0.000392 2566.93774 2615.11035
2519.0 0.000397 2566.43970 2608.25952
2522.0 0.000397 2565.94263 2603.56177
2581.0 0.000387 2565.44629 2600.60156
2625.0 0.000381 2564.95093 2598.98633
2468.0 0.000405 2564.45605 2598.34009
2466.0 0.000406 2563.96191 2598.27539
2546.0 0.000393 2563.46851 2598.36279
2621.0 0.000382 2562.97583 2598.13477
2560.0 0.000391 2562.48364 2597.17944
2626.0 0.000381 2561.99219 2594.93726
2616.0 0.000382 2561.50122 2592.23779
2647.0 0.000378 2561.01074 2588.99780
2546.0 0.000393 2560.52075 2585.55078
2566.0 0.000390 2560.03125 2582.16187
2568.0 0.000389 2559.54224 2579.00562
2537.0 0.000394 2559.05347 2576.17578
2554.0 0.000392 2558.56519 2573.70972
2579.0 0.000388 2558.07739 2571.60425
2636.0 0.000379 2557.58984 2569.83154
2621.0 0.000382 2557.10254 2568.34985
2553.0 0.000392 2556.61548 2567.11743
2557.0 0.000391 2556.12891 2566.09082
2661.0 0.000376 2555.64209 2565.23633
2629.0 0.000380 2555.15601 2564.53174
2584.0 0.000387 2554.66992 2563.96240
2598.0 0.000385 2554.18359 2563.53149
2604.0 0.000384 2553.69775 2563.25269
2656.0 0.000377 2553.21191 2563.15698
2614.0 0.000383 2552.72607 2563.28711
2578.0 0.000388 2552.24023 2563.70288
2454.0 0.000407 2551.75439 2564.47461
2494.0 0.000401 2551.26855 2565.67798
2575.0 0.000388 2550.78271 2567.38208
2553.0 0.000392 2550.29663 2569.64038
2491.0 0.000401 2549.81055 2572.46802
2600.0 0.000385 2549.32422 2575.82300
2596.0 0.000385 2548.83765 2579.57153
2601.0 0.000384 2548.35132 2583.44336
2597.0 0.000385 2547.86426 2587.04028
2639.0 0.000379 2547.37720 2589.66797
2554.0 0.000392 2546.88989 2590.79736
2593.0 0.000386 2546.40234 2590.14990
2651.0 0.000377 2545.91431 2587.89893
2550.0 0.000392 2545.42603 2584.53149
2604.0 0.000384 2544.93726 2580.57227
2555.0 0.000391 2544.44800 2576.42456
2610.0 0.000383 2543.95850 2572.36499
2534.0 0.000395 2543.46851 2568.58643
2557.0 0.000391 2542.97803 2565.23657
2518.0 0.000397 2542.48706 2562.42920
2556.0 0.000391 2541.99561 2560.23926
2516.0 0.000397 2541.50366 2558.74829
2530.0 0.000395 2541.01099 2557.89551
2575.0 0.000388 2540.51782 2557.71729
2514.0 0.000398 2540.02393 2558.19873
2553.0 0.000392 2539.52954 2559.29980
2604.0 0.000384 2539.03442 2560.95313
2663.0 0.000376 2538.53882 2563.04175
2499.0 0.000400 2538.04224 2565.36450
2470.0 0.000405 2537.54492 2567.60547
2587.0 0.000387 2537.04712 2569.62378
2583.0 0.000387 2536.54834 2570.33765
2556.0 0.000391 2536.04883 2569.70581
2619.0 0.000382 2535.54834 2567.72852
2582.0 0.000387 2535.04736 2564.73950
2635.0 0.000380 2534.54517 2561.21387
2538.0 0.000394 2534.04248 2557.57397
2596.0 0.000385 2533.53882 2554.10840
2641.0 0.000379 2533.03418 2550.98853
2608.0 0.000383 2532.52856 2548.29517
2651.0 0.000377 2532.02197 2546.05298
2555.0 0.000391 2531.51465 2544.24634
2596.0 0.000385 2531.00610 2542.83643
2517.0 0.000397 2530.49658 2541.76538
2544.0 0.000393 2529.98633 2540.97339
2522.0 0.000397 2529.47461 2540.38989
2492.0 0.000401 2528.96216 2539.94360
2500.0 0.000400 2528.44873 2539.55664
2543.0 0.000393 2527.93408 2539.15234
2578.0 0.000388 2527.41821 2538.67041
2480.0 0.000403 2526.90137 2538.09424
2541.0 0.000394 2526.38330 2537.44922
2483.0 0.000403 2525.86426 2536.78369
2585.0 0.000387 2525.34424 2536.14819
2466.0 0.000406 2524.82251 2535.58228
2509.0 0.000399 2524.30005 2535.11328
2562.0 0.000390 2523.77612 2534.76221
2522.0 0.000397 2523.25122 2534.54248
2563.0 0.000390 2522.72510 2534.46826
2528.0 0.000396 2522.19775 2534.39600
2624.0 0.000381 2521.66895 2534.64893
2515.0 0.000398 2521.13916 2535.08057
2529.0 0.000395 2520.60791 2535.70386
2638.0 0.000379 2520.07544 2536.52808
2598.0 0.000385 2519.54175 2537.56470
2497.0 0.000400 2519.00659 2538.82227
2588.0 0.000386 2518.47046 2540.31494
2505.0 0.000399 2517.93262 2542.06982
2525.0 0.000396 2517.39380 2544.16138
2458.0 0.000407 2516.85376 2546.75830
2543.0 0.000393 2516.31201 2550.14429
2636.0 0.000379 2515.76929 2554.71606
2555.0 0.000391 2515.22485 2560.93994
2581.0 0.000387 2514.67920 2569.31372
2504.0 0.000399 2514.13208 2580.31763
2548.0 0.000392 2513.58374 2594.35645
2517.0 0.000397 2513.03394 2611.67871
2644.0 0.000378 2512.48291 2632.27368
2678.0 0.000373 2511.93042 2655.73120
2602.0 0.000384 2511.37646 2681.04639
2689.0 0.000372 2510.82104 2706.37305
2716.0 0.000368 2510.26440 2728.82520
2634.0 0.000380 2509.70630 2744.69897
2748.0 0.000364 2509.14673 2750.55347
2771.0 0.000361 2508.58594 2744.74048
2780.0 0.000360 2508.02344 2728.55347
2730.0 0.000366 2507.45972 2705.34058
2743.0 0.000365 2506.89453 2678.86646
2659.0 0.000376 2506.32788 2652.12280
2675.0 0.000374 2505.75977 2627.05103
2611.0 0.000383 2505.19019 2604.71558
2550.0 0.000392 2504.61938 2585.57129
2622.0 0.000381 2504.04688 2569.65234
2557.0 0.000391 2503.47314 2556.76270
2501.0 0.000400 2502.89819 2546.51538
2476.0 0.000404 2502.32129 2538.46680
2538.0 0.000394 2501.74341 2532.17017
2638.0 0.000379 2501.16382 2527.21924
2503.0 0.000400 2500.58301 2523.27490
2532.0 0.000395 2500.00049 2520.06665
2462.0 0.000406 2499.41675 2517.39453
2547.0 0.000393 2498.83154 2515.25928
2464.0 0.000406 2498.24487 2513.26563
2486.0 0.000402 2497.65698 2511.49268
2516.0 0.000397 2497.06738 2509.88525
2472.0 0.000405 2496.47656 2508.41284
2442.0 0.000410 2495.88428 2507.04980
2473.0 0.000404 2495.29053 2505.77881
2597.0 0.000385 2494.69556 2504.58545
2555.0 0.000391 2494.09912 2503.45825
2505.0 0.000399 2493.50122 2502.21094
2509.0 0.000399 2492.90210 2501.19409
2539.0 0.000394 2492.30151 2500.22119
2522.0 0.000397 2491.69946 2499.28638
2512.0 0.000398 2491.09619 2498.38623
2515.0 0.000398 2490.49121 2497.51489
2564.0 0.000390 2489.88525 2496.67163
2554.0 0.000392 2489.27759 2495.85205
2506.0 0.000399 2488.66919 2495.05469
2515.0 0.000398 2488.05908 2494.27563
2482.0 0.000403 2487.44751 2493.51465
2422.0 0.000413 2486.83496 2492.77002
2437.0 0.000410 2486.22070 2492.04053
2521.0 0.000397 2485.60547 2491.32422
2482.0 0.000403 2484.98877 2490.62085
2470.0 0.000405 2484.37085 2489.92871
2479.0 0.000403 2483.75171 2489.24854
2500.0 0.000400 2483.13135 2488.57886
2412.0 0.000415 2482.50977 2487.90112
2398.0 0.000417 2481.88672 2487.25098
2446.0 0.000409 2481.26245 2486.60938
2480.0 0.000403 2480.63696 2485.97485
2429.0 0.000412 2480.01050 2485.35205
2508.0 0.000399 2479.38281 2484.73682
2523.0 0.000396 2478.75391 2484.13013
2431.0 0.000411 2478.12354 2483.53198
2545.0 0.000393 2477.49243 2482.94238
2500.0 0.000400 2476.86011 2482.36157
2601.0 0.000384 2476.22656 2481.78955
2560.0 0.000391 2475.59180 2481.22754
2539.0 0.000394 2474.95605 2480.67383
2555.0 0.000391 2474.31934 2480.29346
2473.0 0.000404 2473.68115 2479.76343
2510.0 0.000398 2473.04224 2479.24463
2456.0 0.000407 2472.40234 2478.73804
2456.0 0.000407 2471.76123 2478.24390
2436.0 0.000411 2471.11938 2477.76221
2590.0 0.000386 2470.47607 2477.29639
2566.0 0.000390 2469.83228 2476.84570
2587.0 0.000387 2469.18701 2476.41382
2466.0 0.000406 2468.54126 2476.00073
2448.0 0.000408 2467.89429 2475.60840
2423.0 0.000413 2467.24658 2475.24048
2485.0 0.000402 2466.59814 2474.89795
2401.0 0.000416 2465.94824 2474.58301
2459.0 0.000407 2465.29810 2474.30322
2546.0 0.000393 2464.64673 2474.05933
2502.0 0.000400 2463.99487 2473.85913
2538.0 0.000394 2463.34180 2473.70801
2487.0 0.000402 2462.68848 2473.61597
2406.0 0.000416 2462.03394 2473.59546
2368.0 0.000422 2461.37891 2473.63184
2467.0 0.000405 2460.72314 2473.81152
2514.0 0.000398 2460.06665 2474.13892
2464.0 0.000406 2459.40942 2474.65674
2445.0 0.000409 2458.75146 2475.42358
2499.0 0.000400 2458.09326 2476.52393
2460.0 0.000407 2457.43408 2478.04712
2536.0 0.000394 2456.77441 2480.10645
2528.0 0.000396 2456.11450 2482.81323
2507.0 0.000399 2455.45361 2486.27856
2509.0 0.000399 2454.79224 2490.59106
2548.0 0.000392 2454.13062 2495.79590
2603.0 0.000384 2453.46851 2501.87451
2524.0 0.000396 2452.80566 2508.70068
2523.0 0.000396 2452.14282 2515.99927
2523.0 0.000396 2451.47925 2523.28174
2480.0 0.000403 2450.81543 2529.82642
2449.0 0.000408 2450.15137 2534.77954
2542.0 0.000393 2449.48682 2537.46558
2520.0 0.000397 2448.82227 2537.76636
2498.0 0.000400 2448.15698 2536.25562
2453.0 0.000408 2447.49194 2533.92603
2522.0 0.000397 2446.82642 2531.90112
2391.0 0.000418 2446.16089 2531.05493
2482.0 0.000403 2445.49487 2532.06348
2505.0 0.000399 2444.82910 2535.42676
2487.0 0.000402 2444.16333 2541.51709
2544.0 0.000393 2443.49707 2550.58960
2542.0 0.000393 2442.83105 2562.76514
2588.0 0.000386 2442.16479 2577.99609
2573.0 0.000389 2441.49878 2596.09058
2658.0 0.000376 2440.83276 2616.85229
2550.0 0.000392 2440.16699 2640.28979
2642.0 0.000379 2439.50122 2666.65698
2592.0 0.000386 2438.83545 2696.16333
2649.0 0.000378 2438.16992 2728.46069
2677.0 0.000374 2437.50439 2762.10840
2795.0 0.000358 2436.83960 2794.14551
2767.0 0.000361 2436.17456 2820.00781
2843.0 0.000352 2435.51025 2834.38184
2882.0 0.0003470 2434.84570 2833.15356
2802.0 0.000357 2434.18213 2815.56689
2856.0 0.0003501 2433.51855 2784.66748
2723.0 0.000367 2432.85547 2745.61157
2673.0 0.000374 2432.19312 2703.48193
2759.0 0.000362 2431.53076 2662.08496
2660.0 0.000376 2430.86914 2623.80615
2607.0 0.000384 2430.20801 2589.91406
2475.0 0.000404 2429.54761 2560.90356
2525.0 0.000396 2428.88770 2536.75244
2617.0 0.000382 2428.22852 2517.10376
2517.0 0.000397 2427.57007 2501.40771
2507.0 0.000399 2426.91187 2489.18726
2427.0 0.000412 2426.25488 2479.48242
2594.0 0.000386 2425.59839 2471.87256
2509.0 0.000399 2424.94287 2465.86768
2483.0 0.000403 2424.28784 2461.07544
2480.0 0.000403 2423.63403 2457.20264
2481.0 0.000403 2422.98120 2454.03394
2399.0 0.000417 2422.32886 2451.42773
2446.0 0.000409 2421.67773 2449.27930
2424.0 0.000413 2421.02759 2447.51660
2488.0 0.000402 2420.37842 2446.08301
2426.0 0.000412 2419.73022 2444.93066
2436.0 0.000411 2419.08325 2444.00586
2506.0 0.000399 2418.43701 2443.23926
2531.0 0.000395 2417.79224 2442.54102
2502.0 0.000400 2417.14868 2441.79932
2499.0 0.000400 2416.50610 2440.89746
2422.0 0.000413 2415.86475 2439.75854
2461.0 0.000406 2415.22461 2438.38037
2487.0 0.000402 2414.58594 2436.83057
2505.0 0.000399 2413.94824 2435.21875
2486.0 0.000402 2413.31201 2433.42407
2524.0 0.000396 2412.67700 2431.95801
2433.0 0.000411 2412.04346 2430.65308
2405.0 0.000416 2411.41138 2429.54541
2446.0 0.000409 2410.78052 2428.66187
2340.0 0.000427 2410.15137 2428.03198
2362.0 0.000423 2409.52319 2427.68652
2446.0 0.000409 2408.89697 2427.66235
2489.0 0.000402 2408.27173 2428.00513
2460.0 0.000407 2407.64844 2428.76807
2380.0 0.000420 2407.02661 2430.00684
2423.0 0.000413 2406.40601 2431.77319
2452.0 0.000408 2405.78735 2434.10498
2476.0 0.000404 2405.16968 2437.01440
2398.0 0.000417 2404.55396 2440.46899
2508.0 0.000399 2403.93970 2444.37354
2458.0 0.000407 2403.32739 2448.54175
2497.0 0.000400 2402.71631 2452.64185
2451.0 0.000408 2402.10693 2456.22559
2549.0 0.000392 2401.49927 2458.77490
2447.0 0.000409 2400.89307 2459.90039
2401.0 0.000416 2400.28857 2459.56250
2415.0 0.000414 2399.68555 2458.13940
2453.0 0.000408 2399.08423 2456.30469
2369.0 0.000422 2398.48462 2454.73877
2427.0 0.000412 2397.88647 2454.29883
2412.0 0.000415 2397.29004 2455.12524
2463.0 0.000406 2396.69531 2457.85205
2490.0 0.000402 2396.10205 2462.82910
2502.0 0.000400 2395.51050 2470.31006
2409.0 0.000415 2394.92041 2480.42798
2453.0 0.000408 2394.33179 2493.14624
2414.0 0.000414 2393.74487 2508.19971
2530.0 0.000395 2393.15918 2524.99487
2555.0 0.000391 2392.57544 2542.47437
2549.0 0.000392 2391.99292 2558.98584
2438.0 0.000410 2391.41187 2572.28271
2519.0 0.000397 2390.83228 2579.93408
2610.0 0.000383 2390.25391 2580.17700
2471.0 0.000405 2389.67725 2572.77808
2630.0 0.000380 2389.10156 2559.13843
2515.0 0.000398 2388.52734 2541.56030
2574.0 0.000389 2387.95435 2522.32764
2500.0 0.000400 2387.38281 2503.19653
2486.0 0.000402 2386.81226 2485.31152
2540.0 0.000394 2386.24268 2469.31445
2551.0 0.000392 2385.67432 2455.48999
2385.0 0.000419 2385.10693 2443.87817
2341.0 0.000427 2384.54053 2434.35840
2503.0 0.000400 2383.97485 2426.70825
2415.0 0.000414 2383.41040 2420.66016
2504.0 0.000399 2382.84644 2415.93140
2330.0 0.000429 2382.28345 2412.26416
2423.0 0.000413 2381.72119 2409.43066
2368.0 0.000422 2381.15918 2407.24927
2364.0 0.000423 2380.59766 2405.58130
2366.0 0.000423 2380.03687 2404.33203
2450.0 0.000408 2379.47632 2403.43921
2403.0 0.000416 2378.91577 2402.87451
2457.0 0.000407 2378.35571 2402.63843
2445.0 0.000409 2377.79565 2402.76099
2358.0 0.000424 2377.23560 2403.30103
2410.0 0.000415 2376.67554 2404.35864
2389.0 0.000419 2376.11523 2406.07056
2434.0 0.000411 2375.55469 2408.61890
2399.0 0.000417 2374.99341 2412.22876
2381.0 0.000420 2374.43213 2417.16235
2382.0 0.000420 2373.86987 2423.70117
2400.0 0.000417 2373.30713 2432.11987
2443.0 0.000409 2372.74365 2442.64648
2461.0 0.000406 2372.17871 2455.41968
2446.0 0.000409 2371.61328 2470.42285
2507.0 0.000399 2371.04614 2487.41382
2562.0 0.000390 2370.47803 2505.80811
2553.0 0.000392 2369.90845 2524.54248
2557.0 0.000391 2369.33716 2541.93872
2472.0 0.000405 2368.76416 2555.73438
2497.0 0.000400 2368.18945 2563.50464
2625.0 0.000381 2367.61279 2563.54443
2540.0 0.000394 2367.03394 2555.69946
2489.0 0.000402 2366.45288 2541.44751
2509.0 0.000399 2365.86938 2523.14746
2598.0 0.000385 2365.28320 2503.12305
2529.0 0.000395 2364.69458 2483.16113
2583.0 0.000387 2364.10303 2464.42847
2438.0 0.000410 2363.50830 2447.58105
2456.0 0.000407 2362.91064 2432.91821
2515.0 0.000398 2362.30957 2420.48975
2422.0 0.000413 2361.70508 2410.17749
2354.0 0.000425 2361.09692 2401.76318
2343.0 0.000427 2360.48511 2394.97290
2350.0 0.000426 2359.86938 2389.52026
2327.0 0.000430 2359.24927 2385.13159
2397.0 0.000417 2358.62549 2381.56738
2363.0 0.000423 2357.99707 2378.62817
2431.0 0.000411 2357.36401 2376.15649
2286.0 0.000437 2356.72632 2374.03394
2409.0 0.000415 2356.08374 2372.17236
2370.0 0.000422 2355.43628 2370.51172
2322.0 0.000431 2354.78320 2369.24121
2436.0 0.000411 2354.12549 2367.86450
2435.0 0.000411 2353.46191 2366.59033
2408.0 0.000415 2352.79297 2365.40430
2441.0 0.000410 2352.11816 2364.29492
2399.0 0.000417 2351.43750 2363.25269
2306.0 0.000434 2350.75073 2362.27026
2374.0 0.000421 2350.05786 2361.33984
2269.0 0.000441 2349.35889 2360.45581
2400.0 0.000417 2348.65308 2359.60864
2401.0 0.000416 2347.94116 2358.79028
2410.0 0.000415 2347.22266 2357.98999
2400.0 0.000417 2346.49683 2357.19849
2461.0 0.000406 2345.76465 2356.40967
2333.0 0.000429 2345.02515 2355.63696
2311.0 0.000433 2344.27905 2354.85889
2312.0 0.000433 2343.52539 2354.04883
2347.0 0.000426 2342.76489 2353.31519
2386.0 0.000419 2341.99707 2352.61646
2439.0 0.000410 2341.22192 2351.96094
2350.0 0.000426 2340.43945 2351.36621
2307.0 0.000433 2339.64941 2350.81812
2311.0 0.000433 2338.85205 2350.33740
2386.0 0.000419 2338.04712 2349.93237
2332.0 0.000429 2337.23486 2349.61597
2349.0 0.000426 2336.41504 2349.39917
2378.0 0.000421 2335.58813 2349.29468
2297.0 0.000435 2334.75342 2349.31348
2320.0 0.000431 2333.91187 2349.46875
2345.0 0.000426 2333.06299 2349.76929
2299.0 0.000435 2332.20654 2350.18481
2429.0 0.000412 2331.34351 2350.79785
2357.0 0.000424 2330.47314 2351.56665
2357.0 0.000424 2329.59619 2352.49927
2348.0 0.000426 2328.71216 2353.60327
2355.0 0.000425 2327.82227 2354.92432
2396.0 0.000417 2326.92603 2356.57446
2332.0 0.000429 2326.02344 2358.74097
2304.0 0.000434 2325.11523 2361.38965
2366.0 0.000423 2324.20117 2365.41992
2411.0 0.000415 2323.28223 2370.83887
2414.0 0.000414 2322.35791 2377.93115
2386.0 0.000419 2321.42969 2386.92944
2320.0 0.000431 2320.49634 2397.97754
2373.0 0.000421 2319.55981 2411.08618
2386.0 0.000419 2318.61987 2426.07324
2361.0 0.000424 2317.67651 2442.47510
2381.0 0.000420 2316.73096 2459.44043
2458.0 0.000407 2315.78320 2475.60181
2458.0 0.000407 2314.83447 2489.06128
2489.0 0.000402 2313.88428 2497.65210
2569.0 0.000389 2312.93433 2499.60449
2486.0 0.000402 2311.98462 2494.32422
2459.0 0.000407 2311.03638 2482.69971
2430.0 0.000412 2310.08984 2466.64893
2522.0 0.000397 2309.14551 2448.31494
2378.0 0.000421 2308.20508 2429.48853
2414.0 0.000414 2307.26855 2411.41211
2410.0 0.000415 2306.33765 2394.96655
2412.0 0.000415 2305.41235 2380.29712
2412.0 0.000415 2304.49463 2367.66772
2398.0 0.000417 2303.58496 2357.04468
2324.0 0.000430 2302.68408 2348.27759
2342.0 0.000427 2301.79370 2341.18335
2395.0 0.000418 2300.91479 2335.45898
2257.0 0.000443 2300.04858 2330.88940
2381.0 0.000420 2299.19629 2327.24756
2298.0 0.000435 2298.35938 2324.33496
2262.0 0.000442 2297.53882 2322.01001
2396.0 0.000417 2296.73682 2320.14502
2310.0 0.000433 2295.95410 2318.65601
2344.0 0.000427 2295.19238 2317.48486
2378.0 0.000421 2294.45361 2316.59570
2354.0 0.000425 2293.73901 2315.97461
2326.0 0.000430 2293.05054 2315.62012
2312.0 0.000433 2292.38989 2315.54761
2348.0 0.000426 2291.75903 2315.78833
2230.0 0.000448 2291.15942 2316.38794
2334.0 0.000428 2290.59351 2317.41479
2333.0 0.000429 2290.06323 2318.96118
2342.0 0.000427 2289.57031 2321.14673
2313.0 0.000432 2289.11743 2324.12964
2332.0 0.000429 2288.70630 2328.09741
2346.0 0.000426 2288.33960 2333.27197
2394.0 0.000418 2288.01929 2339.89673
2322.0 0.000431 2287.74829 2348.21851
2380.0 0.000420 2287.52856 2358.46655
2334.0 0.000428 2287.36279 2370.83057
2277.0 0.000439 2287.25391 2385.44263
2355.0 0.000425 2287.20410 2402.33521
2384.0 0.000419 2287.21655 2421.37061
2457.0 0.000407 2287.29370 2442.09619
2322.0 0.000431 2287.43872 2463.73535
2543.0 0.000393 2287.65454 2484.86450
2483.0 0.000403 2287.94385 2503.50391
2559.0 0.000391 2288.30981 2517.27075
2648.0 0.000378 2288.75610 2523.92334
2603.0 0.000384 2289.28516 2522.17627
2502.0 0.000400 2289.90112 2512.32275
2553.0 0.000392 2290.60645 2496.13062
2503.0 0.000400 2291.40527 2476.07935
2491.0 0.000401 2292.30029 2454.53857
2407.0 0.000415 2293.29565 2433.32153
2499.0 0.000400 2294.39478 2413.61792
2295.0 0.000436 2295.60083 2396.11255
2417.0 0.000414 2296.91846 2381.12500
2358.0 0.000424 2298.35034 2368.71826
2321.0 0.000431 2299.90137 2358.78711
2327.0 0.000430 2301.57397 2351.11328
2415.0 0.000414 2303.37378 2345.27124
2305.0 0.000434 2305.30273 2341.26245
2295.0 0.000436 2307.36597 2338.64307
2256.0 0.000443 2309.56787 2337.16040
2336.0 0.000428 2311.91113 2336.58838
2337.0 0.000428 2314.40137 2336.74951
2401.0 0.000416 2317.04077 2337.50244
2338.0 0.000428 2319.83545 2338.74805
2354.0 0.000425 2322.78735 2340.40820
2318.0 . . .
loop_
_refln_index_h
_refln_index_k
_refln_index_l
_refln_observed_status
_refln_F_squared_meas
_refln_F_squared_calc
_refln_phase_calc
_refln_d_spacing
_gsas_i100_meas
1 1 0 o 10086.642 10264.140 180.00 7.08119 13.60
0 0 1 o -555.253 177.545 180.00 5.08260 0.33
2 0 0 o 610.330 1193.125 0.00 5.00716 0.66
1 1 1 o 26287.609 26910.676 0.00 4.12909 26.83
2 0 1 o 1757.866 1248.797 180.00 3.56697 1.77
2 2 0 o 430.312 65.316 0.00 3.54060 0.92
2 1 1 o 101.201 51.212 0.00 3.36018 0.18
3 1 0 o 13958.775 15157.382 0.00 3.16681 7.61
2 2 1 o 187515.72 185757.23 180.00 2.90519 100.00
3 1 1 o 4234.778 4226.409 180.00 2.68778 2.90
0 0 2 o 96396.10 99349.20 0.00 2.54130 9.06
4 0 0 o 117028.66 118037.88 0.00 2.50358 22.16
3 2 1 o 4649.305 4574.463 0.00 2.43729 4.36
1 1 2 o 2940.320 2857.904 180.00 2.39193 0.76
3 3 0 o 21835.246 20457.156 180.00 2.36040 3.60
2 0 2 o 173.206 232.529 0.00 2.26614 0.08
4 0 1 o 4758.410 5221.361 180.00 2.24590 1.02
4 2 0 o 513.056 632.246 0.00 2.23927 0.21
2 1 2 o 702.442 652.518 0.00 2.21026 0.54
4 1 1 o 2959.136 2386.428 0.00 2.19146 2.25
3 3 1 o 581.675 1050.881 0.00 2.14080 0.03
2 2 2 o 4048.902 5082.190 0.00 2.06454 0.66
4 2 1 o 70.493 122.215 180.00 2.04920 0.07
3 1 2 o 17452.420 17205.889 0.00 1.98202 8.31
5 1 0 o 4219.000 3935.519 180.00 1.96397 0.89
3 2 2 o 1228.826 468.943 0.00 1.87492 0.69
4 3 1 o 484.596 338.954 180.00 1.86340 0.27
5 1 1 o 18151.502 18392.387 0.00 1.83196 7.26
4 0 2 o 119076.73 120167.63 0.00 1.78349 24.29
4 4 0 o 114750.55 117586.79 0.00 1.77030 11.53
4 1 2 o 5.317 8.786 180.00 1.75586 0.00
5 2 1 o 42.360 53.568 180.00 1.74639 0.02
3 3 2 o 24239.209 23764.525 180.00 1.72947 4.59
5 3 0 o 5814.146 5049.525 0.00 1.71744 0.98
0 0 3 o 4898.185 3041.344 180.00 1.69420 0.21
4 2 2 o 1217.903 1028.476 0.00 1.68009 0.57
4 4 1 o 1276.354 1229.825 180.00 1.67179 0.22
6 0 0 o -23.796 17.248 0.00 1.66905 0.00
1 1 3 o 6784.370 6784.650 0.00 1.64770 1.00
5 3 1 o 11029.618 10454.911 180.00 1.62706 3.54
2 0 3 o 224.321 318.420 180.00 1.60483 0.05
6 0 1 o 1374.884 1395.044 180.00 1.58574 0.28
2 1 3 o 211.043 245.170 0.00 1.58461 0.09
6 2 0 o 5650.175 6685.023 0.00 1.58340 0.64
4 3 2 o -0.101 3.938 0.00 1.57304 0.00
6 1 1 o 9.812 177.287 180.00 1.56623 0.01
5 1 2 o -250.195 1.467 180.00 1.55399 0.02
2 2 3 o 86390.65 84744.87 180.00 1.52825 13.20
6 2 1 o 71836.70 71883.62 180.00 1.51174 21.20
5 2 2 o 336.118 245.248 0.00 1.50073 0.13
5 4 1 o 91.262 88.933 180.00 1.49481 0.04
3 1 3 o 4380.042 4417.453 180.00 1.49386 1.09
4 4 2 o 63553.71 63790.29 0.00 1.45259 8.68
3 2 3 o 243.538 383.606 180.00 1.44636 0.09
6 3 1 o 5.933 20.993 180.00 1.43234 0.00
5 3 2 o 1690.720 1550.379 0.00 1.42296 0.34
7 1 0 o 7028.294 6966.932 0.00 1.41624 0.81
5 5 0 o 3223.985 3162.286 0.00 1.41624 0.41
4 0 3 o 407.862 136.216 180.00 1.40312 0.18
6 0 2 o 254.828 186.966 180.00 1.39508 0.03
4 1 3 o 680.014 867.625 180.00 1.38955 0.24
6 4 0 o 18.538 26.424 0.00 1.38874 0.01
6 1 2 o 212.654 208.166 180.00 1.38173 0.07
3 3 3 o 111.229 54.934 0.00 1.37636 0.04
5 5 1 o 21896.439 21885.232 0.00 1.36427 2.79
7 1 1 o 842.149 841.856 180.00 1.36427 0.15
4 2 3 o 120.420 49.209 180.00 1.35108 0.05
6 2 2 o 501.951 483.585 0.00 1.34389 0.22
6 4 1 o 903.966 584.490 180.00 1.33963 0.30
5 4 2 o 0.882 0.453 180.00 1.33195 0.00
7 2 1 o 1399.511 1004.820 180.00 1.32780 0.45
7 3 0 o 23182.994 24901.246 180.00 1.31494 2.84
4 3 3 o 387.417 152.362 0.00 1.29350 0.12
6 3 2 o 195.479 209.258 0.00 1.28719 0.06
5 1 3 o 12738.883 12907.212 0.00 1.28284 2.89
7 3 1 o 109.036 138.741 180.00 1.27303 0.17
0 0 4 o 69487.96 69233.61 0.00 1.27065 2.04
5 2 3 o 279.314 298.171 0.00 1.25239 0.08
8 0 0 o 35081.68 36468.67 0.00 1.25179 1.85
1 1 4 o 4038.489 4031.783 180.00 1.25068 0.41
6 5 1 o 532.251 442.097 0.00 1.24325 0.16
5 5 2 o 363.956 356.222 180.00 1.23710 0.03
7 1 2 o 12512.814 12170.393 0.00 1.23710 2.78
2 0 4 o 164.152 132.168 0.00 1.23161 0.03
4 4 3 o 2918.850 2947.324 180.00 1.22400 0.24
2 1 4 o 63.585 85.781 180.00 1.22240 0.02
6 4 2 o 6.949 5.356 180.00 1.21865 0.00
8 0 1 o 1858.810 1468.719 180.00 1.21547 0.18
8 2 0 o 1549.194 1342.371 0.00 1.21441 0.21
7 2 2 o 147.355 165.580 180.00 1.20972 0.04
8 1 1 o 68.856 67.115 180.00 1.20661 0.02
7 4 1 o 164.142 159.991 0.00 1.20661 0.05
5 3 3 o 3426.340 3359.673 180.00 1.20611 0.62
2 2 4 o 417.420 94.912 0.00 1.19597 0.13
6 0 3 o 829.831 778.682 180.00 1.18899 0.12
8 2 1 o 186.149 240.142 0.00 1.18117 0.03
6 1 3 o 12.527 15.311 180.00 1.18070 0.00
6 6 0 o 839.839 905.301 0.00 1.18020 0.04
3 1 4 o 2208.915 2335.180 0.00 1.17926 0.34
7 3 2 o 8825.018 9347.872 180.00 1.16787 1.68
7 5 0 o 3907.780 3603.241 0.00 1.16414 0.36
6 2 3 o 36825.57 36750.25 180.00 1.15682 7.50
3 2 4 o 52.298 53.137 180.00 1.15548 0.01
6 6 1 o 31763.961 31226.426 180.00 1.14961 3.20
5 4 3 o 29.204 28.817 0.00 1.14918 0.01
6 5 2 o 58.150 89.542 0.00 1.14475 0.02
8 3 1 o 28.796 34.571 180.00 1.14211 0.01
7 5 1 o 1580.362 1456.232 180.00 1.13476 0.26
4 0 4 o 42710.56 41586.33 0.00 1.13307 4.41
4 1 4 o 3.820 4.392 0.00 1.12589 0.00
8 0 2 o 38292.30 38901.13 0.00 1.12295 3.92
6 3 3 o 245.751 235.786 0.00 1.12006 0.07
8 4 0 o 25420.609 24612.279 0.00 1.11963 2.47
3 3 4 o 8080.500 7785.399 180.00 1.11884 0.80
8 1 2 o 4.030 3.391 0.00 1.11595 0.00
7 4 2 o 0.289 0.243 0.00 1.11595 0.00
9 1 0 o 42.216 232.116 0.00 1.10590 0.07
4 2 4 o 22.692 88.142 0.00 1.10513 0.01
8 2 2 o 1056.677 958.980 0.00 1.09573 0.28
8 4 1 o 3171.420 3321.667 180.00 1.09342 0.48
5 5 3 o 8984.238 9170.966 0.00 1.08659 0.86
7 1 3 o 151.405 154.660 180.00 1.08659 0.03
9 1 1 o 9731.431 9821.303 0.00 1.08061 1.93
6 4 3 o 389.500 185.684 180.00 1.07402 0.11
4 3 4 o 3.117 1.461 180.00 1.07294 0.00
6 6 2 o 4365.591 4082.086 0.00 1.07040 0.37
7 2 3 o -3.699 93.559 0.00 1.06790 0.00
5 1 4 o 108.499 250.365 180.00 1.06684 0.00
8 3 2 o 6.057 1.872 180.00 1.06434 0.00
7 6 1 o 53.994 16.132 0.00 1.06222 0.01
9 2 1 o 255.200 76.248 180.00 1.06222 0.07
7 5 2 o 3842.765 3587.669 0.00 1.05838 0.72
9 3 0 o 922.086 1295.960 0.00 1.05560 0.06
5 2 4 o 42.438 48.507 180.00 1.04913 0.01
8 5 1 o 0.103 4.870 0.00 1.03910 0.00
7 3 3 o -92.162 0.207 0.00 1.03878 0.01
9 3 1 o 3921.047 3807.332 180.00 1.03355 0.72
4 4 4 o 24815.605 23230.549 0.00 1.03227 2.46
8 4 2 o 21158.904 21181.979 0.00 1.02460 4.13
6 5 3 o 33.763 34.219 180.00 1.02241 0.01
5 3 4 o 2463.959 2484.058 0.00 1.02148 0.45
0 0 5 o 140.091 285.726 180.00 1.01652 0.01
9 1 2 o 56.464 104.937 180.00 1.01404 0.01
7 7 0 o 10314.798 12297.444 180.00 1.01160 0.51
6 0 4 o 10.630 11.300 180.00 1.01101 0.00
8 0 3 o 2546.581 2637.699 180.00 1.00679 0.20
1 1 5 o 2980.407 2981.124 0.00 1.00621 0.27
6 1 4 o 39.867 39.215 0.00 1.00590 0.01
8 1 3 o 71.307 52.641 0.00 1.00174 0.02
7 4 3 o 91.652 67.658 180.00 1.00174 0.03
8 6 0 o 194.531 131.119 0.00 1.00143 0.03
10 0 0 o 1816.984 1310.820 180.00 1.00143 0.11
7 6 2 o 64.512 96.147 0.00 0.99880 0.02
9 2 2 o 32.989 49.165 180.00 0.99880 0.01
9 4 1 o 344.752 514.559 0.00 0.99704 0.10
2 0 5 o 36.609 67.137 180.00 0.99620 0.01
7 7 1 o 527.331 266.856 180.00 0.99214 0.12
2 1 5 o 256.052 200.088 180.00 0.99131 0.07
6 2 4 o 2075.174 1816.701 0.00 0.99101 0.37
8 2 3 o 301.089 167.078 0.00 0.98703 0.07
5 4 4 o 0.023 0.010 0.00 0.98619 0.00
10 0 1 o 1317.859 1368.734 180.00 0.98254 0.18
8 6 1 o 7.850 7.919 0.00 0.98254 0.00
10 2 0 o 2591.133 2644.324 0.00 0.98198 0.21
8 5 2 o 1.303 1.504 180.00 0.97950 0.00
10 1 1 o 218.096 207.981 0.00 0.97785 0.07
2 2 5 o 23777.678 23736.852 180.00 0.97705 2.49
9 3 2 o 216.590 207.372 0.00 0.97485 0.04
9 5 0 o 94.470 97.057 0.00 0.97268 0.05
6 6 3 o 18222.299 17707.729 180.00 0.96840 1.92
3 1 5 o 851.982 815.644 180.00 0.96788 0.14
6 3 4 o 51.834 47.968 180.00 0.96761 0.02
10 2 1 o 15005.355 15365.069 180.00 0.96415 3.07
8 3 3 o 8.145 8.295 0.00 0.96390 0.00
7 5 3 o 1466.745 1481.775 180.00 0.95947 0.27
9 5 1 o 7790.626 7790.200 0.00 0.95534 1.69
3 2 5 o 7.138 6.785 0.00 0.95460 0.00
5 5 4 o 338.609 213.055 0.00 0.94578 0.10
7 1 4 o 3655.020 3178.042 0.00 0.94578 0.79
9 4 2 o 0.091 0.072 180.00 0.94404 0.00
10 3 1 o 22.102 21.978 0.00 0.94256 0.01
4 0 5 o 474.479 449.906 180.00 0.94185 0.06
7 7 2 o 6308.917 7120.877 180.00 0.93987 0.67
4 1 5 o 152.574 230.785 0.00 0.93771 0.05
6 4 4 o 9.366 11.166 0.00 0.93746 0.01
8 4 3 o 714.076 692.291 180.00 0.93409 0.15
3 3 5 o 119.552 125.125 0.00 0.93362 0.01
7 2 4 o 24.388 30.352 0.00 0.93338 0.01
8 6 2 o 442.853 285.362 0.00 0.93170 0.15
10 0 2 o 176.933 137.806 180.00 0.93170 0.02
10 4 0 o 98.037 129.220 180.00 0.92981 0.01
10 1 2 o 59.190 49.499 0.00 0.92770 0.02
8 7 1 o 50.309 52.284 0.00 0.92629 0.02
9 1 3 o 4198.230 4180.914 0.00 0.92607 0.94
4 2 5 o 2.647 2.168 180.00 0.92561 0.00
10 2 2 o 1325.875 1355.588 0.00 0.91598 0.25
10 4 1 o 553.815 613.930 180.00 0.91463 0.18
7 6 3 o 34.407 37.265 0.00 0.91441 0.01
9 2 3 o 0.020 0.022 180.00 0.91441 0.00
7 3 4 o 6398.779 6220.259 180.00 0.91374 1.62
9 6 1 o 184.000 87.607 0.00 0.91084 0.07
9 5 2 o 224.969 212.548 0.00 0.90841 0.17
11 1 0 o 5413.932 5696.995 0.00 0.90665 0.70
4 3 5 o 46.744 47.995 180.00 0.90646 0.02
5 1 5 o 3463.249 3315.431 0.00 0.90277 0.87
6 5 4 o 19.701 17.822 180.00 0.90254 0.01
8 5 3 o 15.349 7.459 180.00 0.89953 0.01
10 3 2 o 59.419 60.126 180.00 0.89740 0.02
9 3 3 o 3028.620 3084.176 180.00 0.89593 0.78
11 1 1 o 38.681 40.493 180.00 0.89256 0.02
5 2 5 o 209.360 209.341 180.00 0.89196 0.08
8 0 4 o 7988.566 7859.766 0.00 0.89174 0.97
