#------------------------------------------------------------------------------
#$Date: 2021-06-21 11:21:31 +0300 (Mon, 21 Jun 2021) $
#$Revision: 266601 $
#$URL: file:///home/coder/svn-repositories/cod/cif/1/56/36/1563630.cif $
#------------------------------------------------------------------------------
#
# This file is available in the Crystallography Open Database (COD),
# http://www.crystallography.net/
#
# All data on this site have been placed in the public domain by the
# contributors.
#
data_1563630
loop_
_publ_author_name
'Zubkov, Vladimir G.'
'Tarakina, Nadezda V.'
'Leonidov, Ivan I.'
'Tyutyunnik, Alexander P.'
'Surat, Ludmila L.'
'Melkozerova, Marina A.'
'Zabolotskaya, Elena V.'
'Kellerman, Dina G.'
_publ_section_title
;
 Synthesis and crystal structure of Ln2M2+Ge4O12, Ln=rare-earth element or
 Y; M=Ca, Mn, Zn
;
_journal_issue                   5
_journal_name_full               'Journal of Solid State Chemistry'
_journal_page_first              1186
_journal_page_last               1193
_journal_paper_doi               10.1016/j.jssc.2010.03.027
_journal_volume                  183
_journal_year                    2010
_chemical_formula_sum            'Ca Ge4 Ho2 O12'
_chemical_formula_weight         852.29
_space_group_IT_number           125
_space_group_name_Hall           '-P 4a 2b'
_space_group_name_H-M_alt        'P 4/n b m :2'
_symmetry_cell_setting           tetragonal
_symmetry_space_group_name_H-M   'P 4/n b m :2'
_cell_angle_alpha                90.0
_cell_angle_beta                 90.0
_cell_angle_gamma                90.0
_cell_formula_units_Z            2
_cell_length_a                   9.99176(4)
_cell_length_b                   9.99176
_cell_length_c                   5.068100(27)
_cell_volume                     505.975(3)
_computing_structure_refinement  GSAS
_diffrn_radiation_polarisn_ratio 0.8
_diffrn_radiation_probe          x-ray
_diffrn_radiation_wavelength     1.54056
_exptl_absorpt_correction_T_max  10.53131
_exptl_absorpt_correction_T_min  2.91692
_exptl_absorpt_process_details
;   GSAS Absorption/surface roughness correction: function number 4
 Flat plate transmission absorption correction
Terms =    -0.69076         0.0000    
Correction is refined.
;
_pd_calc_method                  'Rietveld Refinement'
_pd_instr_location               ' ?'
_pd_meas_2theta_range_inc        0.02
_pd_meas_2theta_range_max        119.98
_pd_meas_2theta_range_min        2.0
_pd_meas_number_of_points        5900
_pd_proc_2theta_range_inc        0.02
_pd_proc_2theta_range_max        119.95836
_pd_proc_2theta_range_min        1.97836
_pd_proc_info_datetime           2010-02-27T12:55:25
_pd_proc_info_excluded_regions   ' ?'
_pd_proc_ls_background_function
;   GSAS Background function number 1 with 36 terms.
 Shifted Chebyshev function of 1st kind
      1:    4900.48     2:   -6159.43     3:    3887.99     4:   -1859.25    
      5:    594.436     6:   -78.4291     7:   -46.2128     8:   -46.3003    
      9:    121.326    10:   -177.610    11:    138.549    12:   -46.8099    
     13:    21.3624    14:   -51.4223    15:    82.8491    16:   -107.420    
     17:    107.799    18:   -54.3985    19:    1.87371    20:    20.5505    
     21:    15.3265    22:   -46.5666    23:    85.4518    24:   -104.650    
     25:    78.0326    26:   -24.2015    27:   -28.4135    28:    61.4798    
     29:   -64.5438    30:    33.5069    31:    24.7524    32:   -71.9268    
     33:    80.7342    34:   -59.4004    35:    28.7903    36:    10.6919    
;
_pd_proc_ls_peak_cutoff          0.00050
_pd_proc_ls_profile_function
;
 CW Profile function number 2 with  18 terms
 Profile coefficients for Simpson's rule integration of pseudovoigt function
 C.J. Howard (1982). J. Appl. Cryst.,15,615-620.
 P. Thompson, D.E. Cox & J.B. Hastings (1987). J. Appl. Cryst.,20,79-83.
 #1(GU)   =   23.909 #2(GV)   =  -11.416 #3(GW)   =   15.466
 #4(LX)   =    2.278 #5(LY)   =    9.811 #6(trns) =    0.000
 #7(asym) =   2.2037 #8(shft) =   0.0000 #9(GP)   =    0.000
 #10(stec)=     0.00 #11(ptec)=     0.00 #12(sfec)=     0.00
 #13(L11) =    0.000 #14(L22) =    0.000 #15(L33) =    0.000
 #16(L12) =    0.000 #17(L13) =    0.000 #18(L23) =    0.000
 Peak tails are ignored  where the intensity is below 0.0005 times the peak
   Aniso. broadening axis   0.0   0.0   1.0
;
_pd_proc_ls_prof_R_factor        0.0224
_pd_proc_ls_prof_wR_expected     0.0144
_pd_proc_ls_prof_wR_factor       0.0332
_pd_proc_number_of_points        5900
_pd_spec_mounting                ' ?'
_refine_ls_goodness_of_fit_all   2.33
_refine_ls_matrix_type           full
_refine_ls_number_parameters     70
_refine_ls_number_restraints     0
_refine_ls_R_Fsqd_factor         0.02204
_refine_ls_shift/su_max          0.03
_refine_ls_shift/su_mean         0.00
_reflns_d_resolution_high        0.891
_reflns_d_resolution_low         7.065
_reflns_limit_h_max              11
_reflns_limit_h_min              0
_reflns_limit_k_max              8
_reflns_limit_k_min              0
_reflns_limit_l_max              5
_reflns_limit_l_min              0
_reflns_number_total             210
_cod_data_source_file            HO2CAGe4O12.cif
_cod_data_source_block           HO2CAV4O12_publ
_cod_depositor_comments
;
The following automatic conversions were performed:

data item '_geom_angle_publ_flag' value 'N' was changed to 'n' in
accordance with the built-in table derived from the CIF Core
dictionary named 'cif_core.dic' version 2.4.5 last updated on
2014-11-21 (194 times).

data item '_geom_bond_publ_flag' value 'N' was changed to 'n' in
accordance with the built-in table derived from the CIF Core
dictionary named 'cif_core.dic' version 2.4.5 last updated on
2014-11-21 (56 times).

Automatic conversion script
Id: cif_fix_values 8369 2020-08-20 11:38:08Z andrius 
;
_cod_original_cell_volume        505.975(6)
_cod_original_sg_symbol_H-M      'P 4/n b m'
_cod_original_formula_sum        'Ca1.00 Ge4 Ho2.00 O12'
_cod_database_code               1563630
_gsas_exptl_extinct_corr_t_min   1.00000
_gsas_exptl_extinct_corr_t_max   1.00000
loop_
_symmetry_equiv_pos_site_id
_symmetry_equiv_pos_as_xyz
1 +x,+y,+z
2 -y+1/2,+x,+z
3 -x+1/2,-y+1/2,+z
4 +y,-x+1/2,+z
5 -x,+y+1/2,+z
6 -y,-x,+z
7 +x+1/2,-y,+z
8 +y+1/2,+x+1/2,+z
-1 -x,-y,-z
-2 +y+1/2,-x,-z
-3 +x+1/2,+y+1/2,-z
-4 -y,+x+1/2,-z
-5 +x,-y+1/2,-z
-6 +y,+x,-z
-7 -x+1/2,+y,-z
-8 -y+1/2,-x+1/2,-z
loop_
_atom_site_aniso_label
_atom_site_aniso_U_11
_atom_site_aniso_U_12
_atom_site_aniso_U_13
_atom_site_aniso_U_22
_atom_site_aniso_U_23
_atom_site_aniso_U_33
Ca 0.0384(9) -0.0060(5) 0.0054(10) 0.0384(9) -0.0054(10) 0.0341(11)
Ho1 0.0384(9) -0.0060(5) 0.0054(10) 0.0384(9) -0.0054(10) 0.0341(11)
Ho2 0.0325(8) 0.0 0.0 0.0325(8) 0.0 0.0310(10)
Ge 0.0306(8) 0.0 0.0 0.0276(9) -0.0015(11) 0.0298(9)
O1 0.0247(17) 0.0032(23) 0.0000(18) 0.0247(17) 0.0000(18) 0.0234(28)
O2 0.0250(24) -0.0017(13) -0.0019(19) 0.0235(23) 0.0034(18) 0.0247(18)
loop_
_atom_site_type_symbol
_atom_site_label
_atom_site_fract_x
_atom_site_fract_y
_atom_site_fract_z
_atom_site_occupancy
_atom_site_thermal_displace_type
_atom_site_U_iso_or_equiv
_atom_site_symmetry_multiplicity
Ca Ca 0.0 0.0 0.5 0.5 Uani 0.03698 4
Ho Ho1 0.0 0.0 0.5 0.5 Uani 0.03698 4
Ho Ho2 0.25 0.25 0.5 1.0 Uani 0.03199 2
Ge Ge 0.52127(7) 0.25 0.0 1.0 Uani 0.02932 8
O O1 0.62879(30) 0.37121(30) 0.1568(7) 1.0 Uani 0.02427 8
O O2 0.17392(27) 0.06181(25) 0.2559(5) 1.0 Uani 0.02442 16
loop_
_atom_type_symbol
_atom_type_number_in_cell
_atom_type_scat_dispersion_real
_atom_type_scat_dispersion_imag
_atom_type_scat_Cromer_Mann_a1
_atom_type_scat_Cromer_Mann_a2
_atom_type_scat_Cromer_Mann_a3
_atom_type_scat_Cromer_Mann_a4
_atom_type_scat_Cromer_Mann_b1
_atom_type_scat_Cromer_Mann_b2
_atom_type_scat_Cromer_Mann_b3
_atom_type_scat_Cromer_Mann_b4
_atom_type_scat_Cromer_Mann_c
_atom_type_scat_source
Ca 2.0 0.000 0.000 8.62660 10.4421 7.38730 0.65990 1.58990 85.7484 1.02110
178.437 1.37510 International_Tables_Vol_C
Ho 4.0 0.000 0.000 26.9049 2.07051 17.2940 0.19794 14.5583 11.4407 3.63837
92.6566 4.56796 International_Tables_Vol_C
Ge 8.0 0.000 0.000 16.0816 2.85090 6.37470 0.25160 3.70680 11.4468 3.68300
54.7625 2.13130 International_Tables_Vol_C
O 24.0 0.000 0.000 3.04850 13.2771 2.28680 5.70110 1.54630 0.32390 0.86700
32.9089 0.25080 International_Tables_Vol_C
loop_
_geom_angle_atom_site_label_1
_geom_angle_atom_site_label_2
_geom_angle_atom_site_label_3
_geom_angle
_geom_angle_site_symmetry_1
_geom_angle_site_symmetry_2
_geom_angle_site_symmetry_3
_geom_angle_publ_flag
Ho2 Ca Ho2 180.0 1_555 . 5_545 n
Ho2 Ca O1 89.9998 1_555 . 3_555 n
Ho2 Ca O1 90.0002 1_555 . -3_456 n
Ho2 Ca O2 41.41(7) 1_555 . 1_555 n
Ho2 Ca O2 138.59(7) 1_555 . 6_555 n
Ho2 Ca O2 138.59(7) 1_555 . -1_556 n
Ho2 Ca O2 41.41(7) 1_555 . -6_556 n
Ho2 Ca O1 90.0002 5_545 . 3_555 n
Ho2 Ca O1 89.9998 5_545 . -3_456 n
Ho2 Ca O2 138.59(7) 5_545 . 1_555 n
Ho2 Ca O2 41.41(7) 5_545 . 6_555 n
Ho2 Ca O2 41.41(7) 5_545 . -1_556 n
Ho2 Ca O2 138.59(7) 5_545 . -6_556 n
O1 Ca O1 180.0 3_555 . -3_456 n
O1 Ca O2 82.70(9) 3_555 . 1_555 n
O1 Ca O2 82.70(9) 3_555 . 6_555 n
O1 Ca O2 97.30(9) 3_555 . -1_556 n
O1 Ca O2 97.30(9) 3_555 . -6_556 n
O1 Ca O2 97.30(9) -3_446 . 1_555 n
O1 Ca O2 97.30(9) -3_446 . 6_555 n
O1 Ca O2 82.70(9) -3_446 . -1_556 n
O1 Ca O2 82.70(9) -3_446 . -6_556 n
O2 Ca O2 97.17(14) 1_555 . 6_555 n
O2 Ca O2 180.0 1_555 . -1_556 n
O2 Ca O2 82.83(14) 1_555 . -6_556 n
O2 Ca O2 82.83(14) 6_555 . -1_556 n
O2 Ca O2 180.0 6_555 . -6_556 n
O2 Ca O2 97.17(14) -1_556 . -6_556 n
Ho2 Ho1 Ho2 180.0 1_555 . 5_545 n
Ho2 Ho1 O1 89.9998 1_555 . 3_555 n
Ho2 Ho1 O1 90.0002 1_555 . -3_456 n
Ho2 Ho1 O2 41.41(7) 1_555 . 1_555 n
Ho2 Ho1 O2 138.59(7) 1_555 . 6_555 n
Ho2 Ho1 O2 138.59(7) 1_555 . -1_556 n
Ho2 Ho1 O2 41.41(7) 1_555 . -6_556 n
Ho2 Ho1 O1 90.0002 5_545 . 3_555 n
Ho2 Ho1 O1 89.9998 5_545 . -3_456 n
Ho2 Ho1 O2 138.59(7) 5_545 . 1_555 n
Ho2 Ho1 O2 41.41(7) 5_545 . 6_555 n
Ho2 Ho1 O2 41.41(7) 5_545 . -1_556 n
Ho2 Ho1 O2 138.59(7) 5_545 . -6_556 n
O1 Ho1 O1 180.0 3_555 . -3_456 n
O1 Ho1 O2 82.70(9) 3_555 . 1_555 n
O1 Ho1 O2 82.70(9) 3_555 . 6_555 n
O1 Ho1 O2 97.30(9) 3_555 . -1_556 n
O1 Ho1 O2 97.30(9) 3_555 . -6_556 n
O1 Ho1 O2 97.30(9) -3_446 . 1_555 n
O1 Ho1 O2 97.30(9) -3_446 . 6_555 n
O1 Ho1 O2 82.70(9) -3_446 . -1_556 n
O1 Ho1 O2 82.70(9) -3_446 . -6_556 n
O2 Ho1 O2 97.17(14) 1_555 . 6_555 n
O2 Ho1 O2 180.0 1_555 . -1_556 n
O2 Ho1 O2 82.83(14) 1_555 . -6_556 n
O2 Ho1 O2 82.83(14) 6_555 . -1_556 n
O2 Ho1 O2 180.0 6_555 . -6_556 n
O2 Ho1 O2 97.17(14) -1_556 . -6_556 n
Ca Ho2 Ca 90.0 1_555 . 2_555 n
Ca Ho2 Ca 180.0 1_555 . 3_555 n
Ca Ho2 Ca 90.0 1_555 . 4_555 n
Ca Ho2 Ho1 0.0 1_555 . 1_555 n
Ca Ho2 Ho1 90.0 1_555 . 2_555 n
Ca Ho2 Ho1 180.0 1_555 . 3_555 n
Ca Ho2 Ho1 90.0 1_555 . 4_555 n
Ca Ho2 O2 38.20(7) 1_555 . 1_555 n
Ca Ho2 O2 109.48(6) 1_555 . 2_555 n
Ca Ho2 O2 141.80(7) 1_555 . 3_555 n
Ca Ho2 O2 70.52(6) 1_555 . 4_555 n
Ca Ho2 O2 109.48(6) 1_555 . -5_456 n
Ca Ho2 O2 38.20(7) 1_555 . -6_556 n
Ca Ho2 O2 70.52(6) 1_555 . -7_546 n
Ca Ho2 O2 141.80(7) 1_555 . -8_556 n
Ca Ho2 Ca 90.0 2_555 . 3_555 n
Ca Ho2 Ca 180.0 2_555 . 4_555 n
Ca Ho2 Ho1 90.0 2_555 . 1_555 n
Ca Ho2 Ho1 0.0 2_555 . 2_555 n
Ca Ho2 Ho1 90.0 2_555 . 3_555 n
Ca Ho2 Ho1 180.0 2_555 . 4_555 n
Ca Ho2 O2 70.52(6) 2_555 . 1_555 n
Ca Ho2 O2 38.20(7) 2_555 . 2_555 n
Ca Ho2 O2 109.48(6) 2_555 . 3_555 n
Ca Ho2 O2 141.80(7) 2_555 . 4_555 n
Ca Ho2 O2 141.80(7) 2_555 . -5_456 n
Ca Ho2 O2 109.48(6) 2_555 . -6_556 n
Ca Ho2 O2 38.20(7) 2_555 . -7_546 n
Ca Ho2 O2 70.52(6) 2_555 . -8_556 n
Ca Ho2 Ca 90.0 3_555 . 4_555 n
Ca Ho2 Ho1 180.0 3_555 . 1_555 n
Ca Ho2 Ho1 90.0 3_555 . 2_555 n
Ca Ho2 Ho1 0.0 3_555 . 3_555 n
Ca Ho2 Ho1 90.0 3_555 . 4_555 n
Ca Ho2 O2 141.80(7) 3_555 . 1_555 n
Ca Ho2 O2 70.52(6) 3_555 . 2_555 n
Ca Ho2 O2 38.20(7) 3_555 . 3_555 n
Ca Ho2 O2 109.48(6) 3_555 . 4_555 n
Ca Ho2 O2 70.52(6) 3_555 . -5_456 n
Ca Ho2 O2 141.80(7) 3_555 . -6_556 n
Ca Ho2 O2 109.48(6) 3_555 . -7_546 n
Ca Ho2 O2 38.20(7) 3_555 . -8_556 n
Ca Ho2 Ho1 90.0 4_555 . 1_555 n
Ca Ho2 Ho1 180.0 4_555 . 2_555 n
Ca Ho2 Ho1 90.0 4_555 . 3_555 n
Ca Ho2 Ho1 0.0 4_555 . 4_555 n
Ca Ho2 O2 109.48(6) 4_555 . 1_555 n
Ca Ho2 O2 141.80(7) 4_555 . 2_555 n
Ca Ho2 O2 70.52(6) 4_555 . 3_555 n
Ca Ho2 O2 38.20(7) 4_555 . 4_555 n
Ca Ho2 O2 38.20(7) 4_555 . -5_456 n
Ca Ho2 O2 70.52(6) 4_555 . -6_556 n
Ca Ho2 O2 141.80(7) 4_555 . -7_546 n
Ca Ho2 O2 109.48(6) 4_555 . -8_556 n
Ho1 Ho2 Ho1 90.0 1_555 . 2_555 n
Ho1 Ho2 Ho1 180.0 1_555 . 3_555 n
Ho1 Ho2 Ho1 90.0 1_555 . 4_555 n
Ho1 Ho2 O2 38.20(7) 1_555 . 1_555 n
Ho1 Ho2 O2 109.48(6) 1_555 . 2_555 n
Ho1 Ho2 O2 141.80(7) 1_555 . 3_555 n
Ho1 Ho2 O2 70.52(6) 1_555 . 4_555 n
Ho1 Ho2 O2 109.48(6) 1_555 . -5_456 n
Ho1 Ho2 O2 38.20(7) 1_555 . -6_556 n
Ho1 Ho2 O2 70.52(6) 1_555 . -7_546 n
Ho1 Ho2 O2 141.80(7) 1_555 . -8_556 n
Ho1 Ho2 Ho1 90.0 2_555 . 3_555 n
Ho1 Ho2 Ho1 180.0 2_555 . 4_555 n
Ho1 Ho2 O2 70.52(6) 2_555 . 1_555 n
Ho1 Ho2 O2 38.20(7) 2_555 . 2_555 n
Ho1 Ho2 O2 109.48(6) 2_555 . 3_555 n
Ho1 Ho2 O2 141.80(7) 2_555 . 4_555 n
Ho1 Ho2 O2 141.80(7) 2_555 . -5_456 n
Ho1 Ho2 O2 109.48(6) 2_555 . -6_556 n
Ho1 Ho2 O2 38.20(7) 2_555 . -7_546 n
Ho1 Ho2 O2 70.52(6) 2_555 . -8_556 n
Ho1 Ho2 Ho1 90.0 3_555 . 4_555 n
Ho1 Ho2 O2 141.80(7) 3_555 . 1_555 n
Ho1 Ho2 O2 70.52(6) 3_555 . 2_555 n
Ho1 Ho2 O2 38.20(7) 3_555 . 3_555 n
Ho1 Ho2 O2 109.48(6) 3_555 . 4_555 n
Ho1 Ho2 O2 70.52(6) 3_555 . -5_456 n
Ho1 Ho2 O2 141.80(7) 3_555 . -6_556 n
Ho1 Ho2 O2 109.48(6) 3_555 . -7_546 n
Ho1 Ho2 O2 38.20(7) 3_555 . -8_556 n
Ho1 Ho2 O2 109.48(6) 4_555 . 1_555 n
Ho1 Ho2 O2 141.80(7) 4_555 . 2_555 n
Ho1 Ho2 O2 70.52(6) 4_555 . 3_555 n
Ho1 Ho2 O2 38.20(7) 4_555 . 4_555 n
Ho1 Ho2 O2 38.20(7) 4_555 . -5_456 n
Ho1 Ho2 O2 70.52(6) 4_555 . -6_556 n
Ho1 Ho2 O2 141.80(7) 4_555 . -7_546 n
Ho1 Ho2 O2 109.48(6) 4_555 . -8_556 n
O2 Ho2 O2 74.26(6) 1_555 . 2_555 n
O2 Ho2 O2 117.23(13) 1_555 . 3_555 n
O2 Ho2 O2 74.26(6) 1_555 . 4_555 n
O2 Ho2 O2 142.68(12) 1_555 . -5_456 n
O2 Ho2 O2 76.39(13) 1_555 . -6_556 n
O2 Ho2 O2 75.35(12) 1_555 . -7_546 n
O2 Ho2 O2 141.05(11) 1_555 . -8_556 n
O2 Ho2 O2 74.26(6) 2_555 . 3_555 n
O2 Ho2 O2 117.23(13) 2_555 . 4_555 n
O2 Ho2 O2 141.05(11) 2_555 . -5_456 n
O2 Ho2 O2 142.68(12) 2_555 . -6_556 n
O2 Ho2 O2 76.39(13) 2_555 . -7_546 n
O2 Ho2 O2 75.35(12) 2_555 . -8_556 n
O2 Ho2 O2 74.26(6) 3_555 . 4_555 n
O2 Ho2 O2 75.35(12) 3_555 . -5_456 n
O2 Ho2 O2 141.05(11) 3_555 . -6_556 n
O2 Ho2 O2 142.68(12) 3_555 . -7_546 n
O2 Ho2 O2 76.39(13) 3_555 . -8_556 n
O2 Ho2 O2 76.39(13) 4_555 . -5_456 n
O2 Ho2 O2 75.35(12) 4_555 . -6_556 n
O2 Ho2 O2 141.05(11) 4_555 . -7_546 n
O2 Ho2 O2 142.68(12) 4_555 . -8_556 n
O2 Ho2 O2 74.26(6) -5_456 . -6_556 n
O2 Ho2 O2 117.23(13) -5_456 . -7_546 n
O2 Ho2 O2 74.26(6) -5_456 . -8_556 n
O2 Ho2 O2 74.26(6) -6_556 . -7_546 n
O2 Ho2 O2 117.23(13) -6_556 . -8_556 n
O2 Ho2 O2 74.26(6) -7_546 . -8_556 n
O1 Ge O1 106.87(26) 1_555 . -4_555 n
O1 Ge O2 104.63(14) 1_555 . 2_555 n
O1 Ge O2 108.87(17) 1_555 . -8_555 n
O1 Ge O2 108.87(17) -4_545 . 2_555 n
O1 Ge O2 104.63(14) -4_545 . -8_555 n
O2 Ge O2 122.18(19) 2_555 . -8_555 n
Ca O1 Ho1 0.0 3_555 . 3_555 n
Ca O1 Ge 110.07(13) 3_555 . 1_555 n
Ca O1 Ge 110.07(13) 3_555 . 6_665 n
Ho1 O1 Ge 110.07(13) 3_555 . 1_555 n
Ho1 O1 Ge 110.07(13) 3_555 . 6_665 n
Ge O1 Ge 127.30(20) 1_555 . 6_665 n
Ca O2 Ho1 0.0 1_555 . 1_555 n
Ca O2 Ho2 100.39(10) 1_555 . 1_555 n
Ca O2 Ge 129.25(16) 1_555 . 4_555 n
Ho1 O2 Ho2 100.39(10) 1_555 . 1_555 n
Ho1 O2 Ge 129.25(16) 1_555 . 4_555 n
Ho2 O2 Ge 129.36(15) 1_555 . 4_555 n
loop_
_geom_bond_atom_site_label_1
_geom_bond_atom_site_label_2
_geom_bond_distance
_geom_bond_site_symmetry_1
_geom_bond_site_symmetry_2
_geom_bond_publ_flag
Ca Ho2 3.532620(10) . 1_555 n
Ca Ho2 3.532620(10) . 5_545 n
Ca Ge 3.56459(4) . 3_555 n
Ca Ge 3.56459(4) . 3_556 n
Ca Ge 3.56459(4) . 4_555 n
Ca Ge 3.56459(4) . 4_556 n
Ca Ge 3.56459(4) . 7_455 n
Ca Ge 3.56459(4) . 7_456 n
Ca Ge 3.56459(4) . 8_445 n
Ca Ge 3.56459(4) . 8_446 n
Ca O1 2.517(4) . 3_555 n
Ca O1 2.517(4) . -3_446 n
Ca O2 2.2208(28) . 1_555 n
Ca O2 2.2208(28) . 6_555 n
Ca O2 2.2208(28) . -1_556 n
Ca O2 2.2208(28) . -6_556 n
Ho1 Ho2 3.532620(10) . 1_555 n
Ho1 Ho2 3.532620(10) . 5_545 n
Ho1 O1 2.517(4) . 3_555 n
Ho1 O1 2.517(4) . -3_446 n
Ho1 O2 2.2208(28) . 1_555 n
Ho1 O2 2.2208(28) . 6_555 n
Ho1 O2 2.2208(28) . -1_556 n
Ho1 O2 2.2208(28) . -6_556 n
Ho2 Ca 3.532620(10) . 1_555 n
Ho2 Ca 3.532620(10) . 2_555 n
Ho2 Ca 3.532620(10) . 3_555 n
Ho2 Ca 3.532620(10) . 4_555 n
Ho2 Ho1 3.532620(10) . 1_555 n
Ho2 Ho1 3.532620(10) . 2_555 n
Ho2 Ho1 3.532620(10) . 3_555 n
Ho2 Ho1 3.532620(10) . 4_555 n
Ho2 O2 2.3758(28) . 1_555 n
Ho2 O2 2.3758(28) . 2_555 n
Ho2 O2 2.3758(28) . 3_555 n
Ho2 O2 2.3758(28) . 4_555 n
Ho2 O2 2.3758(28) . -5_556 n
Ho2 O2 2.3758(28) . -6_556 n
Ho2 O2 2.3758(28) . -7_556 n
Ho2 O2 2.3758(28) . -8_556 n
Ge Ca 3.56459(4) . 2_554 n
Ge Ca 3.56459(4) . 2_555 n
Ge Ca 3.56459(4) . 3_554 n
Ge Ca 3.56459(4) . 3_555 n
Ge O1 1.8034(15) . 1_555 n
Ge O1 1.8034(15) . -4_645 n
Ge O2 1.7172(25) . 2_555 n
Ge O2 1.7172(25) . -8_555 n
O1 Ca 2.517(4) . 3_555 n
O1 Ho1 2.517(4) . 3_555 n
O1 Ge 1.8034(15) . 1_555 n
O1 Ge 1.8034(15) . 6_665 n
O2 Ca 2.2208(28) . 1_555 n
O2 Ho1 2.2208(28) . 1_555 n
O2 Ho2 2.3758(28) . 1_555 n
O2 Ge 1.7172(25) . 4_555 n
loop_
_pd_meas_counts_total
_pd_proc_ls_weight
_pd_proc_intensity_bkg_calc
_pd_calc_intensity_total
18372.0 0.0000544 18792.16992 18792.16602
18680.0 0.0000535 18634.40234 18634.40039
18342.0 0.0000545 18486.54883 18486.54688
18134.0 0.0000551 18348.02734 18348.02539
18012.0 0.0000555 18218.28320 18218.28125
17994.0 0.0000556 18096.77930 18096.77930
17964.0 0.0000557 17983.02734 17983.02734
17800.0 0.0000562 17876.53906 17876.53711
17719.0 0.0000564 17776.86523 17776.86523
17747.0 0.0000563 17683.57227 17683.57227
17736.0 0.0000564 17596.25195 17596.25195
17486.0 0.0000572 17514.51367 17514.51367
17809.0 0.0000562 17437.99023 17437.99023
17401.0 0.0000575 17366.32813 17366.32813
17428.0 0.0000574 17299.20117 17299.20117
17400.0 0.0000575 17236.29492 17236.29688
17188.0 0.0000582 17177.31055 17177.31055
17353.0 0.0000576 17121.97070 17121.97070
17126.0 0.0000584 17070.00977 17070.00977
17162.0 0.0000583 17021.17578 17021.17578
17267.0 0.0000579 16975.23438 16975.23438
16806.0 0.0000595 16931.96484 16931.96484
17093.0 0.0000585 16891.15820 16891.15820
17003.0 0.0000588 16852.61719 16852.61719
16707.0 0.0000599 16816.15820 16816.15820
16827.0 0.0000594 16781.60547 16781.60547
17085.0 0.0000585 16748.79883 16748.80078
16983.0 0.0000589 16717.58594 16717.58789
16772.0 0.0000596 16687.82422 16687.82422
16687.0 0.0000599 16659.38086 16659.38086
16799.0 0.0000595 16632.12695 16632.12891
16649.0 0.0000601 16605.95508 16605.95508
16623.0 0.0000602 16580.75391 16580.75391
16539.0 0.0000605 16556.42383 16556.42383
16459.0 0.0000608 16532.87109 16532.87109
16436.0 0.0000608 16510.00977 16510.00977
16572.0 0.0000603 16487.76367 16487.76367
16448.0 0.0000608 16466.05664 16466.05664
16553.0 0.0000604 16444.82031 16444.82031
16444.0 0.0000608 16423.99805 16423.99805
16426.0 0.0000609 16403.53125 16403.53125
16568.0 0.0000604 16383.36914 16383.36914
16444.0 0.0000608 16363.46289 16363.46387
16146.0 0.0000619 16343.77344 16343.77441
16434.0 0.0000608 16324.25977 16324.26074
16370.0 0.0000611 16304.88965 16304.89063
16413.0 0.0000609 16285.63184 16285.63184
15980.0 0.0000626 16266.45996 16266.45996
16002.0 0.0000625 16247.34961 16247.34961
15917.0 0.0000628 16228.28027 16228.28027
16162.0 0.0000619 16209.23340 16209.23438
16140.0 0.0000620 16190.19531 16190.19531
15918.0 0.0000628 16171.15039 16171.15137
15932.0 0.0000628 16152.09082 16152.09180
16065.0 0.0000622 16133.00781 16133.00879
15976.0 0.0000626 16113.89160 16113.89258
16100.0 0.0000621 16094.74219 16094.74316
15989.0 0.0000625 16075.55371 16075.55469
16063.0 0.0000623 16056.32520 16056.32617
15878.0 0.0000630 16037.05859 16037.05957
16051.0 0.0000623 16017.75098 16017.75195
15836.0 0.0000631 15998.40820 15998.40918
15801.0 0.0000633 15979.03223 15979.03320
15978.0 0.0000626 15959.62695 15959.62793
15827.0 0.0000632 15940.19824 15940.19922
15912.0 0.0000628 15920.75391 15920.75488
16055.0 0.0000623 15901.29785 15901.29883
15686.0 0.0000638 15881.83789 15881.83887
15751.0 0.0000635 15862.38281 15862.38379
15750.0 0.0000635 15842.93945 15842.94043
15735.0 0.0000636 15823.51758 15823.51855
15723.0 0.0000636 15804.12402 15804.12500
15704.0 0.0000637 15784.76953 15784.77051
15740.0 0.0000635 15765.46289 15765.46387
15587.0 0.0000642 15746.21387 15746.21582
15648.0 0.0000639 15727.03223 15727.03320
15650.0 0.0000639 15707.92578 15707.92676
15538.0 0.0000644 15688.90430 15688.90625
15389.0 0.0000650 15669.97754 15669.97852
15499.0 0.0000645 15651.15430 15651.15625
15503.0 0.0000645 15632.44336 15632.44434
15564.0 0.0000643 15613.85449 15613.85547
15512.0 0.0000645 15595.39648 15595.39746
15556.0 0.0000643 15577.07617 15577.07813
15532.0 0.0000644 15558.90332 15558.90527
15506.0 0.0000645 15540.88574 15540.88672
15534.0 0.0000644 15523.03027 15523.03125
15557.0 0.0000643 15505.34473 15505.34570
15502.0 0.0000645 15487.83398 15487.83496
15583.0 0.0000642 15470.50684 15470.50879
15528.0 0.0000644 15453.37109 15453.37207
15333.0 0.0000652 15436.42871 15436.43066
15288.0 0.0000654 15419.68848 15419.68945
15251.0 0.0000656 15403.15332 15403.15430
15262.0 0.0000655 15386.82910 15386.83105
15452.0 0.0000647 15370.71973 15370.72168
15231.0 0.0000657 15354.82715 15354.82813
15381.0 0.0000650 15339.15918 15339.16016
15087.0 0.0000663 15323.71582 15323.71680
15426.0 0.0000648 15308.50000 15308.50195
15296.0 0.0000654 15293.51465 15293.51660
15404.0 0.0000649 15278.76172 15278.76367
15397.0 0.0000649 15264.24316 15264.24414
15303.0 0.0000653 15249.95703 15249.95898
15236.0 0.0000656 15235.90723 15235.90820
15264.0 0.0000655 15222.09277 15222.09375
15387.0 0.0000650 15208.51465 15208.51563
15404.0 0.0000649 15195.16992 15195.17188
15347.0 0.0000652 15182.06152 15182.06250
15102.0 0.0000662 15169.18555 15169.18652
15355.0 0.0000651 15156.54004 15156.54102
15312.0 0.0000653 15144.12402 15144.12598
15270.0 0.0000655 15131.93652 15131.93750
15169.0 0.0000659 15119.97168 15119.97266
15297.0 0.0000654 15108.22949 15108.23047
15085.0 0.0000663 15096.70703 15096.70801
14970.0 0.0000668 15085.39941 15085.40039
15176.0 0.0000659 15074.30371 15074.30469
15142.0 0.0000660 15063.41504 15063.41602
14999.0 0.0000667 15052.72852 15052.72949
15169.0 0.0000659 15042.24219 15042.24316
15151.0 0.0000660 15031.94824 15031.94922
15171.0 0.0000659 15021.84375 15021.84473
15101.0 0.0000662 15011.92383 15011.92480
14960.0 0.0000668 15002.18164 15002.18262
15260.0 0.0000655 14992.61133 14992.61230
15180.0 0.0000659 14983.20996 14983.20996
15121.0 0.0000661 14973.96777 14973.96875
15070.0 0.0000664 14964.87988 14964.88086
14894.0 0.0000671 14955.94043 14955.94141
15086.0 0.0000663 14947.14453 14947.14453
15138.0 0.0000661 14938.48340 14938.48340
15012.0 0.0000666 14929.95117 14929.95117
15144.0 0.0000660 14921.54102 14921.54102
14910.0 0.0000671 14913.24609 14913.24707
14920.0 0.0000670 14905.06055 14905.06152
15062.0 0.0000664 14896.97559 14896.97559
15033.0 0.0000665 14888.98535 14888.98535
15012.0 0.0000666 14881.08105 14881.08203
14848.0 0.0000673 14873.25879 14873.25879
15011.0 0.0000666 14865.50879 14865.50879
14789.0 0.0000676 14857.82520 14857.82520
14859.0 0.0000673 14850.19922 14850.20020
14889.0 0.0000672 14842.62598 14842.62598
15022.0 0.0000666 14835.09668 14835.09668
14977.0 0.0000668 14827.60449 14827.60449
14841.0 0.0000674 14820.14063 14820.14063
14972.0 0.0000668 14812.70117 14812.70117
14785.0 0.0000676 14805.27832 14805.27832
14611.0 0.0000684 14797.86426 14797.86426
14718.0 0.0000679 14790.45117 14790.45117
14914.0 0.0000671 14783.03418 14783.03418
14929.0 0.0000670 14775.60547 14775.60547
14977.0 0.0000668 14768.15820 14768.15820
14782.0 0.0000676 14760.68457 14760.68457
14907.0 0.0000671 14753.18066 14753.18066
14960.0 0.0000668 14745.63965 14745.63867
14884.0 0.0000672 14738.05371 14738.05273
14613.0 0.0000684 14730.41699 14730.41699
14789.0 0.0000676 14722.72461 14722.72363
14838.0 0.0000674 14714.96875 14714.96875
14442.0 0.0000692 14707.14551 14707.14453
14868.0 0.0000673 14699.24805 14699.24707
14738.0 0.0000679 14691.26953 14691.26953
14806.0 0.0000675 14683.20703 14683.20703
14755.0 0.0000678 14675.05469 14675.05469
14795.0 0.0000676 14666.80762 14666.80664
14748.0 0.0000678 14658.45996 14658.45898
14717.0 0.0000679 14650.00684 14650.00586
14565.0 0.0000687 14641.44434 14641.44336
14705.0 0.0000680 14632.76758 14632.76660
14826.0 0.0000674 14623.97070 14623.96973
14736.0 0.0000679 14615.05273 14615.05176
14435.0 0.0000693 14606.00781 14606.00684
14566.0 0.0000687 14596.83203 14596.83105
14868.0 0.0000673 14587.52246 14587.52148
14606.0 0.0000685 14578.07617 14578.07520
14464.0 0.0000691 14568.48828 14568.48730
14392.0 0.0000695 14558.75684 14558.75586
14514.0 0.0000689 14548.87695 14548.87598
14707.0 0.0000680 14538.84863 14538.84766
14611.0 0.0000684 14528.66895 14528.66797
14529.0 0.0000688 14518.33398 14518.33301
14286.0 0.0000700 14507.84277 14507.84180
14406.0 0.0000694 14497.19238 14497.19141
14393.0 0.0000695 14486.38086 14486.37988
14424.0 0.0000693 14475.40820 14475.40723
14555.0 0.0000687 14464.27148 14464.27051
14398.0 0.0000695 14452.96875 14452.96777
14265.0 0.0000701 14441.50000 14441.49902
14386.0 0.0000695 14429.86523 14429.86426
14286.0 0.0000700 14418.06250 14418.06152
14434.0 0.0000693 14406.09082 14406.08984
14173.0 0.0000706 14393.95020 14393.94922
14237.0 0.0000702 14381.64063 14381.63965
14128.0 0.0000708 14369.16113 14369.15918
14319.0 0.0000698 14356.51270 14356.51172
14118.0 0.0000708 14343.69629 14343.69531
14236.0 0.0000702 14330.71094 14330.70996
14116.0 0.0000708 14317.55664 14317.55566
14038.0 0.0000712 14304.23633 14304.23535
14150.0 0.0000707 14290.74902 14290.74805
14204.0 0.0000704 14277.09668 14277.09570
14298.0 0.0000699 14263.28027 14263.27930
14098.0 0.0000709 14249.29980 14249.29883
14082.0 0.0000710 14235.15918 14235.15820
14176.0 0.0000705 14220.85938 14220.85742
14191.0 0.0000705 14206.40039 14206.39941
13876.0 0.0000721 14191.78613 14191.78516
14096.0 0.0000709 14177.01855 14177.01758
14198.0 0.0000704 14162.09766 14162.09668
14109.0 0.0000709 14147.02832 14147.02734
14057.0 0.0000711 14131.81152 14131.81055
13976.0 0.0000716 14116.44922 14116.44824
13879.0 0.0000721 14100.94629 14100.94531
13959.0 0.0000716 14085.30371 14085.30273
13835.0 0.0000723 14069.52539 14069.52441
14071.0 0.0000711 14053.61328 14053.61230
13906.0 0.0000719 14037.57031 14037.57031
14058.0 0.0000711 14021.40137 14021.40039
13868.0 0.0000721 14005.10742 14005.10742
13982.0 0.0000715 13988.69434 13988.69336
13957.0 0.0000716 13972.16406 13972.16406
13835.0 0.0000723 13955.52148 13955.52051
13807.0 0.0000724 13938.76758 13938.76758
13881.0 0.0000720 13921.90918 13921.90820
13917.0 0.0000719 13904.94727 13904.94727
13744.0 0.0000728 13887.88867 13887.88770
13599.0 0.0000735 13870.73438 13870.73340
13498.0 0.0000741 13853.48828 13853.48828
13696.0 0.0000730 13836.15820 13836.15723
13717.0 0.0000729 13818.74512 13818.74414
13744.0 0.0000728 13801.25391 13801.25293
13597.0 0.0000735 13783.68848 13783.68848
13620.0 0.0000734 13766.05469 13766.05371
13445.0 0.0000744 13748.35449 13748.35352
13748.0 0.0000727 13730.59375 13730.59277
13608.0 0.0000735 13712.77637 13712.77539
13675.0 0.0000731 13694.90430 13694.90430
13569.0 0.0000737 13676.98730 13676.98730
13636.0 0.0000733 13659.02637 13659.02539
13568.0 0.0000737 13641.02637 13641.02539
13517.0 0.0000740 13622.99219 13622.99121
13466.0 0.0000743 13604.92773 13604.92676
13472.0 0.0000742 13586.83789 13586.83789
13448.0 0.0000744 13568.72656 13568.72656
13579.0 0.0000736 13550.59961 13550.59863
13433.0 0.0000744 13532.46094 13532.45996
13417.0 0.0000745 13514.31445 13514.31445
13510.0 0.0000740 13496.16602 13496.16504
13218.0 0.0000757 13478.01855 13478.01758
13349.0 0.0000749 13459.87695 13459.87695
13329.0 0.0000750 13441.74609 13441.74609
13290.0 0.0000752 13423.63086 13423.63086
13287.0 0.0000753 13405.53418 13405.53418
13311.0 0.0000751 13387.46191 13387.46191
13215.0 0.0000757 13369.41797 13369.41797
13307.0 0.0000751 13351.40723 13351.40723
13406.0 0.0000746 13333.43262 13333.43262
13418.0 0.0000745 13315.50000 13315.50000
13197.0 0.0000758 13297.61328 13297.61328
13529.0 0.0000739 13279.77539 13279.77539
13306.0 0.0000752 13261.99219 13261.99121
13166.0 0.0000760 13244.26465 13244.26465
13319.0 0.0000751 13226.60059 13226.60059
13165.0 0.0000760 13209.00391 13209.00391
13250.0 0.0000755 13191.47559 13191.47559
13202.0 0.0000757 13174.02246 13174.02246
13148.0 0.0000761 13156.64746 13156.64746
13245.0 0.0000755 13139.35254 13139.35254
13042.0 0.0000767 13122.14355 13122.14355
13212.0 0.0000757 13105.02344 13105.02344
13334.0 0.0000750 13087.99707 13087.99707
13200.0 0.0000758 13071.06641 13071.06641
12944.0 0.0000773 13054.23535 13054.23535
13030.0 0.0000767 13037.50781 13037.50781
13131.0 0.0000762 13020.88574 13020.88574
13200.0 0.0000758 13004.37500 13004.37500
13055.0 0.0000766 12987.97559 12987.97656
13066.0 0.0000765 12971.69238 12971.69238
12870.0 0.0000777 12955.52832 12955.52832
12898.0 0.0000775 12939.48730 12939.48730
13038.0 0.0000767 12923.57031 12923.57031
13026.0 0.0000768 12907.78125 12907.78125
13012.0 0.0000769 12892.12305 12892.12305
12928.0 0.0000774 12876.59766 12876.59766
12854.0 0.0000778 12861.20801 12861.20801
13007.0 0.0000769 12845.95605 12845.95605
13047.0 0.0000766 12830.84375 12830.84375
12903.0 0.0000775 12815.87598 12815.87598
12941.0 0.0000773 12801.05176 12801.05176
13103.0 0.0000763 12786.37598 12786.37598
12917.0 0.0000774 12771.84863 12771.84863
12841.0 0.0000779 12757.47266 12757.47266
12886.0 0.0000776 12743.24902 12743.25000
12781.0 0.0000782 12729.18066 12729.18066
12756.0 0.0000784 12715.26855 12715.26855
12767.0 0.0000783 12701.51465 12701.51465
12755.0 0.0000784 12687.91992 12687.91992
12574.0 0.0000795 12674.48633 12674.48633
12813.0 0.0000780 12661.21484 12661.21484
12917.0 0.0000774 12648.10645 12648.10742
12847.0 0.0000778 12635.16309 12635.16309
12543.0 0.0000797 12622.38379 12622.38379
12881.0 0.0000776 12609.77246 12609.77246
12847.0 0.0000778 12597.32813 12597.32813
12766.0 0.0000783 12585.05273 12585.05273
12762.0 0.0000784 12572.94531 12572.94531
12711.0 0.0000787 12561.00684 12561.00781
12614.0 0.0000793 12549.23926 12549.23926
12770.0 0.0000783 12537.64160 12537.64160
12692.0 0.0000788 12526.21289 12526.21289
12818.0 0.0000780 12514.95703 12514.95703
12585.0 0.0000795 12503.87109 12503.87109
12660.0 0.0000790 12492.95605 12492.95703
12561.0 0.0000796 12482.21289 12482.21289
12425.0 0.0000805 12471.63965 12471.63965
12867.0 0.0000777 12461.23730 12461.23730
12492.0 0.0000801 12451.00488 12451.00488
12443.0 0.0000804 12440.94238 12440.94238
12584.0 0.0000795 12431.04883 12431.04980
12607.0 0.0000793 12421.32324 12421.32422
12669.0 0.0000789 12411.76758 12411.76758
12418.0 0.0000805 12402.37793 12402.37891
12434.0 0.0000804 12393.15625 12393.15625
12567.0 0.0000796 12384.09961 12384.09961
12562.0 0.0000796 12375.20703 12375.20703
12641.0 0.0000791 12366.47852 12366.47949
12452.0 0.0000803 12357.91211 12357.91211
12314.0 0.0000812 12349.50781 12349.50781
12420.0 0.0000805 12341.26367 12341.26367
12319.0 0.0000812 12333.17773 12333.17871
12484.0 0.0000801 12325.24902 12325.24902
12490.0 0.0000801 12317.47656 12317.47754
12303.0 0.0000813 12309.85840 12309.85840
12382.0 0.0000808 12302.39258 12302.39258
12311.0 0.0000812 12295.07715 12295.07715
12367.0 0.0000809 12287.91113 12287.91113
12255.0 0.0000816 12280.89258 12280.89258
12454.0 0.0000803 12274.01953 12274.01953
12284.0 0.0000814 12267.28906 12267.28906
12320.0 0.0000812 12260.70020 12260.70020
12321.0 0.0000812 12254.25098 12254.25098
12313.0 0.0000812 12247.93848 12247.93848
12319.0 0.0000812 12241.76172 12241.76172
12194.0 0.0000820 12235.71680 12235.71680
12280.0 0.0000814 12229.80176 12229.80176
12282.0 0.0000814 12224.01465 12224.01465
12034.0 0.0000831 12218.35449 12218.35449
12265.0 0.0000815 12212.81641 12212.81641
12232.0 0.0000818 12207.39941 12207.39941
12324.0 0.0000811 12202.09961 12202.09961
12269.0 0.0000815 12196.91602 12196.91602
12419.0 0.0000805 12191.84375 12191.84375
12209.0 0.0000819 12186.88184 12186.88184
12108.0 0.0000826 12182.02832 12182.02832
12019.0 0.0000832 12177.27832 12177.27832
12239.0 0.0000817 12172.63086 12172.63086
12094.0 0.0000827 12168.08105 12168.08105
11935.0 0.0000838 12163.62793 12163.62793
12077.0 0.0000828 12159.26758 12159.26758
12032.0 0.0000831 12154.99707 12154.99609
12202.0 0.0000820 12150.81348 12150.81250
12186.0 0.0000821 12146.71387 12146.71387
12151.0 0.0000823 12142.69531 12142.69531
11889.0 0.0000841 12138.75391 12138.75391
12354.0 0.0000809 12134.88867 12134.88867
12113.0 0.0000826 12131.09375 12131.09375
12181.0 0.0000821 12127.36816 12127.36816
11995.0 0.0000834 12123.70801 12123.70801
12140.0 0.0000824 12120.11035 12120.10938
12058.0 0.0000829 12116.56934 12116.56934
12116.0 0.0000825 12113.08594 12113.08496
12016.0 0.0000832 12109.65430 12109.65430
12193.0 0.0000820 12106.27246 12106.27246
12141.0 0.0000824 12102.93652 12102.93652
12011.0 0.0000833 12099.64355 12099.64355
12154.0 0.0000823 12096.38965 12096.38965
11798.0 0.0000848 12093.17090 12093.17090
11920.0 0.0000839 12089.98633 12089.98633
11993.0 0.0000834 12086.83105 12086.83105
11940.0 0.0000838 12083.70313 12083.70313
12057.0 0.0000829 12080.59766 12080.59766
12056.0 0.0000829 12077.51172 12077.51172
12048.0 0.0000830 12074.44238 12074.44141
12106.0 0.0000826 12071.38672 12071.38574
11990.0 0.0000834 12068.33887 12068.33887
11988.0 0.0000834 12065.29980 12065.29980
11728.0 0.0000853 12062.26367 12062.26270
11754.0 0.0000851 12059.22754 12059.22754
11805.0 0.0000847 12056.18848 12056.18848
12020.0 0.0000832 12053.14355 12053.14258
12010.0 0.0000833 12050.08789 12050.08789
11927.0 0.0000838 12047.02051 12047.02051
12141.0 0.0000824 12043.93750 12043.93652
12000.0 0.0000833 12040.83398 12040.83398
11956.0 0.0000836 12037.70898 12037.70801
11934.0 0.0000838 12034.55762 12034.55762
11951.0 0.0000837 12031.37988 12031.37891
12169.0 0.0000822 12028.16895 12028.16895
11766.0 0.0000850 12024.92383 12024.92383
12042.0 0.0000830 12021.64160 12021.64063
12016.0 0.0000832 12018.31738 12018.31738
11828.0 0.0000845 12014.94922 12014.94922
11868.0 0.0000843 12011.53613 12011.53516
12115.0 0.0000825 12008.07227 12008.07227
12023.0 0.0000832 12004.55664 12004.55566
12094.0 0.0000827 12000.98535 12000.98438
11933.0 0.0000838 11997.35547 11997.35449
11886.0 0.0000841 11993.66406 11993.66406
11879.0 0.0000842 11989.91016 11989.90918
11866.0 0.0000843 11986.08789 11986.08691
12145.0 0.0000823 11982.19727 11982.19629
11979.0 0.0000835 11978.23438 11978.23438
12019.0 0.0000832 11974.19727 11974.19727
11835.0 0.0000845 11970.08301 11970.08301
11965.0 0.0000836 11965.88867 11965.88867
12012.0 0.0000833 11961.61230 11961.61230
11951.0 0.0000837 11957.25098 11957.25098
11823.0 0.0000846 11952.80273 11952.80176
11943.0 0.0000837 11948.26465 11948.26367
11784.0 0.0000849 11943.63281 11943.63281
11973.0 0.0000835 11938.90820 11938.90820
11957.0 0.0000836 11934.08789 11934.08691
12039.0 0.0000831 11929.16797 11929.16699
11891.0 0.0000841 11924.14648 11924.14648
11821.0 0.0000846 11919.02246 11919.02246
12016.0 0.0000832 11913.79297 11913.79297
12006.0 0.0000833 11908.45605 11908.45508
12187.0 0.0000821 11903.00977 11903.00977
11955.0 0.0000836 11897.45215 11897.45215
11979.0 0.0000835 11891.78223 11891.78223
11834.0 0.0000845 11885.99707 11885.99707
11783.0 0.0000849 11880.09570 11880.09473
11799.0 0.0000848 11874.07422 11874.07422
12019.0 0.0000832 11867.93359 11867.93359
11754.0 0.0000851 11861.66992 11861.66992
11854.0 0.0000844 11855.28418 11855.28418
11807.0 0.0000847 11848.77344 11848.77246
11861.0 0.0000843 11842.13574 11842.13574
11791.0 0.0000848 11835.37012 11835.36914
11996.0 0.0000834 11828.47461 11828.47461
11927.0 0.0000838 11821.44922 11832.94629
11847.0 0.0000844 11814.29102 11826.06934
11748.0 0.0000851 11806.99902 11819.06836
11754.0 0.0000851 11799.57520 11811.94727
11687.0 0.0000856 11792.01270 11804.69824
11883.0 0.0000842 11784.31543 11797.32715
11776.0 0.0000849 11776.48047 11789.83008
11765.0 0.0000850 11768.50586 11782.20801
11776.0 0.0000849 11760.39258 11774.46094
11744.0 0.0000851 11752.13867 11766.58789
11624.0 0.0000860 11743.74414 11758.58984
11713.0 0.0000854 11735.20605 11750.46484
11774.0 0.0000849 11726.52637 11742.21680
11543.0 0.0000866 11717.70410 11733.84375
11639.0 0.0000859 11708.73730 11725.34570
11514.0 0.0000869 11699.62598 11716.72363
11707.0 0.0000854 11690.37012 11707.97949
11625.0 0.0000860 11680.96777 11699.11133
11586.0 0.0000863 11671.42090 11690.12500
11804.0 0.0000847 11661.72656 11681.01563
11457.0 0.0000873 11651.88672 11671.79004
11495.0 0.0000870 11641.90039 11662.44824
11660.0 0.0000858 11631.76855 11652.99121
11667.0 0.0000857 11621.48828 11643.41992
11487.0 0.0000871 11611.06250 11633.73926
11669.0 0.0000857 11600.48828 11623.94922
11480.0 0.0000871 11589.76855 11614.05469
11768.0 0.0000850 11578.90039 11604.05664
11537.0 0.0000867 11567.88770 11593.96094
11441.0 0.0000874 11556.72656 11583.76758
11371.0 0.0000879 11545.42090 11573.48535
11468.0 0.0000872 11533.96875 11563.11621
11621.0 0.0000861 11522.37109 11552.66504
11378.0 0.0000879 11510.62891 11542.13770
11349.0 0.0000881 11498.74121 11531.54102
11557.0 0.0000865 11486.70996 11520.88086
11330.0 0.0000883 11474.53418 11510.16211
11276.0 0.0000887 11462.21680 11499.39941
11287.0 0.0000886 11449.75586 11488.59766
11406.0 0.0000877 11437.15430 11477.76660
11232.0 0.0000890 11424.41113 11466.91895
11339.0 0.0000882 11411.52832 11456.06738
11470.0 0.0000872 11398.50586 11445.22559
11258.0 0.0000888 11385.34570 11434.41016
11210.0 0.0000892 11372.04590 11423.63574
11161.0 0.0000896 11358.61230 11412.92676
11290.0 0.0000886 11345.04102 11402.30371
11332.0 0.0000882 11331.33691 11391.79395
11337.0 0.0000882 11317.49902 11381.42383
11196.0 0.0000893 11303.52832 11371.23047
11429.0 0.0000875 11289.42773 11361.25000
11176.0 0.0000895 11275.19629 11351.52832
11231.0 0.0000890 11260.83496 11342.11426
11055.0 0.0000905 11246.34863 11333.07227
11216.0 0.0000892 11231.73535 11324.46875
11004.0 0.0000909 11216.99805 11316.38867
11059.0 0.0000904 11202.13770 11308.92871
11153.0 0.0000897 11187.15625 11302.20508
10995.0 0.0000910 11172.05371 11296.35840
10938.0 0.0000914 11156.83203 11291.55566
11115.0 0.0000900 11141.49512 11288.00293
11216.0 0.0000892 11126.04004 11285.95020
11249.0 0.0000889 11110.47266 11285.71094
11115.0 0.0000900 11094.79297 11287.67285
11115.0 0.0000900 11079.00391 11292.33008
11216.0 0.0000892 11063.10449 11300.30664
11194.0 0.0000893 11047.09961 11312.41992
11395.0 0.0000878 11030.98926 11329.73926
11496.0 0.0000870 11014.77539 11353.68945
11559.0 0.0000865 10998.45801 11386.22461
11736.0 0.0000852 10982.04395 11430.13477
11980.0 0.0000835 10965.53027 11489.82324
12211.0 0.0000819 10948.92285 11573.56836
12444.0 0.0000804 10932.22070 11699.82813
13274.0 0.0000753 10915.42676 11912.06250
14035.0 0.0000713 10898.54297 12305.73145
14398.0 0.0000695 10881.57129 13062.93359
15912.0 0.0000628 10864.51367 14473.88281
17587.0 0.0000569 10847.37305 16906.13672
20031.0 0.0000499 10830.15039 20667.40039
23093.0 0.0000433 10812.84961 25748.60156
27615.0 0.0000362 10795.47070 31640.96875
32702.0 0.0000306 10778.01758 37189.93359
38350.0 0.0000261 10760.49121 40706.82422
42320.0 0.0000236 10742.89355 40964.75781
41192.0 0.0000243 10725.22949 37455.87500
33964.0 0.0000294 10707.49707 31154.79297
25711.0 0.0000389 10689.70215 24392.70313
19629.0 0.0000509 10671.84473 18931.53516
15928.0 0.0000628 10653.92871 15314.41699
13621.0 0.0000734 10635.95605 13268.27637
12148.0 0.0000823 10617.92871 12230.85938
11615.0 0.0000861 10599.84863 11716.98828
11418.0 0.0000876 10581.71875 11437.23828
11215.0 0.0000892 10563.54004 11257.47754
10798.0 0.0000926 10545.31738 11124.97852
10784.0 0.0000927 10527.05078 11019.66309
10590.0 0.0000944 10508.74512 10932.66504
10643.0 0.0000940 10490.40039 10859.01563
10743.0 0.0000931 10472.02051 10795.44629
10638.0 0.0000940 10453.60645 10739.64063
10630.0 0.0000941 10435.16211 10689.91309
10487.0 0.0000954 10416.68750 10645.00684
10356.0 0.0000966 10398.18848 10603.97754
10508.0 0.0000952 10379.66602 10566.09375
10494.0 0.0000953 10361.12207 10530.79395
10411.0 0.0000961 10342.55859 10497.63379
10461.0 0.0000956 10323.97949 10466.26074
10193.0 0.0000981 10305.38574 10436.39160
10297.0 0.0000971 10286.78027 10407.79785
10293.0 0.0000972 10268.16602 10380.29492
10059.0 0.0000994 10249.54395 10353.72754
10154.0 0.0000985 10230.91895 10327.97168
10275.0 0.0000973 10212.29199 10302.92188
10056.0 0.0000994 10193.66504 10278.48828
10227.0 0.0000978 10175.04199 10254.59863
10200.0 0.0000980 10156.42383 10231.18945
10058.0 0.0000994 10137.81250 10208.20801
10091.0 0.0000991 10119.21191 10185.60938
10023.0 0.0000998 10100.62305 10163.35254
10023.0 0.0000998 10082.04980 10141.40723
9995.0 0.0001001 10063.49414 10119.74316
10107.0 0.0000989 10044.95801 10098.33887
10126.0 0.0000988 10026.44336 10077.16797
10092.0 0.0000991 10007.95313 10056.21582
9950.0 0.0001005 9989.48926 10035.46484
9975.0 0.0001003 9971.05566 10014.90234
10178.0 0.0000983 9952.65039 9994.51367
10011.0 0.0000999 9934.28125 9974.29199
9944.0 0.0001006 9915.94727 9954.22559
9941.0 0.0001006 9897.65137 9934.30762
10107.0 0.0000989 9879.39648 9914.53027
10046.0 0.0000995 9861.18359 9894.89063
9940.0 0.0001006 9843.01465 9875.37793
9897.0 0.0001010 9824.89355 9855.99316
9838.0 0.0001016 9806.82227 9836.72852
9808.0 0.0001020 9788.80078 9817.58301
9841.0 0.0001016 9770.83398 9798.55371
9714.0 0.0001029 9752.92188 9779.63867
9828.0 0.0001018 9735.06934 9760.83398
9872.0 0.0001013 9717.27441 9742.13867
9677.0 0.0001033 9699.54297 9723.55273
9678.0 0.0001033 9681.87500 9705.07324
9797.0 0.0001021 9664.27441 9686.70117
9569.0 0.0001045 9646.73926 9668.43359
9640.0 0.0001037 9629.27637 9650.27246
9723.0 0.0001028 9611.88477 9632.21680
9833.0 0.0001017 9594.56738 9614.26563
9609.0 0.0001041 9577.32520 9596.41992
9540.0 0.0001048 9560.16211 9578.67871
9502.0 0.0001052 9543.07715 9561.04395
9577.0 0.0001044 9526.07520 9543.51465
9597.0 0.0001042 9509.15527 9526.09082
9500.0 0.0001053 9492.32129 9508.77441
9619.0 0.0001040 9475.57422 9491.56445
9458.0 0.0001057 9458.91699 9474.46387
9560.0 0.0001046 9442.34863 9457.47168
9409.0 0.0001063 9425.87402 9440.58789
9440.0 0.0001059 9409.49219 9423.81641
9423.0 0.0001061 9393.20508 9407.15137
9503.0 0.0001052 9377.01758 9390.60254
9384.0 0.0001066 9360.92578 9374.16504
9440.0 0.0001059 9344.93652 9357.84082
9301.0 0.0001075 9329.04883 9341.63086
9340.0 0.0001071 9313.26465 9325.53613
9394.0 0.0001065 9297.58496 9309.55762
9272.0 0.0001079 9282.01172 9293.69727
9425.0 0.0001061 9266.54590 9266.54688
9412.0 0.0001062 9251.18945 9251.19141
9301.0 0.0001075 9235.94238 9235.94434
9387.0 0.0001065 9220.80859 9220.81055
9286.0 0.0001077 9205.78809 9205.78906
9394.0 0.0001065 9190.88184 9190.88281
9268.0 0.0001079 9176.09082 9176.09180
9244.0 0.0001082 9161.41699 9161.41895
9188.0 0.0001088 9146.86133 9146.86328
9171.0 0.0001090 9132.42480 9132.42676
9170.0 0.0001091 9118.10742 9118.10938
9164.0 0.0001091 9103.91309 9103.91504
9348.0 0.0001070 9089.84082 9089.84277
9148.0 0.0001093 9075.89258 9075.89355
9112.0 0.0001097 9062.06836 9062.06934
9322.0 0.0001073 9048.37012 9048.37109
9228.0 0.0001084 9034.79785 9034.79883
9076.0 0.0001102 9021.35254 9021.35352
9249.0 0.0001081 9008.03711 9008.03809
9155.0 0.0001092 8994.84863 8994.84961
9167.0 0.0001091 8981.79102 8981.79199
9066.0 0.0001103 8968.86328 8968.86523
9115.0 0.0001097 8956.06836 8956.06934
9178.0 0.0001090 8943.40430 8943.40625
9036.0 0.0001107 8930.87402 8930.87500
9079.0 0.0001101 8918.47656 8918.47754
8997.0 0.0001111 8906.21289 8906.21387
9120.0 0.0001096 8894.08301 8894.08398
9038.0 0.0001106 8882.08984 8882.09082
9171.0 0.0001090 8870.23145 8870.23242
9239.0 0.0001082 8858.50977 8858.51074
9193.0 0.0001088 8846.92383 8846.92578
9242.0 0.0001082 8835.47559 8835.47754
9335.0 0.0001071 8824.16504 8824.16602
9450.0 0.0001058 8812.99121 8812.99219
9327.0 0.0001072 8801.95508 8801.95605
9095.0 0.0001100 8791.05859 8791.05957
9064.0 0.0001103 8780.29980 8780.30078
9057.0 0.0001104 8769.68066 8769.68164
8762.0 0.0001141 8759.19922 8759.20020
8962.0 0.0001116 8748.85840 8748.85840
8932.0 0.0001120 8738.65527 8738.65625
8855.0 0.0001129 8728.59180 8728.59180
8721.0 0.0001147 8718.66797 8718.66895
8728.0 0.0001146 8708.88379 8708.88477
8756.0 0.0001142 8699.23926 8699.24023
8819.0 0.0001134 8689.73340 8689.73438
8812.0 0.0001135 8680.36816 8680.36816
8842.0 0.0001131 8671.14063 8671.14160
8738.0 0.0001144 8662.05371 8662.05371
8762.0 0.0001141 8653.10449 8653.10547
8806.0 0.0001136 8644.29492 8644.29590
8804.0 0.0001136 8635.62207 8635.62305
8649.0 0.0001156 8627.08984 8627.08984
8774.0 0.0001140 8618.69434 8618.69531
8830.0 0.0001133 8610.43750 8610.43750
8815.0 0.0001134 8602.31738 8602.31738
8509.0 0.0001175 8594.33496 8594.33496
8594.0 0.0001164 8586.48828 8586.48828
8722.0 0.0001147 8578.77832 8578.77832
8562.0 0.0001168 8571.20313 8571.20313
8514.0 0.0001175 8563.76367 8563.76465
8637.0 0.0001158 8556.45996 8556.45996
8701.0 0.0001149 8549.29004 8549.29004
8671.0 0.0001153 8542.25293 8542.25391
8501.0 0.0001176 8535.34961 8535.35059
8733.0 0.0001145 8528.57910 8528.57910
8657.0 0.0001155 8521.93945 8521.93945
8631.0 0.0001159 8515.43164 8515.43164
8587.0 0.0001165 8509.05371 8509.05469
8575.0 0.0001166 8502.80566 8502.80664
8497.0 0.0001177 8496.68750 8496.68750
8541.0 0.0001171 8490.69629 8490.69727
8556.0 0.0001169 8484.83398 8484.83398
8441.0 0.0001185 8479.09668 8479.09766
8522.0 0.0001173 8473.48633 8473.48633
8608.0 0.0001162 8468.00000 8468.00000
8515.0 0.0001174 8462.63672 8462.63770
8441.0 0.0001185 8457.39844 8457.39844
8412.0 0.0001189 8452.28125 8452.28125
8409.0 0.0001189 8447.28516 8447.28516
8434.0 0.0001186 8442.41016 8442.41016
8560.0 0.0001168 8437.65332 8438.22754
8408.0 0.0001189 8433.01465 8433.60254
8411.0 0.0001189 8428.49316 8429.09570
8428.0 0.0001187 8424.08691 8424.70508
8509.0 0.0001175 8419.79590 8420.42969
8459.0 0.0001182 8415.61914 8416.26855
8607.0 0.0001162 8411.55469 8412.22168
8459.0 0.0001182 8407.60156 8408.28613
8234.0 0.0001214 8403.75977 8404.46289
8415.0 0.0001188 8400.02539 8400.74707
8565.0 0.0001168 8396.39941 8397.14160
8343.0 0.0001199 8392.87988 8393.64258
8405.0 0.0001190 8389.46582 8390.25000
8397.0 0.0001191 8386.15625 8388.35840
8351.0 0.0001197 8382.94922 8385.20898
8233.0 0.0001215 8379.84375 8382.16309
8386.0 0.0001192 8376.83887 8379.22070
8291.0 0.0001206 8373.93262 8376.37988
8375.0 0.0001194 8371.12305 8373.63770
8332.0 0.0001200 8368.40918 8370.99414
8232.0 0.0001215 8365.79199 8368.45215
8250.0 0.0001212 8363.26660 8366.00293
8434.0 0.0001186 8360.83398 8363.65137
8181.0 0.0001222 8358.49121 8361.39258
8306.0 0.0001204 8356.23828 8359.22656
8141.0 0.0001228 8354.07227 8357.15332
8361.0 0.0001196 8351.99219 8355.16992
8125.0 0.0001231 8349.99707 8353.27441
8247.0 0.0001213 8348.08496 8351.46973
8200.0 0.0001220 8346.25488 8349.75000
8215.0 0.0001217 8344.50391 8348.11621
8273.0 0.0001209 8342.83301 8346.56836
8295.0 0.0001206 8341.23828 8345.10254
8185.0 0.0001222 8339.71973 8343.71875
8078.0 0.0001238 8338.27441 8342.41895
8132.0 0.0001230 8336.90137 8341.19629
8233.0 0.0001215 8335.59961 8340.05469
8188.0 0.0001221 8334.36621 8338.99219
8241.0 0.0001213 8333.20117 8338.00586
7980.0 0.0001253 8332.10254 8337.09766
8269.0 0.0001209 8331.06836 8336.26563
8264.0 0.0001210 8330.09668 8335.50977
8229.0 0.0001215 8329.18652 8334.82617
8012.0 0.0001248 8328.33594 8334.21973
8098.0 0.0001235 8327.54199 8333.68750
8075.0 0.0001238 8326.80566 8333.22852
8252.0 0.0001212 8326.12305 8332.84277
8034.0 0.0001245 8325.49414 8332.53516
8128.0 0.0001230 8324.91699 8332.29980
8022.0 0.0001247 8324.38867 8332.14160
8089.0 0.0001236 8323.90820 8332.06152
8220.0 0.0001217 8323.47559 8332.05859
8040.0 0.0001244 8323.08594 8332.13770
7917.0 0.0001263 8322.74121 8332.30078
7808.0 0.0001281 8322.43555 8332.55078
8096.0 0.0001235 8322.17090 8332.89063
7991.0 0.0001251 8321.94434 8333.32715
8192.0 0.0001221 8321.75391 8333.86523
8131.0 0.0001230 8321.59766 8334.51465
7976.0 0.0001254 8321.47559 8335.28223
7989.0 0.0001252 8321.38379 8336.18164
7998.0 0.0001250 8321.32227 8337.22754
7912.0 0.0001264 8321.28809 8338.43555
7981.0 0.0001253 8321.28027 8339.83203
7972.0 0.0001254 8321.29785 8341.44141
8052.0 0.0001242 8321.33789 8343.30176
8075.0 0.0001238 8321.39844 8345.46094
7987.0 0.0001252 8321.47949 8347.97852
8150.0 0.0001227 8321.57910 8350.93262
7962.0 0.0001256 8321.69336 8354.43262
8220.0 0.0001217 8321.82324 8358.62793
7957.0 0.0001257 8321.96582 8363.73633
8082.0 0.0001237 8322.12012 8370.13770
8033.0 0.0001245 8322.28320 8378.60449
8074.0 0.0001239 8322.45508 8390.90039
8242.0 0.0001213 8322.63281 8410.98242
8283.0 0.0001207 8322.81641 8446.71387
8253.0 0.0001212 8323.00098 8511.38867
8371.0 0.0001195 8323.18945 8623.39648
8608.0 0.0001162 8323.37598 8801.39844
8728.0 0.0001146 8323.56250 9050.86035
9057.0 0.0001104 8323.74414 9345.55664
9432.0 0.0001060 8323.92188 9627.67773
9527.0 0.0001050 8324.09277 9806.62891
9842.0 0.0001016 8324.25586 9775.73047
9511.0 0.0001051 8324.40918 9538.88770
9116.0 0.0001097 8324.55176 9224.19336
8741.0 0.0001144 8324.68066 8953.81836
8760.0 0.0001142 8324.79688 8791.02930
8503.0 0.0001176 8324.89648 8756.93555
8552.0 0.0001169 8324.97852 8861.48926
8961.0 0.0001116 8325.04102 9124.36914
9242.0 0.0001082 8325.08496 9569.55859
9786.0 0.0001022 8325.10645 10186.59082
10301.0 0.0000971 8325.10352 10886.19727
11256.0 0.0000888 8325.07715 11507.61523
11817.0 0.0000846 8325.02344 11807.35938
11730.0 0.0000853 8324.94238 11562.89160
11075.0 0.0000903 8324.83301 10876.85938
9899.0 0.0001010 8324.69238 10074.84375
9463.0 0.0001057 8324.52051 9401.62891
8754.0 0.0001142 8324.31445 8944.78711
8500.0 0.0001176 8324.07324 8681.64063
8478.0 0.0001180 8323.79785 8546.35254
8207.0 0.0001218 8323.48242 8478.98340
8356.0 0.0001197 8323.12988 8442.72168
8117.0 0.0001232 8322.73730 8420.04297
8252.0 0.0001212 8322.30273 8403.84766
8085.0 0.0001237 8321.82520 8391.36816
8124.0 0.0001231 8321.30371 8381.36816
8039.0 0.0001244 8320.73633 8373.15625
8146.0 0.0001228 8320.12305 8366.28418
8161.0 0.0001225 8319.46191 8360.43457
8314.0 0.0001203 8318.75098 8355.37305
8164.0 0.0001225 8317.99121 8350.92676
7998.0 0.0001250 8317.17871 8346.96582
8156.0 0.0001226 8316.31348 8343.38770
8168.0 0.0001224 8315.39453 8340.11426
8015.0 0.0001248 8314.41992 8337.08496
7890.0 0.0001267 8313.38965 8334.24707
7980.0 0.0001253 8312.30176 8331.56445
8125.0 0.0001231 8311.15527 8329.00000
8164.0 0.0001225 8309.95020 8326.52930
8201.0 0.0001219 8308.68359 8324.13086
8081.0 0.0001237 8307.35547 8321.78223
8367.0 0.0001195 8305.96484 8319.47070
8212.0 0.0001218 8304.50977 8317.18066
8234.0 0.0001214 8302.99023 8314.90234
8250.0 0.0001212 8301.40527 8312.62500
8276.0 0.0001208 8299.75293 8310.34082
8253.0 0.0001212 8298.03320 8308.04102
8088.0 0.0001236 8296.24512 8305.71973
8253.0 0.0001212 8294.38672 8303.37012
8349.0 0.0001198 8292.45801 8300.98730
8084.0 0.0001237 8290.45801 8298.56738
8089.0 0.0001236 8288.38477 8296.10547
8296.0 0.0001205 8286.24023 8293.59766
8322.0 0.0001202 8284.02051 8291.04199
8484.0 0.0001179 8281.72559 8288.43359
8304.0 0.0001204 8279.35645 8285.77148
8246.0 0.0001213 8276.91016 8283.05078
8426.0 0.0001187 8274.38672 8280.26953
8545.0 0.0001170 8271.78516 8277.42773
8196.0 0.0001220 8269.10352 8274.51953
8399.0 0.0001191 8266.34473 8271.54785
8359.0 0.0001196 8263.50586 8268.50781
8431.0 0.0001186 8260.58496 8265.39844
8380.0 0.0001193 8257.58301 8262.21777
8336.0 0.0001200 8254.49902 8258.96582
8392.0 0.0001192 8251.33301 8255.63965
8521.0 0.0001174 8248.08301 8252.23926
8433.0 0.0001186 8244.74902 8248.76074
8390.0 0.0001192 8241.33105 8245.20801
8384.0 0.0001193 8237.82813 8241.57617
8396.0 0.0001191 8234.23926 8237.86328
8530.0 0.0001172 8230.56445 8234.07324
8559.0 0.0001168 8226.80371 8230.20117
8502.0 0.0001176 8222.95605 8226.24707
8521.0 0.0001174 8219.02051 8222.20996
8386.0 0.0001192 8214.99707 8218.08984
8510.0 0.0001175 8210.88477 8213.88574
8503.0 0.0001176 8206.68457 8209.59766
8466.0 0.0001181 8202.39453 8205.22461
8564.0 0.0001168 8198.01660 8200.76563
8612.0 0.0001161 8193.54785 8196.21875
8574.0 0.0001166 8188.98877 8191.58643
8634.0 0.0001158 8184.33984 8186.28857
8514.0 0.0001175 8179.60010 8181.49463
8665.0 0.0001154 8174.76855 8176.61084
8576.0 0.0001166 8169.84619 8171.63867
8644.0 0.0001157 8164.83350 8166.57764
8719.0 0.0001147 8159.72754 8161.42627
8850.0 0.0001130 8154.53076 8156.18457
8580.0 0.0001166 8149.24170 8150.85303
8651.0 0.0001156 8143.86035 8145.43066
8545.0 0.0001170 8138.38623 8139.91748
8603.0 0.0001162 8132.82031 8134.31299
8545.0 0.0001170 8127.16064 8128.61768
8430.0 0.0001186 8121.41016 8122.83154
8484.0 0.0001179 8115.56494 8115.56543
8573.0 0.0001166 8109.62793 8109.62842
8588.0 0.0001164 8103.59814 8103.59863
8613.0 0.0001161 8097.47559 8097.47559
8607.0 0.0001162 8091.25977 8091.26025
8549.0 0.0001170 8084.95117 8084.95166
8566.0 0.0001167 8078.54932 8078.54932
8494.0 0.0001177 8072.05518 8072.05566
8540.0 0.0001171 8065.46826 8065.46875
8460.0 0.0001182 8058.78906 8058.78955
8398.0 0.0001191 8052.01709 8052.01758
8329.0 0.0001201 8045.15283 8045.15283
8421.0 0.0001188 8038.19629 8038.19629
8415.0 0.0001188 8031.14746 8031.14746
8587.0 0.0001165 8024.00586 8024.00635
8444.0 0.0001184 8016.77344 8016.77344
8289.0 0.0001206 8009.44922 8009.44971
8433.0 0.0001186 8002.03369 8002.03418
8349.0 0.0001198 7994.52734 7994.52734
8412.0 0.0001189 7986.92969 7986.93018
8269.0 0.0001209 7979.24170 7979.24219
8348.0 0.0001198 7971.46289 7971.46338
8298.0 0.0001205 7963.59424 7963.59473
8225.0 0.0001216 7955.63525 7955.63574
8260.0 0.0001211 7947.58838 7947.58887
8192.0 0.0001221 7939.45117 7969.89453
8067.0 0.0001240 7931.22510 7962.41357
8175.0 0.0001223 7922.91113 7954.87207
8072.0 0.0001239 7914.50928 7947.27148
7859.0 0.0001272 7906.02002 7939.61328
8072.0 0.0001239 7897.44287 7931.90088
8186.0 0.0001222 7888.77832 7924.13379
8148.0 0.0001227 7880.02832 7916.31689
8126.0 0.0001231 7871.19287 7908.45215
8033.0 0.0001245 7862.27197 7900.54102
8004.0 0.0001249 7853.26563 7892.58691
8087.0 0.0001237 7844.17480 7884.59180
7995.0 0.0001251 7835.00098 7876.55957
8043.0 0.0001243 7825.74268 7868.49316
7917.0 0.0001263 7816.40088 7860.39404
7973.0 0.0001254 7806.97754 7852.26904
7970.0 0.0001255 7797.47314 7844.12109
7997.0 0.0001250 7787.88672 7835.95313
7977.0 0.0001254 7778.21973 7827.77002
7982.0 0.0001253 7768.47266 7819.57666
7852.0 0.0001274 7758.64697 7811.37842
7856.0 0.0001273 7748.74170 7803.18018
7728.0 0.0001294 7738.75830 7794.98730
7739.0 0.0001292 7728.69629 7786.80664
7797.0 0.0001283 7718.55957 7778.64697
7747.0 0.0001291 7708.34473 7770.51074
7842.0 0.0001275 7698.05469 7762.41064
7917.0 0.0001263 7687.68994 7754.35254
7918.0 0.0001263 7677.25146 7746.34717
7732.0 0.0001293 7666.73877 7738.40283
7615.0 0.0001313 7656.15381 7730.53174
7751.0 0.0001290 7645.49561 7722.74561
7656.0 0.0001306 7634.76660 7715.05762
7581.0 0.0001319 7623.96777 7707.48291
7645.0 0.0001308 7613.09863 7700.03564
7846.0 0.0001275 7602.16016 7692.73340
7554.0 0.0001324 7591.15332 7685.59619
7676.0 0.0001303 7580.08008 7678.64551
7554.0 0.0001324 7568.93896 7671.90234
7596.0 0.0001316 7557.73096 7665.39355
7650.0 0.0001307 7546.45898 7659.14941
7541.0 0.0001326 7535.12305 7653.20117
7775.0 0.0001286 7523.72314 7647.58496
7739.0 0.0001292 7512.26025 7642.34033
7637.0 0.0001309 7500.73535 7637.51367
7598.0 0.0001316 7489.15039 7633.15771
7697.0 0.0001299 7477.50439 7629.32715
7624.0 0.0001312 7465.79883 7626.09180
7612.0 0.0001314 7454.03418 7623.52441
7702.0 0.0001298 7442.21436 7621.71582
7593.0 0.0001317 7430.33496 7620.75977
7608.0 0.0001314 7418.40088 7620.77539
7458.0 0.0001341 7406.41211 7621.89502
7625.0 0.0001311 7394.36914 7624.27490
7426.0 0.0001347 7382.27295 7628.09570
7584.0 0.0001319 7370.12402 7633.57178
7494.0 0.0001334 7357.92285 7640.95605
7419.0 0.0001348 7345.67236 7650.55322
7700.0 0.0001299 7333.37256 7662.72412
7585.0 0.0001318 7321.02393 7677.90479
7432.0 0.0001346 7308.62695 7696.62695
7606.0 0.0001315 7296.18359 7719.54053
7785.0 0.0001285 7283.69482 7747.45068
7704.0 0.0001298 7271.16064 7781.35693
7665.0 0.0001305 7258.58154 7822.52344
7745.0 0.0001291 7245.95996 7872.55664
7818.0 0.0001279 7233.29736 7933.52881
7835.0 0.0001276 7220.59277 8008.14258
7928.0 0.0001261 7207.84766 8099.98047
8089.0 0.0001236 7195.06348 8213.87305
8246.0 0.0001213 7182.24170 8356.49707
8444.0 0.0001184 7169.38184 8537.53320
8802.0 0.0001136 7156.48584 8772.53027
9502.0 0.0001052 7143.55322 9090.99023
10212.0 0.0000979 7130.58838 9558.34473
11653.0 0.0000858 7117.58838 10326.84766
13457.0 0.0000743 7104.55615 11727.92676
16436.0 0.0000608 7091.49219 14387.19824
20998.0 0.0000476 7078.39893 19269.41602
27718.0 0.0000361 7065.27490 27467.95313
37958.0 0.0000263 7052.12256 39523.73047
50950.0 0.0000196 7038.94141 54302.19141
65649.0 0.0000152 7025.73438 68399.38281
76591.0 0.0000131 7012.50244 76801.24219
77124.0 0.0000130 6999.24512 74554.55469
64858.0 0.0000154 6985.96387 62214.73438
46772.0 0.0000214 6972.65967 46100.33594
31758.0 0.0000315 6959.33447 31757.34961
21738.0 0.0000460 6945.98779 21531.69336
15461.0 0.0000647 6932.62012 15359.17578
12174.0 0.0000821 6919.23486 12060.15137
10247.0 0.0000976 6905.83203 10387.07031
9373.0 0.0001067 6892.41113 9497.61621
8864.0 0.0001128 6878.97461 8958.79199
8341.0 0.0001199 6865.52246 8585.01660
8060.0 0.0001241 6852.05762 8302.35840
7920.0 0.0001263 6838.57861 8078.86182
7724.0 0.0001295 6825.08643 7897.62744
7543.0 0.0001326 6811.58398 7747.97021
7513.0 0.0001331 6798.07275 7622.47412
7389.0 0.0001353 6784.54980 7515.77686
7129.0 0.0001403 6771.01904 7423.92188
7107.0 0.0001407 6757.48145 7343.93213
7180.0 0.0001393 6743.93750 7273.53760
7150.0 0.0001399 6730.38770 7210.98340
6961.0 0.0001437 6716.83252 7154.89551
6949.0 0.0001439 6703.27344 7104.18896
6973.0 0.0001434 6689.71191 7057.99658
6985.0 0.0001432 6676.14941 7015.61768
6901.0 0.0001449 6662.58545 6976.48242
6739.0 0.0001484 6649.02100 6940.12256
6736.0 0.0001485 6635.45752 6906.15381
6922.0 0.0001445 6621.89697 6874.25537
6618.0 0.0001511 6608.33789 6844.15674
6606.0 0.0001514 6594.78174 6815.63232
6563.0 0.0001524 6581.23096 6788.49121
6504.0 0.0001538 6567.68652 6762.57178
6489.0 0.0001541 6554.14697 6737.73096
6519.0 0.0001534 6540.61475 6713.85156
6576.0 0.0001521 6527.09033 6690.82910
6631.0 0.0001508 6513.57617 6668.57568
6537.0 0.0001530 6500.07031 6647.01172
6448.0 0.0001551 6486.57422 6626.06934
6442.0 0.0001552 6473.09082 6605.69043
6474.0 0.0001545 6459.62061 6585.82324
6375.0 0.0001569 6446.16162 6566.41895
6244.0 0.0001602 6432.71680 6547.43848
6388.0 0.0001565 6419.28760 6528.84668
6395.0 0.0001564 6405.87402 6510.61182
6345.0 0.0001576 6392.47607 6492.70313
6365.0 0.0001571 6379.09570 6475.09717
6288.0 0.0001590 6365.73242 6457.76904
6244.0 0.0001602 6352.38818 6440.70117
6278.0 0.0001593 6339.06494 6423.87549
6178.0 0.0001619 6325.76123 6407.27295
6121.0 0.0001634 6312.47852 6390.88086
6145.0 0.0001627 6299.21729 6374.68457
6194.0 0.0001614 6285.97998 6358.67334
6213.0 0.0001610 6272.76514 6342.83496
6193.0 0.0001615 6259.57324 6327.15967
6126.0 0.0001632 6246.40771 6311.63916
6161.0 0.0001623 6233.26807 6296.26660
6073.0 0.0001647 6220.15430 6281.03125
6220.0 0.0001608 6207.06738 6265.92871
6080.0 0.0001645 6194.00830 6250.95264
6108.0 0.0001637 6180.97852 6236.09766
6111.0 0.0001636 6167.97656 6221.35791
6048.0 0.0001653 6155.00391 6206.72705
6044.0 0.0001655 6142.06299 6192.20410
6023.0 0.0001660 6129.15430 6177.78564
6144.0 0.0001628 6116.27539 6163.46289
6018.0 0.0001662 6103.42969 6149.23730
6036.0 0.0001657 6090.61670 6135.10449
5883.0 0.0001700 6077.83887 6121.06250
5949.0 0.0001681 6065.09375 6107.10693
5976.0 0.0001673 6052.38428 6093.23633
5926.0 0.0001687 6039.70947 6079.44824
5918.0 0.0001690 6027.07178 6065.74219
5837.0 0.0001713 6014.47168 6052.11572
5894.0 0.0001697 6001.90771 6038.56689
5904.0 0.0001694 5989.38232 6025.09375
5889.0 0.0001698 5976.89502 6011.69482
5852.0 0.0001709 5964.44775 5998.37109
5830.0 0.0001715 5952.03906 5985.11816
5807.0 0.0001722 5939.66992 5971.93604
5699.0 0.0001755 5927.34229 5958.82520
5929.0 0.0001687 5915.05664 5915.05615
5905.0 0.0001693 5902.81201 5902.81152
5862.0 0.0001706 5890.60938 5890.60889
5851.0 0.0001709 5878.44971 5878.44922
5669.0 0.0001764 5866.33398 5866.33350
5793.0 0.0001726 5854.26074 5854.26025
5846.0 0.0001711 5842.23145 5842.23096
5749.0 0.0001739 5830.24707 5831.99951
5855.0 0.0001708 5818.30957 5820.10498
5752.0 0.0001739 5806.41553 5808.25537
5627.0 0.0001777 5794.56787 5796.45459
5754.0 0.0001738 5782.76660 5784.70166
5769.0 0.0001733 5771.01270 5772.99805
5886.0 0.0001699 5759.30518 5761.34229
5719.0 0.0001749 5747.64551 5749.73682
5754.0 0.0001738 5736.03271 5738.18066
5705.0 0.0001753 5724.46924 5727.78906
5655.0 0.0001768 5712.95508 5716.36328
5689.0 0.0001758 5701.48926 5704.98926
5568.0 0.0001796 5690.07275 5693.66846
5494.0 0.0001820 5678.70654 5682.40234
5635.0 0.0001775 5667.39063 5671.19043
5598.0 0.0001786 5656.12451 5660.03271
5609.0 0.0001783 5644.90820 5648.92920
5681.0 0.0001760 5633.74365 5637.88330
5599.0 0.0001786 5622.63086 5626.89453
5609.0 0.0001783 5611.56934 5615.96240
5496.0 0.0001820 5600.55957 5605.08740
5481.0 0.0001824 5589.60205 5594.27148
5551.0 0.0001801 5578.69727 5583.51514
5557.0 0.0001800 5567.84473 5572.81787
5578.0 0.0001793 5557.04395 5562.18066
5463.0 0.0001830 5546.29736 5551.60547
5491.0 0.0001821 5535.60449 5541.09326
5572.0 0.0001795 5524.96484 5530.64258
5549.0 0.0001802 5514.37842 5520.25684
5399.0 0.0001852 5503.84619 5509.93506
5468.0 0.0001829 5493.36865 5499.67920
5518.0 0.0001812 5482.94482 5489.49023
5474.0 0.0001827 5472.57520 5479.36816
5440.0 0.0001838 5462.25977 5469.31494
5503.0 0.0001817 5451.99951 5459.33203
5418.0 0.0001846 5441.79492 5449.42236
5535.0 0.0001807 5431.64502 5439.58496
5262.0 0.0001900 5421.54980 5429.82227
5390.0 0.0001855 5411.50977 5420.13672
5455.0 0.0001833 5401.52588 5410.53027
5389.0 0.0001856 5391.59717 5401.00439
5398.0 0.0001853 5381.72314 5391.56055
5394.0 0.0001854 5371.90479 5382.20361
5408.0 0.0001849 5362.14355 5372.93652
5395.0 0.0001854 5352.43701 5363.76221
5420.0 0.0001845 5342.78662 5354.68311
5313.0 0.0001882 5333.19141 5345.70508
5425.0 0.0001843 5323.65332 5336.83350
5322.0 0.0001879 5314.17041 5328.07178
5313.0 0.0001882 5304.74219 5319.42676
5349.0 0.0001870 5295.37109 5310.90723
5327.0 0.0001877 5286.05664 5302.52100
5295.0 0.0001889 5276.79736 5294.27734
5246.0 0.0001906 5267.59424 5286.18750
5333.0 0.0001875 5258.44727 5278.26416
5308.0 0.0001884 5249.35596 5270.52393
5265.0 0.0001899 5240.32031 5262.98340
5339.0 0.0001873 5231.34082 5255.66504
5193.0 0.0001926 5222.41602 5248.59375
5295.0 0.0001889 5213.54785 5241.80273
5115.0 0.0001955 5204.73535 5235.32813
5313.0 0.0001882 5195.97803 5229.21533
5198.0 0.0001924 5187.27637 5223.52295
5104.0 0.0001959 5178.63037 5218.31982
5143.0 0.0001944 5170.03955 5213.69629
5290.0 0.0001890 5161.50391 5209.76416
5237.0 0.0001909 5153.02246 5206.66846
5211.0 0.0001919 5144.59668 5204.60107
5174.0 0.0001933 5136.22607 5203.81250
5222.0 0.0001915 5127.90967 5204.64063
5285.0 0.0001892 5119.64844 5207.56006
5214.0 0.0001918 5111.44092 5213.26904
5376.0 0.0001860 5103.28857 5222.93896
5246.0 0.0001906 5095.18945 5238.89600
5285.0 0.0001892 5087.14404 5266.39893
5423.0 0.0001844 5079.15283 5317.45020
5691.0 0.0001757 5071.21582 5416.90967
5739.0 0.0001742 5063.33154 5608.12793
6003.0 0.0001666 5055.50049 5949.98975
6604.0 0.0001514 5047.72266 6492.60254
7353.0 0.0001360 5039.99805 7227.84668
8029.0 0.0001245 5032.32568 8030.08545
8591.0 0.0001164 5024.70557 8650.97070
9073.0 0.0001102 5017.13721 8798.66797
8528.0 0.0001173 5009.62109 8366.25293
7764.0 0.0001288 5002.15723 7619.63525
6995.0 0.0001430 4994.74414 6921.74268
6655.0 0.0001503 4987.38281 6494.68994
6503.0 0.0001538 4980.07227 6411.61426
6800.0 0.0001471 4972.81299 6629.42871
7100.0 0.0001408 4965.60352 7010.23096
7561.0 0.0001323 4958.44336 7348.51953
7482.0 0.0001337 4951.33447 7424.92334
7572.0 0.0001321 4944.27539 7134.16455
6772.0 0.0001477 4937.26514 6612.44922
6108.0 0.0001637 4930.30371 6074.79785
5629.0 0.0001777 4923.39160 5647.21338
5207.0 0.0001920 4916.52783 5360.99219
5148.0 0.0001943 4909.71289 5191.69971
5099.0 0.0001961 4902.94434 5097.47656
4982.0 0.0002007 4896.22412 5043.42725
4894.0 0.0002043 4889.55176 5008.63037
4921.0 0.0002032 4882.92578 4983.00293
4926.0 0.0002030 4876.34668 4962.26367
4897.0 0.0002042 4869.81396 4944.59473
4996.0 0.0002002 4863.32715 4929.09961
4791.0 0.0002087 4856.88574 4915.24512
4741.0 0.0002109 4850.48975 4902.66553
4896.0 0.0002042 4844.13818 4891.10010
4866.0 0.0002055 4837.83203 4880.35303
4849.0 0.0002062 4831.56982 4870.27637
4880.0 0.0002049 4825.35156 4860.75684
4892.0 0.0002044 4819.17725 4851.70361
4823.0 0.0002073 4813.04590 4843.04736
4869.0 0.0002054 4806.95752 4834.73291
4723.0 0.0002117 4800.91162 4826.71240
4848.0 0.0002063 4794.90723 4818.95068
4667.0 0.0002143 4788.94482 4811.41748
4758.0 0.0002102 4783.02393 4804.08594
4735.0 0.0002112 4777.14453 4796.93652
4759.0 0.0002101 4771.30518 4789.95068
4670.0 0.0002141 4765.50586 4783.11377
4649.0 0.0002151 4759.74707 4776.41309
4601.0 0.0002173 4754.02734 4769.83691
4714.0 0.0002121 4748.34619 4763.37646
4769.0 0.0002097 4742.70410 4757.02393
4704.0 0.0002126 4737.10059 4750.77246
4632.0 0.0002159 4731.53467 4744.61572
4647.0 0.0002152 4726.00684 4738.54785
4655.0 0.0002148 4720.51563 4732.56641
4661.0 0.0002145 4715.06104 4726.66650
4748.0 0.0002106 4709.64258 4720.84375
4701.0 0.0002127 4704.25977 4715.09619
4698.0 0.0002129 4698.91260 4709.42285
4808.0 0.0002080 4693.60107 4703.82129
4689.0 0.0002133 4688.32373 4698.29053
4686.0 0.0002134 4683.08105 4692.82959
4631.0 0.0002159 4677.87158 4687.43945
4701.0 0.0002127 4672.69580 4682.11963
4604.0 0.0002172 4667.55322 4676.87158
4582.0 0.0002182 4662.44287 4671.69873
4702.0 0.0002127 4657.36475 4666.60449
4654.0 0.0002149 4652.31836 4661.59229
4537.0 0.0002204 4647.30322 4656.67139
4584.0 0.0002182 4642.31934 4651.84912
4659.0 0.0002146 4637.36572 4654.27637
4592.0 0.0002178 4632.44238 4649.84375
4528.0 0.0002208 4627.54883 4645.56982
4594.0 0.0002177 4622.68408 4641.48682
4538.0 0.0002204 4617.84766 4637.64551
4594.0 0.0002177 4613.04004 4634.12695
4432.0 0.0002256 4608.26074 4631.08008
4555.0 0.0002195 4603.50879 4628.84082
4534.0 0.0002206 4598.78418 4628.18311
4537.0 0.0002204 4594.08643 4630.78223
4767.0 0.0002098 4589.41406 4639.76123
4665.0 0.0002144 4584.76855 4659.76514
4840.0 0.0002066 4580.14746 4695.60498
4729.0 0.0002115 4575.55176 4748.74365
4992.0 0.0002003 4570.98047 4812.20850
5071.0 0.0001972 4566.43408 4867.65967
5044.0 0.0001983 4561.91113 4889.64648
5081.0 0.0001968 4557.41162 4861.06641
4875.0 0.0002051 4552.93506 4794.87988
4937.0 0.0002026 4548.48096 4720.52197
4731.0 0.0002114 4544.04883 4657.87891
4709.0 0.0002124 4539.63770 4611.79248
4683.0 0.0002135 4535.24854 4583.80713
4531.0 0.0002207 4530.88037 4566.89795
4504.0 0.0002220 4526.53271 4556.15479
4513.0 0.0002216 4522.20508 4548.42285
4545.0 0.0002200 4517.89648 4542.10547
4537.0 0.0002204 4513.60791 4536.51025
4435.0 0.0002255 4509.33740 4531.34961
4496.0 0.0002224 4505.08545 4526.49121
4422.0 0.0002261 4500.85156 4520.76514
4537.0 0.0002204 4496.63574 4516.34717
4401.0 0.0002272 4492.43652 4512.07764
4403.0 0.0002271 4488.25488 4507.93506
4388.0 0.0002279 4484.08936 4503.90039
4486.0 0.0002229 4479.93994 4499.96143
4526.0 0.0002209 4475.80566 4496.10889
4500.0 0.0002222 4471.68652 4492.33496
4535.0 0.0002205 4467.58301 4488.63721
4749.0 0.0002106 4463.49365 4485.00977
4719.0 0.0002119 4459.41846 4481.45117
4948.0 0.0002021 4455.35693 4477.95947
5285.0 0.0001892 4451.30859 4474.53516
5469.0 0.0001828 4447.27344 4471.17822
5758.0 0.0001737 4443.25098 4467.88916
5512.0 0.0001814 4439.24072 4464.66846
5508.0 0.0001816 4435.24170 4461.51855
5165.0 0.0001936 4431.25439 4458.44287
4984.0 0.0002006 4427.27881 4455.44385
4679.0 0.0002137 4423.31348 4452.52539
4534.0 0.0002206 4419.35938 4449.69189
4697.0 0.0002129 4415.41455 4446.94775
4531.0 0.0002207 4411.47998 4444.29883
4521.0 0.0002212 4407.55420 4441.75098
4478.0 0.0002233 4403.63721 4439.31152
4522.0 0.0002211 4399.72949 4436.99072
4406.0 0.0002270 4395.83008 4434.79590
4477.0 0.0002234 4391.93848 4432.73828
4394.0 0.0002276 4388.05469 4430.82959
4384.0 0.0002281 4384.17822 4429.08447
4446.0 0.0002249 4380.30859 4427.51807
4297.0 0.0002327 4376.44580 4426.14746
4475.0 0.0002235 4372.58887 4424.99268
4391.0 0.0002277 4368.73877 4424.07861
4416.0 0.0002264 4364.89355 4423.43066
4364.0 0.0002291 4361.05469 4423.08057
4265.0 0.0002345 4357.22021 4423.06348
4294.0 0.0002329 4353.39111 4423.42041
4306.0 0.0002322 4349.56592 4424.19873
4283.0 0.0002335 4345.74609 4425.45898
4426.0 0.0002259 4341.92920 4427.26318
4233.0 0.0002362 4338.11572 4429.69189
4266.0 0.0002344 4334.30566 4432.83984
4286.0 0.0002333 4330.49951 4436.81885
4379.0 0.0002284 4326.69531 4441.76318
4389.0 0.0002278 4322.89404 4447.83887
4385.0 0.0002281 4319.09521 4455.24463
4395.0 0.0002275 4315.29785 4464.22949
4310.0 0.0002320 4311.50244 4475.10059
4418.0 0.0002263 4307.70801 4488.24219
4402.0 0.0002272 4303.91504 4504.14648
4355.0 0.0002296 4300.12305 4523.43994
4453.0 0.0002246 4296.33203 4546.93848
4365.0 0.0002291 4292.54150 4575.71484
4616.0 0.0002166 4288.75098 4611.20508
4691.0 0.0002132 4284.96045 4655.37012
4623.0 0.0002163 4281.16943 4710.97852
4809.0 0.0002079 4277.37744 4782.24023
4944.0 0.0002023 4273.58545 4876.47217
5056.0 0.0001978 4269.79248 5008.75000
5397.0 0.0001853 4265.99805 5213.53174
6002.0 0.0001666 4262.20264 5568.26514
6811.0 0.0001468 4258.40576 6227.76123
7986.0 0.0001252 4254.60596 7447.33838
10207.0 0.0000980 4250.80615 9543.01367
12894.0 0.0000776 4247.00293 12731.24414
16670.0 0.0000600 4243.19678 16843.07422
20530.0 0.0000487 4239.38867 21031.90234
23376.0 0.0000428 4235.57764 23793.05273
23302.0 0.0000429 4231.76416 23626.10352
20198.0 0.0000495 4227.94727 20505.69531
15696.0 0.0000637 4224.12695 16106.76465
11625.0 0.0000860 4220.30322 12023.39551
8845.0 0.0001131 4216.47607 8985.88184
6892.0 0.0001451 4212.64453 7059.73193
5900.0 0.0001695 4208.80957 5974.91699
5467.0 0.0001829 4204.97070 5399.97998
5133.0 0.0001948 4201.12744 5088.11035
4874.0 0.0002052 4197.27979 4900.49463
4767.0 0.0002098 4193.42773 4772.54639
4691.0 0.0002132 4189.57080 4677.00488
4440.0 0.0002252 4185.70898 4601.98779
4461.0 0.0002242 4181.84180 4541.42090
4470.0 0.0002237 4177.97021 4491.58838
4389.0 0.0002278 4174.09375 4449.95068
4273.0 0.0002340 4170.21191 4414.68164
4241.0 0.0002358 4166.32422 4384.43457
4322.0 0.0002314 4162.43164 4358.19873
4216.0 0.0002372 4158.53223 4335.20020
4213.0 0.0002374 4154.62891 4314.84766
4143.0 0.0002414 4150.71875 4296.67139
4299.0 0.0002326 4146.80225 4280.30371
4276.0 0.0002339 4142.88086 4265.45264
4209.0 0.0002376 4138.95313 4251.87939
4443.0 0.0002251 4135.01904 4239.39160
4795.0 0.0002086 4131.07861 4227.83008
4826.0 0.0002072 4127.13232 4217.06543
5122.0 0.0001952 4123.17969 4206.98779
5281.0 0.0001894 4119.22021 4197.50781
5200.0 0.0001923 4115.25391 4188.54736
5203.0 0.0001922 4111.28174 4180.04297
4828.0 0.0002071 4107.30322 4270.47314
4568.0 0.0002189 4103.31787 4264.76514
4329.0 0.0002310 4099.32568 4259.43457
4413.0 0.0002266 4095.32715 4254.44727
4147.0 0.0002411 4091.32153 4249.77783
4199.0 0.0002382 4087.30957 4245.40137
4181.0 0.0002392 4083.28979 4241.29785
4122.0 0.0002426 4079.26416 4237.45166
4085.0 0.0002448 4075.23145 4233.84766
4157.0 0.0002406 4071.19214 4230.47461
4130.0 0.0002421 4067.14575 4227.32178
3986.0 0.0002509 4063.09253 4224.38135
3977.0 0.0002514 4059.03174 4221.64551
4143.0 0.0002414 4054.96558 4219.11230
4106.0 0.0002435 4050.89160 4216.77539
4056.0 0.0002465 4046.81006 4214.63232
4207.0 0.0002377 4042.72241 4212.68213
4239.0 0.0002359 4038.62817 4210.92529
4335.0 0.0002307 4034.52686 4209.36133
4340.0 0.0002304 4030.41870 4207.99219
4492.0 0.0002226 4026.30396 4206.82031
4526.0 0.0002209 4022.18237 4205.84912
4558.0 0.0002194 4018.05396 4205.08252
4620.0 0.0002165 4013.91797 4204.52490
4471.0 0.0002237 4009.77661 4204.18457
4264.0 0.0002345 4005.62793 4204.06689
4303.0 0.0002324 4001.47314 4204.18066
4327.0 0.0002311 3997.31177 4204.53467
4269.0 0.0002342 3993.14355 4205.13770
4163.0 0.0002402 3988.96924 4206.00244
4261.0 0.0002347 3984.78857 4207.13965
4209.0 0.0002376 3980.60083 4208.56250
4136.0 0.0002418 3976.40723 4210.28711
4219.0 0.0002370 3972.20776 4212.32861
4099.0 0.0002440 3968.00220 4214.70557
4103.0 0.0002437 3963.79053 4217.43506
4134.0 0.0002419 3959.57275 4220.53955
4092.0 0.0002444 3955.34839 4224.04053
4120.0 0.0002427 3951.11987 4227.96484
4116.0 0.0002430 3946.88403 4232.33740
4096.0 0.0002441 3942.64331 4237.18945
4028.0 0.0002483 3938.39697 4242.55273
4034.0 0.0002479 3934.14526 4248.46289
4131.0 0.0002421 3929.88818 4254.95801
3999.0 0.0002501 3925.62573 4262.08154
4086.0 0.0002447 3921.35815 4269.87939
3982.0 0.0002511 3917.08569 4278.40381
3985.0 0.0002509 3912.80786 4287.70947
4117.0 0.0002429 3908.52490 4297.85938
4061.0 0.0002462 3904.23755 4308.92285
4167.0 0.0002400 3899.94580 4320.97607
4207.0 0.0002377 3895.64941 4334.10156
4185.0 0.0002389 3891.34863 4348.39355
4245.0 0.0002356 3887.04370 4363.95605
4196.0 0.0002383 3882.73462 4380.90430
4167.0 0.0002400 3878.42114 4399.36816
4285.0 0.0002334 3874.10352 4419.49170
4198.0 0.0002382 3869.78247 4441.43994
4303.0 0.0002324 3865.45801 4465.39404
4228.0 0.0002365 3861.12988 4491.56201
4445.0 0.0002250 3856.79858 4520.17773
4608.0 0.0002170 3852.46387 4551.50781
4638.0 0.0002156 3848.12549 4585.85596
4954.0 0.0002019 3843.78540 4623.57031
5363.0 0.0001865 3839.44116 4665.04736
5465.0 0.0001830 3835.09497 4703.49414
5772.0 0.0001733 3830.74609 4754.09668
6021.0 0.0001661 3826.39502 4810.06787
5966.0 0.0001676 3822.04175 4872.12939
5863.0 0.0001706 3817.68604 4941.12646
5724.0 0.0001747 3813.32886 5018.05811
5532.0 0.0001808 3808.96997 5104.10693
5437.0 0.0001839 3804.60913 5200.68408
5306.0 0.0001885 3800.24634 5309.48291
5332.0 0.0001875 3795.88281 5432.55176
5252.0 0.0001904 3791.51831 5572.38086
5302.0 0.0001886 3787.15259 5732.02734
5554.0 0.0001801 3782.78638 5915.27246
5516.0 0.0001813 3778.41919 6126.83740
5756.0 0.0001737 3774.05176 6372.67725
6004.0 0.0001666 3769.68408 6660.38232
6162.0 0.0001623 3765.31567 6999.74268
6664.0 0.0001501 3760.94775 7403.55518
6964.0 0.0001436 3756.58032 7888.78613
7556.0 0.0001323 3752.21289 8478.33496
8470.0 0.0001181 3747.84619 9203.93555
9367.0 0.0001068 3743.48022 10111.86133
10695.0 0.0000935 3739.11475 11276.97168
12479.0 0.0000801 3734.75122 12841.41016
15490.0 0.0000646 3730.38794 15116.43359
19958.0 0.0000501 3726.02686 18809.41016
27672.0 0.0000361 3721.66699 25409.94531
40327.0 0.0000248 3717.30957 37591.50000
60441.0 0.0000165 3712.95361 59135.70313
92751.0 0.0000108 3708.59961 93644.75000
139436.0 7.17e-6 3704.24829 141657.46875
195980.0 5.10e-6 3699.89941 196766.21875
248686.0 4.02e-6 3695.55322 243104.51563
269573.0 3.71e-6 3691.20947 259349.46875
242826.0 4.12e-6 3686.86938 234649.09375
187049.0 5.35e-6 3682.53247 183085.76563
126473.0 7.91e-6 3678.19922 127702.96094
80349.0 0.0000124 3673.86938 82478.35938
50309.0 0.0000199 3669.54321 51513.33203
32086.0 0.0000312 3665.22119 32966.51172
22180.0 0.0000451 3660.90332 22802.22266
16795.0 0.0000595 3656.58936 17346.99805
13693.0 0.0000730 3652.28027 14231.03906
11439.0 0.0000874 3647.97607 12233.34863
10149.0 0.0000985 3643.67676 10808.81543
9047.0 0.0001105 3639.38281 9723.28613
8230.0 0.0001215 3635.09399 8866.20801
7556.0 0.0001323 3630.81006 8175.29346
6970.0 0.0001435 3626.53296 7609.91406
6427.0 0.0001556 3622.26050 7141.43994
6105.0 0.0001638 3617.99463 6748.96143
5761.0 0.0001736 3613.73486 6416.88232
5491.0 0.0001821 3609.48193 6133.38184
5282.0 0.0001893 3605.23535 5889.37793
5171.0 0.0001934 3600.99561 5677.80273
5008.0 0.0001997 3596.76270 5493.09424
4784.0 0.0002090 3592.53711 5330.82813
4777.0 0.0002093 3588.31885 5187.45020
4617.0 0.0002166 3584.10742 5060.07959
4432.0 0.0002256 3579.90430 4946.36475
4421.0 0.0002262 3575.70898 4844.36768
4244.0 0.0002356 3571.52148 4752.48242
4283.0 0.0002335 3567.34277 4669.36768
4194.0 0.0002384 3563.17188 4596.07471
4231.0 0.0002364 3559.01025 4527.34326
4238.0 0.0002360 3554.85693 4464.49756
4072.0 0.0002456 3550.71240 4406.84863
4051.0 0.0002469 3546.57715 4353.80469
4056.0 0.0002465 3542.45117 4304.85693
4060.0 0.0002463 3538.33472 4259.56348
3979.0 0.0002513 3534.22803 4217.54248
3953.0 0.0002530 3530.13110 4178.45801
3915.0 0.0002554 3526.04395 4142.01904
3857.0 0.0002593 3521.96753 4107.96924
3872.0 0.0002583 3517.90112 4076.08154
3816.0 0.0002621 3513.84473 4046.15552
3717.0 0.0002690 3509.79956 4018.01587
3669.0 0.0002726 3505.76538 3991.50415
3943.0 0.0002536 3501.74219 3966.47974
3795.0 0.0002635 3497.72949 3942.81714
3793.0 0.0002636 3493.72852 3920.40527
3673.0 0.0002723 3489.73950 3899.14331
3761.0 0.0002659 3485.76147 3878.93945
3728.0 0.0002682 3481.79541 3859.71240
3719.0 0.0002689 3477.84155 3841.38916
3601.0 0.0002777 3473.89990 3823.90259
3569.0 0.0002802 3469.97021 3807.19116
3709.0 0.0002696 3466.05298 3791.20068
3614.0 0.0002767 3462.14819 3775.88086
3557.0 0.0002811 3458.25708 3761.18726
3510.0 0.0002849 3454.37769 3747.07617
3549.0 0.0002818 3450.51196 3733.51099
3699.0 0.0002703 3446.65894 3720.45654
3655.0 0.0002736 3442.81958 3707.88086
3496.0 0.0002860 3438.99341 3695.75464
3660.0 0.0002732 3435.18140 3684.05103
3626.0 0.0002758 3431.38306 3672.74585
3591.0 0.0002785 3427.59839 3661.81592
3815.0 0.0002621 3423.82788 3651.24023
3715.0 0.0002692 3420.07129 3640.99927
3733.0 0.0002679 3416.32910 3631.07520
3622.0 0.0002761 3412.60107 3621.45190
3648.0 0.0002741 3408.88770 3612.11426
3653.0 0.0002737 3405.18970 3603.04907
3638.0 0.0002749 3401.50659 3594.24268
3616.0 0.0002765 3397.83765 3585.68237
3573.0 0.0002799 3394.18384 3577.35815
3466.0 0.0002885 3390.54517 3569.25977
3518.0 0.0002843 3386.92212 3561.37817
3496.0 0.0002860 3383.31396 3553.70435
3493.0 0.0002863 3379.72168 3546.23096
3482.0 0.0002872 3376.14502 3538.95117
3491.0 0.0002865 3372.58496 3531.85889
3491.0 0.0002865 3369.03931 3524.94678
3497.0 0.0002860 3365.51074 3518.21167
3462.0 0.0002889 3361.99731 3511.64746
3348.0 0.0002987 3358.50073 3505.25171
3447.0 0.0002901 3355.01978 3499.01978
3504.0 0.0002854 3351.55566 3492.95044
3505.0 0.0002853 3348.10791 3487.04077
3476.0 0.0002877 3344.67676 3481.29028
3511.0 0.0002848 3341.26294 3475.69849
3637.0 0.0002750 3337.86548 3470.26465
3684.0 0.0002714 3334.48413 3464.98975
3731.0 0.0002680 3331.12012 3459.87671
3956.0 0.0002528 3327.77319 3454.92773
4102.0 0.0002438 3324.44312 3450.14746
4307.0 0.0002322 3321.13037 3445.54053
4517.0 0.0002214 3317.83521 3441.11523
4652.0 0.0002150 3314.55786 3436.87939
4473.0 0.0002236 3311.29663 3432.84204
4392.0 0.0002277 3308.05347 3331.04565
4108.0 0.0002434 3304.82788 3329.41455
3896.0 0.0002567 3301.61938 3327.97217
3795.0 0.0002635 3298.42896 3326.74390
3714.0 0.0002693 3295.25635 3325.76074
3701.0 0.0002702 3292.10107 3325.05713
3878.0 0.0002579 3288.96484 3324.67896
3945.0 0.0002535 3285.84521 3324.67725
3967.0 0.0002521 3282.74438 3325.11841
4009.0 0.0002494 3279.66089 3326.08105
4116.0 0.0002430 3276.59546 3327.66650
4116.0 0.0002430 3273.54834 3329.99927
4124.0 0.0002425 3270.51953 3333.23999
3928.0 0.0002546 3267.50854 3337.59302
3760.0 0.0002660 3264.51660 3343.32666
3611.0 0.0002769 3261.54248 3350.79297
3633.0 0.0002753 3258.58667 3360.46704
3596.0 0.0002781 3255.64868 3373.00073
3532.0 0.0002831 3252.72949 3389.33594
3468.0 0.0002884 3249.82861 3410.95947
3525.0 0.0002837 3246.94604 3440.60498
3666.0 0.0002728 3244.08179 3484.09497
3602.0 0.0002776 3241.23657 3554.51514
3857.0 0.0002593 3238.40991 3679.55396
4005.0 0.0002497 3235.60132 3909.79443
4373.0 0.0002287 3232.81128 4319.24854
4946.0 0.0002022 3230.03955 4984.05908
5743.0 0.0001741 3227.28687 5930.63086
6856.0 0.0001459 3224.55225 7060.87988
7699.0 0.0001299 3221.83643 8086.05811
8130.0 0.0001230 3219.13892 8565.43164
8024.0 0.0001246 3216.46069 8201.97754
6858.0 0.0001458 3213.80005 7212.32666
5769.0 0.0001733 3211.15845 6054.10889
4897.0 0.0002042 3208.53540 5063.28516
4234.0 0.0002362 3205.93066 4356.59229
3903.0 0.0002562 3203.34448 3916.45166
3764.0 0.0002657 3200.77710 3667.00293
3515.0 0.0002845 3198.22778 3530.30225
3538.0 0.0002826 3195.69702 3451.91479
3351.0 0.0002984 3193.18506 3401.93115
3321.0 0.0003011 3190.69141 3366.34644
3410.0 0.0002933 3188.21606 3339.03467
3388.0 0.0002952 3185.75903 3317.16577
3268.0 0.0003060 3183.32031 3299.20996
3316.0 0.0003016 3180.90015 3284.19946
3261.0 0.0003067 3178.49780 3271.46289
3194.0 0.0003131 3176.11426 3260.51196
3227.0 0.0003099 3173.74902 3250.98462
3180.0 0.0003145 3171.40186 3242.60596
3126.0 0.0003199 3169.07251 3235.16553
3247.0 0.0003080 3166.76147 3228.50195
3209.0 0.0003116 3164.46826 3222.48584
3232.0 0.0003094 3162.19360 3217.01709
3137.0 0.0003188 3159.93628 3212.01318
3076.0 0.0003251 3157.69727 3207.41016
3165.0 0.0003160 3155.47632 3203.15308
3148.0 0.0003177 3153.27271 3199.19946
3121.0 0.0003204 3151.08716 3195.51318
3183.0 0.0003142 3148.91870 3215.99146
3261.0 0.0003067 3146.76855 3213.25317
3299.0 0.0003031 3144.63525 3210.72217
3398.0 0.0002943 3142.52002 3208.38354
3385.0 0.0002954 3140.42212 3206.22241
3555.0 0.0002813 3138.34131 3204.22803
3520.0 0.0002841 3136.27832 3202.39136
3564.0 0.0002806 3134.23218 3200.70435
3640.0 0.0002747 3132.20288 3199.16089
3506.0 0.0002852 3130.19116 3197.75708
3393.0 0.0002947 3128.19629 3196.48926
3236.0 0.0003090 3126.21777 3195.35425
3188.0 0.0003137 3124.25659 3194.35181
3205.0 0.0003120 3122.31201 3193.48022
3127.0 0.0003198 3120.38428 3192.74048
3141.0 0.0003184 3118.47290 3192.13354
3092.0 0.0003234 3116.57788 3191.66138
3059.0 0.0003269 3114.69971 3191.32690
3072.0 0.0003255 3112.83716 3191.13208
3116.0 0.0003209 3110.99121 3191.08301
3156.0 0.0003169 3109.16064 3191.18286
3120.0 0.0003205 3107.34692 3191.43945
3183.0 0.0003142 3105.54907 3191.85889
3031.0 0.0003299 3103.76685 3192.44849
3229.0 0.0003097 3102.00024 3193.21729
3097.0 0.0003229 3100.24902 3194.17480
3073.0 0.0003254 3098.51343 3195.33350
3054.0 0.0003274 3096.79321 3196.70508
3065.0 0.0003263 3095.08813 3198.30444
3113.0 0.0003212 3093.39795 3200.14624
3098.0 0.0003228 3091.72314 3202.25073
3051.0 0.0003278 3090.06372 3204.63647
3101.0 0.0003225 3088.41870 3207.32617
3156.0 0.0003169 3086.78809 3210.34619
3211.0 0.0003114 3085.17236 3213.72534
3201.0 0.0003124 3083.57056 3217.49634
3098.0 0.0003228 3081.98389 3221.69775
3181.0 0.0003144 3080.41064 3226.37085
3216.0 0.0003109 3078.85205 3231.56616
3120.0 0.0003205 3077.30713 3237.33862
3089.0 0.0003237 3075.77637 3243.75342
3113.0 0.0003212 3074.25879 3250.88501
2977.0 0.0003359 3072.75513 3258.82178
3079.0 0.0003248 3071.26465 3267.66479
3129.0 0.0003196 3069.78760 3277.53442
3058.0 0.0003270 3068.32349 3288.57227
3117.0 0.0003208 3066.87305 3300.94751
3189.0 0.0003136 3065.43555 3314.86255
3172.0 0.0003153 3064.01025 3330.55981
3171.0 0.0003154 3062.59766 3348.33618
3214.0 0.0003111 3061.19751 3373.60400
3282.0 0.0003047 3059.81006 3396.81836
3281.0 0.0003048 3058.43433 3423.48804
3277.0 0.0003052 3057.07129 3454.32251
3306.0 0.0003025 3055.71973 3490.22534
3318.0 0.0003014 3054.38013 3532.36792
3437.0 0.0002910 3053.05225 3582.28564
3564.0 0.0002806 3051.73560 3642.02637
3543.0 0.0002822 3050.43042 3714.38843
3669.0 0.0002726 3049.13672 3803.36182
3928.0 0.0002546 3047.85376 3915.14575
3927.0 0.0002546 3046.58154 4060.87305
4098.0 0.0002440 3045.32056 4263.71387
4754.0 0.0002103 3044.07007 4575.05322
5202.0 0.0001922 3042.83008 5103.35840
6212.0 0.0001610 3041.60034 6048.23291
8003.0 0.0001250 3040.38037 7707.14307
10632.0 0.0000941 3039.17090 10399.93945
14315.0 0.0000699 3037.97119 14273.30664
18551.0 0.0000539 3036.78125 19005.61133
22772.0 0.0000439 3035.60034 23518.05078
24906.0 0.0000402 3034.42944 25996.41602
23927.0 0.0000418 3033.26782 24996.04297
20588.0 0.0000486 3032.11475 21097.19922
15568.0 0.0000642 3030.97119 16265.23633
11506.0 0.0000869 3029.83618 11986.31250
8886.0 0.0001125 3028.70972 8856.69922
6926.0 0.0001444 3027.59131 6874.74609
5850.0 0.0001709 3026.48193 5754.72021
5209.0 0.0001920 3025.38037 5169.43066
4890.0 0.0002045 3024.28687 4875.89502
4885.0 0.0002047 3023.20117 4734.86572
4715.0 0.0002121 3022.12305 4680.46289
4807.0 0.0002080 3021.05249 4686.10059
4877.0 0.0002050 3019.98950 4743.43945
5021.0 0.0001992 3018.93311 4853.17383
5238.0 0.0001909 3017.88403 5022.82373
5679.0 0.0001761 3016.84155 5269.56006
6210.0 0.0001610 3015.80640 5631.49707
6894.0 0.0001451 3014.77759 6193.01563
7853.0 0.0001273 3013.75513 7143.19531
9778.0 0.0001023 3012.73877 8854.78027
13088.0 0.0000764 3011.72876 11943.20313
17792.0 0.0000562 3010.72412 17189.70898
25101.0 0.0000398 3009.72583 25205.83203
35150.0 0.0000284 3008.73242 35824.25000
45494.0 0.0000220 3007.74487 47347.98828
54316.0 0.0000184 3006.76294 56084.69922
55773.0 0.0000179 3005.78564 57609.81250
49014.0 0.0000204 3004.81348 50822.72656
38383.0 0.0000261 3003.84595 39554.53906
27282.0 0.0000367 3002.88306 28250.62109
18711.0 0.0000534 3001.92480 19262.16602
13273.0 0.0000753 3000.97070 13145.43848
9531.0 0.0001049 3000.02075 9445.69531
7516.0 0.0001330 2999.07471 7367.99170
6430.0 0.0001555 2998.13281 6213.23926
5537.0 0.0001806 2997.19434 5530.04590
5126.0 0.0001951 2996.25928 5081.06543
4821.0 0.0002074 2995.32764 4756.63428
4691.0 0.0002132 2994.39917 4507.67676
4511.0 0.0002217 2993.47388 4310.23096
4383.0 0.0002282 2992.55127 4150.56592
4145.0 0.0002413 2991.63159 4023.02148
4004.0 0.0002498 2990.71436 3914.57520
3858.0 0.0002592 2989.79980 3823.83984
3792.0 0.0002637 2988.88696 3747.31543
3729.0 0.0002682 2987.97681 3682.34912
3753.0 0.0002665 2987.06836 3626.90088
3640.0 0.0002747 2986.16187 3579.39185
3443.0 0.0002904 2985.25659 3538.58789
3371.0 0.0002966 2984.35303 3503.52246
3359.0 0.0002977 2983.45117 3473.43628
3332.0 0.0003001 2982.55005 3447.73682
3284.0 0.0003045 2981.65039 3425.96899
3236.0 0.0003090 2980.75122 3407.79028
3198.0 0.0003127 2979.85278 3392.96240
3306.0 0.0003025 2978.95508 3381.33813
3263.0 0.0003065 2978.05786 3372.85938
3304.0 0.0003027 2977.16089 3367.56445
3170.0 0.0003155 2976.26416 3365.59155
3257.0 0.0003070 2975.36743 3367.19922
3255.0 0.0003072 2974.47095 3372.79346
3395.0 0.0002946 2973.57324 3382.96777
3302.0 0.0003028 2972.67603 3398.57080
3462.0 0.0002889 2971.77759 3420.80371
3389.0 0.0002951 2970.87891 3451.41064
3457.0 0.0002893 2969.97900 3493.07520
3364.0 0.0002973 2969.07861 3550.47095
3539.0 0.0002826 2968.17676 3633.01294
3704.0 0.0002700 2967.27393 3761.37646
3983.0 0.0002511 2966.36914 3979.92700
4458.0 0.0002243 2965.46362 4373.52783
5065.0 0.0001974 2964.55615 5076.76123
6265.0 0.0001596 2963.64648 6251.18408
8280.0 0.0001208 2962.73511 8007.85400
10716.0 0.0000933 2961.82227 10277.09961
13343.0 0.0000749 2960.90674 12654.39063
15282.0 0.0000654 2959.98901 14323.47168
15204.0 0.0000658 2959.06885 14397.47656
13294.0 0.0000752 2958.14600 12799.70410
10705.0 0.0000934 2957.22070 10404.95801
8140.0 0.0001229 2956.29224 8089.18799
6211.0 0.0001610 2955.36108 6282.64209
5147.0 0.0001943 2954.42676 5067.07910
4299.0 0.0002326 2953.48950 4335.23779
3943.0 0.0002536 2952.54883 3922.82666
3569.0 0.0002802 2951.60474 3690.72046
3532.0 0.0002831 2950.65698 3550.79590
3360.0 0.0002976 2949.70581 3457.14209
3400.0 0.0002941 2948.75073 3388.54175
3261.0 0.0003067 2947.79175 3335.40381
3264.0 0.0003064 2946.82861 3292.96533
3369.0 0.0002968 2945.86182 3258.45923
3221.0 0.0003105 2944.89063 3230.05688
3147.0 0.0003178 2943.91528 3206.46777
3222.0 0.0003104 2942.93530 3186.75073
3197.0 0.0003128 2941.95117 3170.21362
3179.0 0.0003146 2940.96167 3156.34521
3131.0 0.0003194 2939.96826 3135.02588
3119.0 0.0003206 2938.96924 3125.68433
3116.0 0.0003209 2937.96582 3118.20239
3069.0 0.0003258 2936.95776 3112.50024
3160.0 0.0003165 2935.94385 3108.58740
3147.0 0.0003178 2934.92480 3106.59717
3210.0 0.0003115 2933.90063 3106.87036
3105.0 0.0003221 2932.87085 3110.20264
3116.0 0.0003209 2931.83594 3118.43750
3148.0 0.0003177 2930.79517 3135.61987
3138.0 0.0003187 2929.74878 3169.61792
3180.0 0.0003145 2928.69653 3233.15918
3365.0 0.0002972 2927.63892 3342.01904
3460.0 0.0002890 2926.57520 3508.05811
3743.0 0.0002672 2925.50488 3727.03735
3920.0 0.0002551 2924.42920 3963.62329
3919.0 0.0002552 2923.34668 4141.54004
4005.0 0.0002497 2922.25830 4170.13037
3877.0 0.0002579 2921.16357 4029.30908
3796.0 0.0002634 2920.06250 3798.83838
3573.0 0.0002799 2918.95459 3568.84595
3343.0 0.0002991 2917.84082 3386.76196
3440.0 0.0002907 2916.71973 3264.10107
3356.0 0.0002980 2915.59229 3192.17773
3365.0 0.0002972 2914.45801 3155.35327
3283.0 0.0003046 2913.31714 3139.75977
3262.0 0.0003066 2912.16895 3136.50342
3365.0 0.0002972 2911.01416 3117.70337
3418.0 0.0002926 2909.85229 3129.19019
3397.0 0.0002944 2908.68311 3147.04663
3329.0 0.0003004 2907.50708 3172.39087
3380.0 0.0002959 2906.32373 3207.67188
3407.0 0.0002935 2905.13306 3258.04590
3556.0 0.0002812 2903.93530 3334.91284
3693.0 0.0002708 2902.72974 3462.95654
3841.0 0.0002603 2901.51733 3690.28125
4185.0 0.0002389 2900.29712 4095.57373
4783.0 0.0002091 2899.07007 4778.50488
5792.0 0.0001727 2897.83496 5818.53613
7027.0 0.0001423 2896.59229 7200.39404
8368.0 0.0001195 2895.34229 8719.89355
9624.0 0.0001039 2894.08423 9912.62207
9858.0 0.0001014 2892.81836 10190.35059
8957.0 0.0001116 2891.54517 9365.54199
7673.0 0.0001303 2890.26392 7908.17529
6323.0 0.0001582 2888.97510 6407.32275
5083.0 0.0001967 2887.67822 5187.97949
4241.0 0.0002358 2886.37354 4339.55664
3747.0 0.0002669 2885.06079 3814.29688
3590.0 0.0002786 2883.73999 3512.98486
3320.0 0.0003012 2882.41187 3343.10254
3278.0 0.0003051 2881.07520 3242.43628
3269.0 0.0003059 2879.73071 3176.17920
3217.0 0.0003108 2878.37842 3128.30103
3168.0 0.0003157 2877.01758 3091.38818
3154.0 0.0003171 2875.64893 3061.85059
3070.0 0.0003257 2874.27222 3037.67480
2993.0 0.0003341 2872.88721 3017.55957
3140.0 0.0003185 2871.49414 3000.59058
2956.0 0.0003383 2870.09302 2986.09888
3152.0 0.0003173 2868.68408 2973.58374
3037.0 0.0003293 2867.26636 2962.66260
3060.0 0.0003268 2865.84106 2953.04175
3082.0 0.0003245 2864.40747 2944.49072
3099.0 0.0003227 2862.96533 2936.82739
3128.0 0.0003197 2861.51514 2929.90820
3164.0 0.0003161 2860.05688 2923.61621
3074.0 0.0003253 2858.59058 2917.85645
3084.0 0.0003243 2857.11572 2912.55078
3102.0 0.0003224 2855.63306 2907.63525
2951.0 0.0003389 2854.14209 2903.05737
2909.0 0.0003438 2852.64307 2898.77173
2931.0 0.0003412 2851.13550 2894.74097
2852.0 0.0003506 2849.62012 2890.93408
2868.0 0.0003487 2848.09619 2887.32373
2782.0 0.000359 2846.56445 2883.88599
2762.0 0.000362 2845.02441 2880.60278
2776.0 0.000360 2843.47656 2877.45605
2823.0 0.000354 2841.92065 2869.37695
2885.0 0.0003466 2840.35620 2866.56226
2854.0 0.0003504 2838.78394 2864.38599
2804.0 0.000357 2837.20386 2861.76367
2794.0 0.000358 2835.61548 2859.21826
2818.0 0.000355 2834.01929 2856.74390
2894.0 0.0003455 2832.41479 2854.33276
2771.0 0.000361 2830.80273 2851.98071
2811.0 0.000356 2829.18237 2849.68115
2726.0 0.000367 2827.55469 2847.43237
2733.0 0.000366 2825.91895 2845.22827
2744.0 0.000364 2824.27515 2843.06616
2854.0 0.0003504 2822.62354 2840.94409
2844.0 0.000352 2820.96436 2838.85986
2838.0 0.000352 2819.29736 2836.81030
2779.0 0.000360 2817.62256 2834.79541
2770.0 0.000361 2815.94043 2832.81299
2797.0 0.000358 2814.25049 2830.86353
2800.0 0.000357 2812.55298 2828.94482
2710.0 0.000369 2810.84766 2827.05811
2787.0 0.000359 2809.13525 2827.69409
2752.0 0.000363 2807.41504 2825.92480
2743.0 0.000365 2805.68774 2824.19214
2730.0 0.000366 2803.95288 2822.49731
2672.0 0.000374 2802.21069 2820.84399
2805.0 0.000357 2800.46143 2819.23535
2810.0 0.000356 2798.70483 2817.67603
2653.0 0.000377 2796.94116 2816.17212
2800.0 0.000357 2795.17017 2814.73169
2784.0 0.000359 2793.39233 2813.36328
2835.0 0.000353 2791.60718 2812.08032
2763.0 0.000362 2789.81494 2810.89746
2691.0 0.000372 2788.01636 2809.83667
2742.0 0.000365 2786.21069 2808.92432
2662.0 0.000376 2784.39844 2808.19727
2711.0 0.000369 2782.57935 2807.70850
2697.0 0.000371 2780.75342 2807.53491
2694.0 0.000371 2778.92114 2807.30176
2650.0 0.000377 2777.08203 2808.31421
2735.0 0.000366 2775.23706 2810.63013
2643.0 0.000378 2773.38477 2815.44531
2781.0 0.000360 2771.52661 2824.94360
2737.0 0.000365 2769.66235 2842.40747
2754.0 0.000363 2767.79175 2871.52539
2888.0 0.0003463 2765.91504 2914.47656
2972.0 0.0003365 2764.03223 2968.94019
3047.0 0.0003282 2762.14307 3024.57715
2972.0 0.0003365 2760.24829 3061.40283
2882.0 0.0003470 2758.34741 3059.19995
2888.0 0.0003463 2756.44116 3018.74756
2862.0 0.0003494 2754.52881 2961.63770
2785.0 0.000359 2752.61133 2907.70288
2795.0 0.000358 2750.68774 2866.39844
2675.0 0.000374 2748.75879 2839.51074
2680.0 0.000373 2746.82422 2824.80518
2788.0 0.000359 2744.88501 2818.84863
2742.0 0.000365 2742.93994 2819.24146
2702.0 0.000370 2740.98975 2825.52612
2733.0 0.000366 2739.03467 2839.86279
2770.0 0.000361 2737.07495 2867.61426
2887.0 0.0003464 2735.10986 2917.32031
2968.0 0.0003369 2733.13965 2998.72461
3127.0 0.0003198 2731.16504 3114.50684
3265.0 0.0003063 2729.18579 3266.18726
3439.0 0.0002908 2727.20166 3425.52856
3524.0 0.0002838 2725.21313 3544.76831
3706.0 0.0002698 2723.22021 3578.86670
3533.0 0.0002830 2721.22339 3539.28760
3519.0 0.0002842 2719.22168 3487.15527
3435.0 0.0002911 2717.21582 3467.52490
3558.0 0.0002811 2715.20630 3480.03271
3466.0 0.0002885 2713.19238 3483.09692
3471.0 0.0002881 2711.17480 3426.30151
3331.0 0.0003002 2709.15308 3304.99341
3173.0 0.0003152 2707.12817 3159.97095
2969.0 0.0003368 2705.09937 3028.73218
2925.0 0.0003419 2703.06689 2928.13647
2728.0 0.000367 2701.03101 2859.86230
2792.0 0.000358 2698.99194 2817.51025
2801.0 0.000357 2696.94922 2792.45996
2604.0 0.000384 2694.90356 2777.54443
2719.0 0.000368 2692.85449 2768.18384
2688.0 0.000372 2690.80322 2761.95020
2661.0 0.000376 2688.74829 2757.70093
2692.0 0.000371 2686.69141 2754.93945
2645.0 0.000378 2684.63110 2753.45874
2679.0 0.000373 2682.56836 2753.20654
2697.0 0.000371 2680.50293 2754.23438
2668.0 0.000375 2678.43530 2756.70557
2716.0 0.000368 2676.36523 2760.95728
2716.0 0.000368 2674.29297 2767.68408
2780.0 0.000360 2672.21875 2778.39087
2786.0 0.000359 2670.14233 2796.29883
2871.0 0.0003483 2668.06421 2827.72632
2814.0 0.000355 2665.98364 2883.26709
2966.0 0.0003372 2663.90161 2977.05908
3192.0 0.0003133 2661.81787 3122.04565
3403.0 0.0002939 2659.73267 3320.56104
3694.0 0.0002707 2657.64600 3551.56689
3961.0 0.0002525 2655.55811 3757.59521
3951.0 0.0002531 2653.46875 3850.81860
4047.0 0.0002471 2651.37842 3777.91821
3709.0 0.0002696 2649.28662 3585.94580
3565.0 0.0002805 2647.19434 3366.48022
3217.0 0.0003108 2645.10083 3180.47217
3088.0 0.0003238 2643.00659 3051.03369
2951.0 0.0003389 2640.91162 2977.76025
2962.0 0.0003376 2638.81616 2950.06470
2829.0 0.000353 2636.72021 2958.02319
3009.0 0.0003323 2634.62427 3000.16260
3069.0 0.0003258 2632.52734 3089.37231
3353.0 0.0002982 2630.43042 3258.11572
3584.0 0.0002790 2628.33374 3559.88696
4160.0 0.0002404 2626.23682 4058.59888
4949.0 0.0002021 2624.13989 4798.20605
5898.0 0.0001695 2622.04297 5753.53467
7106.0 0.0001407 2619.94653 6769.60840
7871.0 0.0001270 2617.85083 7518.06104
7715.0 0.0001296 2615.75537 7614.78662
7104.0 0.0001408 2613.66040 6990.17822
6121.0 0.0001634 2611.56592 5988.41895
4941.0 0.0002024 2609.47241 4984.60547
4245.0 0.0002356 2607.37964 4175.21094
3618.0 0.0002764 2605.28809 3610.02417
3354.0 0.0002982 2603.19751 3255.83911
3180.0 0.0003145 2601.10840 3048.68774
2986.0 0.0003349 2599.02026 2929.09448
2938.0 0.0003404 2596.93311 2856.37646
2804.0 0.000357 2594.84741 2807.79736
2814.0 0.000355 2592.76343 2772.22974
2845.0 0.000351 2590.68115 2744.49268
2823.0 0.000354 2588.60034 2722.04004
2832.0 0.000353 2586.52148 2703.43799
2910.0 0.0003436 2584.44458 2687.76147
2869.0 0.0003486 2582.36987 2674.36157
2851.0 0.000351 2580.29688 2662.75903
2838.0 0.000352 2578.22632 2652.59717
2719.0 0.000368 2576.15771 2643.89209
2643.0 0.000378 2574.09155 2635.85742
2587.0 0.000387 2572.02783 2628.61304
2682.0 0.000373 2569.96655 2622.02856
2683.0 0.000373 2567.90771 2616.00000
2641.0 0.000379 2565.85254 2610.44312
2537.0 0.000394 2563.79956 2605.28857
2601.0 0.000384 2561.74927 2600.48267
2633.0 0.000380 2559.70190 2595.97778
2592.0 0.000386 2557.65771 2591.60669
2651.0 0.000377 2555.61670 2587.60303
2562.0 0.000390 2553.57886 2583.80835
2611.0 0.000383 2551.54443 2580.20044
2697.0 0.000371 2549.51343 2576.76367
2722.0 0.000367 2547.48584 2573.48511
2675.0 0.000374 2545.46143 2570.35498
2649.0 0.000378 2543.44141 2567.36890
2648.0 0.000378 2541.42432 2564.60693
2634.0 0.000380 2539.41138 2561.90723
2599.0 0.000385 2537.40210 2559.36035
2561.0 0.000390 2535.39697 2556.98560
2533.0 0.000395 2533.39575 2554.82056
2599.0 0.000385 2531.39941 2552.94653
2575.0 0.000388 2529.40625 2551.53857
2521.0 0.000397 2527.41772 2550.96997
2604.0 0.000384 2525.43335 2551.93677
2576.0 0.000388 2523.45386 2555.17334
2485.0 0.000402 2521.47852 2562.71826
2664.0 0.000375 2519.50781 2575.20020
2593.0 0.000386 2517.54150 2592.32544
2642.0 0.000379 2515.58057 2611.30591
2658.0 0.000376 2513.62427 2625.79980
2598.0 0.000385 2511.67212 2627.33423
2655.0 0.000377 2509.72534 2613.84424
2739.0 0.000365 2507.78345 2591.37451
2512.0 0.000398 2505.84668 2567.99951
2562.0 0.000390 2503.91504 2548.28394
2478.0 0.000404 2501.98853 2533.60645
2564.0 0.000390 2500.06763 2523.47363
2503.0 0.000400 2498.15186 2516.62085
2459.0 0.000407 2496.24121 2511.78223
2563.0 0.000390 2494.33618 2508.05249
2477.0 0.000404 2492.43652 2504.90601
2496.0 0.000401 2490.54248 2502.07861
2489.0 0.000402 2488.65430 2499.44629
2478.0 0.000404 2486.77197 2496.94824
2500.0 0.000400 2484.89478 2494.55029
2524.0 0.000396 2483.02417 2492.23267
2488.0 0.000402 2481.15894 2489.97876
2500.0 0.000400 2479.29980 2487.77930
2496.0 0.000401 2477.44629 2485.62500
2462.0 0.000406 2475.59912 2483.51001
2419.0 0.000413 2473.75781 2481.42920
2506.0 0.000399 2471.92310 2479.37964
2438.0 0.000410 2470.09424 2477.35693
2459.0 0.000407 2468.27222 2475.36060
2488.0 0.000402 2466.45605 2473.38721
2501.0 0.000400 2464.64624 2471.43457
2479.0 0.000403 2462.84277 2469.50317
2400.0 0.000417 2461.04541 2467.59033
2418.0 0.000414 2459.25513 2465.69678
2387.0 0.000419 2457.47095 2463.27686
2436.0 0.000411 2455.69385 2461.43042
2430.0 0.000412 2453.92334 2459.59912
2369.0 0.000422 2452.15918 2457.78467
2434.0 0.000411 2450.40161 2455.98584
2481.0 0.000403 2448.65112 2454.20410
2464.0 0.000406 2446.90723 2452.43774
2376.0 0.000421 2445.17041 2450.68799
2470.0 0.000405 2443.44019 2448.95410
2369.0 0.000422 2441.71704 2447.23657
2405.0 0.000416 2440.00049 2445.53589
2433.0 0.000411 2438.29150 2443.85278
2481.0 0.000403 2436.58911 2442.18701
2531.0 0.000395 2434.89380 2440.53906
2432.0 0.000411 2433.20581 2438.91040
2393.0 0.000418 2431.52466 2437.30127
2453.0 0.000408 2429.85083 2435.71240
2458.0 0.000407 2428.18384 2434.14502
2368.0 0.000422 2426.52417 2430.14917
2446.0 0.000409 2424.87231 2428.67847
2395.0 0.000418 2423.22729 2427.23193
2447.0 0.000409 2421.58936 2425.81152
2368.0 0.000422 2419.95874 2424.42041
2468.0 0.000405 2418.33569 2423.06030
2429.0 0.000412 2416.71997 2421.73486
2487.0 0.000402 2415.11108 2420.44751
2587.0 0.000387 2413.51025 2419.20313
2503.0 0.000400 2411.91650 2418.00635
2398.0 0.000417 2410.33057 2416.86328
2353.0 0.000425 2408.75146 2415.78149
2373.0 0.000421 2407.18018 2414.76978
2382.0 0.000420 2405.61597 2413.83838
2260.0 0.000442 2404.05981 2413.00171
2374.0 0.000421 2402.51074 2412.27515
2341.0 0.000427 2400.96924 2411.67969
2307.0 0.000433 2399.43530 2411.24121
2325.0 0.000430 2397.90918 2418.12427
2369.0 0.000422 2396.39014 2418.23315
2386.0 0.000419 2394.87891 2418.63306
2339.0 0.000428 2393.37500 2419.39673
2313.0 0.000432 2391.87891 2420.62451
2351.0 0.000425 2390.39038 2422.45874
2355.0 0.000425 2388.90942 2425.12036
2412.0 0.000415 2387.43579 2428.99951
2386.0 0.000419 2385.96997 2434.87769
2397.0 0.000417 2384.51196 2444.38892
2406.0 0.000416 2383.06104 2460.78931
2323.0 0.000430 2381.61792 2489.80054
2413.0 0.000414 2380.18237 2539.72705
2573.0 0.000389 2378.75415 2619.60669
2680.0 0.000373 2377.33374 2734.58911
2774.0 0.000360 2375.92090 2878.90015
3033.0 0.0003297 2374.51563 3027.20068
3021.0 0.0003310 2373.11792 3129.10132
3064.0 0.0003264 2371.72778 3130.74585
3054.0 0.0003274 2370.34497 3029.90625
2826.0 0.000354 2368.96973 2880.04956
2617.0 0.000382 2367.60229 2733.92529
2563.0 0.000390 2366.24170 2616.57568
2461.0 0.000406 2364.88940 2534.75708
2387.0 0.000419 2363.54419 2483.61841
2355.0 0.000425 2362.20679 2454.38965
2369.0 0.000422 2360.87646 2439.27173
2460.0 0.000407 2359.55347 2433.61768
2368.0 0.000422 2358.23804 2436.03467
2416.0 0.000414 2356.93066 2447.38940
2407.0 0.000415 2355.62964 2469.20752
2484.0 0.000403 2354.33667 2501.61426
2549.0 0.000392 2353.05078 2540.93335
2569.0 0.000389 2351.77246 2577.14282
2634.0 0.000380 2350.50146 2594.08179
2576.0 0.000388 2349.23730 2580.28296
2485.0 0.000402 2347.98071 2542.44238
2485.0 0.000402 2346.73096 2497.25610
2507.0 0.000399 2345.48901 2456.70947
2435.0 0.000411 2344.25391 2425.69312
2390.0 0.000418 2343.02612 2404.47681
2431.0 0.000411 2341.80566 2391.01123
2377.0 0.000421 2340.59204 2382.68604
2446.0 0.000409 2339.38525 2377.36646
2330.0 0.000429 2338.18604 2373.68506
2324.0 0.000430 2336.99341 2370.90088
2310.0 0.000433 2335.80811 2368.65137
2419.0 0.000413 2334.62915 2366.76196
2338.0 0.000428 2333.45776 2365.14087
2371.0 0.000422 2332.29272 2363.69458
2310.0 0.000433 2331.13550 2362.46582
2313.0 0.000432 2329.98413 2361.38770
2326.0 0.000430 2328.83984 2360.44263
2279.0 0.000439 2327.70215 2359.61621
2321.0 0.000431 2326.57153 2358.89819
2283.0 0.000438 2325.44702 2358.28198
2317.0 0.000432 2324.32959 2357.76245
2358.0 0.000424 2323.21875 2357.33618
2307.0 0.000433 2322.11450 2357.00122
2351.0 0.000425 2321.01636 2356.75781
2291.0 0.000436 2319.92480 2356.60547
2361.0 0.000424 2318.84009 2356.54688
2351.0 0.000425 2317.76123 2356.58374
2290.0 0.000437 2316.68896 2356.71997
2313.0 0.000432 2315.62280 2356.95898
2344.0 0.000427 2314.56299 2357.30713
2359.0 0.000424 2313.50952 2357.76929
2271.0 0.000440 2312.46216 2358.35352
2348.0 0.000426 2311.42090 2359.06689
2391.0 0.000418 2310.38574 2359.91919
2254.0 0.000444 2309.35620 2360.91968
2272.0 0.000440 2308.33301 2362.08203
2307.0 0.000433 2307.31567 2363.41846
2378.0 0.000421 2306.30420 2364.94458
2313.0 0.000432 2305.29834 2366.67773
2377.0 0.000421 2304.29858 2368.63647
2304.0 0.000434 2303.30444 2370.84375
2343.0 0.000427 2302.31592 2373.32471
2404.0 0.000416 2301.33276 2376.10815
2389.0 0.000419 2300.35547 2379.22729
2474.0 0.000404 2299.38354 2382.71899
2497.0 0.000400 2298.41724 2386.62842
2466.0 0.000406 2297.45605 2391.00513
2523.0 0.000396 2296.50073 2395.90845
2516.0 0.000397 2295.55005 2401.40527
2467.0 0.000405 2294.60498 2407.57690
2499.0 0.000400 2293.66479 2414.51733
2382.0 0.000420 2292.72998 2422.33862
2461.0 0.000406 2291.80005 2431.17285
2519.0 0.000397 2290.87524 2441.17944
2459.0 0.000407 2289.95508 2452.54932
2338.0 0.000428 2289.04028 2465.51611
2453.0 0.000408 2288.13013 2480.36353
2636.0 0.000379 2287.22461 2497.44189
2574.0 0.000389 2286.32422 2517.18726
2576.0 0.000388 2285.42773 2540.14551
2548.0 0.000392 2284.53638 2567.01147
2567.0 0.000390 2283.64941 2598.67310
2646.0 0.000378 2282.76685 2636.28589
2678.0 0.000373 2281.88867 2681.37036
2708.0 0.000369 2281.01489 2735.97168
2843.0 0.000352 2280.14551 2802.93726
2867.0 0.0003488 2279.28027 2886.51123
3006.0 0.0003327 2278.41919 2993.77393
3189.0 0.0003136 2277.56226 3138.18091
3458.0 0.0002892 2276.70898 3347.36987
3792.0 0.0002637 2275.86035 3677.35571
4277.0 0.0002338 2275.01514 4231.37207
5384.0 0.0001857 2274.17383 5171.68848
6833.0 0.0001463 2273.33643 6700.74805
9273.0 0.0001078 2272.50269 8987.98633
12604.0 0.0000793 2271.67236 12039.51660
16126.0 0.0000620 2270.84619 15524.21582
19100.0 0.0000524 2270.02295 18581.55078
20253.0 0.0000494 2269.20337 19902.82227
18813.0 0.0000532 2268.38721 18707.64844
15897.0 0.0000629 2267.57446 15692.38965
12196.0 0.0000820 2266.76514 12193.95605
9228.0 0.0001084 2265.95874 9108.64355
6732.0 0.0001485 2265.15552 6785.62549
5319.0 0.0001880 2264.35522 5228.55566
4311.0 0.0002320 2263.55811 4271.17432
3757.0 0.0002662 2262.76367 3709.60913
3535.0 0.0002829 2261.97241 3378.69800
3319.0 0.0003013 2261.18384 3173.01685
3199.0 0.0003126 2260.39819 3035.82202
3052.0 0.0003277 2259.61475 2940.38940
3023.0 0.0003308 2258.83447 2876.32446
2918.0 0.0003427 2258.05640 2842.87329
2897.0 0.0003452 2257.28076 2846.56616
2997.0 0.0003337 2256.50757 2899.44482
3067.0 0.0003261 2255.73706 3014.59424
3255.0 0.0003072 2254.96826 3197.14160
3384.0 0.0002955 2254.20215 3433.08594
3650.0 0.0002740 2253.43799 3672.36060
3763.0 0.0002657 2252.67578 3821.91650
3677.0 0.0002720 2251.91602 3790.19824
3595.0 0.0002782 2251.15771 3583.65771
3249.0 0.0003078 2250.40137 3299.60596
3047.0 0.0003282 2249.64722 3026.60254
2881.0 0.0003471 2248.89453 2806.91357
2705.0 0.000370 2248.14355 2650.25708
2632.0 0.000380 2247.39429 2547.64893
2562.0 0.000390 2246.64648 2483.35107
2451.0 0.000408 2245.90015 2442.69849
2516.0 0.000397 2245.15527 2415.39038
2440.0 0.000410 2244.41162 2395.42285
2459.0 0.000407 2243.66968 2379.69922
2412.0 0.000415 2242.92847 2366.61084
2301.0 0.000435 2242.18872 2355.53931
2421.0 0.000413 2241.45020 2345.94019
2359.0 0.000424 2240.71240 2337.50854
2334.0 0.000428 2239.97583 2330.02466
2349.0 0.000426 2239.23999 2323.32275
2436.0 0.000411 2238.50513 2317.43628
2381.0 0.000420 2237.77075 2311.94189
2345.0 0.000426 2237.03735 2306.91870
2295.0 0.000436 2236.30469 2302.30029
2322.0 0.000431 2235.57275 2298.03345
2292.0 0.000436 2234.84106 2294.07227
2366.0 0.000423 2234.10986 2290.38135
2336.0 0.000428 2233.37915 2286.92798
2373.0 0.000421 2232.64893 2283.68652
2309.0 0.000433 2231.91870 2280.63379
2287.0 0.000437 2231.18872 2277.74976
2243.0 0.000446 2230.45923 2275.01855
2259.0 0.000443 2229.72974 2272.42505
2241.0 0.000446 2229.00024 2269.95605
2349.0 0.000426 2228.27075 2267.60034
2359.0 0.000424 2227.54126 2265.34814
2339.0 0.000428 2226.81152 2263.19019
2339.0 0.000428 2226.08154 2261.11914
2257.0 0.000443 2225.35132 2259.12695
2290.0 0.000437 2224.62109 2257.20874
2255.0 0.000443 2223.89014 2255.35767
2283.0 0.000438 2223.15918 2253.56934
2238.0 0.000447 2222.42773 2251.83887
2263.0 0.000442 2221.69556 2250.16187
2318.0 0.000431 2220.96265 2248.53467
2339.0 0.000428 2220.22925 2246.95410
2301.0 0.000435 2219.49512 2245.41626
2366.0 0.000423 2218.76025 2243.91943
2458.0 0.000407 2218.02466 2242.46045
2427.0 0.000412 2217.28833 2241.03662
2479.0 0.000403 2216.55078 2239.64600
2457.0 0.000407 2215.81274 2238.28613
2435.0 0.000411 2215.07349 2236.95630
2406.0 0.000416 2214.33301 2235.65356
2321.0 0.000431 2213.59155 2234.37671
2304.0 0.000434 2212.84863 2233.12476
2322.0 0.000431 2212.10498 2231.89575
2236.0 0.000447 2211.35986 2230.68945
2245.0 0.000445 2210.61353 2229.50366
2175.0 0.000460 2209.86572 2228.33740
2303.0 0.000434 2209.11670 2227.19019
2176.0 0.000460 2208.36597 2226.06104
2226.0 0.000449 2207.61377 2224.94897
2224.0 0.000450 2206.86011 2223.85376
2152.0 0.000465 2206.10498 2222.77417
2234.0 0.000448 2205.34790 2228.33569
2238.0 0.000447 2204.58936 2227.40356
2195.0 0.000456 2203.82886 2226.48901
2302.0 0.000434 2203.06689 2225.59106
2217.0 0.000451 2202.30298 2224.70996
2282.0 0.000438 2201.53735 2223.84668
2255.0 0.000443 2200.76978 2222.99927
2183.0 0.000458 2200.00024 2222.16870
2207.0 0.000453 2199.22852 2221.35498
2227.0 0.000449 2198.45508 2220.55811
2311.0 0.000433 2197.67944 2219.77856
2199.0 0.000455 2196.90161 2219.01611
2234.0 0.000448 2196.12183 2218.27148
2319.0 0.000431 2195.33960 2217.54492
2201.0 0.000454 2194.55542 2216.83789
2130.0 0.000469 2193.76855 2216.14990
2198.0 0.000455 2192.98022 2215.48267
2185.0 0.000458 2192.18896 2214.83716
2188.0 0.000457 2191.39526 2214.21411
2148.0 0.000466 2190.59961 2213.61548
2155.0 0.000464 2189.80127 2213.04224
2227.0 0.000449 2189.00049 2212.49731
2222.0 0.000450 2188.19727 2211.98193
2151.0 0.000465 2187.39136 2211.49878
2124.0 0.000471 2186.58325 2211.05127
2197.0 0.000455 2185.77222 2210.64282
2186.0 0.000457 2184.95874 2210.27734
2150.0 0.000465 2184.14258 2209.95996
2191.0 0.000456 2183.32373 2209.69580
2195.0 0.000456 2182.50220 2202.35547
2239.0 0.000447 2181.67773 2202.34399
2148.0 0.000466 2180.85059 2202.40845
2195.0 0.000456 2180.02100 2202.56030
2134.0 0.000469 2179.18848 2202.81421
2132.0 0.000469 2178.35327 2203.18848
2128.0 0.000470 2177.51489 2203.70581
2166.0 0.000462 2176.67383 2204.39404
2129.0 0.000470 2175.82959 2205.28979
2220.0 0.000450 2174.98267 2206.43921
2248.0 0.000445 2174.13281 2207.90308
2148.0 0.000466 2173.27979 2209.76196
2166.0 0.000462 2172.42407 2212.12842
2138.0 0.000468 2171.56519 2215.16797
2235.0 0.000447 2170.70337 2219.15552
2190.0 0.000457 2169.83813 2224.60522
2247.0 0.000445 2168.97046 2232.54907
2234.0 0.000448 2168.09912 2245.03027
2147.0 0.000466 2167.22510 2265.74414
2130.0 0.000469 2166.34766 2300.42358
2279.0 0.000439 2165.46729 2356.21558
2404.0 0.000416 2164.58398 2439.26587
2511.0 0.000398 2163.69727 2549.85474
2635.0 0.000380 2162.80737 2678.81250
2850.0 0.000351 2161.91455 2797.12354
2946.0 0.0003394 2161.01831 2858.29224
3048.0 0.0003281 2160.11890 2828.41626
2986.0 0.0003349 2159.21631 2725.49707
2972.0 0.0003365 2158.31079 2597.75293
2908.0 0.0003439 2157.40137 2481.16431
2799.0 0.000357 2156.48950 2391.53052
2705.0 0.000370 2155.57397 2331.42944
2610.0 0.000383 2154.65527 2296.81787
2446.0 0.000409 2153.73340 2282.19824
2373.0 0.000421 2152.80811 2284.00610
2297.0 0.000435 2151.87964 2301.68188
2370.0 0.000422 2150.94775 2336.56201
2375.0 0.000421 2150.01270 2389.22217
2528.0 0.000396 2149.07471 2455.96655
2484.0 0.000403 2148.13306 2524.71118
2559.0 0.000391 2147.18823 2572.15674
2638.0 0.000379 2146.24023 2573.36548
2489.0 0.000402 2145.28882 2526.76733
2396.0 0.000417 2144.33423 2456.32593
2355.0 0.000425 2143.37622 2411.01099
2350.0 0.000426 2142.41504 2354.10352
2221.0 0.000450 2141.45068 2313.57520
2200.0 0.000455 2140.48315 2287.79907
2132.0 0.000469 2139.51196 2272.98291
2226.0 0.000449 2138.53784 2265.28076
2176.0 0.000460 2137.56030 2261.82422
2072.0 0.000483 2136.57983 2260.87036
2157.0 0.000464 2135.59546 2261.50342
2184.0 0.000458 2134.60840 2263.29150
2147.0 0.000466 2133.61792 2266.04419
2197.0 0.000455 2132.62451 2269.68945
2137.0 0.000468 2131.62793 2274.21118
2212.0 0.000452 2130.62793 2279.63501
2189.0 0.000457 2129.62451 2286.01367
2264.0 0.000442 2128.61816 2293.43213
2245.0 0.000445 2127.60840 2302.00269
2270.0 0.000441 2126.59595 2311.87256
2220.0 0.000450 2125.58008 2323.22632
2289.0 0.000437 2124.56128 2336.29712
2303.0 0.000434 2123.53931 2363.44556
2318.0 0.000431 2122.51416 2381.10962
2380.0 0.000420 2121.48584 2401.60889
2364.0 0.000423 2120.45459 2425.52637
2347.0 0.000426 2119.42017 2453.60596
2413.0 0.000414 2118.38257 2486.80933
2522.0 0.000397 2117.34229 2526.40039
2578.0 0.000388 2116.29907 2574.06470
2609.0 0.000383 2115.25269 2632.13208
2759.0 0.000362 2114.20337 2704.02905
2853.0 0.0003505 2113.15088 2795.34570
2938.0 0.0003404 2112.09595 2916.36938
3183.0 0.0003142 2111.03784 3087.56323
3420.0 0.0002924 2109.97681 3349.47192
3872.0 0.0002583 2108.91284 3776.22363
4532.0 0.0002207 2107.84619 4485.53955
5732.0 0.0001745 2106.77710 5630.06689
7353.0 0.0001360 2105.70459 7353.06787
9912.0 0.0001009 2104.62988 9703.32520
12686.0 0.0000788 2103.55200 12516.30469
15209.0 0.0000658 2102.47144 15263.20508
16777.0 0.0000596 2101.38818 16979.77539
16812.0 0.0000595 2100.30200 16761.92383
14748.0 0.0000678 2099.21387 14732.64355
11838.0 0.0000845 2098.12280 11898.87988
9126.0 0.0001096 2097.02905 9153.43359
6810.0 0.0001468 2095.93286 6933.65918
5267.0 0.0001899 2094.83398 5345.57373
4174.0 0.0002396 2093.73267 4310.58154
3664.0 0.0002729 2092.62891 3677.02246
3230.0 0.0003096 2091.52271 3297.02417
3040.0 0.0003289 2090.41406 3062.24512
2879.0 0.0003473 2089.30322 2906.93457
2768.0 0.000361 2088.19019 2796.02661
2669.0 0.000375 2087.07422 2712.00635
2657.0 0.000376 2085.95630 2645.99292
2521.0 0.000397 2084.83618 2593.04053
2493.0 0.000401 2083.71362 2550.04126
2503.0 0.000400 2082.58911 2514.88354
2358.0 0.000424 2081.46240 2485.92822
2383.0 0.000420 2080.33350 2462.03589
2345.0 0.000426 2079.20288 2442.31274
2397.0 0.000417 2078.06958 2426.06689
2304.0 0.000434 2076.93481 2412.76294
2368.0 0.000422 2075.79761 2401.98071
2231.0 0.000448 2074.65845 2393.39087
2404.0 0.000416 2073.51758 2386.73242
2292.0 0.000436 2072.37476 2381.80176
2314.0 0.000432 2071.23022 2378.43823
2219.0 0.000451 2070.08398 2376.51978
2254.0 0.000444 2068.93579 2375.95361
2248.0 0.000445 2067.78613 2376.67188
2315.0 0.000432 2066.63452 2378.63062
2331.0 0.000429 2065.48096 2381.80615
2302.0 0.000434 2064.32617 2386.19165
2297.0 0.000435 2063.16968 2391.79883
2307.0 0.000433 2062.01172 2398.65576
2306.0 0.000434 2060.85229 2406.80786
2297.0 0.000435 2059.69141 2416.31738
2265.0 0.000442 2058.52930 2427.26563
2292.0 0.000436 2057.36548 2439.75342
2278.0 0.000439 2056.20044 2453.90479
2396.0 0.000417 2055.03418 2469.86865
2331.0 0.000429 2053.86646 2487.82251
2416.0 0.000414 2052.69775 2507.97754
2396.0 0.000417 2051.52783 2530.58569
2480.0 0.000403 2050.35693 2555.94409
2413.0 0.000414 2049.18457 2588.72900
2516.0 0.000397 2048.01147 2620.79590
2583.0 0.000387 2046.83716 2656.89844
2645.0 0.000378 2045.66199 2697.64502
2580.0 0.000388 2044.48584 2743.77124
2612.0 0.000383 2043.30896 2796.17529
2764.0 0.000362 2042.13098 2855.95337
2867.0 0.0003488 2040.95276 2924.46484
2899.0 0.0003449 2039.77332 3003.10962
3071.0 0.0003256 2038.59326 3094.60034
3130.0 0.0003195 2037.41260 3201.34546
3245.0 0.0003082 2036.23120 3326.82056
3372.0 0.0002966 2035.04919 3475.55615
3600.0 0.0002778 2033.86694 3653.56860
3772.0 0.0002651 2032.68408 3869.10645
4095.0 0.0002442 2031.50061 4134.16455
4404.0 0.0002271 2030.31714 4467.99023
4934.0 0.0002027 2029.13293 4905.32227
5591.0 0.0001789 2027.94861 5514.18799
6368.0 0.0001570 2026.76392 6429.14160
7695.0 0.0001300 2025.57910 7893.82617
10082.0 0.0000992 2024.39417 10302.90820
14041.0 0.0000712 2023.20898 14180.43945
20036.0 0.0000499 2022.02368 20047.73438
28319.0 0.0000353 2020.83862 28151.93555
38738.0 0.0000258 2019.65344 38077.57813
49267.0 0.0000203 2018.46814 48235.92578
55663.0 0.0000180 2017.28308 55465.65234
55868.0 0.0000179 2016.09814 56239.05859
49688.0 0.0000201 2014.91333 50103.95313
40107.0 0.0000249 2013.72876 40277.16016
29981.0 0.0000334 2012.54468 30208.47070
21559.0 0.0000464 2011.36084 21781.82617
15596.0 0.0000641 2010.17737 15594.68555
11551.0 0.0000866 2008.99414 11496.33594
9146.0 0.0001093 2007.81152 8998.33301
7729.0 0.0001294 2006.62939 7572.47363
7138.0 0.0001401 2005.44763 6815.60254
6809.0 0.0001469 2004.26672 6496.57471
6652.0 0.0001503 2003.08618 6542.46826
7168.0 0.0001395 2001.90662 7013.73145
8286.0 0.0001207 2000.72778 8080.60010
9950.0 0.0001005 1999.54956 9979.37793
12882.0 0.0000776 1998.37219 12919.59961
16965.0 0.0000589 1997.19556 16933.63867
21886.0 0.0000457 1996.02002 21675.10742
26467.0 0.0000378 1994.84546 26163.80469
28896.0 0.0000346 1993.67175 28717.69922
27893.0 0.0000359 1992.49915 27922.99414
23750.0 0.0000421 1991.32776 24185.56445
19081.0 0.0000524 1990.15747 19241.14063
14417.0 0.0000694 1988.98816 14527.12012
10461.0 0.0000956 1987.82019 10726.45117
7876.0 0.0001270 1986.65332 7993.38965
6029.0 0.0001659 1985.48779 6190.12354
4862.0 0.0002057 1984.32373 5064.27734
4203.0 0.0002379 1983.16101 4370.71680
3913.0 0.0002556 1982.00000 3928.57813
3452.0 0.0002897 1980.84009 3626.64771
3324.0 0.0003008 1979.68188 3404.59326
3119.0 0.0003206 1978.52515 3231.74438
3034.0 0.0003296 1977.37000 3092.27856
2879.0 0.0003473 1976.21655 2977.39771
2793.0 0.000358 1975.06470 2881.64941
2798.0 0.000357 1973.91443 2801.43799
2663.0 0.000376 1972.76611 2734.35474
2697.0 0.000371 1971.61987 2679.15576
2618.0 0.000382 1970.47510 2633.70874
2574.0 0.000389 1969.33240 2596.95605
2501.0 0.000400 1968.19153 2560.13379
2487.0 0.000402 1967.05249 2533.10498
2540.0 0.000394 1965.91577 2504.72754
2485.0 0.000402 1964.78088 2472.49561
2496.0 0.000401 1963.64807 2438.15063
2434.0 0.000411 1962.51758 2405.12134
2328.0 0.000430 1961.38904 2375.66943
2288.0 0.000437 1960.26282 2350.66919
2382.0 0.000420 1959.13879 2330.19507
2230.0 0.000448 1958.01697 2314.03467
2237.0 0.000447 1956.89771 2302.06812
2278.0 0.000439 1955.78064 2294.46899
2264.0 0.000442 1954.66565 2291.47119
2234.0 0.000448 1953.55371 2293.13965
2282.0 0.000438 1952.44385 2298.66382
2258.0 0.000443 1951.33667 2305.62061
2280.0 0.000439 1950.23169 2309.40430
2288.0 0.000437 1949.12976 2305.00903
2247.0 0.000445 1948.03015 2291.92310
2306.0 0.000434 1946.93298 2274.79419
2115.0 0.000473 1945.83887 2258.55444
2276.0 0.000439 1944.74731 2245.94141
2255.0 0.000443 1943.65845 2237.91113
2218.0 0.000451 1942.57239 2234.40137
2150.0 0.000465 1941.48926 2234.90942
2162.0 0.000463 1940.40881 2238.91504
2169.0 0.000461 1939.33105 2246.12793
2177.0 0.000459 1938.25659 2256.56201
2271.0 0.000440 1937.18494 2270.52905
2192.0 0.000456 1936.11621 2288.61499
2209.0 0.000453 1935.05054 2311.69800
2311.0 0.000433 1933.98779 2341.02979
2259.0 0.000443 1932.92810 2378.45093
2349.0 0.000426 1931.87134 2426.90088
2374.0 0.000421 1930.81812 2491.61255
2596.0 0.000385 1929.76770 2582.69165
2682.0 0.000373 1928.72058 2719.86206
2863.0 0.0003493 1927.67651 2939.28613
3247.0 0.0003080 1926.63611 3299.72217
3855.0 0.0002594 1925.59863 3881.30225
4851.0 0.0002061 1924.56458 4768.22461
6249.0 0.0001600 1923.53357 6010.71289
7944.0 0.0001259 1922.50598 7568.59229
9810.0 0.0001019 1921.48181 9235.92578
10891.0 0.0000918 1920.46106 10562.51953
11144.0 0.0000897 1919.44360 10957.50879
10524.0 0.0000950 1918.42969 10193.12500
8869.0 0.0001128 1917.41931 8682.86719
7078.0 0.0001413 1916.41235 7012.65820
5485.0 0.0001823 1915.40881 5547.20215
4350.0 0.0002299 1914.40894 4426.45166
3670.0 0.0002725 1913.41235 3652.73877
3137.0 0.0003188 1912.41931 3159.16675
2963.0 0.0003375 1911.43005 2860.30811
2812.0 0.000356 1910.44446 2683.65552
2762.0 0.000362 1909.46252 2581.36719
2709.0 0.000369 1908.48401 2529.09521
2695.0 0.000371 1907.50940 2520.80933
2828.0 0.000354 1906.53833 2560.13843
2787.0 0.000359 1905.57092 2658.07959
2879.0 0.0003473 1904.60730 2822.79834
3117.0 0.0003208 1903.64746 3050.50293
3432.0 0.0002914 1902.69128 3313.12817
3535.0 0.0002829 1901.73914 3543.71558
3612.0 0.0002769 1900.79053 3641.00928
3432.0 0.0002914 1899.84595 3540.91797
3156.0 0.0003169 1898.90491 3290.15991
3052.0 0.0003277 1897.96777 2990.51367
2814.0 0.000355 1897.03455 2715.32227
2542.0 0.000393 1896.10498 2496.60132
2539.0 0.000394 1895.17944 2339.37598
2569.0 0.000389 1894.25781 2234.20972
2469.0 0.000405 1893.34009 2166.50708
2448.0 0.000408 1892.42639 2097.75171
2453.0 0.000408 1891.51648 2068.43774
2321.0 0.000431 1890.61060 2047.15527
2353.0 0.000425 1889.70850 2030.61499
2340.0 0.000427 1888.81030 2017.11182
2218.0 0.000451 1887.91614 2005.74170
2252.0 0.000444 1887.02612 1995.97864
2274.0 0.000440 1886.14001 1987.48157
2280.0 0.000439 1885.25781 1980.00610
2245.0 0.000445 1884.37964 1973.37085
2161.0 0.000463 1883.50525 1967.43591
2135.0 0.000468 1882.63501 1962.09253
2247.0 0.000445 1881.76880 1957.25391
2061.0 0.000485 1880.90674 1952.85144
2084.0 0.000480 1880.04834 1948.82910
2027.0 0.000493 1879.19446 1945.14343
1906.0 0.000525 1878.34448 1941.75781
1918.0 0.000521 1877.49817 1938.64380
1995.0 0.000501 1876.65613 1935.78003
1966.0 0.000509 1875.81799 1933.15027
1918.0 0.000521 1874.98413 1918.76123
1907.0 0.000524 1874.15430 1919.37915
1893.0 0.000528 1873.32837 1917.67578
1898.0 0.000527 1872.50635 1916.24585
1901.0 0.000526 1871.68884 1915.17712
1948.0 0.000513 1870.87500 1914.62817
1883.0 0.000531 1870.06531 1914.84363
1973.0 0.000507 1869.25940 1916.12915
2016.0 0.000496 1868.45789 1918.75952
1925.0 0.000519 1867.66016 1922.81689
1923.0 0.000520 1866.86658 1927.96765
2000.0 0.000500 1866.07690 1933.16431
1990.0 0.000503 1865.29150 1936.47168
1907.0 0.000524 1864.50989 1935.96973
1981.0 0.000505 1863.73242 1931.72144
1892.0 0.000529 1862.95874 1925.73083
2029.0 0.000493 1862.18921 1919.95056
1977.0 0.000506 1861.42371 1915.43396
2029.0 0.000493 1860.66223 1912.54102
2003.0 0.000499 1859.90454 1911.24084
1958.0 0.000511 1859.15125 1911.33545
2055.0 0.000487 1858.40149 1912.62646
1983.0 0.000504 1857.65588 1915.01758
2084.0 0.000480 1856.91406 1918.53088
2031.0 0.000492 1856.17627 1923.45337
2025.0 0.000494 1855.44250 1930.27209
2003.0 0.000499 1854.71252 1940.02283
2092.0 0.000478 1853.98645 1954.74353
2030.0 0.000493 1853.26428 1978.20923
2057.0 0.000486 1852.54626 2016.68774
2156.0 0.000464 1851.83179 2079.06030
2199.0 0.000455 1851.12122 2175.35303
2321.0 0.000431 1850.41443 2312.99780
2556.0 0.000391 1849.71167 2490.94702
2803.0 0.000357 1849.01257 2691.70215
2852.0 0.0003506 1848.31726 2871.32690
2951.0 0.0003389 1847.62585 2960.76245
2985.0 0.0003350 1846.93835 2911.77612
2718.0 0.000368 1846.25427 2751.38574
2542.0 0.000393 1845.57422 2550.01416
2396.0 0.000417 1844.89758 2361.31104
2145.0 0.000466 1844.22485 2210.05225
2109.0 0.000474 1843.55591 2101.64258
1909.0 0.000524 1842.89063 2030.96094
1939.0 0.000516 1842.22876 1988.85828
1941.0 0.000515 1841.57080 1966.59119
1918.0 0.000521 1840.91638 1957.47131
1927.0 0.000519 1840.26538 1957.13721
1986.0 0.000504 1839.61804 1962.12439
1954.0 0.000512 1838.97437 1968.44922
1971.0 0.000507 1838.33435 1970.87244
1874.0 0.000534 1837.69763 1965.22668
1918.0 0.000521 1837.06445 1952.36584
1850.0 0.000541 1836.43481 1936.71143
1933.0 0.000517 1835.80847 1921.78308
1864.0 0.000536 1835.18591 1908.93762
1844.0 0.000542 1834.56628 1898.33667
1805.0 0.000554 1833.95044 1889.90723
1835.0 0.000545 1833.33765 1883.47644
1861.0 0.000537 1832.72839 1878.70154
1783.0 0.000561 1832.12244 1875.19165
1833.0 0.000546 1831.51965 1872.61511
1832.0 0.000546 1830.92041 1870.72107
1848.0 0.000541 1830.32434 1869.32703
1840.0 0.000543 1829.73120 1868.30750
1876.0 0.000533 1829.14148 1867.58240
1808.0 0.000553 1828.55481 1862.80676
1837.0 0.000544 1827.97144 1862.62317
1836.0 0.000545 1827.39111 1862.64783
1827.0 0.000547 1826.81384 1862.87915
1912.0 0.000523 1826.23975 1863.32312
1854.0 0.000539 1825.66858 1863.99182
1909.0 0.000524 1825.10046 1864.90332
1763.0 0.000567 1824.53528 1866.08301
1805.0 0.000554 1823.97314 1867.56372
1879.0 0.000532 1823.41370 1869.38867
1811.0 0.000552 1822.85718 1871.61206
1853.0 0.000540 1822.30371 1874.30530
1868.0 0.000535 1821.75305 1877.55798
1870.0 0.000535 1821.20520 1881.48755
1933.0 0.000517 1820.66003 1886.24768
1943.0 0.000515 1820.11768 1892.04456
1917.0 0.000522 1819.57813 1899.40637
1923.0 0.000520 1819.04114 1908.28735
1918.0 0.000521 1818.50671 1919.64197
1957.0 0.000511 1817.97498 1934.13477
1931.0 0.000518 1817.44592 1955.89124
1961.0 0.000510 1816.91943 1988.37732
1986.0 0.000504 1816.39551 2039.92542
2110.0 0.000474 1815.87390 2122.52026
2282.0 0.000438 1815.35474 2250.84375
2538.0 0.000394 1814.83813 2438.00073
2801.0 0.000357 1814.32397 2688.01196
2951.0 0.0003389 1813.81213 2985.42188
3230.0 0.0003096 1813.30249 3281.24585
3458.0 0.0002892 1812.79553 3483.38452
3411.0 0.0002932 1812.29065 3495.34546
3225.0 0.0003101 1811.78784 3310.71777
2994.0 0.0003340 1811.28735 3021.42676
2683.0 0.000373 1810.78918 2723.55835
2473.0 0.000404 1810.29285 2470.28174
2283.0 0.000438 1809.79883 2279.61890
2152.0 0.000465 1809.30688 2148.94629
2048.0 0.000488 1808.81702 2065.68701
2059.0 0.000486 1808.32898 2015.09631
1971.0 0.000507 1807.84302 1984.87000
1953.0 0.000512 1807.35901 1966.64209
1890.0 0.000529 1806.87671 1955.50378
1916.0 0.000522 1806.39636 1948.85986
1925.0 0.000519 1805.91797 1945.41199
1982.0 0.000505 1805.44141 1944.52588
1819.0 0.000550 1804.96643 1945.89746
1904.0 0.000525 1804.49329 1949.41150
1936.0 0.000517 1804.02185 1955.08008
1925.0 0.000519 1803.55188 1963.02795
1870.0 0.000535 1803.08362 1973.49255
1978.0 0.000506 1802.61707 1986.84143
1991.0 0.000502 1802.15210 2003.60229
1997.0 0.000501 1801.68848 2024.51990
2058.0 0.000486 1801.22632 2050.66724
2009.0 0.000498 1800.76575 2083.68286
1995.0 0.000501 1800.30640 2126.36646
2140.0 0.000467 1799.84875 2183.66479
2235.0 0.000447 1799.39197 2265.28296
2365.0 0.000423 1798.93689 2389.19702
2625.0 0.000381 1798.48279 2586.10498
2892.0 0.0003458 1798.03003 2901.78369
3312.0 0.0003019 1797.57849 3392.61450
3903.0 0.0002562 1797.12805 4109.84619
5022.0 0.0001991 1796.67896 5071.43945
6370.0 0.0001570 1796.23071 6223.11133
7341.0 0.0001362 1795.78345 7385.10596
8132.0 0.0001230 1795.33752 8210.40918
8157.0 0.0001226 1794.89233 8314.46680
7621.0 0.0001312 1794.44800 7637.53955
6536.0 0.0001530 1794.00476 6518.05078
5371.0 0.0001862 1793.56238 5338.22021
4392.0 0.0002277 1793.12085 4318.39551
3596.0 0.0002781 1792.68005 3538.22949
3045.0 0.0003284 1792.23999 2993.47070
2650.0 0.000377 1791.80066 2638.01758
2398.0 0.000417 1791.36206 2414.70581
2386.0 0.000419 1790.92407 2274.26172
2252.0 0.000444 1790.48682 2182.25879
2117.0 0.000472 1790.04993 2117.94556
2089.0 0.000479 1789.61389 2069.99048
2029.0 0.000493 1789.17834 2032.45935
2044.0 0.000489 1788.74316 2002.15466
2025.0 0.000494 1788.30847 1977.33374
1980.0 0.000505 1787.87402 1956.50366
1920.0 0.000521 1787.44006 1938.93115
1948.0 0.000513 1787.00647 1923.97241
1858.0 0.000538 1786.57324 1911.13867
1868.0 0.000535 1786.14014 1900.05054
1925.0 0.000519 1785.70764 1890.41223
1828.0 0.000547 1785.27490 1881.98889
1875.0 0.000533 1784.84253 1874.59521
1854.0 0.000539 1784.41028 1868.08215
1851.0 0.000540 1783.97815 1862.33105
1818.0 0.000550 1783.54614 1857.24780
1808.0 0.000553 1783.11401 1852.75696
1847.0 0.000541 1782.68201 1848.80200
1758.0 0.000569 1782.25012 1845.34106
1854.0 0.000539 1781.81799 1842.34937
1856.0 0.000539 1781.38574 1839.81995
1848.0 0.000541 1780.95349 1837.77405
1771.0 0.000565 1780.52100 1836.28186
1852.0 0.000540 1780.08826 1835.50598
1848.0 0.000541 1779.65540 1835.36926
1806.0 0.000554 1779.22229 1837.30237
1849.0 0.000541 1778.78894 1841.84497
1897.0 0.000527 1778.35510 1850.26758
1818.0 0.000550 1777.92114 1863.88538
1937.0 0.000516 1777.48669 1883.49585
1972.0 0.000507 1777.05176 1908.55786
1937.0 0.000516 1776.61633 1936.06775
1923.0 0.000520 1776.18066 1959.22693
1964.0 0.000509 1775.74438 1968.30042
1966.0 0.000509 1775.30750 1957.80994
1900.0 0.000526 1774.87012 1932.78833
1969.0 0.000508 1774.43225 1903.01465
1837.0 0.000544 1773.99365 1875.47681
1796.0 0.000557 1773.55432 1853.27588
1793.0 0.000558 1773.11438 1837.07813
1769.0 0.000565 1772.67395 1826.08508
1714.0 0.000583 1772.23254 1818.98169
1799.0 0.000556 1771.79041 1814.47778
1802.0 0.000555 1771.34753 1811.58875
1732.0 0.000577 1770.90393 1809.69348
1763.0 0.000567 1770.45935 1808.43677
1823.0 0.000549 1770.01392 1807.63855
1813.0 0.000552 1769.56750 1807.21472
1859.0 0.000538 1769.12024 1807.12903
1789.0 0.000559 1768.67200 1807.37317
1796.0 0.000557 1768.22278 1807.95740
1915.0 0.000522 1767.77283 1808.90698
1788.0 0.000559 1767.32153 1810.26270
1823.0 0.000549 1766.86926 1812.08435
1742.0 0.000574 1766.41602 1814.45349
1765.0 0.000567 1765.96155 1817.48376
1754.0 0.000570 1765.50586 1821.33276
1871.0 0.000534 1765.04919 1826.23572
1875.0 0.000533 1764.59131 1832.57202
1816.0 0.000551 1764.13208 1841.00159
1880.0 0.000532 1763.67200 1863.98755
1784.0 0.000561 1763.21033 1881.24988
1880.0 0.000532 1762.74768 1907.31360
1902.0 0.000526 1762.28357 1947.15442
2057.0 0.000486 1761.81799 2007.00012
2106.0 0.000475 1761.35132 2093.22510
2233.0 0.000448 1760.88318 2210.35352
2410.0 0.000415 1760.41370 2357.84399
2543.0 0.000393 1759.94287 2524.74536
2662.0 0.000376 1759.47058 2685.67188
2807.0 0.000356 1758.99683 2813.42432
2869.0 0.0003486 1758.52173 2904.19922
2974.0 0.0003362 1758.04517 2967.26563
2980.0 0.0003356 1757.56702 2988.48120
2782.0 0.000359 1757.08728 2931.90576
2696.0 0.000371 1756.60620 2786.84302
2591.0 0.000386 1756.12341 2590.88867
2345.0 0.000426 1755.63916 2393.54468
2246.0 0.000445 1755.15332 2224.72876
2059.0 0.000486 1754.66602 2094.66357
1976.0 0.000506 1754.17688 2001.99060
1916.0 0.000522 1753.68616 1939.71472
1883.0 0.000531 1753.19360 1899.24756
1843.0 0.000543 1752.69971 1872.32251
1773.0 0.000564 1752.20398 1854.69250
1858.0 0.000538 1751.70667 1842.18811
1816.0 0.000551 1751.20776 1832.80347
1805.0 0.000554 1750.70691 1825.45190
1808.0 0.000553 1750.20435 1819.54431
1877.0 0.000533 1749.69995 1814.74524
1832.0 0.000546 1749.19397 1810.85059
1877.0 0.000533 1748.68616 1807.72217
1888.0 0.000530 1748.17664 1805.25562
1870.0 0.000535 1747.66528 1803.35071
1934.0 0.000517 1747.15210 1801.88452
1865.0 0.000536 1746.63708 1819.14722
1952.0 0.000512 1746.12024 1818.32947
1931.0 0.000518 1745.60144 1817.56250
1950.0 0.000513 1745.08081 1817.00146
1831.0 0.000546 1744.55847 1816.90698
1879.0 0.000532 1744.03430 1817.59839
1855.0 0.000539 1743.50818 1819.52112
1871.0 0.000534 1742.98022 1823.32825
1864.0 0.000536 1742.45032 1829.89441
1819.0 0.000550 1741.91833 1840.16919
1782.0 0.000561 1741.38477 1854.83093
1766.0 0.000566 1740.84888 1873.74768
1793.0 0.000558 1740.31140 1895.23779
1824.0 0.000548 1739.77185 1915.08447
1890.0 0.000529 1739.23035 1926.41772
1801.0 0.000555 1738.68713 1923.70154
1833.0 0.000546 1738.14185 1908.57007
1767.0 0.000566 1737.59448 1887.93201
1830.0 0.000546 1737.04529 1867.75940
1793.0 0.000558 1736.49414 1851.10547
1782.0 0.000561 1735.94092 1838.89807
1768.0 0.000566 1735.38574 1830.84766
1772.0 0.000564 1734.82861 1826.09497
1837.0 0.000544 1734.26953 1823.68164
1678.0 0.000596 1733.70862 1822.82288
1720.0 0.000581 1733.14539 1820.39246
1721.0 0.000581 1732.58032 1821.45923
1720.0 0.000581 1732.01331 1823.03687
1720.0 0.000581 1731.44446 1825.23792
1713.0 0.000584 1730.87329 1828.17773
1786.0 0.000560 1730.30042 1832.13501
1771.0 0.000565 1729.72546 1837.66394
1795.0 0.000557 1729.14856 1845.76538
1741.0 0.000574 1728.56970 1858.05505
1821.0 0.000549 1727.98877 1876.77136
1858.0 0.000538 1727.40576 1904.43433
1885.0 0.000531 1726.82104 1943.00366
1885.0 0.000531 1726.23425 1992.56543
1949.0 0.000513 1725.64539 2049.52539
2036.0 0.000491 1725.05457 2104.18872
2134.0 0.000469 1724.46204 2139.51099
2060.0 0.000485 1723.86719 2139.68970
2071.0 0.000483 1723.27051 2106.66797
1990.0 0.000503 1722.67188 2055.56152
1997.0 0.000501 1722.07117 2003.59937
1981.0 0.000505 1721.46887 1959.74768
1977.0 0.000506 1720.86438 1927.09717
1999.0 0.000500 1720.25781 1905.29163
1871.0 0.000534 1719.64966 1892.26648
1872.0 0.000534 1719.03943 1885.51355
1833.0 0.000546 1718.42725 1882.86694
1889.0 0.000529 1717.81299 1882.79614
1827.0 0.000547 1717.19714 1884.36890
1774.0 0.000564 1716.57935 1887.07544
1782.0 0.000561 1715.95935 1890.65820
1882.0 0.000531 1715.33789 1894.99329
1853.0 0.000540 1714.71436 1900.02380
1810.0 0.000552 1714.08899 1905.73083
1851.0 0.000540 1713.46191 1912.11743
1894.0 0.000528 1712.83276 1919.20313
1862.0 0.000537 1712.20190 1927.02295
1945.0 0.000514 1711.56921 1935.62427
1950.0 0.000513 1710.93457 1945.06738
1946.0 0.000514 1710.29810 1955.42676
1868.0 0.000535 1709.66003 1966.79248
1903.0 0.000525 1709.02026 1979.27075
1928.0 0.000519 1708.37854 1992.98657
1915.0 0.000522 1707.73511 2008.08850
1963.0 0.000509 1707.08997 2024.75134
2046.0 0.000489 1706.44299 2043.18140
2024.0 0.000494 1705.79456 2063.55981
2073.0 0.000482 1705.14404 2086.30713
2074.0 0.000482 1704.49207 2111.70850
2068.0 0.000484 1703.83838 2140.18408
2142.0 0.000467 1703.18298 2172.24365
2117.0 0.000472 1702.52600 2208.51001
2270.0 0.000441 1701.86743 2249.74976
2226.0 0.000449 1701.20715 2296.91211
2231.0 0.000448 1700.54529 2351.18872
2312.0 0.000433 1699.88171 2414.08545
2400.0 0.000417 1699.21680 2487.53320
2577.0 0.000388 1698.55029 2574.04688
2669.0 0.000375 1697.88220 2676.99536
2745.0 0.000364 1697.21240 2801.11841
2877.0 0.0003476 1696.54114 2953.61597
3182.0 0.0003143 1695.86841 3146.53271
3391.0 0.0002949 1695.19434 3401.63647
3891.0 0.0002570 1694.51855 3759.22095
4311.0 0.0002320 1693.84167 4291.14014
5086.0 0.0001966 1693.16309 5114.63135
6346.0 0.0001576 1692.48340 6397.22900
8421.0 0.0001188 1691.80200 8337.81152
11418.0 0.0000876 1691.11938 11111.30566
15267.0 0.0000655 1690.43542 14775.61133
19552.0 0.0000511 1689.75000 19142.72656
23605.0 0.0000424 1689.06323 23597.87109
26488.0 0.0000378 1688.37537 26936.96094
27049.0 0.0000370 1687.68616 27733.60547
24757.0 0.0000404 1686.99573 25570.73438
21339.0 0.0000469 1686.30396 21524.37500
16979.0 0.0000589 1685.61108 17026.59766
13124.0 0.0000762 1684.91675 12987.72266
10033.0 0.0000997 1684.22144 9786.51855
7653.0 0.0001307 1683.52490 7471.45898
6263.0 0.0001597 1682.82727 5913.60693
5309.0 0.0001884 1682.12854 4917.16797
4576.0 0.0002185 1681.42883 4294.34082
4213.0 0.0002374 1680.72778 3902.79736
3909.0 0.0002558 1680.02588 3649.50684
3709.0 0.0002696 1679.32288 3480.78369
3587.0 0.0002788 1678.61890 3367.73584
3589.0 0.0002786 1677.91370 3295.33643
3560.0 0.0002809 1677.20789 3256.31909
3426.0 0.0002919 1676.50098 3246.45020
3535.0 0.0002829 1675.79297 3264.08789
3626.0 0.0002758 1675.08435 3309.29980
3675.0 0.0002721 1674.37476 3383.74048
3865.0 0.0002587 1673.66418 3490.83423
3983.0 0.0002511 1672.95300 3636.37964
4196.0 0.0002383 1672.24084 3829.99316
4434.0 0.0002255 1671.52783 4088.37183
4849.0 0.0002062 1670.81421 4442.11621
5123.0 0.0001952 1670.09961 4948.34521
5845.0 0.0001711 1669.38452 5710.05225
7021.0 0.0001424 1668.66882 6898.19922
8939.0 0.0001119 1667.95227 8763.39063
11464.0 0.0000872 1667.23499 11615.00391
15591.0 0.0000641 1666.51721 15746.64648
21102.0 0.0000474 1665.79883 21302.19922
27682.0 0.0000361 1665.07971 28087.17383
34668.0 0.0000288 1664.36035 35304.08594
40285.0 0.0000248 1663.64026 41251.67969
42055.0 0.0000238 1662.91968 43606.62500
39582.0 0.0000253 1662.19849 41155.02734
34494.0 0.0000290 1661.47705 35143.51172
27658.0 0.0000362 1660.75513 27900.66602
20859.0 0.0000479 1660.03284 21112.99023
15564.0 0.0000643 1659.30994 15563.34863
11551.0 0.0000866 1658.58679 11437.17676
8560.0 0.0001168 1657.86340 8585.81836
6935.0 0.0001442 1657.13965 6721.69043
5828.0 0.0001716 1656.41565 5520.10107
5006.0 0.0001998 1655.69128 4739.13477
4371.0 0.0002288 1654.96655 4208.86768
3992.0 0.0002505 1654.24170 3826.97144
3759.0 0.0002660 1653.51672 3536.52490
3488.0 0.0002867 1652.79163 3306.71069
3426.0 0.0002919 1652.06616 3120.54150
3226.0 0.0003100 1651.34106 2967.86304
3134.0 0.0003191 1650.61536 2842.41040
2972.0 0.0003365 1649.88989 2740.36328
2804.0 0.000357 1649.16418 2659.61548
2755.0 0.000363 1648.43848 2599.12744
2711.0 0.000369 1647.71277 2558.08325
2642.0 0.000379 1646.98706 2534.80029
2629.0 0.000380 1646.26147 2525.33325
2653.0 0.000377 1645.53613 2521.59888
2609.0 0.000383 1644.81079 2510.50439
2525.0 0.000396 1644.08545 2478.65942
2421.0 0.000413 1643.36023 2425.17432
2420.0 0.000413 1642.63525 2361.81348
2466.0 0.000406 1641.91040 2301.57495
2330.0 0.000429 1641.18579 2252.57886
2329.0 0.000429 1640.46143 2219.10376
2304.0 0.000434 1639.73743 2203.91162
2303.0 0.000434 1639.01379 2210.26172
2343.0 0.000427 1638.29028 2243.60376
2515.0 0.000398 1637.56702 2312.51050
2572.0 0.000389 1636.84436 2427.95068
2830.0 0.000353 1636.12195 2599.92310
3052.0 0.0003277 1635.40002 2831.60767
3167.0 0.0003158 1634.67834 3113.45410
3464.0 0.0002887 1633.95740 3417.06421
3653.0 0.0002737 1633.23682 3682.70020
3639.0 0.0002748 1632.51660 3814.55933
3577.0 0.0002796 1631.79712 3738.30493
3349.0 0.0002986 1631.07800 3481.34180
3075.0 0.0003252 1630.35962 3143.90918
2700.0 0.000370 1629.64172 2812.52417
2454.0 0.000407 1628.92444 2531.94360
2334.0 0.000428 1628.20776 2316.29224
2175.0 0.000460 1627.49207 2162.04224
2061.0 0.000485 1626.77673 2057.06201
1981.0 0.000505 1626.06201 1987.13330
1928.0 0.000519 1625.34827 1939.96375
1972.0 0.000507 1624.63525 1906.72327
1833.0 0.000546 1623.92285 1881.85767
1816.0 0.000551 1623.21130 1862.17712
1871.0 0.000534 1622.50061 1845.92676
1776.0 0.000563 1621.79065 1832.12537
1840.0 0.000543 1621.08191 1820.18726
1792.0 0.000558 1620.37366 1809.72998
1786.0 0.000560 1619.66638 1800.47107
1751.0 0.000571 1618.95996 1792.20837
1806.0 0.000554 1618.25476 1784.78381
1750.0 0.000571 1617.55017 1778.07129
1772.0 0.000564 1616.84692 1771.97192
1748.0 0.000572 1616.14441 1766.40417
1746.0 0.000573 1615.44312 1761.30371
1809.0 0.000553 1614.74280 1756.61523
1733.0 0.000577 1614.04346 1752.29517
1658.0 0.000603 1613.34521 1748.30688
1779.0 0.000562 1612.64807 1744.61877
1748.0 0.000572 1611.95203 1741.20496
1708.0 0.000585 1611.25720 1738.04395
1727.0 0.000579 1610.56360 1735.11719
1674.0 0.000597 1609.87109 1732.40894
1732.0 0.000577 1609.17957 1729.90588
1761.0 0.000568 1608.48962 1727.59766
1766.0 0.000566 1607.80054 1725.47400
1743.0 0.000574 1607.11304 1723.52771
1721.0 0.000581 1606.42664 1721.75281
1748.0 0.000572 1605.74146 1720.14429
1683.0 0.000594 1605.05774 1718.69836
1723.0 0.000580 1604.37512 1718.33093
1697.0 0.000589 1603.69409 1717.39087
1671.0 0.000598 1603.01440 1716.43604
1670.0 0.000599 1602.33606 1715.64026
1546.0 0.000647 1601.65894 1715.00439
1656.0 0.000604 1600.98328 1714.53052
1704.0 0.000587 1600.30908 1714.22205
1688.0 0.000592 1599.63623 1714.08386
1738.0 0.000575 1598.96484 1714.12073
1655.0 0.000604 1598.29517 1714.33960
1699.0 0.000589 1597.62659 1714.74817
1662.0 0.000602 1596.95984 1715.35547
1639.0 0.000610 1596.29431 1716.17212
1697.0 0.000589 1595.63049 1717.21033
1700.0 0.000588 1594.96814 1718.48389
1702.0 0.000588 1594.30725 1708.81946
1646.0 0.000608 1593.64795 1710.78125
1655.0 0.000604 1592.99036 1713.02991
1699.0 0.000589 1592.33435 1715.58899
1703.0 0.000587 1591.67993 1718.48523
1696.0 0.000590 1591.02710 1721.74976
1742.0 0.000574 1590.37573 1725.41724
1663.0 0.000601 1589.72607 1729.52832
1714.0 0.000583 1589.07813 1734.12915
1745.0 0.000573 1588.43188 1739.27222
1670.0 0.000599 1587.78723 1745.01904
1696.0 0.000590 1587.14441 1751.44031
1708.0 0.000585 1586.50317 1758.61780
1710.0 0.000585 1585.86353 1766.64722
1726.0 0.000579 1585.22571 1775.64050
1765.0 0.000567 1584.58960 1785.72888
1761.0 0.000568 1583.95532 1797.06860
1781.0 0.000561 1583.32263 1809.84351
1861.0 0.000537 1582.69177 1824.27466
1741.0 0.000574 1582.06287 1840.62732
1878.0 0.000532 1581.43542 1859.22168
1909.0 0.000524 1580.81006 1880.53992
1886.0 0.000530 1580.18628 1904.88123
1887.0 0.000530 1579.56421 1932.92798
1935.0 0.000517 1578.94409 1965.42285
2048.0 0.000488 1578.32581 2003.29968
2115.0 0.000473 1577.70911 2047.75159
2113.0 0.000473 1577.09460 2100.32788
2229.0 0.000449 1576.48169 2163.09741
2339.0 0.000428 1575.87073 2238.95776
2365.0 0.000423 1575.26160 2332.27734
2447.0 0.000409 1574.65417 2450.25488
2611.0 0.000383 1574.04883 2605.61011
2736.0 0.000365 1573.44519 2821.31885
3124.0 0.0003201 1572.84351 3137.53589
3569.0 0.0002802 1572.24365 3600.59106
4185.0 0.0002389 1571.64563 4340.37744
5230.0 0.0001912 1571.04944 5450.67139
6992.0 0.0001430 1570.45544 7037.55127
9162.0 0.0001091 1569.86304 9154.73340
12196.0 0.0000820 1569.27283 11739.09961
14969.0 0.0000668 1568.68433 14519.36230
17592.0 0.0000568 1568.09753 16904.62305
18649.0 0.0000536 1567.51306 18042.30078
17953.0 0.0000557 1566.93018 17382.16406
15789.0 0.0000633 1566.34937 15255.48047
12746.0 0.0000785 1565.77039 12510.58984
9810.0 0.0001019 1565.19336 9834.71289
7483.0 0.0001336 1564.61841 7577.60107
5740.0 0.0001742 1564.04504 5849.47070
4540.0 0.0002203 1563.47388 4622.23340
3634.0 0.0002752 1562.90442 3800.03906
3307.0 0.0003024 1562.33704 3270.40552
2948.0 0.0003392 1561.77136 2935.92896
2675.0 0.000374 1561.20801 2726.51025
2570.0 0.000389 1560.64624 2597.59155
2519.0 0.000397 1560.08655 2522.01978
2403.0 0.000416 1559.52881 2481.00293
2410.0 0.000415 1558.97278 2456.55493
2360.0 0.000424 1558.41895 2426.49097
2213.0 0.000452 1557.86670 2371.26245
2193.0 0.000456 1557.31677 2288.17432
2100.0 0.000476 1556.76843 2191.27051
2133.0 0.000469 1556.22217 2096.49072
1997.0 0.000501 1555.67761 2013.10510
1919.0 0.000521 1555.13538 1944.44653
1812.0 0.000552 1554.59485 1890.26587
1841.0 0.000543 1554.05591 1848.42468
1797.0 0.000556 1553.51929 1816.11072
1741.0 0.000574 1552.98438 1790.66614
1732.0 0.000577 1552.45154 1770.00513
1752.0 0.000571 1551.92017 1752.68103
1692.0 0.000591 1551.39124 1737.76794
1753.0 0.000570 1550.86389 1724.64343
1682.0 0.000595 1550.33850 1713.03369
1721.0 0.000581 1549.81482 1702.64343
1614.0 0.000620 1549.29309 1693.29199
1710.0 0.000585 1548.77332 1683.97815
1740.0 0.000575 1548.25537 1676.32312
1610.0 0.000621 1547.73926 1669.44897
1579.0 0.000633 1547.22485 1663.10498
1582.0 0.000632 1546.71252 1657.31580
1704.0 0.000587 1546.20190 1652.03186
1651.0 0.000606 1545.69312 1647.21729
1594.0 0.000627 1545.18616 1642.85205
1581.0 0.000633 1544.68103 1638.93420
1682.0 0.000595 1544.17773 1635.48389
1645.0 0.000608 1543.67615 1632.54077
1672.0 0.000598 1543.17651 1630.15137
1687.0 0.000593 1542.67847 1628.34607
1671.0 0.000598 1542.18250 1627.10718
1672.0 0.000598 1541.68811 1626.31958
1701.0 0.000588 1541.19531 1625.70728
1740.0 0.000575 1540.70471 1624.79773
1704.0 0.000587 1540.21545 1623.11377
1771.0 0.000565 1539.72815 1620.62158
1733.0 0.000577 1539.24231 1617.71899
1667.0 0.000600 1538.75842 1614.92126
1696.0 0.000590 1538.27625 1612.54187
1673.0 0.000598 1537.79578 1610.72131
1704.0 0.000587 1537.31689 1609.49756
1658.0 0.000603 1536.83960 1608.85608
1672.0 0.000598 1536.36426 1608.76672
1619.0 0.000618 1535.89050 1609.21362
1598.0 0.000626 1535.41833 1610.21289
1676.0 0.000597 1534.94775 1611.83154
1576.0 0.000635 1534.47900 1614.21265
1596.0 0.000627 1534.01172 1617.62488
1629.0 0.000614 1533.54590 1622.55554
1618.0 0.000618 1533.08203 1629.84778
1608.0 0.000622 1532.61926 1640.84766
1590.0 0.000629 1532.15869 1657.47900
1665.0 0.000601 1531.69934 1682.09363
1680.0 0.000595 1531.24146 1716.97888
1830.0 0.000546 1530.78528 1763.46912
1810.0 0.000552 1530.33069 1820.69775
1849.0 0.000541 1529.87756 1883.82520
1982.0 0.000505 1529.42566 1941.72314
2056.0 0.000486 1528.97583 1977.16406
2023.0 0.000494 1528.52686 1976.73340
1962.0 0.000510 1528.07971 1944.40100
1897.0 0.000527 1527.63391 1897.54468
1789.0 0.000559 1527.18982 1852.42114
1816.0 0.000551 1526.74707 1818.73926
1729.0 0.000578 1526.30542 1801.59509
1754.0 0.000570 1525.86560 1804.35413
1799.0 0.000556 1525.42676 1831.13330
1920.0 0.000521 1524.98962 1888.87695
2037.0 0.000491 1524.55371 1990.39209
2110.0 0.000474 1524.11926 2145.62329
2304.0 0.000434 1523.68616 2369.78345
2616.0 0.000382 1523.25427 2669.28076
3067.0 0.0003261 1522.82397 3034.88867
3404.0 0.0002938 1522.39465 3429.32300
3587.0 0.0002788 1521.96667 3771.88916
3721.0 0.0002687 1521.54016 3944.63306
3724.0 0.0002685 1521.11487 3865.94824
3523.0 0.0002838 1520.69067 3573.61743
3106.0 0.0003220 1520.26782 3183.69531
2707.0 0.000369 1519.84619 2795.67554
2423.0 0.000413 1519.42578 2462.52930
2124.0 0.000471 1519.00671 2202.69775
2006.0 0.000499 1518.58850 2014.31494
1888.0 0.000530 1518.17175 1885.05066
1866.0 0.000536 1517.75598 1799.24475
1703.0 0.000587 1517.34155 1742.58179
1661.0 0.000602 1516.92810 1704.23364
1698.0 0.000589 1516.51575 1677.04224
1629.0 0.000614 1516.10474 1656.71350
1595.0 0.000627 1515.69434 1640.81506
1546.0 0.000647 1515.28564 1627.98230
1580.0 0.000633 1514.87732 1617.41614
1542.0 0.000649 1514.47058 1608.61450
1564.0 0.000639 1514.06458 1601.23474
1583.0 0.000632 1513.65991 1595.03320
1680.0 0.000595 1513.25586 1589.83154
1596.0 0.000627 1512.85315 1585.50269
1514.0 0.000661 1512.45129 1581.96118
1537.0 0.000651 1512.05029 1579.16345
1566.0 0.000639 1511.65051 1577.11804
1587.0 0.000630 1511.25134 1575.90930
1614.0 0.000620 1510.85327 1575.74902
1612.0 0.000620 1510.45605 1577.05225
1634.0 0.000612 1510.05969 1580.53076
1559.0 0.000641 1509.66443 1587.25659
1579.0 0.000633 1509.26990 1598.61145
1602.0 0.000624 1508.87610 1616.04602
1672.0 0.000598 1508.48328 1640.59656
1718.0 0.000582 1508.09131 1672.19653
1709.0 0.000585 1507.70007 1708.62000
1757.0 0.000569 1507.30969 1744.19080
1748.0 0.000572 1506.91992 1768.83887
1758.0 0.000569 1506.53113 1771.91235
1739.0 0.000575 1506.14319 1751.37524
1718.0 0.000582 1505.75574 1716.03809
1623.0 0.000616 1505.36938 1669.13477
1618.0 0.000618 1504.98328 1633.58435
1578.0 0.000634 1504.59839 1604.60840
1549.0 0.000646 1504.21375 1582.85156
1538.0 0.000650 1503.83008 1567.55762
1565.0 0.000639 1503.44702 1557.35217
1560.0 0.000641 1503.06445 1550.81177
1611.0 0.000621 1502.68298 1546.79688
1624.0 0.000616 1502.30164 1544.57520
1602.0 0.000624 1501.92126 1543.81165
1570.0 0.000637 1501.54114 1544.48804
1561.0 0.000641 1501.16199 1546.80261
1591.0 0.000629 1500.78320 1551.03979
1588.0 0.000630 1500.40503 1557.51135
1574.0 0.000635 1500.02759 1565.93665
1558.0 0.000642 1499.65051 1575.79761
1519.0 0.000658 1499.27405 1585.38550
1568.0 0.000638 1498.89807 1592.41003
1614.0 0.000620 1498.52271 1594.06152
1611.0 0.000621 1498.14771 1590.07874
1585.0 0.000631 1497.77344 1582.95117
1544.0 0.000648 1497.39941 1575.67493
1548.0 0.000646 1497.02612 1570.34460
1611.0 0.000621 1496.65295 1568.28711
1564.0 0.000639 1496.28052 1570.60315
1534.0 0.000652 1495.90857 1578.62756
1520.0 0.000658 1495.53662 1594.38538
1605.0 0.000623 1495.16565 1620.00732
1670.0 0.000599 1494.79468 1658.19910
1658.0 0.000603 1494.42432 1710.69775
1749.0 0.000572 1494.05432 1777.00232
1896.0 0.000527 1493.68469 1852.39368
1918.0 0.000521 1493.31555 1925.12305
2016.0 0.000496 1492.94666 1974.94470
2007.0 0.000498 1492.57813 1981.19568
1863.0 0.000537 1492.20984 1940.78442
1812.0 0.000552 1491.84216 1871.53003
1756.0 0.000569 1491.47461 1795.14087
1706.0 0.000586 1491.10754 1725.58557
1619.0 0.000618 1490.74060 1669.05566
1635.0 0.000612 1490.37427 1626.83472
1592.0 0.000628 1490.00818 1597.47058
1551.0 0.000645 1489.64221 1578.31604
1571.0 0.000637 1489.27661 1566.64868
1510.0 0.000662 1488.91113 1560.35303
1575.0 0.000635 1488.54626 1558.21069
1614.0 0.000620 1488.18140 1559.91284
1622.0 0.000617 1487.81702 1565.92188
1557.0 0.000642 1487.45264 1577.20605
1650.0 0.000606 1487.08875 1594.84167
1636.0 0.000611 1486.72498 1619.44263
1630.0 0.000613 1486.36145 1650.45508
1677.0 0.000596 1485.99829 1685.13489
1769.0 0.000565 1485.63513 1717.23486
1757.0 0.000569 1485.27234 1736.79565
1747.0 0.000572 1484.90967 1735.08752
1650.0 0.000606 1484.54736 1712.72778
1618.0 0.000618 1484.18530 1679.00757
1577.0 0.000634 1483.82336 1643.57507
1607.0 0.000622 1483.46167 1612.20398
1540.0 0.000649 1483.09998 1587.31958
1578.0 0.000634 1482.73877 1569.31714
1529.0 0.000654 1482.37769 1557.81006
1559.0 0.000641 1482.01672 1551.10681
1564.0 0.000639 1481.65601 1548.43579
1575.0 0.000635 1481.29553 1548.96558
1564.0 0.000639 1480.93518 1552.07739
1638.0 0.000611 1480.57483 1557.19482
1614.0 0.000620 1480.21509 1563.51660
1628.0 0.000614 1479.85522 1569.69556
1605.0 0.000623 1479.49561 1573.79492
1575.0 0.000635 1479.13611 1574.24951
1614.0 0.000620 1478.77698 1571.30200
1665.0 0.000601 1478.41797 1566.72424
1603.0 0.000624 1478.05884 1562.27161
1580.0 0.000633 1477.70032 1558.98511
1592.0 0.000628 1477.34180 1557.30786
1657.0 0.000604 1476.98340 1557.32593
1596.0 0.000627 1476.62512 1558.93640
1620.0 0.000617 1476.26721 1561.97034
1548.0 0.000646 1475.90930 1566.27576
1595.0 0.000627 1475.55188 1571.77136
1536.0 0.000651 1475.19446 1578.46045
1607.0 0.000622 1474.83716 1586.43115
1632.0 0.000613 1474.48022 1595.84973
1634.0 0.000612 1474.12317 1606.96228
1613.0 0.000620 1473.76672 1620.10059
1757.0 0.000569 1473.41028 1635.70801
1665.0 0.000601 1473.05408 1654.38428
1666.0 0.000600 1472.69800 1676.98108
1757.0 0.000569 1472.34216 1704.79309
1778.0 0.000562 1471.98669 1739.94287
1820.0 0.000549 1471.63123 1786.10291
1865.0 0.000536 1471.27600 1849.68396
1872.0 0.000534 1470.92114 1941.46558
2108.0 0.000474 1470.56641 2078.23755
2216.0 0.000451 1470.21191 2283.40503
2527.0 0.000396 1469.85779 2585.03955
2954.0 0.0003385 1469.50391 3010.03125
3471.0 0.0002881 1469.15002 3574.00171
4315.0 0.0002317 1468.79675 4267.13818
4977.0 0.0002009 1468.44360 5034.07129
5684.0 0.0001759 1468.09070 5748.59766
6154.0 0.0001625 1467.73804 6198.33936
6198.0 0.0001613 1467.38562 6196.21191
5807.0 0.0001722 1467.03369 5742.96240
5105.0 0.0001959 1466.68201 5028.75879
4324.0 0.0002313 1466.33081 4261.17334
3506.0 0.0002852 1465.97949 3568.09351
2993.0 0.0003341 1465.62891 3004.42505
2640.0 0.000379 1465.27832 2579.70557
2259.0 0.000443 1464.92847 2277.15308
2007.0 0.000498 1464.57861 2071.88232
1948.0 0.000513 1464.22949 1934.80151
1915.0 0.000522 1463.88037 1842.54944
1772.0 0.000564 1463.53210 1778.38452
1756.0 0.000569 1463.18396 1731.56555
1735.0 0.000576 1462.83618 1695.70813
1711.0 0.000584 1462.48889 1667.15430
1710.0 0.000585 1462.14197 1643.78687
1578.0 0.000634 1461.79565 1624.31348
1684.0 0.000594 1461.44958 1607.88025
1719.0 0.000582 1461.10425 1593.88232
1604.0 0.000623 1460.75916 1581.86731
1589.0 0.000629 1460.41455 1571.48816
1599.0 0.000625 1460.07068 1562.47290
1558.0 0.000642 1459.72705 1554.60547
1614.0 0.000620 1459.38403 1547.71558
1597.0 0.000626 1459.04163 1541.66650
1528.0 0.000654 1458.69983 1536.35120
1481.0 0.000675 1458.35840 1531.68713
1514.0 0.000661 1458.01770 1527.61865
1491.0 0.000671 1457.67773 1524.11829
1538.0 0.000650 1457.33801 1521.19763
1467.0 0.000682 1456.99927 1518.92163
1535.0 0.000651 1456.66089 1517.41675
1521.0 0.000657 1456.32349 1516.87512
1616.0 0.000619 1455.98633 1517.52588
1573.0 0.000636 1455.65027 1519.57751
1562.0 0.000640 1455.31458 1523.11829
1525.0 0.000656 1454.97986 1527.98364
1508.0 0.000663 1454.64575 1533.56274
1519.0 0.000658 1454.31238 1538.55200
1568.0 0.000638 1453.97998 1541.00281
1521.0 0.000657 1453.64807 1539.39673
1586.0 0.000631 1453.31714 1534.08154
1550.0 0.000645 1452.98694 1526.91394
1509.0 0.000663 1452.65771 1519.61182
1412.0 0.000708 1452.32922 1513.43066
1488.0 0.000672 1452.00159 1508.74438
1536.0 0.000651 1451.67480 1505.66223
1445.0 0.000692 1451.34912 1504.12317
1469.0 0.000681 1451.02417 1504.04675
1508.0 0.000663 1450.70020 1505.47388
1447.0 0.000691 1450.37720 1508.68799
1484.0 0.000674 1450.05518 1514.31262
1588.0 0.000630 1449.73413 1523.35583
1494.0 0.000669 1449.41418 1537.13635
1556.0 0.000643 1449.09521 1557.04089
1556.0 0.000643 1448.77734 1584.08337
1528.0 0.000654 1448.46045 1618.27051
1560.0 0.000641 1448.14465 1657.72852
1749.0 0.000572 1447.83008 1697.43542
1758.0 0.000569 1447.51672 1728.22473
1699.0 0.000589 1447.20410 1739.47949
1693.0 0.000591 1446.89319 1727.48767
1742.0 0.000574 1446.58313 1699.74365
1627.0 0.000615 1446.27441 1668.26074
1569.0 0.000637 1445.96680 1642.53333
1585.0 0.000631 1445.66040 1628.48157
1628.0 0.000614 1445.35547 1629.35803
1699.0 0.000589 1445.05176 1646.46265
1648.0 0.000607 1444.74939 1679.16602
1721.0 0.000581 1444.44836 1724.08398
1784.0 0.000561 1444.14856 1774.22473
1799.0 0.000556 1443.85046 1817.05725
1819.0 0.000550 1443.55334 1836.22131
1767.0 0.000566 1443.25806 1821.53357
1745.0 0.000573 1442.96399 1778.52380
1766.0 0.000566 1442.67139 1722.42224
1734.0 0.000577 1442.38013 1666.36011
1576.0 0.000635 1442.09070 1617.54846
1549.0 0.000646 1441.80261 1578.70483
1513.0 0.000661 1441.51624 1549.85461
1531.0 0.000653 1441.23145 1529.38745
1483.0 0.000674 1440.94800 1515.68188
1558.0 0.000642 1440.66638 1506.62170
1515.0 0.000660 1440.38623 1500.65088
1478.0 0.000677 1440.10803 1496.68420
1482.0 0.000675 1439.83130 1494.03772
1516.0 0.000660 1439.55640 1492.31360
1433.0 0.000698 1439.28320 1491.29333
1489.0 0.000672 1439.01172 1490.89697
1527.0 0.000655 1438.74207 1491.00256
1517.0 0.000659 1438.47400 1491.62842
1479.0 0.000676 1438.20813 1492.78882
1485.0 0.000673 1437.94385 1494.52527
1547.0 0.000646 1437.68152 1496.91589
1521.0 0.000657 1437.42114 1500.08948
1536.0 0.000651 1437.16260 1504.26257
1422.0 0.000703 1436.90613 1509.81384
1521.0 0.000657 1436.65137 1517.40393
1566.0 0.000639 1436.39880 1528.16626
1564.0 0.000639 1436.14819 1543.91895
1576.0 0.000635 1435.89966 1567.33057
1556.0 0.000643 1435.65308 1601.77563
1679.0 0.000596 1435.40869 1651.22583
1720.0 0.000581 1435.16638 1718.73926
1758.0 0.000569 1434.92627 1807.57471
1854.0 0.000539 1434.68811 1910.07764
1936.0 0.000517 1434.45227 2018.08459
1897.0 0.000527 1434.21851 2110.50977
2036.0 0.000491 1433.98718 2157.85669
1946.0 0.000514 1433.75781 2140.08105
1925.0 0.000519 1433.53088 2065.84692
1935.0 0.000517 1433.30627 1963.63562
1780.0 0.000562 1433.08411 1859.28003
1717.0 0.000582 1432.86389 1767.49365
1712.0 0.000584 1432.64636 1694.16565
1781.0 0.000561 1432.43091 1639.83508
1686.0 0.000593 1432.21814 1602.09937
1662.0 0.000602 1432.00757 1577.30627
1618.0 0.000618 1431.79968 1561.83228
1563.0 0.000640 1431.59412 1552.66003
1513.0 0.000661 1431.39099 1547.65967
1595.0 0.000627 1431.19043 1545.48022
1635.0 0.000612 1430.99243 1545.34241
1626.0 0.000615 1430.79700 1546.83521
1608.0 0.000622 1430.60400 1549.76624
1574.0 0.000635 1430.41382 1554.07495
1604.0 0.000623 1430.22595 1559.78564
1637.0 0.000611 1430.04114 1566.98975
1578.0 0.000634 1429.85876 1575.83984
1616.0 0.000619 1429.67908 1586.55701
1621.0 0.000617 1429.50220 1599.44263
1687.0 0.000593 1429.32788 1614.90259
1690.0 0.000592 1429.15637 1633.48706
1660.0 0.000602 1428.98767 1655.96741
1694.0 0.000590 1428.82178 1683.49170
1806.0 0.000554 1428.65857 1717.88318
1778.0 0.000562 1428.49829 1762.44299
1843.0 0.000543 1428.34106 1821.98035
1921.0 0.000521 1428.18640 1905.57263
2052.0 0.000487 1428.03491 2027.22449
2187.0 0.000457 1427.88599 2207.15479
2482.0 0.000403 1427.74011 2471.15967
2822.0 0.000354 1427.59717 2846.96777
3291.0 0.0003039 1427.45740 3356.86694
3968.0 0.0002520 1427.32068 4006.69873
4777.0 0.0002093 1427.18665 4770.69482
5458.0 0.0001832 1427.05591 5570.85547
5915.0 0.0001691 1426.92786 6245.12402
6260.0 0.0001597 1426.80310 6577.57617
6077.0 0.0001646 1426.68140 6425.27979
5721.0 0.0001748 1426.56287 5854.72070
5036.0 0.0001986 1426.44739 5080.16699
4380.0 0.0002283 1426.33521 4288.95752
3629.0 0.0002756 1426.22607 3589.04346
2909.0 0.0003438 1426.12000 3023.87842
2618.0 0.000382 1426.01733 2597.72046
2315.0 0.000432 1425.91760 2293.12891
2143.0 0.000467 1425.82117 2083.39111
1970.0 0.000508 1425.72803 1941.32568
1874.0 0.000534 1425.63818 1844.33752
1861.0 0.000537 1425.55139 1776.07727
1772.0 0.000564 1425.46814 1725.87695
1670.0 0.000599 1425.38818 1687.25818
1659.0 0.000603 1425.31152 1656.42957
1682.0 0.000595 1425.23804 1631.15955
1573.0 0.000636 1425.16797 1610.07117
1658.0 0.000603 1425.10132 1592.25378
1543.0 0.000648 1425.03796 1577.05981
1567.0 0.000638 1424.97803 1564.00623
1638.0 0.000611 1424.92151 1552.71936
1581.0 0.000633 1424.86841 1542.90454
1585.0 0.000631 1424.81873 1534.32556
1565.0 0.000639 1424.77234 1526.79333
1546.0 0.000647 1424.72961 1520.15295
1474.0 0.000678 1424.69031 1514.27759
1556.0 0.000643 1424.65442 1509.06262
1510.0 0.000662 1424.62195 1504.42090
1554.0 0.000644 1424.59302 1500.28052
1482.0 0.000675 1424.56763 1496.58008
1540.0 0.000649 1424.54602 1493.26843
1419.0 0.000705 1424.52759 1490.30139
1465.0 0.000683 1424.51282 1487.64246
1545.0 0.000647 1424.50146 1485.25977
1491.0 0.000671 1424.49390 1483.12646
1498.0 0.000668 1424.48975 1481.21924
1545.0 0.000647 1424.48926 1479.51855
1449.0 0.000690 1424.49207 1478.00671
1424.0 0.000702 1424.49878 1476.67004
1508.0 0.000663 1424.50891 1475.49561
1483.0 0.000674 1424.52295 1474.47339
1528.0 0.000654 1424.54028 1473.57593
1526.0 0.000655 1424.56152 1472.83362
1515.0 0.000660 1424.58606 1472.22131
1453.0 0.000688 1424.61450 1471.73523
1506.0 0.000664 1424.64636 1471.37231
1482.0 0.000675 1424.68201 1471.13135
1492.0 0.000670 1424.72131 1471.01172
1542.0 0.000649 1424.76416 1471.23462
1533.0 0.000652 1424.81067 1471.36646
1541.0 0.000649 1424.86096 1471.62988
1448.0 0.000691 1424.91492 1472.03174
1487.0 0.000672 1424.97253 1472.58289
1544.0 0.000648 1425.03369 1473.29688
1559.0 0.000641 1425.09863 1474.19360
1455.0 0.000687 1425.16724 1475.30115
1507.0 0.000664 1425.23938 1476.66211
1528.0 0.000654 1425.31543 1478.34509
1507.0 0.000664 1425.39502 1480.46497
1462.0 0.000684 1425.47839 1483.21509
1530.0 0.000654 1425.56531 1486.90735
1526.0 0.000655 1425.65588 1493.53943
1563.0 0.000640 1425.75037 1500.72461
1511.0 0.000662 1425.84839 1510.73303
1530.0 0.000654 1425.95007 1524.31628
1561.0 0.000641 1426.05542 1541.97290
1656.0 0.000604 1426.16443 1563.61267
1625.0 0.000615 1426.27722 1588.08594
1577.0 0.000634 1426.39355 1612.49475
1634.0 0.000612 1426.51355 1631.67932
1620.0 0.000617 1426.63721 1639.65442
1711.0 0.000584 1426.76465 1633.98474
1634.0 0.000612 1426.89563 1618.30811
1645.0 0.000608 1427.03040 1598.59290
1483.0 0.000674 1427.16858 1579.56860
1555.0 0.000643 1427.31067 1564.09180
1529.0 0.000654 1427.45618 1552.97546
1542.0 0.000649 1427.60522 1546.25037
1568.0 0.000638 1427.75806 1543.46204
1559.0 0.000641 1427.91455 1544.00220
1575.0 0.000635 1428.07446 1547.34961
1560.0 0.000641 1428.23816 1553.21191
1522.0 0.000657 1428.40540 1561.57043
1538.0 0.000650 1428.57617 1572.64294
1584.0 0.000631 1428.75061 1586.78528
1547.0 0.000646 1428.92834 1604.34924
1543.0 0.000648 1429.10974 1625.50928
1628.0 0.000614 1429.29480 1650.03979
1625.0 0.000615 1429.48328 1677.00745
1656.0 0.000604 1429.67542 1704.52954
1745.0 0.000573 1429.87073 1730.39856
1779.0 0.000562 1430.06970 1754.24573
1769.0 0.000565 1430.27222 1779.22034
1807.0 0.000553 1430.47827 1811.10315
1787.0 0.000560 1430.68762 1857.11328
1857.0 0.000539 1430.90039 1928.23584
1910.0 0.000524 1431.11670 2033.92859
2122.0 0.000471 1431.33643 2193.55200
2312.0 0.000433 1431.55945 2429.19897
2650.0 0.000377 1431.78589 2764.56250
3103.0 0.0003223 1432.01575 3219.05298
3656.0 0.0002735 1432.24878 3798.92749
4316.0 0.0002317 1432.48523 4485.04150
5023.0 0.0001991 1432.72510 5214.77832
5564.0 0.0001797 1432.96814 5859.81250
6007.0 0.0001665 1433.21448 6232.74756
5822.0 0.0001718 1433.46399 6184.68750
5603.0 0.0001785 1433.71680 5737.19287
4888.0 0.0002046 1433.97290 5060.72998
4255.0 0.0002350 1434.23218 4334.20068
3527.0 0.0002835 1434.49451 3669.61035
3003.0 0.0003330 1434.76013 3118.46948
2599.0 0.000385 1435.02893 2692.48096
2360.0 0.000424 1435.30066 2381.26611
2119.0 0.000472 1435.57556 2163.45776
2006.0 0.000499 1435.85364 2015.00256
1872.0 0.000534 1436.13464 1914.47400
1810.0 0.000552 1436.41882 1845.45654
1847.0 0.000541 1436.70581 1796.72742
1784.0 0.000561 1436.99585 1761.17334
1731.0 0.000578 1437.28894 1734.59937
1672.0 0.000598 1437.58484 1714.56311
1693.0 0.000591 1437.88367 1699.64734
1756.0 0.000569 1438.18555 1689.03125
1731.0 0.000578 1438.48999 1682.27856
1717.0 0.000582 1438.79736 1679.26904
1665.0 0.000601 1439.10767 1680.21863
1636.0 0.000611 1439.42078 1685.76648
1783.0 0.000561 1439.73633 1697.08496
1665.0 0.000601 1440.05481 1715.95215
1781.0 0.000561 1440.37610 1744.69226
1690.0 0.000592 1440.69983 1785.88782
1809.0 0.000553 1441.02625 1841.82141
1860.0 0.000538 1441.35547 1913.66663
1988.0 0.000503 1441.68713 2000.42078
2146.0 0.000466 1442.02124 2097.38672
2140.0 0.000467 1442.35803 2194.44189
2275.0 0.000440 1442.69727 2277.31885
2231.0 0.000448 1443.03894 2337.93774
2439.0 0.000410 1443.38306 2388.34863
2454.0 0.000407 1443.72949 2459.38574
2625.0 0.000381 1444.07837 2585.91553
2835.0 0.000353 1444.42957 2796.18408
3133.0 0.0003192 1444.78308 3107.10815
3510.0 0.0002849 1445.13892 3519.39746
3928.0 0.0002546 1445.49670 4009.32739
4304.0 0.0002323 1445.85693 4515.08936
4389.0 0.0002278 1446.21924 4924.37158
4553.0 0.0002196 1446.58398 5096.84912
4569.0 0.0002189 1446.95044 4954.22705
4212.0 0.0002374 1447.31921 4550.14746
3832.0 0.0002610 1447.68982 4024.15430
3378.0 0.0002960 1448.06250 3491.20825
2904.0 0.0003444 1448.43726 3018.25000
2693.0 0.000371 1448.81360 2632.68164
2333.0 0.000429 1449.19214 2337.86426
2109.0 0.000474 1449.57239 2123.52222
1937.0 0.000516 1449.95447 1973.21338
1818.0 0.000550 1450.33838 1869.69556
1820.0 0.000549 1450.72412 1798.17310
1744.0 0.000573 1451.11133 1747.56921
1771.0 0.000565 1451.50049 1710.39807
1651.0 0.000606 1451.89099 1681.95959
1640.0 0.000610 1452.28308 1659.42688
1680.0 0.000595 1452.67676 1641.11267
1643.0 0.000609 1453.07190 1625.97693
1546.0 0.000647 1453.46863 1613.33508
1657.0 0.000604 1453.86682 1602.71069
1546.0 0.000647 1454.26624 1593.75195
1581.0 0.000633 1454.66724 1586.18848
1612.0 0.000620 1455.06921 1579.80811
1595.0 0.000627 1455.47278 1574.44409
1551.0 0.000645 1455.87732 1569.96191
1450.0 0.000690 1456.28320 1566.25500
1542.0 0.000649 1456.69019 1563.23804
1610.0 0.000621 1457.09827 1560.84314
1540.0 0.000649 1457.50732 1559.01733
1508.0 0.000663 1457.91760 1557.72546
1518.0 0.000659 1458.32874 1556.92456
1595.0 0.000627 1458.74072 1556.60022
1529.0 0.000654 1459.15369 1556.74109
1574.0 0.000635 1459.56750 1557.47278
1534.0 0.000652 1459.98206 1558.54004
1609.0 0.000622 1460.39734 1560.08398
1572.0 0.000636 1460.81348 1562.12732
1548.0 0.000646 1461.23022 1564.69885
1552.0 0.000644 1461.64771 1567.84131
1558.0 0.000642 1462.06555 1571.60791
1596.0 0.000627 1462.48401 1576.06726
1645.0 0.000608 1462.90308 1581.30640
1647.0 0.000607 1463.32251 1587.43274
1600.0 0.000625 1463.74243 1594.58179
1654.0 0.000605 1464.16248 1602.92358
1665.0 0.000601 1464.58325 1612.67346
1581.0 0.000633 1465.00403 1624.10645
1694.0 0.000590 1465.42493 1637.58618
1710.0 0.000585 1465.84631 1653.61169
1733.0 0.000577 1466.26770 1672.90771
1744.0 0.000573 1466.68921 1696.59863
1759.0 0.000569 1467.11060 1726.51575
1731.0 0.000578 1467.53223 1765.72424
1824.0 0.000548 1467.95361 1819.11890
1914.0 0.000522 1468.37512 1894.37976
1970.0 0.000508 1468.79626 2002.43567
2087.0 0.000479 1469.21729 2157.31982
2266.0 0.000441 1469.63818 2374.64746
2665.0 0.000375 1470.05884 2668.37231
3011.0 0.0003321 1470.47913 3045.80688
3470.0 0.0002882 1470.89893 3500.78589
4002.0 0.0002499 1471.31848 4003.71729
4405.0 0.0002270 1471.73743 4487.79590
4645.0 0.0002153 1472.15613 4843.72656
4810.0 0.0002079 1472.57410 4959.21631
4633.0 0.0002158 1472.99109 4805.22363
4427.0 0.0002259 1473.40820 4464.77930
4059.0 0.0002464 1473.82397 4058.60742
3618.0 0.0002764 1474.23950 3670.79834
3287.0 0.0003042 1474.65381 3335.72119
3007.0 0.0003326 1475.06763 3050.40674
2756.0 0.000363 1475.48035 2797.72876
2510.0 0.000398 1475.89221 2568.71094
2297.0 0.000435 1476.30322 2366.91260
2190.0 0.000457 1476.71301 2197.33545
2083.0 0.000480 1477.12195 2060.52173
2004.0 0.000499 1477.52979 1953.47314
1931.0 0.000518 1477.93628 1871.79736
1865.0 0.000536 1478.34167 1810.82031
1730.0 0.000578 1478.74597 1766.06201
1753.0 0.000570 1479.14868 1733.55432
1756.0 0.000569 1479.55017 1710.06750
1784.0 0.000561 1479.95032 1693.21704
1706.0 0.000586 1480.34888 1681.43372
1756.0 0.000569 1480.74622 1673.87024
1690.0 0.000592 1481.14197 1670.28821
1735.0 0.000576 1481.53613 1670.95483
1755.0 0.000570 1481.92859 1676.52808
1729.0 0.000578 1482.31946 1687.88794
1785.0 0.000560 1482.70862 1705.86755
1768.0 0.000566 1483.09583 1730.88708
1750.0 0.000571 1483.48157 1762.45935
1881.0 0.000532 1483.86523 1798.49548
1880.0 0.000532 1484.24719 1834.28638
1965.0 0.000509 1484.62708 1862.12952
2039.0 0.000490 1485.00513 1873.59924
1916.0 0.000522 1485.38110 1865.81482
1924.0 0.000520 1485.75488 1844.23267
1939.0 0.000516 1486.12671 1817.84265
1933.0 0.000517 1486.49634 1793.79224
1926.0 0.000519 1486.86377 1776.16504
1952.0 0.000512 1487.22888 1766.86218
1911.0 0.000523 1487.59192 1766.56567
2072.0 0.000483 1487.95251 1775.46216
1940.0 0.000515 1488.31079 1793.89343
1905.0 0.000525 1488.66650 1823.04993
1917.0 0.000522 1489.01965 1865.77283
1982.0 0.000505 1489.37073 1927.48865
1998.0 0.000501 1489.71875 2014.93628
2167.0 0.000461 1490.06482 2145.91528
2267.0 0.000441 1490.40784 2335.25195
2557.0 0.000391 1490.74829 2602.41968
2896.0 0.0003453 1491.08594 2965.06616
3363.0 0.0002974 1491.42114 3432.98242
3846.0 0.0002600 1491.75305 3999.76343
4729.0 0.0002115 1492.08252 4630.86426
5217.0 0.0001917 1492.40894 5246.47021
5489.0 0.0001822 1492.73254 5710.64746
5667.0 0.0001765 1493.05322 5869.71680
5470.0 0.0001828 1493.37073 5658.67676
5053.0 0.0001979 1493.68530 5161.79150
4553.0 0.0002196 1493.99683 4535.67236
3805.0 0.0002628 1494.30530 3908.82715
3308.0 0.0003023 1494.61060 3353.47778
2908.0 0.0003439 1494.91260 2899.18970
2538.0 0.000394 1495.21155 2549.40356
2272.0 0.000440 1495.50720 2292.71240
2124.0 0.000471 1495.79944 2110.83081
2034.0 0.000492 1496.08838 1984.37769
1981.0 0.000505 1496.37402 1896.47632
1862.0 0.000537 1496.65625 1834.28223
1840.0 0.000543 1496.93494 1788.98413
1816.0 0.000551 1497.21033 1755.01208
1734.0 0.000577 1497.48193 1729.04370
1804.0 0.000554 1497.75024 1709.14539
1782.0 0.000561 1498.01477 1694.13684
1750.0 0.000571 1498.27588 1683.25476
1761.0 0.000568 1498.53320 1675.50171
1800.0 0.000556 1498.78699 1669.91223
1682.0 0.000595 1499.03687 1664.98364
1636.0 0.000611 1499.28308 1658.63684
1634.0 0.000612 1499.52539 1649.98535
1692.0 0.000591 1499.76404 1638.91199
1639.0 0.000610 1499.99890 1626.72070
1626.0 0.000615 1500.22974 1614.78772
1664.0 0.000601 1500.45667 1603.97449
1640.0 0.000610 1500.67969 1594.65564
1626.0 0.000615 1500.89868 1586.89648
1579.0 0.000633 1501.11377 1580.58167
1627.0 0.000615 1501.32483 1575.50671
1585.0 0.000631 1501.53162 1571.44373
1651.0 0.000606 1501.73462 1566.48584
1563.0 0.000640 1501.93347 1563.89026
1564.0 0.000639 1502.12805 1561.82544
1606.0 0.000623 1502.31848 1560.23401
1573.0 0.000636 1502.50476 1559.10828
1520.0 0.000658 1502.68677 1558.49658
1641.0 0.000609 1502.86462 1558.51392
1581.0 0.000633 1503.03809 1559.35815
1616.0 0.000619 1503.20740 1561.32068
1575.0 0.000635 1503.37219 1564.78027
1573.0 0.000636 1503.53284 1570.16528
1599.0 0.000625 1503.68896 1577.86951
1631.0 0.000613 1503.84082 1588.13721
1614.0 0.000620 1503.98816 1600.89368
1626.0 0.000615 1504.13123 1615.50952
1652.0 0.000605 1504.26965 1630.44690
1630.0 0.000613 1504.40369 1643.10535
1652.0 0.000605 1504.53308 1650.46753
1561.0 0.000641 1504.65808 1651.58228
1601.0 0.000625 1504.77856 1648.48242
1628.0 0.000614 1504.89453 1644.45471
1640.0 0.000610 1505.00586 1641.71350
1603.0 0.000624 1505.11243 1640.57690
1542.0 0.000649 1505.21472 1639.47461
1583.0 0.000632 1505.31226 1635.75037
1614.0 0.000620 1505.40515 1627.58606
1643.0 0.000609 1505.49316 1615.79041
1570.0 0.000637 1505.57666 1602.20325
1542.0 0.000649 1505.65552 1589.12671
1513.0 0.000661 1505.72961 1577.78503
1591.0 0.000629 1505.79883 1568.67505
1529.0 0.000654 1505.86365 1561.84766
1586.0 0.000631 1505.92334 1557.09937
1580.0 0.000633 1505.97864 1554.09656
1589.0 0.000629 1506.02893 1552.46509
1565.0 0.000639 1506.07446 1551.84692
1568.0 0.000638 1506.11523 1551.93726
1551.0 0.000645 1506.15125 1552.54297
1592.0 0.000628 1506.18237 1553.65100
1527.0 0.000655 1506.20874 1555.44824
1569.0 0.000637 1506.23022 1558.28003
1542.0 0.000649 1506.24683 1562.64001
1597.0 0.000626 1506.25867 1569.21143
1595.0 0.000627 1506.26563 1578.90601
1571.0 0.000637 1506.26770 1592.85327
1632.0 0.000613 1506.26489 1612.27661
1613.0 0.000620 1506.25732 1638.22363
1661.0 0.000602 1506.24487 1671.15344
1769.0 0.000565 1506.22729 1710.47229
1741.0 0.000574 1506.20508 1754.09729
1772.0 0.000564 1506.17798 1797.73132
1829.0 0.000547 1506.14575 1833.74548
1813.0 0.000552 1506.10876 1851.90295
1759.0 0.000569 1506.06689 1845.02930
1770.0 0.000565 1506.02002 1815.39722
1746.0 0.000573 1505.96838 1772.83374
1682.0 0.000595 1505.91187 1727.42993
1646.0 0.000608 1505.85034 1685.68201
1645.0 0.000608 1505.78394 1650.70764
1621.0 0.000617 1505.71265 1623.44312
1564.0 0.000639 1505.63660 1603.56458
1580.0 0.000633 1505.55530 1590.10632
1580.0 0.000633 1505.46948 1581.92139
1580.0 0.000633 1505.37854 1577.98328
1607.0 0.000622 1505.28284 1577.53491
1523.0 0.000657 1505.18237 1580.09265
1525.0 0.000656 1505.07690 1585.34814
1611.0 0.000621 1504.96655 1593.01038
1652.0 0.000605 1504.85132 1602.60815
1639.0 0.000610 1504.73132 1613.25183
1615.0 0.000619 1504.60657 1623.41138
1590.0 0.000629 1504.47668 1631.16418
1579.0 0.000633 1504.34216 1635.40356
1610.0 0.000621 1504.20288 1638.32715
1576.0 0.000635 1504.05872 1640.34448
1622.0 0.000617 1503.90967 1645.92529
1615.0 0.000619 1503.75610 1658.22363
1658.0 0.000603 1503.59766 1680.35376
1777.0 0.000563 1503.43420 1715.50415
1799.0 0.000556 1503.26624 1766.72021
1879.0 0.000532 1503.09351 1836.24805
1999.0 0.000500 1502.91614 1924.41968
2039.0 0.000490 1502.73389 2028.26587
2264.0 0.000442 1502.54700 2140.41504
2405.0 0.000416 1502.35547 2248.36987
2481.0 0.000403 1502.15930 2333.20898
2441.0 0.000410 1501.95837 2371.11963
2412.0 0.000415 1501.75293 2345.85913
2331.0 0.000429 1501.54285 2263.76294
2223.0 0.000450 1501.32825 2149.69434
2177.0 0.000459 1501.10901 2027.10571
2042.0 0.000490 1500.88525 1915.34705
1848.0 0.000541 1500.65674 1820.74463
1806.0 0.000554 1500.42407 1745.46582
1683.0 0.000594 1500.18665 1688.40649
1606.0 0.000623 1499.94482 1646.74475
1656.0 0.000604 1499.69873 1617.04858
1608.0 0.000622 1499.44775 1596.04150
1595.0 0.000627 1499.19275 1581.02795
1624.0 0.000616 1498.93323 1570.01404
1504.0 0.000665 1498.66943 1561.64600
1547.0 0.000646 1498.40125 1555.05664
1506.0 0.000664 1498.12866 1549.70935
1570.0 0.000637 1497.85193 1545.27454
1501.0 0.000666 1497.57080 1541.54285
1547.0 0.000646 1497.28564 1538.37646
1594.0 0.000627 1496.99597 1535.67834
1517.0 0.000659 1496.70239 1533.37830
1576.0 0.000635 1496.40454 1531.42456
1578.0 0.000634 1496.10254 1529.78064
1482.0 0.000675 1495.79663 1528.42004
1482.0 0.000675 1495.48633 1527.32886
1584.0 0.000631 1495.17212 1526.50354
1601.0 0.000625 1494.85400 1525.95752
1585.0 0.000631 1494.53198 1525.62976
1571.0 0.000637 1494.20581 1525.77979
1466.0 0.000682 1493.87585 1526.43359
1525.0 0.000656 1493.54187 1527.79395
1546.0 0.000647 1493.20410 1530.16614
1539.0 0.000650 1492.86243 1533.97791
1631.0 0.000613 1492.51709 1539.76221
1517.0 0.000659 1492.16809 1548.09985
1496.0 0.000668 1491.81519 1564.88440
1578.0 0.000634 1491.45874 1579.67224
1612.0 0.000620 1491.09839 1597.56494
1583.0 0.000632 1490.73462 1617.51477
1627.0 0.000615 1490.36694 1637.15637
1688.0 0.000592 1489.99609 1652.46606
1609.0 0.000622 1489.62170 1658.71704
1625.0 0.000615 1489.24377 1653.43042
1637.0 0.000611 1488.86230 1638.51550
1650.0 0.000606 1488.47754 1618.60278
1644.0 0.000608 1488.08923 1597.92517
1611.0 0.000621 1487.69788 1579.07935
1578.0 0.000634 1487.30298 1563.27246
1511.0 0.000662 1486.90503 1550.82446
1501.0 0.000666 1486.50378 1541.53406
1504.0 0.000665 1486.09937 1533.18738
1472.0 0.000679 1485.69177 1528.71924
1435.0 0.000697 1485.28125 1525.84656
1511.0 0.000662 1484.86743 1524.15955
1457.0 0.000686 1484.45093 1523.38940
1485.0 0.000673 1484.03101 1523.41003
1539.0 0.000650 1483.60852 1524.23840
1478.0 0.000677 1483.18286 1526.03772
1478.0 0.000677 1482.75452 1529.13550
1514.0 0.000661 1482.32349 1534.03357
1529.0 0.000654 1481.88940 1541.39600
1566.0 0.000639 1481.45300 1551.98438
1523.0 0.000657 1481.01355 1566.52148
1531.0 0.000653 1480.57166 1585.48169
1594.0 0.000627 1480.12695 1608.80347
1641.0 0.000609 1479.68005 1635.48682
1707.0 0.000586 1479.23022 1665.23254
1648.0 0.000607 1478.77820 1688.90784
1704.0 0.000587 1478.32397 1702.36584
1687.0 0.000593 1477.86694 1700.75952
1627.0 0.000615 1477.40784 1684.64441
1649.0 0.000606 1476.94629 1659.47021
1577.0 0.000634 1476.48254 1631.44324
1553.0 0.000644 1476.01685 1604.82678
1483.0 0.000674 1475.54883 1581.85999
1496.0 0.000668 1475.07861 1563.31726
1544.0 0.000648 1474.60645 1549.13574
1525.0 0.000656 1474.13245 1538.77454
1511.0 0.000662 1473.65613 1531.48413
1508.0 0.000663 1473.17822 1526.50549
1455.0 0.000687 1472.69836 1523.18591
1433.0 0.000698 1472.21667 1521.03186
1463.0 0.000684 1471.73303 1519.70325
1508.0 0.000663 1471.24780 1518.99072
1471.0 0.000680 1470.76123 1518.77686
1445.0 0.000692 1470.27246 1519.01489
1490.0 0.000671 1469.78259 1519.71216
1509.0 0.000663 1469.29065 1520.92896
1481.0 0.000675 1468.79773 1522.79114
1487.0 0.000672 1468.30310 1525.50903
1545.0 0.000647 1467.80725 1529.36682
1524.0 0.000656 1467.30994 1534.76782
1569.0 0.000637 1466.81152 1542.18262
1548.0 0.000646 1466.31165 1552.09998
1534.0 0.000652 1465.81055 1564.93079
1552.0 0.000644 1465.30847 1580.87988
1572.0 0.000636 1464.80505 1599.76563
1554.0 0.000644 1464.30078 1620.75171
1546.0 0.000647 1463.79541 1642.03760
1571.0 0.000637 1463.28931 1660.99146
1505.0 0.000664 1462.78210 1675.59949
1626.0 0.000615 1462.27405 1686.59656
1686.0 0.000593 1461.76538 1697.82349
1695.0 0.000590 1461.25574 1713.76770
1763.0 0.000567 1460.74548 1737.92554
1763.0 0.000567 1460.23450 1772.31860
1735.0 0.000576 1459.72302 1817.08777
1827.0 0.000547 1459.21082 1869.36523
1909.0 0.000524 1458.69824 1921.71277
1989.0 0.000503 1458.18542 1961.58679
1969.0 0.000508 1457.67163 1974.67981
1940.0 0.000515 1457.15784 1954.04919
1861.0 0.000537 1456.64355 1905.81055
1817.0 0.000550 1456.12915 1843.71985
1691.0 0.000591 1455.61438 1779.84314
1693.0 0.000591 1455.09961 1721.78931
1708.0 0.000585 1454.58447 1673.02771
1649.0 0.000606 1454.06958 1634.45081
1645.0 0.000608 1453.55444 1605.42017
1504.0 0.000665 1453.03943 1584.48499
1548.0 0.000646 1452.52454 1569.90540
1523.0 0.000657 1452.00940 1560.02612
1585.0 0.000631 1451.49475 1553.47803
1538.0 0.000650 1450.98010 1549.24207
1476.0 0.000678 1450.46606 1549.20581
1505.0 0.000664 1449.95190 1547.79199
1432.0 0.000698 1449.43835 1547.28711
1498.0 0.000668 1448.92529 1547.53467
1497.0 0.000668 1448.41235 1548.44885
1530.0 0.000654 1447.90015 1549.98840
1536.0 0.000651 1447.38831 1552.13904
1514.0 0.000661 1446.87732 1554.91040
1610.0 0.000621 1446.36670 1558.32410
1606.0 0.000623 1445.85693 1562.43835
1564.0 0.000639 1445.34790 1567.31360
1590.0 0.000629 1444.83936 1573.03906
1589.0 0.000629 1444.33203 1579.59961
1552.0 0.000644 1443.82520 1587.40723
1531.0 0.000653 1443.31946 1596.52380
1572.0 0.000636 1442.81445 1607.20691
1645.0 0.000608 1442.31079 1619.81335
1675.0 0.000597 1441.80786 1634.85742
1610.0 0.000621 1441.30627 1653.12537
1652.0 0.000605 1440.80566 1675.85828
1713.0 0.000584 1440.30615 1705.03528
1658.0 0.000603 1439.80786 1743.75476
1760.0 0.000568 1439.31091 1796.65173
1802.0 0.000555 1438.81531 1870.20996
1924.0 0.000520 1438.32080 1972.73169
2119.0 0.000472 1437.82788 2113.68896
2213.0 0.000452 1437.33643 2302.24658
2532.0 0.000395 1436.84619 2544.91675
2979.0 0.0003357 1436.35767 2842.33618
3249.0 0.0003078 1435.87061 3184.81836
3605.0 0.0002774 1435.38525 3545.72461
3982.0 0.0002511 1434.90125 3873.48828
4167.0 0.0002400 1434.41919 4092.74414
4363.0 0.0002292 1433.93860 4134.06885
4106.0 0.0002435 1433.45996 3984.17432
3819.0 0.0002618 1432.98303 3697.68286
3383.0 0.0002956 1432.50769 3353.73071
3004.0 0.0003329 1432.03455 3014.56323
2772.0 0.000361 1431.56299 2716.13208
2438.0 0.000410 1431.09375 2474.79077
2355.0 0.000425 1430.62610 2294.73169
2227.0 0.000449 1430.16064 2172.93213
2056.0 0.000486 1429.69702 2102.40088
2009.0 0.000498 1429.23572 2074.31396
2011.0 0.000497 1428.77649 2079.28442
2147.0 0.000466 1428.31934 2107.12061
2154.0 0.000464 1427.86426 2147.92139
2183.0 0.000458 1427.41150 2182.35327
2252.0 0.000444 1426.96094 2196.06909
2176.0 0.000460 1426.51282 2178.86475
2064.0 0.000484 1426.06689 2133.60522
2086.0 0.000479 1425.62317 2072.81421
2037.0 0.000491 1425.18201 2009.53833
1949.0 0.000513 1424.74329 1952.47998
1967.0 0.000508 1424.30676 1906.06726
1998.0 0.000501 1423.87317 1871.87427
1869.0 0.000535 1423.44153 1849.76355
1840.0 0.000543 1423.01282 1838.66089
1916.0 0.000522 1422.58630 1837.12012
1888.0 0.000530 1422.16260 1843.74072
1983.0 0.000504 1421.74170 1857.43433
1912.0 0.000523 1421.32300 1879.01147
1910.0 0.000524 1420.90723 1905.39111
1922.0 0.000520 1420.49390 1938.29919
2018.0 0.000496 1420.08362 1978.48499
2027.0 0.000493 1419.67578 2027.24023
2037.0 0.000491 1419.27100 2086.61353
2133.0 0.000469 1418.86877 2159.83911
2240.0 0.000446 1418.46960 2252.51001
2313.0 0.000432 1418.07312 2372.03784
2458.0 0.000407 1417.67944 2531.74731
2697.0 0.000371 1417.28870 2750.91260
2938.0 0.0003404 1416.90100 3056.49268
3312.0 0.0003019 1416.51611 3483.09204
3853.0 0.0002595 1416.13403 4070.46411
4635.0 0.0002157 1415.75513 4857.68457
5679.0 0.0001761 1415.37903 5873.77100
7113.0 0.0001406 1415.00623 7124.76709
8635.0 0.0001158 1414.63635 8576.04004
10551.0 0.0000948 1414.26941 10126.04883
11777.0 0.0000849 1413.90564 11572.68164
12689.0 0.0000788 1413.54480 12606.99414
13396.0 0.0000746 1413.18713 12915.36914
12723.0 0.0000786 1412.83264 12387.82910
11558.0 0.0000865 1412.48108 11211.21973
10048.0 0.0000995 1412.13293 9716.80078
8342.0 0.0001199 1411.78772 8187.68164
6863.0 0.0001457 1411.44592 6794.68652
5632.0 0.0001776 1411.10718 5617.10400
4698.0 0.0002129 1410.77161 4675.92188
4008.0 0.0002495 1410.43921 3957.08716
3483.0 0.0002871 1410.11011 3427.95898
3126.0 0.0003199 1409.78430 3049.02612
2906.0 0.0003441 1409.46155 2782.11108
2675.0 0.000374 1409.14221 2595.14966
2535.0 0.000394 1408.82605 2463.94409
2431.0 0.000411 1408.51331 2371.80615
2384.0 0.000419 1408.20349 2308.17871
2290.0 0.000437 1407.89734 2267.12427
2275.0 0.000440 1407.59436 2246.19434
2220.0 0.000450 1407.29443 2245.86450
2338.0 0.000428 1406.99817 2269.49390
2330.0 0.000429 1406.70496 2323.60718
2486.0 0.000402 1406.41541 2418.15356
2504.0 0.000399 1406.12878 2566.31348
2717.0 0.000368 1405.84583 2783.36157
2974.0 0.0003362 1405.56580 3084.24316
3387.0 0.0002952 1405.28931 3479.79639
4002.0 0.0002499 1405.01611 3971.58496
4609.0 0.0002170 1404.74646 4544.82422
5276.0 0.0001895 1404.47998 5157.89307
5880.0 0.0001701 1404.21680 5729.04688
6304.0 0.0001586 1403.95703 6134.33447
6500.0 0.0001538 1403.70032 6248.48291
6142.0 0.0001628 1403.44727 6027.14795
5834.0 0.0001714 1403.19727 5543.78906
5113.0 0.0001956 1402.95081 4930.44287
4552.0 0.0002197 1402.70764 4300.79199
3823.0 0.0002616 1402.46777 3724.28369
3304.0 0.0003027 1402.23108 3233.78589
2896.0 0.0003453 1401.99780 2838.56445
2644.0 0.000378 1401.76782 2533.62451
2455.0 0.000407 1401.54102 2306.13867
2175.0 0.000460 1401.31763 2140.20630
2024.0 0.000494 1401.09741 2020.25317
2005.0 0.000499 1400.88074 1933.04016
1947.0 0.000514 1400.66699 1868.41968
1838.0 0.000544 1400.45667 1819.22327
1817.0 0.000550 1400.24976 1780.68628
1782.0 0.000561 1400.04578 1749.75745
1770.0 0.000565 1399.84509 1724.59143
1732.0 0.000577 1399.64771 1703.72864
1676.0 0.000597 1399.45337 1686.33337
1721.0 0.000581 1399.26233 1671.62317
1615.0 0.000619 1399.07458 1658.82654
1752.0 0.000571 1398.88965 1647.16870
1622.0 0.000617 1398.70813 1636.07336
1610.0 0.000621 1398.52954 1625.32080
1605.0 0.000623 1398.35425 1615.13538
1565.0 0.000639 1398.18201 1605.83594
1675.0 0.000597 1398.01294 1597.65149
1587.0 0.000630 1397.84692 1590.68140
1555.0 0.000643 1397.68372 1584.92358
1558.0 0.000642 1397.52380 1580.30273
1567.0 0.000638 1397.36682 1576.67468
1586.0 0.000631 1397.21265 1573.82556
1607.0 0.000622 1397.06177 1571.42468
1526.0 0.000655 1396.91370 1569.27759
1546.0 0.000647 1396.76843 1567.16431
1486.0 0.000673 1396.62622 1565.12231
1561.0 0.000641 1396.48694 1563.31934
1563.0 0.000640 1396.35046 1561.95337
1532.0 0.000653 1396.21680 1561.13550
1563.0 0.000640 1396.08594 1560.93225
1547.0 0.000646 1395.95789 1561.37244
1561.0 0.000641 1395.83276 1562.46814
1576.0 0.000635 1395.71021 1564.22156
1527.0 0.000655 1395.59058 1566.43140
1584.0 0.000631 1395.47339 1569.51929
1596.0 0.000627 1395.35913 1573.30212
1617.0 0.000618 1395.24744 1577.81641
1556.0 0.000643 1395.13818 1583.11780
1575.0 0.000635 1395.03162 1589.28040
1658.0 0.000603 1394.92773 1596.40002
1591.0 0.000629 1394.82629 1604.59900
1667.0 0.000600 1394.72754 1614.03406
1569.0 0.000637 1394.63098 1624.91077
1613.0 0.000620 1394.53711 1637.50085
1620.0 0.000617 1394.44556 1652.17981
1632.0 0.000613 1394.35657 1669.46082
1756.0 0.000569 1394.26965 1690.04736
1731.0 0.000578 1394.18530 1714.87671
1733.0 0.000577 1394.10315 1745.14587
1809.0 0.000553 1394.02332 1782.30237
1809.0 0.000553 1393.94556 1827.99768
1877.0 0.000533 1393.87024 1884.01477
1994.0 0.000502 1393.79700 1952.21021
2015.0 0.000496 1393.72583 2034.49854
2142.0 0.000467 1393.65686 2132.85791
2207.0 0.000453 1393.58984 2249.33154
2417.0 0.000414 1393.52515 2386.39819
2576.0 0.000388 1393.46204 2549.03296
2766.0 0.000362 1393.40125 2749.26367
2944.0 0.0003397 1393.34216 3008.42651
3313.0 0.0003018 1393.28503 3354.54370
3841.0 0.0002603 1393.22986 3813.24316
4437.0 0.0002254 1393.17651 4399.77930
5144.0 0.0001944 1393.12488 5111.54883
5875.0 0.0001702 1393.07495 5918.32324
6739.0 0.0001484 1393.02673 6747.48730
7300.0 0.0001370 1392.98022 7469.27686
7683.0 0.0001302 1392.93542 7909.42041
7600.0 0.0001316 1392.89221 7925.66943
7242.0 0.0001381 1392.85034 7509.29639
6627.0 0.0001509 1392.81030 6791.81201
5893.0 0.0001697 1392.77161 5947.34521
5196.0 0.0001925 1392.73438 5110.61328
4370.0 0.0002288 1392.69861 4359.11230
3764.0 0.0002657 1392.66418 3727.30420
3201.0 0.0003124 1392.63098 3222.41626
2926.0 0.0003418 1392.59924 2835.33032
2721.0 0.000368 1392.56860 2548.17529
2388.0 0.000419 1392.53931 2339.99536
2366.0 0.000423 1392.51111 2189.52686
2332.0 0.000429 1392.48389 2082.31836
2147.0 0.000466 1392.45789 2004.27185
2071.0 0.000483 1392.43298 1946.27148
2000.0 0.000500 1392.40906 1902.23120
1969.0 0.000508 1392.38599 1868.24329
1997.0 0.000501 1392.36401 1841.84692
1942.0 0.000515 1392.34277 1821.48560
1895.0 0.000528 1392.32251 1806.15894
1860.0 0.000538 1392.30286 1795.21265
1902.0 0.000526 1392.28394 1788.21667
1930.0 0.000518 1392.26599 1784.90369
1868.0 0.000535 1392.24854 1785.13757
1909.0 0.000524 1392.23169 1788.89526
1808.0 0.000553 1392.21558 1796.26697
1882.0 0.000531 1392.19983 1807.46228
1860.0 0.000538 1392.18457 1822.61597
1930.0 0.000518 1392.16992 1842.71423
1914.0 0.000522 1392.15576 1868.35693
2005.0 0.000499 1392.14160 1900.80627
1995.0 0.000501 1392.12805 1942.03430
2069.0 0.000483 1392.11475 1995.14246
2076.0 0.000482 1392.10181 2064.96558
2136.0 0.000468 1392.08887 2158.81250
2283.0 0.000438 1392.07617 2287.18921
2438.0 0.000410 1392.06360 2464.18506
2618.0 0.000382 1392.05103 2707.08838
2924.0 0.0003420 1392.03845 3034.84033
3381.0 0.0002958 1392.02588 3465.60742
3828.0 0.0002612 1392.01331 4010.15308
4512.0 0.0002216 1392.00073 4669.18115
5345.0 0.0001871 1391.98792 5422.91260
6228.0 0.0001606 1391.97473 6219.40771
6789.0 0.0001473 1391.96167 6959.77002
7264.0 0.0001377 1391.94812 7497.38672
7355.0 0.0001360 1391.93420 7685.65625
7378.0 0.0001355 1391.92004 7470.87646
6854.0 0.0001459 1391.90552 6936.74219
6115.0 0.0001635 1391.89050 6241.58105
5414.0 0.0001847 1391.87488 5530.23682
4712.0 0.0002122 1391.85876 4899.08350
4320.0 0.0002315 1391.84229 4402.26416
3976.0 0.0002515 1391.82495 4066.07642
3803.0 0.0002630 1391.80725 3898.95190
3798.0 0.0002633 1391.78870 3896.96460
4015.0 0.0002491 1391.76941 4046.47339
4406.0 0.0002270 1391.74927 4324.17041
4703.0 0.0002126 1391.72839 4693.69824
5134.0 0.0001948 1391.70654 5098.34521
5473.0 0.0001827 1391.68408 5449.82666
5701.0 0.0001754 1391.66052 5663.22656
5653.0 0.0001769 1391.63586 5669.51709
5551.0 0.0001801 1391.61035 5480.83301
5217.0 0.0001917 1391.58386 5170.64209
4879.0 0.0002050 1391.55603 4817.88818
4445.0 0.0002250 1391.52722 4468.90820
4186.0 0.0002389 1391.49719 4133.75098
3927.0 0.0002546 1391.46582 3803.43823
3521.0 0.0002840 1391.43347 3473.25098
3242.0 0.0003085 1391.39954 3154.45581
2911.0 0.0003435 1391.36450 2861.14722
2657.0 0.000376 1391.32788 2606.04736
2470.0 0.000405 1391.29016 2392.71729
2222.0 0.000450 1391.25073 2219.23145
2114.0 0.000473 1391.20996 2081.02026
2011.0 0.000497 1391.16760 1972.55676
1903.0 0.000525 1391.12378 1888.21680
1826.0 0.000548 1391.07813 1822.75757
1685.0 0.000593 1391.03113 1771.61536
1691.0 0.000591 1390.98242 1731.06494
1702.0 0.000588 1390.93201 1698.24878
1719.0 0.000582 1390.87976 1671.09387
1645.0 0.000608 1390.82593 1648.15637
1740.0 0.000575 1390.77002 1628.44446
1590.0 0.000629 1390.71252 1611.27612
1697.0 0.000589 1390.65320 1596.17053
1650.0 0.000606 1390.59180 1582.77649
1607.0 0.000622 1390.52856 1570.82788
1617.0 0.000618 1390.46326 1560.11487
1571.0 0.000637 1390.39612 1550.46826
1472.0 0.000679 1390.32678 1539.49353
1517.0 0.000659 1390.25549 1531.60901
1524.0 0.000656 1390.18213 1524.43616
1511.0 0.000662 1390.10669 1517.89282
1528.0 0.000654 1390.02893 1511.90637
1477.0 0.000677 1389.94922 1506.42322
1527.0 0.000655 1389.86719 1501.39001
1483.0 0.000674 1389.78296 1496.76343
1524.0 0.000656 1389.69641 1492.50635
1435.0 0.000697 1389.60754 1488.58752
1466.0 0.000682 1389.51648 1484.97961
1432.0 0.000698 1389.42297 1481.66052
1528.0 0.000654 1389.32715 1478.61060
1498.0 0.000668 1389.22900 1475.81396
1538.0 0.000650 1389.12830 1473.25928
1444.0 0.000693 1389.02539 1470.93665
1463.0 0.000684 1388.91968 1468.87415
1492.0 0.000670 1388.81165 1467.00159
1431.0 0.000699 1388.70117 1465.35400
1438.0 0.000695 1388.58813 1463.93774
1442.0 0.000693 1388.47241 1462.76453
1372.0 0.000729 1388.35425 1461.85486
1445.0 0.000692 1388.23352 1461.24377
1437.0 0.000696 1388.10999 1460.98169
1442.0 0.000693 1387.98401 1461.16687
1431.0 0.000699 1387.85522 1461.93445
1480.0 0.000676 1387.72388 1463.49841
1391.0 0.000719 1387.58972 1466.16980
1414.0 0.000707 1387.45288 1470.37488
1461.0 0.000684 1387.31335 1476.65454
1413.0 0.000708 1387.17126 1485.63232
1468.0 0.000681 1387.02612 1497.94250
1452.0 0.000689 1386.87830 1514.11279
1409.0 0.000710 1386.72766 1534.39990
1499.0 0.000667 1386.57422 1558.57397
1508.0 0.000663 1386.41785 1585.58789
1552.0 0.000644 1386.25879 1613.22559
1641.0 0.000609 1386.09705 1637.31470
1573.0 0.000636 1385.93225 1652.81750
1623.0 0.000616 1385.76453 1655.79089
1625.0 0.000615 1385.59412 1646.23328
1718.0 0.000582 1385.42053 1628.02209
1553.0 0.000644 1385.24426 1606.03076
1522.0 0.000657 1385.06494 1583.67896
1571.0 0.000637 1384.88293 1562.39832
1499.0 0.000667 1384.69788 1542.32593
1526.0 0.000655 1384.50977 1523.36462
1519.0 0.000658 1384.31885 1505.81177
1459.0 0.000685 1384.12488 1490.20056
1507.0 0.000664 1383.92822 1476.87927
1453.0 0.000688 1383.72827 1465.88989
1440.0 0.000694 1383.52563 1456.99402
1423.0 0.000703 1383.31982 1449.91345
1444.0 0.000693 1383.11121 1444.33655
1504.0 0.000665 1382.89954 1439.97034
1404.0 0.000712 1382.68494 1436.55823
1403.0 0.000713 1382.46729 1433.88220
1442.0 0.000693 1382.24683 1431.76782
1311.0 0.000763 1382.02319 1430.08374
1393.0 0.000718 1381.79675 1428.72839
1334.0 0.000750 1381.56726 1427.63464
1290.0 0.000775 1381.33484 1426.75623
1391.0 0.000719 1381.09949 1426.06274
1356.0 0.000737 1380.86121 1425.53638
1340.0 0.000746 1380.61987 1425.16528
1420.0 0.000704 1380.37549 1424.94458
1362.0 0.000734 1380.12830 1424.87463
1397.0 0.000716 1379.87830 1424.95862
1356.0 0.000737 1379.62512 1425.20398
1380.0 0.000725 1379.36926 1425.62329
1466.0 0.000682 1379.11035 1426.23560
1435.0 0.000697 1378.84851 1427.05859
1397.0 0.000716 1378.58374 1428.12573
1356.0 0.000737 1378.31604 1429.47925
1363.0 0.000734 1378.04565 1431.18079
1465.0 0.000683 1377.77222 1433.31836
1430.0 0.000699 1377.49609 1436.02734
1427.0 0.000701 1377.21704 1439.51416
1409.0 0.000710 1376.93518 1444.09033
1451.0 0.000689 1376.65039 1450.21448
1421.0 0.000704 1376.36292 1458.52747
1422.0 0.000703 1376.07251 1469.88684
1516.0 0.000660 1375.77942 1485.27625
1455.0 0.000687 1375.48376 1505.81848
1554.0 0.000644 1375.18518 1532.55054
1545.0 0.000647 1374.88391 1566.20129
1552.0 0.000644 1374.57983 1606.88025
1652.0 0.000605 1374.27319 1653.64941
1665.0 0.000601 1373.96387 1703.89319
1781.0 0.000561 1373.65173 1752.50208
1844.0 0.000542 1373.33728 1791.45190
1816.0 0.000551 1373.01990 1812.14819
1815.0 0.000551 1372.70007 1809.59790
1810.0 0.000552 1372.37756 1786.69519
1705.0 0.000587 1372.05273 1752.23669
1690.0 0.000592 1371.72534 1715.71045
1675.0 0.000597 1371.39539 1684.01550
1654.0 0.000605 1371.06299 1661.05481
1620.0 0.000617 1370.72803 1648.13867
1665.0 0.000601 1370.39087 1644.72852
1595.0 0.000627 1370.05103 1645.78186
1651.0 0.000606 1369.70911 1652.11572
1652.0 0.000605 1369.36475 1655.31165
1639.0 0.000610 1369.01794 1650.05872
1637.0 0.000611 1368.66907 1634.78882
1530.0 0.000654 1368.31775 1610.82556
1591.0 0.000629 1367.96436 1582.89697
1481.0 0.000675 1367.60864 1554.88342
1466.0 0.000682 1367.25073 1529.27051
1505.0 0.000664 1366.89075 1507.30798
1491.0 0.000671 1366.52869 1489.41528
1468.0 0.000681 1366.16455 1475.49341
1448.0 0.000691 1365.79822 1465.14001
1493.0 0.000670 1365.43030 1457.80676
1407.0 0.000711 1365.05994 1452.91797
1467.0 0.000682 1364.68799 1449.95679
1481.0 0.000675 1364.31372 1448.50623
1466.0 0.000682 1363.93787 1448.26563
1420.0 0.000704 1363.56018 1449.03906
1380.0 0.000725 1363.18066 1450.72546
1440.0 0.000694 1362.79944 1453.29431
1402.0 0.000713 1362.41638 1456.78113
1439.0 0.000695 1362.03174 1461.28503
1448.0 0.000691 1361.64514 1466.98279
1447.0 0.000691 1361.25732 1474.16089
1445.0 0.000692 1360.86780 1483.27332
1488.0 0.000672 1360.47668 1495.02209
1542.0 0.000649 1360.08423 1510.46558
1503.0 0.000665 1359.69006 1531.13904
1460.0 0.000685 1359.29468 1559.14490
1588.0 0.000630 1358.89771 1597.17261
1611.0 0.000621 1358.49963 1648.37549
1763.0 0.000567 1358.10010 1716.05237
1736.0 0.000576 1357.69934 1803.10779
1930.0 0.000518 1357.29724 1911.28992
2065.0 0.000484 1356.89429 2040.18787
2238.0 0.000447 1356.49011 2185.82373
2448.0 0.000408 1356.08484 2338.59473
2526.0 0.000396 1355.67834 2480.81372
2621.0 0.000382 1355.27100 2586.59717
2671.0 0.000374 1354.86279 2629.24536
2710.0 0.000369 1354.45361 2596.30566
2552.0 0.000392 1354.04346 2498.72681
2364.0 0.000423 1353.63245 2362.78882
2171.0 0.000461 1353.22095 2214.87793
2117.0 0.000472 1352.80859 2073.38574
2008.0 0.000498 1352.39526 1948.51172
1851.0 0.000540 1351.98169 1842.21118
1740.0 0.000575 1351.56738 1760.12170
1751.0 0.000571 1351.15259 1698.27319
1648.0 0.000607 1350.73706 1653.97327
1628.0 0.000614 1350.32141 1624.12708
1614.0 0.000620 1349.90527 1605.81177
1606.0 0.000623 1349.48865 1596.64514
1589.0 0.000629 1349.07190 1594.97559
1602.0 0.000624 1348.65454 1599.96436
1656.0 0.000604 1348.23730 1611.62976
1645.0 0.000608 1347.81982 1630.92529
1697.0 0.000589 1347.40234 1659.86060
1784.0 0.000561 1346.98438 1701.65686
1781.0 0.000561 1346.56689 1760.85168
1808.0 0.000553 1346.14929 1843.23438
1894.0 0.000528 1345.73169 1954.00745
2042.0 0.000490 1345.31409 2102.89795
2279.0 0.000439 1344.89685 2294.06641
2506.0 0.000399 1344.47986 2530.34131
2775.0 0.000360 1344.06311 2809.51489
3095.0 0.0003231 1343.64661 3121.18091
3375.0 0.0002963 1343.23047 3442.14990
3733.0 0.0002679 1342.81494 3731.21777
3980.0 0.0002513 1342.39990 3932.54956
3971.0 0.0002518 1341.98499 3992.03320
3854.0 0.0002595 1341.57104 3890.86230
3676.0 0.0002720 1341.15759 3658.95605
3291.0 0.0003039 1340.74487 3353.52173
3056.0 0.0003272 1340.33264 3028.26245
2719.0 0.000368 1339.92151 2719.33398
2536.0 0.000394 1339.51123 2446.26074
2254.0 0.000444 1339.10144 2217.02759
2080.0 0.000481 1338.69299 2032.30994
1992.0 0.000502 1338.28516 1888.34583
1822.0 0.000549 1337.87854 1779.00220
1751.0 0.000571 1337.47290 1697.34045
1641.0 0.000609 1337.06860 1636.72766
1618.0 0.000618 1336.66504 1591.49585
1606.0 0.000623 1336.26306 1557.19702
1626.0 0.000615 1335.86230 1530.56738
1637.0 0.000611 1335.46289 1509.33521
1522.0 0.000657 1335.06470 1491.97717
1496.0 0.000668 1334.66797 1477.49023
1459.0 0.000685 1334.27283 1465.21423
1476.0 0.000678 1333.87903 1454.70740
1452.0 0.000689 1333.48669 1445.66858
1468.0 0.000681 1333.09619 1437.89087
1502.0 0.000666 1332.70740 1431.23621
1430.0 0.000699 1332.32031 1425.62732
1435.0 0.000697 1331.93469 1421.03577
1370.0 0.000730 1331.55103 1417.49255
1399.0 0.000715 1331.16919 1415.07336
1488.0 0.000672 1330.78943 1413.94385
1432.0 0.000698 1330.41125 1414.14221
1415.0 0.000707 1330.03540 1415.84009
1449.0 0.000690 1329.66150 1419.10388
1464.0 0.000683 1329.28967 1423.89319
1538.0 0.000650 1328.92004 1429.97925
1482.0 0.000675 1328.55225 1436.83838
1462.0 0.000684 1328.18701 1443.51208
1511.0 0.000662 1327.82385 1448.58118
1488.0 0.000672 1327.46313 1450.52026
1474.0 0.000678 1327.10461 1448.50122
1508.0 0.000663 1326.74854 1442.98547
1518.0 0.000659 1326.39514 1435.39453
1472.0 0.000679 1326.04395 1427.27539
1411.0 0.000709 1325.69531 1419.76111
1456.0 0.000687 1325.34924 1413.51953
1471.0 0.000680 1325.00598 1408.91772
1475.0 0.000678 1324.66516 1406.23779
1447.0 0.000691 1324.32690 1405.82825
1488.0 0.000672 1323.99158 1408.12598
1419.0 0.000705 1323.65906 1413.58374
1515.0 0.000660 1323.32935 1422.57837
1467.0 0.000682 1323.00232 1435.32166
1473.0 0.000679 1322.67822 1451.75317
1516.0 0.000660 1322.35718 1471.37170
1475.0 0.000678 1322.03906 1492.97559
1591.0 0.000629 1321.72375 1514.31616
1618.0 0.000618 1321.41174 1531.88794
1559.0 0.000641 1321.10291 1541.51526
1622.0 0.000617 1320.79688 1540.21509
1549.0 0.000646 1320.49426 1528.15991
1495.0 0.000669 1320.19446 1508.84814
1539.0 0.000650 1319.89819 1485.90491
1438.0 0.000695 1319.60510 1463.03931
1464.0 0.000683 1319.31543 1442.41968
1406.0 0.000711 1319.02881 1425.18481
1394.0 0.000717 1318.74573 1411.78027
1388.0 0.000720 1318.46606 1402.18555
1395.0 0.000717 1318.18970 1396.04712
1351.0 0.000740 1317.91675 1392.83984
1386.0 0.000722 1317.64734 1391.79956
1395.0 0.000717 1317.38159 1393.31995
1371.0 0.000729 1317.11914 1393.64124
1455.0 0.000687 1316.86035 1392.97888
1389.0 0.000720 1316.60510 1390.63721
1368.0 0.000731 1316.35364 1386.64453
1471.0 0.000680 1316.10583 1381.60474
1370.0 0.000730 1315.86133 1376.24597
1431.0 0.000699 1315.62097 1371.10120
1343.0 0.000745 1315.38403 1366.43738
1348.0 0.000742 1315.15112 1362.33118
1378.0 0.000726 1314.92151 1358.77197
1364.0 0.000733 1314.69617 1355.74646
1370.0 0.000730 1314.47449 1353.26208
1373.0 0.000728 1314.25671 1351.32422
1324.0 0.000755 1314.04272 1349.91321
1336.0 0.000749 1313.83252 1348.99451
1376.0 0.000727 1313.62622 1348.52100
1311.0 0.000763 1313.42407 1348.44324
1346.0 0.000743 1313.22571 1348.70581
1319.0 0.000758 1313.03125 1349.24121
1378.0 0.000726 1312.84082 1349.96851
1366.0 0.000732 1312.65442 1350.80615
1343.0 0.000745 1312.47205 1351.71851
1390.0 0.000719 1312.29346 1352.76489
1357.0 0.000737 1312.11914 1354.10059
1358.0 0.000736 1311.94885 1355.91492
1336.0 0.000749 1311.78247 1358.37207
1308.0 0.000765 1311.62012 1361.57434
1294.0 0.000773 1311.46204 1365.54419
1388.0 0.000720 1311.30798 1370.19458
1419.0 0.000705 1311.15808 1375.28857
1356.0 0.000737 1311.01208 1380.38403
1344.0 0.000744 1310.87036 1384.83569
1334.0 0.000750 1310.73267 1387.97668
1377.0 0.000726 1310.59924 1389.48083
1394.0 0.000717 1310.46973 1389.61548
1429.0 0.000700 1310.34448 1389.09082
1447.0 0.000691 1310.22351 1388.69861
1327.0 0.000754 1310.10657 1389.09167
1405.0 0.000712 1309.99377 1390.77759
1417.0 0.000706 1309.88501 1394.20715
1376.0 0.000727 1309.78052 1399.87927
1419.0 0.000705 1309.68018 1408.44360
1388.0 0.000720 1309.58398 1420.62671
1445.0 0.000692 1309.49182 1437.99402
1442.0 0.000693 1309.40393 1461.95093
1481.0 0.000675 1309.32019 1494.38513
1554.0 0.000644 1309.24048 1539.75293
1624.0 0.000616 1309.16492 1595.14575
1607.0 0.000622 1309.09363 1664.32202
1722.0 0.000581 1309.02637 1747.56055
1861.0 0.000537 1308.96326 1843.32666
1958.0 0.000511 1308.90417 1947.21411
2109.0 0.000474 1308.84924 2050.50562
2167.0 0.000461 1308.79846 2139.09106
2223.0 0.000450 1308.75159 2195.08716
2243.0 0.000446 1308.70874 2204.16479
2277.0 0.000439 1308.67017 2163.89233
2174.0 0.000460 1308.63562 2085.81738
2073.0 0.000482 1308.60510 1987.86108
1877.0 0.000533 1308.57837 1885.95190
1805.0 0.000554 1308.55591 1790.74719
1677.0 0.000596 1308.53723 1708.14673
1643.0 0.000609 1308.52271 1640.72412
1551.0 0.000645 1308.51208 1588.89832
1551.0 0.000645 1308.50525 1551.67114
1468.0 0.000681 1308.50244 1527.14026
1527.0 0.000655 1308.50354 1512.83337
1494.0 0.000669 1308.50867 1505.87292
1464.0 0.000683 1308.51733 1503.23206
1499.0 0.000667 1308.52991 1500.88538
1448.0 0.000691 1308.54639 1495.81018
1432.0 0.000698 1308.56665 1486.13281
1487.0 0.000672 1308.59058 1472.05249
1471.0 0.000680 1308.61841 1455.27222
1434.0 0.000697 1308.64978 1437.78198
1392.0 0.000718 1308.68494 1421.07825
1412.0 0.000708 1308.72351 1406.03235
1413.0 0.000708 1308.76611 1393.03601
1353.0 0.000739 1308.81201 1382.16602
1350.0 0.000741 1308.86169 1373.30237
1351.0 0.000740 1308.91467 1366.20886
1363.0 0.000734 1308.97131 1360.59814
1294.0 0.000773 1309.03137 1356.17651
1374.0 0.000728 1309.09509 1352.67773
1344.0 0.000744 1309.16187 1349.87793
1249.0 0.000801 1309.23218 1347.60413
1342.0 0.000745 1309.30591 1345.72693
1318.0 0.000759 1309.38293 1344.15381
1324.0 0.000755 1309.46313 1342.81995
1322.0 0.000756 1309.54651 1341.68030
1352.0 0.000740 1309.63318 1340.70483
1412.0 0.000708 1309.72314 1339.31848
1340.0 0.000746 1309.81604 1338.61475
1353.0 0.000739 1309.91211 1338.02393
1361.0 0.000735 1310.01123 1337.54028
1367.0 0.000732 1310.11328 1337.15894
1364.0 0.000733 1310.21838 1336.88367
1315.0 0.000760 1310.32617 1336.71973
1328.0 0.000753 1310.43713 1336.68188
1286.0 0.000778 1310.55078 1336.79089
1279.0 0.000782 1310.66736 1337.07581
1414.0 0.000707 1310.78638 1337.57068
1327.0 0.000754 1310.90833 1338.31714
1284.0 0.000779 1311.03284 1339.34302
1407.0 0.000711 1311.16003 1340.67590
1369.0 0.000730 1311.28967 1342.31750
1324.0 0.000755 1311.42200 1344.23535
1359.0 0.000736 1311.55664 1346.34094
1291.0 0.000775 1311.69385 1348.46240
1426.0 0.000701 1311.83325 1350.32471
1319.0 0.000758 1311.97498 1351.57922
1345.0 0.000743 1312.11914 1351.93237
1305.0 0.000766 1312.26550 1351.31824
1357.0 0.000737 1312.41394 1349.94250
1319.0 0.000758 1312.56445 1348.14880
1342.0 0.000745 1312.71716 1346.25830
1403.0 0.000713 1312.87183 1344.47754
1328.0 0.000753 1313.02844 1342.93176
1322.0 0.000756 1313.18689 1341.67322
1298.0 0.000770 1313.34729 1340.71216
1289.0 0.000776 1313.50952 1340.02966
1273.0 0.000786 1313.67346 1339.59216
1311.0 0.000763 1313.83887 1338.15051
1300.0 0.000769 1314.00623 1338.09558
1282.0 0.000780 1314.17505 1338.16895
1282.0 0.000780 1314.34546 1338.34216
1257.0 0.000796 1314.51721 1338.59265
1310.0 0.000763 1314.69055 1338.90442
1323.0 0.000756 1314.86499 1339.26575
1321.0 0.000757 1315.04089 1339.67078
1323.0 0.000756 1315.21790 1340.50183
1288.0 0.000776 1315.39612 1340.98389
1324.0 0.000755 1315.57568 1341.49976
1311.0 0.000763 1315.75610 1342.04822
1353.0 0.000739 1315.93750 1342.62964
1346.0 0.000743 1316.12000 1343.24268
1303.0 0.000767 1316.30322 1343.88977
1296.0 0.000772 1316.48743 1344.57080
1317.0 0.000759 1316.67224 1345.28577
1298.0 0.000770 1316.85779 1346.03662
1332.0 0.000751 1317.04395 1346.82568
1388.0 0.000720 1317.23083 1347.65417
1340.0 0.000746 1317.41809 1348.52478
1343.0 0.000745 1317.60583 1349.43958
1313.0 0.000762 1317.79407 1350.40271
1314.0 0.000761 1317.98254 1351.41663
1431.0 0.000699 1318.17139 1352.48718
1334.0 0.000750 1318.36023 1353.61707
1355.0 0.000738 1318.54956 1354.81409
1360.0 0.000735 1318.73877 1356.08411
1332.0 0.000751 1318.92810 1357.43567
1333.0 0.000750 1319.11719 1358.87891
1328.0 0.000753 1319.30652 1360.42749
1319.0 0.000758 1319.49536 1362.09778
1351.0 0.000740 1319.68420 1363.91309
1379.0 0.000725 1319.87268 1365.90674
1329.0 0.000752 1320.06079 1368.12500
1280.0 0.000781 1320.24866 1370.63513
1376.0 0.000727 1320.43591 1373.52966
1351.0 0.000740 1320.62256 1376.90320
1385.0 0.000722 1320.80872 1380.99060
1367.0 0.000732 1320.99426 1385.96362
1368.0 0.000731 1321.17920 1392.05994
1393.0 0.000718 1321.36316 1399.52881
1389.0 0.000720 1321.54639 1408.63855
1513.0 0.000661 1321.72864 1419.46301
1387.0 0.000721 1321.91003 1432.06641
1393.0 0.000718 1322.09033 1446.26685
1451.0 0.000689 1322.26953 1461.56189
1468.0 0.000681 1322.44763 1477.02185
1512.0 0.000661 1322.62451 1491.17883
1544.0 0.000648 1322.80029 1502.27258
1415.0 0.000707 1322.97437 1508.15308
1532.0 0.000653 1323.14746 1508.20471
1464.0 0.000683 1323.31897 1503.26208
1506.0 0.000664 1323.48901 1495.27368
1461.0 0.000684 1323.65735 1486.30139
1439.0 0.000695 1323.82422 1477.89966
1435.0 0.000697 1323.98938 1470.93091
1490.0 0.000671 1324.15271 1466.08118
1502.0 0.000666 1324.31433 1463.45984
1491.0 0.000671 1324.47412 1463.08582
1488.0 0.000672 1324.63196 1464.87830
1485.0 0.000673 1324.78796 1468.71851
1479.0 0.000676 1324.94177 1474.50708
1505.0 0.000664 1325.09351 1482.20813
1465.0 0.000683 1325.24316 1491.89331
1543.0 0.000648 1325.39075 1503.78308
1493.0 0.000670 1325.53601 1518.29138
1452.0 0.000689 1325.67883 1536.07629
1585.0 0.000631 1325.81946 1558.09631
1585.0 0.000631 1325.95776 1585.64661
1651.0 0.000606 1326.09338 1620.37207
1691.0 0.000591 1326.22656 1664.21204
1714.0 0.000583 1326.35730 1719.35889
1813.0 0.000552 1326.48535 1787.98108
1845.0 0.000542 1326.61072 1871.94043
1971.0 0.000507 1326.73340 1972.59619
2086.0 0.000479 1326.85327 2090.27734
2243.0 0.000446 1326.97046 2223.79932
2303.0 0.000434 1327.08459 2369.00293
2512.0 0.000398 1327.19592 2518.59961
2637.0 0.000379 1327.30444 2662.19873
2769.0 0.000361 1327.40979 2790.66992
2947.0 0.0003393 1327.51221 2903.33423
3085.0 0.0003241 1327.61145 3011.79028
3221.0 0.0003105 1327.70752 3135.46631
3339.0 0.0002995 1327.80054 3292.31543
3619.0 0.0002763 1327.89026 3492.64966
3948.0 0.0002533 1327.97656 3735.44775
4359.0 0.0002294 1328.05981 4005.89941
4538.0 0.0002204 1328.13953 4272.40381
4693.0 0.0002131 1328.21594 4486.24951
4767.0 0.0002098 1328.28882 4591.72461
4675.0 0.0002139 1328.35840 4550.14355
4559.0 0.0002193 1328.42432 4362.60693
4466.0 0.0002239 1328.48694 4068.30737
3833.0 0.0002609 1328.54553 3720.56152
3429.0 0.0002916 1328.60095 3364.80322
3194.0 0.0003131 1328.65247 3030.90698
2753.0 0.000363 1328.70044 2735.12451
2557.0 0.000391 1328.74463 2484.23022
2340.0 0.000427 1328.78503 2278.85474
2184.0 0.000458 1328.82166 2115.77393
2023.0 0.000494 1328.85461 1989.54626
1980.0 0.000505 1328.88342 1893.86230
1862.0 0.000537 1328.90869 1822.39355
1795.0 0.000557 1328.92981 1769.49121
1746.0 0.000573 1328.94714 1730.49792
1773.0 0.000564 1328.96057 1701.81470
1737.0 0.000576 1328.96973 1680.81226
1680.0 0.000595 1328.97510 1665.65820
1662.0 0.000602 1328.97644 1655.12488
1658.0 0.000603 1328.97375 1648.42004
1652.0 0.000605 1328.96680 1645.05432
1603.0 0.000624 1328.95593 1644.74963
1645.0 0.000608 1328.94092 1647.37891
1687.0 0.000593 1328.92175 1652.93762
1747.0 0.000572 1328.89832 1661.52881
1699.0 0.000589 1328.87085 1673.37366
1713.0 0.000584 1328.83923 1688.83923
1701.0 0.000588 1328.80334 1708.58752
1721.0 0.000581 1328.76318 1733.28076
1791.0 0.000558 1328.71887 1764.30493
1787.0 0.000560 1328.67029 1803.58643
1943.0 0.000515 1328.61755 1853.95190
1899.0 0.000527 1328.56030 1919.44104
1927.0 0.000519 1328.49902 2005.60974
2025.0 0.000494 1328.43347 2119.73462
2161.0 0.000463 1328.36353 2270.79565
2343.0 0.000427 1328.28918 2469.09131
2513.0 0.000398 1328.21069 2725.40674
2821.0 0.000354 1328.12793 3049.53418
3290.0 0.0003040 1328.04089 3448.37842
3802.0 0.0002630 1327.94946 3923.54932
4372.0 0.0002287 1327.85364 4467.91162
5041.0 0.0001984 1327.75366 5060.83789
5800.0 0.0001724 1327.64941 5661.59473
6372.0 0.0001569 1327.54077 6203.30176
6972.0 0.0001434 1327.42773 6596.40723
6912.0 0.0001447 1327.31055 6754.23828
6919.0 0.0001445 1327.18909 6636.18604
6478.0 0.0001544 1327.06335 6273.25928
6020.0 0.0001661 1326.93311 5748.34521
5460.0 0.0001832 1326.79883 5152.88574
4717.0 0.0002120 1326.66028 4557.79248
4136.0 0.0002418 1326.51746 4007.49146
3637.0 0.0002750 1326.37036 3525.35303
3180.0 0.0003145 1326.21899 3120.51465
2804.0 0.000357 1326.06360 2792.95288
2441.0 0.000410 1325.90405 2536.99854
2397.0 0.000417 1325.74011 2343.92603
2222.0 0.000450 1325.57214 2203.90259
2078.0 0.000481 1325.40002 2107.38037
2057.0 0.000486 1325.22388 2045.90710
1989.0 0.000503 1325.04346 2012.43994
1962.0 0.000510 1324.85901 2001.25061
2065.0 0.000484 1324.67065 2007.47058
2033.0 0.000492 1324.47827 2026.30847
2028.0 0.000493 1324.28186 2052.06323
2061.0 0.000485 1324.08130 2077.10938
2056.0 0.000486 1323.87695 2092.07959
2087.0 0.000479 1323.66858 2087.90454
1996.0 0.000501 1323.45654 2059.79102
1980.0 0.000505 1323.24036 2009.47339
1925.0 0.000519 1323.02051 1945.01050
1825.0 0.000548 1322.79700 1874.58496
1817.0 0.000550 1322.56958 1804.96704
1683.0 0.000594 1322.33838 1740.42126
1672.0 0.000598 1322.10352 1683.17346
1609.0 0.000622 1321.86511 1634.04822
1578.0 0.000634 1321.62292 1592.96460
1617.0 0.000618 1321.37720 1559.27795
1625.0 0.000615 1321.12805 1532.02539
1546.0 0.000647 1320.87549 1510.12207
1529.0 0.000654 1320.61938 1492.50464
1479.0 0.000676 1320.35962 1478.22253
1427.0 0.000701 1320.09680 1466.48865
1504.0 0.000665 1319.83057 1456.68530
1494.0 0.000669 1319.56116 1448.35205
1472.0 0.000679 1319.28833 1441.15601
1419.0 0.000705 1319.01245 1434.86218
1432.0 0.000698 1318.73340 1429.31018
1425.0 0.000702 1318.45142 1424.38562
1491.0 0.000671 1318.16626 1420.01147
1422.0 0.000703 1317.87805 1416.13293
1413.0 0.000708 1317.58704 1412.71179
1418.0 0.000705 1317.29309 1409.72070
1455.0 0.000687 1316.99646 1407.13916
1411.0 0.000709 1316.69678 1404.94885
1392.0 0.000718 1316.39478 1403.13049
1381.0 0.000724 1316.08997 1401.77454
1372.0 0.000729 1315.78247 1400.62097
1339.0 0.000747 1315.47253 1399.73071
1415.0 0.000707 1315.16003 1399.02942
1448.0 0.000691 1314.84521 1398.45630
1415.0 0.000707 1314.52808 1397.88110
1402.0 0.000713 1314.20850 1397.31689
1356.0 0.000737 1313.88684 1396.83215
1399.0 0.000715 1313.56299 1396.54834
1401.0 0.000714 1313.23718 1396.59778
1371.0 0.000729 1312.90906 1397.09290
1358.0 0.000736 1312.57910 1398.12488
1418.0 0.000705 1312.24719 1399.76538
1432.0 0.000698 1311.91370 1402.07288
1390.0 0.000719 1311.57813 1405.09180
1409.0 0.000710 1311.24097 1408.88965
1441.0 0.000694 1310.90222 1413.52429
1453.0 0.000688 1310.56201 1419.11633
1427.0 0.000701 1310.22021 1425.92053
1466.0 0.000682 1309.87683 1434.43579
1511.0 0.000662 1309.53247 1445.47888
1484.0 0.000674 1309.18665 1460.17456
1516.0 0.000660 1308.83972 1479.89722
1451.0 0.000689 1308.49146 1506.18860
1517.0 0.000659 1308.14233 1540.64221
1525.0 0.000656 1307.79224 1584.75000
1579.0 0.000633 1307.44128 1639.66321
1642.0 0.000609 1307.08936 1705.88416
1725.0 0.000580 1306.73669 1782.86157
1776.0 0.000563 1306.38367 1868.42236
1906.0 0.000525 1306.02979 1957.94519
2085.0 0.000480 1305.67542 2043.42566
2077.0 0.000481 1305.32056 2113.20142
2157.0 0.000464 1304.96558 2154.00464
2079.0 0.000481 1304.61023 2156.16431
2100.0 0.000476 1304.25452 2119.03564
2038.0 0.000491 1303.89893 2051.26709
1994.0 0.000502 1303.54321 1966.02490
1855.0 0.000539 1303.18762 1875.34131
1764.0 0.000567 1302.83191 1787.68457
1722.0 0.000581 1302.47668 1708.03699
1603.0 0.000624 1302.12170 1638.82324
1534.0 0.000652 1301.76709 1580.77026
1517.0 0.000659 1301.41309 1533.50940
1430.0 0.000699 1301.05920 1495.99146
1481.0 0.000675 1300.70630 1468.20447
1465.0 0.000683 1300.35400 1445.86084
1426.0 0.000701 1300.00256 1428.90649
1367.0 0.000732 1299.65173 1416.09241
1383.0 0.000723 1299.30212 1406.41260
1370.0 0.000730 1298.95361 1399.10608
1337.0 0.000748 1298.60608 1393.63306
1381.0 0.000724 1298.25977 1389.64001
1429.0 0.000700 1297.91479 1386.92114
1374.0 0.000728 1297.57117 1385.39429
1430.0 0.000699 1297.22888 1385.07043
1462.0 0.000684 1296.88831 1386.05017
1336.0 0.000749 1296.54932 1388.50586
1425.0 0.000702 1296.21204 1392.68066
1414.0 0.000707 1295.87671 1398.86829
1395.0 0.000717 1295.54285 1407.41663
1365.0 0.000733 1295.21130 1418.69385
1456.0 0.000687 1294.88171 1433.05359
1416.0 0.000706 1294.55432 1450.76233
1431.0 0.000699 1294.22888 1471.88110
1530.0 0.000654 1293.90601 1496.11951
1564.0 0.000639 1293.58533 1522.74023
1564.0 0.000639 1293.26733 1550.69067
1592.0 0.000628 1292.95190 1579.00793
1663.0 0.000601 1292.63867 1607.14307
1662.0 0.000602 1292.32861 1634.67578
1658.0 0.000603 1292.02112 1660.43298
1576.0 0.000635 1291.71655 1681.67883
1605.0 0.000623 1291.41479 1694.21570
1694.0 0.000590 1291.11633 1693.93726
1658.0 0.000603 1290.82080 1678.89197
1632.0 0.000613 1290.52844 1651.13953
1585.0 0.000631 1290.23938 1615.17529
1530.0 0.000654 1289.95361 1575.97498
1596.0 0.000627 1289.67139 1537.42261
1503.0 0.000665 1289.39270 1501.96545
1479.0 0.000676 1289.11743 1470.88501
1474.0 0.000678 1288.84583 1444.67249
1488.0 0.000672 1288.57825 1423.31152
1462.0 0.000684 1288.31421 1406.48132
1480.0 0.000676 1288.05396 1393.69629
1347.0 0.000742 1287.79797 1384.43042
1384.0 0.000723 1287.54590 1378.19861
1379.0 0.000725 1287.29785 1374.63062
1385.0 0.000722 1287.05396 1373.50513
1388.0 0.000720 1286.81445 1374.76941
1396.0 0.000716 1286.57910 1378.52869
1404.0 0.000712 1286.34839 1385.01501
1354.0 0.000739 1286.12207 1394.53674
1383.0 0.000723 1285.90002 1407.40723
1417.0 0.000706 1285.68286 1423.85974
1436.0 0.000696 1285.47021 1443.93823
1370.0 0.000730 1285.26245 1467.36670
1462.0 0.000684 1285.05920 1493.36707
1445.0 0.000692 1284.86121 1520.40796
1484.0 0.000674 1284.66797 1545.95398
1536.0 0.000651 1284.47961 1566.45813
1493.0 0.000670 1284.29639 1578.05444
1486.0 0.000673 1284.11829 1578.06396
1475.0 0.000678 1283.94543 1566.42639
1496.0 0.000668 1283.77771 1545.74634
1494.0 0.000669 1283.61523 1519.52332
1501.0 0.000666 1283.45813 1492.14746
1477.0 0.000677 1283.30664 1465.86926
1414.0 0.000707 1283.16052 1443.37769
1425.0 0.000702 1283.01978 1423.44641
1466.0 0.000682 1282.88464 1407.49646
1421.0 0.000704 1282.75525 1395.56970
1425.0 0.000702 1282.63159 1387.49182
1448.0 0.000691 1282.51331 1382.95715
1392.0 0.000718 1282.40112 1381.58594
1392.0 0.000718 1282.29456 1383.01611
1403.0 0.000713 1282.19409 1385.34521
1431.0 0.000699 1282.09949 1390.78052
1415.0 0.000707 1282.01062 1397.34326
1398.0 0.000715 1281.92786 1404.25427
1484.0 0.000674 1281.85120 1410.70300
1455.0 0.000687 1281.78064 1416.15918
1455.0 0.000687 1281.71606 1420.73816
1454.0 0.000688 1281.65771 1425.27307
1450.0 0.000690 1281.60571 1430.97778
1406.0 0.000711 1281.55981 1438.98401
1443.0 0.000693 1281.52014 1450.03357
1427.0 0.000701 1281.48682 1464.34436
1453.0 0.000688 1281.45984 1481.52234
1456.0 0.000687 1281.43933 1500.41553
1440.0 0.000694 1281.42493 1518.95068
1472.0 0.000679 1281.41711 1534.13477
1534.0 0.000652 1281.41589 1542.63489
1465.0 0.000683 1281.42090 1542.04553
1449.0 0.000690 1281.43250 1532.15027
1456.0 0.000687 1281.45056 1515.00562
1409.0 0.000710 1281.47522 1493.76807
1411.0 0.000709 1281.50647 1471.37939
1399.0 0.000715 1281.54419 1449.92334
1429.0 0.000700 1281.58850 1430.58398
1423.0 0.000703 1281.63953 1415.60083
1459.0 0.000685 1281.69714 1401.43945
1414.0 0.000707 1281.76135 1389.52771
1431.0 0.000699 1281.83215 1379.46362
1382.0 0.000724 1281.90967 1370.94580
1378.0 0.000726 1281.99390 1363.78223
1348.0 0.000742 1282.08472 1357.89990
1332.0 0.000751 1282.18213 1353.23059
1353.0 0.000739 1282.28638 1349.70178
1335.0 0.000749 1282.39722 1347.24194
1318.0 0.000759 1282.51477 1345.80701
1324.0 0.000755 1282.63879 1345.39099
1394.0 0.000717 1282.76978 1346.04138
1371.0 0.000729 1282.90723 1347.86377
1364.0 0.000733 1283.05151 1351.03601
1361.0 0.000735 1283.20215 1355.80371
1438.0 0.000695 1283.35974 1362.47693
1343.0 0.000745 1283.52380 1371.41016
1371.0 0.000729 1283.69446 1382.97290
1379.0 0.000725 1283.87183 1397.49451
1407.0 0.000711 1284.05566 1415.20508
1450.0 0.000690 1284.24622 1436.15356
1496.0 0.000668 1284.44324 1457.67322
1459.0 0.000685 1284.64685 1483.94263
1561.0 0.000641 1284.85681 1511.16479
1589.0 0.000629 1285.07349 1537.13196
1489.0 0.000672 1285.29651 1558.85022
1547.0 0.000646 1285.52600 1573.26660
1563.0 0.000640 1285.76184 1578.61462
1585.0 0.000631 1286.00403 1575.48145
1563.0 0.000640 1286.25281 1566.55042
1545.0 0.000647 1286.50769 1555.23633
1576.0 0.000635 1286.76892 1544.38635
1553.0 0.000644 1287.03638 1535.68115
1515.0 0.000660 1287.31006 1529.55457
1525.0 0.000656 1287.58997 1525.28479
1478.0 0.000677 1287.87585 1521.20068
1502.0 0.000666 1288.16797 1515.17407
1444.0 0.000693 1288.46606 1505.50037
1508.0 0.000663 1288.77039 1491.83777
1495.0 0.000669 1289.08032 1474.77979
1419.0 0.000705 1289.39636 1456.10339
1446.0 0.000692 1289.71826 1437.41272
1436.0 0.000696 1290.04590 1419.87476
1438.0 0.000695 1290.37939 1403.93469
1376.0 0.000727 1290.71851 1390.39075
1408.0 0.000710 1291.06335 1379.86023
1348.0 0.000742 1291.41382 1370.69397
1358.0 0.000736 1291.76978 1363.49658
1368.0 0.000731 1292.13110 1358.04797
1384.0 0.000723 1292.49817 1354.11597
1345.0 0.000743 1292.87024 1351.49146
1370.0 0.000730 1293.24780 1350.00293
1367.0 0.000732 1293.63049 1349.53271
1344.0 0.000744 1294.01831 1350.01550
1415.0 0.000707 1294.41150 1351.42957
1403.0 0.000713 1294.80933 1353.78821
1364.0 0.000733 1295.21240 1357.11487
1416.0 0.000706 1295.62024 1361.42468
1443.0 0.000693 1296.03284 1366.69763
1446.0 0.000692 1296.45044 1372.84436
1441.0 0.000694 1296.87244 1379.66321
1452.0 0.000689 1297.29919 1386.78821
1449.0 0.000690 1297.73022 1393.62866
1488.0 0.000672 1298.16614 1399.37061
1421.0 0.000704 1298.60583 1403.13586
1439.0 0.000695 1299.05029 1404.31287
1394.0 0.000717 1299.49866 1402.87329
1488.0 0.000672 1299.95117 1399.38416
1463.0 0.000684 1300.40771 1394.70276
1408.0 0.000710 1300.86816 1389.63391
1338.0 0.000747 1301.33264 1384.75037
1384.0 0.000723 1301.80066 1380.39148
1334.0 0.000750 1302.27246 1376.73108
1436.0 0.000696 1302.74780 1373.85095
1399.0 0.000715 1303.22681 1371.78906
1420.0 0.000704 1303.70898 1370.55579
1469.0 0.000681 1304.19446 1370.14417
1417.0 0.000706 1304.68323 1370.53186
1372.0 0.000729 1305.17505 1371.71106
1422.0 0.000703 1305.67004 1373.69177
1426.0 0.000701 1306.16785 1376.52710
1412.0 0.000708 1306.66846 1380.33032
1405.0 0.000712 1307.17188 1385.28235
1415.0 0.000707 1307.67773 1391.64185
1366.0 0.000732 1308.18652 1399.74341
1436.0 0.000696 1308.69727 1409.98804
1456.0 0.000687 1309.21069 1422.81738
1448.0 0.000691 1309.72607 1438.67712
1439.0 0.000695 1310.24390 1457.95618
1492.0 0.000670 1310.76331 1480.91394
1491.0 0.000671 1311.28516 1507.57825
1460.0 0.000685 1311.80835 1537.62476
1600.0 0.000625 1312.33350 1570.16516
1674.0 0.000597 1312.86011 1603.51514
1620.0 0.000617 1313.38818 1635.00342
1683.0 0.000594 1313.91797 1661.11450
1717.0 0.000582 1314.44873 1678.30969
1682.0 0.000595 1314.98071 1684.37524
1731.0 0.000578 1315.51367 1679.33301
1677.0 0.000596 1316.04785 1665.09326
1629.0 0.000614 1316.58264 1644.32898
1574.0 0.000635 1317.11816 1619.66638
1634.0 0.000612 1317.65430 1593.45886
1629.0 0.000614 1318.19092 1567.73828
1556.0 0.000643 1318.72827 1544.08105
1516.0 0.000660 1319.26550 1523.51184
1535.0 0.000651 1319.80310 1506.14673
1456.0 0.000687 1320.34070 1492.87683
1468.0 0.000681 1320.87830 1483.15808
1395.0 0.000717 1321.41589 1476.69666
1518.0 0.000659 1321.95288 1473.13513
1509.0 0.000663 1322.48975 1472.11731
1456.0 0.000687 1323.02612 1473.32275
1491.0 0.000671 1323.56189 1476.49329
1449.0 0.000690 1324.09668 1481.43750
1523.0 0.000657 1324.63098 1488.04065
1474.0 0.000678 1325.16406 1496.25427
1468.0 0.000681 1325.69629 1506.09802
1555.0 0.000643 1326.22729 1517.66211
1480.0 0.000676 1326.75696 1531.12744
1509.0 0.000663 1327.28552 1546.80615
1583.0 0.000632 1327.81226 1565.18140
1659.0 0.000603 1328.33752 1586.93811
1649.0 0.000606 1328.86108 1612.97791
1518.0 0.000659 1329.38293 1644.45691
1668.0 0.000600 1329.90271 1682.84412
1749.0 0.000572 1330.42029 1729.99402
1802.0 0.000555 1330.93591 1788.19556
1842.0 0.000543 1331.44934 1860.52332
1959.0 0.000510 1331.96045 1949.29895
2024.0 0.000494 1332.46875 2058.18970
2164.0 0.000462 1332.97485 2190.71729
2354.0 0.000425 1333.47803 2350.60376
2493.0 0.000401 1333.97839 2541.47119
2770.0 0.000361 1334.47595 2765.94043
2955.0 0.0003384 1334.97046 3024.17163
3271.0 0.0003057 1335.46216 3312.04785
3528.0 0.0002834 1335.95032 3619.00293
3840.0 0.0002604 1336.43530 3925.48877
4067.0 0.0002459 1336.91675 4201.15674
4294.0 0.0002329 1337.39490 4406.84326
4331.0 0.0002309 1337.86926 4504.37256
4294.0 0.0002329 1338.33997 4472.11719
4209.0 0.0002376 1338.80688 4316.46973
4102.0 0.0002438 1339.26990 4068.24878
3780.0 0.0002646 1339.72900 3767.74658
3455.0 0.0002894 1340.18384 3450.74780
3168.0 0.0003157 1340.63464 3143.28784
2941.0 0.0003400 1341.08105 2860.95483
2539.0 0.000394 1341.52332 2611.97144
2399.0 0.000417 1341.96082 2399.37646
2229.0 0.000449 1342.39380 2222.74316
2115.0 0.000473 1342.82239 2079.39282
2001.0 0.000500 1343.24597 1965.32849
1997.0 0.000501 1343.66504 1875.96204
1838.0 0.000544 1344.07898 1806.73853
1784.0 0.000561 1344.48804 1753.54053
1752.0 0.000571 1344.89209 1712.91565
1686.0 0.000593 1345.29089 1682.14319
1612.0 0.000620 1345.68445 1659.18030
1697.0 0.000589 1346.07275 1642.55371
1632.0 0.000613 1346.45581 1631.23181
1679.0 0.000596 1346.83337 1624.49463
1645.0 0.000608 1347.20520 1621.80188
1627.0 0.000615 1347.57166 1622.68958
1614.0 0.000620 1347.93250 1626.63220
1612.0 0.000620 1348.28735 1632.95789
1644.0 0.000608 1348.63647 1640.69543
1663.0 0.000601 1348.97986 1648.47180
1712.0 0.000584 1349.31714 1654.53894
1718.0 0.000582 1349.64868 1657.10181
1699.0 0.000589 1349.97388 1654.95520
1618.0 0.000618 1350.29321 1648.04907
1660.0 0.000602 1350.60620 1637.48315
1554.0 0.000644 1350.91309 1624.94507
1625.0 0.000615 1351.21350 1612.06165
1596.0 0.000627 1351.50757 1600.06873
1568.0 0.000638 1351.79553 1590.15002
1608.0 0.000622 1352.07690 1582.01672
1576.0 0.000635 1352.35181 1576.27991
1546.0 0.000647 1352.62000 1573.02637
1516.0 0.000660 1352.88184 1572.25586
1583.0 0.000632 1353.13708 1573.93091
1606.0 0.000623 1353.38550 1578.02380
1540.0 0.000649 1353.62732 1584.55554
1629.0 0.000614 1353.86243 1593.64697
1642.0 0.000609 1354.09082 1605.56396
1587.0 0.000630 1354.31238 1620.77673
1579.0 0.000633 1354.52698 1640.02100
1657.0 0.000604 1354.73486 1664.37085
1641.0 0.000609 1354.93591 1695.30481
1660.0 0.000602 1355.13000 1734.75952
1699.0 0.000589 1355.31714 1785.14612
1780.0 0.000562 1355.49731 1849.30420
1799.0 0.000556 1355.67053 1930.37048
2013.0 0.000497 1355.83679 2031.54639
2076.0 0.000482 1355.99597 2155.75366
2199.0 0.000455 1356.14832 2305.18457
2351.0 0.000425 1356.29346 2480.72876
2587.0 0.000387 1356.43176 2681.23462
2908.0 0.0003439 1356.56299 2902.55103
3129.0 0.0003196 1356.68689 3135.83765
3376.0 0.0002962 1356.80408 3366.22827
3763.0 0.0002657 1356.91418 3571.60571
3933.0 0.0002543 1357.01721 3724.66528
4004.0 0.0002498 1357.11304 3800.11401
3942.0 0.0002537 1357.20215 3785.23560
3788.0 0.0002640 1357.28418 3686.35254
3742.0 0.0002672 1357.35901 3525.30273
3498.0 0.0002859 1357.42700 3329.13721
3231.0 0.0003095 1357.48792 3121.20264
2927.0 0.0003416 1357.54199 2917.64551
2764.0 0.000362 1357.58911 2728.08472
2620.0 0.000382 1357.62915 2557.80127
2356.0 0.000424 1357.66235 2409.61572
2264.0 0.000442 1357.68884 2284.85547
2226.0 0.000449 1357.70837 2183.66040
2121.0 0.000471 1357.72119 2105.19507
2061.0 0.000485 1357.72693 2047.89661
2067.0 0.000484 1357.72620 2010.41162
1970.0 0.000508 1357.71863 1991.36499
1947.0 0.000514 1357.70447 1990.17822
1998.0 0.000501 1357.68359 2007.20081
1953.0 0.000512 1357.65613 2043.83777
2018.0 0.000496 1357.62207 2102.56104
2018.0 0.000496 1357.58167 2186.79370
2333.0 0.000429 1357.53467 2300.65015
2337.0 0.000428 1357.48132 2448.50830
2529.0 0.000395 1357.42163 2634.42310
2747.0 0.000364 1357.35559 2861.38452
2945.0 0.0003396 1357.28320 3130.30396
3329.0 0.0003004 1357.20471 3439.17383
3692.0 0.0002709 1357.12012 3780.97168
4205.0 0.0002378 1357.02954 4141.77002
4482.0 0.0002231 1356.93274 4497.99268
4742.0 0.0002109 1356.83020 4814.75977
5035.0 0.0001986 1356.72168 5048.64648
5189.0 0.0001927 1356.60742 5158.37842
5137.0 0.0001947 1356.48730 5121.25195
4974.0 0.0002010 1356.36169 4944.41748
4684.0 0.0002135 1356.23035 4661.04785
4351.0 0.0002298 1356.09363 4314.95557
3982.0 0.0002511 1355.95142 3946.11694
3654.0 0.0002737 1355.80371 3584.00146
3310.0 0.0003021 1355.65088 3247.36621
3094.0 0.0003232 1355.49292 2946.58398
2694.0 0.000371 1355.32983 2686.10059
2444.0 0.000409 1355.16150 2466.31152
2421.0 0.000413 1354.98853 2284.92310
2201.0 0.000454 1354.81055 2137.96973
2064.0 0.000484 1354.62793 2020.70068
1979.0 0.000505 1354.44055 1927.94788
1889.0 0.000529 1354.24866 1854.98914
1834.0 0.000545 1354.05225 1797.58630
1762.0 0.000568 1353.85156 1752.19019
1738.0 0.000575 1353.64648 1715.97705
1669.0 0.000599 1353.43726 1686.79138
1682.0 0.000595 1353.22400 1663.05078
1567.0 0.000638 1353.00684 1643.64294
1559.0 0.000641 1352.78552 1627.81873
1653.0 0.000605 1352.56079 1615.11646
1566.0 0.000639 1352.33228 1605.29114
1544.0 0.000648 1352.10022 1598.27319
1573.0 0.000636 1351.86450 1594.12781
1535.0 0.000651 1351.62573 1592.92493
1629.0 0.000614 1351.38367 1595.09875
1652.0 0.000605 1351.13843 1600.81396
1645.0 0.000608 1350.89038 1610.31873
1561.0 0.000641 1350.63904 1623.74402
1561.0 0.000641 1350.38525 1641.09412
1634.0 0.000612 1350.12878 1662.10864
1616.0 0.000619 1349.86975 1686.14355
1674.0 0.000597 1349.60803 1711.99719
1746.0 0.000573 1349.34436 1737.70715
1766.0 0.000566 1349.07837 1760.41785
1796.0 0.000557 1348.81030 1776.72864
1749.0 0.000572 1348.54016 1783.53479
1751.0 0.000571 1348.26831 1779.20166
1797.0 0.000556 1347.99487 1764.46472
1703.0 0.000587 1347.71960 1742.02319
1662.0 0.000602 1347.44287 1715.34375
1664.0 0.000601 1347.16479 1687.56543
1617.0 0.000618 1346.88562 1661.00989
1708.0 0.000585 1346.60535 1637.18005
1625.0 0.000615 1346.32397 1616.95056
1531.0 0.000653 1346.04175 1600.76563
1624.0 0.000616 1345.75879 1588.79419
1543.0 0.000648 1345.47534 1581.05103
1597.0 0.000626 1345.19116 1577.48792
1609.0 0.000622 1344.90674 1578.09900
1571.0 0.000637 1344.62207 1582.99902
1628.0 0.000614 1344.33728 1592.51123
1649.0 0.000606 1344.05249 1607.24036
1588.0 0.000630 1343.76770 1628.13879
1593.0 0.000628 1343.48328 1656.54602
1701.0 0.000588 1343.19922 1694.19019
1673.0 0.000598 1342.91565 1743.14636
1775.0 0.000563 1342.63257 1805.72339
1783.0 0.000561 1342.35034 1884.28528
1819.0 0.000550 1342.06885 1980.98938
2009.0 0.000498 1341.78845 2097.47217
2164.0 0.000462 1341.50903 2234.37109
2250.0 0.000444 1341.23083 2390.88965
2468.0 0.000405 1340.95410 2564.49487
2752.0 0.000363 1340.67871 2748.05322
2999.0 0.0003334 1340.40479 2931.41772
3147.0 0.0003178 1340.13257 3098.61572
3229.0 0.0003097 1339.86230 3229.07227
3323.0 0.0003009 1339.59387 3301.80835
3384.0 0.0002955 1339.32727 3302.86255
3236.0 0.0003090 1339.06299 3231.77271
3171.0 0.0003154 1338.80090 3101.80444
2905.0 0.0003442 1338.54126 2933.72754
2794.0 0.000358 1338.28381 2748.28882
2659.0 0.000376 1338.02917 2561.77417
2443.0 0.000409 1337.77722 2385.09399
2330.0 0.000429 1337.52795 2224.64844
2020.0 0.000495 1337.28174 2083.57788
1934.0 0.000517 1337.03821 1962.76904
1917.0 0.000522 1336.79797 1861.58765
1759.0 0.000569 1336.56091 1778.41797
1694.0 0.000590 1336.32715 1711.07703
1716.0 0.000583 1336.09668 1657.14575
1692.0 0.000591 1335.86975 1614.21814
1561.0 0.000641 1335.64648 1580.07715
1587.0 0.000630 1335.42688 1552.80029
1545.0 0.000647 1335.21082 1530.79993
1563.0 0.000640 1334.99878 1512.81812
1576.0 0.000635 1334.79065 1497.89233
1412.0 0.000708 1334.58667 1485.30444
1504.0 0.000665 1334.38647 1474.52905
1460.0 0.000685 1334.19067 1465.18579
1413.0 0.000708 1333.99927 1456.99536
1386.0 0.000722 1333.81201 1449.75671
1466.0 0.000682 1333.62915 1443.20337
1454.0 0.000688 1333.45081 1437.44531
1420.0 0.000704 1333.27710 1432.27759
1474.0 0.000678 1333.10803 1427.62683
1510.0 0.000662 1332.94348 1423.40161
1410.0 0.000709 1332.78381 1419.61145
1437.0 0.000696 1332.62915 1416.18433
1411.0 0.000709 1332.47925 1413.08423
1403.0 0.000713 1332.33423 1410.28101
1402.0 0.000713 1332.19409 1407.74780
1450.0 0.000690 1332.05920 1405.46216
1401.0 0.000714 1331.92932 1403.40601
1478.0 0.000677 1331.80469 1401.56238
1417.0 0.000706 1331.68494 1399.91772
1434.0 0.000697 1331.57068 1398.46082
1422.0 0.000703 1331.46179 1397.18176
1424.0 0.000702 1331.35815 1396.07385
1376.0 0.000727 1331.25964 1395.12988
1436.0 0.000696 1331.16675 1394.34705
1397.0 0.000716 1331.07922 1393.72131
1351.0 0.000740 1330.99707 1393.25220
1373.0 0.000728 1330.92041 1392.93994
1427.0 0.000701 1330.84924 1392.78638
1449.0 0.000690 1330.78357 1392.79150
1394.0 0.000717 1330.72351 1392.96716
1367.0 0.000732 1330.66870 1393.31689
1433.0 0.000698 1330.61975 1393.84973
1417.0 0.000706 1330.57629 1394.57813
1398.0 0.000715 1330.53833 1395.51624
1413.0 0.000708 1330.50586 1396.68127
1403.0 0.000713 1330.47913 1398.09583
1441.0 0.000694 1330.45789 1399.78601
1354.0 0.000739 1330.44214 1401.78735
1462.0 0.000684 1330.43201 1404.14172
1414.0 0.000707 1330.42725 1406.90784
1399.0 0.000715 1330.42810 1410.12183
1440.0 0.000694 1330.43457 1413.96594
1388.0 0.000720 1330.44641 1418.54102
1391.0 0.000719 1330.46350 1424.04297
1455.0 0.000687 1330.48621 1430.74939
1446.0 0.000692 1330.51440 1438.98975
1472.0 0.000679 1330.54785 1449.24438
1391.0 0.000719 1330.58655 1462.10693
1465.0 0.000683 1330.63074 1478.30554
1529.0 0.000654 1330.68005 1498.69775
1503.0 0.000665 1330.73462 1522.83716
1473.0 0.000679 1330.79419 1554.52979
1538.0 0.000650 1330.85901 1593.31848
1591.0 0.000629 1330.92883 1640.00305
1733.0 0.000577 1331.00378 1695.08752
1725.0 0.000580 1331.08337 1758.60071
1763.0 0.000567 1331.16797 1829.97046
1939.0 0.000516 1331.25757 1907.28711
2012.0 0.000497 1331.35181 1987.49573
2152.0 0.000465 1331.45056 2065.50513
2182.0 0.000458 1331.55408 2134.08887
2314.0 0.000432 1331.66223 2184.55151
2314.0 0.000432 1331.77466 2208.84399
2337.0 0.000428 1331.89148 2202.56055
2274.0 0.000440 1332.01257 2166.96851
2168.0 0.000461 1332.13794 2108.41187
2147.0 0.000466 1332.26746 2035.56384
2044.0 0.000489 1332.40088 1956.66052
1932.0 0.000518 1332.53821 1878.78674
1876.0 0.000533 1332.67932 1804.66516
1731.0 0.000578 1332.82434 1737.52515
1751.0 0.000571 1332.97290 1678.59546
1590.0 0.000629 1333.12488 1628.23108
1596.0 0.000627 1333.28052 1586.19226
1534.0 0.000652 1333.43933 1551.85046
1546.0 0.000647 1333.60144 1524.34680
1522.0 0.000657 1333.76636 1502.72241
1490.0 0.000671 1333.93445 1486.01917
1405.0 0.000712 1334.10547 1473.34827
1477.0 0.000677 1334.27905 1463.93030
1498.0 0.000668 1334.45532 1457.05261
1427.0 0.000701 1334.63403 1452.31592
1520.0 0.000658 1334.81519 1449.23901
1400.0 0.000714 1334.99854 1447.48682
1415.0 0.000707 1335.18396 1446.77942
1402.0 0.000713 1335.37134 1446.86804
1487.0 0.000672 1335.56079 1447.52832
1442.0 0.000693 1335.75171 1448.57800
1489.0 0.000672 1335.94421 1449.92078
1495.0 0.000669 1336.13818 1451.58789
1501.0 0.000666 1336.33337 1453.73889
1521.0 0.000657 1336.52991 1456.62634
1427.0 0.000701 1336.72729 1460.54956
1463.0 0.000684 1336.92554 1465.83716
1435.0 0.000697 1337.12451 1472.85754
1489.0 0.000672 1337.32422 1481.98486
1452.0 0.000689 1337.52417 1493.70386
1506.0 0.000664 1337.72424 1508.58997
1557.0 0.000642 1337.92480 1527.35559
1547.0 0.000646 1338.12512 1550.86462
1485.0 0.000673 1338.32532 1580.09802
1603.0 0.000624 1338.52502 1616.05225
1642.0 0.000609 1338.72449 1659.59888
1718.0 0.000582 1338.92322 1711.32227
1798.0 0.000556 1339.12122 1771.35132
1807.0 0.000553 1339.31812 1839.14917
1948.0 0.000513 1339.51392 1913.23755
2062.0 0.000485 1339.70874 1990.81274
2166.0 0.000462 1339.90186 2067.30420
2246.0 0.000445 1340.09351 2136.12524
2308.0 0.000433 1340.28333 2189.12549
2328.0 0.000430 1340.47144 2218.30127
2339.0 0.000428 1340.65747 2218.52295
2390.0 0.000418 1340.84119 2189.77466
2269.0 0.000441 1341.02271 2136.10327
2174.0 0.000460 1341.20154 2067.64966
2160.0 0.000463 1341.37793 1991.53284
1972.0 0.000507 1341.55139 1914.40796
1931.0 0.000518 1341.72180 1840.93555
1821.0 0.000549 1341.88916 1774.22046
1677.0 0.000596 1342.05334 1715.53467
1654.0 0.000605 1342.21399 1665.74243
1650.0 0.000606 1342.37085 1624.98767
1612.0 0.000620 1342.52429 1592.94434
1545.0 0.000647 1342.67371 1568.97217
1508.0 0.000663 1342.81921 1552.28015
1426.0 0.000701 1342.96045 1541.98315
1440.0 0.000694 1343.09741 1537.15100
1487.0 0.000672 1343.22998 1536.81738
1482.0 0.000675 1343.35779 1539.95300
1503.0 0.000665 1343.48083 1545.40393
1522.0 0.000657 1343.59912 1551.80994
1464.0 0.000683 1343.71240 1557.57385
1485.0 0.000673 1343.82056 1560.98303
1433.0 0.000698 1343.92322 1560.54749
1523.0 0.000657 1344.02063 1555.46252
1477.0 0.000677 1344.11255 1546.26672
1474.0 0.000678 1344.19861 1533.19604
1492.0 0.000670 1344.27905 1518.00696
1467.0 0.000682 1344.35339 1502.02380
1476.0 0.000678 1344.42175 1486.27612
1348.0 0.000742 1344.48401 1471.45569
1490.0 0.000671 1344.54004 1457.97437
1443.0 0.000693 1344.58948 1446.04150
1459.0 0.000685 1344.63257 1435.70959
1393.0 0.000718 1344.66919 1426.94568
1403.0 0.000713 1344.69897 1417.87769
1434.0 0.000697 1344.72180 1411.92139
1358.0 0.000736 1344.73792 1407.13635
1411.0 0.000709 1344.74707 1403.36670
1458.0 0.000686 1344.74915 1400.46191
1429.0 0.000700 1344.74390 1398.31958
1437.0 0.000696 1344.73157 1396.83264
1420.0 0.000704 1344.71191 1395.92725
1417.0 0.000706 1344.68481 1395.54797
1378.0 0.000726 1344.65015 1395.65540
1409.0 0.000710 1344.60803 1396.21729
1401.0 0.000714 1344.55835 1397.20337
1325.0 0.000755 1344.50085 1398.57422
1462.0 0.000684 1344.43567 1400.26990
1393.0 0.000718 1344.36279 1402.20166
1435.0 0.000697 1344.28210 1404.24011
1411.0 0.000709 1344.19360 1406.21655
1411.0 0.000709 1344.09705 1407.95691
1417.0 0.000706 1343.99255 1409.33386
1354.0 0.000739 1343.88013 1410.32556
1367.0 0.000732 1343.75977 1411.03027
1401.0 0.000714 1343.63135 1411.62720
1356.0 0.000737 1343.49475 1412.31091
1412.0 0.000708 1343.35022 1413.24438
1359.0 0.000736 1343.19775 1414.54700
1418.0 0.000705 1343.03711 1416.32056
1349.0 0.000741 1342.86829 1418.69421
1404.0 0.000712 1342.69153 1421.84583
1377.0 0.000726 1342.50671 1425.99707
1404.0 0.000712 1342.31396 1431.36609
1450.0 0.000690 1342.11304 1438.11719
1422.0 0.000703 1341.90417 1446.31995
1471.0 0.000680 1341.68738 1455.91345
1460.0 0.000685 1341.46277 1466.66663
1490.0 0.000671 1341.23010 1478.13013
1491.0 0.000671 1340.98975 1489.96252
1531.0 0.000653 1340.74146 1500.36829
1481.0 0.000675 1340.48560 1508.43518
1537.0 0.000651 1340.22192 1512.92920
1515.0 0.000660 1339.95081 1512.88647
1589.0 0.000629 1339.67212 1508.54895
1450.0 0.000690 1339.38599 1500.50977
1440.0 0.000694 1339.09253 1489.98743
1453.0 0.000688 1338.79150 1478.27100
1422.0 0.000703 1338.48364 1466.43982
1416.0 0.000706 1338.16846 1455.26929
1385.0 0.000722 1337.84656 1445.25647
1476.0 0.000678 1337.51733 1436.67749
1461.0 0.000684 1337.18176 1429.64624
1405.0 0.000712 1336.83923 1424.15076
1365.0 0.000733 1336.49023 1420.08264
1388.0 0.000720 1336.13501 1417.24841
1428.0 0.000700 1335.77332 1415.38062
1453.0 0.000688 1335.40576 1414.15540
1383.0 0.000723 1335.03174 1413.22693
1373.0 0.000728 1334.65222 1412.28699
1385.0 0.000722 1334.26685 1411.13892
1341.0 0.000746 1333.87622 1409.73889
1445.0 0.000692 1333.48010 1408.17871
1408.0 0.000710 1333.07849 1406.62280
1378.0 0.000726 1332.67224 1405.24548
1389.0 0.000720 1332.26074 1404.19238
1356.0 0.000737 1331.84497 1403.57654
1347.0 0.000742 1331.42419 1403.47656
1423.0 0.000703 1330.99951 1403.95593
1345.0 0.000743 1330.57056 1405.06372
1470.0 0.000680 1330.13782 1406.84766
1401.0 0.000714 1329.70129 1409.36133
1376.0 0.000727 1329.26111 1412.67065
1391.0 0.000719 1328.81787 1416.86743
1336.0 0.000749 1328.37146 1422.07678
1354.0 0.000739 1327.92212 1428.47534
1400.0 0.000714 1327.47009 1436.30469
1425.0 0.000702 1327.01587 1445.88916
1469.0 0.000681 1326.55920 1457.65894
1435.0 0.000697 1326.10071 1472.17371
1515.0 0.000660 1325.64050 1490.14246
1483.0 0.000674 1325.17883 1512.42737
1500.0 0.000667 1324.71594 1540.36963
1545.0 0.000647 1324.25183 1574.31873
1509.0 0.000663 1323.78735 1615.66443
1632.0 0.000613 1323.32214 1665.32043
1668.0 0.000600 1322.85681 1723.95129
1666.0 0.000600 1322.39148 1791.82117
1798.0 0.000556 1321.92615 1868.60461
1903.0 0.000525 1321.46167 1953.14673
2096.0 0.000477 1320.99792 2043.14795
2073.0 0.000482 1320.53528 2134.78735
2213.0 0.000452 1320.07373 2222.40381
2306.0 0.000434 1319.61401 2298.35181
2423.0 0.000413 1319.15601 2353.89844
2514.0 0.000398 1318.70044 2381.02930
2399.0 0.000417 1318.24707 2375.14795
2348.0 0.000426 1317.79626 2337.00537
2321.0 0.000431 1317.34875 2272.43530
2282.0 0.000438 1316.90417 2190.07495
2159.0 0.000463 1316.46326 2098.68555
2157.0 0.000464 1316.02600 2004.65637
1962.0 0.000510 1315.59290 1914.66284
1933.0 0.000517 1315.16418 1831.14465
1783.0 0.000561 1314.73999 1755.91675
1688.0 0.000592 1314.32080 1689.78015
1733.0 0.000577 1313.90662 1632.82104
1604.0 0.000623 1313.49805 1584.63135
1510.0 0.000662 1313.09485 1544.47107
1548.0 0.000646 1312.69800 1511.40918
1495.0 0.000669 1312.30725 1484.43042
1573.0 0.000636 1311.92310 1462.52991
1501.0 0.000666 1311.54578 1444.77051
1540.0 0.000649 1311.17505 1430.32642
1508.0 0.000663 1310.81213 1418.49695
1489.0 0.000672 1310.45667 1408.71045
1409.0 0.000710 1310.10889 1400.51611
1428.0 0.000700 1309.76917 1393.56873
1425.0 0.000702 1309.43799 1387.59326
1360.0 0.000735 1309.11536 1382.39673
1378.0 0.000726 1308.80151 1377.83093
1438.0 0.000695 1308.49658 1373.78589
1416.0 0.000706 1308.20117 1370.17773
1400.0 0.000714 1307.91528 1366.94312
1416.0 0.000706 1307.63904 1364.03162
1451.0 0.000689 1307.37280 1361.40344
1409.0 0.000710 1307.11682 1359.02661
1386.0 0.000722 1306.87134 1356.87280
1393.0 0.000718 1306.63635 1354.96301
1440.0 0.000694 1306.41235 1353.61633
1397.0 0.000716 1306.19934 1352.01465
1401.0 0.000714 1305.99756 1350.56384
1368.0 0.000731 1305.80713 1349.25122
1360.0 0.000735 1305.62830 1348.06738
1322.0 0.000756 1305.46130 1347.00183
1386.0 0.000722 1305.30627 1346.04688
1324.0 0.000755 1305.16345 1345.19556
1335.0 0.000749 1305.03284 1344.44116
1331.0 0.000751 1304.91443 1343.77820
1381.0 0.000724 1304.80872 1343.20264
1351.0 0.000740 1304.71570 1342.70935
1390.0 0.000719 1304.63550 1342.29663
1361.0 0.000735 1304.56812 1341.95935
1317.0 0.000759 1304.51392 1341.69617
1352.0 0.000740 1304.47278 1341.50488
1335.0 0.000749 1304.44495 1341.38416
1306.0 0.000766 1304.43005 1341.33142
1350.0 0.000741 1304.42896 1341.34607
1344.0 0.000744 1304.44116 1341.42712
1364.0 0.000733 1304.46692 1341.57507
1348.0 0.000742 1304.50610 1341.78918
1418.0 0.000705 1304.55896 1342.06885
1362.0 0.000734 1304.62537 1342.41589
1397.0 0.000716 1304.70557 1342.82983
1377.0 0.000726 1304.79907 1343.31213
1328.0 0.000753 1304.90649 1343.86438
1392.0 0.000718 1305.02747 1344.48718
1309.0 0.000764 1305.16199 1345.18396
1272.0 0.000786 1305.31006 1345.95557
1355.0 0.000738 1305.47168 1346.80542
1347.0 0.000742 1305.64685 1347.73645
1284.0 0.000779 1305.83533 1348.75220
1388.0 0.000720 1306.03699 1349.85620
1330.0 0.000752 1306.25208 1351.05457
1340.0 0.000746 1306.48022 1352.35107
1338.0 0.000747 1306.72144 1353.75330
1333.0 0.000750 1306.97534 1355.26721
1356.0 0.000737 1307.24219 1356.90198
1295.0 0.000772 1307.52173 1358.66772
1390.0 0.000719 1307.81360 1360.58093
1337.0 0.000748 1308.11780 1362.64478
1443.0 0.000693 1308.43396 1364.88269
1394.0 0.000717 1308.76221 1367.31519
1362.0 0.000734 1309.10205 1369.96570
1297.0 0.000771 1309.45361 1372.86487
1329.0 0.000752 1309.81616 1376.04749
1392.0 0.000718 1310.19006 1379.55444
1391.0 0.000719 1310.57458 1383.43225
1376.0 0.000727 1310.96973 1387.73364
1457.0 0.000686 1311.37488 1392.51697
1392.0 0.000718 1311.79016 1397.84509
1401.0 0.000714 1312.21533 1403.78662
1360.0 0.000735 1312.64954 1410.41431
1395.0 0.000717 1313.09290 1417.43433
1417.0 0.000706 1313.54504 1425.66650
1445.0 0.000692 1314.00562 1434.81824
1477.0 0.000677 1314.47412 1444.96375
1484.0 0.000674 1314.95032 1456.16833
1440.0 0.000694 1315.43384 1468.48352
1523.0 0.000657 1315.92419 1481.95532
1506.0 0.000664 1316.42126 1496.65955
1564.0 0.000639 1316.92432 1512.75891
1537.0 0.000651 1317.43298 1530.57068
1573.0 0.000636 1317.94702 1550.59033
1603.0 0.000624 1318.46606 1573.46191
1579.0 0.000633 1318.98926 1599.90833
1645.0 0.000608 1319.51636 1630.65930
1648.0 0.000607 1320.04724 1666.39697
1676.0 0.000597 1320.58081 1707.70728
1677.0 0.000596 1321.11731 1755.02039
1783.0 0.000561 1321.65527 1808.52454
1721.0 0.000581 1322.19531 1868.63232
1852.0 0.000540 1322.73608 1933.95093
1928.0 0.000519 1323.27783 2004.61670
1996.0 0.000501 1323.81909 2080.63135
2101.0 0.000476 1324.35986 2162.72339
2154.0 0.000464 1324.90002 2252.30054
2198.0 0.000455 1325.43823 2350.92725
2270.0 0.000441 1325.97449 2459.51440
2478.0 0.000404 1326.50793 2577.49707
2660.0 0.000376 1327.03845 2702.13086
2831.0 0.000353 1327.56494 2827.81738
2905.0 0.0003442 1328.08704 2945.73389
3101.0 0.0003225 1328.60425 3044.11572
2998.0 0.0003336 1329.11597 3109.92163
3211.0 0.0003114 1329.62195 3132.08691
3101.0 0.0003225 1330.12097 3105.29395
3024.0 0.0003307 1330.61292 3032.06738
2934.0 0.0003408 1331.09692 2921.71069
2836.0 0.000353 1331.57275 2786.90430
2688.0 0.000372 1332.03955 2640.16699
2486.0 0.000402 1332.49670 2491.68481
2326.0 0.000430 1332.94397 2348.74146
2189.0 0.000457 1333.38037 2216.02539
2024.0 0.000494 1333.80566 2096.21924
1930.0 0.000518 1334.21887 1990.55457
1842.0 0.000543 1334.61987 1899.23059
1800.0 0.000556 1335.00781 1821.72205
1740.0 0.000575 1335.38232 1757.02002
1699.0 0.000589 1335.74231 1703.81616
1697.0 0.000589 1336.08801 1660.65845
1582.0 0.000632 1336.41846 1626.07336
1588.0 0.000630 1336.73303 1598.65625
1536.0 0.000651 1337.03125 1576.75342
1536.0 0.000651 1337.31274 1560.00732
1599.0 0.000625 1337.57678 1547.08289
1586.0 0.000631 1337.82288 1537.20850
1614.0 0.000620 1338.05078 1529.62610
1544.0 0.000648 1338.25952 1523.77161
1479.0 0.000676 1338.44897 1519.10706
1562.0 0.000640 1338.61877 1515.15088
1418.0 0.000705 1338.76807 1511.50891
1599.0 0.000625 1338.89648 1507.92444
1499.0 0.000667 1339.00378 1504.32214
1550.0 0.000645 1339.08948 1500.79858
1537.0 0.000651 1339.15320 1497.57642
1518.0 0.000659 1339.19421 1494.92981
1613.0 0.000620 1339.21265 1493.14404
1542.0 0.000649 1339.20776 1492.49622
1649.0 0.000606 1339.17932 1493.24255
1562.0 0.000640 1339.12695 1495.65747
1514.0 0.000661 1339.05042 1500.02649
1620.0 0.000617 1338.94946 1506.64856
1574.0 0.000635 1338.82373 1515.83533
1514.0 0.000661 1338.67273 1527.89954
1588.0 0.000630 1338.49670 1543.07056
1610.0 0.000621 1338.29504 1561.72339
1568.0 0.000638 1338.06787 1583.97351
1633.0 0.000612 1337.81470 1609.87085
1618.0 0.000618 1337.53552 1639.30322
1663.0 0.000601 1337.23022 1671.91846
1747.0 0.000572 1336.89880 1707.03503
1771.0 0.000565 1336.54102 1743.52307
1809.0 0.000553 1336.15674 1779.69946
1827.0 0.000547 1335.74609 1813.31982
1884.0 0.000531 1335.30896 1841.80774
1823.0 0.000549 1334.84570 1862.82349
1878.0 0.000532 1334.35559 1875.06677
1872.0 0.000534 1333.83960 1878.91064
1869.0 0.000535 1333.29724 1876.45032
1916.0 0.000522 1332.72913 1870.92297
1846.0 0.000542 1332.13489 1865.87573
1813.0 0.000552 1331.51489 1864.50464
1835.0 0.000545 1330.86951 1869.31763
1841.0 0.000543 1330.19885 1882.05188
1874.0 0.000534 1329.50317 1903.69458
1945.0 0.000514 1328.78259 1934.49841
1956.0 0.000511 1328.03809 1973.94336
1938.0 0.000516 1327.26917 2020.62280
2015.0 0.000496 1326.47681 2072.06006
2100.0 0.000476 1325.66150 2124.50098
2142.0 0.000467 1324.82288 2173.20288
2171.0 0.000461 1323.96252 2211.39209
2190.0 0.000457 1323.07983 2233.34473
2196.0 0.000455 1322.17627 2234.57837
2176.0 0.000460 1321.25183 2213.64551
2118.0 0.000472 1320.30750 2172.62451
2117.0 0.000472 1319.34375 2116.19019
1952.0 0.000512 1318.36072 2050.05396
1972.0 0.000507 1317.35999 1979.65173
1895.0 0.000528 1316.34155 1909.02087
1814.0 0.000551 1315.30676 1841.25464
1707.0 0.000586 1314.25549 1778.28223
1758.0 0.000569 1313.18945 1721.24695
1676.0 0.000597 1312.10876 1670.67871
1603.0 0.000624 1311.01501 1626.68445
1672.0 0.000598 1309.90845 1589.05359
1600.0 0.000625 1308.78992 1557.35999
1513.0 0.000661 1307.66101 1531.04358
1492.0 0.000670 1306.52161 1509.47424
1490.0 0.000671 1305.37366 1492.20190
1505.0 0.000664 1304.21741 1478.24817
1535.0 0.000651 1303.05469 1467.25916
1432.0 0.000698 1301.88538 1458.77759
1430.0 0.000699 1300.71167 1452.44409
1439.0 0.000695 1299.53418 1447.99402
1430.0 0.000699 1298.35352 1445.19690
1476.0 0.000678 1297.17151 1444.11963
1465.0 0.000683 1295.98840 1444.72473
1498.0 0.000668 1294.80627 1447.13892
1467.0 0.000682 1293.62537 1451.58472
1461.0 0.000684 1292.44763 1458.38464
1434.0 0.000697 1291.27368 1467.94983
1470.0 0.000680 1290.10425 1480.78040
1501.0 0.000666 1288.94165 1497.44568
1521.0 0.000657 1287.78577 1518.55701
1489.0 0.000672 1286.63892 1544.80017
1485.0 0.000673 1285.50098 1576.61670
1530.0 0.000654 1284.37439 1614.54700
1611.0 0.000621 1283.25928 1658.88733
1699.0 0.000589 1282.15759 1709.66907
1751.0 0.000571 1281.06995 1766.54773
1831.0 0.000546 1279.99719 1828.64124
1831.0 0.000546 1278.94128 1894.38098
1938.0 0.000516 1277.90234 1961.20020
2023.0 0.000494 1276.88220 2025.37085
2137.0 0.000468 1275.88135 2081.95898
2052.0 0.000487 1274.90125 2125.25781
2042.0 0.000490 1273.94238 2149.85474
2130.0 0.000469 1273.00635 2152.13940
2138.0 0.000468 1272.09375 2131.57373
2071.0 0.000483 1271.20532 2090.82690
2013.0 0.000497 1270.34229 2034.90625
1946.0 0.000514 1269.50500 1969.55969
1878.0 0.000532 1268.69482 1900.11572
1889.0 0.000529 1267.91211 1830.55652
1837.0 0.000544 1267.15796 1763.87134
1676.0 0.000597 1266.43262 1701.93250
1679.0 0.000596 1265.73657 1645.81616
1602.0 0.000624 1265.07092 1596.01147
1557.0 0.000642 1264.43567 1552.58655
1520.0 0.000658 1263.83154 1515.30945
1501.0 0.000666 1263.25842 1483.73853
1504.0 0.000665 1262.71753 1457.31213
1509.0 0.000663 1262.20825 1435.39648
1420.0 0.000704 1261.73132 1417.34680
1397.0 0.000716 1261.28638 1402.54578
1375.0 0.000727 1260.87378 1390.42822
1400.0 0.000714 1260.49341 1380.49963
1406.0 0.000711 1260.14490 1372.33997
1364.0 0.000733 1259.82813 1365.60657
1451.0 0.000689 1259.54309 1360.02319
1419.0 0.000705 1259.28918 1355.37427
1426.0 0.000701 1259.06592 1351.49390
1412.0 0.000708 1258.87268 1348.25732
1404.0 0.000712 1258.70898 1345.55542
1406.0 0.000711 1258.57397 1343.34778
1383.0 0.000723 1258.46692 1341.57690
1397.0 0.000716 1258.38647 1339.68811
1336.0 0.000749 1258.33215 1338.67114
1416.0 0.000706 1258.30261 1338.00549
1374.0 0.000728 1258.29651 1337.68518
1368.0 0.000731 1258.31262 1337.71497
1385.0 0.000722 1258.34937 1338.10645
1409.0 0.000710 1258.40540 1338.88013
1373.0 0.000728 1258.47925 1340.06433
1381.0 0.000724 1258.56873 1341.69287
1432.0 0.000698 1258.67224 1343.81006
1389.0 0.000720 1258.78796 1346.46143
1352.0 0.000740 1258.91382 1349.69983
1367.0 0.000732 1259.04773 1353.57898
1380.0 0.000725 1259.18713 1358.15479
1410.0 0.000709 1259.33032 1363.48340
1377.0 0.000726 1259.47461 1369.61792
1326.0 0.000754 1259.61768 1376.60767
1483.0 0.000674 1259.75671 1384.49536
1379.0 0.000725 1259.88965 1393.42603
1395.0 0.000717 1260.01318 1403.19275
1298.0 0.000770 1260.12524 1413.90466
1371.0 0.000729 1260.22241 1425.54529
1394.0 0.000717 1260.30237 1438.11304
1382.0 0.000724 1260.36218 1451.68140
1387.0 0.000721 1260.39893 1466.48279
1401.0 0.000714 1260.40930 1483.00085
1458.0 0.000686 1260.39099 1501.88599
1498.0 0.000668 1260.34094 1524.02917
1534.0 0.000652 1260.25610 1550.34729
1526.0 0.000655 1260.13367 1581.68872
1566.0 0.000639 1259.97083 1618.72900
1573.0 0.000636 1259.76489 1661.89734
1654.0 0.000605 1259.51306 1711.29761
1630.0 0.000613 1259.21289 1766.62073
1701.0 0.000588 1258.86157 1827.01953
1849.0 0.000541 1258.45728 1890.93628
1812.0 0.000552 1257.99719 1955.89746
2010.0 0.000498 1257.47986 2018.33459
2083.0 0.000480 1256.90295 2073.58008
2084.0 0.000480 1256.26514 2116.27490
2104.0 0.000475 1255.56494 2141.32715
2158.0 0.000463 1254.80127 2145.25781
2002.0 0.000500 1253.97339 2127.34253
2022.0 0.000495 1253.08069 2089.86328
2022.0 0.000495 1252.12354 2037.29932
1954.0 0.000512 1251.10144 1974.98889
1839.0 0.000544 1250.01599 1907.94666
1815.0 0.000551 1248.86816 1840.22046
1729.0 0.000578 1247.65918 1774.74451
1790.0 0.000559 1246.39233 1713.46631
1672.0 0.000598 1245.06946 1657.55835
1611.0 0.000621 1243.69543 1607.62280
1582.0 0.000632 1242.27332 1563.83936
1539.0 0.000650 1240.80945 1526.09058
1504.0 0.000665 1239.30896 1494.04834
1482.0 0.000675 1237.77795 1467.24695
1488.0 0.000672 1236.22571 1445.44373
1543.0 0.000648 1234.65955 1427.48499
1523.0 0.000657 1233.09045 1413.11853
1469.0 0.000681 1231.52795 1401.84375
1413.0 0.000708 1229.98560 1393.23108
1475.0 0.000678 1228.47559 1386.92944
1413.0 0.000708 1227.01392 1382.67688
1411.0 0.000709 1225.61584 1380.29980
1421.0 0.000704 1224.29919 1379.71387
1445.0 0.000692 1223.08411 1380.92419
1435.0 0.000697 1221.99084 1384.02148
1405.0 0.000712 1221.04297 1389.18835
1453.0 0.000688 1220.26501 1396.69592
1393.0 0.000718 1219.68420 1406.90698
1418.0 0.000705 1219.32947 1420.27283
1455.0 0.000687 1219.23206 1437.32642
1489.0 0.000672 1219.42578 1458.66846
1464.0 0.000683 1219.94714 1484.94653
1537.0 0.000651 1220.83447 1516.82629
1570.0 0.000637 1222.13000 1554.96399
1587.0 0.000630 1223.87781 1599.96484
1582.0 0.000632 1226.12683 1652.34155
1634.0 0.000612 1228.92603 1712.44116
1734.0 0.000577 1232.33069 1780.34644
1812.0 0.000552 1236.40027 1855.73865
1852.0 0.000540 1241.19348 1937.71338
1978.0 0.000506 1246.77942 2024.56934
2138.0 0.000468 1253.22363 2113.54443
2190.0 0.000457 1260.60498 2200.60986
2347.0 0.000426 1268.99634 2280.41626
2366.0 . . .
loop_
_refln_index_h
_refln_index_k
_refln_index_l
_refln_observed_status
_refln_F_squared_meas
_refln_F_squared_calc
_refln_phase_calc
_refln_d_spacing
_gsas_i100_meas
1 1 0 o 10660.113 10742.831 180.00 7.06524 12.02
0 0 1 o -321.601 384.399 180.00 5.06810 0.15
2 0 0 o 955.850 1140.052 0.00 4.99588 1.10
1 1 1 o 26804.170 26960.988 0.00 4.11815 26.21
2 0 1 o 1231.594 1227.172 180.00 3.55788 1.41
2 2 0 o 53.403 76.109 0.00 3.53262 0.88
2 1 1 o 94.490 64.216 0.00 3.35173 0.18
3 1 0 o 15691.282 15144.011 0.00 3.15967 8.12
2 2 1 o 186075.95 185584.38 180.00 2.89807 100.00
3 1 1 o 4916.585 4523.142 180.00 2.68127 2.61
0 0 2 o 97354.87 99536.13 0.00 2.53405 8.80
4 0 0 o 117011.89 118093.54 0.00 2.49794 21.81
3 2 1 o 4539.116 4368.193 0.00 2.43147 4.85
1 1 2 o 3108.312 3117.487 180.00 2.38527 0.46
3 3 0 o 19488.432 19454.873 180.00 2.35508 3.00
2 0 2 o 45.208 217.275 0.00 2.25995 0.04
4 0 1 o 4624.046 4702.833 180.00 2.24057 0.27
4 2 0 o 486.236 547.429 0.00 2.23423 0.23
2 1 2 o 551.295 506.611 0.00 2.20427 0.51
4 1 1 o 2642.973 2467.996 0.00 2.18628 2.26
3 3 1 o 1055.718 1032.225 0.00 2.13575 0.05
2 2 2 o 4738.169 4999.630 0.00 2.05907 0.22
4 2 1 o 70.528 86.114 180.00 2.04439 0.08
3 1 2 o 17389.070 16942.430 0.00 1.97683 7.99
5 1 0 o 4098.163 3999.640 180.00 1.95955 0.64
3 2 2 o 590.509 470.964 0.00 1.87008 0.37
4 3 1 o 240.168 244.423 180.00 1.85905 0.17
5 1 1 o 17121.563 17312.674 0.00 1.82769 6.64
4 0 2 o 118111.64 118591.26 0.00 1.77894 24.78
4 4 0 o 114616.34 114990.45 0.00 1.76631 11.91
4 1 2 o 53.826 54.495 180.00 1.75140 0.03
5 2 1 o 60.432 65.649 180.00 1.74233 0.03
3 3 2 o 22720.063 21949.180 180.00 1.72510 4.38
5 3 0 o 6047.597 5570.838 0.00 1.71357 0.85
0 0 3 o 2919.927 2779.272 180.00 1.68937 0.03
4 2 2 o 975.949 904.186 0.00 1.67586 0.56
4 4 1 o 994.422 1034.885 180.00 1.66792 0.03
6 0 0 o -10.979 6.315 0.00 1.66529 0.00
1 1 3 o 6343.889 6428.509 0.00 1.64305 0.78
5 3 1 o 10665.637 10762.773 180.00 1.62330 3.12
2 0 3 o 252.179 277.232 180.00 1.60035 0.07
6 0 1 o 1124.806 1143.223 180.00 1.58208 0.28
2 1 3 o 248.531 256.441 0.00 1.58021 0.12
6 2 0 o 5632.330 5682.482 0.00 1.57984 0.33
4 3 2 o 3.656 0.890 0.00 1.56914 0.00
6 1 1 o 60.867 111.234 180.00 1.56261 0.04
5 1 2 o -54.754 6.417 180.00 1.55014 0.13
2 2 3 o 83353.96 83173.22 180.00 1.52406 13.07
6 2 1 o 70001.05 70082.95 180.00 1.50826 21.16
5 2 2 o 321.239 290.205 0.00 1.49703 0.14
5 4 1 o 130.080 120.792 180.00 1.49136 0.06
3 1 3 o 4652.287 4650.636 180.00 1.48979 0.97
4 4 2 o 62165.01 61699.98 0.00 1.44904 8.72
3 2 3 o 419.656 448.760 180.00 1.44247 0.17
6 3 1 o 19.597 9.142 180.00 1.42905 0.01
5 5 0 o 2999.053 3228.013 0.00 1.41305 0.54
7 1 0 o 6700.952 6844.896 0.00 1.41305 0.68
5 3 2 o 1837.640 1829.493 0.00 1.41949 0.19
4 0 3 o 166.389 166.189 180.00 1.39938 0.13
6 0 2 o 231.775 231.293 180.00 1.39168 0.03
4 1 3 o 520.975 548.735 180.00 1.38586 0.24
6 4 0 o 3.456 4.448 0.00 1.38561 0.00
6 1 2 o 327.597 328.848 180.00 1.37837 0.12
3 3 3 o 120.096 74.371 0.00 1.37272 0.03
7 1 1 o 939.314 937.023 180.00 1.36113 0.06
5 5 1 o 19186.768 18974.070 0.00 1.36113 2.62
4 2 3 o 37.821 36.574 180.00 1.34752 0.03
6 2 2 o 296.531 331.652 0.00 1.34064 0.13
6 4 1 o 439.737 456.161 180.00 1.33656 0.19
5 4 2 o 0.426 0.424 0.00 1.32873 0.00
7 2 1 o 911.785 983.279 180.00 1.32476 0.36
7 3 0 o 21624.402 21580.275 180.00 1.31198 2.94
4 3 3 o 282.207 258.220 0.00 1.29013 0.10
6 3 2 o 81.978 91.094 0.00 1.28409 0.04
5 1 3 o 11492.123 11853.268 0.00 1.27951 2.67
7 3 1 o 129.966 145.965 180.00 1.27011 0.28
0 0 4 o 64078.41 66706.43 0.00 1.26702 1.98
1 1 4 o 3860.673 3843.862 180.00 1.24713 0.34
5 2 3 o 207.802 209.589 0.00 1.24915 0.08
8 0 0 o 34448.273 34601.926 0.00 1.24897 1.89
6 5 1 o 506.574 402.854 0.00 1.24041 0.18
7 1 2 o 11563.582 11435.187 0.00 1.23414 2.69
5 5 2 o 253.934 253.843 180.00 1.23414 0.00
2 0 4 o 151.580 115.815 0.00 1.22814 0.03
4 4 3 o 2403.958 2414.135 180.00 1.22086 0.06
2 1 4 o 124.889 147.136 180.00 1.21897 0.04
6 4 2 o 18.612 17.916 180.00 1.21573 0.00
8 0 1 o 983.374 984.365 180.00 1.21269 0.01
8 2 0 o 977.357 1056.765 0.00 1.21168 0.18
7 2 2 o 88.289 99.602 180.00 1.20683 0.03
8 1 1 o 27.512 24.663 180.00 1.20385 0.01
7 4 1 o 119.215 108.792 0.00 1.20385 0.05
5 3 3 o 3486.757 3339.304 180.00 1.20303 0.55
2 2 4 o 72.117 105.586 0.00 1.19263 0.09
6 0 3 o 501.796 677.235 180.00 1.18596 0.10
8 2 1 o 249.373 304.749 0.00 1.17847 0.05
6 1 3 o -0.259 0.029 0.00 1.17769 0.00
6 6 0 o 483.384 509.447 0.00 1.17754 0.01
3 1 4 o 2286.993 2372.625 0.00 1.17600 0.26
7 3 2 o 8257.791 8204.947 180.00 1.16509 1.71
7 5 0 o 3876.108 3859.285 0.00 1.16152 0.31
6 2 3 o 34902.113 34618.852 180.00 1.15389 7.63
3 2 4 o 16.095 15.550 180.00 1.15230 0.01
6 6 1 o 29808.701 29201.092 180.00 1.14699 3.20
5 4 3 o 5.058 4.620 0.00 1.14627 0.00
6 5 2 o 21.077 20.094 0.00 1.14203 0.01
8 3 1 o 9.308 10.089 180.00 1.13950 0.00
7 5 1 o 1746.357 1744.325 180.00 1.13217 0.19
4 0 4 o 39238.34 39149.68 0.00 1.12998 4.41
4 1 4 o 0.220 0.124 0.00 1.12282 0.00
8 0 2 o 35828.77 36280.86 0.00 1.12029 4.05
6 3 3 o 311.847 311.081 0.00 1.11724 0.10
8 4 0 o 23396.262 23342.525 0.00 1.11711 2.37
3 3 4 o 7006.511 6936.974 180.00 1.11580 0.72
7 4 2 o 1.462 1.443 0.00 1.11331 0.00
8 1 2 o 0.042 0.000 0.00 1.11331 0.00
9 1 0 o 20.392 203.058 0.00 1.10341 0.12
4 2 4 o 51.599 65.406 0.00 1.10214 0.03
8 2 2 o 693.430 748.524 0.00 1.09314 0.26
8 4 1 o 2309.609 2349.302 180.00 1.09093 0.13
5 5 3 o 8151.165 8077.439 0.00 1.08388 0.89
7 1 3 o 209.541 209.371 180.00 1.08388 0.00
9 1 1 o 8676.738 8566.082 0.00 1.07815 1.96
6 4 3 o 174.438 119.562 180.00 1.07134 0.07
4 3 4 o 28.109 22.215 180.00 1.07007 0.01
6 6 2 o 3257.887 3118.820 0.00 1.06788 0.17
7 2 3 o 79.520 71.305 0.00 1.06524 0.03
5 1 4 o 271.747 270.731 180.00 1.06398 0.00
8 3 2 o 16.753 17.055 180.00 1.06183 0.00
9 2 1 o 53.661 60.023 180.00 1.05980 0.02
7 6 1 o 6.928 8.033 0.00 1.05980 0.00
9 3 0 o 1367.788 1415.141 0.00 1.05322 0.08
7 5 2 o 3715.732 3707.496 0.00 1.05588 0.67
5 2 4 o 19.872 29.682 180.00 1.04633 0.01
8 5 1 o 11.721 12.790 0.00 1.03673 0.00
7 3 3 o -14.821 5.589 180.00 1.03620 0.08
9 3 1 o 3775.330 3756.968 180.00 1.03119 0.70
4 4 4 o 22840.369 22207.289 0.00 1.02954 2.53
8 4 2 o 19754.668 19592.908 0.00 1.02219 4.36
6 5 3 o 11.880 11.900 180.00 1.01988 0.01
5 3 4 o 2398.341 2409.579 0.00 1.01878 0.42
0 0 5 o 332.819 333.837 180.00 1.01362 0.00
9 1 2 o 84.186 83.099 180.00 1.01166 0.01
7 7 0 o 10017.317 10299.260 180.00 1.00932 0.65
6 0 4 o 20.933 21.196 180.00 1.00835 0.00
8 0 3 o 1983.732 1981.691 180.00 1.00430 0.07
1 1 5 o 2906.079 2905.417 0.00 1.00335 0.27
6 1 4 o 0.104 0.088 0.00 1.00325 0.00
7 6 2 o 124.953 114.278 0.00 0.99645 0.05
9 2 2 o 27.817 24.947 180.00 0.99645 0.01
8 1 3 o 134.936 146.682 0.00 0.99927 0.04
7 4 3 o 94.815 104.302 180.00 0.99927 0.03
10 0 0 o 1345.633 1456.797 180.00 0.99918 0.11
8 6 0 o 60.565 69.565 0.00 0.99918 0.02
9 4 1 o 394.532 443.259 0.00 0.99477 0.17
2 0 5 o 58.018 55.936 180.00 0.99338 0.02
7 7 1 o 486.789 463.103 180.00 0.98988 0.21
2 1 5 o 125.487 122.217 180.00 0.98851 0.06
6 2 4 o 1416.284 1411.747 0.00 0.98842 0.07
8 2 3 o 267.385 212.697 0.00 0.98461 0.08
5 4 4 o 14.596 12.255 0.00 0.98362 0.00
10 0 1 o 1121.317 1059.809 180.00 0.98031 0.24
8 6 1 o 31.442 30.893 0.00 0.98031 0.00
10 2 0 o 1723.450 1710.682 0.00 0.97977 0.06
8 5 2 o 17.784 17.900 180.00 0.97720 0.00
10 1 1 o 189.757 191.894 0.00 0.97562 0.08
2 2 5 o 21895.111 22014.389 180.00 0.97431 2.73
9 3 2 o 286.483 285.990 0.00 0.97256 0.01
9 5 0 o 209.745 198.018 0.00 0.97049 0.13
6 6 3 o 16688.873 16563.379 180.00 0.96602 2.08
3 1 5 o 744.673 742.353 180.00 0.96517 0.07
6 3 4 o 126.882 125.635 180.00 0.96509 0.04
10 2 1 o 13911.813 13945.110 180.00 0.96196 3.37
8 3 3 o 63.054 62.718 0.00 0.96154 0.02
7 5 3 o 1590.331 1614.126 180.00 0.95712 0.27
9 5 1 o 6413.672 6401.333 0.00 0.95317 1.81
3 2 5 o 1.050 0.941 0.00 0.95194 0.00
7 1 4 o 2937.670 2860.664 0.00 0.94334 0.69
5 5 4 o 264.433 225.112 0.00 0.94334 0.18
9 4 2 o 0.739 0.732 0.00 0.94183 0.00
10 3 1 o 37.217 35.820 0.00 0.94042 0.02
4 0 5 o 364.933 365.047 180.00 0.93924 0.01
7 7 2 o 5856.883 5653.653 180.00 0.93768 0.88
4 1 5 o 261.066 317.333 0.00 0.93512 0.11
6 4 4 o 0.863 4.177 0.00 0.93504 0.01
8 4 3 o 424.613 429.768 180.00 0.93181 0.02
3 3 5 o 130.509 131.849 0.00 0.93105 0.00
7 2 4 o 20.235 24.921 0.00 0.93097 0.01
10 0 2 o 175.776 183.772 180.00 0.92953 0.02
8 6 2 o 169.932 190.247 0.00 0.92953 0.11
10 4 0 o 158.933 175.520 180.00 0.92771 0.02
10 1 2 o 2.169 3.748 0.00 0.92553 0.00
8 7 1 o 61.734 62.008 0.00 0.92419 0.03
9 1 3 o 3809.273 3722.978 0.00 0.92381 1.09
4 2 5 o 1.172 0.395 180.00 0.92307 0.00
10 2 2 o 823.594 822.670 0.00 0.91384 0.03
10 4 1 o 408.527 431.679 180.00 0.91255 0.24
9 2 3 o 0.000 0.002 180.00 0.91219 0.00
7 6 3 o 4.809 5.287 0.00 0.91219 0.01
7 3 4 o 5245.420 5291.945 180.00 0.91140 1.79
9 6 1 o 62.425 53.860 0.00 0.90877 0.04
9 5 2 o 343.958 321.502 0.00 0.90629 0.44
11 1 0 o 4925.793 4977.935 0.00 0.90461 0.88
4 3 5 o 4.793 4.820 180.00 0.90398 0.01
5 1 5 o 2904.876 2889.695 0.00 0.90030 0.91
6 5 4 o 68.061 67.336 180.00 0.90024 0.03
8 5 3 o 0.574 0.388 0.00 0.89735 0.00
9 3 3 o 2847.369 2888.428 180.00 0.89376 0.94
10 3 2 o 101.521 108.531 180.00 0.89531 0.05
11 1 1 o 58.360 57.647 180.00 0.89054 0.02
