#------------------------------------------------------------------------------
#$Date: 2021-06-21 11:59:13 +0300 (Mon, 21 Jun 2021) $
#$Revision: 266606 $
#$URL: file:///home/coder/svn-repositories/cod/cif/1/56/36/1563637.cif $
#------------------------------------------------------------------------------
#
# This file is available in the Crystallography Open Database (COD),
# http://www.crystallography.net/
#
# All data on this site have been placed in the public domain by the
# contributors.
#
data_1563637
loop_
_publ_author_name
'Zubkov, Vladimir G.'
'Tarakina, Nadezda V.'
'Leonidov, Ivan I.'
'Tyutyunnik, Alexander P.'
'Surat, Ludmila L.'
'Melkozerova, Marina A.'
'Zabolotskaya, Elena V.'
'Kellerman, Dina G.'
_publ_section_title
;
 Synthesis and crystal structure of Ln2M2+Ge4O12, Ln=rare-earth element or
 Y; M=Ca, Mn, Zn
;
_journal_issue                   5
_journal_name_full               'Journal of Solid State Chemistry'
_journal_page_first              1186
_journal_page_last               1193
_journal_paper_doi               10.1016/j.jssc.2010.03.027
_journal_volume                  183
_journal_year                    2010
_chemical_formula_sum            'Ge2 O7 Tm2'
_chemical_formula_weight         595.04
_space_group_IT_number           92
_space_group_name_Hall           'P 4abw 2nw'
_space_group_name_H-M_alt        'P 41 21 2'
_symmetry_cell_setting           tetragonal
_symmetry_space_group_name_H-M   'P 41 21 2'
_cell_angle_alpha                90.0
_cell_angle_beta                 90.0
_cell_angle_gamma                90.0
_cell_formula_units_Z            4
_cell_length_a                   6.76415(18)
_cell_length_b                   6.76415
_cell_length_c                   12.2892(6)
_cell_volume                     562.28(3)
_diffrn_radiation_polarisn_ratio 0.8
_diffrn_radiation_probe          x-ray
_diffrn_radiation_wavelength     1.54056
_exptl_absorpt_correction_T_max  7.19854
_exptl_absorpt_correction_T_min  2.53486
_exptl_absorpt_process_details
;   GSAS Absorption/surface roughness correction: function number 4
 Flat plate transmission absorption correction
Terms =    -0.60008         0.0000    
Correction is refined.
;
_pd_calc_method                  'Rietveld Refinement'
_pd_meas_2theta_range_inc        0.02
_pd_meas_2theta_range_max        119.98
_pd_meas_2theta_range_min        5.0
_pd_meas_number_of_points        5750
_pd_proc_2theta_range_inc        0.02
_pd_proc_2theta_range_max        119.94002
_pd_proc_2theta_range_min        4.96002
_pd_proc_info_datetime           2010-02-27T12:19:49
_pd_proc_ls_background_function
;   GSAS Background function number 1 with 36 terms.
 Shifted Chebyshev function of 1st kind
      1:    2344.89     2:   -1723.64     3:    966.516     4:   -491.033    
      5:    113.355     6:    19.1886     7:   -55.8367     8:    31.7124    
      9:   -3.91557    10:   -28.6565    11:    24.0086    12:    7.46059    
     13:   -21.8846    14:    17.7881    15:   -3.84939    16:   -10.1489    
     17:    34.7978    18:   -25.1807    19:    6.61681    20:    21.3075    
     21:   -23.1767    22:    36.8867    23:   -20.4293    24:    4.29849    
     25:    15.4355    26:   -22.2083    27:    25.4699    28:   -15.1705    
     29:    5.80032    30:    12.5143    31:   -17.4617    32:    12.9886    
     33:   -4.86856    34:   -12.6641    35:    12.4290    36:   -9.25685    
;
_pd_proc_ls_prof_R_factor        0.0195
_pd_proc_ls_prof_wR_expected     0.0194
_pd_proc_ls_prof_wR_factor       0.0258
_pd_proc_number_of_points        5750
_refine_ls_R_Fsqd_factor         0.01942
_reflns_d_resolution_high        0.891
_reflns_d_resolution_low         6.962
_reflns_limit_h_max              11
_reflns_limit_h_min              0
_reflns_limit_k_max              7
_reflns_limit_k_min              0
_reflns_limit_l_max              14
_reflns_limit_l_min              0
_reflns_number_total             488
_cod_data_source_file            TM2MNGE4O12.cif
_cod_data_source_block           TM2MNGE4O12_phase_2
_cod_depositor_comments
;
The following automatic conversions were performed:

data item '_geom_angle_publ_flag' value 'N' was changed to 'n' in
accordance with the built-in table derived from the CIF Core
dictionary named 'cif_core.dic' version 2.4.5 last updated on
2014-11-21 (40 times).

data item '_geom_bond_publ_flag' value 'N' was changed to 'n' in
accordance with the built-in table derived from the CIF Core
dictionary named 'cif_core.dic' version 2.4.5 last updated on
2014-11-21 (30 times).

Automatic conversion script
Id: cif_fix_values 8369 2020-08-20 11:38:08Z andrius 
;
_cod_original_cell_volume        562.276(34)
_cod_database_code               1563637
_gsas_exptl_extinct_corr_t_min   1.00000
_gsas_exptl_extinct_corr_t_max   1.00000
loop_
_symmetry_equiv_pos_site_id
_symmetry_equiv_pos_as_xyz
1 +x,+y,+z
2 -y+1/2,+x+1/2,+z+1/4
3 -x,-y,+z+1/2
4 +y+1/2,-x+1/2,+z+3/4
5 -x+1/2,+y+1/2,-z+1/4
6 -y,-x,-z+1/2
7 +x+1/2,-y+1/2,-z+3/4
8 +y,+x,-z
loop_
_atom_site_type_symbol
_atom_site_label
_atom_site_fract_x
_atom_site_fract_y
_atom_site_fract_z
_atom_site_occupancy
_atom_site_thermal_displace_type
_atom_site_U_iso_or_equiv
_atom_site_symmetry_multiplicity
Tm Tm 0.8782 0.35 0.6351 1.0 Uiso 0.025 8
Ge Ge 0.4018 0.345 0.6291 1.0 Uiso 0.025 8
O O1 0.0635 0.3368 0.0712 1.0 Uiso 0.025 8
O O2 0.357 0.1889 0.2956 1.0 Uiso 0.025 8
O O3 0.4246 0.4717 0.1249 1.0 Uiso 0.025 8
O O4 0.696 0.696 0.0 1.0 Uiso 0.025 4
loop_
_atom_type_symbol
_atom_type_scat_dispersion_real
_atom_type_scat_dispersion_imag
_atom_type_scat_Cromer_Mann_a1
_atom_type_scat_Cromer_Mann_a2
_atom_type_scat_Cromer_Mann_a3
_atom_type_scat_Cromer_Mann_a4
_atom_type_scat_Cromer_Mann_b1
_atom_type_scat_Cromer_Mann_b2
_atom_type_scat_Cromer_Mann_b3
_atom_type_scat_Cromer_Mann_b4
_atom_type_scat_Cromer_Mann_c
_atom_type_scat_source
Mn 0.000 0.000 11.2819 5.34090 7.35730 0.34320 3.01930 17.8674 2.24410 83.7543
1.08960 International_Tables_Vol_C
Tm 0.000 0.000 28.1819 2.02859 15.8851 0.23885 15.1542 10.9975 2.98706 102.961
6.75621 International_Tables_Vol_C
Ge 0.000 0.000 16.0816 2.85090 6.37470 0.25160 3.70680 11.4468 3.68300 54.7625
2.13130 International_Tables_Vol_C
O 0.000 0.000 3.04850 13.2771 2.28680 5.70110 1.54630 0.32390 0.86700 32.9089
0.25080 International_Tables_Vol_C
loop_
_geom_angle_atom_site_label_1
_geom_angle_atom_site_label_2
_geom_angle_atom_site_label_3
_geom_angle
_geom_angle_site_symmetry_1
_geom_angle_site_symmetry_2
_geom_angle_site_symmetry_3
_geom_angle_publ_flag
O1 Tm O1 97.0250(16) 3_665 . 4_555 n
O1 Tm O1 132.67560(10) 3_665 . 7_555 n
O1 Tm O2 77.3003(14) 3_665 . 7_555 n
O1 Tm O2 87.1317(8) 3_665 . 8_656 n
O1 Tm O3 70.2381 3_665 . 3_665 n
O1 Tm O3 150.3649(9) 3_665 . 7_555 n
O1 Tm O1 79.6192(7) 4_555 . 7_555 n
O1 Tm O2 167.1032(6) 4_555 . 7_555 n
O1 Tm O2 75.0948(14) 4_555 . 8_656 n
O1 Tm O3 79.8972(8) 4_555 . 3_665 n
O1 Tm O3 108.2829(6) 4_555 . 7_555 n
O1 Tm O2 95.6099(10) 7_555 . 7_555 n
O1 Tm O2 135.1932(13) 7_555 . 8_656 n
O1 Tm O3 62.66280(20) 7_555 . 3_665 n
O1 Tm O3 68.81780(10) 7_555 . 7_555 n
O2 Tm O2 115.7128(9) 7_555 . 8_656 n
O2 Tm O3 87.26250(20) 7_555 . 3_665 n
O2 Tm O3 80.66370(20) 7_555 . 7_555 n
O2 Tm O3 143.7594(4) 8_656 . 3_665 n
O2 Tm O3 84.80840(20) 8_656 . 7_555 n
O3 Tm O3 128.3485 3_665 . 7_555 n
O1 Ge O2 111.6473(17) 7_555 . 8_556 n
O1 Ge O3 95.2009 7_555 . 3_665 n
O1 Ge O4 116.2432(7) 7_555 . 3_665 n
O2 Ge O3 124.0228(5) 8_556 . 3_665 n
O2 Ge O4 100.3872(24) 8_556 . 3_665 n
O3 Ge O4 110.4387(11) 3_665 . 3_665 n
Tm O1 Tm 100.2686(15) 2_544 . 3_664 n
Tm O1 Tm 93.2041(11) 2_544 . 7_455 n
Tm O1 Ge 124.79220(30) 2_544 . 7_455 n
Tm O1 Tm 104.1039(6) 3_664 . 7_455 n
Tm O1 Ge 129.4251(15) 3_664 . 7_455 n
Tm O1 Ge 95.7624(5) 7_455 . 7_455 n
Tm O2 Tm 105.3456(14) 7_455 . 8_546 n
Tm O2 Ge 129.5570(10) 7_455 . 8_556 n
Tm O2 Ge 125.0932(24) 8_546 . 8_556 n
Tm O3 Tm 112.3967 3_664 . 7_455 n
Tm O3 Ge 102.8342 3_664 . 3_664 n
Tm O3 Ge 144.7682 7_455 . 3_664 n
Ge O4 Ge 135.1734(21) 3_664 . 6_665 n
loop_
_geom_bond_atom_site_label_1
_geom_bond_atom_site_label_2
_geom_bond_distance
_geom_bond_site_symmetry_1
_geom_bond_site_symmetry_2
_geom_bond_publ_flag
Tm Tm 3.58545(12) . 2_645 n
Tm Tm 3.58545(12) . 4_564 n
Tm Tm 3.80893(10) . 5_646 n
Tm Tm 3.80893(10) . 5_656 n
Tm Tm 3.56939(11) . 6_666 n
Tm Ge 3.22346(9) . 1_555 n
Tm O1 2.29355(6) . 3_665 n
Tm O1 2.37723(10) . 4_555 n
Tm O1 2.53303(7) . 7_555 n
Tm O2 2.24078(10) . 7_555 n
Tm O2 2.26812(6) . 8_656 n
Tm O3 2.38019(6) . 3_665 n
Tm O3 2.20198(6) . 7_555 n
Ge Tm 3.22346(9) . 1_555 n
Ge O1 1.75544(4) . 7_555 n
Ge O2 1.71370(4) . 8_556 n
Ge O3 1.70845(5) . 3_665 n
Ge O4 1.74116(7) . 3_665 n
O1 Tm 2.37723(10) . 2_544 n
O1 Tm 2.29355(6) . 3_664 n
O1 Tm 2.53303(7) . 7_455 n
O1 Ge 1.75544(4) . 7_455 n
O2 Tm 2.24078(10) . 7_455 n
O2 Tm 2.26812(6) . 8_546 n
O2 Ge 1.71370(4) . 8_556 n
O3 Tm 2.38019(6) . 3_664 n
O3 Tm 2.20198(6) . 7_455 n
O3 Ge 1.70845(5) . 3_664 n
O4 Ge 1.74116(7) . 3_664 n
O4 Ge 1.74116(7) . 6_665 n
loop_
_pd_meas_counts_total
_pd_proc_ls_weight
_pd_proc_intensity_bkg_calc
_pd_calc_intensity_total
5527.0 0.0001809 5571.70996 5571.71289
5587.0 0.0001790 5561.44824 5561.45020
5453.0 0.0001834 5552.20703 5552.20850
5510.0 0.0001815 5543.90137 5543.90186
5578.0 0.0001793 5536.45068 5536.45068
5548.0 0.0001802 5529.77979 5529.77930
5483.0 0.0001824 5523.81836 5523.81689
5462.0 0.0001831 5518.49902 5518.49756
5651.0 0.0001770 5513.76025 5513.75830
5579.0 0.0001792 5509.54395 5509.54199
5459.0 0.0001832 5505.79541 5505.79297
5437.0 0.0001839 5502.46387 5502.46143
5485.0 0.0001823 5499.50146 5499.49854
5577.0 0.0001793 5496.86426 5496.86133
5572.0 0.0001795 5494.51172 5494.50879
5484.0 0.0001823 5492.40479 5492.40137
5353.0 0.0001868 5490.50830 5490.50488
5499.0 0.0001819 5488.78955 5488.78613
5644.0 0.0001772 5487.21777 5487.21436
5564.0 0.0001797 5485.76563 5485.76221
5403.0 0.0001851 5484.40674 5484.40332
5501.0 0.0001818 5483.11768 5483.11475
5524.0 0.0001810 5481.87695 5481.87402
5577.0 0.0001793 5480.66504 5480.66211
5443.0 0.0001837 5479.46338 5479.46045
5532.0 0.0001808 5478.25586 5478.25293
5453.0 0.0001834 5477.02783 5477.02490
5462.0 0.0001831 5475.76563 5475.76318
5311.0 0.0001883 5474.45801 5474.45557
5442.0 0.0001838 5473.09326 5473.09131
5620.0 0.0001779 5471.66357 5471.66113
5528.0 0.0001809 5470.15918 5470.15723
5492.0 0.0001821 5468.57373 5468.57178
5365.0 0.0001864 5466.90088 5466.89941
5433.0 0.0001841 5465.13525 5465.13379
5497.0 0.0001819 5463.27344 5463.27197
5467.0 0.0001829 5461.31006 5461.30908
5561.0 0.0001798 5459.24365 5459.24268
5441.0 0.0001838 5457.07227 5457.07129
5460.0 0.0001832 5454.79346 5454.79248
5553.0 0.0001801 5452.40674 5452.40625
5385.0 0.0001857 5449.91211 5449.91113
5507.0 0.0001816 5447.30908 5447.30811
5496.0 0.0001820 5444.59863 5444.59814
5534.0 0.0001807 5441.78174 5441.78174
5265.0 0.0001899 5438.86035 5438.86035
5443.0 0.0001837 5435.83545 5435.83496
5302.0 0.0001886 5432.70947 5432.70947
5412.0 0.0001848 5429.48438 5429.48438
5432.0 0.0001841 5426.16309 5426.16309
5366.0 0.0001864 5422.74854 5422.74854
5342.0 0.0001872 5419.24316 5419.24365
5500.0 0.0001818 5415.65088 5415.65137
5424.0 0.0001844 5411.97461 5411.97461
5346.0 0.0001871 5408.21729 5408.21777
5334.0 0.0001875 5404.38379 5404.38428
5268.0 0.0001898 5400.47607 5400.47656
5443.0 0.0001837 5396.49951 5396.50000
5434.0 0.0001840 5392.45654 5392.45703
5471.0 0.0001828 5388.35156 5388.35205
5333.0 0.0001875 5384.18750 5384.18799
5411.0 0.0001848 5379.96924 5379.96973
5360.0 0.0001866 5375.70020 5375.70068
5396.0 0.0001853 5371.38379 5371.38428
5358.0 0.0001866 5367.02393 5367.02490
5262.0 0.0001900 5362.62451 5362.62500
5289.0 0.0001891 5358.18896 5358.18945
5302.0 0.0001886 5353.72119 5353.72168
5450.0 0.0001835 5349.22412 5349.22412
5323.0 0.0001879 5344.70117 5344.70166
5369.0 0.0001863 5340.15625 5340.15674
5322.0 0.0001879 5335.59277 5335.59326
5275.0 0.0001896 5331.01318 5331.01318
5344.0 0.0001871 5326.42090 5326.42090
5351.0 0.0001869 5321.81934 5321.81934
5451.0 0.0001835 5317.21045 5317.21094
5334.0 0.0001875 5312.59814 5312.59863
5302.0 0.0001886 5307.98486 5307.98486
5265.0 0.0001899 5303.37256 5303.37256
5294.0 0.0001889 5298.76465 5298.76465
5315.0 0.0001881 5294.16260 5294.16260
5285.0 0.0001892 5289.56934 5289.56934
5215.0 0.0001918 5284.98682 5284.98682
5224.0 0.0001914 5280.41748 5280.41748
5246.0 0.0001906 5275.86279 5275.86230
5155.0 0.0001940 5271.32471 5271.32422
5266.0 0.0001899 5266.80518 5266.80469
5210.0 0.0001919 5262.30566 5262.30518
5256.0 0.0001903 5257.82813 5257.82764
5147.0 0.0001943 5253.37354 5253.37305
5361.0 0.0001865 5248.94336 5248.94287
5236.0 0.0001910 5244.53906 5244.53857
5204.0 0.0001922 5240.16162 5240.16113
5246.0 0.0001906 5235.81250 5235.81152
5228.0 0.0001913 5231.49219 5231.49121
5226.0 0.0001914 5227.20166 5227.20068
5280.0 0.0001894 5222.94141 5222.94043
5268.0 0.0001898 5218.71289 5218.71191
5172.0 0.0001933 5214.51660 5214.51563
5242.0 0.0001908 5210.35205 5210.35107
5244.0 0.0001907 5206.22168 5206.22021
5177.0 0.0001932 5202.12354 5202.12256
5253.0 0.0001904 5198.06006 5198.05859
5312.0 0.0001883 5194.03027 5194.02881
5183.0 0.0001929 5190.03467 5190.03320
5188.0 0.0001928 5186.07324 5186.07178
5238.0 0.0001909 5182.14648 5182.14502
5334.0 0.0001875 5178.25391 5178.25244
5187.0 0.0001928 5174.39600 5174.39453
5157.0 0.0001939 5170.57227 5170.57080
5258.0 0.0001902 5166.78271 5166.78125
5112.0 0.0001956 5163.02734 5163.02539
5082.0 0.0001968 5159.30518 5159.30371
5147.0 0.0001943 5155.61670 5155.61523
5200.0 0.0001923 5151.96143 5151.95996
5112.0 0.0001956 5148.33936 5148.33740
5187.0 0.0001928 5144.74902 5144.74756
5204.0 0.0001922 5141.19141 5141.18945
5070.0 0.0001972 5137.66504 5137.66309
5127.0 0.0001950 5134.16943 5134.16748
5122.0 0.0001952 5130.70508 5130.70313
5121.0 0.0001953 5127.27002 5127.26807
5094.0 0.0001963 5123.86523 5123.86328
5105.0 0.0001959 5120.48926 5120.48730
5172.0 0.0001933 5117.14160 5117.13965
5157.0 0.0001939 5113.82178 5113.81982
5207.0 0.0001920 5110.52930 5110.52734
5046.0 0.0001982 5107.26318 5107.26123
5027.0 0.0001989 5104.02344 5104.02148
5164.0 0.0001936 5100.80908 5100.80713
5117.0 0.0001954 5097.61914 5097.61719
5130.0 0.0001949 5094.45410 5094.45215
5104.0 0.0001959 5091.31201 5091.31006
5118.0 0.0001954 5088.19287 5088.19092
5072.0 0.0001972 5085.09619 5085.09424
5068.0 0.0001973 5082.02051 5082.01904
4961.0 0.0002016 5078.96680 5078.96484
5133.0 0.0001948 5075.93262 5075.93115
5055.0 0.0001978 5072.91895 5072.91699
5142.0 0.0001945 5069.92432 5069.92236
5126.0 0.0001951 5066.94775 5066.94629
5137.0 0.0001947 5063.99023 5063.98828
5025.0 0.0001990 5061.04932 5061.04736
5098.0 0.0001962 5058.12549 5058.12354
5172.0 0.0001933 5055.21826 5055.21631
5033.0 0.0001987 5052.32617 5052.32471
5167.0 0.0001935 5049.45020 5049.44873
5129.0 0.0001950 5046.58838 5046.58691
4971.0 0.0002012 5043.74121 5043.73975
5000.0 0.0002000 5040.90771 5040.90625
5072.0 0.0001972 5038.08740 5038.08594
5121.0 0.0001953 5035.28027 5035.27881
5116.0 0.0001955 5032.48535 5032.48389
5030.0 0.0001988 5029.70215 5029.70117
4939.0 0.0002025 5026.93115 5026.92969
4934.0 0.0002027 5024.17090 5024.16992
5027.0 0.0001989 5021.42188 5021.42090
4994.0 0.0002002 5018.68311 5018.68213
5050.0 0.0001980 5015.95508 5015.95410
5021.0 0.0001992 5013.23633 5013.23535
5072.0 0.0001972 5010.52783 5010.52686
5066.0 0.0001974 5007.82813 5007.82715
4975.0 0.0002010 5005.13770 5005.13672
4933.0 0.0002027 5002.45605 5002.45508
4965.0 0.0002014 4999.78271 4999.78174
4937.0 0.0002026 4997.11816 4997.11768
4932.0 0.0002028 4994.46191 4994.46094
4948.0 0.0002021 4991.81299 4991.81250
5000.0 0.0002000 4989.17285 4989.17188
5066.0 0.0001974 4986.53955 4986.53906
4973.0 0.0002011 4983.91455 4983.91406
5031.0 0.0001988 4981.29639 4981.29590
4996.0 0.0002002 4978.68652 4978.68555
4962.0 0.0002015 4976.08301 4976.08252
5094.0 0.0001963 4973.48730 4973.48682
4836.0 0.0002068 4970.89844 4970.89795
4957.0 0.0002017 4968.31641 4968.31592
4981.0 0.0002008 4965.74219 4965.74170
5054.0 0.0001979 4963.17432 4963.17432
4882.0 0.0002048 4960.61426 4960.61377
4972.0 0.0002011 4958.06104 4958.06055
5025.0 0.0001990 4955.51465 4955.51416
4845.0 0.0002064 4952.97559 4952.97559
4982.0 0.0002007 4950.44336 4950.44336
4978.0 0.0002009 4947.91895 4947.91846
4898.0 0.0002042 4945.40137 4945.40137
4899.0 0.0002041 4942.89111 4942.89111
4874.0 0.0002052 4940.38867 4940.38867
4729.0 0.0002115 4937.89355 4937.89355
4971.0 0.0002012 4935.40576 4935.40576
4947.0 0.0002021 4932.92578 4932.92578
4934.0 0.0002027 4930.45361 4930.45361
4925.0 0.0002030 4927.98926 4927.98926
4946.0 0.0002022 4925.53271 4925.53271
4809.0 0.0002079 4923.08447 4923.08496
4914.0 0.0002035 4920.64404 4920.64453
4949.0 0.0002021 4918.21240 4918.21289
4847.0 0.0002063 4915.78906 4915.78906
4908.0 0.0002037 4913.37402 4913.37402
4963.0 0.0002015 4910.96777 4910.96826
4867.0 0.0002055 4908.56982 4908.57031
4860.0 0.0002058 4906.18164 4906.18213
4926.0 0.0002030 4903.80176 4903.80225
4961.0 0.0002016 4901.43115 4901.43164
4905.0 0.0002039 4899.06982 4899.07031
4879.0 0.0002050 4896.71777 4896.71826
4940.0 0.0002024 4894.37549 4894.37598
4764.0 0.0002099 4892.04248 4892.04297
4811.0 0.0002079 4889.71924 4889.71973
4823.0 0.0002073 4887.40576 4887.40625
4949.0 0.0002021 4885.10205 4885.10254
4817.0 0.0002076 4882.80859 4882.80908
4956.0 0.0002018 4880.52490 4880.52539
4918.0 0.0002033 4878.25146 4878.25195
4799.0 0.0002084 4875.98779 4875.98828
4908.0 0.0002037 4873.73486 4873.73535
4788.0 0.0002089 4871.49170 4871.49268
4807.0 0.0002080 4869.25928 4869.25977
4830.0 0.0002070 4867.03760 4867.03809
4904.0 0.0002039 4864.82568 4864.82617
4859.0 0.0002058 4862.62500 4862.62549
4801.0 0.0002083 4860.43408 4860.43457
4868.0 0.0002054 4858.25342 4858.25391
4897.0 0.0002042 4856.08398 4856.08447
4797.0 0.0002085 4853.92480 4853.92529
4870.0 0.0002053 4851.77588 4851.77637
4969.0 0.0002012 4849.63770 4849.63818
4913.0 0.0002035 4847.50928 4847.50977
4767.0 0.0002098 4845.39160 4845.39209
4862.0 0.0002057 4843.28418 4843.28467
4800.0 0.0002083 4841.18701 4841.18750
4707.0 0.0002124 4839.10010 4839.10010
4701.0 0.0002127 4837.02246 4837.02295
4716.0 0.0002120 4834.95557 4834.95605
4850.0 0.0002062 4832.89795 4832.89844
4746.0 0.0002107 4830.85010 4830.85059
4662.0 0.0002145 4828.81152 4828.81201
4730.0 0.0002114 4826.78320 4826.78320
4814.0 0.0002077 4824.76318 4824.76318
4764.0 0.0002099 4822.75244 4822.75293
4800.0 0.0002083 4820.75049 4820.75049
4743.0 0.0002108 4818.75684 4818.75732
4816.0 0.0002076 4816.77197 4816.77197
4721.0 0.0002118 4814.79492 4814.79541
4804.0 0.0002082 4812.82617 4812.82617
4738.0 0.0002111 4810.86523 4810.86523
4837.0 0.0002067 4808.91113 4808.91113
4813.0 0.0002078 4806.96484 4806.96484
4903.0 0.0002040 4805.02490 4805.02490
4872.0 0.0002053 4803.09180 4803.09180
4884.0 0.0002048 4801.16455 4801.16455
4742.0 0.0002109 4799.24365 4799.24316
4777.0 0.0002093 4797.32813 4797.32813
4818.0 0.0002076 4795.41797 4795.41797
4860.0 0.0002058 4793.51270 4793.51270
4743.0 0.0002108 4791.61182 4791.61182
4789.0 0.0002088 4789.71533 4789.71533
4761.0 0.0002100 4787.82227 4787.82227
4748.0 0.0002106 4785.93311 4785.93262
4832.0 0.0002070 4784.04639 4784.04639
4794.0 0.0002086 4782.16260 4782.16211
4746.0 0.0002107 4780.28076 4780.28027
4729.0 0.0002115 4778.40039 4778.39990
4746.0 0.0002107 4776.52148 4776.52100
4925.0 0.0002030 4774.64355 4774.64307
4708.0 0.0002124 4772.76563 4772.76514
4811.0 0.0002079 4770.88770 4770.88721
4735.0 0.0002112 4769.00928 4769.00830
4866.0 0.0002055 4767.12988 4767.12891
4857.0 0.0002059 4765.24805 4765.24756
4809.0 0.0002079 4763.36475 4763.36377
4874.0 0.0002052 4761.47852 4761.47803
4775.0 0.0002094 4759.58936 4759.58838
4813.0 0.0002078 4757.69629 4757.69531
4781.0 0.0002092 4755.79932 4755.79834
4817.0 0.0002076 4753.89697 4753.89600
4758.0 0.0002102 4751.98975 4751.98877
4879.0 0.0002050 4750.07666 4750.07568
4872.0 0.0002053 4748.15723 4748.15625
4760.0 0.0002101 4746.23096 4746.22949
4839.0 0.0002067 4744.29688 4744.29541
4830.0 0.0002070 4742.35498 4742.35352
4822.0 0.0002074 4740.40381 4740.40283
4832.0 0.0002070 4738.44434 4738.44287
4922.0 0.0002032 4736.47412 4736.47314
4936.0 0.0002026 4734.49414 4734.49268
4764.0 0.0002099 4732.50293 4732.50146
4743.0 0.0002108 4730.50049 4730.49854
4714.0 0.0002121 4728.48535 4728.48389
4857.0 0.0002059 4726.45801 4726.45605
4696.0 0.0002129 4724.41699 4724.41553
4915.0 0.0002035 4722.36230 4722.36035
4791.0 0.0002087 4720.29297 4720.29102
4778.0 0.0002093 4718.20898 4718.20703
4620.0 0.0002165 4716.10889 4716.10693
4632.0 0.0002159 4713.99268 4713.99072
4825.0 0.0002073 4711.85938 4711.85742
4846.0 0.0002064 4709.70898 4709.70703
4704.0 0.0002126 4707.54053 4707.53857
4734.0 0.0002112 4705.35352 4705.35156
4652.0 0.0002150 4703.14746 4703.14502
4720.0 0.0002119 4700.92139 4700.91895
4714.0 0.0002121 4698.67529 4698.67334
4842.0 0.0002065 4696.40820 4696.40576
4702.0 0.0002127 4694.11963 4694.11768
4689.0 0.0002133 4691.80908 4691.80713
4684.0 0.0002135 4689.47607 4689.47363
4719.0 0.0002119 4687.12012 4687.11816
4748.0 0.0002106 4684.74072 4684.73828
4745.0 0.0002107 4682.33643 4682.33447
4802.0 0.0002082 4679.90869 4679.90625
4659.0 0.0002146 4677.45459 4677.45215
4708.0 0.0002124 4674.97559 4674.97314
4683.0 0.0002135 4672.47021 4672.46729
4757.0 0.0002102 4669.93799 4669.93555
4582.0 0.0002182 4667.37842 4667.37598
4620.0 0.0002165 4664.79150 4664.78906
4706.0 0.0002125 4662.17627 4662.17334
4714.0 0.0002121 4659.53223 4659.52979
4630.0 0.0002160 4656.85938 4656.85645
4701.0 0.0002127 4654.15674 4654.15430
4689.0 0.0002133 4651.42480 4651.42188
4617.0 0.0002166 4648.66162 4648.65869
4675.0 0.0002139 4645.86816 4645.86523
4595.0 0.0002176 4643.04346 4643.04053
4623.0 0.0002163 4640.18652 4640.18359
4635.0 0.0002157 4637.29834 4637.29541
4617.0 0.0002166 4634.37744 4634.37451
4616.0 0.0002166 4631.42383 4631.42090
4620.0 0.0002165 4628.43701 4628.43408
4608.0 0.0002170 4625.41699 4625.41357
4533.0 0.0002206 4622.36328 4622.36035
4648.0 0.0002151 4619.27490 4619.27197
4628.0 0.0002161 4616.15283 4616.14990
4654.0 0.0002149 4612.99561 4612.99268
4592.0 0.0002178 4609.80371 4609.80029
4540.0 0.0002203 4606.57666 4606.57324
4575.0 0.0002186 4603.31396 4603.31055
4636.0 0.0002157 4600.01563 4600.01221
4633.0 0.0002158 4596.68115 4596.67773
4627.0 0.0002161 4593.31055 4609.22217
4587.0 0.0002180 4589.90381 4606.53809
4586.0 0.0002181 4586.46045 4603.86816
4542.0 0.0002202 4582.98047 4601.21631
4560.0 0.0002193 4579.46338 4598.58838
4454.0 0.0002245 4575.90967 4595.99023
4548.0 0.0002199 4572.31836 4593.42773
4515.0 0.0002215 4568.68994 4590.90967
4607.0 0.0002171 4565.02441 4588.44434
4514.0 0.0002215 4561.32129 4586.04102
4545.0 0.0002200 4557.58057 4583.71143
4487.0 0.0002229 4553.80225 4581.46875
4323.0 0.0002313 4549.98633 4579.32764
4453.0 0.0002246 4546.13330 4577.30664
4455.0 0.0002245 4542.24219 4575.42432
4492.0 0.0002226 4538.31396 4573.70508
4524.0 0.0002210 4534.34766 4572.17676
4516.0 0.0002214 4530.34326 4570.87109
4477.0 0.0002234 4526.30225 4569.82764
4484.0 0.0002230 4522.22363 4569.09180
4472.0 0.0002236 4518.10742 4568.71973
4462.0 0.0002241 4513.95410 4568.77686
4456.0 0.0002244 4509.76367 4569.34473
4463.0 0.0002241 4505.53613 4570.52295
4537.0 0.0002204 4501.27197 4572.43506
4488.0 0.0002228 4496.97070 4575.23389
4380.0 0.0002283 4492.63281 4579.11426
4575.0 0.0002186 4488.25879 4584.32373
4638.0 0.0002156 4483.84863 4591.18164
4519.0 0.0002213 4479.40234 4600.10840
4526.0 0.0002209 4474.92041 4611.66357
4673.0 0.0002140 4470.40234 4626.61377
4722.0 0.0002118 4465.85010 4646.08350
4812.0 0.0002078 4461.26221 4671.96924
4996.0 0.0002002 4456.64014 4708.26172
5053.0 0.0001979 4451.98340 4764.77979
5513.0 0.0001814 4447.29248 4865.86621
5907.0 0.0001693 4442.56836 5065.91064
6406.0 0.0001561 4437.81055 5468.72461
7056.0 0.0001417 4433.02002 6238.77148
8058.0 0.0001241 4428.19629 7583.37354
9494.0 0.0001053 4423.34082 9680.80273
11470.0 0.0000872 4418.45313 12547.50879
14046.0 0.0000712 4413.53418 15923.76465
17200.0 0.0000581 4408.58447 19206.74219
20830.0 0.0000480 4403.60400 21485.24414
22491.0 0.0000445 4398.59326 22000.55273
21892.0 0.0000457 4393.55322 20408.98242
18546.0 0.0000539 4388.48340 17074.51367
14066.0 0.0000711 4383.38574 13149.01953
10054.0 0.0000995 4378.25928 9735.96484
7307.0 0.0001369 4373.10547 7341.13525
5894.0 0.0001697 4367.92432 5934.65869
5161.0 0.0001938 4362.71729 5220.91553
4788.0 0.0002089 4357.48340 4889.34863
4641.0 0.0002155 4352.22412 4732.43555
4506.0 0.0002219 4346.93994 4646.34277
4526.0 0.0002209 4341.63184 4589.09814
4452.0 0.0002246 4336.29980 4545.73584
4505.0 0.0002220 4330.94434 4510.75635
4489.0 0.0002228 4325.56641 4481.64111
4333.0 0.0002308 4320.16699 4456.89746
4433.0 0.0002256 4314.74609 4435.50439
4354.0 0.0002297 4309.30469 4416.72559
4299.0 0.0002326 4303.84326 4400.01367
4177.0 0.0002394 4298.36230 4384.95703
4286.0 0.0002333 4292.86328 4371.24121
4273.0 0.0002340 4287.34570 4358.62158
4124.0 0.0002425 4281.81152 4346.90674
4240.0 0.0002358 4276.26025 4335.94385
4185.0 0.0002389 4270.69336 4325.61230
4306.0 0.0002322 4265.11133 4315.81396
4239.0 0.0002359 4259.51465 4306.46777
4156.0 0.0002406 4253.90430 4297.50830
4215.0 0.0002372 4248.28125 4288.88232
4256.0 0.0002350 4242.64551 4280.54346
4207.0 0.0002377 4236.99854 4272.45361
4104.0 0.0002437 4231.34082 4264.58154
4204.0 0.0002379 4225.67334 4256.90137
4227.0 0.0002366 4219.99609 4249.38818
4116.0 0.0002430 4214.31104 4242.02490
4226.0 0.0002366 4208.61768 4234.79248
4205.0 0.0002378 4202.91748 4227.67871
4134.0 0.0002419 4197.21143 4220.66943
4140.0 0.0002415 4191.50000 4213.75586
4110.0 0.0002433 4185.78369 4206.92725
4145.0 0.0002413 4180.06348 4200.17578
4258.0 0.0002349 4174.34082 4193.49561
4086.0 0.0002447 4168.61572 4186.87988
4119.0 0.0002428 4162.88916 4180.32324
4055.0 0.0002466 4157.16211 4173.82129
4061.0 0.0002462 4151.43555 4151.43213
3967.0 0.0002521 4145.70947 4145.70654
4072.0 0.0002456 4139.98535 4139.98242
4144.0 0.0002413 4134.26416 4134.26123
4190.0 0.0002387 4128.54639 4128.54346
4025.0 0.0002484 4122.83252 4122.82959
4172.0 0.0002397 4117.12451 4117.12158
4076.0 0.0002453 4111.42139 4111.41846
4174.0 0.0002396 4105.72559 4105.72314
4048.0 0.0002470 4100.03711 4100.03418
4063.0 0.0002461 4094.35718 4094.35425
4023.0 0.0002486 4088.68579 4088.68311
4108.0 0.0002434 4083.02466 4083.02197
4006.0 0.0002496 4077.37451 4077.37183
4080.0 0.0002451 4071.73560 4071.73291
4112.0 0.0002432 4066.10913 4066.10645
4081.0 0.0002450 4060.49585 4060.49316
4115.0 0.0002430 4054.89624 4054.89355
4045.0 0.0002472 4049.31177 4049.30933
3964.0 0.0002523 4043.74243 4043.73999
4035.0 0.0002478 4038.18970 4038.18726
4151.0 0.0002409 4032.65405 4033.32422
3959.0 0.0002526 4027.13599 4027.83667
4063.0 0.0002461 4021.63721 4022.37061
4042.0 0.0002474 4016.15723 4016.92554
3900.0 0.0002564 4010.69800 4011.50391
3966.0 0.0002521 4005.25903 4006.10571
4000.0 0.0002500 3999.84253 4000.73242
4029.0 0.0002482 3994.44800 3995.38501
3937.0 0.0002540 3989.07690 3990.06445
4021.0 0.0002487 3983.72974 3984.77246
4044.0 0.0002473 3978.40723 3979.50977
3965.0 0.0002522 3973.11035 3974.27783
3964.0 0.0002523 3967.83960 3969.07788
4002.0 0.0002499 3962.59521 3963.91113
4112.0 0.0002432 3957.37915 3958.78003
4041.0 0.0002475 3952.19092 3953.68506
4047.0 0.0002471 3947.03198 3948.62939
3889.0 0.0002571 3941.90234 3943.61401
3867.0 0.0002586 3936.80347 3938.64209
3965.0 0.0002522 3931.73511 3933.71509
3943.0 0.0002536 3926.69922 3928.83740
4043.0 0.0002473 3921.69482 3924.01123
3954.0 0.0002529 3916.72388 3919.24146
3888.0 0.0002572 3911.78638 3914.53271
3908.0 0.0002559 3906.88306 3909.89063
3957.0 0.0002527 3902.01465 3905.32275
3868.0 0.0002585 3897.18213 3900.83740
3968.0 0.0002520 3892.38550 3896.44604
3962.0 0.0002524 3887.62549 3892.16235
3866.0 0.0002587 3882.90259 3888.00488
4059.0 0.0002464 3878.21777 3883.99731
3836.0 0.0002607 3873.57153 3880.17358
3816.0 0.0002621 3868.96387 3876.57935
3841.0 0.0002603 3864.39600 3873.29419
3912.0 0.0002556 3859.86792 3870.48047
3844.0 0.0002601 3855.38086 3868.54004
3816.0 0.0002621 3850.93433 3868.46655
3911.0 0.0002557 3846.52979 3872.44189
4017.0 0.0002489 3842.16699 3884.43481
3967.0 0.0002521 3837.84668 3910.31055
4177.0 0.0002394 3833.56982 3957.10449
4108.0 0.0002434 3829.33618 4031.43262
4172.0 0.0002397 3825.14648 4135.97168
4250.0 0.0002353 3821.00098 4264.35498
4411.0 0.0002267 3816.90015 4399.53809
4597.0 0.0002175 3812.84497 4506.80225
4568.0 0.0002189 3808.83472 4532.40332
4525.0 0.0002210 3804.87109 4448.34717
4360.0 0.0002294 3800.95313 4290.14648
4204.0 0.0002379 3797.08203 4119.89990
3985.0 0.0002509 3793.25830 3982.02710
3952.0 0.0002530 3789.48169 3890.96069
3934.0 0.0002542 3785.75293 3839.46289
3899.0 0.0002565 3782.07178 3812.82031
3830.0 0.0002611 3778.43945 3798.71729
3869.0 0.0002585 3774.85522 3790.02246
3784.0 0.0002643 3771.32007 3783.52588
3840.0 0.0002604 3767.83423 3778.01074
3865.0 0.0002587 3764.39746 3773.04395
3765.0 0.0002656 3761.01050 3768.45215
3835.0 0.0002608 3757.67310 3764.14429
3870.0 0.0002584 3754.38574 3760.06348
3813.0 0.0002623 3751.14893 3756.16992
3815.0 0.0002621 3747.96216 3752.43359
3764.0 0.0002657 3744.82642 3748.83325
3756.0 0.0002662 3741.74097 3745.35181
3720.0 0.0002688 3738.70679 3741.97754
3812.0 0.0002623 3735.72314 3738.69946
3754.0 0.0002664 3732.79077 3735.51074
3847.0 0.0002599 3729.90991 3732.40503
3875.0 0.0002581 3727.08032 3729.37695
3692.0 0.0002709 3724.30200 3726.42334
3728.0 0.0002682 3721.57520 3723.54028
3897.0 0.0002566 3718.89966 3720.72534
3803.0 0.0002630 3716.27612 3717.97656
3865.0 0.0002587 3713.70386 3715.29150
3790.0 0.0002639 3711.18335 3712.66895
3800.0 0.0002632 3708.71436 3710.10742
3804.0 0.0002629 3706.29688 3707.60596
3669.0 0.0002726 3703.93115 3705.16382
3847.0 0.0002599 3701.61694 3702.77905
3669.0 0.0002726 3699.35425 3700.45239
3795.0 0.0002635 3697.14282 3698.18140
3693.0 0.0002708 3694.98291 3695.96729
3761.0 0.0002659 3692.87402 3693.80811
3730.0 0.0002681 3690.81665 3691.70410
3713.0 0.0002693 3688.80981 3689.65405
3709.0 0.0002696 3686.85400 3687.65845
3814.0 0.0002622 3684.94946 3685.71631
3610.0 0.0002770 3683.09497 3683.82715
3767.0 0.0002655 3681.29102 3681.99072
3717.0 0.0002690 3679.53760 3679.53735
3756.0 0.0002662 3677.83423 3677.83374
3709.0 0.0002696 3676.18091 3676.18066
3718.0 0.0002690 3674.57690 3674.57666
3737.0 0.0002676 3673.02271 3673.02246
3836.0 0.0002607 3671.51758 3671.51733
3797.0 0.0002634 3670.06152 3670.06128
3720.0 0.0002688 3668.65405 3668.65381
3604.0 0.0002775 3667.29492 3667.29492
3658.0 0.0002734 3665.98413 3665.98389
3646.0 0.0002743 3664.72144 3664.72119
3670.0 0.0002725 3663.50635 3663.50635
3622.0 0.0002761 3662.33813 3662.33813
3657.0 0.0002734 3661.21704 3661.21704
3713.0 0.0002693 3660.14282 3660.14282
3600.0 0.0002778 3659.11450 3659.11450
3580.0 0.0002793 3658.13257 3658.13232
3561.0 0.0002808 3657.19580 3657.19580
3651.0 0.0002739 3656.30420 3656.30420
3736.0 0.0002677 3655.45752 3655.45752
3586.0 0.0002789 3654.65503 3654.65503
3707.0 0.0002698 3653.89648 3653.89648
3690.0 0.0002710 3653.18188 3653.18188
3639.0 0.0002748 3652.51025 3652.51050
3715.0 0.0002692 3651.88110 3651.88135
3632.0 0.0002753 3651.29443 3651.29468
3579.0 0.0002794 3650.74951 3650.74976
3651.0 0.0002739 3650.24585 3650.24609
3633.0 0.0002753 3649.78345 3649.78345
3669.0 0.0002726 3649.36084 3649.36108
3619.0 0.0002763 3648.97876 3648.97900
3761.0 0.0002659 3648.63550 3648.63574
3670.0 0.0002725 3648.33130 3648.33154
3637.0 0.0002750 3648.06567 3648.06592
3692.0 0.0002709 3647.83765 3647.83813
3597.0 0.0002780 3647.64722 3647.64746
3683.0 0.0002715 3647.49341 3647.49365
3569.0 0.0002802 3647.37573 3647.37598
3561.0 0.0002808 3647.29395 3647.29419
3596.0 0.0002781 3647.24707 3647.24731
3735.0 0.0002677 3647.23486 3647.23535
3628.0 0.0002756 3647.25659 3647.25708
3620.0 0.0002762 3647.31201 3647.31226
3579.0 0.0002794 3647.39990 3647.40039
3600.0 0.0002778 3647.52002 3647.52051
3611.0 0.0002769 3647.67212 3647.67261
3762.0 0.0002658 3647.85498 3648.04419
3609.0 0.0002771 3648.06836 3648.26465
3547.0 0.0002819 3648.31152 3648.51514
3593.0 0.0002783 3648.58350 3648.79492
3750.0 0.0002667 3648.88452 3649.10376
3582.0 0.0002792 3649.21313 3650.75610
3616.0 0.0002765 3649.56934 3651.16870
3659.0 0.0002733 3649.95190 3651.61084
3526.0 0.0002836 3650.36035 3652.08252
3600.0 0.0002778 3650.79443 3652.58325
3570.0 0.0002801 3651.25317 3653.11255
3646.0 0.0002743 3651.73584 3653.67041
3701.0 0.0002702 3652.24194 3654.25562
3572.0 0.0002800 3652.77051 3654.86890
3587.0 0.0002788 3653.32129 3655.50977
3598.0 0.0002779 3653.89331 3656.17749
3620.0 0.0002762 3654.48608 3656.87280
3589.0 0.0002786 3655.09888 3657.59521
3650.0 0.0002740 3655.73096 3658.34448
3570.0 0.0002801 3656.38135 3659.12061
3550.0 0.0002817 3657.05005 3659.92407
3630.0 0.0002755 3657.73584 3660.75537
3540.0 0.0002825 3658.43799 3661.61377
3551.0 0.0002816 3659.15649 3662.50146
3587.0 0.0002788 3659.88965 3663.41748
3535.0 0.0002829 3660.63745 3664.36377
3573.0 0.0002799 3661.39917 3665.34106
3552.0 0.0002815 3662.17358 3666.35107
3630.0 0.0002755 3662.96094 3667.39478
3579.0 0.0002794 3663.75952 3668.47510
3581.0 0.0002793 3664.56909 3669.59399
3730.0 0.0002681 3665.38867 3670.75464
3589.0 0.0002786 3666.21802 3672.03857
3601.0 0.0002777 3667.05640 3673.29834
3558.0 0.0002811 3667.90259 3674.61377
3649.0 0.0002740 3668.75659 3675.99243
3593.0 0.0002783 3669.61694 3677.44287
3598.0 0.0002779 3670.48340 3678.97559
3660.0 0.0002732 3671.35547 3680.60376
3642.0 0.0002746 3672.23145 3682.34351
3611.0 0.0002769 3673.11206 3684.21680
3528.0 0.0002834 3673.99561 3686.24951
3591.0 0.0002785 3674.88159 3688.47754
3678.0 0.0002719 3675.76953 3690.94653
3572.0 0.0002800 3676.65845 3693.72363
3586.0 0.0002789 3677.54810 3696.91333
3576.0 0.0002796 3678.43726 3700.71460
3613.0 0.0002768 3679.32544 3705.55518
3537.0 0.0002827 3680.21191 3712.34668
3775.0 0.0002649 3681.09619 3722.85596
3672.0 0.0002723 3681.97754 3740.04175
3808.0 0.0002626 3682.85498 3768.10547
3759.0 0.0002660 3683.72827 3811.96338
3894.0 0.0002568 3684.59644 3875.80347
3963.0 0.0002523 3685.45874 3961.48608
4114.0 0.0002431 3686.31470 4070.30811
4237.0 0.0002360 3687.16357 4205.69531
4252.0 0.0002352 3688.00513 4375.50391
4490.0 0.0002227 3688.83789 4602.37207
4784.0 0.0002090 3689.66187 4908.36914
5120.0 0.0001953 3690.47607 5270.34521
5333.0 0.0001875 3691.28003 5607.11670
5654.0 0.0001769 3692.07324 5785.28467
5589.0 0.0001789 3692.85449 5674.76367
5145.0 0.0001944 3693.62354 5298.39941
4823.0 0.0002073 3694.37988 4819.87988
4394.0 0.0002276 3695.12280 4392.38135
3945.0 0.0002535 3695.85156 4088.73218
3843.0 0.0002602 3696.56567 3909.23706
3780.0 0.0002646 3697.26440 3817.62476
3727.0 0.0002683 3697.94727 3774.83667
3616.0 0.0002765 3698.61353 3754.65454
3628.0 0.0002756 3699.26270 3743.87744
3677.0 0.0002720 3699.89429 3737.08374
3705.0 0.0002699 3700.50757 3732.28369
3607.0 0.0002772 3701.10205 3728.71802
3588.0 0.0002787 3701.67700 3726.03491
3606.0 0.0002773 3702.23193 3724.03345
3788.0 0.0002640 3702.76636 3722.60425
3701.0 0.0002702 3703.28003 3721.73267
3848.0 0.0002599 3703.77173 3721.57007
3637.0 0.0002750 3704.24146 3722.55054
3657.0 0.0002734 3704.68848 3725.55005
3747.0 0.0002669 3705.11206 3731.93530
3758.0 0.0002661 3705.51221 3743.34009
3765.0 0.0002656 3705.88794 3760.87988
3768.0 0.0002654 3706.23901 3783.67651
3778.0 0.0002647 3706.56470 3807.76538
3820.0 0.0002618 3706.86475 3826.60767
3825.0 0.0002614 3707.13843 3831.86426
3829.0 0.0002612 3707.38574 3819.03149
3792.0 0.0002637 3707.60571 3793.90112
3807.0 0.0002627 3707.79785 3766.74170
3794.0 0.0002636 3707.96216 3744.70972
3752.0 0.0002665 3708.09790 3730.14624
3780.0 0.0002646 3708.20483 3721.97095
3647.0 0.0002742 3708.28198 3717.86914
3709.0 0.0002696 3708.32959 3715.85376
3764.0 0.0002657 3708.34692 3714.74707
3813.0 0.0002623 3708.33350 3714.00464
3713.0 0.0002693 3708.28906 3713.50879
3720.0 0.0002688 3708.21338 3712.99414
3726.0 0.0002684 3708.10596 3712.51953
3693.0 0.0002708 3707.96606 3712.06641
3746.0 0.0002670 3707.79346 3711.62280
3749.0 0.0002667 3707.58838 3711.18091
3817.0 0.0002620 3707.34961 3710.73315
3685.0 0.0002714 3707.07764 3710.27563
3801.0 0.0002631 3706.77148 3709.80298
3799.0 0.0002632 3706.43115 3709.31372
3795.0 0.0002635 3706.05591 3708.80371
3789.0 0.0002639 3705.64600 3708.27148
3731.0 0.0002680 3705.20093 3707.71484
3827.0 0.0002613 3704.72021 3706.94800
3817.0 0.0002620 3704.20386 3706.34521
3801.0 0.0002631 3703.65137 3705.71387
3890.0 0.0002571 3703.06250 3705.05347
3775.0 0.0002649 3702.43726 3704.36328
3731.0 0.0002680 3701.77490 3703.64185
3720.0 0.0002688 3701.07544 3701.57324
3813.0 0.0002623 3700.33887 3700.83325
3842.0 0.0002603 3699.56445 3700.05811
3763.0 0.0002657 3698.75269 3699.24878
3789.0 0.0002639 3697.90259 3698.40381
3791.0 0.0002638 3697.01465 3697.52393
3867.0 0.0002586 3696.08789 3696.60938
3851.0 0.0002597 3695.12305 3695.66016
3850.0 0.0002597 3694.11914 3694.67798
3780.0 0.0002646 3693.07642 3693.66504
3861.0 0.0002590 3691.99487 3692.62915
3868.0 0.0002585 3690.87378 3691.58398
3769.0 0.0002653 3689.71362 3690.55322
3822.0 0.0002616 3688.51392 3689.56909
3779.0 0.0002646 3687.27441 3688.66138
3800.0 0.0002632 3685.99561 3687.83301
3799.0 0.0002632 3684.67676 3687.02930
3759.0 0.0002660 3683.31812 3686.13940
3777.0 0.0002648 3681.91919 3685.01270
3688.0 0.0002711 3680.48022 3683.52441
3779.0 0.0002646 3679.00146 3681.72314
3758.0 0.0002661 3677.48218 3679.79858
3764.0 0.0002657 3675.92285 3677.91675
3710.0 0.0002695 3674.32300 3676.15454
3809.0 0.0002625 3672.68311 3674.51685
3693.0 0.0002708 3671.00244 3672.97412
3896.0 0.0002567 3669.28149 3671.50269
3763.0 0.0002657 3667.52026 3670.03003
3784.0 0.0002643 3665.71851 3668.76489
3753.0 0.0002665 3663.87622 3667.79370
3666.0 0.0002728 3661.99365 3667.51392
3760.0 0.0002660 3660.07056 3668.75098
3827.0 0.0002613 3658.10718 3672.94702
3813.0 0.0002623 3656.10352 3682.11914
3839.0 0.0002605 3654.05957 3698.25879
3756.0 0.0002662 3651.97510 3721.82129
3828.0 0.0002612 3649.85083 3749.71069
3755.0 0.0002663 3647.68604 3774.89868
3772.0 0.0002651 3645.48120 3787.76563
3826.0 0.0002614 3643.23682 3779.63013
3829.0 0.0002612 3640.95239 3752.21802
3714.0 0.0002693 3638.62817 3717.14331
3636.0 0.0002750 3636.26416 3685.21973
3646.0 0.0002743 3633.86035 3661.61548
3591.0 0.0002785 3631.41748 3646.49072
3635.0 0.0002751 3628.93530 3637.43921
3766.0 0.0002655 3626.41382 3631.79272
3708.0 0.0002697 3623.85303 3627.72437
3615.0 0.0002766 3621.25342 3624.29834
3588.0 0.0002787 3618.61548 3621.12354
3603.0 0.0002775 3615.93848 3618.05396
3566.0 0.0002804 3613.22339 3615.03418
3598.0 0.0002779 3610.46973 3612.03711
3578.0 0.0002795 3607.67847 3609.04810
3635.0 0.0002751 3604.84888 3606.05566
3635.0 0.0002751 3601.98169 3603.05273
3639.0 0.0002748 3599.07715 3600.03442
3533.0 0.0002830 3596.13550 3596.99561
3648.0 0.0002741 3593.15649 3593.93359
3571.0 0.0002800 3590.14063 3590.84644
3528.0 0.0002834 3587.08789 3587.73169
3553.0 0.0002815 3583.99951 3584.58887
3602.0 0.0002776 3580.87476 3581.41626
3570.0 0.0002801 3577.71362 3578.21313
3534.0 0.0002830 3574.51709 3574.97900
3524.0 0.0002838 3571.28564 3571.71411
3612.0 0.0002769 3568.01855 3568.41724
3581.0 0.0002793 3564.71655 3565.08813
3534.0 0.0002830 3561.38013 3561.72778
3526.0 0.0002836 3558.00928 3558.33496
3580.0 0.0002793 3554.60498 3554.91040
3597.0 0.0002780 3551.16626 3551.45361
3512.0 0.0002847 3547.69409 3547.96509
3492.0 0.0002864 3544.18921 3544.44458
3471.0 0.0002881 3540.65161 3540.89307
3469.0 0.0002883 3537.08105 3537.30859
3519.0 0.0002842 3533.47852 3533.69385
3562.0 0.0002807 3529.84375 3530.04834
3520.0 0.0002841 3526.17798 3526.37231
3384.0 0.0002955 3522.48096 3522.66602
3607.0 0.0002772 3518.75269 3518.92871
3469.0 0.0002883 3514.99365 3515.16187
3517.0 0.0002843 3511.20508 3511.36572
3519.0 0.0002842 3507.38623 3507.53955
3441.0 0.0002906 3503.53784 3503.68481
3475.0 0.0002878 3499.66040 3499.80103
3488.0 0.0002867 3495.75439 3518.55981
3532.0 0.0002831 3491.81958 3515.43335
3453.0 0.0002896 3487.85645 3512.32349
3547.0 0.0002819 3483.86597 3509.23438
3482.0 0.0002872 3479.84839 3506.16968
3507.0 0.0002851 3475.80371 3503.13403
3476.0 0.0002877 3471.73218 3500.13159
3450.0 0.0002899 3467.63452 3497.16772
3512.0 0.0002847 3463.51099 3494.24854
3410.0 0.0002933 3459.36255 3491.28418
3498.0 0.0002859 3455.18896 3488.47656
3483.0 0.0002871 3450.99048 3485.73315
3438.0 0.0002909 3446.76758 3483.06348
3498.0 0.0002859 3442.52148 3480.47681
3396.0 0.0002945 3438.25146 3477.98242
3512.0 0.0002847 3433.95874 3475.59253
3459.0 0.0002891 3429.64307 3473.31982
3494.0 0.0002862 3425.30566 3471.17944
3341.0 0.0002993 3420.94604 3469.18677
3411.0 0.0002932 3416.56519 3467.36011
3588.0 0.0002787 3412.16357 3465.72119
3435.0 0.0002911 3407.74121 3464.29297
3353.0 0.0002982 3403.29907 3463.10229
3393.0 0.0002947 3398.83667 3462.17993
3448.0 0.0002900 3394.35522 3461.56201
3419.0 0.0002925 3389.85547 3461.28931
3496.0 0.0002860 3385.33667 3461.40869
3537.0 0.0002827 3380.80029 3461.97632
3458.0 0.0002892 3376.24609 3463.05615
3527.0 0.0002835 3371.67505 3464.72583
3575.0 0.0002797 3367.08716 3467.07397
3383.0 0.0002956 3362.48267 3470.20947
3405.0 0.0002937 3357.86304 3474.26123
3413.0 0.0002930 3353.22729 3479.38428
3422.0 0.0002922 3348.57739 3485.76904
3422.0 0.0002922 3343.91260 3493.64648
3455.0 0.0002894 3339.23364 3503.30396
3425.0 0.0002920 3334.54126 3515.09961
3529.0 0.0002834 3329.83569 3529.48438
3436.0 0.0002910 3325.11743 3547.03271
3526.0 0.0002836 3320.38647 3568.48535
3525.0 0.0002837 3315.64355 3594.81104
3543.0 0.0002822 3310.88989 3627.29541
3619.0 0.0002763 3306.12476 3667.67480
3608.0 0.0002772 3301.34912 3718.38428
3777.0 0.0002648 3296.56323 3783.10449
3910.0 0.0002558 3291.76831 3868.33887
3977.0 0.0002514 3286.96338 3988.12280
4402.0 0.0002272 3282.14966 4176.66260
4924.0 0.0002031 3277.32788 4516.18604
5874.0 0.0001702 3272.49829 5183.82666
7502.0 0.0001333 3267.66089 6502.54639
9672.0 0.0001034 3262.81641 8943.74219
13345.0 0.0000749 3257.96509 12991.93262
18536.0 0.0000539 3253.10815 18793.02539
25030.0 0.0000400 3248.24512 25663.50586
31457.0 0.0000318 3243.37671 31923.66797
35569.0 0.0000281 3238.50317 35305.19922
34981.0 0.0000286 3233.62500 33897.46875
28846.0 0.0000347 3228.74365 28189.36914
20979.0 0.0000477 3223.85791 20840.29102
13879.0 0.0000721 3218.96899 14244.34961
9177.0 0.0001090 3214.07739 9515.29785
6515.0 0.0001535 3209.18384 6673.35400
5163.0 0.0001937 3204.28760 5186.27734
4632.0 0.0002159 3199.38989 4466.97900
3991.0 0.0002506 3194.49121 4111.98145
3861.0 0.0002590 3189.59204 3912.60913
3724.0 0.0002685 3184.69238 3780.57422
3631.0 0.0002754 3179.79248 3682.44116
3506.0 0.0002852 3174.89307 3605.11816
3487.0 0.0002868 3169.99536 3542.36792
3299.0 0.0003031 3165.09814 3490.46167
3439.0 0.0002908 3160.20288 3446.85889
3325.0 0.0003008 3155.30957 3409.72681
3285.0 0.0003044 3150.41919 3377.71118
3260.0 0.0003067 3145.53101 3349.79053
3138.0 0.0003187 3140.64624 3325.18726
3244.0 0.0003083 3135.76538 3303.31250
3262.0 0.0003066 3130.88892 3283.66577
3044.0 0.0003285 3126.01611 3265.88623
3172.0 0.0003153 3121.14819 3249.67456
3079.0 0.0003248 3116.28540 3234.79077
3177.0 0.0003148 3111.42822 3221.03687
3124.0 0.0003201 3106.57715 3208.25220
3150.0 0.0003175 3101.73218 3196.30298
3102.0 0.0003224 3096.89380 3185.07813
3187.0 0.0003138 3092.06201 3174.48462
3079.0 0.0003248 3087.23853 3164.44531
3010.0 0.0003322 3082.42188 3154.89233
3165.0 0.0003160 3077.61353 3145.76978
3071.0 0.0003256 3072.81348 3137.02905
3138.0 0.0003187 3068.02246 3128.62964
3049.0 0.0003280 3063.23999 3120.53442
3070.0 0.0003257 3058.46704 3112.71313
3027.0 0.0003304 3053.70386 3105.13867
3039.0 0.0003291 3048.95117 3097.78760
3099.0 0.0003227 3044.20801 3090.63892
3069.0 0.0003258 3039.47583 3083.67432
3077.0 0.0003250 3034.75464 3076.87842
3101.0 0.0003225 3030.04517 3070.23755
3064.0 0.0003264 3025.34717 3063.73828
3036.0 0.0003294 3020.66064 3057.36963
3045.0 0.0003284 3015.98633 3051.12183
2973.0 0.0003364 3011.32544 3044.98682
3089.0 0.0003237 3006.67651 3038.95557
2963.0 0.0003375 3002.04053 3033.02197
2987.0 0.0003348 2997.41846 3027.17944
3048.0 0.0003281 2992.80981 3021.42212
2956.0 0.0003383 2988.21558 3015.74561
2938.0 0.0003404 2983.63501 3010.14404
2961.0 0.0003377 2979.06885 3004.61475
2914.0 0.0003432 2974.51782 2999.15332
2927.0 0.0003416 2969.98193 2993.75708
2908.0 0.0003439 2965.46069 2965.56836
2906.0 0.0003441 2960.95532 2961.07373
3024.0 0.0003307 2956.46533 2956.59692
2998.0 0.0003336 2951.99219 2952.13867
2912.0 0.0003434 2947.53467 2947.69922
3007.0 0.0003326 2943.09375 2943.27930
3068.0 0.0003259 2938.66919 2938.88062
2936.0 0.0003406 2934.26221 2934.50488
2993.0 0.0003341 2929.87183 2930.15283
2921.0 0.0003423 2925.49927 2925.82861
2877.0 0.0003476 2921.14380 2921.53735
2776.0 0.000360 2916.80688 2917.29126
2845.0 0.000351 2912.48706 2913.11841
2889.0 0.0003461 2908.18579 2909.08740
2817.0 0.000355 2903.90283 2905.33765
2903.0 0.0003445 2899.63892 2902.10913
2987.0 0.0003348 2895.39331 2899.71704
2954.0 0.0003385 2891.16650 2898.41846
2831.0 0.000353 2886.95898 2898.14307
3046.0 0.0003283 2882.77075 2898.21021
2817.0 0.000355 2878.60229 2897.36279
2934.0 0.0003408 2874.45337 2894.15869
2914.0 0.0003432 2870.32397 2887.92017
2862.0 0.0003494 2866.21436 2879.68457
2840.0 0.000352 2862.12549 2871.16797
2853.0 0.0003505 2858.05615 2863.50977
2950.0 0.0003390 2854.00757 2857.07373
2811.0 0.000356 2849.97925 2851.69116
2852.0 0.0003506 2845.97217 2847.00000
2920.0 0.0003425 2841.98535 2842.68237
2832.0 0.000353 2838.01929 2838.54565
2814.0 0.000355 2834.07471 2834.49878
2790.0 0.000358 2830.15112 2830.50439
2803.0 0.000357 2826.24878 2826.54858
2907.0 0.0003440 2822.36743 2822.62524
2849.0 0.000351 2818.50757 2818.73169
2866.0 0.0003489 2814.66992 2814.86621
2885.0 0.0003466 2810.85327 2811.02661
2835.0 0.000353 2807.05859 2807.21265
2888.0 0.0003463 2803.28564 2803.42358
2844.0 0.000352 2799.53491 2799.65894
2829.0 0.000353 2795.80566 2795.91797
2912.0 0.0003434 2792.09839 2792.20068
2828.0 0.000354 2788.41357 2788.50684
2903.0 0.0003445 2784.75073 2784.83618
2775.0 0.000360 2781.11060 2781.18896
2794.0 0.000358 2777.49219 2777.56470
2728.0 0.000367 2773.89624 2773.96289
2824.0 0.000354 2770.32275 2770.38477
2829.0 0.000353 2766.77173 2766.82935
2853.0 0.0003505 2763.24316 2763.29688
2838.0 0.000352 2759.73682 2759.78687
2720.0 0.000368 2756.25293 2756.30005
2766.0 0.000362 2752.79199 2752.83618
2754.0 0.000363 2749.35327 2749.39478
2758.0 0.000363 2745.93750 2745.97656
2797.0 0.000358 2742.54395 2742.60645
2833.0 0.000353 2739.17334 2739.23462
2825.0 0.000354 2735.82495 2735.88525
2790.0 0.000358 2732.49927 2732.55884
2779.0 0.000360 2729.19629 2729.25537
2747.0 0.000364 2725.91602 2727.57104
2825.0 0.000354 2722.65820 2724.37061
2831.0 0.000353 2719.42285 2721.19678
2848.0 0.000351 2716.21021 2718.04858
2692.0 0.000371 2713.02002 2715.06396
2768.0 0.000361 2709.85229 2711.97363
2743.0 0.000365 2706.70728 2708.91138
2662.0 0.000376 2703.58447 2705.87622
2792.0 0.000358 2700.48389 2702.86890
2752.0 0.000363 2697.40625 2699.89038
2735.0 0.000366 2694.35034 2696.94067
2723.0 0.000367 2691.31714 2694.01978
2714.0 0.000368 2688.30566 2691.12939
2767.0 0.000361 2685.31689 2688.26953
2810.0 0.000356 2682.34985 2685.44092
2715.0 0.000368 2679.40479 2682.64404
2582.0 0.000387 2676.48218 2679.88110
2640.0 0.000379 2673.58130 2677.13745
2719.0 0.000368 2670.70215 2674.44409
2717.0 0.000368 2667.84473 2671.78760
2645.0 0.000378 2665.00903 2669.16895
2697.0 0.000371 2662.19507 2666.59082
2592.0 0.000386 2659.40259 2664.05469
2769.0 0.000361 2656.63159 2661.56299
2633.0 0.000380 2653.88184 2659.11865
2662.0 0.000376 2651.15356 2656.72485
2633.0 0.000380 2648.44604 2654.38452
2630.0 0.000380 2645.75977 2652.10376
2683.0 0.000373 2643.09448 2649.88672
2590.0 0.000386 2640.45044 2647.73950
2658.0 0.000376 2637.82666 2645.66943
2648.0 0.000378 2635.22363 2643.68555
2670.0 0.000375 2632.64087 2641.79858
2645.0 0.000378 2630.07886 2640.02100
2673.0 0.000374 2627.53735 2638.36938
2603.0 0.000384 2625.01563 2636.86206
2610.0 0.000383 2622.51416 2635.52393
2630.0 0.000380 2620.03247 2634.38525
2597.0 0.000385 2617.57080 2633.48608
2614.0 0.000383 2615.12842 2632.87402
2543.0 0.000393 2612.70605 2632.61670
2575.0 0.000388 2610.30273 2632.79956
2634.0 0.000380 2607.91919 2633.57471
2639.0 0.000379 2605.55420 2635.06421
2674.0 0.000374 2603.20825 2637.58838
2711.0 0.000369 2600.88159 2641.66138
2684.0 0.000373 2598.57349 2648.25830
2655.0 0.000377 2596.28369 2659.34180
2644.0 0.000378 2594.01221 2679.01636
2782.0 0.000359 2591.75928 2715.71924
2807.0 0.000356 2589.52441 2785.33716
2880.0 0.0003472 2587.30762 2913.24951
3180.0 0.0003145 2585.10840 3130.30566
3469.0 0.0002883 2582.92676 3456.79272
3859.0 0.0002591 2580.76270 3874.72437
4242.0 0.0002357 2578.61597 4302.04541
4399.0 0.0002273 2576.48633 4601.55566
4321.0 0.0002314 2574.37378 4634.92090
4072.0 0.0002456 2572.27783 4378.61963
3758.0 0.0002661 2570.19873 3968.56494
3362.0 0.0002974 2568.13599 3558.13184
3129.0 0.0003196 2566.08936 3226.86255
2922.0 0.0003422 2564.05933 2989.73120
2847.0 0.000351 2562.04517 2832.67554
2777.0 0.000360 2560.04663 2733.63525
2696.0 0.000371 2558.06372 2672.59644
2594.0 0.000386 2556.09595 2635.37207
2665.0 0.000375 2554.14404 2612.56787
2557.0 0.000391 2552.20703 2598.02515
2639.0 0.000379 2550.28467 2587.96558
2590.0 0.000386 2548.37720 2580.31909
2595.0 0.000385 2546.48438 2574.06470
2646.0 0.000378 2544.60571 2568.71289
2524.0 0.000396 2542.74121 2564.00952
2584.0 0.000387 2540.89087 2559.80322
2494.0 0.000401 2539.05420 2555.98877
2562.0 0.000390 2537.23120 2552.49048
2584.0 0.000387 2535.42139 2549.25122
2567.0 0.000390 2533.62500 2546.22559
2488.0 0.000402 2531.84180 2543.47534
2530.0 0.000395 2530.07153 2540.78613
2531.0 0.000395 2528.31372 2538.22852
2531.0 0.000395 2526.56836 2535.78540
2525.0 0.000396 2524.83545 2533.44409
2485.0 0.000402 2523.11475 2531.19458
2575.0 0.000388 2521.40601 2529.02832
2543.0 0.000393 2519.70874 2526.94116
2495.0 0.000401 2518.02295 2524.93140
2569.0 0.000389 2516.34888 2523.00317
2547.0 0.000393 2514.68579 2521.17163
2469.0 0.000405 2513.03369 2519.48511
2495.0 0.000401 2511.39233 2518.06152
2490.0 0.000402 2509.76172 2518.51709
2521.0 0.000397 2508.14136 2518.61548
2538.0 0.000394 2506.53101 2520.26123
2468.0 0.000405 2504.93115 2523.93604
2564.0 0.000390 2503.34082 2529.51440
2479.0 0.000403 2501.76025 2535.73340
2501.0 0.000400 2500.18896 2540.17700
2533.0 0.000395 2498.62720 2540.11963
2498.0 0.000400 2497.07446 2534.45630
2484.0 0.000403 2495.53052 2525.24243
2541.0 0.000394 2493.99536 2515.61011
2577.0 0.000388 2492.46851 2507.56177
2479.0 0.000403 2490.95020 2501.70850
2455.0 0.000407 2489.43994 2497.73584
2529.0 0.000395 2487.93750 2494.99536
2560.0 0.000391 2486.44312 2492.92383
2611.0 0.000383 2484.95605 2491.17261
2520.0 0.000397 2483.47681 2489.55127
2480.0 0.000403 2482.00439 2488.04199
2502.0 0.000400 2480.53882 2486.59448
2526.0 0.000396 2479.08057 2485.19678
2525.0 0.000396 2477.62866 2482.25293
2540.0 0.000394 2476.18359 2481.00171
2513.0 0.000398 2474.74463 2479.79199
2565.0 0.000390 2473.31177 2478.62549
2509.0 0.000399 2471.88501 2477.36816
2479.0 0.000403 2470.46387 2476.30371
2503.0 0.000400 2469.04834 2475.29492
2477.0 0.000404 2467.63818 2474.35010
2535.0 0.000394 2466.23364 2473.47900
2422.0 0.000413 2464.83374 2472.69385
2538.0 0.000394 2463.43896 2472.01294
2452.0 0.000408 2462.04883 2471.46118
2431.0 0.000411 2460.66333 2471.07837
2541.0 0.000394 2459.28247 2470.94263
2495.0 0.000401 2457.90552 2471.22998
2473.0 0.000404 2456.53271 2472.34131
2506.0 0.000399 2455.16382 2475.10376
2448.0 0.000408 2453.79858 2480.94946
2474.0 0.000404 2452.43726 2491.79932
2458.0 0.000407 2451.07910 2509.26709
2597.0 0.000385 2449.72412 2533.09546
2553.0 0.000392 2448.37256 2559.44141
2652.0 0.000377 2447.02368 2580.73047
2592.0 0.000386 2445.67798 2588.34253
2543.0 0.000393 2444.33447 2578.87720
2586.0 0.000387 2442.99365 2559.26782
2515.0 0.000398 2441.65527 2540.55396
2598.0 0.000385 2440.31885 2531.70435
2530.0 0.000395 2438.98486 2540.66406
2650.0 0.000377 2437.65234 2578.74414
2728.0 0.000367 2436.32202 2664.77808
2829.0 0.000353 2434.99292 2823.88013
3096.0 0.0003230 2433.66553 3075.34766
3410.0 0.0002933 2432.33960 3409.34497
3713.0 0.0002693 2431.01465 3763.37549
3980.0 0.0002513 2429.69092 4023.78687
4000.0 0.0002500 2428.36792 4068.66431
3772.0 0.0002651 2427.04590 3861.97266
3470.0 0.0002882 2425.72461 3508.49365
3104.0 0.0003222 2424.40381 3147.00977
2899.0 0.0003449 2423.08350 2860.79590
2662.0 0.000376 2421.76367 2672.09668
2492.0 0.000401 2420.44360 2564.44165
2467.0 0.000405 2419.12354 2508.63354
2548.0 0.000392 2417.80371 2480.19946
2470.0 0.000405 2416.48364 2472.66309
2448.0 0.000408 2415.16357 2462.73267
2341.0 0.000427 2413.84277 2455.40771
2397.0 0.000417 2412.52124 2449.60669
2467.0 0.000405 2411.19946 2444.82837
2422.0 0.000413 2409.87695 2440.80322
2546.0 0.000393 2408.55322 2437.35327
2491.0 0.000401 2407.22900 2434.35693
2363.0 0.000423 2405.90356 2431.72388
2402.0 0.000416 2404.57715 2429.38745
2411.0 0.000415 2403.24927 2427.29810
2300.0 0.000435 2401.92017 2425.41846
2361.0 0.000424 2400.58960 2423.71997
2385.0 0.000419 2399.25781 2422.18115
2365.0 0.000423 2397.92407 2420.78589
2341.0 0.000427 2396.58862 2419.52246
2347.0 0.000426 2395.25146 2418.38281
2397.0 0.000417 2393.91260 2417.36206
2298.0 0.000435 2392.57178 2416.45703
2396.0 0.000417 2391.22876 2416.98950
2381.0 0.000420 2389.88354 2416.36401
2377.0 0.000421 2388.53662 2415.86133
2391.0 0.000418 2387.18701 2415.48828
2390.0 0.000418 2385.83545 2415.25269
2343.0 0.000427 2384.48120 2415.16479
2362.0 0.000423 2383.12451 2415.23828
2467.0 0.000405 2381.76563 2415.48877
2399.0 0.000417 2380.40381 2415.93677
2313.0 0.000432 2379.03931 2416.60425
2448.0 0.000408 2377.67261 2417.52051
2452.0 0.000408 2376.30298 2418.71948
2483.0 0.000403 2374.93018 2420.24219
2396.0 0.000417 2373.55469 2422.13818
2349.0 0.000426 2372.17627 2424.46875
2440.0 0.000410 2370.79517 2427.30713
2445.0 0.000409 2369.41089 2430.65088
2352.0 0.000425 2368.02344 2434.80444
2353.0 0.000425 2366.63306 2439.81226
2387.0 0.000419 2365.23950 2445.85498
2394.0 0.000418 2363.84277 2453.16162
2484.0 0.000403 2362.44287 2462.02979
2438.0 0.000410 2361.03979 2472.84985
2561.0 0.000390 2359.63330 2486.14233
2479.0 0.000403 2358.22339 2503.10791
2512.0 0.000398 2356.81030 2523.77686
2534.0 0.000395 2355.39404 2550.17017
2615.0 0.000382 2353.97412 2585.07690
2667.0 0.000375 2352.55103 2634.59912
2806.0 0.000356 2351.12427 2712.15698
3019.0 0.0003312 2349.69434 2855.05640
3294.0 0.0003036 2348.26074 3133.57397
3956.0 0.0002528 2346.82373 3670.05151
4833.0 0.0002069 2345.38354 4622.87695
6250.0 0.0001600 2343.93945 6113.60938
8263.0 0.0001210 2342.49194 8092.43213
10313.0 0.0000970 2341.04102 10200.08301
11914.0 0.0000839 2339.58643 11765.09961
12294.0 0.0000813 2338.12866 12059.12402
10807.0 0.0000925 2336.66699 10866.37305
8823.0 0.0001133 2335.20215 8800.99316
6536.0 0.0001530 2333.73364 6678.28076
4836.0 0.0002068 2332.26147 4990.01709
3704.0 0.0002700 2330.78613 3871.93530
3145.0 0.0003180 2329.30688 3232.55811
2919.0 0.0003426 2327.82471 2903.35522
2741.0 0.000365 2326.33862 2740.34424
2724.0 0.000367 2324.84912 2656.01563
2613.0 0.000383 2323.35645 2608.87134
2610.0 0.000383 2321.86011 2584.20923
2599.0 0.000385 2320.36060 2582.10327
2706.0 0.000370 2318.85742 2613.47681
2751.0 0.000364 2317.35107 2698.79785
2891.0 0.0003459 2315.84131 2862.25659
3133.0 0.0003192 2314.32813 3116.23804
3495.0 0.0002861 2312.81177 3438.14648
3690.0 0.0002710 2311.29224 3751.13159
3791.0 0.0002638 2309.76953 3937.16162
3840.0 0.0002604 2308.24341 3893.90552
3598.0 0.0002779 2306.71436 3633.48291
3300.0 0.0003030 2305.18213 3280.23584
2878.0 0.0003475 2303.64673 2951.84106
2674.0 0.000374 2302.10840 2706.34839
2537.0 0.000394 2300.56689 2550.53467
2403.0 0.000416 2299.02246 2463.14355
2377.0 0.000421 2297.47534 2417.23169
2361.0 0.000424 2295.92505 2392.56958
2314.0 0.000432 2294.37231 2377.80884
2328.0 0.000430 2292.81641 2367.77148
2362.0 0.000423 2291.25806 2361.22510
2343.0 0.000427 2289.69678 2355.87671
2428.0 0.000412 2288.13281 2352.47754
2344.0 0.000427 2286.56665 2351.72144
2377.0 0.000421 2284.99756 2355.62134
2539.0 0.000394 2283.42627 2368.48389
2549.0 0.000392 2281.85254 2397.57324
2573.0 0.000389 2280.27612 2451.94287
2724.0 0.000367 2278.69800 2537.79639
2892.0 0.0003458 2277.11719 2650.54663
2934.0 0.0003408 2275.53442 2767.28369
3065.0 0.0003263 2273.94922 2847.74438
3107.0 0.0003219 2272.36230 2851.24609
2858.0 0.0003499 2270.77319 2771.37622
2751.0 0.000364 2269.18237 2647.57251
2657.0 0.000376 2267.58960 2525.22314
2494.0 0.000401 2265.99512 2429.69727
2410.0 0.000415 2264.39893 2366.71948
2372.0 0.000422 2262.80103 2330.14209
2410.0 0.000415 2261.20142 2310.29492
2389.0 0.000419 2259.60059 2299.28052
2252.0 0.000444 2257.99805 2292.40210
2412.0 0.000415 2256.39453 2287.41724
2298.0 0.000435 2254.78931 2283.39722
2333.0 0.000429 2253.18286 2279.97266
2294.0 0.000436 2251.57568 2276.97998
2264.0 0.000442 2249.96729 2266.24341
2337.0 0.000428 2248.35815 2264.11084
2302.0 0.000434 2246.74780 2262.29395
2294.0 0.000436 2245.13672 2260.72363
2294.0 0.000436 2243.52490 2259.40771
2270.0 0.000441 2241.91235 2258.37231
2322.0 0.000431 2240.29956 2257.67651
2333.0 0.000429 2238.68628 2257.44824
2360.0 0.000424 2237.07251 2257.99487
2322.0 0.000431 2235.45801 2260.06250
2363.0 0.000423 2233.84375 2265.31836
2476.0 0.000404 2232.22925 2276.94580
2456.0 0.000407 2230.61475 2299.79492
2420.0 0.000413 2229.00024 2339.09497
2499.0 0.000400 2227.38574 2396.99561
2486.0 0.000402 2225.77124 2467.63843
2502.0 0.000400 2224.15747 2533.74048
2507.0 0.000399 2222.54395 2569.81372
2530.0 0.000395 2220.93091 2556.21289
2504.0 0.000399 2219.31836 2498.30762
2441.0 0.000410 2217.70654 2426.53491
2431.0 0.000411 2216.09546 2363.40332
2333.0 0.000429 2214.48511 2320.94360
2267.0 0.000441 2212.87573 2410.48438
2372.0 0.000422 2211.26758 2422.64111
2399.0 0.000417 2209.66040 2467.11377
2472.0 0.000405 2208.05420 2554.42944
2608.0 0.000383 2206.44946 2693.35400
2896.0 0.0003453 2204.84619 2878.07471
2976.0 0.0003360 2203.24438 3075.01953
3173.0 0.0003152 2201.64404 3221.44775
3135.0 0.0003190 2200.04517 3249.55249
3159.0 0.0003166 2198.44849 3141.30786
3084.0 0.0003243 2196.85327 2955.02808
2677.0 0.000374 2195.26025 2765.23584
2627.0 0.000381 2193.66895 2616.01001
2478.0 0.000404 2192.08008 2519.30029
2466.0 0.000406 2190.49341 2466.78564
2419.0 0.000413 2188.90869 2443.26563
2427.0 0.000412 2187.32666 2435.70825
2356.0 0.000424 2185.74731 2436.12964
2403.0 0.000416 2184.17041 2440.65186
2433.0 0.000411 2182.59595 2447.19800
2469.0 0.000405 2181.02441 2456.20044
2460.0 0.000407 2179.45557 2466.96436
2420.0 0.000413 2177.88989 2479.46069
2470.0 0.000405 2176.32739 2493.73804
2460.0 0.000407 2174.76782 2509.90088
2421.0 0.000413 2173.21143 2528.10132
2428.0 0.000412 2171.65869 2548.53979
2456.0 0.000407 2170.10913 2571.46655
2425.0 0.000412 2168.56299 2597.19092
2619.0 0.000382 2167.02051 2626.11914
2507.0 0.000399 2165.48193 2658.63696
2477.0 0.000404 2163.94678 2695.32397
2564.0 0.000390 2162.41553 2736.84204
2723.0 0.000367 2160.88843 2783.99951
2793.0 0.000358 2159.36548 2837.78516
2832.0 0.000353 2157.84644 2899.42017
2786.0 0.000359 2156.33154 2970.42432
2835.0 0.000353 2154.82104 3052.70508
2969.0 0.0003368 2153.31494 3148.68164
2945.0 0.0003396 2151.81323 3261.45581
3227.0 0.0003099 2150.31641 3395.05371
3418.0 0.0002926 2148.82373 3554.77417
3637.0 0.0002750 2147.33618 3747.70239
3761.0 0.0002659 2145.85327 3983.54395
4155.0 0.0002407 2144.37549 4276.22705
4521.0 0.0002212 2142.90259 4647.85205
4999.0 0.0002000 2141.43457 5140.09180
5947.0 0.0001682 2139.97192 5846.44092
7385.0 0.0001354 2138.51440 6991.29102
9796.0 0.0001021 2137.06201 9083.61523
13836.0 0.0000723 2135.61523 13123.62695
21368.0 0.0000468 2134.17383 20701.47461
33012.0 0.0000303 2132.73804 33662.64063
51352.0 0.0000195 2131.30786 53046.10938
75321.0 0.0000133 2129.88330 77439.25000
101505.0 9.85e-6 2128.46460 101566.68750
118547.0 8.44e-6 2127.05176 116762.05469
117896.0 8.48e-6 2125.64478 115182.50000
100127.0 9.99e-6 2124.24390 97268.33594
72864.0 0.0000137 2122.84912 71965.27344
46824.0 0.0000214 2121.46045 48019.02344
28591.0 0.0000350 2120.07788 29879.80078
17666.0 0.0000566 2118.70166 18248.71680
11742.0 0.0000852 2117.33154 11707.87207
8447.0 0.0001184 2115.96851 8321.51855
6662.0 0.0001501 2114.61133 6577.08643
5653.0 0.0001769 2113.26099 5597.71045
4839.0 0.0002067 2111.91724 4966.82227
4399.0 0.0002273 2110.58008 4511.31885
4043.0 0.0002473 2109.25000 4160.28223
3782.0 0.0002644 2107.92627 3880.69385
3522.0 0.0002839 2106.60962 3653.72803
3384.0 0.0002955 2105.30005 3466.90234
3128.0 0.0003197 2103.99731 3311.31128
3132.0 0.0003193 2102.70166 3180.39014
2937.0 0.0003405 2101.41309 3069.20898
2756.0 0.000363 2100.13184 2974.02026
2791.0 0.000358 2098.85767 2891.95776
2704.0 0.000370 2097.59082 2820.85693
2722.0 0.000367 2096.33154 2760.97949
2654.0 0.000377 2095.07935 2707.72656
2560.0 0.000391 2093.83472 2662.26392
2487.0 0.000402 2092.59766 2624.12061
2601.0 0.000384 2091.36792 2592.45093
2534.0 0.000395 2090.14600 2565.48413
2420.0 0.000413 2088.93164 2540.32397
2498.0 0.000400 2087.72485 2513.71265
2442.0 0.000410 2086.52588 2484.14063
2437.0 0.000410 2085.33447 2453.29688
2387.0 0.000419 2084.15137 2423.94653
2380.0 0.000420 2082.97583 2397.79810
2347.0 0.000426 2081.80835 2375.28662
2347.0 0.000426 2080.64868 2356.00195
2371.0 0.000422 2079.49707 2339.21094
2296.0 0.000436 2078.35327 2324.24292
2326.0 0.000430 2077.21753 2310.63403
2299.0 0.000435 2076.09009 2298.10547
2227.0 0.000449 2074.97046 2286.49243
2188.0 0.000457 2073.85938 2275.68677
2261.0 0.000442 2072.75635 2265.60864
2161.0 0.000463 2071.66138 2256.19019
2222.0 0.000450 2070.57495 2247.37598
2269.0 0.000441 2069.49634 2239.11621
2195.0 0.000456 2068.42651 2231.36841
2333.0 0.000429 2067.36475 2224.09497
2258.0 0.000443 2066.31128 2217.26367
2243.0 0.000446 2065.26636 2210.84644
2197.0 0.000455 2064.22974 2204.81934
2185.0 0.000458 2063.20142 2199.16089
2194.0 0.000456 2062.18188 2193.85596
2164.0 0.000462 2061.17041 2188.89014
2157.0 0.000464 2060.16748 2184.25464
2178.0 0.000459 2059.17310 2179.94312
2165.0 0.000462 2058.18726 2069.25366
2121.0 0.000471 2057.20996 2069.25342
2192.0 0.000456 2056.24097 2069.40161
2188.0 0.000457 2055.28101 2069.72632
2112.0 0.000473 2054.32910 2070.26099
2254.0 0.000444 2053.38574 2071.04932
2052.0 0.000487 2052.45117 2072.14722
2137.0 0.000468 2051.52515 2073.62671
2100.0 0.000476 2050.60742 2075.58374
2191.0 0.000456 2049.69849 2078.14600
2154.0 0.000464 2048.79810 2081.48999
2204.0 0.000454 2047.90649 2085.86987
2170.0 0.000461 2047.02319 2091.69727
2185.0 0.000458 2046.14868 2099.76514
2149.0 0.000465 2045.28247 2111.86865
2227.0 0.000449 2044.42493 2132.27881
2204.0 0.000454 2043.57593 2170.46362
2311.0 0.000433 2042.73560 2248.56519
2527.0 0.000396 2041.90369 2385.96875
2746.0 0.000364 2041.08044 2616.48169
3034.0 0.0003296 2040.26575 2953.23608
3404.0 0.0002938 2039.45947 3365.40161
3589.0 0.0002786 2038.66162 3756.80542
3827.0 0.0002613 2037.87256 3978.91284
3848.0 0.0002599 2037.09167 3910.83789
3574.0 0.0002798 2036.31934 3585.77466
3202.0 0.0003123 2035.55542 3160.62891
2862.0 0.0003494 2034.80005 2771.53369
2469.0 0.000405 2034.05322 2482.44849
2223.0 0.000450 2033.31445 2299.15918
2222.0 0.000450 2032.58423 2196.35474
2194.0 0.000456 2031.86243 2142.72705
2209.0 0.000453 2031.14880 2114.54492
2072.0 0.000483 2030.44336 2098.27124
2111.0 0.000474 2029.74646 2087.53882
2128.0 0.000470 2029.05762 2079.68506
2190.0 0.000457 2028.37720 2073.60132
2094.0 0.000478 2027.70496 2068.75977
2056.0 0.000486 2027.04065 2064.85498
2130.0 0.000469 2026.38464 2061.69653
2078.0 0.000481 2025.73669 2059.11914
2086.0 0.000479 2025.09668 2057.03052
2092.0 0.000478 2024.46472 2055.35596
2076.0 0.000482 2023.84082 2054.04199
2102.0 0.000476 2023.22510 2053.05005
2096.0 0.000477 2022.61707 2052.35400
2107.0 0.000475 2022.01672 2051.93921
2062.0 0.000485 2021.42456 2051.79932
2135.0 0.000468 2020.84009 2051.93579
2103.0 0.000476 2020.26331 2052.35913
2089.0 0.000479 2019.69421 2053.08765
2145.0 0.000466 2019.13281 2054.14893
2020.0 0.000495 2018.57898 2055.58105
2104.0 0.000475 2018.03296 2057.43555
2075.0 0.000482 2017.49438 2059.78052
2020.0 0.000495 2016.96313 2062.70313
2070.0 0.000483 2016.43945 2066.31885
2093.0 0.000478 2015.92322 2070.77905
2125.0 0.000471 2015.41418 2076.28418
2100.0 0.000476 2014.91235 2083.10425
2151.0 0.000465 2014.41797 2091.61035
2122.0 0.000471 2013.93079 2102.33691
2198.0 0.000455 2013.45056 2116.13672
2126.0 0.000470 2012.97742 2134.62427
2208.0 0.000453 2012.51135 2161.39966
2271.0 0.000440 2012.05237 2204.98804
2359.0 0.000424 2011.60010 2284.36987
2603.0 0.000384 2011.15479 2436.06128
2773.0 0.000361 2010.71619 2716.72217
3290.0 0.0003040 2010.28442 3189.95239
3854.0 0.0002595 2009.85925 3888.42529
4879.0 0.0002050 2009.44067 4757.63770
5507.0 0.0001816 2009.02869 5607.54834
6178.0 0.0001619 2008.62305 6126.70410
6033.0 0.0001658 2008.22400 6042.39453
5406.0 0.0001850 2007.83130 5391.10303
4392.0 0.0002277 2007.44470 4495.65625
3592.0 0.0002784 2007.06445 3655.78882
3071.0 0.0003256 2006.69043 3020.21216
2572.0 0.000389 2006.32239 2610.95166
2433.0 0.000411 2005.96045 2377.32764
2379.0 0.000420 2005.60449 2256.93604
2314.0 0.000432 2005.25427 2195.96021
2298.0 0.000435 2004.91003 2164.34863
2229.0 0.000449 2004.57141 2148.96631
2216.0 0.000451 2004.23865 2147.25977
2192.0 0.000456 2003.91125 2163.72217
2277.0 0.000439 2003.58948 2207.96118
2320.0 0.000431 2003.27344 2291.06567
2399.0 0.000417 2002.96252 2417.90698
2576.0 0.000388 2002.65686 2576.43433
2590.0 0.000386 2002.35645 2728.92383
2720.0 0.000368 2002.06140 2815.75464
2821.0 0.000354 2001.77124 2787.83911
2637.0 0.000379 2001.48633 2656.81641
2503.0 0.000400 2001.20618 2484.73145
2406.0 0.000416 2000.93091 2326.08813
2280.0 0.000439 2000.66052 2206.88477
2178.0 0.000459 2000.39478 2130.03418
2105.0 0.000475 2000.13379 2085.90527
2162.0 0.000463 1999.87732 2062.13794
2109.0 0.000474 1999.62524 2049.25293
2049.0 0.000488 1999.37756 2041.83716
2016.0 0.000496 1999.13428 2037.45288
2034.0 0.000492 1998.89514 2035.19629
2046.0 0.000489 1998.66028 2034.64917
2014.0 0.000497 1998.42944 2035.24182
1959.0 0.000510 1998.20276 2035.93787
2054.0 0.000487 1997.97974 2035.33777
1992.0 0.000502 1997.76074 2032.47754
2057.0 0.000486 1997.54541 2027.80762
2027.0 0.000493 1997.33386 2022.66711
2021.0 0.000495 1997.12598 2018.09485
2069.0 0.000483 1996.92139 2014.52747
2057.0 0.000486 1996.72046 2011.94897
2071.0 0.000483 1996.52283 2010.11633
2007.0 0.000498 1996.32849 2008.75769
2021.0 0.000495 1996.13721 2015.18994
1913.0 0.000523 1995.94910 2014.48413
1928.0 0.000519 1995.76404 2013.88843
1986.0 0.000504 1995.58191 2013.37634
1999.0 0.000500 1995.40271 2012.93372
2030.0 0.000493 1995.22620 2012.55249
2026.0 0.000494 1995.05249 2012.22668
1980.0 0.000505 1994.88135 2011.95215
1902.0 0.000526 1994.71265 2011.72546
2023.0 0.000494 1994.54651 2011.54382
2012.0 0.000497 1994.38281 2011.40527
1991.0 0.000502 1994.22119 2011.30835
2050.0 0.000488 1994.06201 2029.22021
1969.0 0.000508 1993.90466 2025.65918
1984.0 0.000504 1993.74951 2026.37732
2032.0 0.000492 1993.59631 2027.15381
2033.0 0.000492 1993.44495 2027.99036
1992.0 0.000502 1993.29541 2028.89063
1987.0 0.000503 1993.14758 2029.85754
1985.0 0.000504 1993.00134 2030.89478
1990.0 0.000503 1992.85669 2032.00647
1953.0 0.000512 1992.71338 2033.19714
2064.0 0.000484 1992.57153 2034.47217
2033.0 0.000492 1992.43091 2035.83728
1993.0 0.000502 1992.29163 2037.29895
1922.0 0.000520 1992.15332 2038.86438
2072.0 0.000483 1992.01624 2040.54138
1952.0 0.000512 1991.88013 2042.33911
1974.0 0.000507 1991.74475 2044.26733
2053.0 0.000487 1991.61023 2046.33716
1970.0 0.000508 1991.47644 2048.56128
1981.0 0.000505 1991.34326 2050.95361
2085.0 0.000480 1991.21069 2053.53003
2020.0 0.000495 1991.07861 2056.30786
1977.0 0.000506 1990.94690 2059.46118
1984.0 0.000504 1990.81555 2062.71021
2021.0 0.000495 1990.68445 2066.22998
1977.0 0.000506 1990.55359 2070.04980
2062.0 0.000485 1990.42261 2074.20410
1979.0 0.000505 1990.29175 2078.73218
2062.0 0.000485 1990.16089 2083.67871
2034.0 0.000492 1990.02991 2089.09619
2042.0 0.000490 1989.89856 2095.04663
2015.0 0.000496 1989.76709 2101.60107
2077.0 0.000481 1989.63513 2108.84497
2085.0 0.000480 1989.50269 2116.36670
2032.0 0.000492 1989.36987 2125.32544
2042.0 0.000490 1989.23645 2135.33936
2079.0 0.000481 1989.10217 2146.58496
2164.0 0.000462 1988.96729 2159.27783
2160.0 0.000463 1988.83154 2173.68555
2139.0 0.000468 1988.69495 2190.14038
2158.0 0.000463 1988.55750 2209.06445
2074.0 0.000482 1988.41882 2230.99634
2188.0 0.000457 1988.27917 2256.63623
2216.0 0.000451 1988.13831 2286.90771
2280.0 0.000439 1987.99622 2323.06738
2369.0 0.000422 1987.85278 2366.92310
2431.0 0.000411 1987.70801 2421.40283
2417.0 0.000414 1987.56177 2492.15015
2532.0 0.000395 1987.41394 2591.73071
2781.0 0.000360 1987.26465 2748.92676
3143.0 0.0003182 1987.11365 3024.48535
3828.0 0.0002612 1986.96082 3527.34888
4746.0 0.0002107 1986.80640 4412.04834
6142.0 0.0001628 1986.64990 5828.46045
8066.0 0.0001240 1986.49170 7811.65771
10055.0 0.0000995 1986.33142 10144.06152
11989.0 0.0000834 1986.16907 12242.08008
12737.0 0.0000785 1986.00476 13278.60449
12343.0 0.0000810 1985.83813 12715.95410
10658.0 0.0000938 1985.66931 10925.91113
8728.0 0.0001146 1985.49829 8813.74414
7339.0 0.0001363 1985.32483 7106.97021
6369.0 0.0001570 1985.14905 6227.55322
6730.0 0.0001486 1984.97070 6430.32275
8295.0 0.0001206 1984.78992 7937.20557
11262.0 0.0000888 1984.60645 10938.60156
15463.0 0.0000647 1984.42041 15395.16895
20338.0 0.0000492 1984.23181 20712.74609
25359.0 0.0000394 1984.04028 25486.81250
27130.0 0.0000369 1983.84595 27724.25195
25444.0 0.0000393 1983.64880 26125.18945
21145.0 0.0000473 1983.44885 21535.88281
15556.0 0.0000643 1983.24585 16031.56738
10728.0 0.0000932 1983.03979 11176.57129
7378.0 0.0001355 1982.83081 7633.14453
5200.0 0.0001923 1982.61865 5398.26123
4161.0 0.0002403 1982.40332 4136.33545
3476.0 0.0002877 1982.18469 3464.38623
2978.0 0.0003358 1981.96289 3100.16455
2873.0 0.0003481 1981.73792 2883.05566
2606.0 0.000384 1981.50940 2736.76147
2574.0 0.000389 1981.27771 2628.66235
2525.0 0.000396 1981.04248 2544.88135
2486.0 0.000402 1980.80359 2479.06665
2418.0 0.000414 1980.56140 2428.40845
2355.0 0.000425 1980.31555 2392.43188
2344.0 0.000427 1980.06616 2372.22607
2332.0 0.000429 1979.81299 2368.93701
2406.0 0.000416 1979.55640 2381.24097
2341.0 0.000427 1979.29590 2402.48438
2440.0 0.000410 1979.03162 2419.04956
2419.0 0.000413 1978.76367 2413.74902
2332.0 0.000429 1978.49182 2378.40552
2309.0 0.000433 1978.21606 2323.26099
2210.0 0.000452 1977.93640 2265.40527
2138.0 0.000468 1977.65295 2216.13525
2100.0 0.000476 1977.36536 2179.48145
2130.0 0.000469 1977.07373 2154.50562
2111.0 0.000474 1976.77832 2138.06348
2160.0 0.000463 1976.47876 2126.98047
2113.0 0.000473 1976.17505 2119.04224
2109.0 0.000474 1975.86719 2113.02686
2003.0 0.000499 1975.55518 2108.36426
2155.0 0.000464 1975.23901 2105.63403
2111.0 0.000474 1974.91870 2103.14038
2077.0 0.000481 1974.59424 2101.66724
2136.0 0.000468 1974.26538 2101.25293
2112.0 0.000473 1973.93237 2101.98096
2077.0 0.000481 1973.59497 2103.98804
2079.0 0.000481 1973.25330 2107.47412
2043.0 0.000489 1972.90723 2112.72607
2141.0 0.000467 1972.55701 2120.15283
2136.0 0.000468 1972.20215 2130.35815
2133.0 0.000469 1971.84314 2144.32153
2174.0 0.000460 1971.47961 2163.90527
2214.0 0.000452 1971.11169 2196.32666
2247.0 0.000445 1970.73938 2245.01563
2371.0 0.000422 1970.36243 2333.78638
2620.0 0.000382 1969.98120 2501.81714
2924.0 0.0003420 1969.59534 2808.76514
3419.0 0.0002925 1969.20508 3320.53369
4214.0 0.0002373 1968.81030 4070.63794
5162.0 0.0001937 1968.41101 5003.89746
6238.0 0.0001603 1968.00720 5924.91699
6685.0 0.0001496 1967.59888 6501.63086
6674.0 0.0001498 1967.18604 6431.93652
5990.0 0.0001669 1966.76868 5738.92188
4952.0 0.0002019 1966.34668 4779.21729
3895.0 0.0002567 1965.92017 3865.83008
3118.0 0.0003207 1965.48901 3161.46167
2728.0 0.000367 1965.05334 2696.30640
2458.0 0.000407 1964.61316 2424.21777
2359.0 0.000424 1964.16846 2276.88574
2239.0 0.000447 1963.71899 2197.84985
2279.0 0.000439 1963.26514 2152.30591
2215.0 0.000451 1962.80664 2122.70972
2103.0 0.000476 1962.34351 2101.30127
2117.0 0.000472 1961.87598 2084.76343
2126.0 0.000470 1961.40381 2053.48999
2116.0 0.000473 1960.92700 2043.22754
2062.0 0.000485 1960.44580 2034.82495
2155.0 0.000464 1959.95996 2027.88196
2055.0 0.000487 1959.46960 2022.10681
2058.0 0.000486 1958.97473 2017.28040
2109.0 0.000474 1958.47522 2013.23865
2125.0 0.000471 1957.97131 2009.85669
1993.0 0.000502 1957.46277 2007.03906
2017.0 0.000496 1956.94995 2004.71436
2120.0 0.000472 1956.43237 2002.82874
2145.0 0.000466 1955.91064 2001.34338
2071.0 0.000483 1955.38428 2000.23206
2113.0 0.000473 1954.85339 1999.47998
2057.0 0.000486 1954.31824 1999.08252
2033.0 0.000492 1953.77856 1999.04541
2093.0 0.000478 1953.23450 1999.38623
2048.0 0.000488 1952.68616 2000.13440
2089.0 0.000479 1952.13318 2001.33459
2091.0 0.000478 1951.57617 2003.04944
2082.0 0.000480 1951.01477 2005.36414
2046.0 0.000489 1950.44897 2008.39636
2032.0 0.000492 1949.87891 2012.15674
2045.0 0.000489 1949.30457 2017.20313
2134.0 0.000469 1948.72595 2023.81592
2150.0 0.000465 1948.14307 2032.89734
2030.0 0.000493 1947.55615 2046.47107
1979.0 0.000505 1946.96497 2068.94141
2095.0 0.000477 1946.36963 2108.82446
2251.0 0.000444 1945.77014 2179.72314
2352.0 0.000425 1945.16663 2298.03833
2566.0 0.000390 1944.55896 2475.06494
2695.0 0.000371 1943.94714 2704.15723
2961.0 0.0003377 1943.33154 2947.38818
3134.0 0.0003191 1942.71179 3130.87622
3137.0 0.0003188 1942.08813 3173.31519
3028.0 0.0003303 1941.46057 3060.05103
2854.0 0.0003504 1940.82910 2868.27100
2642.0 0.000379 1940.19373 2694.99365
2624.0 0.000381 1939.55444 2613.98438
2733.0 0.000366 1938.91150 2682.28491
3015.0 0.0003317 1938.26465 2950.47852
3423.0 0.0002921 1937.61401 3455.51172
4218.0 0.0002371 1936.95972 4188.71338
5040.0 0.0001984 1936.30200 5048.38330
5793.0 0.0001726 1935.64038 5802.65088
5985.0 0.0001671 1934.97522 6129.86914
5845.0 0.0001711 1934.30640 5839.47705
4941.0 0.0002024 1933.63416 5091.75586
4133.0 0.0002420 1932.95837 4221.42041
3396.0 0.0002945 1932.27917 3471.86914
2885.0 0.0003466 1931.59656 2945.91138
2580.0 0.000388 1930.91052 2642.78052
2454.0 0.000407 1930.22119 2505.31445
2441.0 0.000410 1929.52844 2459.48999
2475.0 0.000404 1928.83252 2437.26245
2332.0 0.000429 1928.13342 2389.33276
2243.0 0.000446 1927.43103 2313.85596
2277.0 0.000439 1926.72546 2226.72974
2127.0 0.000470 1926.01685 2147.60742
2141.0 0.000467 1925.30530 2086.18457
2065.0 0.000484 1924.59082 2043.56812
2060.0 0.000485 1923.87317 2015.98462
1959.0 0.000510 1923.15271 1998.33850
2024.0 0.000494 1922.42920 1986.46521
2017.0 0.000496 1921.70300 1977.75586
1963.0 0.000509 1920.97400 1970.83643
2016.0 0.000496 1920.24219 1965.04321
1959.0 0.000510 1919.50769 1960.04736
2004.0 0.000499 1918.77063 1955.66321
1946.0 0.000514 1918.03088 1951.76929
1930.0 0.000518 1917.28870 1948.35474
1967.0 0.000508 1916.54382 1945.19678
1947.0 0.000514 1915.79651 1942.31726
1859.0 0.000538 1915.04688 1939.67310
1877.0 0.000533 1914.29480 1937.37231
1889.0 0.000529 1913.54028 1935.10486
1881.0 0.000532 1912.78381 1932.98682
1927.0 0.000519 1912.02490 1930.99829
1913.0 0.000523 1911.26379 1929.12317
1893.0 0.000528 1910.50073 1927.34937
1966.0 0.000509 1909.73547 1925.66687
1882.0 0.000531 1908.96814 1924.06873
1855.0 0.000539 1908.19885 1923.85474
1824.0 0.000548 1907.42761 1922.44885
1934.0 0.000517 1906.65466 1921.10925
2009.0 0.000498 1905.88000 1920.08423
1863.0 0.000537 1905.10315 1918.83069
1889.0 0.000529 1904.32483 1917.58411
1897.0 0.000527 1903.54480 1916.34131
1872.0 0.000534 1902.76306 1915.11829
1919.0 0.000521 1901.97986 1913.92969
1894.0 0.000528 1901.19519 1912.78333
1906.0 0.000525 1900.40894 1911.67798
1948.0 0.000513 1899.62134 1910.61047
1924.0 0.000520 1898.83252 1909.57532
1760.0 0.000568 1898.04211 1908.56787
1856.0 0.000539 1897.25061 1907.58545
1910.0 0.000524 1896.45789 1906.62598
1893.0 0.000528 1895.66394 1905.68774
1956.0 0.000511 1894.86902 1904.77087
1924.0 0.000520 1894.07288 1903.89160
1820.0 0.000549 1893.27600 1903.01575
1835.0 0.000545 1892.47815 1902.16040
1855.0 0.000539 1891.67932 1900.50073
1862.0 0.000537 1890.87964 1899.70886
1816.0 0.000551 1890.07910 1898.93689
1825.0 0.000548 1889.27808 1898.18542
1834.0 0.000545 1888.47620 1897.45557
1816.0 0.000551 1887.67371 1896.74817
1869.0 0.000535 1886.87073 1896.06519
1837.0 0.000544 1886.06726 1895.40747
1883.0 0.000531 1885.26331 1894.77783
1886.0 0.000530 1884.45898 1894.17859
1878.0 0.000532 1883.65417 1893.61206
1895.0 0.000528 1882.84924 1889.97388
1846.0 0.000542 1882.04382 1889.57373
1858.0 0.000538 1881.23840 1889.21643
1929.0 0.000518 1880.43274 1888.90942
1881.0 0.000532 1879.62720 1888.66321
1924.0 0.000520 1878.82153 1888.49316
1826.0 0.000548 1878.01587 1888.43042
1899.0 0.000527 1877.21021 1888.53235
1889.0 0.000529 1876.40466 1888.90100
1865.0 0.000536 1875.59937 1889.69141
1920.0 0.000521 1874.79419 1890.84216
1883.0 0.000531 1873.98938 1892.95923
1890.0 0.000529 1873.18506 1895.73035
1858.0 0.000538 1872.38086 1899.11719
1898.0 0.000527 1871.57727 1901.72571
1925.0 0.000519 1870.77417 1903.16040
1924.0 0.000520 1869.97144 1903.50537
1830.0 0.000546 1869.16943 1904.10571
1889.0 0.000529 1868.36804 1906.07678
1908.0 0.000524 1867.56726 1911.24976
1935.0 0.000517 1866.76721 1921.33667
1924.0 0.000520 1865.96814 1939.12671
1917.0 0.000522 1865.16992 1962.83215
1979.0 0.000505 1864.37244 1992.75391
2009.0 0.000498 1863.57593 2025.65601
2067.0 0.000484 1862.78040 2056.66479
2023.0 0.000494 1861.98596 2083.53735
2092.0 0.000478 1861.19250 2109.72412
2087.0 0.000479 1860.40027 2137.99951
2176.0 0.000460 1859.60938 2164.52686
2180.0 0.000459 1858.81958 2184.46704
2177.0 0.000459 1858.03101 2207.62695
2229.0 0.000449 1857.24377 2264.45459
2472.0 0.000405 1856.45789 2392.08618
2659.0 0.000376 1855.67346 2617.49146
2971.0 0.0003366 1854.89050 2939.81201
3311.0 0.0003020 1854.10913 3312.72070
3571.0 0.0002800 1853.32935 3632.33276
3669.0 0.0002726 1852.55103 3766.41260
3539.0 0.0002826 1851.77454 3656.95410
3321.0 0.0003011 1850.99951 3374.00293
2903.0 0.0003445 1850.22644 3023.09229
2557.0 0.000391 1849.45508 2683.77808
2329.0 0.000429 1848.68542 2407.17627
2141.0 0.000467 1847.91772 2209.99951
2047.0 0.000489 1847.15198 2082.69946
1935.0 0.000517 1846.38831 2005.90820
1919.0 0.000521 1845.62646 1961.13208
1891.0 0.000529 1844.86670 1934.85156
1949.0 0.000513 1844.10901 1918.78149
1905.0 0.000525 1843.35339 1908.56030
1928.0 0.000519 1842.60010 1902.19080
1907.0 0.000524 1841.84888 1898.77429
1952.0 0.000512 1841.09998 1897.63037
1886.0 0.000530 1840.35339 1897.73718
1946.0 0.000514 1839.60913 1897.46960
1779.0 0.000562 1838.86719 1895.02502
1910.0 0.000524 1838.12756 1889.84460
1940.0 0.000515 1837.39050 1883.18103
1942.0 0.000515 1836.65588 1876.66736
1884.0 0.000531 1835.92358 1871.27698
1870.0 0.000535 1835.19409 1867.31116
1869.0 0.000535 1834.46716 1864.64075
1825.0 0.000548 1833.74280 1862.95752
1865.0 0.000536 1833.02112 1861.96790
1861.0 0.000537 1832.30212 1861.47473
1876.0 0.000533 1831.58582 1861.38403
1845.0 0.000542 1830.87219 1861.77051
1846.0 0.000542 1830.16150 1862.45593
1806.0 0.000554 1829.45349 1863.58801
1841.0 0.000543 1828.74854 1865.24658
1825.0 0.000548 1828.04651 1867.55542
1883.0 0.000531 1827.34717 1870.71924
1930.0 0.000518 1826.65088 1875.38391
1902.0 0.000526 1825.95752 1881.85889
1917.0 0.000522 1825.26721 1892.09119
1915.0 0.000522 1824.57983 1909.31396
1985.0 0.000504 1823.89563 1938.75708
2034.0 0.000492 1823.21460 1987.14575
2082.0 0.000480 1822.53662 2060.45142
2183.0 0.000458 1821.86169 2159.99390
2222.0 0.000450 1821.19006 2277.95093
2379.0 0.000420 1820.52161 2394.39673
2519.0 0.000397 1819.85632 2484.36963
2587.0 0.000387 1819.19421 2543.89453
2617.0 0.000382 1818.53564 2602.95825
2670.0 0.000375 1817.88025 2697.08765
2912.0 0.0003434 1817.22815 2846.38062
3236.0 0.0003090 1816.57935 3055.26636
3527.0 0.0002835 1815.93396 3295.60303
3738.0 0.0002675 1815.29199 3482.63281
3805.0 0.0002628 1814.65344 3500.83423
3590.0 0.0002786 1814.01819 3306.51221
3237.0 0.0003089 1813.38647 2982.55420
2757.0 0.000363 1812.75830 2644.72852
2394.0 0.000418 1812.13354 2365.08960
2259.0 0.000443 1811.51245 2168.60449
2135.0 0.000468 1810.89465 2049.82910
2022.0 0.000495 1810.28052 1990.13013
1938.0 0.000516 1809.66980 1970.41736
1948.0 0.000513 1809.06274 1976.64209
2003.0 0.000499 1808.45923 1997.39563
1997.0 0.000501 1807.85950 2020.62439
2068.0 0.000484 1807.26318 2031.67285
2030.0 0.000493 1806.67065 2019.29004
2029.0 0.000493 1806.08179 1986.12915
1934.0 0.000517 1805.49646 1945.10730
1897.0 0.000527 1804.91479 1905.88721
1872.0 0.000534 1804.33691 1876.40820
1874.0 0.000534 1803.76257 1856.07751
1851.0 0.000540 1803.19202 1842.87708
1870.0 0.000535 1802.62524 1834.86133
1821.0 0.000549 1802.06226 1829.68982
1881.0 0.000532 1801.50293 1826.05383
1798.0 0.000556 1800.94727 1823.24475
1919.0 0.000521 1800.39526 1820.94128
1816.0 0.000551 1799.84717 1818.99121
1791.0 0.000558 1799.30273 1817.31946
1828.0 0.000547 1798.76221 1815.88733
1854.0 0.000539 1798.22534 1814.67798
1845.0 0.000542 1797.69226 1813.69788
1791.0 0.000558 1797.16309 1812.97107
1873.0 0.000534 1796.63757 1812.53625
1726.0 0.000579 1796.11597 1812.42310
1766.0 0.000566 1795.59802 1812.62402
1847.0 0.000541 1795.08386 1813.04785
1744.0 0.000573 1794.57349 1813.59265
1787.0 0.000560 1794.06702 1814.14868
1778.0 0.000562 1793.56433 1814.94678
1810.0 0.000552 1793.06543 1816.72461
1771.0 0.000565 1792.57031 1820.69580
1886.0 0.000530 1792.07886 1828.49292
1813.0 0.000552 1791.59131 1841.89209
1892.0 0.000529 1791.10754 1862.06836
1905.0 0.000525 1790.62756 1888.54041
1919.0 0.000521 1790.15149 1918.21729
1996.0 0.000501 1789.67896 1945.33215
1952.0 0.000512 1789.21045 1964.88525
2058.0 0.000486 1788.74548 1980.04126
2111.0 0.000474 1788.28442 2001.58447
2039.0 0.000490 1787.82703 2036.51221
2047.0 0.000489 1787.37341 2080.10986
2062.0 0.000485 1786.92358 2114.40698
2058.0 0.000486 1786.47742 2115.78931
1984.0 0.000504 1786.03503 2076.24438
1876.0 0.000533 1785.59631 2012.47815
1955.0 0.000512 1785.16138 1946.59534
1855.0 0.000539 1784.73022 1891.98682
1830.0 0.000546 1784.30261 1853.07605
1819.0 0.000550 1783.87866 1828.41309
1838.0 0.000544 1783.45837 1813.96863
1790.0 0.000559 1783.04187 1805.69360
1796.0 0.000557 1782.62903 1800.36316
1824.0 0.000548 1782.21960 1797.03955
1856.0 0.000539 1781.81409 1794.56604
1789.0 0.000559 1781.41199 1792.58118
1814.0 0.000551 1781.01343 1790.70837
1749.0 0.000572 1780.61853 1789.28296
1848.0 0.000541 1780.22717 1788.03479
1790.0 0.000559 1779.83936 1786.92700
1761.0 0.000568 1779.45508 1784.64746
1739.0 0.000575 1779.07434 1783.77856
1737.0 0.000576 1778.69714 1782.98328
1858.0 0.000538 1778.32336 1782.24902
1798.0 0.000556 1777.95300 1781.56665
1801.0 0.000555 1777.58618 1780.93604
1790.0 0.000559 1777.22266 1780.33655
1790.0 0.000559 1776.86267 1780.92871
1756.0 0.000569 1776.50586 1780.42725
1760.0 0.000568 1776.15259 1779.95557
1767.0 0.000566 1775.80261 1779.51147
1770.0 0.000565 1775.45605 1779.09497
1769.0 0.000565 1775.11279 1778.70776
1835.0 0.000545 1774.77271 1778.21533
1724.0 0.000580 1774.43591 1778.09155
1748.0 0.000572 1774.10229 1777.88867
1728.0 0.000579 1773.77197 1777.83838
1774.0 0.000564 1773.44482 1778.03430
1807.0 0.000553 1773.12097 1778.57642
1706.0 0.000586 1772.80017 1779.51135
1737.0 0.000576 1772.48242 1780.75244
1734.0 0.000577 1772.16785 1781.99902
1792.0 0.000558 1771.85620 1782.71716
1750.0 0.000571 1771.54773 1782.39368
1796.0 0.000557 1771.24219 1781.04590
1801.0 0.000555 1770.93970 1779.21558
1830.0 0.000546 1770.64026 1777.42981
1790.0 0.000559 1770.34375 1775.96851
1792.0 0.000558 1770.04993 1774.90088
1720.0 0.000581 1769.75916 1774.17212
1749.0 0.000572 1769.47119 1773.67969
1828.0 0.000547 1769.18616 1773.33093
1837.0 0.000544 1768.90381 1773.06348
1771.0 0.000565 1768.62427 1772.84375
1754.0 0.000570 1768.34741 1772.65552
1775.0 0.000563 1768.07349 1772.49341
1714.0 0.000583 1767.80212 1772.35156
1747.0 0.000572 1767.53333 1772.23450
1783.0 0.000561 1767.26721 1772.14001
1822.0 0.000549 1767.00378 1772.06848
1794.0 0.000557 1766.74268 1772.02124
1793.0 0.000558 1766.48425 1771.99976
1768.0 0.000566 1766.22839 1772.00610
1707.0 0.000586 1765.97485 1772.19141
1743.0 0.000574 1765.72400 1772.26514
1721.0 0.000581 1765.47534 1772.37537
1733.0 0.000577 1765.22900 1772.42615
1724.0 0.000580 1764.98511 1772.62549
1745.0 0.000573 1764.74353 1772.87573
1829.0 0.000547 1764.50415 1773.18372
1802.0 0.000555 1764.26709 1773.55774
1741.0 0.000574 1764.03223 1774.00720
1792.0 0.000558 1763.79956 1774.28516
1871.0 0.000534 1763.56897 1774.93091
1756.0 0.000569 1763.34058 1775.69531
1755.0 0.000570 1763.11426 1776.59961
1773.0 0.000564 1762.88989 1777.67053
1796.0 0.000557 1762.66760 1778.94141
1803.0 0.000555 1762.44727 1780.45435
1794.0 0.000557 1762.22876 1782.27515
1767.0 0.000566 1762.01221 1784.44971
1796.0 0.000557 1761.79761 1787.08179
1824.0 0.000548 1761.58484 1790.29456
1773.0 0.000564 1761.37378 1794.25903
1847.0 0.000541 1761.16443 1799.23157
1741.0 0.000574 1760.95691 1805.64771
1804.0 0.000554 1760.75110 1814.36719
1791.0 0.000558 1760.54688 1827.25610
1862.0 0.000537 1760.34424 1848.31738
1896.0 0.000527 1760.14331 1885.34485
1949.0 0.000513 1759.94385 1951.22693
2059.0 0.000486 1759.74597 2062.82764
2276.0 0.000439 1759.54932 2235.02319
2437.0 0.000410 1759.35437 2469.47998
2702.0 0.000370 1759.16064 2740.98926
3035.0 0.0003295 1758.96838 2985.89282
3042.0 0.0003287 1758.77747 3108.75879
2959.0 0.0003380 1758.58789 3045.19800
2725.0 0.000367 1758.39954 2836.21899
2577.0 0.000388 1758.21228 2583.71069
2312.0 0.000433 1758.02625 2365.46387
2233.0 0.000448 1757.84131 2214.74463
2141.0 0.000467 1757.65759 2129.27026
2019.0 0.000495 1757.47498 2083.94800
2102.0 0.000476 1757.29321 2047.26050
1999.0 0.000500 1757.11255 2001.41516
1954.0 0.000512 1756.93298 1949.00647
1894.0 0.000528 1756.75415 1899.53137
1877.0 0.000533 1756.57629 1859.27100
1851.0 0.000540 1756.39917 1830.09143
1799.0 0.000556 1756.22302 1810.72949
1829.0 0.000547 1756.04749 1798.50781
1790.0 0.000559 1755.87280 1790.77234
1825.0 0.000548 1755.69873 1785.62268
1725.0 0.000580 1755.52551 1781.92542
1787.0 0.000560 1755.35278 1779.09949
1799.0 0.000556 1755.18066 1776.86353
1755.0 0.000570 1755.00903 1775.07800
1767.0 0.000566 1754.83801 1773.66760
1755.0 0.000570 1754.66748 1772.59375
1826.0 0.000548 1754.49731 1771.84583
1857.0 0.000539 1754.32764 1771.44714
1756.0 0.000569 1754.15833 1771.48999
1782.0 0.000561 1753.98938 1772.21191
1783.0 0.000561 1753.82068 1774.14807
1776.0 0.000563 1753.65222 1786.20959
1737.0 0.000576 1753.48401 1794.56787
1796.0 0.000557 1753.31604 1808.98193
1787.0 0.000560 1753.14819 1831.15271
1878.0 0.000532 1752.98047 1860.92322
1990.0 0.000503 1752.81287 1894.56824
1948.0 0.000513 1752.64539 1923.39868
1902.0 0.000526 1752.47778 1935.20764
1833.0 0.000546 1752.31018 1923.20618
1827.0 0.000547 1752.14258 1894.88989
1845.0 0.000542 1751.97498 1860.88049
1843.0 0.000543 1751.80725 1830.82068
1756.0 0.000569 1751.63916 1808.40527
1848.0 0.000541 1751.47107 1793.77405
1798.0 0.000556 1751.30273 1785.22253
1827.0 0.000547 1751.13416 1780.66919
1815.0 0.000551 1750.96521 1778.51147
1835.0 0.000545 1750.79602 1777.84460
1838.0 0.000544 1750.62646 1778.29443
1782.0 0.000561 1750.45654 1779.73010
1776.0 0.000563 1750.28613 1781.98718
1770.0 0.000565 1750.11536 1784.64880
1789.0 0.000559 1749.94397 1786.91089
1826.0 0.000548 1749.77222 1787.76453
1767.0 0.000566 1749.59985 1786.79932
1794.0 0.000557 1749.42688 1784.68665
1797.0 0.000556 1749.25330 1782.42212
1755.0 0.000570 1749.07910 1780.64929
1776.0 0.000563 1748.90417 1779.61646
1804.0 0.000554 1748.72864 1779.30652
1906.0 0.000525 1748.55237 1779.57275
1773.0 0.000564 1748.37537 1780.25220
1797.0 0.000556 1748.19751 1781.22632
1854.0 0.000539 1748.01880 1782.43359
1763.0 0.000567 1747.83923 1783.86084
1841.0 0.000543 1747.65881 1785.52844
1835.0 0.000545 1747.47742 1787.47974
1832.0 0.000546 1747.29517 1789.76514
1834.0 0.000545 1747.11194 1792.41138
1797.0 0.000556 1746.92786 1795.42334
1856.0 0.000539 1746.74255 1799.02563
1749.0 0.000572 1746.55627 1801.30762
1774.0 0.000564 1746.36890 1804.74146
1896.0 0.000527 1746.18042 1808.23792
1874.0 0.000534 1745.99084 1812.06262
1898.0 0.000527 1745.80005 1816.48010
1794.0 0.000557 1745.60815 1821.68335
1863.0 0.000537 1745.41504 1827.81494
1844.0 0.000542 1745.22058 1834.82874
1842.0 0.000543 1745.02490 1843.22302
1868.0 0.000535 1744.82800 1853.01672
1902.0 0.000526 1744.62976 1864.47876
1915.0 0.000522 1744.43018 1877.97070
1928.0 0.000519 1744.22925 1893.97229
1894.0 0.000528 1744.02686 1913.12292
1924.0 0.000520 1743.82312 1936.36768
1894.0 0.000528 1743.61804 1964.76721
1988.0 0.000503 1743.41138 2000.27637
2028.0 0.000493 1743.20337 2046.20984
2116.0 0.000473 1742.99390 2109.30859
2268.0 0.000441 1742.78284 2204.18506
2402.0 0.000416 1742.57019 2361.34766
2762.0 0.000362 1742.35608 2637.50049
3203.0 0.0003122 1742.14026 3120.84229
4130.0 0.0002421 1741.92297 3917.44263
5419.0 0.0001845 1741.70398 5106.24854
7035.0 0.0001421 1741.48340 6665.58740
8641.0 0.0001157 1741.26123 8388.95703
9982.0 0.0001002 1741.03735 9818.47363
10441.0 0.0000958 1740.81165 10339.68555
9709.0 0.0001030 1740.58435 9660.77832
8354.0 0.0001197 1740.35535 8164.32275
6358.0 0.0001573 1740.12451 6480.41699
5017.0 0.0001993 1739.89209 5039.56006
4030.0 0.0002481 1739.65771 4024.39551
3395.0 0.0002946 1739.42163 3441.20166
3223.0 0.0003103 1739.18372 3194.11450
3160.0 0.0003165 1738.94385 3145.84082
3220.0 0.0003106 1738.70239 3150.93140
3078.0 0.0003249 1738.45886 3087.69873
2812.0 0.000356 1738.21350 2914.76392
2593.0 0.000386 1737.96631 2679.01367
2410.0 0.000415 1737.71729 2444.70825
2182.0 0.000458 1737.46631 2250.18652
2082.0 0.000480 1737.21338 2107.67603
1963.0 0.000509 1736.95850 2012.37939
1961.0 0.000510 1736.70166 1951.86584
1924.0 0.000520 1736.44287 1913.42676
1926.0 0.000519 1736.18213 1887.69824
1896.0 0.000527 1735.91943 1869.06921
1851.0 0.000540 1735.65479 1854.60535
1828.0 0.000547 1735.38818 1842.86182
1881.0 0.000532 1735.11938 1833.08862
1823.0 0.000549 1734.84863 1824.88928
1852.0 0.000540 1734.57581 1817.98108
1832.0 0.000546 1734.30103 1812.17944
1783.0 0.000561 1734.02417 1807.36206
1803.0 0.000555 1733.74524 1803.46289
1807.0 0.000553 1733.46436 1800.48645
1756.0 0.000569 1733.18127 1798.55920
1844.0 0.000542 1732.89624 1798.06201
1818.0 0.000550 1732.60901 1799.89160
1775.0 0.000563 1732.31970 1805.84497
1783.0 0.000561 1732.02844 1818.92847
1818.0 0.000550 1731.73486 1843.13293
1933.0 0.000517 1731.43933 1882.12219
1972.0 0.000507 1731.14172 1936.70898
1933.0 0.000517 1730.84192 2001.66882
1965.0 0.000509 1730.54004 2062.64502
2019.0 0.000495 1730.23596 2096.37158
2006.0 0.000499 1729.92993 2084.10059
2021.0 0.000495 1729.62158 2031.80212
1900.0 0.000526 1729.31128 1964.00281
1908.0 0.000524 1728.99878 1899.39600
1811.0 0.000552 1728.68420 1848.57544
1769.0 0.000565 1728.36743 1813.66919
1841.0 0.000543 1728.04858 1792.34778
1758.0 0.000569 1727.72754 1780.88940
1679.0 0.000596 1727.40430 1776.29150
1732.0 0.000577 1727.07910 1777.03833
1761.0 0.000568 1726.75171 1782.76990
1717.0 0.000582 1726.42224 1793.33423
1831.0 0.000546 1726.09058 1807.65918
1797.0 0.000556 1725.75684 1822.72192
1773.0 0.000564 1725.42102 1833.03040
1777.0 0.000563 1725.08301 1832.68774
1833.0 0.000546 1724.74292 1820.88867
1797.0 0.000556 1724.40063 1802.92896
1780.0 0.000562 1724.05640 1784.66150
1710.0 0.000585 1723.70996 1769.44165
1791.0 0.000558 1723.36145 1758.36365
1701.0 0.000588 1723.01099 1751.09253
1773.0 0.000564 1722.65820 1746.66028
1732.0 0.000577 1722.30347 1744.07104
1712.0 0.000584 1721.94666 1742.58716
1702.0 0.000588 1721.58777 1741.75671
1710.0 0.000585 1721.22681 1741.32544
1674.0 0.000597 1720.86377 1741.18530
1725.0 0.000580 1720.49878 1733.57715
1678.0 0.000596 1720.13171 1734.56445
1747.0 0.000572 1719.76257 1736.08875
1741.0 0.000574 1719.39148 1737.95435
1682.0 0.000595 1719.01831 1738.98145
1699.0 0.000589 1718.64319 1738.46619
1761.0 0.000568 1718.26611 1736.33362
1735.0 0.000576 1717.88696 1733.43079
1711.0 0.000584 1717.50586 1730.67346
1725.0 0.000580 1717.12280 1728.60657
1705.0 0.000587 1716.73779 1726.68213
1704.0 0.000587 1716.35095 1726.31836
1729.0 0.000578 1715.96204 1726.46289
1702.0 0.000588 1715.57129 1726.68506
1722.0 0.000581 1715.17847 1726.54651
1730.0 0.000578 1714.78394 1725.78625
1715.0 0.000583 1714.38745 1724.64160
1695.0 0.000590 1713.98926 1723.45764
1711.0 0.000584 1713.58911 1722.46191
1671.0 0.000598 1713.18701 1721.74731
1703.0 0.000587 1712.78320 1721.31543
1680.0 0.000595 1712.37756 1721.12280
1695.0 0.000590 1711.97009 1721.11780
1782.0 0.000561 1711.56091 1721.26599
1830.0 0.000546 1711.14990 1721.55310
1683.0 0.000594 1710.73718 1721.98438
1744.0 0.000573 1710.32288 1722.57898
1801.0 0.000555 1709.90662 1723.36731
1748.0 0.000572 1709.48877 1724.39233
1714.0 0.000583 1709.06909 1725.71301
1749.0 0.000572 1708.64795 1727.40942
1751.0 0.000571 1708.22498 1729.59790
1718.0 0.000582 1707.80054 1732.46277
1661.0 0.000602 1707.37439 1736.34070
1738.0 0.000575 1706.94666 1741.92737
1744.0 0.000573 1706.51733 1750.70471
1770.0 0.000565 1706.08643 1765.65649
1835.0 0.000545 1705.65405 1792.06201
1889.0 0.000529 1705.22009 1837.66418
1995.0 0.000501 1704.78467 1911.07166
2067.0 0.000484 1704.34766 2017.62952
2189.0 0.000457 1703.90930 2152.97437
2351.0 0.000425 1703.46936 2302.79053
2387.0 0.000419 1703.02820 2414.89063
2500.0 0.000400 1702.58545 2443.64844
2408.0 0.000415 1702.14136 2372.27026
2216.0 0.000451 1701.69592 2238.54785
2164.0 0.000462 1701.24915 2093.37793
1992.0 0.000502 1700.80090 1968.70337
1852.0 0.000540 1700.35156 1876.73242
1856.0 0.000539 1699.90088 1816.31738
1755.0 0.000570 1699.44897 1780.02356
1712.0 0.000584 1698.99573 1759.24402
1748.0 0.000572 1698.54138 1747.26025
1706.0 0.000586 1698.08569 1739.90710
1761.0 0.000568 1697.62891 1734.99280
1779.0 0.000562 1697.17090 1731.39673
1771.0 0.000565 1696.71179 1728.80872
1666.0 0.000600 1696.25171 1726.91711
1659.0 0.000603 1695.79053 1725.60730
1646.0 0.000608 1695.32825 1724.82947
1649.0 0.000606 1694.86487 1724.59558
1695.0 0.000590 1694.40051 1725.01379
1692.0 0.000591 1693.93506 1726.37708
1744.0 0.000573 1693.46875 1729.32410
1664.0 0.000601 1693.00146 1735.04382
1736.0 0.000576 1692.53333 1745.36646
1701.0 0.000588 1692.06433 1762.49097
1785.0 0.000560 1691.59436 1788.10840
1822.0 0.000549 1691.12366 1822.01672
1906.0 0.000525 1690.65210 1860.52551
1902.0 0.000526 1690.17969 1895.14124
1829.0 0.000547 1689.70642 1914.16785
1934.0 0.000517 1689.23254 1912.26953
1864.0 0.000536 1688.75793 1898.55811
1808.0 0.000553 1688.28259 1887.82239
1913.0 0.000523 1687.80664 1888.96338
1884.0 0.000531 1687.33008 1901.85107
1808.0 0.000553 1686.85266 1917.32300
1944.0 0.000514 1686.37488 1920.34766
1874.0 0.000534 1685.89636 1901.34143
1828.0 0.000547 1685.41748 1865.69653
1747.0 0.000572 1684.93799 1825.79224
1793.0 0.000558 1684.45801 1790.59265
1777.0 0.000563 1683.97766 1763.99451
1727.0 0.000579 1683.49670 1746.24707
1762.0 0.000568 1683.01538 1735.62268
1693.0 0.000591 1682.53369 1729.86914
1757.0 0.000569 1682.05164 1727.14636
1671.0 0.000598 1681.56921 1726.35681
1706.0 0.000586 1681.08643 1727.08972
1754.0 0.000570 1680.60352 1729.42090
1780.0 0.000562 1680.12024 1733.66406
1731.0 0.000578 1679.63684 1740.06824
1714.0 0.000583 1679.15320 1748.45264
1788.0 0.000559 1678.66931 1757.83069
1759.0 0.000569 1678.18518 1766.10657
1811.0 0.000552 1677.70105 1770.52661
1824.0 0.000548 1677.21680 1769.88916
1753.0 0.000570 1676.73242 1766.01636
1813.0 0.000552 1676.24805 1761.75586
1810.0 0.000552 1675.76367 1759.04236
1787.0 0.000560 1675.27917 1758.73645
1796.0 0.000557 1674.79480 1760.97473
1798.0 0.000556 1674.31042 1765.53149
1731.0 0.000578 1673.82617 1772.12476
1770.0 0.000565 1673.34204 1780.60535
1915.0 0.000522 1672.85803 1791.02356
1755.0 0.000570 1672.37415 1803.62769
1844.0 0.000542 1671.89063 1818.93652
1913.0 0.000523 1671.40710 1837.41187
1893.0 0.000528 1670.92395 1860.03198
1961.0 0.000510 1670.44092 1888.11609
1915.0 0.000522 1669.95813 1923.11255
1960.0 0.000510 1669.47583 1970.51599
2104.0 0.000475 1668.99377 2038.04016
2215.0 0.000451 1668.51208 2143.23901
2414.0 0.000414 1668.03088 2320.39136
2663.0 0.000376 1667.55005 2627.43213
3288.0 0.0003041 1667.06958 3144.75732
4022.0 0.0002486 1666.58960 3954.86768
5159.0 0.0001938 1666.11011 5097.80469
6557.0 0.0001525 1665.63123 6509.77686
8135.0 0.0001229 1665.15283 7956.46973
9037.0 0.0001107 1664.67493 9013.27930
9167.0 0.0001091 1664.19763 9152.29590
8276.0 0.0001208 1663.72119 8312.97852
7015.0 0.0001426 1663.24512 6927.77734
5459.0 0.0001832 1662.76978 5488.58594
4249.0 0.0002353 1662.29517 4283.07617
3458.0 0.0002892 1661.82117 3409.36670
2889.0 0.0003461 1661.34802 2842.29395
2600.0 0.000385 1660.87549 2497.70703
2257.0 0.000443 1660.40393 2296.81396
2198.0 0.000455 1659.93311 2160.88232
2066.0 0.000484 1659.46313 2066.20825
1974.0 0.000507 1658.99390 1996.82556
1911.0 0.000523 1658.52563 1944.83606
1917.0 0.000522 1658.05835 1905.66565
1922.0 0.000520 1657.59192 1875.98352
1849.0 0.000541 1657.12646 1853.15076
1852.0 0.000540 1656.66187 1835.00037
1832.0 0.000546 1656.19836 1820.53186
1879.0 0.000532 1655.73596 1808.65735
1873.0 0.000534 1655.27441 1798.79028
1781.0 0.000561 1654.81396 1790.53259
1846.0 0.000542 1654.35474 1783.59888
1745.0 0.000573 1653.89648 1777.77344
1795.0 0.000557 1653.43933 1772.69849
1667.0 0.000600 1652.98340 1768.62891
1721.0 0.000581 1652.52869 1765.26355
1752.0 0.000571 1652.07520 1762.51758
1754.0 0.000570 1651.62280 1760.32361
1758.0 0.000569 1651.17163 1758.62708
1780.0 0.000562 1650.72180 1757.38501
1746.0 0.000573 1650.27319 1756.56250
1678.0 0.000596 1649.82593 1756.13293
1779.0 0.000562 1649.37988 1756.07581
1819.0 0.000550 1648.93530 1756.37610
1766.0 0.000566 1648.49207 1757.02405
1774.0 0.000564 1648.05017 1758.01379
1777.0 0.000563 1647.60962 1759.34412
1821.0 0.000549 1647.17041 1761.01770
1760.0 0.000568 1646.73279 1763.04041
1804.0 0.000554 1646.29651 1765.42273
1777.0 0.000563 1645.86182 1768.17847
1761.0 0.000568 1645.42847 1771.32520
1762.0 0.000568 1644.99670 1774.88538
1780.0 0.000562 1644.56653 1778.89758
1782.0 0.000561 1644.13782 1783.37036
1791.0 0.000558 1643.71069 1788.35291
1855.0 0.000539 1643.28503 1793.88892
1821.0 0.000549 1642.86108 1800.03027
1748.0 0.000572 1642.43872 1806.83679
1806.0 0.000554 1642.01794 1814.37866
1797.0 0.000556 1641.59875 1822.76208
1825.0 0.000548 1641.18140 1832.03528
1809.0 0.000553 1640.76563 1842.35291
1807.0 0.000553 1640.35156 1853.81299
1772.0 0.000564 1639.93909 1866.59351
1832.0 0.000546 1639.52844 1880.86023
1871.0 0.000534 1639.11951 1896.91235
1887.0 0.000530 1638.71228 1915.04150
1936.0 0.000517 1638.30688 1935.70313
1920.0 0.000521 1637.90332 1959.58789
1910.0 0.000524 1637.50134 1987.75610
2073.0 0.000482 1637.10132 2021.74548
2056.0 0.000486 1636.70300 2063.51025
2094.0 0.000478 1636.30664 2115.05200
2103.0 0.000476 1635.91199 2177.71973
2160.0 0.000463 1635.51941 2251.34009
2285.0 0.000438 1635.12854 2333.58325
2401.0 0.000416 1634.73950 2418.83911
2547.0 0.000393 1634.35242 2503.77075
2513.0 0.000398 1633.96729 2593.51123
2691.0 0.000372 1633.58398 2701.27856
2802.0 0.000357 1633.20264 2842.65259
3007.0 0.0003326 1632.82324 3037.30811
3380.0 0.0002959 1632.44568 3320.68994
3716.0 0.0002691 1632.07019 3766.73975
4474.0 0.0002235 1631.69666 4517.00293
5841.0 0.0001712 1631.32520 5798.31982
7933.0 0.0001261 1630.95557 7901.96484
11158.0 0.0000896 1630.58789 11093.00098
15446.0 0.0000647 1630.22229 15442.85742
20745.0 0.0000482 1629.85876 20616.22070
25611.0 0.0000390 1629.49719 25645.76953
28787.0 0.0000347 1629.13770 28873.42578
28803.0 0.0000347 1628.78015 28782.06836
25459.0 0.0000393 1628.42468 25604.83789
21117.0 0.0000474 1628.07129 21130.65039
17169.0 0.0000582 1627.71997 17089.33203
14287.0 0.0000700 1627.37061 14462.05469
13516.0 0.0000740 1627.02344 13525.74805
14249.0 0.0000702 1626.67822 14001.52246
15315.0 0.0000653 1626.33508 15145.22754
15989.0 0.0000625 1625.99414 15883.87207
15561.0 0.0000643 1625.65527 15295.18457
13328.0 0.0000750 1625.31848 13352.07031
10730.0 0.0000932 1624.98376 10785.26758
8318.0 0.0001202 1624.65125 8299.75293
6204.0 0.0001612 1624.32068 6272.45654
4689.0 0.0002133 1623.99231 4807.38818
3921.0 0.0002550 1623.66602 3843.40649
3245.0 0.0003082 1623.34192 3246.63745
2808.0 0.000356 1623.01990 2882.91724
2612.0 0.000383 1622.70007 2652.83325
2515.0 0.000398 1622.38220 2495.83081
2377.0 0.000421 1622.06665 2379.68921
2259.0 0.000443 1621.75305 2288.44141
2181.0 0.000459 1621.44165 2214.07715
2147.0 0.000466 1621.13245 2152.16699
2125.0 0.000471 1620.82532 2099.91235
2076.0 0.000482 1620.52039 2055.35059
2073.0 0.000482 1620.21765 2017.02319
1966.0 0.000509 1619.91699 1983.81116
2041.0 0.000490 1619.61841 1954.84229
1972.0 0.000507 1619.32202 1929.42786
1950.0 0.000513 1619.02771 1907.01758
1850.0 0.000541 1618.73547 1887.17004
1910.0 0.000524 1618.44556 1869.52893
1879.0 0.000532 1618.15759 1853.80762
1876.0 0.000533 1617.87195 1839.78455
1819.0 0.000550 1617.58838 1827.30115
1838.0 0.000544 1617.30676 1816.35583
1802.0 0.000555 1617.02747 1806.77466
1839.0 0.000544 1616.75024 1798.69495
1799.0 0.000556 1616.47510 1792.18213
1820.0 0.000549 1616.20215 1787.22412
1859.0 0.000538 1615.93127 1783.62585
1769.0 0.000565 1615.66248 1780.90527
1812.0 0.000552 1615.39575 1778.28906
1787.0 0.000560 1615.13123 1775.19385
1737.0 0.000576 1614.86877 1772.12268
1802.0 0.000555 1614.60840 1770.48730
1744.0 0.000573 1614.35010 1771.41956
1810.0 0.000552 1614.09387 1775.01465
1713.0 0.000584 1613.83972 1779.98425
1753.0 0.000570 1613.58752 1783.73108
1732.0 0.000577 1613.33765 1783.71985
1779.0 0.000562 1613.08972 1779.15320
1714.0 0.000583 1612.84375 1770.89941
1769.0 0.000565 1612.59985 1761.06885
1751.0 0.000571 1612.35803 1752.14063
1728.0 0.000579 1612.11829 1745.84192
1752.0 0.000571 1611.88049 1743.15527
1747.0 0.000572 1611.64478 1744.96399
1778.0 0.000562 1611.41101 1752.73938
1753.0 0.000570 1611.17932 1768.98254
1800.0 0.000556 1610.94946 1797.03552
1873.0 0.000534 1610.72180 1839.82336
1881.0 0.000532 1610.49597 1897.74902
1959.0 0.000510 1610.27209 1965.91907
1985.0 0.000504 1610.05029 2031.26880
1995.0 0.000501 1609.83032 2072.11890
2027.0 0.000493 1609.61230 2069.79590
2082.0 0.000480 1609.39624 2028.14490
1972.0 0.000507 1609.18213 1969.54700
1869.0 0.000535 1608.96985 1913.99097
1856.0 0.000539 1608.75952 1872.30322
1868.0 0.000535 1608.55103 1848.11670
1840.0 0.000543 1608.34436 1840.92712
1901.0 0.000526 1608.13965 1849.19373
1904.0 0.000525 1607.93677 1872.73315
1889.0 0.000529 1607.73572 1914.75732
1977.0 0.000506 1607.53650 1983.04553
2190.0 0.000457 1607.33911 2090.62744
2313.0 0.000432 1607.14343 2256.14771
2582.0 0.000387 1606.94958 2502.77295
2801.0 0.000357 1606.75757 2854.60132
3279.0 0.0003050 1606.56726 3325.11108
3826.0 0.0002614 1606.37866 3886.10010
4552.0 0.0002197 1606.19189 4548.56885
5337.0 0.0001874 1606.00684 5234.20850
5841.0 0.0001712 1605.82349 5797.92285
6141.0 0.0001628 1605.64172 6010.89502
5804.0 0.0001723 1605.46179 5749.36768
5435.0 0.0001840 1605.28345 5158.43018
4604.0 0.0002172 1605.10681 4493.05420
3882.0 0.0002576 1604.93176 3921.42261
3555.0 0.0002813 1604.75842 3497.94263
3294.0 0.0003036 1604.58655 3243.61133
3109.0 0.0003216 1604.41638 3114.64404
3193.0 0.0003132 1604.24780 3039.23071
3000.0 0.0003333 1604.08081 2930.99609
2819.0 0.000355 1603.91528 2748.60303
2594.0 0.000386 1603.75122 2521.48804
2345.0 0.000426 1603.58875 2298.92090
2103.0 0.000476 1603.42786 2111.76001
1928.0 0.000519 1603.26843 1970.65015
1900.0 0.000526 1603.11047 1872.87451
1817.0 0.000550 1602.95386 1808.91235
1794.0 0.000557 1602.79883 1767.89600
1744.0 0.000573 1602.64514 1740.95117
1729.0 0.000578 1602.49280 1722.19165
1720.0 0.000581 1602.34192 1708.25488
1670.0 0.000599 1602.19238 1697.40320
1767.0 0.000566 1602.04419 1688.80176
1653.0 0.000605 1601.89746 1682.12585
1610.0 0.000621 1601.75195 1677.42896
1613.0 0.000620 1601.60779 1675.14038
1649.0 0.000606 1601.46484 1676.05481
1733.0 0.000577 1601.32312 1681.15588
1689.0 0.000592 1601.18274 1691.16431
1774.0 0.000564 1601.04358 1705.84326
1690.0 0.000592 1600.90552 1723.17285
1783.0 0.000561 1600.76880 1738.50903
1716.0 0.000583 1600.63318 1744.90588
1743.0 0.000574 1600.49878 1737.64221
1736.0 0.000576 1600.36548 1719.39612
1653.0 0.000605 1600.23328 1697.11145
1718.0 0.000582 1600.10217 1676.22900
1708.0 0.000585 1599.97229 1659.37939
1706.0 0.000586 1599.84326 1647.13916
1612.0 0.000620 1599.71545 1638.89734
1652.0 0.000605 1599.58862 1633.50098
1599.0 0.000625 1599.46289 1629.94641
1656.0 0.000604 1599.33801 1627.46484
1612.0 0.000620 1599.21411 1625.60071
1620.0 0.000617 1599.09119 1624.11267
1653.0 0.000605 1598.96924 1622.88477
1654.0 0.000605 1598.84814 1621.83960
1651.0 0.000606 1598.72791 1621.01233
1609.0 0.000622 1598.60876 1620.37634
1577.0 0.000634 1598.49023 1620.02771
1624.0 0.000616 1598.37268 1620.05591
1617.0 0.000618 1598.25586 1620.61230
1578.0 0.000634 1598.13989 1621.85010
1652.0 0.000605 1598.02466 1623.84106
1613.0 0.000620 1597.91028 1626.46167
1652.0 0.000605 1597.79651 1629.26685
1584.0 0.000631 1597.68359 1631.39246
1572.0 0.000636 1597.57129 1631.82227
1593.0 0.000628 1597.45972 1630.28394
1652.0 0.000605 1597.34875 1627.58215
1673.0 0.000598 1597.23840 1624.75269
1630.0 0.000613 1597.12878 1622.45532
1611.0 0.000621 1597.01965 1620.70728
1615.0 0.000619 1596.91125 1620.10425
1601.0 0.000625 1596.80334 1620.28918
1608.0 0.000622 1596.69592 1621.25159
1639.0 0.000610 1596.58911 1623.12915
1656.0 0.000604 1596.48279 1626.34192
1614.0 0.000620 1596.37695 1631.68042
1654.0 0.000605 1596.27148 1640.28333
1683.0 0.000594 1596.16650 1653.38208
1682.0 0.000595 1596.06201 1671.74683
1660.0 0.000602 1595.95789 1694.91382
1696.0 0.000590 1595.85425 1720.30127
1687.0 0.000593 1595.75085 1742.43933
1764.0 0.000567 1595.64783 1754.25159
1699.0 0.000589 1595.54517 1754.00525
1717.0 0.000582 1595.44275 1746.41345
1810.0 0.000552 1595.34070 1742.35291
1760.0 0.000568 1595.23889 1750.08093
1828.0 0.000547 1595.13733 1776.78711
1867.0 0.000536 1595.03601 1825.56946
1948.0 0.000513 1594.93494 1896.58850
2026.0 0.000494 1594.83398 1982.22400
2136.0 0.000468 1594.73328 2075.18335
2184.0 0.000458 1594.63269 2146.30078
2236.0 0.000447 1594.53223 2166.22803
2168.0 0.000461 1594.43188 2130.66211
2061.0 0.000485 1594.33167 2067.24487
1930.0 0.000518 1594.23145 2007.80798
1940.0 0.000515 1594.13135 1967.40918
2025.0 0.000494 1594.03137 1944.15710
1879.0 0.000532 1593.93127 1922.94690
1833.0 0.000546 1593.83130 1893.74988
1739.0 0.000575 1593.73120 1848.99866
1802.0 0.000555 1593.63123 1798.86682
1687.0 0.000593 1593.53101 1750.77649
1680.0 0.000595 1593.43079 1709.86658
1605.0 0.000623 1593.33057 1678.46997
1675.0 0.000597 1593.23022 1656.26733
1629.0 0.000614 1593.12976 1641.43140
1613.0 0.000620 1593.02905 1631.82642
1664.0 0.000601 1592.92822 1625.53955
1586.0 0.000631 1592.82727 1621.30078
1604.0 0.000623 1592.72607 1618.29761
1649.0 0.000606 1592.62463 1616.07166
1634.0 0.000612 1592.52307 1614.38403
1631.0 0.000613 1592.42126 1613.12207
1607.0 0.000622 1592.31909 1612.24634
1632.0 0.000613 1592.21667 1611.75098
1604.0 0.000623 1592.11401 1611.63489
1574.0 0.000635 1592.01099 1611.86560
1589.0 0.000629 1591.90759 1612.35413
1590.0 0.000629 1591.80383 1612.92688
1635.0 0.000612 1591.69983 1613.37585
1631.0 0.000613 1591.59546 1613.59570
1599.0 0.000625 1591.49048 1614.11609
1615.0 0.000619 1591.38525 1615.39014
1659.0 0.000603 1591.27954 1617.81067
1661.0 0.000602 1591.17346 1621.43237
1651.0 0.000606 1591.06689 1625.81140
1643.0 0.000609 1590.95972 1629.85693
1625.0 0.000615 1590.85217 1631.92151
1536.0 0.000651 1590.74414 1630.85413
1595.0 0.000627 1590.63550 1627.22388
1556.0 0.000643 1590.52637 1622.62793
1567.0 0.000638 1590.41675 1618.34839
1602.0 0.000624 1590.30652 1615.02588
1603.0 0.000624 1590.19568 1612.80945
1591.0 0.000629 1590.08423 1611.58130
1629.0 0.000614 1589.97217 1611.10193
1586.0 0.000631 1589.85950 1611.13635
1617.0 0.000618 1589.74622 1611.51306
1566.0 0.000639 1589.63220 1612.13269
1628.0 0.000614 1589.51758 1612.95056
1525.0 0.000656 1589.40222 1613.95801
1611.0 0.000621 1589.28613 1615.17163
1624.0 0.000616 1589.16943 1616.63464
1573.0 0.000636 1589.05200 1618.42615
1642.0 0.000609 1588.93384 1620.67334
1582.0 0.000632 1588.81494 1623.54529
1608.0 0.000622 1588.69519 1627.28052
1593.0 0.000628 1588.57483 1632.04688
1623.0 0.000616 1588.45349 1637.90076
1661.0 0.000602 1588.33142 1644.65613
1646.0 0.000608 1588.20862 1651.76648
1638.0 0.000611 1588.08496 1658.36743
1624.0 0.000616 1587.96045 1663.95862
1600.0 0.000625 1587.83508 1669.36975
1646.0 0.000608 1587.70886 1676.65698
1602.0 0.000624 1587.58179 1688.68311
1728.0 0.000579 1587.45386 1709.59717
1773.0 0.000564 1587.32507 1745.66016
1809.0 0.000553 1587.19531 1805.39246
1950.0 0.000513 1587.06470 1898.01550
2005.0 0.000499 1586.93311 2029.60205
2227.0 0.000449 1586.80066 2197.32422
2408.0 0.000415 1586.66711 2382.58423
2425.0 0.000412 1586.53284 2543.86035
2530.0 0.000395 1586.39746 2621.64893
2530.0 0.000395 1586.26111 2578.78345
2474.0 0.000404 1586.12378 2442.60840
2334.0 0.000428 1585.98560 2273.91138
2152.0 0.000465 1585.84631 2119.40723
2018.0 0.000496 1585.70605 2002.46106
1900.0 0.000526 1585.56482 1930.10376
1854.0 0.000539 1585.42249 1901.14819
1880.0 0.000532 1585.27905 1913.82507
1979.0 0.000505 1585.13477 1972.57678
2130.0 0.000469 1584.98938 2091.83228
2347.0 0.000426 1584.84290 2297.27051
2604.0 0.000384 1584.69531 2616.55469
3173.0 0.0003152 1584.54675 3066.84131
3898.0 0.0002565 1584.39709 3633.43359
4333.0 0.0002308 1584.24634 4244.87549
4881.0 0.0002049 1584.09460 4748.81396
4991.0 0.0002004 1583.94165 4940.18408
4730.0 0.0002114 1583.78760 4716.44141
4365.0 0.0002291 1583.63257 4192.53027
3501.0 0.0002856 1583.47632 3575.65796
2991.0 0.0003343 1583.31885 3012.63184
2668.0 0.000375 1583.16052 2570.26147
2261.0 0.000442 1583.00085 2259.50757
2106.0 0.000475 1582.84021 2058.56860
1962.0 0.000510 1582.67822 1933.33826
1863.0 0.000537 1582.51526 1853.32312
1786.0 0.000560 1582.35120 1798.84119
1763.0 0.000567 1582.18591 1759.36316
1786.0 0.000560 1582.01941 1729.53564
1694.0 0.000590 1581.85181 1706.54565
1679.0 0.000596 1581.68311 1688.68860
1686.0 0.000593 1581.51318 1674.70850
1683.0 0.000594 1581.34204 1663.60645
1640.0 0.000610 1581.16980 1654.61670
1648.0 0.000607 1580.99634 1647.19189
1602.0 0.000624 1580.82178 1640.96436
1590.0 0.000629 1580.64600 1635.69458
1611.0 0.000621 1580.46899 1631.22205
1656.0 0.000604 1580.29089 1627.44177
1599.0 0.000625 1580.11157 1624.29492
1556.0 0.000643 1579.93103 1621.59778
1668.0 0.000600 1579.74927 1619.26099
1599.0 0.000625 1579.56641 1617.12708
1601.0 0.000625 1579.38232 1615.08008
1645.0 0.000608 1579.19702 1613.16089
1666.0 0.000600 1579.01050 1611.51465
1640.0 0.000610 1578.82288 1610.33459
1709.0 0.000585 1578.63403 1609.64197
1655.0 0.000604 1578.44397 1609.34241
1575.0 0.000635 1578.25269 1609.16272
1600.0 0.000625 1578.06030 1608.66406
1598.0 0.000626 1577.86658 1607.45361
1568.0 0.000638 1577.67188 1605.58215
1652.0 0.000605 1577.47583 1603.44373
1611.0 0.000621 1577.27856 1601.40125
1580.0 0.000633 1577.08020 1599.65051
1639.0 0.000610 1576.88062 1598.27344
1595.0 0.000627 1576.67993 1597.20361
1582.0 0.000632 1576.47791 1596.40015
1638.0 0.000611 1576.27478 1595.79517
1609.0 0.000622 1576.07043 1595.33606
1658.0 0.000603 1575.86499 1595.10327
1592.0 0.000628 1575.65820 1594.85400
1593.0 0.000628 1575.45044 1594.69397
1571.0 0.000637 1575.24146 1594.62256
1629.0 0.000614 1575.03125 1594.64294
1613.0 0.000620 1574.81982 1594.76355
1622.0 0.000617 1574.60730 1594.99463
1614.0 0.000620 1574.39368 1595.35254
1625.0 0.000615 1574.17883 1595.84509
1598.0 0.000626 1573.96289 1596.53674
1608.0 0.000622 1573.74585 1597.47583
1633.0 0.000612 1573.52747 1598.77832
1536.0 0.000651 1573.30811 1600.65955
1609.0 0.000622 1573.08752 1603.49207
1591.0 0.000629 1572.86584 1607.84180
1549.0 0.000646 1572.64307 1614.42981
1638.0 0.000611 1572.41907 1623.95251
1633.0 0.000612 1572.19409 1636.76306
1640.0 0.000610 1571.96790 1652.45703
1637.0 0.000611 1571.74060 1669.38452
1642.0 0.000609 1571.51233 1684.26733
1728.0 0.000579 1571.28284 1692.56287
1638.0 0.000611 1571.05225 1695.27563
1688.0 0.000592 1570.82068 1695.06140
1700.0 0.000588 1570.58789 1695.57507
1702.0 0.000588 1570.35413 1697.84778
1659.0 0.000603 1570.11926 1700.48145
1701.0 0.000588 1569.88342 1702.27051
1662.0 0.000602 1569.64648 1705.38892
1755.0 0.000570 1569.40845 1715.25476
1730.0 0.000578 1569.16943 1738.83447
1747.0 0.000572 1568.92932 1784.62524
1880.0 0.000532 1568.68823 1862.49731
1979.0 0.000505 1568.44604 1982.22119
2101.0 0.000476 1568.20300 2149.58813
2352.0 0.000425 1567.95886 2360.01050
2530.0 0.000395 1567.71375 2590.99487
2808.0 0.000356 1567.46765 2802.01929
2829.0 0.000353 1567.22058 2944.46411
2896.0 0.0003453 1566.97253 2982.23828
2768.0 0.000361 1566.72351 2888.80078
2608.0 0.000383 1566.47351 2690.27515
2349.0 0.000426 1566.22253 2449.04932
2122.0 0.000471 1565.97083 2218.07983
2010.0 0.000498 1565.71802 2026.35376
1825.0 0.000548 1565.46423 1883.16833
1731.0 0.000578 1565.20972 1784.66931
1688.0 0.000592 1564.95422 1720.86670
1734.0 0.000577 1564.69775 1680.78967
1618.0 0.000618 1564.44043 1655.53113
1628.0 0.000614 1564.18237 1639.02026
1621.0 0.000617 1563.92334 1627.62488
1572.0 0.000636 1563.66345 1619.39734
1638.0 0.000611 1563.40271 1613.39063
1672.0 0.000598 1563.14111 1609.27490
1614.0 0.000620 1562.87878 1607.07581
1581.0 0.000633 1562.61560 1607.00610
1615.0 0.000619 1562.35156 1609.26477
1646.0 0.000608 1562.08667 1613.77405
1609.0 0.000622 1561.82117 1619.87830
1610.0 0.000621 1561.55481 1625.99390
1611.0 0.000621 1561.28772 1629.48303
1681.0 0.000595 1561.01978 1627.85291
1751.0 0.000571 1560.75122 1621.16553
1647.0 0.000607 1560.48181 1611.96387
1574.0 0.000635 1560.21167 1602.84534
1695.0 0.000590 1559.94092 1595.31189
1667.0 0.000600 1559.66943 1589.92371
1575.0 0.000635 1559.39722 1586.62341
1595.0 0.000627 1559.12439 1585.04309
1636.0 0.000611 1558.85083 1584.74573
1607.0 0.000622 1558.57666 1585.33093
1601.0 0.000625 1558.30176 1586.52417
1566.0 0.000639 1558.02625 1588.44580
1526.0 0.000655 1557.75024 1591.61377
1567.0 0.000638 1557.47351 1596.62744
1593.0 0.000628 1557.19617 1603.86279
1572.0 0.000636 1556.91833 1613.30676
1662.0 0.000602 1556.63977 1624.83521
1651.0 0.000606 1556.36072 1638.18542
1645.0 0.000608 1556.08118 1654.19617
1693.0 0.000591 1555.80090 1672.30408
1721.0 0.000581 1555.52026 1688.80811
1748.0 0.000572 1555.23901 1696.79578
1693.0 0.000591 1554.95740 1690.51965
1730.0 0.000578 1554.67517 1671.62439
1702.0 0.000588 1554.39246 1647.19299
1662.0 0.000602 1554.10938 1623.47485
1697.0 0.000589 1553.82568 1603.75403
1583.0 0.000632 1553.54163 1589.03430
1588.0 0.000630 1553.25708 1578.92126
1555.0 0.000643 1552.97217 1572.35291
1565.0 0.000639 1552.68677 1568.16797
1600.0 0.000625 1552.40100 1565.43298
1596.0 0.000627 1552.11487 1563.52856
1540.0 0.000649 1551.82837 1562.09839
1585.0 0.000631 1551.54150 1560.95544
1543.0 0.000648 1551.25427 1560.00586
1575.0 0.000635 1550.96667 1559.20032
1575.0 0.000635 1550.67871 1570.09619
1579.0 0.000633 1550.39050 1569.79932
1611.0 0.000621 1550.10193 1569.92700
1605.0 0.000623 1549.81311 1569.88513
1582.0 0.000632 1549.52405 1570.01855
1528.0 0.000654 1549.23462 1570.34924
1576.0 0.000635 1548.94495 1571.14343
1644.0 0.000608 1548.65515 1572.52722
1653.0 0.000605 1548.36499 1574.69775
1570.0 0.000637 1548.07471 1577.77478
1566.0 0.000639 1547.78406 1581.63757
1621.0 0.000617 1547.49341 1585.95801
1595.0 0.000627 1547.20251 1589.77905
1612.0 0.000620 1546.91138 1591.80969
1621.0 0.000617 1546.62012 1591.28906
1594.0 0.000627 1546.32874 1588.89978
1646.0 0.000608 1546.03711 1606.21973
1601.0 0.000625 1545.74548 1604.93750
1549.0 0.000646 1545.45374 1605.42346
1521.0 0.000657 1545.16187 1607.99573
1657.0 0.000604 1544.86987 1612.48242
1578.0 0.000634 1544.57776 1617.74060
1624.0 0.000616 1544.28577 1623.20850
1583.0 0.000632 1543.99353 1625.64038
1620.0 0.000617 1543.70129 1625.51184
1611.0 0.000621 1543.40906 1622.88660
1538.0 0.000650 1543.11682 1618.78015
1604.0 0.000623 1542.82446 1615.05737
1614.0 0.000620 1542.53235 1612.32483
1570.0 0.000637 1542.23999 1610.74988
1584.0 0.000631 1541.94788 1610.31116
1567.0 0.000638 1541.65564 1610.89380
1610.0 0.000621 1541.36353 1612.38635
1547.0 0.000646 1541.07141 1614.62659
1644.0 0.000608 1540.77942 1617.40076
1701.0 0.000588 1540.48755 1620.39478
1623.0 0.000616 1540.19568 1623.18396
1661.0 0.000602 1539.90405 1625.42920
1602.0 0.000624 1539.61243 1627.19519
1717.0 0.000582 1539.32092 1628.85791
1584.0 0.000631 1539.02966 1630.76855
1584.0 0.000631 1538.73840 1633.12903
1627.0 0.000615 1538.44739 1636.02307
1608.0 0.000622 1538.15662 1639.46350
1628.0 0.000614 1537.86597 1643.42859
1652.0 0.000605 1537.57544 1647.89722
1659.0 0.000603 1537.28516 1652.82178
1635.0 0.000612 1536.99512 1658.30688
1602.0 0.000624 1536.70532 1664.35693
1709.0 0.000585 1536.41577 1671.10620
1714.0 0.000583 1536.12634 1678.55688
1603.0 0.000624 1535.83728 1686.95654
1649.0 0.000606 1535.54834 1696.63367
1686.0 0.000593 1535.25989 1708.16943
1735.0 0.000576 1534.97156 1722.53015
1742.0 0.000574 1534.68359 1741.20813
1769.0 0.000565 1534.39600 1765.95715
1806.0 0.000554 1534.10864 1798.63098
1871.0 0.000534 1533.82153 1840.19104
1815.0 0.000551 1533.53479 1889.69043
1920.0 0.000521 1533.24841 1942.98096
1977.0 0.000506 1532.96252 1991.46289
1966.0 0.000509 1532.67676 2023.81873
2054.0 0.000487 1532.39148 2034.96436
2020.0 0.000495 1532.10669 2032.26160
2076.0 0.000482 1531.82214 2028.23279
2023.0 0.000494 1531.53796 2032.17725
2058.0 0.000486 1531.25427 2048.84082
2018.0 0.000496 1530.97095 2080.23462
2113.0 0.000473 1530.68811 2126.45044
2144.0 0.000466 1530.40564 2188.16455
2318.0 0.000431 1530.12366 2268.99292
2357.0 0.000424 1529.84204 2377.81836
2509.0 0.000399 1529.56091 2532.45947
2873.0 0.0003481 1529.28027 2766.28442
3374.0 0.0002964 1529.00012 3136.40234
3883.0 0.0002575 1528.72034 3728.29175
4964.0 0.0002015 1528.44116 4648.10986
6358.0 0.0001573 1528.16260 5995.31543
7940.0 0.0001259 1527.88428 7807.33984
10078.0 0.0000992 1527.60657 9999.78125
12086.0 0.0000827 1527.32935 12280.83398
13471.0 0.0000742 1527.05273 14081.33887
14088.0 0.0000710 1526.77649 14698.97656
13466.0 0.0000743 1526.50098 13859.22461
12027.0 0.0000831 1526.22583 12016.62598
10249.0 0.0000976 1525.95142 9870.69824
8141.0 0.0001228 1525.67749 7921.25830
6722.0 0.0001488 1525.40405 6419.46094
5591.0 0.0001789 1525.13123 5446.96680
5237.0 0.0001909 1524.85901 5001.87061
5222.0 0.0001915 1524.58728 5076.32373
5610.0 0.0001783 1524.31628 5710.49951
6927.0 0.0001444 1524.04578 7003.38428
8603.0 0.0001162 1523.77588 9069.94531
11780.0 0.0000849 1523.50659 11951.15234
15723.0 0.0000636 1523.23792 15495.29102
19340.0 0.0000517 1522.96985 19217.60547
21891.0 0.0000457 1522.70239 22171.78125
22629.0 0.0000442 1522.43555 23158.32031
21442.0 0.0000466 1522.16943 21654.02148
18362.0 0.0000545 1521.90393 18398.41992
14646.0 0.0000683 1521.63904 14597.26270
11032.0 0.0000906 1521.37476 11102.56934
8297.0 0.0001205 1521.11121 8312.66309
6322.0 0.0001582 1520.84814 6309.79834
5031.0 0.0001988 1520.58594 4987.03223
4241.0 0.0002358 1520.32422 4152.91064
3647.0 0.0002742 1520.06323 3614.86768
3339.0 0.0002995 1519.80298 3235.66943
2996.0 0.0003338 1519.54333 2945.37549
2738.0 0.000365 1519.28442 2714.54541
2601.0 0.000384 1519.02612 2529.28906
2492.0 0.000401 1518.76855 2380.83765
2257.0 0.000443 1518.51172 2262.33618
2206.0 0.000453 1518.25549 2167.91528
2019.0 0.000495 1518.00000 2092.29883
2057.0 0.000486 1517.74512 2030.95447
1987.0 0.000503 1517.49109 1980.34607
1918.0 0.000521 1517.23767 1937.90320
1903.0 0.000525 1516.98486 1901.83411
1883.0 0.000531 1516.73291 1870.86438
1862.0 0.000537 1516.48157 1844.11084
1826.0 0.000548 1516.23096 1820.99219
1768.0 0.000566 1515.98108 1801.19482
1810.0 0.000552 1515.73206 1784.65820
1815.0 0.000551 1515.48352 1771.53687
1773.0 0.000564 1515.23584 1762.09607
1738.0 0.000575 1514.98889 1756.50818
1758.0 0.000569 1514.74255 1754.58044
1761.0 0.000568 1514.49707 1755.42297
1714.0 0.000583 1514.25220 1757.05103
1743.0 0.000574 1514.00806 1756.36377
1781.0 0.000561 1513.76465 1750.88440
1772.0 0.000564 1513.52197 1741.35840
1638.0 0.000611 1513.28003 1730.83557
1718.0 0.000582 1513.03894 1721.50696
1694.0 0.000590 1512.79846 1713.34338
1694.0 0.000590 1512.55872 1704.52686
1700.0 0.000588 1512.31958 1693.40466
1719.0 0.000582 1512.08130 1680.46326
1671.0 0.000598 1511.84375 1667.56006
1708.0 0.000585 1511.60693 1656.19250
1652.0 0.000605 1511.37085 1647.07556
1610.0 0.000621 1511.13550 1640.36987
1665.0 0.000601 1510.90088 1635.73108
1576.0 0.000635 1510.66687 1633.25781
1635.0 0.000612 1510.43372 1632.50671
1591.0 0.000629 1510.20117 1633.36865
1636.0 0.000611 1509.96948 1635.95569
1712.0 0.000584 1509.73840 1640.71326
1601.0 0.000625 1509.50806 1654.58789
1671.0 0.000598 1509.27844 1667.87720
1675.0 0.000597 1509.04956 1690.17615
1693.0 0.000591 1508.82141 1727.63318
1819.0 0.000550 1508.59399 1788.93250
1906.0 0.000525 1508.36719 1883.98901
2055.0 0.000487 1508.14124 2020.66199
2147.0 0.000466 1507.91589 2199.65820
2371.0 0.000422 1507.69128 2408.15161
2536.0 0.000394 1507.46729 2612.00659
2639.0 0.000379 1507.24414 2751.48926
2761.0 0.000362 1507.02161 2764.81006
2599.0 0.000385 1506.79993 2644.16870
2380.0 0.000420 1506.57874 2444.74365
2123.0 0.000471 1506.35828 2230.41064
2042.0 0.000490 1506.13855 2028.89490
1874.0 0.000534 1505.91956 1880.12756
1786.0 0.000560 1505.70117 1773.54150
1687.0 0.000593 1505.48352 1702.89905
1670.0 0.000599 1505.26648 1658.05371
1686.0 0.000593 1505.05017 1629.88977
1571.0 0.000637 1504.83447 1611.67383
1561.0 0.000641 1504.61951 1599.16199
1547.0 0.000646 1504.40527 1589.96521
1580.0 0.000633 1504.19153 1582.85669
1529.0 0.000654 1503.97852 1577.11475
1573.0 0.000636 1503.76611 1572.40894
1542.0 0.000649 1503.55444 1568.52112
1550.0 0.000645 1503.34326 1565.31531
1579.0 0.000633 1503.13281 1562.83398
1563.0 0.000640 1502.92310 1560.83508
1543.0 0.000648 1502.71387 1539.55896
1462.0 0.000684 1502.50537 1539.56689
1525.0 0.000656 1502.29736 1540.70593
1568.0 0.000638 1502.09021 1543.33057
1616.0 0.000619 1501.88342 1547.73914
1631.0 0.000613 1501.67737 1553.97974
1588.0 0.000630 1501.47180 1561.60486
1596.0 0.000627 1501.26697 1569.37500
1602.0 0.000624 1501.06274 1575.03528
1618.0 0.000618 1500.85901 1575.70105
1557.0 0.000642 1500.65588 1571.38855
1583.0 0.000632 1500.45337 1563.69385
1569.0 0.000637 1500.25134 1555.19189
1523.0 0.000657 1500.04993 1547.57556
1571.0 0.000637 1499.84912 1541.58582
1509.0 0.000663 1499.64880 1537.37695
1545.0 0.000647 1499.44910 1534.70117
1621.0 0.000617 1499.25000 1533.18042
1564.0 0.000639 1499.05127 1532.44788
1541.0 0.000649 1498.85315 1532.22424
1522.0 0.000657 1498.65552 1532.33093
1488.0 0.000672 1498.45850 1532.66699
1557.0 0.000642 1498.26196 1533.18115
1554.0 0.000644 1498.06604 1533.84912
1476.0 0.000678 1497.87048 1534.66150
1566.0 0.000639 1497.67542 1535.61523
1606.0 0.000623 1497.48096 1536.71252
1557.0 0.000642 1497.28687 1537.95813
1547.0 0.000646 1497.09338 1539.35962
1496.0 0.000668 1496.90027 1540.92700
1560.0 0.000641 1496.70764 1542.67297
1581.0 0.000633 1496.51550 1544.61218
1491.0 0.000671 1496.32385 1546.76294
1582.0 0.000632 1496.13269 1549.08740
1509.0 0.000663 1495.94177 1551.73071
1600.0 0.000625 1495.75146 1554.66125
1534.0 0.000652 1495.56152 1557.91345
1523.0 0.000657 1495.37207 1561.52612
1571.0 0.000637 1495.18298 1565.54700
1606.0 0.000623 1494.99438 1569.99072
1583.0 0.000632 1494.80603 1575.00635
1616.0 0.000619 1494.61829 1580.63000
1550.0 0.000645 1494.43079 1586.95557
1583.0 0.000632 1494.24365 1594.09534
1646.0 0.000608 1494.05701 1602.18652
1648.0 0.000607 1493.87073 1611.39526
1723.0 0.000580 1493.68469 1622.19409
1649.0 0.000606 1493.49915 1634.30676
1619.0 0.000618 1493.31396 1648.31238
1656.0 0.000604 1493.12903 1664.61084
1678.0 0.000596 1492.94446 1683.71387
1676.0 0.000597 1492.76025 1706.31335
1731.0 0.000578 1492.57629 1733.23914
1769.0 0.000565 1492.39282 1766.59387
1723.0 0.000580 1492.20947 1806.61682
1773.0 0.000564 1492.02661 1857.30359
1867.0 0.000536 1491.84387 1924.48218
1977.0 0.000506 1491.66162 2019.17468
2115.0 0.000473 1491.47961 2161.55005
2322.0 0.000431 1491.29773 2385.52417
2706.0 0.000370 1491.11621 2741.30713
3250.0 0.0003077 1490.93494 3291.27808
3987.0 0.0002508 1490.75403 4094.62842
5185.0 0.0001929 1490.57324 5178.68115
6653.0 0.0001503 1490.39282 6506.94629
8002.0 0.0001250 1490.21252 7926.64404
9261.0 0.0001080 1490.03247 9124.73438
9821.0 0.0001018 1489.85278 9667.24219
9474.0 0.0001056 1489.67310 9291.55762
8359.0 0.0001196 1489.49377 8184.77393
6905.0 0.0001448 1489.31470 6779.41162
5481.0 0.0001824 1489.13574 5421.01904
4382.0 0.0002282 1488.95691 4288.81934
3322.0 0.0003010 1488.77844 3439.90015
2926.0 0.0003418 1488.59998 2856.68530
2541.0 0.000394 1488.42188 2484.83643
2317.0 0.000432 1488.24390 2262.29150
2180.0 0.000459 1488.06592 2136.26440
2110.0 0.000474 1487.88818 2068.29883
1969.0 0.000508 1487.71069 2031.29761
1976.0 0.000506 1487.53320 2004.27612
1917.0 0.000522 1487.35596 1970.54260
1868.0 0.000535 1487.17883 1923.24365
1812.0 0.000552 1487.00183 1867.71094
1837.0 0.000544 1486.82483 1813.37012
1776.0 0.000563 1486.64807 1766.90540
1736.0 0.000576 1486.47144 1731.47644
1796.0 0.000557 1486.29480 1707.75781
1707.0 0.000586 1486.11829 1694.82104
1654.0 0.000605 1485.94189 1690.71008
1666.0 0.000600 1485.76550 1692.76489
1696.0 0.000590 1485.58936 1698.39197
1667.0 0.000600 1485.41321 1706.45447
1697.0 0.000589 1485.23706 1717.06262
1750.0 0.000571 1485.06104 1728.40759
1721.0 0.000581 1484.88501 1734.92029
1725.0 0.000580 1484.70911 1729.11792
1669.0 0.000599 1484.53320 1708.30457
1636.0 0.000611 1484.35742 1677.75183
1591.0 0.000629 1484.18152 1645.13757
1647.0 0.000607 1484.00574 1615.64404
1545.0 0.000647 1483.83008 1591.58154
1589.0 0.000629 1483.65430 1573.33655
1558.0 0.000642 1483.47852 1560.18152
1573.0 0.000636 1483.30273 1550.91223
1487.0 0.000672 1483.12708 1544.32251
1541.0 0.000649 1482.95142 1539.45850
1575.0 0.000635 1482.77563 1535.67749
1592.0 0.000628 1482.59998 1532.59216
1548.0 0.000646 1482.42407 1529.98511
1526.0 0.000655 1482.24841 1527.73645
1558.0 0.000642 1482.07251 1525.77454
1551.0 0.000645 1481.89673 1524.07263
1535.0 0.000651 1481.72083 1522.56458
1498.0 0.000668 1481.54492 1521.24866
1550.0 0.000645 1481.36902 1520.11035
1531.0 0.000653 1481.19299 1519.14050
1513.0 0.000661 1481.01709 1518.37964
1504.0 0.000665 1480.84094 1517.72778
1471.0 0.000680 1480.66479 1517.23096
1510.0 0.000662 1480.48853 1516.89185
1540.0 0.000649 1480.31226 1516.72339
1528.0 0.000654 1480.13599 1516.71753
1529.0 0.000654 1479.95959 1516.89490
1545.0 0.000647 1479.78296 1517.27393
1548.0 0.000646 1479.60645 1517.87830
1489.0 0.000672 1479.42993 1518.74048
1521.0 0.000657 1479.25317 1519.90356
1558.0 0.000642 1479.07629 1521.42480
1464.0 0.000683 1478.89941 1523.38586
1443.0 0.000693 1478.72241 1525.86597
1556.0 0.000643 1478.54529 1529.00891
1517.0 0.000659 1478.36816 1533.05334
1539.0 0.000650 1478.19092 1538.30029
1530.0 0.000654 1478.01343 1545.41602
1590.0 0.000629 1477.83606 1555.52551
1554.0 0.000644 1477.65833 1570.46130
1579.0 0.000633 1477.48071 1592.79187
1617.0 0.000618 1477.30286 1625.45032
1696.0 0.000590 1477.12488 1670.94995
1737.0 0.000576 1476.94678 1730.27075
1900.0 0.000526 1476.76868 1801.56165
1951.0 0.000513 1476.59045 1878.58960
2083.0 0.000480 1476.41199 1949.89795
2041.0 0.000490 1476.23352 2004.34387
2087.0 0.000479 1476.05481 2045.34338
2012.0 0.000497 1475.87610 2094.23022
2243.0 0.000446 1475.69714 2173.63184
2380.0 0.000420 1475.51819 2292.54004
2457.0 0.000407 1475.33899 2440.30737
2619.0 0.000382 1475.15967 2583.15747
2571.0 0.000389 1474.98035 2665.56714
2593.0 0.000386 1474.80078 2638.65845
2482.0 0.000403 1474.62122 2504.61206
2399.0 0.000417 1474.44128 2313.29761
2149.0 0.000465 1474.26147 2116.29199
1969.0 0.000508 1474.08142 1944.19348
1802.0 0.000555 1473.90125 1809.24719
1715.0 0.000583 1473.72095 1711.90833
1667.0 0.000600 1473.54053 1646.13586
1562.0 0.000640 1473.35999 1603.44629
1595.0 0.000627 1473.17932 1576.03711
1551.0 0.000645 1472.99854 1558.00000
1580.0 0.000633 1472.81763 1545.50623
1546.0 0.000647 1472.63660 1536.33679
1542.0 0.000649 1472.45532 1523.34827
1556.0 0.000643 1472.27417 1517.95691
1513.0 0.000661 1472.09277 1513.80151
1537.0 0.000651 1471.91113 1510.80249
1539.0 0.000650 1471.72949 1509.01733
1485.0 0.000673 1471.54773 1508.59167
1487.0 0.000672 1471.36584 1509.68066
1503.0 0.000665 1471.18384 1512.33899
1566.0 0.000639 1471.00183 1516.38074
1605.0 0.000623 1470.81946 1521.17175
1526.0 0.000655 1470.63721 1525.38000
1529.0 0.000654 1470.45483 1527.03296
1477.0 0.000677 1470.27234 1524.65649
1537.0 0.000651 1470.08972 1518.73254
1480.0 0.000676 1469.90698 1511.00696
1498.0 0.000668 1469.72424 1503.47583
1476.0 0.000678 1469.54126 1496.94141
1516.0 0.000660 1469.35828 1491.75537
1412.0 0.000708 1469.17529 1487.89087
1498.0 0.000668 1468.99207 1485.11914
1473.0 0.000679 1468.80884 1483.14807
1445.0 0.000692 1468.62561 1481.71399
1404.0 0.000712 1468.44214 1480.62976
1519.0 0.000658 1468.25879 1479.75500
1525.0 0.000656 1468.07520 1478.99292
1496.0 0.000668 1467.89160 1478.40527
1445.0 0.000692 1467.70801 1477.86597
1460.0 0.000685 1467.52441 1477.39893
1471.0 0.000680 1467.34070 1476.99780
1510.0 0.000662 1467.15698 1476.54639
1468.0 0.000681 1466.97314 1476.27454
1458.0 0.000686 1466.78931 1476.06921
1506.0 0.000664 1466.60547 1475.93738
1454.0 0.000688 1466.42163 1475.89197
1469.0 0.000681 1466.23767 1475.95813
1506.0 0.000664 1466.05383 1476.18201
1514.0 0.000661 1465.86987 1476.63879
1521.0 0.000657 1465.68591 1479.46484
1478.0 0.000677 1465.50208 1480.85950
1491.0 0.000671 1465.31812 1483.01953
1498.0 0.000668 1465.13428 1486.19055
1514.0 0.000661 1464.95044 1490.59033
1535.0 0.000651 1464.76660 1496.33606
1527.0 0.000655 1464.58276 1503.34241
1504.0 0.000665 1464.39905 1511.08215
1545.0 0.000647 1464.21533 1518.77893
1502.0 0.000666 1464.03162 1526.01660
1500.0 0.000667 1463.84802 1533.09656
1466.0 0.000682 1463.66431 1540.01611
1580.0 0.000633 1463.48096 1545.32129
1509.0 0.000663 1463.29749 1546.46790
1453.0 0.000688 1463.11414 1542.17078
1575.0 0.000635 1462.93091 1533.99658
1577.0 0.000634 1462.74780 1524.61865
1503.0 0.000665 1462.56482 1515.76978
1504.0 0.000665 1462.38184 1508.15186
1483.0 0.000674 1462.19910 1502.21155
1482.0 0.000675 1462.01636 1498.45300
1450.0 0.000690 1461.83386 1497.21826
1525.0 0.000656 1461.65137 1498.55249
1478.0 0.000677 1461.46924 1502.18579
1459.0 0.000685 1461.28711 1507.44519
1544.0 0.000648 1461.10522 1513.18494
1511.0 0.000662 1460.92346 1517.97205
1515.0 0.000660 1460.74182 1520.34558
1514.0 0.000661 1460.56042 1519.14026
1524.0 0.000656 1460.37927 1514.44678
1493.0 0.000670 1460.19836 1507.86365
1450.0 0.000690 1460.01758 1501.22803
1504.0 0.000665 1459.83691 1495.71899
1484.0 0.000674 1459.65674 1491.87463
1467.0 0.000682 1459.47656 1489.85986
1502.0 0.000666 1459.29675 1489.72168
1529.0 0.000654 1459.11719 1491.61499
1482.0 0.000675 1458.93787 1496.01196
1520.0 0.000658 1458.75879 1503.83313
1476.0 0.000678 1458.58008 1516.42358
1549.0 0.000646 1458.40173 1535.02563
1527.0 0.000655 1458.22351 1561.31238
1564.0 0.000639 1458.04578 1595.02649
1638.0 0.000611 1457.86816 1634.07727
1636.0 0.000611 1457.69104 1672.99487
1664.0 0.000601 1457.51416 1702.31140
1672.0 0.000598 1457.33777 1712.37073
1668.0 0.000600 1457.16162 1700.88623
1649.0 0.000606 1456.98584 1677.03882
1603.0 0.000624 1456.81055 1648.23181
1588.0 0.000630 1456.63550 1619.48083
1612.0 0.000620 1456.46094 1594.18579
1636.0 0.000611 1456.28662 1574.77393
1561.0 0.000641 1456.11292 1561.63660
1534.0 0.000652 1455.93958 1552.89221
1553.0 0.000644 1455.76672 1545.33728
1573.0 0.000636 1455.59424 1536.51208
1527.0 0.000655 1455.42224 1526.35925
1479.0 0.000676 1455.25073 1516.30823
1528.0 0.000654 1455.07971 1507.60229
1451.0 0.000689 1454.90918 1500.66345
1434.0 0.000697 1454.73914 1495.42688
1534.0 0.000652 1454.56958 1491.50171
1513.0 0.000661 1454.40051 1488.52991
1405.0 0.000712 1454.23218 1486.33630
1445.0 0.000692 1454.06421 1484.82983
1468.0 0.000681 1453.89673 1483.93506
1539.0 0.000650 1453.72998 1483.56580
1485.0 0.000673 1453.56372 1483.66541
1561.0 0.000641 1453.39819 1484.25159
1432.0 0.000698 1453.23303 1485.14905
1462.0 0.000684 1453.06860 1486.40710
1513.0 0.000661 1452.90479 1487.99927
1452.0 0.000689 1452.74158 1490.01941
1513.0 0.000661 1452.57898 1492.65247
1504.0 0.000665 1452.41711 1495.73206
1473.0 0.000679 1452.25586 1499.58984
1434.0 0.000697 1452.09521 1504.49817
1506.0 0.000664 1451.93542 1510.81287
1540.0 0.000649 1451.77612 1518.93909
1536.0 0.000651 1451.61780 1529.25061
1556.0 0.000643 1451.45996 1541.94922
1557.0 0.000642 1451.30298 1556.88318
1503.0 0.000665 1451.14661 1573.44043
1548.0 0.000646 1450.99109 1590.63635
1601.0 0.000625 1450.83630 1607.35535
1611.0 0.000621 1450.68225 1623.17615
1667.0 0.000600 1450.52905 1640.22754
1651.0 0.000606 1450.37659 1664.11804
1608.0 0.000622 1450.22498 1703.38318
1728.0 0.000579 1450.07422 1769.51831
1863.0 0.000537 1449.92419 1877.30017
1958.0 0.000511 1449.77515 2043.49536
2217.0 0.000451 1449.62683 2282.79004
2604.0 0.000384 1449.47937 2600.93823
2870.0 0.0003484 1449.33289 2985.75146
3381.0 0.0002958 1449.18726 3395.44385
3648.0 0.0002741 1449.04236 3745.63647
3866.0 0.0002587 1448.89856 3918.48193
3701.0 0.0002702 1448.75562 3836.01367
3321.0 0.0003011 1448.61365 3538.23218
3023.0 0.0003308 1448.47253 3140.54297
2699.0 0.000371 1448.33240 2742.69849
2431.0 0.000411 1448.19324 2399.57739
2087.0 0.000479 1448.05505 2131.08716
1908.0 0.000524 1447.91797 1935.62097
1723.0 0.000580 1447.78174 1800.73059
1690.0 0.000592 1447.64648 1710.78015
1706.0 0.000586 1447.51233 1651.29883
1584.0 0.000631 1447.37915 1611.19336
1552.0 0.000644 1447.24707 1583.04077
1631.0 0.000613 1447.11609 1562.58899
1565.0 0.000639 1446.98608 1546.69727
1569.0 0.000637 1446.85706 1534.09729
1563.0 0.000640 1446.72937 1523.84912
1573.0 0.000636 1446.60254 1515.35791
1482.0 0.000675 1446.47693 1508.20837
1494.0 0.000669 1446.35242 1502.13257
1596.0 0.000627 1446.22900 1496.91284
1493.0 0.000670 1446.10681 1492.39270
1543.0 0.000648 1445.98560 1488.45227
1502.0 0.000666 1445.86572 1484.99670
1496.0 0.000668 1445.74683 1481.95056
1502.0 0.000666 1445.62927 1479.24353
1479.0 0.000676 1445.51282 1476.84436
1534.0 0.000652 1445.39758 1474.70251
1482.0 0.000675 1445.28357 1472.75720
1518.0 0.000659 1445.17078 1471.03613
1439.0 0.000695 1445.05933 1469.48877
1524.0 0.000656 1444.94885 1468.09583
1494.0 0.000669 1444.83984 1466.84314
1414.0 0.000707 1444.73206 1465.72009
1390.0 0.000719 1444.62549 1464.72131
1509.0 0.000663 1444.52014 1463.84509
1483.0 0.000674 1444.41614 1463.09375
1472.0 0.000679 1444.31348 1462.47205
1482.0 0.000675 1444.21204 1461.98035
1515.0 0.000660 1444.11206 1461.61292
1503.0 0.000665 1444.01331 1461.34705
1409.0 0.000710 1443.91589 1461.13660
1439.0 0.000695 1443.81982 1460.91003
1509.0 0.000663 1443.72510 1460.59961
1467.0 0.000682 1443.63171 1460.20154
1466.0 0.000682 1443.53967 1459.78674
1423.0 0.000703 1443.44922 1459.26990
1475.0 0.000678 1443.35999 1459.06018
1498.0 0.000668 1443.27209 1459.03601
1431.0 0.000699 1443.18567 1459.23572
1469.0 0.000681 1443.10071 1459.77380
1492.0 0.000670 1443.01721 1460.79932
1423.0 0.000703 1442.93506 1464.69165
1502.0 0.000666 1442.85425 1467.34998
1541.0 0.000649 1442.77502 1471.16748
1481.0 0.000675 1442.69727 1476.25269
1486.0 0.000673 1442.62097 1482.60986
1563.0 0.000640 1442.54602 1489.76868
1500.0 0.000667 1442.47278 1496.75842
1500.0 0.000667 1442.40088 1502.10815
1487.0 0.000672 1442.33044 1504.73389
1554.0 0.000644 1442.26147 1505.27588
1546.0 0.000647 1442.19409 1505.89795
1583.0 0.000632 1442.12830 1508.85522
1624.0 0.000616 1442.06396 1515.64453
1613.0 0.000620 1442.00110 1526.87305
1573.0 0.000636 1441.93982 1542.21228
1618.0 0.000618 1441.88013 1560.39258
1643.0 0.000609 1441.82190 1578.91650
1701.0 0.000588 1441.76526 1595.24731
1666.0 0.000600 1441.71021 1608.84436
1681.0 0.000595 1441.65674 1621.79736
1646.0 0.000608 1441.60474 1635.56714
1695.0 0.000590 1441.55444 1647.78931
1630.0 0.000613 1441.50574 1652.03760
1674.0 0.000597 1441.45862 1642.13220
1664.0 0.000601 1441.41309 1618.55286
1584.0 0.000631 1441.36914 1587.97900
1521.0 0.000657 1441.32678 1557.25928
1508.0 0.000663 1441.28601 1530.47473
1560.0 0.000641 1441.24695 1509.19861
1545.0 0.000647 1441.20947 1493.53796
1499.0 0.000667 1441.17358 1482.70190
1520.0 0.000658 1441.13953 1475.53564
1501.0 0.000666 1441.10693 1470.92664
1474.0 0.000678 1441.07593 1467.97021
1468.0 0.000681 1441.04675 1466.01343
1444.0 0.000693 1441.01904 1464.74902
1500.0 0.000667 1440.99316 1464.01099
1451.0 0.000689 1440.96887 1463.51709
1485.0 0.000673 1440.94617 1463.28931
1469.0 0.000681 1440.92529 1463.29675
1482.0 0.000675 1440.90601 1463.52625
1450.0 0.000690 1440.88843 1463.97766
1462.0 0.000684 1440.87244 1464.65833
1449.0 0.000690 1440.85828 1465.59155
1517.0 0.000659 1440.84570 1466.81360
1460.0 0.000685 1440.83484 1468.38196
1514.0 0.000661 1440.82556 1468.36890
1421.0 0.000704 1440.81812 1471.03333
1534.0 0.000652 1440.81238 1474.61304
1419.0 0.000705 1440.80823 1479.65393
1475.0 0.000678 1440.80591 1487.08350
1500.0 0.000667 1440.80518 1498.34314
1548.0 0.000646 1440.80627 1515.39563
1582.0 0.000632 1440.80896 1540.58191
1618.0 0.000618 1440.81348 1575.93359
1572.0 0.000636 1440.81958 1622.33960
1639.0 0.000610 1440.82739 1678.31494
1686.0 0.000593 1440.83704 1738.41992
1673.0 0.000598 1440.84827 1791.41040
1804.0 0.000554 1440.86133 1820.95691
1716.0 0.000583 1440.87598 1814.77502
1750.0 0.000571 1440.89246 1776.19690
1776.0 0.000563 1440.91052 1720.53723
1644.0 0.000608 1440.93042 1662.53528
1590.0 0.000629 1440.95203 1611.09778
1562.0 0.000640 1440.97534 1570.09766
1565.0 0.000639 1441.00024 1540.07910
1526.0 0.000655 1441.02698 1519.64856
1566.0 0.000639 1441.05542 1506.59998
1545.0 0.000647 1441.08557 1498.72021
1448.0 0.000691 1441.11743 1494.23254
1509.0 0.000663 1441.15100 1491.91357
1449.0 0.000690 1441.18628 1491.01367
1490.0 0.000671 1441.22327 1491.11938
1449.0 0.000690 1441.26196 1492.02173
1537.0 0.000651 1441.30237 1493.62964
1501.0 0.000666 1441.34448 1495.92114
1502.0 0.000666 1441.38818 1498.91663
1484.0 0.000674 1441.43372 1502.68921
1548.0 0.000646 1441.48096 1507.29993
1538.0 0.000650 1441.52979 1512.89209
1512.0 0.000661 1441.58044 1519.64453
1541.0 0.000649 1441.63269 1527.79944
1520.0 0.000658 1441.68665 1537.70068
1514.0 0.000661 1441.74231 1549.86780
1559.0 0.000641 1441.79956 1565.15955
1610.0 0.000621 1441.85864 1585.09204
1584.0 0.000631 1441.91919 1612.40186
1728.0 0.000579 1441.98157 1651.87292
1706.0 0.000586 1442.04553 1711.28748
1842.0 0.000543 1442.11121 1802.07373
1903.0 0.000525 1442.17859 1938.75391
2040.0 0.000490 1442.24756 2136.51636
2358.0 0.000424 1442.31812 2406.30933
2624.0 0.000381 1442.39038 2747.73950
3052.0 0.0003277 1442.46436 3140.44824
3426.0 0.0002919 1442.53979 3532.24048
3601.0 0.0002777 1442.61694 3830.01636
3792.0 0.0002637 1442.69580 3924.98560
3630.0 0.0002755 1442.77612 3774.02075
3275.0 0.0003053 1442.85815 3443.97656
3052.0 0.0003277 1442.94177 3045.75610
2567.0 0.000390 1443.02698 2662.96021
2366.0 0.000423 1443.11377 2338.97290
2114.0 0.000473 1443.20215 2088.65552
1981.0 0.000505 1443.29211 1909.13782
1813.0 0.000552 1443.38354 1788.38342
1790.0 0.000559 1443.47668 1711.43591
1686.0 0.000593 1443.57141 1664.77795
1608.0 0.000622 1443.66760 1638.07898
1675.0 0.000597 1443.76538 1624.10339
1621.0 0.000617 1443.86475 1617.63306
1622.0 0.000617 1443.96558 1614.13696
1634.0 0.000612 1444.06787 1609.08447
1602.0 0.000624 1444.17175 1599.06799
1586.0 0.000631 1444.27710 1583.92761
1613.0 0.000620 1444.38403 1566.54102
1476.0 0.000678 1444.49243 1549.80188
1572.0 0.000636 1444.60229 1535.59778
1520.0 0.000658 1444.71362 1524.81543
1534.0 0.000652 1444.82642 1517.51233
1484.0 0.000674 1444.94067 1513.71997
1477.0 0.000677 1445.05640 1512.68286
1539.0 0.000650 1445.17346 1513.51892
1572.0 0.000636 1445.29199 1515.05237
1463.0 0.000684 1445.41199 1515.98157
1528.0 0.000654 1445.53345 1515.58679
1484.0 0.000674 1445.65625 1514.59326
1532.0 0.000653 1445.78052 1514.68726
1496.0 0.000668 1445.90613 1519.70972
1497.0 0.000668 1446.03308 1525.96484
1564.0 0.000639 1446.16125 1535.58240
1562.0 0.000640 1446.29102 1547.26770
1556.0 0.000643 1446.42200 1558.18347
1546.0 0.000647 1446.55432 1564.12366
1541.0 0.000649 1446.68799 1561.65100
1560.0 0.000641 1446.82300 1551.10962
1551.0 0.000645 1446.95923 1536.11609
1530.0 0.000654 1447.09680 1520.39990
1508.0 0.000663 1447.23560 1506.24426
1520.0 0.000658 1447.37561 1494.65015
1506.0 0.000664 1447.51697 1485.80847
1420.0 0.000704 1447.65955 1479.43567
1476.0 0.000678 1447.80347 1475.03931
1476.0 0.000678 1447.94836 1472.02588
1498.0 0.000668 1448.09460 1469.95337
1510.0 0.000662 1448.24207 1468.48474
1524.0 0.000656 1448.39075 1467.40356
1512.0 0.000661 1448.54053 1466.58020
1491.0 0.000671 1448.69141 1465.93250
1551.0 0.000645 1448.84351 1465.41699
1446.0 0.000692 1448.99670 1465.00525
1418.0 0.000705 1449.15100 1464.67981
1515.0 0.000660 1449.30652 1464.42773
1502.0 0.000666 1449.46301 1464.23926
1487.0 0.000672 1449.62061 1464.11951
1479.0 0.000676 1449.77917 1464.03979
1498.0 0.000668 1449.93896 1463.69226
1465.0 0.000683 1450.09973 1463.71216
1468.0 0.000681 1450.26160 1463.77515
1512.0 0.000661 1450.42432 1463.87549
1520.0 0.000658 1450.58813 1464.02429
1488.0 0.000672 1450.75293 1464.21765
1484.0 0.000674 1450.91870 1464.45972
1454.0 0.000688 1451.08545 1464.75916
1449.0 0.000690 1451.25305 1465.12939
1531.0 0.000653 1451.42163 1465.59668
1425.0 0.000702 1451.59106 1466.25342
1475.0 0.000678 1451.76160 1467.06592
1513.0 0.000661 1451.93286 1468.17017
1466.0 0.000682 1452.10498 1469.66650
1471.0 0.000680 1452.27795 1471.64514
1551.0 0.000645 1452.45190 1474.14624
1517.0 0.000659 1452.62646 1477.11169
1463.0 0.000684 1452.80200 1480.32581
1450.0 0.000690 1452.97839 1483.33069
1471.0 0.000680 1453.15540 1485.44910
1492.0 0.000670 1453.33325 1486.13733
1464.0 0.000683 1453.51184 1485.50635
1505.0 0.000664 1453.69116 1484.26306
1471.0 0.000680 1453.87122 1483.18457
1470.0 0.000680 1454.05200 1482.85437
1439.0 0.000695 1454.23340 1483.68042
1476.0 0.000678 1454.41553 1485.96362
1479.0 0.000676 1454.59839 1489.90845
1460.0 0.000685 1454.78174 1495.58057
1479.0 0.000676 1454.96582 1502.80737
1506.0 0.000664 1455.15051 1511.04236
1538.0 0.000650 1455.33582 1520.99402
1584.0 0.000631 1455.52161 1528.11865
1567.0 0.000638 1455.70801 1532.74744
1569.0 0.000637 1455.89502 1533.82910
1526.0 0.000655 1456.08240 1531.69543
1590.0 0.000629 1456.27051 1528.21472
1513.0 0.000661 1456.45898 1525.54822
1481.0 0.000675 1456.64807 1525.15247
1435.0 0.000697 1456.83752 1525.42786
1479.0 0.000676 1457.02747 1530.56592
1522.0 0.000657 1457.21777 1537.26685
1429.0 0.000700 1457.40845 1543.58740
1546.0 0.000647 1457.59973 1547.25806
1555.0 0.000643 1457.79126 1547.12354
1557.0 0.000642 1457.98328 1543.90088
1444.0 0.000693 1458.17554 1539.20435
1498.0 0.000668 1458.36816 1534.54456
1444.0 0.000693 1458.56104 1531.03369
1510.0 0.000662 1458.75427 1529.31787
1534.0 0.000652 1458.94788 1529.64185
1543.0 0.000648 1459.14160 1532.00317
1519.0 0.000658 1459.33569 1536.30872
1494.0 0.000669 1459.53003 1542.48840
1570.0 0.000637 1459.72461 1550.51257
1485.0 0.000673 1459.91931 1560.72485
1558.0 0.000642 1460.11426 1573.52527
1559.0 0.000641 1460.30933 1589.80286
1581.0 0.000633 1460.50452 1611.18091
1598.0 0.000626 1460.69995 1640.54919
1660.0 0.000602 1460.89539 1684.62756
1663.0 0.000601 1461.09106 1747.77954
1851.0 0.000540 1461.28674 1842.24268
1965.0 0.000509 1461.48254 1981.56409
2071.0 0.000483 1461.67834 2179.04150
2421.0 0.000413 1461.87427 2443.31323
2648.0 0.000378 1462.07019 2772.46606
3099.0 0.0003227 1462.26599 3146.40723
3458.0 0.0002892 1462.46191 3516.57739
3639.0 0.0002748 1462.65771 3798.05737
3711.0 0.0002695 1462.85352 3891.84375
3540.0 0.0002825 1463.04919 3756.52026
3419.0 0.0002925 1463.24500 3449.76855
3100.0 0.0003226 1463.44055 3072.78638
2767.0 0.000361 1463.63586 2704.63379
2394.0 0.000418 1463.83130 2387.84644
2132.0 0.000469 1464.02637 2138.45190
1951.0 0.000513 1464.22144 1955.50549
1781.0 0.000561 1464.41626 1828.93140
1713.0 0.000584 1464.61096 1745.07275
1764.0 0.000567 1464.80542 1690.98022
1655.0 0.000604 1464.99963 1656.28882
1620.0 0.000617 1465.19360 1633.61523
1662.0 0.000602 1465.38721 1617.93713
1648.0 0.000607 1465.58069 1605.75073
1662.0 0.000602 1465.77380 1594.73450
1508.0 0.000663 1465.96667 1583.96179
1566.0 0.000639 1466.15918 1573.94226
1604.0 0.000623 1466.35132 1564.72913
1587.0 0.000630 1466.54309 1556.90637
1538.0 0.000650 1466.73462 1550.55139
1530.0 0.000654 1466.92566 1545.65735
1591.0 0.000629 1467.11621 1542.19409
1549.0 0.000646 1467.30652 1540.04980
1598.0 0.000626 1467.49622 1538.88416
1548.0 0.000646 1467.68555 1538.23035
1550.0 0.000645 1467.87439 1537.50415
1561.0 0.000641 1468.06287 1536.37097
1508.0 0.000663 1468.25073 1535.01038
1498.0 0.000668 1468.43799 1534.04688
1571.0 0.000637 1468.62488 1534.12622
1541.0 0.000649 1468.81116 1535.77124
1594.0 0.000627 1468.99695 1539.34265
1576.0 0.000635 1469.18201 1544.99451
1568.0 0.000638 1469.36658 1552.57532
1551.0 0.000645 1469.55054 1561.48206
1582.0 0.000632 1469.73389 1570.45850
1545.0 0.000647 1469.91650 1577.52795
1560.0 0.000641 1470.09851 1580.75439
1557.0 0.000642 1470.27991 1581.46313
1622.0 0.000617 1470.46057 1578.02820
1574.0 0.000635 1470.64063 1574.26013
1541.0 0.000649 1470.81982 1571.75830
1607.0 0.000622 1470.99841 1571.44104
1595.0 0.000627 1471.17615 1573.78955
1561.0 0.000641 1471.35327 1579.09595
1624.0 0.000616 1471.52942 1587.71082
1642.0 0.000609 1471.70496 1600.33313
1666.0 0.000600 1471.87976 1618.47974
1602.0 0.000624 1472.05359 1644.90759
1713.0 0.000584 1472.22668 1684.23657
1822.0 0.000549 1472.39893 1743.30017
1894.0 0.000528 1472.57031 1830.92383
2074.0 0.000482 1472.74072 1956.63770
2217.0 0.000451 1472.91040 2128.07764
2390.0 0.000418 1473.07910 2347.19336
2513.0 0.000398 1473.24695 2605.36670
2773.0 0.000361 1473.41394 2876.86060
2939.0 0.0003403 1473.57983 3111.49414
2981.0 0.0003355 1473.74487 3239.31323
3033.0 0.0003297 1473.90894 3209.31641
2928.0 0.0003415 1474.07202 3035.52612
2811.0 0.000356 1474.23413 2782.72485
2625.0 0.000381 1474.39526 2515.34961
2364.0 0.000423 1474.55542 2273.50293
2093.0 0.000478 1474.71448 2075.61401
1987.0 0.000503 1474.87256 1925.75439
1905.0 0.000525 1475.02954 1819.40405
1737.0 0.000576 1475.18555 1747.91125
1878.0 0.000532 1475.34033 1701.86719
1750.0 0.000571 1475.49426 1673.19153
1692.0 0.000591 1475.64685 1655.92126
1700.0 0.000588 1475.79846 1646.32178
1658.0 0.000603 1475.94897 1642.16809
1685.0 0.000593 1476.09827 1642.45715
1649.0 0.000606 1476.24658 1647.00806
1601.0 0.000625 1476.39368 1656.41858
1697.0 0.000589 1476.53955 1672.26746
1716.0 0.000583 1476.68433 1697.55884
1781.0 0.000561 1476.82776 1737.32275
1845.0 0.000542 1476.97021 1799.08972
1876.0 0.000533 1477.11133 1892.78271
2066.0 0.000484 1477.25134 2029.47839
2211.0 0.000452 1477.39001 2218.68701
2500.0 0.000400 1477.52759 2464.20898
2763.0 0.000362 1477.66382 2758.76563
2975.0 0.0003361 1477.79883 3076.85400
3419.0 0.0002925 1477.93250 3365.94800
3534.0 0.0002830 1478.06494 3546.97559
3460.0 0.0002890 1478.19617 3550.26025
3281.0 0.0003048 1478.32605 3374.09937
3072.0 0.0003255 1478.45471 3086.31128
2793.0 0.000358 1478.58191 2766.51147
2479.0 0.000403 1478.70789 2468.46729
2216.0 0.000451 1478.83252 2218.64014
2054.0 0.000487 1478.95593 2024.93909
1945.0 0.000514 1479.07776 1883.89673
1787.0 0.000560 1479.19836 1786.15479
1763.0 0.000567 1479.31763 1718.38330
1727.0 0.000579 1479.43555 1675.22644
1735.0 0.000576 1479.55212 1646.80347
1651.0 0.000606 1479.66724 1628.25659
1634.0 0.000612 1479.78101 1616.17310
1614.0 0.000620 1479.89331 1608.95813
1561.0 0.000641 1480.00427 1605.47058
1619.0 0.000618 1480.11377 1604.69995
1583.0 0.000632 1480.22180 1605.36926
1635.0 0.000612 1480.32861 1605.67371
1565.0 0.000639 1480.43384 1603.59424
1604.0 0.000623 1480.53760 1598.12109
1596.0 0.000627 1480.64001 1590.13904
1647.0 0.000607 1480.74097 1581.37378
1574.0 0.000635 1480.84033 1573.42749
1582.0 0.000632 1480.93835 1567.24548
1532.0 0.000653 1481.03491 1563.41431
1597.0 0.000626 1481.13000 1562.29199
1484.0 0.000674 1481.22351 1563.88098
1603.0 0.000624 1481.31567 1568.44055
1582.0 0.000632 1481.40625 1575.73877
1588.0 0.000630 1481.49536 1585.71021
1623.0 0.000616 1481.58301 1597.92456
1630.0 0.000613 1481.66907 1611.55542
1632.0 0.000613 1481.75366 1625.46985
1622.0 0.000617 1481.83679 1639.21729
1651.0 0.000606 1481.91833 1654.51306
1714.0 0.000583 1481.99829 1674.95862
1719.0 0.000582 1482.07690 1703.99744
1768.0 0.000566 1482.15381 1743.10303
1740.0 0.000575 1482.22925 1790.77759
1823.0 0.000549 1482.30322 1841.46179
1835.0 0.000545 1482.37549 1884.49878
1918.0 0.000521 1482.44641 1906.26050
1808.0 0.000553 1482.51575 1898.81860
1889.0 0.000529 1482.58337 1867.29712
1796.0 0.000557 1482.64966 1824.70105
1819.0 0.000550 1482.71423 1782.44336
1712.0 0.000584 1482.77734 1746.72144
1722.0 0.000581 1482.83887 1719.80957
1641.0 0.000609 1482.89880 1701.85718
1641.0 0.000609 1482.95715 1692.70447
1678.0 0.000596 1483.01404 1692.27869
1646.0 0.000608 1483.06921 1700.75623
1660.0 0.000602 1483.12292 1719.40039
1725.0 0.000580 1483.17505 1751.90601
1761.0 0.000568 1483.22571 1805.18091
1873.0 0.000534 1483.27466 1889.00085
2012.0 0.000497 1483.32202 2014.60767
2158.0 0.000463 1483.36780 2192.46948
2366.0 0.000423 1483.41211 2428.53418
2660.0 0.000376 1483.45483 2719.37061
3046.0 0.0003283 1483.49597 3045.76221
3354.0 0.0002982 1483.53540 3364.11255
3472.0 0.0002880 1483.57336 3600.95386
3470.0 0.0002882 1483.60974 3674.58545
3463.0 0.0002888 1483.64465 3553.42090
3227.0 0.0003099 1483.67786 3286.50488
2924.0 0.0003420 1483.70947 2957.85181
2657.0 0.000376 1483.73962 2632.22168
2316.0 0.000432 1483.76807 2349.75317
2139.0 0.000468 1483.79504 2123.21045
1919.0 0.000521 1483.82043 1953.11694
1843.0 0.000543 1483.84424 1831.90710
1750.0 0.000571 1483.86646 1748.63660
1709.0 0.000585 1483.88708 1692.34851
1639.0 0.000610 1483.90613 1653.99634
1646.0 0.000608 1483.92371 1627.05115
1550.0 0.000645 1483.93970 1607.25354
1590.0 0.000629 1483.95410 1592.01746
1542.0 0.000649 1483.96704 1579.83301
1547.0 0.000646 1483.97827 1569.81470
1582.0 0.000632 1483.98804 1561.42480
1542.0 0.000649 1483.99622 1554.30750
1510.0 0.000662 1484.00293 1548.62439
1530.0 0.000654 1484.00806 1543.37646
1596.0 0.000627 1484.01160 1538.82947
1562.0 0.000640 1484.01367 1534.86365
1551.0 0.000645 1484.01416 1531.39392
1546.0 0.000647 1484.01306 1528.34705
1541.0 0.000649 1484.01050 1525.66382
1497.0 0.000668 1484.00647 1523.29578
1577.0 0.000634 1484.00085 1521.20337
1557.0 0.000642 1483.99377 1519.35413
1587.0 0.000630 1483.98511 1517.72021
1551.0 0.000645 1483.97498 1516.28101
1483.0 0.000674 1483.96326 1515.01843
1473.0 0.000679 1483.95020 1513.91809
1507.0 0.000664 1483.93555 1512.96973
1478.0 0.000677 1483.91943 1510.14124
1455.0 0.000687 1483.90173 1509.52197
1517.0 0.000659 1483.88269 1509.04517
1546.0 0.000647 1483.86218 1508.72156
1546.0 0.000647 1483.84009 1508.57166
1530.0 0.000654 1483.81653 1508.63367
1543.0 0.000648 1483.79150 1508.96960
1586.0 0.000631 1483.76514 1509.67249
1448.0 0.000691 1483.73730 1510.86047
1553.0 0.000644 1483.70789 1512.66882
1486.0 0.000673 1483.67725 1515.21741
1510.0 0.000662 1483.64502 1518.57129
1531.0 0.000653 1483.61133 1522.68518
1528.0 0.000654 1483.57629 1527.33105
1553.0 0.000644 1483.53992 1532.01221
1518.0 0.000659 1483.50208 1535.97009
1517.0 0.000659 1483.46277 1538.56030
1567.0 0.000638 1483.42212 1539.91321
1542.0 0.000649 1483.38013 1541.12476
1566.0 0.000639 1483.33667 1543.78931
1630.0 0.000613 1483.29187 1549.55273
1551.0 0.000645 1483.24573 1559.94580
1620.0 0.000617 1483.19812 1576.24902
1617.0 0.000618 1483.14929 1599.23645
1602.0 0.000624 1483.09900 1628.76294
1673.0 0.000598 1483.04749 1663.21948
1705.0 0.000587 1482.99463 1698.78430
1744.0 0.000573 1482.94031 1728.71887
1778.0 0.000562 1482.88477 1744.47058
1757.0 0.000569 1482.82800 1740.78223
1692.0 0.000591 1482.76978 1720.65784
1658.0 0.000603 1482.71033 1692.84497
1692.0 0.000591 1482.64954 1665.68250
1595.0 0.000627 1482.58752 1644.45447
1624.0 0.000616 1482.52429 1631.70789
1646.0 0.000608 1482.45972 1627.96252
1666.0 0.000600 1482.39392 1632.27747
1649.0 0.000606 1482.32690 1642.53064
1652.0 0.000605 1482.25854 1656.75256
1739.0 0.000575 1482.18909 1674.33093
1688.0 0.000592 1482.11829 1695.31970
1763.0 0.000567 1482.04639 1718.25146
1750.0 0.000571 1481.97327 1738.77222
1686.0 0.000593 1481.89893 1750.60840
1803.0 0.000555 1481.82336 1748.61084
1755.0 0.000570 1481.74658 1731.79968
1734.0 0.000577 1481.66882 1704.15613
1658.0 0.000603 1481.58972 1672.37573
1658.0 0.000603 1481.50952 1642.20349
1628.0 0.000614 1481.42810 1616.71289
1614.0 0.000620 1481.34570 1596.50366
1597.0 0.000626 1481.26208 1580.78748
1534.0 0.000652 1481.17737 1568.35583
1571.0 0.000637 1481.09155 1558.73511
1509.0 0.000663 1481.00464 1552.06702
1542.0 0.000649 1480.91663 1548.50342
1565.0 0.000639 1480.82751 1547.95288
1539.0 0.000650 1480.73743 1549.72717
1581.0 0.000633 1480.64624 1552.56372
1544.0 0.000648 1480.55396 1555.30530
1527.0 0.000655 1480.46069 1555.72266
1494.0 0.000669 1480.36633 1552.69287
1487.0 0.000672 1480.27100 1546.82532
1569.0 0.000637 1480.17456 1539.74963
1527.0 0.000655 1480.07727 1533.03381
1517.0 0.000659 1479.97888 1527.71057
1534.0 0.000652 1479.87952 1524.27417
1547.0 0.000646 1479.77917 1522.92236
1447.0 0.000691 1479.67786 1523.68896
1507.0 0.000664 1479.57568 1526.50195
1554.0 0.000644 1479.47253 1531.22998
1513.0 0.000661 1479.36841 1537.44092
1503.0 0.000665 1479.26331 1544.51318
1542.0 0.000649 1479.15747 1551.72253
1558.0 0.000642 1479.05054 1558.89685
1494.0 0.000669 1478.94275 1566.42615
1557.0 0.000642 1478.83423 1574.46277
1630.0 0.000613 1478.72473 1582.11279
1590.0 0.000629 1478.61438 1587.48645
1570.0 0.000637 1478.50305 1588.78687
1581.0 0.000633 1478.39099 1583.76855
1527.0 0.000655 1478.27820 1576.33667
1540.0 0.000649 1478.16443 1566.27344
1557.0 0.000642 1478.04993 1555.55237
1545.0 0.000647 1477.93457 1545.93921
1512.0 0.000661 1477.81836 1538.54163
1506.0 0.000664 1477.70142 1533.91199
1509.0 0.000663 1477.58386 1532.34363
1577.0 0.000634 1477.46533 1534.16418
1515.0 0.000660 1477.34619 1539.99451
1549.0 0.000646 1477.22620 1550.95325
1640.0 0.000610 1477.10547 1568.74109
1668.0 0.000600 1476.98413 1595.50000
1667.0 0.000600 1476.86194 1633.41736
1620.0 0.000617 1476.73914 1684.00256
1759.0 0.000569 1476.61560 1747.13733
1906.0 0.000525 1476.49133 1819.82910
2018.0 0.000496 1476.36646 1894.49133
2075.0 0.000482 1476.24097 1957.29846
2089.0 0.000479 1476.11475 1989.98511
2161.0 0.000463 1475.98792 1979.96045
1919.0 0.000521 1475.86047 1931.17126
1879.0 0.000532 1475.73230 1860.33069
1869.0 0.000535 1475.60364 1784.38208
1762.0 0.000568 1475.47424 1714.27612
1688.0 0.000592 1475.34436 1655.33911
1563.0 0.000640 1475.21387 1609.11633
1565.0 0.000639 1475.08276 1574.82556
1568.0 0.000638 1474.95117 1550.44714
1544.0 0.000648 1474.81897 1533.56689
1538.0 0.000650 1474.68616 1521.94824
1443.0 0.000693 1474.55298 1513.82129
1464.0 0.000683 1474.41919 1507.93286
1505.0 0.000664 1474.28479 1503.47461
1505.0 0.000664 1474.15002 1500.25989
1538.0 0.000650 1474.01465 1497.38721
1492.0 0.000670 1473.87878 1494.98425
1529.0 0.000654 1473.74255 1492.94092
1521.0 0.000657 1473.60583 1491.18616
1544.0 0.000648 1473.46863 1489.67102
1462.0 0.000684 1473.33081 1488.36060
1474.0 0.000678 1473.19275 1487.22974
1433.0 0.000698 1473.05420 1486.26013
1460.0 0.000685 1472.91528 1485.43640
1512.0 0.000661 1472.77576 1484.74402
1511.0 0.000662 1472.63599 1484.16382
1527.0 0.000655 1472.49585 1483.66785
1528.0 0.000654 1472.35522 1483.21375
1498.0 0.000668 1472.21436 1482.76819
1492.0 0.000670 1472.07288 1482.23828
1431.0 0.000699 1471.93127 1481.62341
1504.0 0.000665 1471.78918 1480.98962
1431.0 0.000699 1471.64685 1480.36987
1508.0 0.000663 1471.50403 1479.79541
1477.0 0.000677 1471.36108 1479.28027
1468.0 0.000681 1471.21777 1480.05640
1483.0 0.000674 1471.07397 1479.78125
1471.0 0.000680 1470.93005 1479.47644
1452.0 0.000689 1470.78577 1479.22302
1477.0 0.000677 1470.64124 1479.01733
1439.0 0.000695 1470.49646 1478.85449
1498.0 0.000668 1470.35132 1478.73706
1485.0 0.000673 1470.20605 1478.91406
1516.0 0.000660 1470.06042 1478.72852
1486.0 0.000673 1469.91455 1478.80127
1480.0 0.000676 1469.76843 1478.97290
1529.0 0.000654 1469.62219 1479.27881
1500.0 0.000667 1469.47559 1479.76343
1470.0 0.000680 1469.32886 1480.48145
1456.0 0.000687 1469.18188 1481.48816
1493.0 0.000670 1469.03479 1482.83313
1489.0 0.000672 1468.88745 1484.53210
1504.0 0.000665 1468.73987 1486.49841
1564.0 0.000639 1468.59229 1488.71057
1485.0 0.000673 1468.44434 1490.97144
1492.0 0.000670 1468.29639 1493.10559
1515.0 0.000660 1468.14807 1494.86084
1484.0 0.000674 1467.99988 1495.83398
1513.0 0.000661 1467.85132 1495.99146
1501.0 0.000666 1467.70276 1495.34705
1466.0 0.000682 1467.55408 1494.71252
1536.0 0.000651 1467.40515 1494.70410
1465.0 0.000683 1467.25635 1495.96179
1479.0 0.000676 1467.10718 1499.00684
1472.0 0.000679 1466.95801 1504.22681
1456.0 0.000687 1466.80872 1511.80273
1468.0 0.000681 1466.65942 1521.60022
1551.0 0.000645 1466.51001 1533.07813
1521.0 0.000657 1466.36047 1544.91516
1522.0 0.000657 1466.21094 1554.90137
1562.0 0.000640 1466.06128 1560.46851
1562.0 0.000640 1465.91162 1560.08362
1517.0 0.000659 1465.76196 1554.87634
1535.0 0.000651 1465.61206 1547.35339
1536.0 0.000651 1465.46228 1539.59460
1517.0 0.000659 1465.31250 1532.52051
1561.0 0.000641 1465.16260 1526.21204
1518.0 0.000659 1465.01270 1520.57568
1451.0 0.000689 1464.86279 1515.71851
1446.0 0.000692 1464.71277 1512.29797
1468.0 0.000681 1464.56287 1510.74915
1510.0 0.000662 1464.41284 1511.14587
1481.0 0.000675 1464.26294 1513.17371
1472.0 0.000679 1464.11292 1516.08850
1519.0 0.000658 1463.96301 1518.74646
1475.0 0.000678 1463.81311 1519.89978
1522.0 0.000657 1463.66321 1518.72620
1478.0 0.000677 1463.51343 1515.15015
1491.0 0.000671 1463.36353 1509.88135
1524.0 0.000656 1463.21375 1503.90210
1537.0 0.000651 1463.06396 1498.10181
1533.0 0.000652 1462.91431 1493.03894
1496.0 0.000668 1462.76453 1488.94983
1474.0 0.000678 1462.61487 1485.84058
1466.0 0.000682 1462.46533 1483.67688
1490.0 0.000671 1462.31580 1482.24536
1493.0 0.000670 1462.16638 1481.45166
1524.0 0.000656 1462.01697 1486.61377
1456.0 0.000687 1461.86768 1486.80591
1481.0 0.000675 1461.71838 1487.36804
1431.0 0.000699 1461.56921 1488.30176
1436.0 0.000696 1461.42017 1489.63684
1463.0 0.000684 1461.27112 1491.40991
1591.0 0.000629 1461.12219 1493.64514
1443.0 0.000693 1460.97327 1496.31946
1470.0 0.000680 1460.82446 1499.34656
1488.0 0.000672 1460.67590 1502.60681
1496.0 0.000668 1460.52734 1505.98877
1545.0 0.000647 1460.37878 1509.31726
1521.0 0.000657 1460.23047 1512.22156
1478.0 0.000677 1460.08215 1514.19727
1597.0 0.000626 1459.93396 1517.37805
1536.0 0.000651 1459.78589 1517.29517
1521.0 0.000657 1459.63794 1516.97522
1508.0 0.000663 1459.49011 1516.68225
1474.0 0.000678 1459.34241 1517.76147
1511.0 0.000662 1459.19482 1520.27271
1475.0 0.000678 1459.04736 1524.73816
1467.0 0.000682 1458.89990 1531.88208
1594.0 0.000627 1458.75269 1542.71887
1582.0 0.000632 1458.60559 1558.52441
1585.0 0.000631 1458.45862 1580.77637
1588.0 0.000630 1458.31165 1610.81641
1693.0 0.000591 1458.16492 1649.40869
1656.0 0.000604 1458.01819 1696.10461
1758.0 0.000569 1457.87170 1748.47290
1849.0 0.000541 1457.72546 1800.96338
1841.0 0.000543 1457.57910 1844.01953
1866.0 0.000536 1457.43298 1865.97217
1925.0 0.000519 1457.28699 1859.97058
1828.0 0.000547 1457.14124 1829.96924
1820.0 0.000549 1456.99548 1787.26404
1734.0 0.000577 1456.84985 1742.75171
1705.0 0.000587 1456.70447 1703.49084
1723.0 0.000580 1456.55908 1673.13916
1691.0 0.000591 1456.41394 1653.16455
1597.0 0.000626 1456.26892 1643.81201
1678.0 0.000596 1456.12390 1644.89575
1555.0 0.000643 1455.97913 1656.50757
1651.0 0.000606 1455.83447 1679.61780
1708.0 0.000585 1455.68994 1716.46765
1772.0 0.000564 1455.54565 1770.68176
1830.0 0.000546 1455.40137 1847.11646
1862.0 0.000537 1455.25720 1951.48242
2045.0 0.000489 1455.11328 2088.95410
2238.0 0.000447 1454.96936 2261.54297
2545.0 0.000393 1454.82568 2464.65698
2745.0 0.000364 1454.68213 2683.00293
2902.0 0.0003446 1454.53870 2885.85986
3106.0 0.0003220 1454.39526 3027.63745
3160.0 0.0003165 1454.25208 3066.48804
2884.0 0.0003467 1454.10913 2995.48975
2820.0 0.000355 1453.96606 2848.73071
2703.0 0.000370 1453.82324 2673.28589
2596.0 0.000385 1453.68054 2503.76563
2339.0 0.000428 1453.53796 2355.85693
2271.0 0.000440 1453.39551 2229.99365
2176.0 0.000460 1453.25330 2118.83203
2052.0 0.000487 1453.11096 2016.53735
2011.0 0.000497 1452.96887 1923.21216
1877.0 0.000533 1452.82703 1841.68091
1818.0 0.000550 1452.68506 1773.58533
1755.0 0.000570 1452.54333 1718.72900
1724.0 0.000580 1452.40173 1675.85791
1658.0 0.000603 1452.26013 1643.27014
1592.0 0.000628 1452.11865 1619.11658
1616.0 0.000619 1451.97742 1601.57788
1581.0 0.000633 1451.83618 1589.03406
1606.0 0.000623 1451.69507 1580.16980
1601.0 0.000625 1451.55408 1574.00000
1582.0 0.000632 1451.41321 1569.85144
1573.0 0.000636 1451.27234 1567.30835
1548.0 0.000646 1451.13159 1566.13232
1635.0 0.000612 1450.99097 1566.25891
1574.0 0.000635 1450.85046 1567.69995
1527.0 0.000655 1450.70996 1570.56592
1653.0 0.000605 1450.56970 1575.02734
1582.0 0.000632 1450.42932 1581.29761
1586.0 0.000631 1450.28906 1589.53052
1633.0 0.000612 1450.14893 1599.92834
1622.0 0.000617 1450.00891 1612.63037
1585.0 0.000631 1449.86890 1627.76807
1646.0 0.000608 1449.72900 1644.38037
1639.0 0.000610 1449.58911 1661.38708
1654.0 0.000605 1449.44934 1676.88794
1685.0 0.000593 1449.30957 1689.73816
1698.0 0.000589 1449.16992 1700.51477
1709.0 0.000585 1449.03027 1711.13586
1746.0 0.000573 1448.89075 1723.54675
1748.0 0.000572 1448.75122 1738.24548
1733.0 0.000577 1448.61169 1754.04834
1725.0 0.000580 1448.47229 1768.66333
1826.0 0.000548 1448.33289 1780.30212
1738.0 0.000575 1448.19348 1789.62256
1761.0 0.000568 1448.05420 1799.53125
1763.0 0.000567 1447.91492 1813.45593
1837.0 0.000544 1447.77563 1834.43433
1836.0 0.000545 1447.63635 1865.43408
1858.0 0.000538 1447.49719 1910.15991
1941.0 0.000515 1447.35791 1974.17456
2027.0 0.000493 1447.21875 2066.19922
2185.0 0.000458 1447.07959 2199.25562
2270.0 0.000441 1446.94043 2391.52100
2625.0 0.000381 1446.80127 2665.61475
2905.0 0.0003442 1446.66211 3045.93872
3403.0 0.0002939 1446.52295 3553.42700
4125.0 0.0002424 1446.38379 4197.91602
5067.0 0.0001974 1446.24463 4968.31201
5931.0 0.0001686 1446.10535 5819.32178
6783.0 0.0001474 1445.96619 6653.39502
7313.0 0.0001367 1445.82703 7309.05908
7737.0 0.0001292 1445.68774 7598.73047
7498.0 0.0001334 1445.54846 7423.37695
7030.0 0.0001422 1445.40918 6858.56299
6249.0 0.0001600 1445.26978 6090.57568
5478.0 0.0001825 1445.13049 5296.19043
4678.0 0.0002138 1444.99109 4591.50488
3958.0 0.0002527 1444.85156 4039.09180
3591.0 0.0002785 1444.71216 3665.57080
3420.0 0.0002924 1444.57263 3473.70654
3420.0 0.0002924 1444.43298 3449.55542
3524.0 0.0002838 1444.29333 3566.61255
3767.0 0.0002655 1444.15356 3786.12378
4175.0 0.0002395 1444.01379 4052.90112
4434.0 0.0002255 1443.87402 4289.35889
4473.0 0.0002236 1443.73401 4406.53174
4406.0 0.0002270 1443.59412 4333.52783
4126.0 0.0002424 1443.45398 4081.46021
3795.0 0.0002635 1443.31384 3720.24487
3403.0 0.0002939 1443.17358 3327.80566
3016.0 0.0003316 1443.03333 2957.83862
2623.0 0.000381 1442.89294 2638.30664
2354.0 0.000425 1442.75244 2379.20264
2166.0 0.000462 1442.61182 2179.13208
2075.0 0.000482 1442.47119 2030.12305
1864.0 0.000536 1442.33032 1921.49146
1917.0 0.000522 1442.18945 1842.64575
1781.0 0.000561 1442.04846 1784.70142
1766.0 0.000566 1441.90723 1740.76587
1703.0 0.000587 1441.76611 1706.35095
1704.0 0.000587 1441.62463 1678.57678
1693.0 0.000591 1441.48315 1655.65125
1612.0 0.000620 1441.34155 1636.12622
1602.0 0.000624 1441.19983 1619.84790
1573.0 0.000636 1441.05798 1605.95288
1627.0 0.000615 1440.91589 1594.01953
1539.0 0.000650 1440.77380 1586.70813
1558.0 0.000642 1440.63147 1577.85876
1572.0 0.000636 1440.48901 1570.26465
1558.0 0.000642 1440.34644 1563.85034
1539.0 0.000650 1440.20374 1558.57166
1494.0 0.000669 1440.06079 1554.38062
1572.0 0.000636 1439.91772 1551.19543
1573.0 0.000636 1439.77454 1550.93848
1470.0 0.000680 1439.63110 1549.23743
1548.0 0.000646 1439.48767 1547.82300
1474.0 0.000678 1439.34387 1546.40247
1575.0 0.000635 1439.19995 1544.99951
1586.0 0.000631 1439.05591 1543.61536
1562.0 0.000640 1438.91174 1542.13806
1553.0 0.000644 1438.76733 1540.36401
1568.0 0.000638 1438.62268 1538.25525
1523.0 0.000657 1438.47803 1536.02954
1503.0 0.000665 1438.33301 1533.94092
1538.0 0.000650 1438.18787 1530.76697
1507.0 0.000664 1438.04248 1528.56091
1526.0 0.000655 1437.89697 1525.77844
1531.0 0.000653 1437.75122 1522.12927
1471.0 0.000680 1437.60535 1517.89807
1493.0 0.000670 1437.45923 1513.59851
1510.0 0.000662 1437.31287 1509.70117
1474.0 0.000678 1437.16638 1506.10522
1474.0 0.000678 1437.01965 1503.45471
1480.0 0.000676 1436.87268 1501.50818
1485.0 0.000673 1436.72546 1500.22571
1491.0 0.000671 1436.57813 1499.53711
1499.0 0.000667 1436.43054 1499.38635
1515.0 0.000660 1436.28271 1500.06909
1505.0 0.000664 1436.13477 1500.67078
1533.0 0.000652 1435.98645 1501.54138
1471.0 0.000680 1435.83801 1502.65491
1491.0 0.000671 1435.68933 1504.10205
1479.0 0.000676 1435.54041 1506.10657
1541.0 0.000649 1435.39136 1508.99561
1491.0 0.000671 1435.24194 1513.18640
1535.0 0.000651 1435.09241 1519.19983
1542.0 0.000649 1434.94250 1527.67200
1547.0 0.000646 1434.79248 1539.33630
1546.0 0.000647 1434.64221 1554.92969
1597.0 0.000626 1434.49170 1575.01501
1632.0 0.000613 1434.34094 1599.74902
1610.0 0.000621 1434.18994 1628.75671
1675.0 0.000597 1434.03870 1661.10120
1707.0 0.000586 1433.88721 1694.93738
1770.0 0.000565 1433.73560 1726.57483
1768.0 0.000566 1433.58362 1750.26135
1752.0 0.000571 1433.43152 1760.57104
1792.0 0.000558 1433.27905 1756.33179
1851.0 0.000540 1433.12634 1741.05054
1722.0 0.000581 1432.97339 1719.08276
1660.0 0.000602 1432.82031 1693.30103
1679.0 0.000596 1432.66699 1665.51135
1659.0 0.000603 1432.51331 1638.03247
1671.0 0.000598 1432.35950 1613.23303
1599.0 0.000625 1432.20532 1592.55969
1570.0 0.000637 1432.05090 1576.44336
1553.0 0.000644 1431.89636 1564.63269
1541.0 0.000649 1431.74146 1556.78162
1559.0 0.000641 1431.58643 1552.23230
1535.0 0.000651 1431.43115 1550.24390
1582.0 0.000632 1431.27551 1550.07654
1573.0 0.000636 1431.11975 1551.00696
1604.0 0.000623 1430.96362 1552.53259
1585.0 0.000631 1430.80737 1554.53784
1531.0 0.000653 1430.65088 1557.23364
1524.0 0.000656 1430.49402 1560.94958
1616.0 0.000619 1430.33704 1566.01489
1559.0 0.000641 1430.17981 1572.76038
1530.0 0.000654 1430.02222 1581.53223
1602.0 0.000624 1429.86462 1592.72974
1614.0 0.000620 1429.70654 1606.78040
1599.0 0.000625 1429.54834 1624.12085
1606.0 0.000623 1429.38989 1645.15833
1612.0 0.000620 1429.23132 1670.23657
1645.0 0.000608 1429.07239 1699.60425
1770.0 0.000565 1428.91321 1727.92407
1678.0 0.000596 1428.75391 1766.51709
1774.0 0.000564 1428.59424 1811.01050
1876.0 0.000533 1428.43457 1865.27820
1978.0 0.000506 1428.27441 1937.09192
2144.0 0.000466 1428.11414 2037.53186
2301.0 0.000435 1427.95361 2179.19482
2490.0 0.000402 1427.79297 2374.16113
2651.0 0.000377 1427.63208 2631.55225
2931.0 0.0003412 1427.47095 2954.46216
3375.0 0.0002963 1427.30957 3336.06445
3772.0 0.0002651 1427.14795 3753.74780
4160.0 0.0002404 1426.98621 4160.58789
4465.0 0.0002240 1426.82422 4480.20898
4611.0 0.0002169 1426.66211 4624.52344
4523.0 0.0002211 1426.49963 4542.97314
4255.0 0.0002350 1426.33704 4271.73682
4085.0 0.0002448 1426.17432 3893.13867
3560.0 0.0002809 1426.01135 3490.27100
3192.0 0.0003133 1425.84814 3118.29321
2833.0 0.000353 1425.68469 2806.09546
2623.0 0.000381 1425.52124 2564.75562
2463.0 0.000406 1425.35742 2394.38940
2341.0 0.000427 1425.19360 2289.17798
2301.0 0.000435 1425.02942 2241.35181
2214.0 0.000452 1424.86523 2244.25171
2223.0 0.000450 1424.70081 2294.52319
2321.0 0.000431 1424.53613 2393.76147
2466.0 0.000406 1424.37134 2548.75391
2665.0 0.000375 1424.20642 2768.97314
2926.0 0.0003418 1424.04126 3061.81836
3328.0 0.0003005 1423.87598 3427.51904
3815.0 0.0002621 1423.71069 3853.69653
4287.0 0.0002333 1423.54504 4308.01758
4716.0 0.0002120 1423.37939 4730.97998
4890.0 0.0002045 1423.21350 5042.65186
5126.0 0.0001951 1423.04749 5182.18994
5076.0 0.0001970 1422.88147 5156.52881
4974.0 0.0002010 1422.71521 5035.05420
4801.0 0.0002083 1422.54883 4893.81885
4835.0 0.0002068 1422.38220 4772.32813
4782.0 0.0002091 1422.21570 4662.79150
4563.0 0.0002192 1422.04895 4520.85742
4268.0 0.0002343 1421.88208 4298.42334
4044.0 0.0002473 1421.71521 3985.28442
3716.0 0.0002691 1421.54810 3616.26270
3185.0 0.0003140 1421.38098 3240.56177
2916.0 0.0003429 1421.21375 2894.34692
2560.0 0.000391 1421.04639 2596.14185
2313.0 0.000432 1420.87903 2352.09106
2125.0 0.000471 1420.71155 2159.76172
2029.0 0.000493 1420.54395 2013.31885
1900.0 0.000526 1420.37634 1904.56262
1817.0 0.000550 1420.20862 1824.96985
1759.0 0.000569 1420.04089 1766.88171
1710.0 0.000585 1419.87305 1724.11731
1675.0 0.000597 1419.70520 1692.15173
1661.0 0.000602 1419.53735 1667.80054
1612.0 0.000620 1419.36938 1648.85974
1603.0 0.000624 1419.20142 1633.78821
1588.0 0.000630 1419.03345 1621.33618
1574.0 0.000635 1418.86536 1610.39417
1590.0 0.000629 1418.69727 1600.10962
1649.0 0.000606 1418.52930 1590.17236
1558.0 0.000642 1418.36121 1580.85046
1605.0 0.000623 1418.19299 1572.66492
1588.0 0.000630 1418.02502 1566.10608
1598.0 0.000626 1417.85693 1561.54150
1569.0 0.000637 1417.68884 1559.27661
1561.0 0.000641 1417.52087 1559.57349
1527.0 0.000655 1417.35278 1562.69934
1554.0 0.000644 1417.18481 1569.06055
1608.0 0.000622 1417.01685 1578.87683
1564.0 0.000639 1416.84900 1592.76917
1630.0 0.000613 1416.68115 1611.25720
1628.0 0.000614 1416.51331 1634.71399
1649.0 0.000606 1416.34558 1663.44800
1711.0 0.000584 1416.17786 1698.27197
1813.0 0.000552 1416.01025 1740.96606
1881.0 0.000532 1415.84265 1793.47644
1865.0 0.000536 1415.67529 1856.04431
1961.0 0.000510 1415.50781 1925.48987
1945.0 0.000514 1415.34058 1993.65039
2028.0 0.000493 1415.17334 2046.94568
2045.0 0.000489 1415.00635 2069.43188
1971.0 0.000507 1414.83936 2051.13501
1977.0 0.000506 1414.67249 1996.44580
1955.0 0.000512 1414.50586 1919.74707
1808.0 0.000553 1414.33923 1836.54626
1780.0 0.000562 1414.17273 1757.53491
1717.0 0.000582 1414.00647 1688.62146
1651.0 0.000606 1413.84033 1631.96667
1618.0 0.000618 1413.67432 1587.55859
1563.0 0.000640 1413.50842 1554.05164
1444.0 0.000693 1413.34277 1529.45520
1568.0 0.000638 1413.17725 1511.66846
1486.0 0.000673 1413.01196 1498.80713
1474.0 0.000678 1412.84680 1489.38037
1514.0 0.000661 1412.68188 1482.31934
1467.0 0.000682 1412.51709 1476.92041
1478.0 0.000677 1412.35266 1472.75647
1439.0 0.000695 1412.18835 1469.58411
1441.0 0.000694 1412.02417 1467.33997
1472.0 0.000679 1411.86035 1466.01636
1493.0 0.000670 1411.69666 1465.67688
1486.0 0.000673 1411.53333 1466.96204
1495.0 0.000669 1411.37012 1468.85742
1509.0 0.000663 1411.20728 1471.91321
1469.0 0.000681 1411.04456 1476.00012
1498.0 0.000668 1410.88208 1480.80347
1486.0 0.000673 1410.72009 1485.82690
1557.0 0.000642 1410.55823 1490.41028
1458.0 0.000686 1410.39673 1493.70239
1430.0 0.000699 1410.23535 1494.76318
1511.0 0.000662 1410.07446 1492.96619
1468.0 0.000681 1409.91382 1488.36877
1517.0 0.000659 1409.75342 1481.65417
1477.0 0.000677 1409.59351 1474.07275
1454.0 0.000688 1409.43372 1466.59412
1422.0 0.000703 1409.27441 1461.03967
1458.0 0.000686 1409.11536 1455.40320
1441.0 0.000694 1408.95667 1450.87988
1472.0 0.000679 1408.79822 1447.32947
1393.0 0.000718 1408.64026 1444.48303
1410.0 0.000709 1408.48267 1442.12622
1445.0 0.000692 1408.32544 1440.05579
1419.0 0.000705 1408.16858 1438.25024
1441.0 0.000694 1408.01196 1436.59839
1379.0 0.000725 1407.85596 1432.15747
1419.0 0.000705 1407.70020 1430.95569
1427.0 0.000701 1407.54492 1429.92493
1387.0 0.000721 1407.38989 1429.06750
1469.0 0.000681 1407.23547 1428.35461
1420.0 0.000704 1407.08142 1427.76575
1405.0 0.000712 1406.92773 1427.28284
1433.0 0.000698 1406.77454 1426.88928
1390.0 0.000719 1406.62183 1426.57422
1393.0 0.000718 1406.46948 1426.32739
1410.0 0.000709 1406.31750 1426.14526
1450.0 0.000690 1406.16614 1426.02698
1414.0 0.000707 1406.01514 1425.98303
1495.0 0.000669 1405.86475 1425.93372
1381.0 0.000724 1405.71472 1426.04980
1387.0 0.000721 1405.56519 1426.27673
1477.0 0.000677 1405.41626 1426.65063
1443.0 0.000693 1405.26770 1427.21252
1425.0 0.000702 1405.11963 1428.01611
1414.0 0.000707 1404.97205 1429.11584
1421.0 0.000704 1404.82507 1430.56116
1427.0 0.000701 1404.67859 1432.38269
1444.0 0.000693 1404.53259 1434.57190
1496.0 0.000668 1404.38721 1437.05994
1470.0 0.000680 1404.24231 1439.69080
1418.0 0.000705 1404.09790 1442.16614
1432.0 0.000698 1403.95410 1444.12830
1462.0 0.000684 1403.81091 1445.31165
1485.0 0.000673 1403.66821 1445.75916
1485.0 0.000673 1403.52600 1445.80298
1491.0 0.000671 1403.38452 1445.85730
1383.0 0.000723 1403.24353 1446.26062
1468.0 0.000681 1403.10315 1447.23059
1505.0 0.000664 1402.96326 1448.86414
1444.0 0.000693 1402.82410 1451.15894
1458.0 0.000686 1402.68542 1454.05200
1414.0 0.000707 1402.54736 1457.53662
1498.0 0.000668 1402.41003 1461.83679
1494.0 0.000669 1402.27319 1467.50879
1502.0 0.000666 1402.13708 1475.37207
1456.0 0.000687 1402.00159 1486.38953
1484.0 0.000674 1401.86658 1501.58508
1598.0 0.000626 1401.73230 1521.99597
1563.0 0.000640 1401.59863 1548.56018
1579.0 0.000633 1401.46570 1581.91235
1638.0 0.000611 1401.33337 1622.00183
1642.0 0.000609 1401.20154 1667.58533
1694.0 0.000590 1401.07056 1715.92737
1797.0 0.000556 1400.94019 1763.64148
1812.0 0.000552 1400.81042 1808.13831
1849.0 0.000541 1400.68152 1847.95654
1870.0 0.000535 1400.55310 1880.50073
1934.0 0.000517 1400.42542 1899.90857
1904.0 0.000525 1400.29846 1895.17090
1799.0 0.000556 1400.17212 1868.99084
1786.0 0.000560 1400.04651 1822.38818
1790.0 0.000559 1399.92163 1765.49548
1685.0 0.000593 1399.79749 1707.31421
1625.0 0.000615 1399.67395 1654.21936
1688.0 0.000592 1399.55115 1609.08118
1692.0 0.000591 1399.42908 1572.52295
1559.0 0.000641 1399.30774 1543.88306
1535.0 0.000651 1399.18713 1522.05200
1474.0 0.000678 1399.06726 1506.04248
1467.0 0.000682 1398.94812 1495.14612
1487.0 0.000672 1398.82959 1488.78821
1575.0 0.000635 1398.71191 1486.63574
1503.0 0.000665 1398.59497 1488.40771
1540.0 0.000649 1398.47876 1493.85620
1481.0 0.000675 1398.36328 1502.62927
1532.0 0.000653 1398.24854 1514.12976
1580.0 0.000633 1398.13464 1527.35510
1550.0 0.000645 1398.02148 1540.63721
1569.0 0.000637 1397.90894 1551.38586
1539.0 0.000650 1397.79736 1556.48035
1535.0 0.000651 1397.68640 1553.83691
1564.0 0.000639 1397.57617 1543.93982
1533.0 0.000652 1397.46692 1529.45752
1457.0 0.000686 1397.35828 1513.43311
1529.0 0.000654 1397.25049 1498.07703
1462.0 0.000684 1397.14343 1484.56995
1511.0 0.000662 1397.03723 1473.51624
1457.0 0.000686 1396.93176 1464.93518
1458.0 0.000686 1396.82703 1458.68457
1480.0 0.000676 1396.72314 1454.38733
1408.0 0.000710 1396.62000 1451.73975
1464.0 0.000683 1396.51770 1450.39148
1435.0 0.000697 1396.41614 1450.13672
1475.0 0.000678 1396.31543 1450.29907
1526.0 0.000655 1396.21558 1451.64673
1400.0 0.000714 1396.11633 1453.68811
1457.0 0.000686 1396.01807 1456.43054
1502.0 0.000666 1395.92053 1459.94324
1439.0 0.000695 1395.82385 1464.35742
1461.0 0.000684 1395.72791 1469.90430
1478.0 0.000677 1395.63281 1476.94702
1407.0 0.000711 1395.53857 1486.04700
1478.0 0.000677 1395.44507 1498.04639
1523.0 0.000657 1395.35242 1514.10693
1535.0 0.000651 1395.26050 1535.79578
1545.0 0.000647 1395.16943 1565.00854
1625.0 0.000615 1395.07922 1603.78674
1622.0 0.000617 1394.98987 1653.98071
1679.0 0.000596 1394.90125 1716.77942
1797.0 0.000556 1394.81348 1792.16455
1877.0 0.000533 1394.72644 1878.23975
1981.0 0.000505 1394.64026 1969.95703
2090.0 0.000478 1394.55493 2057.76392
2155.0 0.000464 1394.47046 2127.05273
2220.0 0.000450 1394.38672 2162.33887
2075.0 0.000482 1394.30383 2156.74097
2140.0 0.000467 1394.22180 2118.27979
2078.0 0.000481 1394.14050 2065.06738
2005.0 0.000499 1394.06006 2015.86719
1932.0 0.000518 1393.98047 1985.28711
1936.0 0.000517 1393.90161 1983.50842
1917.0 0.000522 1393.82361 2017.15381
2041.0 0.000490 1393.74646 2089.51660
2061.0 0.000485 1393.67017 2200.21582
2361.0 0.000424 1393.59460 2344.14014
2482.0 0.000403 1393.51978 2509.63452
2662.0 0.000376 1393.44592 2675.91260
2793.0 0.000358 1393.37280 2811.53906
2808.0 0.000356 1393.30054 2880.33862
2732.0 0.000366 1393.22900 2859.06982
2746.0 0.000364 1393.15833 2753.78931
2554.0 0.000392 1393.08838 2594.63428
2409.0 0.000415 1393.01929 2416.07910
2159.0 0.000463 1392.95105 2241.75464
1992.0 0.000502 1392.88354 2085.27734
2027.0 0.000493 1392.81689 1951.61829
1869.0 0.000535 1392.75098 1841.12439
1777.0 0.000563 1392.68591 1752.16174
1714.0 0.000583 1392.62158 1682.29749
1667.0 0.000600 1392.55811 1628.64832
1618.0 0.000618 1392.49548 1587.91492
1593.0 0.000628 1392.43347 1557.19971
1582.0 0.000632 1392.37231 1534.03906
1560.0 0.000641 1392.31201 1516.53345
1531.0 0.000653 1392.25244 1503.26685
1527.0 0.000655 1392.19360 1493.17651
1535.0 0.000651 1392.13562 1485.42456
1483.0 0.000674 1392.07837 1479.28760
1496.0 0.000668 1392.02185 1474.08948
1503.0 0.000665 1391.96619 1469.22278
1438.0 0.000695 1391.91125 1464.30176
1456.0 0.000687 1391.85706 1459.27954
1453.0 0.000688 1391.80359 1454.36743
1466.0 0.000682 1391.75085 1449.82813
1386.0 0.000722 1391.69897 1445.84937
1399.0 0.000715 1391.64771 1442.52075
1499.0 0.000667 1391.59729 1439.85144
1486.0 0.000673 1391.54761 1437.78442
1495.0 0.000669 1391.49866 1436.19812
1393.0 0.000718 1391.45044 1434.89771
1453.0 0.000688 1391.40283 1433.64929
1401.0 0.000714 1391.35620 1432.24512
1467.0 0.000682 1391.31006 1430.61157
1428.0 0.000700 1391.26465 1428.82056
1468.0 0.000681 1391.22009 1427.05334
1395.0 0.000717 1391.17615 1425.43750
1389.0 0.000720 1391.13293 1424.06335
1420.0 0.000704 1391.09045 1422.98596
1381.0 0.000724 1391.04858 1422.22949
1414.0 0.000707 1391.00745 1421.80884
1447.0 0.000691 1390.96704 1421.73376
1411.0 0.000709 1390.92725 1422.01929
1424.0 0.000702 1390.88818 1422.69104
1485.0 0.000673 1390.84973 1423.78430
1473.0 0.000679 1390.81201 1425.36975
1460.0 0.000685 1390.77490 1427.50964
1383.0 0.000723 1390.73840 1430.28650
1475.0 0.000678 1390.70264 1433.80725
1357.0 0.000737 1390.66748 1438.21387
1446.0 0.000692 1390.63293 1443.67078
1459.0 0.000685 1390.59912 1450.32593
1467.0 0.000682 1390.56592 1458.26465
1550.0 0.000645 1390.53333 1467.47754
1484.0 0.000674 1390.50122 1477.89600
1583.0 0.000632 1390.46997 1489.59326
1486.0 0.000673 1390.43909 1502.99695
1515.0 0.000660 1390.40894 1519.39697
1547.0 0.000646 1390.37939 1540.00171
1540.0 0.000649 1390.35034 1565.59766
1690.0 0.000592 1390.32190 1595.97021
1649.0 0.000606 1390.29407 1629.09009
1707.0 0.000586 1390.26685 1661.87671
1652.0 0.000605 1390.24011 1688.04004
1680.0 0.000595 1390.21399 1700.72144
1683.0 0.000594 1390.18848 1695.72388
1651.0 0.000606 1390.16345 1674.53210
1666.0 0.000600 1390.13892 1643.12720
1665.0 0.000601 1390.11499 1608.12146
1596.0 0.000627 1390.09155 1574.25488
1551.0 0.000645 1390.06860 1544.11023
1542.0 0.000649 1390.04614 1518.57849
1481.0 0.000675 1390.02429 1497.52979
1489.0 0.000672 1390.00281 1480.45081
1482.0 0.000675 1389.98193 1466.78638
1429.0 0.000700 1389.96155 1456.03674
1441.0 0.000694 1389.94153 1447.72388
1472.0 0.000679 1389.92200 1441.39636
1441.0 0.000694 1389.90308 1436.65295
1456.0 0.000687 1389.88440 1433.19299
1402.0 0.000713 1389.86633 1430.80737
1430.0 0.000699 1389.84863 1429.39661
1399.0 0.000715 1389.83142 1428.86365
1457.0 0.000686 1389.81458 1429.48694
1411.0 0.000709 1389.79810 1431.26025
1412.0 0.000708 1389.78223 1434.22937
1428.0 0.000700 1389.76660 1438.33447
1466.0 0.000682 1389.75134 1443.35864
1421.0 0.000704 1389.73657 1448.79529
1407.0 0.000711 1389.72217 1453.84888
1475.0 0.000678 1389.70801 1457.49243
1430.0 0.000699 1389.69434 1458.89197
1462.0 0.000684 1389.68103 1457.90723
1399.0 0.000715 1389.66809 1455.05884
1416.0 0.000706 1389.65540 1451.04224
1374.0 0.000728 1389.64307 1446.38477
1428.0 0.000700 1389.63110 1441.53015
1470.0 0.000680 1389.61938 1436.88696
1417.0 0.000706 1389.60803 1432.89111
1457.0 0.000686 1389.59692 1429.81433
1404.0 0.000712 1389.58618 1427.76001
1456.0 0.000687 1389.57556 1426.71106
1428.0 0.000700 1389.56543 1426.56079
1393.0 0.000718 1389.55542 1427.12488
1427.0 0.000701 1389.54565 1428.16760
1430.0 0.000699 1389.53625 1429.47778
1403.0 0.000713 1389.52710 1431.01306
1426.0 0.000701 1389.51807 1432.92090
1422.0 0.000703 1389.50928 1435.40649
1440.0 0.000694 1389.50073 1438.56079
1443.0 0.000693 1389.49231 1442.25769
1443.0 0.000693 1389.48413 1446.08545
1400.0 0.000714 1389.47620 1449.35266
1467.0 0.000682 1389.46838 1451.25134
1497.0 0.000668 1389.46069 1451.30481
1418.0 0.000705 1389.45325 1449.71680
1470.0 0.000680 1389.44592 1447.22900
1492.0 0.000670 1389.43872 1444.13269
1416.0 0.000706 1389.43176 1442.20398
1431.0 0.000699 1389.42480 1441.35315
1409.0 0.000710 1389.41797 1441.94678
1423.0 0.000703 1389.41125 1444.35083
1460.0 0.000685 1389.40466 1449.02368
1466.0 0.000682 1389.39819 1456.60168
1402.0 0.000713 1389.39172 1467.95789
1474.0 0.000678 1389.38525 1484.20935
1464.0 0.000683 1389.37903 1506.64624
1518.0 0.000659 1389.37268 1536.56128
1552.0 0.000644 1389.36646 1574.98889
1721.0 0.000581 1389.36035 1622.33557
1669.0 0.000599 1389.35413 1677.97595
1757.0 0.000569 1389.34790 1738.35901
1854.0 0.000539 1389.34180 1800.93909
1864.0 0.000536 1389.33557 1856.22424
1954.0 0.000512 1389.32935 1893.40808
1949.0 0.000513 1389.32312 1903.46802
1960.0 0.000510 1389.31689 1884.98633
1894.0 0.000528 1389.31067 1845.21143
1828.0 0.000547 1389.30420 1794.83936
1770.0 0.000565 1389.29785 1742.77820
1754.0 0.000570 1389.29138 1693.90100
1628.0 0.000614 1389.28479 1649.80505
1613.0 0.000620 1389.27808 1610.23865
1596.0 0.000627 1389.27136 1574.68567
1623.0 0.000616 1389.26440 1543.18054
1479.0 0.000676 1389.25745 1516.04639
1544.0 0.000648 1389.25037 1493.37280
1447.0 0.000691 1389.24304 1474.85400
1527.0 0.000655 1389.23560 1459.99353
1430.0 0.000699 1389.22803 1448.19067
1448.0 0.000691 1389.22021 1439.44275
1441.0 0.000694 1389.21228 1432.21655
1490.0 0.000671 1389.20410 1426.60669
1410.0 0.000709 1389.19580 1422.28259
1425.0 0.000702 1389.18726 1418.91724
1377.0 0.000726 1389.17847 1416.29565
1385.0 0.000722 1389.16956 1414.23694
1390.0 0.000719 1389.16028 1412.59607
1406.0 0.000711 1389.15088 1411.24609
1362.0 0.000734 1389.14111 1410.06567
1374.0 0.000728 1389.13110 1408.94202
1351.0 0.000740 1389.12085 1407.78992
1400.0 0.000714 1389.11023 1406.58643
1469.0 0.000681 1389.09937 1405.36584
1404.0 0.000712 1389.08826 1404.17444
1375.0 0.000727 1389.07678 1403.07019
1367.0 0.000732 1389.06494 1402.07104
1415.0 0.000707 1389.05273 1401.18774
1327.0 0.000754 1389.04028 1400.41797
1418.0 0.000705 1389.02747 1399.75757
1369.0 0.000730 1389.01428 1399.18726
1373.0 0.000728 1389.00061 1398.69653
1347.0 0.000742 1388.98669 1398.26709
1411.0 0.000709 1388.97229 1397.88745
1430.0 0.000699 1388.95752 1397.53320
1444.0 0.000693 1388.94238 1398.55872
1303.0 0.000767 1388.92676 1398.26086
1415.0 0.000707 1388.91077 1397.98267
1419.0 0.000705 1388.89429 1397.72827
1370.0 0.000730 1388.87732 1397.49609
1396.0 0.000716 1388.85999 1397.29089
1383.0 0.000723 1388.84204 1397.11084
1427.0 0.000701 1388.82373 1396.95483
1362.0 0.000734 1388.80493 1396.82251
1412.0 0.000708 1388.78564 1396.71289
1421.0 0.000704 1388.76575 1396.62512
1416.0 0.000706 1388.74536 1396.55188
1450.0 0.000690 1388.72449 1396.49219
1350.0 0.000741 1388.70313 1396.47998
1394.0 0.000717 1388.68115 1396.50171
1337.0 0.000748 1388.65869 1396.56580
1422.0 0.000703 1388.63562 1396.68555
1339.0 0.000747 1388.61194 1396.87939
1357.0 0.000737 1388.58765 1397.17078
1368.0 0.000731 1388.56287 1397.58545
1416.0 0.000706 1388.53735 1398.15259
1392.0 0.000718 1388.51135 1398.64209
1475.0 0.000678 1388.48474 1402.02344
1385.0 0.000722 1388.45740 1403.17102
1420.0 0.000704 1388.42944 1404.46460
1377.0 0.000726 1388.40100 1405.82263
1401.0 0.000714 1388.37170 1407.09875
1379.0 0.000725 1388.34180 1408.08643
1367.0 0.000732 1388.31128 1408.60327
1406.0 0.000711 1388.28003 1408.48279
1390.0 0.000719 1388.24805 1407.87451
1351.0 0.000740 1388.21545 1406.98206
1434.0 0.000697 1388.18213 1406.04187
1409.0 0.000710 1388.14807 1405.23120
1444.0 0.000693 1388.11316 1404.67017
1344.0 0.000744 1388.07776 1404.43616
1409.0 0.000710 1388.04150 1404.57910
1429.0 0.000700 1388.00439 1405.12354
1360.0 0.000735 1387.96667 1406.07251
1385.0 0.000722 1387.92810 1407.41528
1395.0 0.000717 1387.88879 1409.10449
1387.0 0.000721 1387.84863 1411.05090
1396.0 0.000716 1387.80786 1413.10474
1390.0 0.000719 1387.76611 1415.04895
1380.0 0.000725 1387.72363 1416.66724
1473.0 0.000679 1387.68030 1417.86719
1402.0 0.000713 1387.63611 1418.75806
1347.0 0.000742 1387.59119 1419.52917
1442.0 0.000693 1387.54529 1420.45154
1422.0 0.000703 1387.49866 1421.54028
1445.0 0.000692 1387.45105 1422.71497
1396.0 0.000716 1387.40271 1423.74548
1470.0 0.000680 1387.35352 1424.27441
1358.0 0.000736 1387.30334 1424.00110
1377.0 0.000726 1387.25220 1422.82117
1429.0 0.000700 1387.20032 1420.95703
1370.0 0.000730 1387.14746 1418.78979
1415.0 0.000707 1387.09375 1416.65991
1433.0 0.000698 1387.03906 1414.77551
1453.0 0.000688 1386.98352 1413.22180
1417.0 0.000706 1386.92700 1412.00330
1464.0 0.000683 1386.86951 1411.09473
1427.0 0.000701 1386.81116 1410.47522
1415.0 0.000707 1386.75171 1410.16858
1401.0 0.000714 1386.69141 1410.16614
1400.0 0.000714 1386.63013 1410.44275
1452.0 0.000689 1386.56787 1410.93994
1356.0 0.000737 1386.50464 1411.56152
1417.0 0.000706 1386.44043 1412.17285
1416.0 0.000706 1386.37524 1412.63342
1408.0 0.000710 1386.30896 1412.79675
1371.0 0.000729 1386.24170 1413.00183
1447.0 0.000691 1386.17346 1412.77368
1414.0 0.000707 1386.10437 1412.49573
1422.0 0.000703 1386.03406 1412.27283
1400.0 0.000714 1385.96265 1412.17615
1385.0 0.000722 1385.89038 1412.24805
1409.0 0.000710 1385.81702 1412.50928
1420.0 0.000704 1385.74255 1412.96692
1419.0 0.000705 1385.66711 1413.61975
1421.0 0.000704 1385.59058 1414.46765
1393.0 0.000718 1385.51294 1415.50854
1442.0 0.000693 1385.43433 1416.74609
1430.0 0.000699 1385.35449 1418.19092
1409.0 0.000710 1385.27368 1419.85901
1442.0 0.000693 1385.19177 1421.77466
1393.0 0.000718 1385.10876 1423.97107
1421.0 0.000704 1385.02466 1426.48877
1431.0 0.000699 1384.93945 1429.38501
1450.0 0.000690 1384.85315 1432.73486
1385.0 0.000722 1384.76575 1436.64905
1462.0 0.000684 1384.67712 1440.85107
1402.0 0.000713 1384.58752 1446.51038
1463.0 0.000684 1384.49670 1453.62573
1442.0 0.000693 1384.40491 1462.81982
1435.0 0.000697 1384.31177 1475.01086
1568.0 0.000638 1384.21765 1491.33081
1446.0 0.000692 1384.12231 1513.09827
1507.0 0.000664 1384.02588 1541.65344
1583.0 0.000632 1383.92834 1578.15100
1576.0 0.000635 1383.82959 1623.83655
1666.0 0.000600 1383.72974 1677.95837
1772.0 0.000564 1383.62866 1739.55811
1849.0 0.000541 1383.52649 1805.39465
1972.0 0.000507 1383.42310 1869.41467
1958.0 0.000511 1383.31848 1922.32922
1978.0 0.000506 1383.21277 1953.26575
2059.0 0.000486 1383.10596 1954.54419
2094.0 0.000478 1382.99792 1926.52332
1991.0 0.000502 1382.88867 1877.19653
1814.0 0.000551 1382.77832 1817.10120
1866.0 0.000536 1382.66675 1755.02356
1689.0 0.000592 1382.55396 1696.81177
1674.0 0.000597 1382.44006 1645.83374
1590.0 0.000629 1382.32483 1603.64343
1572.0 0.000636 1382.20850 1570.50537
1533.0 0.000652 1382.09106 1545.83191
1593.0 0.000628 1381.97241 1528.53723
1510.0 0.000662 1381.85242 1517.32629
1541.0 0.000649 1381.73145 1510.86597
1485.0 0.000673 1381.60901 1507.89026
1525.0 0.000656 1381.48560 1507.24731
1496.0 0.000668 1381.36084 1507.94128
1516.0 0.000660 1381.23511 1509.17896
1536.0 0.000651 1381.10803 1510.41345
1605.0 0.000623 1380.97974 1511.40503
1562.0 0.000640 1380.85034 1512.21069
1536.0 0.000651 1380.71960 1513.03003
1523.0 0.000657 1380.58777 1514.09741
1527.0 0.000655 1380.45471 1515.67505
1484.0 0.000674 1380.32043 1518.10718
1537.0 0.000651 1380.18494 1521.80627
1491.0 0.000671 1380.04834 1527.15320
1535.0 0.000651 1379.91052 1534.57288
1567.0 0.000638 1379.77148 1544.55591
1588.0 0.000630 1379.63123 1557.77588
1593.0 0.000628 1379.48975 1575.22449
1643.0 0.000609 1379.34717 1598.35986
1615.0 0.000619 1379.20337 1629.25208
1683.0 0.000594 1379.05847 1670.68567
1705.0 0.000587 1378.91235 1726.15308
1779.0 0.000562 1378.76489 1799.67273
1866.0 0.000536 1378.61633 1895.37927
2033.0 0.000492 1378.46667 2016.86255
2251.0 0.000444 1378.31580 2166.27148
2313.0 0.000432 1378.16370 2343.22095
2576.0 0.000388 1378.01050 2543.26807
2769.0 0.000361 1377.85608 2755.86621
2959.0 0.0003380 1377.70056 2961.62671
3148.0 0.0003177 1377.54382 3131.11475
3385.0 0.0002954 1377.38586 3230.15845
3359.0 0.0002977 1377.22693 3234.71436
3168.0 0.0003157 1377.06665 3146.29565
3082.0 0.0003245 1376.90540 2991.03613
2898.0 0.0003451 1376.74280 2803.83179
2662.0 0.000376 1376.57922 2614.12451
2488.0 0.000402 1376.41443 2441.66406
2380.0 0.000420 1376.24866 2297.60669
2241.0 0.000446 1376.08167 2188.22192
2009.0 0.000498 1375.91345 2116.63794
2003.0 0.000499 1375.74426 2084.64746
2004.0 0.000499 1375.57397 2093.97510
2058.0 0.000486 1375.40247 2146.97485
2142.0 0.000467 1375.22986 2246.85229
2356.0 0.000424 1375.05627 2397.17285
2495.0 0.000401 1374.88159 2600.72461
2721.0 0.000368 1374.70581 2857.82495
3076.0 0.0003251 1374.52893 3164.06128
3559.0 0.0002810 1374.35095 3507.21802
3968.0 0.0002520 1374.17200 3863.02124
4332.0 0.0002308 1373.99194 4190.68945
4639.0 0.0002156 1373.81079 4433.62061
4736.0 0.0002111 1373.62866 4534.63672
4671.0 0.0002141 1373.44543 4464.90576
4420.0 0.0002262 1373.26135 4243.22412
4021.0 0.0002487 1373.07605 3922.88281
3760.0 0.0002660 1372.88989 3561.96582
3176.0 0.0003149 1372.70264 3204.26318
3029.0 0.0003301 1372.51453 2876.06567
2566.0 0.000390 1372.32520 2590.32910
2358.0 0.000424 1372.13513 2351.29858
2227.0 0.000449 1371.94397 2157.88232
2033.0 0.000492 1371.75195 2005.70630
1871.0 0.000534 1371.55896 1888.55896
1837.0 0.000544 1371.36487 1799.59998
1779.0 0.000562 1371.17004 1732.30066
1680.0 0.000595 1370.97412 1681.12061
1628.0 0.000614 1370.77747 1641.63733
1649.0 0.000606 1370.57983 1610.58960
1581.0 0.000633 1370.38135 1585.66443
1565.0 0.000639 1370.18201 1565.26221
1568.0 0.000638 1369.98169 1548.28906
1543.0 0.000648 1369.78064 1534.00757
1506.0 0.000664 1369.57861 1521.85339
1473.0 0.000679 1369.37585 1511.45410
1513.0 0.000661 1369.17224 1502.50720
1441.0 0.000694 1368.96777 1494.76172
1497.0 0.000668 1368.76257 1487.99207
1469.0 0.000681 1368.55664 1482.18787
1478.0 0.000677 1368.34985 1476.80127
1502.0 0.000666 1368.14221 1471.93408
1500.0 0.000667 1367.93408 1467.59937
1441.0 0.000694 1367.72498 1463.78857
1454.0 0.000688 1367.51526 1460.57739
1437.0 0.000696 1367.30481 1458.02661
1430.0 0.000699 1367.09363 1456.21143
1454.0 0.000688 1366.88171 1455.31909
1457.0 0.000686 1366.66931 1455.36145
1439.0 0.000695 1366.45605 1456.66968
1517.0 0.000659 1366.24219 1459.60583
1462.0 0.000684 1366.02783 1464.65906
1441.0 0.000694 1365.81274 1472.44580
1504.0 0.000665 1365.59717 1483.70081
1510.0 0.000662 1365.38086 1499.11719
1565.0 0.000639 1365.16406 1519.37000
1572.0 0.000636 1364.94666 1544.86890
1552.0 0.000644 1364.72876 1575.58325
1553.0 0.000644 1364.51038 1610.78564
1612.0 0.000620 1364.29138 1648.69067
1658.0 0.000603 1364.07190 1686.00989
1754.0 0.000570 1363.85193 1717.67786
1761.0 0.000568 1363.63171 1737.50293
1842.0 0.000543 1363.41077 1740.44604
1706.0 0.000586 1363.18958 1725.49634
1668.0 0.000600 1362.96790 1696.37659
1608.0 0.000622 1362.74585 1659.24158
1583.0 0.000632 1362.52332 1619.84741
1596.0 0.000627 1362.30054 1582.14392
1509.0 0.000663 1362.07739 1548.48340
1533.0 0.000652 1361.85388 1519.96753
1475.0 0.000678 1361.63013 1496.88794
1475.0 0.000678 1361.40601 1479.02148
1427.0 0.000701 1361.18164 1465.85681
1466.0 0.000682 1360.95703 1456.76587
1481.0 0.000675 1360.73206 1451.14856
1437.0 0.000696 1360.50708 1448.53394
1448.0 0.000691 1360.28174 1448.63611
1438.0 0.000695 1360.05627 1451.39270
1469.0 0.000681 1359.83057 1456.96338
1391.0 0.000719 1359.60486 1465.71118
1505.0 0.000664 1359.37891 1478.14819
1431.0 0.000699 1359.15295 1494.84985
1512.0 0.000661 1358.92676 1516.35449
1563.0 0.000640 1358.70056 1542.99170
1567.0 0.000638 1358.47437 1574.94458
1570.0 0.000637 1358.24805 1612.07935
1599.0 0.000625 1358.02173 1653.64612
1741.0 0.000574 1357.79541 1697.73730
1734.0 0.000577 1357.56921 1740.66687
1715.0 0.000583 1357.34302 1776.63745
1766.0 0.000566 1357.11682 1798.47375
1785.0 0.000560 1356.89087 1800.24194
1848.0 0.000541 1356.66479 1780.67078
1697.0 0.000589 1356.43909 1744.07971
1629.0 0.000614 1356.21326 1697.73315
1576.0 0.000635 1355.98792 1648.46912
1626.0 0.000615 1355.76245 1601.10144
1531.0 0.000653 1355.53735 1558.42834
1477.0 0.000677 1355.31262 1521.77002
1496.0 0.000668 1355.08789 1491.45007
1440.0 0.000694 1354.86353 1467.14954
1414.0 0.000707 1354.63953 1448.16602
1441.0 0.000694 1354.41577 1433.61633
1431.0 0.000699 1354.19238 1422.60413
1374.0 0.000728 1353.96936 1414.27783
1399.0 0.000715 1353.74670 1407.95996
1434.0 0.000697 1353.52441 1403.12146
1405.0 0.000712 1353.30261 1399.37683
1372.0 0.000729 1353.08118 1396.46631
1380.0 0.000725 1352.86035 1394.22351
1429.0 0.000700 1352.63977 1392.54724
1384.0 0.000723 1352.41992 1391.39014
1372.0 0.000729 1352.20056 1390.70044
1453.0 0.000688 1351.98169 1390.47461
1332.0 0.000751 1351.76343 1390.67419
1355.0 0.000738 1351.54578 1390.90637
1330.0 0.000752 1351.32886 1391.75964
1442.0 0.000693 1351.11230 1392.79712
1413.0 0.000708 1350.89673 1393.84021
1367.0 0.000732 1350.68164 1394.80054
1429.0 0.000700 1350.46729 1395.47485
1374.0 0.000728 1350.25366 1395.66064
1376.0 0.000727 1350.04089 1395.19482
1385.0 0.000722 1349.82886 1394.13721
1434.0 0.000697 1349.61755 1392.73596
1440.0 0.000694 1349.40710 1391.33093
1413.0 0.000708 1349.19751 1390.23328
1383.0 0.000723 1348.98877 1389.88623
1432.0 0.000698 1348.78088 1390.07117
1404.0 0.000712 1348.57397 1391.12744
1405.0 0.000712 1348.36804 1393.17236
1362.0 0.000734 1348.16296 1396.30566
1361.0 0.000735 1347.95886 1400.61121
1378.0 0.000726 1347.75574 1406.14331
1423.0 0.000703 1347.55371 1412.92224
1412.0 0.000708 1347.35266 1420.94128
1331.0 0.000751 1347.15283 1430.22534
1477.0 0.000677 1346.95386 1440.85291
1468.0 0.000681 1346.75610 1452.91736
1447.0 0.000691 1346.55957 1466.32361
1489.0 0.000672 1346.36401 1480.78296
1525.0 0.000656 1346.16980 1494.45410
1536.0 0.000651 1345.97668 1509.57275
1492.0 0.000670 1345.78479 1523.99951
1535.0 0.000651 1345.59412 1536.29810
1494.0 0.000669 1345.40479 1544.22644
1505.0 0.000664 1345.21667 1545.41345
1580.0 0.000633 1345.02991 1538.74829
1515.0 0.000660 1344.84448 1525.16565
1532.0 0.000653 1344.66028 1507.26819
1509.0 0.000663 1344.47754 1487.91675
1479.0 0.000676 1344.29614 1469.36096
1379.0 0.000725 1344.11621 1453.04749
1427.0 0.000701 1343.93762 1439.78198
1403.0 0.000713 1343.76050 1429.92310
1395.0 0.000717 1343.58496 1423.60876
1389.0 0.000720 1343.41077 1420.48352
1370.0 0.000730 1343.23816 1420.39636
1362.0 0.000734 1343.06702 1422.59546
1403.0 0.000713 1342.89746 1426.49658
1429.0 0.000700 1342.72949 1431.16968
1354.0 0.000739 1342.56311 1435.43567
1450.0 0.000690 1342.39819 1438.03833
1478.0 0.000677 1342.23511 1435.65222
1440.0 0.000694 1342.07361 1433.04468
1404.0 0.000712 1341.91370 1428.43750
1431.0 0.000699 1341.75549 1422.82397
1411.0 0.000709 1341.59900 1417.04297
1420.0 0.000704 1341.44421 1411.59839
1356.0 0.000737 1341.29114 1406.68359
1383.0 0.000723 1341.13989 1402.46130
1361.0 0.000735 1340.99023 1399.03528
1411.0 0.000709 1340.84265 1396.60730
1453.0 0.000688 1340.69666 1395.40662
1377.0 0.000726 1340.55249 1395.65466
1425.0 0.000702 1340.41016 1397.55261
1345.0 0.000743 1340.26978 1401.32227
1409.0 0.000710 1340.13123 1407.21204
1433.0 0.000698 1339.99451 1415.49561
1400.0 0.000714 1339.85974 1426.43469
1502.0 0.000666 1339.72681 1440.22021
1502.0 0.000666 1339.59583 1456.92688
1400.0 0.000714 1339.46692 1476.52185
1564.0 0.000639 1339.33972 1498.92932
1536.0 0.000651 1339.21472 1523.98230
1548.0 0.000646 1339.09155 1551.13879
1563.0 0.000640 1338.97046 1579.02625
1549.0 0.000646 1338.85132 1605.08691
1611.0 0.000621 1338.73425 1625.77637
1602.0 0.000624 1338.61926 1637.69055
1630.0 0.000613 1338.50623 1639.28174
1655.0 0.000604 1338.39526 1631.70544
1602.0 0.000624 1338.28638 1617.91040
1593.0 0.000628 1338.17969 1601.13647
1637.0 0.000611 1338.07495 1583.74463
1570.0 0.000637 1337.97229 1566.73413
1476.0 0.000678 1337.87183 1549.93884
1507.0 0.000664 1337.77344 1532.75098
1570.0 0.000637 1337.67725 1514.97278
1495.0 0.000669 1337.58313 1497.13831
1407.0 0.000711 1337.49121 1480.10852
1412.0 0.000708 1337.40137 1464.50793
1405.0 0.000712 1337.31372 1450.44678
1434.0 0.000697 1337.22839 1437.74561
1428.0 0.000700 1337.14502 1426.20801
1404.0 0.000712 1337.06396 1415.84009
1423.0 0.000703 1336.98511 1406.81702
1383.0 0.000723 1336.90845 1399.33228
1441.0 0.000694 1336.83386 1393.49011
1383.0 0.000723 1336.76160 1389.28748
1407.0 0.000711 1336.69153 1386.64063
1395.0 0.000717 1336.62366 1385.38843
1302.0 0.000768 1336.55798 1385.06262
1441.0 0.000694 1336.49463 1385.89783
1395.0 0.000717 1336.43335 1387.20813
1452.0 0.000689 1336.37439 1388.44580
1361.0 0.000735 1336.31775 1388.98682
1408.0 0.000710 1336.26318 1388.31543
1390.0 0.000719 1336.21094 1386.26843
1441.0 0.000694 1336.16089 1383.10620
1411.0 0.000709 1336.11304 1379.34180
1436.0 0.000696 1336.06750 1375.49988
1402.0 0.000713 1336.02417 1371.98181
1384.0 0.000723 1335.98303 1369.07935
1365.0 0.000733 1335.94409 1366.88660
1384.0 0.000723 1335.90747 1365.50378
1380.0 0.000725 1335.87305 1364.93726
1391.0 0.000719 1335.84082 1365.13574
1399.0 0.000715 1335.81091 1365.99976
1410.0 0.000709 1335.78308 1367.34033
1345.0 0.000743 1335.75757 1368.90881
1382.0 0.000724 1335.73413 1370.36914
1399.0 0.000715 1335.71289 1371.28662
1488.0 0.000672 1335.69397 1371.32178
1465.0 0.000683 1335.67725 1370.33167
1400.0 0.000714 1335.66260 1368.50244
1403.0 0.000713 1335.65015 1366.15442
1367.0 0.000732 1335.63989 1364.92407
1389.0 0.000720 1335.63171 1362.51733
1343.0 0.000745 1335.62573 1360.39465
1381.0 0.000724 1335.62183 1358.64734
1380.0 0.000725 1335.62012 1356.98547
1360.0 0.000735 1335.62048 1356.10742
1353.0 0.000739 1335.62305 1355.66772
1305.0 0.000766 1335.62756 1355.65112
1331.0 0.000751 1335.63416 1356.03699
1415.0 0.000707 1335.64282 1356.80420
1397.0 0.000716 1335.65369 1357.92773
1343.0 0.000745 1335.66638 1359.38147
1386.0 0.000722 1335.68127 1361.13245
1377.0 0.000726 1335.69812 1363.12085
1412.0 0.000708 1335.71692 1365.24426
1391.0 0.000719 1335.73767 1367.34387
1336.0 0.000749 1335.76038 1369.22437
1363.0 0.000734 1335.78516 1370.72913
1401.0 0.000714 1335.81165 1371.83423
1354.0 0.000739 1335.84021 1372.68384
1396.0 0.000716 1335.87061 1373.51770
1359.0 0.000736 1335.90295 1374.56934
1407.0 0.000711 1335.93701 1376.00415
1443.0 0.000693 1335.97302 1377.91272
1401.0 0.000714 1336.01062 1380.34888
1498.0 0.000668 1336.05017 1383.38965
1390.0 0.000719 1336.09143 1387.17908
1404.0 0.000712 1336.13452 1391.91760
1416.0 0.000706 1336.17932 1397.80688
1426.0 0.000701 1336.22571 1405.00183
1481.0 0.000675 1336.27380 1414.68286
1462.0 0.000684 1336.32349 1424.80859
1446.0 0.000692 1336.37488 1436.64307
1501.0 0.000666 1336.42786 1450.46545
1458.0 0.000686 1336.48242 1466.52441
1528.0 0.000654 1336.53845 1484.84387
1523.0 0.000657 1336.59607 1505.13599
1509.0 0.000663 1336.65515 1526.56421
1570.0 0.000637 1336.71558 1547.50586
1630.0 0.000613 1336.77759 1565.41504
1601.0 0.000625 1336.84094 1577.07922
1622.0 0.000617 1336.90564 1579.75073
1613.0 0.000620 1336.97168 1572.63293
1564.0 0.000639 1337.03906 1557.40833
1515.0 0.000660 1337.10767 1537.30750
1497.0 0.000668 1337.17749 1517.47156
1520.0 0.000658 1337.24854 1496.69543
1512.0 0.000661 1337.32080 1478.35535
1438.0 0.000695 1337.39429 1463.23340
1455.0 0.000687 1337.46875 1451.54089
1404.0 0.000712 1337.54431 1443.10706
1437.0 0.000696 1337.62097 1437.42944
1428.0 0.000700 1337.69861 1433.85425
1515.0 0.000660 1337.77722 1431.74658
1460.0 0.000685 1337.85681 1430.66003
1438.0 0.000695 1337.93726 1430.51514
1388.0 0.000720 1338.01855 1431.46155
1419.0 0.000705 1338.10071 1433.79700
1412.0 0.000708 1338.18359 1437.77954
1348.0 0.000742 1338.26721 1443.53931
1447.0 0.000691 1338.35168 1450.96411
1458.0 0.000686 1338.43665 1460.37549
1401.0 0.000714 1338.52234 1471.80310
1487.0 0.000672 1338.60864 1485.49988
1486.0 0.000673 1338.69543 1501.55481
1504.0 0.000665 1338.78284 1519.58032
1540.0 0.000649 1338.87061 1538.45642
1523.0 0.000657 1338.95886 1556.20178
1615.0 0.000619 1339.04749 1570.12842
1492.0 0.000670 1339.13635 1577.45642
1597.0 0.000626 1339.22571 1576.27209
1602.0 0.000624 1339.31519 1566.33167
1534.0 0.000652 1339.40491 1549.19067
1547.0 0.000646 1339.49487 1527.52563
1525.0 0.000656 1339.58496 1504.18103
1525.0 0.000656 1339.67505 1481.20471
1502.0 0.000666 1339.76526 1460.01306
1488.0 0.000672 1339.85547 1441.46704
1413.0 0.000708 1339.94556 1425.79456
1427.0 0.000701 1340.03552 1412.96570
1370.0 0.000730 1340.12549 1402.78528
1394.0 0.000717 1340.21521 1394.85828
1345.0 0.000743 1340.30469 1388.83179
1333.0 0.000750 1340.39380 1384.31738
1366.0 0.000732 1340.48279 1380.98608
1306.0 0.000766 1340.57129 1378.53479
1402.0 0.000713 1340.65930 1376.72131
1385.0 0.000722 1340.74695 1375.36316
1367.0 0.000732 1340.83411 1374.33606
1306.0 0.000766 1340.92065 1373.57507
1320.0 0.000758 1341.00659 1373.06628
1333.0 0.000750 1341.09204 1372.82544
1366.0 0.000732 1341.17651 1372.88831
1339.0 0.000747 1341.26038 1373.30481
1367.0 0.000732 1341.34351 1374.13196
1392.0 0.000718 1341.42578 1375.42969
1329.0 0.000752 1341.50708 1377.24072
1436.0 0.000696 1341.58752 1379.65137
1409.0 0.000710 1341.66699 1382.66455
1358.0 0.000736 1341.74536 1386.26782
1401.0 0.000714 1341.82263 1390.39270
1449.0 0.000690 1341.89880 1394.89429
1393.0 0.000718 1341.97388 1399.51025
1390.0 0.000719 1342.04761 1403.63208
1416.0 0.000706 1342.12012 1407.27234
1435.0 0.000697 1342.19128 1409.32483
1418.0 0.000705 1342.26111 1409.72241
1350.0 0.000741 1342.32947 1408.55872
1399.0 0.000715 1342.39636 1406.31238
1456.0 0.000687 1342.46179 1403.57263
1315.0 0.000760 1342.52563 1400.74597
1393.0 0.000718 1342.58789 1398.29016
1364.0 0.000733 1342.64844 1396.23657
1343.0 0.000745 1342.70728 1394.54248
1339.0 0.000747 1342.76440 1393.06873
1339.0 0.000747 1342.81970 1391.65942
1372.0 0.000729 1342.87317 1390.24060
1318.0 0.000759 1342.92480 1388.80359
1362.0 0.000734 1342.97437 1387.49890
1313.0 0.000762 1343.02209 1387.33032
1317.0 0.000759 1343.06763 1386.56311
1413.0 0.000708 1343.11121 1386.15576
1393.0 0.000718 1343.15259 1386.14429
1365.0 0.000733 1343.19189 1386.55786
1394.0 0.000717 1343.22888 1387.42371
1410.0 0.000709 1343.26367 1388.77039
1426.0 0.000701 1343.29614 1390.62756
1366.0 0.000732 1343.32629 1393.02087
1316.0 0.000760 1343.35400 1395.97534
1378.0 0.000726 1343.37927 1399.48474
1355.0 0.000738 1343.40210 1403.50940
1398.0 0.000715 1343.42249 1408.06201
1371.0 0.000729 1343.44019 1413.00903
1409.0 0.000710 1343.45532 1418.15723
1436.0 0.000696 1343.46777 1423.19336
1472.0 0.000679 1343.47766 1427.70276
1422.0 0.000703 1343.48474 1431.28687
1472.0 0.000679 1343.48901 1433.74036
1496.0 0.000668 1343.49060 1435.15601
1457.0 0.000686 1343.48926 1435.84351
1471.0 0.000680 1343.48499 1436.15015
1455.0 0.000687 1343.47791 1436.34534
1472.0 0.000679 1343.46777 1436.62244
1447.0 0.000691 1343.45471 1437.15564
1433.0 0.000698 1343.43860 1438.13806
1430.0 0.000699 1343.41943 1439.73706
1441.0 0.000694 1343.39722 1442.09949
1498.0 0.000668 1343.37183 1445.39465
1431.0 0.000699 1343.34326 1449.71228
1452.0 0.000689 1343.31152 1455.16443
1466.0 0.000682 1343.27649 1461.89294
1448.0 0.000691 1343.23828 1470.09998
1471.0 0.000680 1343.19666 1480.09375
1499.0 0.000667 1343.15173 1492.30151
1446.0 0.000692 1343.10352 1507.37939
1563.0 0.000640 1343.05188 1526.24463
1576.0 0.000635 1342.99695 1550.14954
1644.0 0.000608 1342.93848 1580.73694
1665.0 0.000601 1342.87659 1620.05420
1690.0 0.000592 1342.81116 1670.50903
1826.0 0.000548 1342.74219 1734.72705
1861.0 0.000537 1342.66980 1815.30481
1951.0 0.000513 1342.59375 1914.43872
2162.0 0.000463 1342.51416 2033.46704
2168.0 0.000461 1342.43091 2172.32935
2288.0 0.000437 1342.34412 2328.90967
2474.0 0.000404 1342.25354 2498.10938
2640.0 0.000379 1342.15942 2670.49854
2729.0 0.000366 1342.06165 2830.94995
2870.0 0.0003484 1341.96008 2958.62817
2896.0 0.0003453 1341.85486 3031.15063
2917.0 0.0003428 1341.74585 3033.26099
2935.0 0.0003407 1341.63330 2964.93823
2872.0 0.0003482 1341.51672 2841.49976
2808.0 0.000356 1341.39648 2685.48779
2586.0 0.000387 1341.27258 2518.08545
2444.0 0.000409 1341.14478 2354.81958
2237.0 0.000447 1341.01318 2205.35693
2083.0 0.000480 1340.87781 2074.89429
2023.0 0.000494 1340.73865 1965.47656
1971.0 0.000507 1340.59558 1877.11902
1825.0 0.000548 1340.44873 1808.48621
1730.0 0.000578 1340.29810 1757.51697
1713.0 0.000584 1340.14355 1721.97266
1748.0 0.000572 1339.98523 1699.74084
1721.0 0.000581 1339.82312 1689.20496
1699.0 0.000589 1339.65710 1689.40710
1702.0 0.000588 1339.48718 1700.13318
1785.0 0.000560 1339.31360 1721.89160
1711.0 0.000584 1339.13611 1755.81506
1747.0 0.000572 1338.95471 1803.47791
1762.0 0.000568 1338.76965 1866.42566
1839.0 0.000544 1338.58069 1946.65759
1989.0 0.000503 1338.38806 2044.99048
2107.0 0.000475 1338.19141 2161.40479
2229.0 0.000449 1337.99121 2294.23804
2456.0 0.000407 1337.78711 2439.37134
2577.0 0.000388 1337.57935 2589.16650
2802.0 0.000357 1337.36768 2731.50220
2963.0 0.0003375 1337.15247 2850.17725
3042.0 0.0003287 1336.93347 2928.60620
3109.0 0.0003216 1336.71069 2956.92505
3056.0 0.0003272 1336.48438 2938.14282
2863.0 0.0003493 1336.25439 2887.77881
2791.0 0.000358 1336.02075 2827.17603
2693.0 0.000371 1335.78345 2776.62085
2691.0 0.000372 1335.54260 2751.69922
2636.0 0.000379 1335.29810 2762.82568
2709.0 0.000369 1335.05017 2815.74170
2799.0 0.000357 1334.79871 2911.83960
2971.0 0.0003366 1334.54382 3047.99731
3219.0 0.0003107 1334.28540 3215.63550
3430.0 0.0002915 1334.02356 3399.38916
3745.0 0.0002670 1333.75830 3575.62671
3834.0 0.0002608 1333.48962 3713.43359
3874.0 0.0002581 1333.21777 3780.81982
3718.0 0.0002690 1332.94250 3756.52246
3612.0 0.0002769 1332.66406 3640.27173
3453.0 0.0002896 1332.38245 3452.19629
3189.0 0.0003136 1332.09753 3221.89844
2987.0 0.0003348 1331.80957 2977.35083
2716.0 0.000368 1331.51831 2738.70776
2471.0 0.000405 1331.22424 2518.84326
2377.0 0.000421 1330.92688 2324.27515
2143.0 0.000467 1330.62683 2157.48218
2031.0 0.000492 1330.32361 2018.22852
1936.0 0.000517 1330.01770 1904.45276
1837.0 0.000544 1329.70886 1813.22302
1733.0 0.000577 1329.39722 1741.13342
1670.0 0.000599 1329.08289 1684.74768
1662.0 0.000602 1328.76575 1640.89587
1616.0 0.000619 1328.44617 1606.86694
1567.0 0.000638 1328.12378 1580.51941
1522.0 0.000657 1327.79907 1560.13635
1597.0 0.000626 1327.47168 1544.55591
1449.0 0.000690 1327.14209 1532.94348
1512.0 0.000661 1326.81006 1524.72290
1513.0 0.000661 1326.47559 1519.48267
1474.0 0.000678 1326.13904 1516.89539
1519.0 0.000658 1325.80017 1516.64526
1511.0 0.000662 1325.45923 1518.33118
1536.0 0.000651 1325.11621 1521.80518
1533.0 0.000652 1324.77124 1525.42114
1519.0 0.000658 1324.42432 1528.51392
1532.0 0.000653 1324.07544 1529.93274
1486.0 0.000673 1323.72473 1528.83130
1572.0 0.000636 1323.37231 1525.00745
1514.0 0.000661 1323.01831 1518.88074
1568.0 0.000638 1322.66248 1511.11304
1572.0 0.000636 1322.30530 1502.23816
1524.0 0.000656 1321.94653 1492.57617
1456.0 0.000687 1321.58643 1482.39160
1479.0 0.000676 1321.22510 1472.05273
1471.0 0.000680 1320.86218 1462.04871
1468.0 0.000681 1320.49829 1452.85388
1470.0 0.000680 1320.13318 1444.82190
1458.0 0.000686 1319.76709 1438.12439
1494.0 0.000669 1319.39990 1432.94202
1422.0 0.000703 1319.03198 1429.28186
1437.0 0.000696 1318.66309 1427.16846
1489.0 0.000672 1318.29358 1426.65454
1459.0 0.000685 1317.92334 1427.83716
1422.0 0.000703 1317.55249 1430.85120
1470.0 0.000680 1317.18115 1435.90027
1412.0 0.000708 1316.80920 1443.22766
1482.0 0.000675 1316.43713 1453.58289
1561.0 0.000641 1316.06458 1466.23865
1437.0 0.000696 1315.69189 1481.85840
1487.0 0.000672 1315.31909 1500.50330
1505.0 0.000664 1314.94617 1522.04114
1514.0 0.000661 1314.57336 1546.05261
1636.0 0.000611 1314.20056 1571.70337
1672.0 0.000598 1313.82800 1597.62061
1685.0 0.000593 1313.45569 1621.91699
1662.0 0.000602 1313.08374 1642.59949
1637.0 0.000611 1312.71216 1658.48315
1684.0 0.000594 1312.34119 1670.15808
1598.0 0.000626 1311.97083 1680.21899
1663.0 0.000601 1311.60095 1692.54797
1618.0 0.000618 1311.23193 1711.23950
1694.0 0.000590 1310.86365 1739.85059
1701.0 0.000588 1310.49646 1781.06445
1719.0 0.000582 1310.13013 1836.54370
1815.0 0.000551 1309.76489 1906.76343
1878.0 0.000532 1309.40076 1990.73962
2040.0 0.000490 1309.03796 2085.58447
2198.0 0.000455 1308.67651 2185.86621
2361.0 0.000424 1308.31628 2282.90845
2439.0 0.000410 1307.95776 2364.64429
2488.0 0.000402 1307.60059 2417.27319
2457.0 0.000407 1307.24512 2429.50879
2384.0 0.000419 1306.89124 2397.67749
2275.0 0.000440 1306.53931 2327.61108
2212.0 0.000452 1306.18933 2231.51904
2067.0 0.000484 1305.84106 2122.73657
1956.0 0.000511 1305.49500 2012.10999
1810.0 0.000552 1305.15088 1906.96985
1831.0 0.000546 1304.80908 1811.60120
1688.0 0.000592 1304.46936 1728.07056
1649.0 0.000606 1304.13208 1656.94507
1559.0 0.000641 1303.79712 1597.83923
1563.0 0.000640 1303.46472 1549.66150
1472.0 0.000679 1303.13477 1511.06287
1525.0 0.000656 1302.80750 1480.51978
1424.0 0.000702 1302.48291 1456.53198
1415.0 0.000707 1302.16101 1437.73511
1436.0 0.000696 1301.84204 1422.96521
1454.0 0.000688 1301.52588 1411.28271
1395.0 0.000717 1301.21265 1401.95911
1375.0 0.000727 1300.90247 1394.44031
1431.0 0.000699 1300.59546 1388.30798
1398.0 0.000715 1300.29163 1383.23975
1390.0 0.000719 1299.99084 1378.96814
1424.0 0.000702 1299.69348 1375.26648
1405.0 0.000712 1299.39941 1371.92273
1422.0 0.000703 1299.10876 1368.85718
1344.0 0.000744 1298.82141 1365.99304
1319.0 0.000758 1298.53784 1363.33435
1377.0 0.000726 1298.25769 1360.90369
1371.0 0.000729 1297.98120 1358.68237
1306.0 0.000766 1297.70837 1356.65833
1421.0 0.000704 1297.43933 1354.65039
1356.0 0.000737 1297.17395 1352.57190
1395.0 0.000717 1296.91248 1350.33960
1364.0 0.000733 1296.65491 1347.94592
1366.0 0.000732 1296.40125 1345.46155
1380.0 0.000725 1296.15149 1343.01733
1323.0 0.000756 1295.90588 1340.69409
1330.0 0.000752 1295.66418 1338.59546
1283.0 0.000779 1295.42676 1336.79236
1336.0 0.000749 1295.19324 1335.33069
1404.0 0.000712 1294.96411 1334.25452
1390.0 0.000719 1294.73901 1333.66492
1382.0 0.000724 1294.51819 1333.47522
1327.0 0.000754 1294.30164 1333.78748
1387.0 0.000721 1294.08936 1334.63562
1355.0 0.000738 1293.88147 1336.05176
1325.0 0.000755 1293.67786 1338.04199
1389.0 0.000720 1293.47864 1340.59814
1372.0 0.000729 1293.28381 1343.70630
1361.0 0.000735 1293.09351 1347.16760
1273.0 0.000786 1292.90747 1349.53455
1349.0 0.000741 1292.72595 1353.08337
1357.0 0.000737 1292.54883 1356.13037
1391.0 0.000719 1292.37622 1358.30920
1369.0 0.000730 1292.20813 1359.39282
1359.0 0.000736 1292.04443 1359.36011
1400.0 0.000714 1291.88538 1358.34387
1345.0 0.000743 1291.73071 1356.53149
1320.0 0.000758 1291.58057 1354.11646
1433.0 0.000698 1291.43494 1351.29553
1290.0 0.000775 1291.29382 1348.27551
1325.0 0.000755 1291.15710 1345.24585
1363.0 0.000734 1291.02490 1342.34546
1385.0 0.000722 1290.89734 1339.63379
1352.0 0.000740 1290.77405 1337.08923
1313.0 0.000762 1290.65527 1334.64880
1363.0 0.000734 1290.54089 1332.22620
1320.0 0.000758 1290.43091 1329.81909
1371.0 0.000729 1290.32532 1327.48218
1372.0 0.000729 1290.22424 1325.28491
1336.0 0.000749 1290.12744 1323.30542
1356.0 0.000737 1290.03491 1321.59155
1287.0 0.000777 1289.94666 1320.16748
1275.0 0.000784 1289.86267 1319.04285
1337.0 0.000748 1289.78296 1318.22876
1305.0 0.000766 1289.70740 1317.68994
1362.0 0.000734 1289.63599 1317.43335
1336.0 0.000749 1289.56873 1317.44849
1287.0 0.000777 1289.50549 1317.72778
1339.0 0.000747 1289.44617 1318.26038
1324.0 0.000755 1289.39099 1317.95618
1296.0 0.000772 1289.33972 1318.96045
1315.0 0.000760 1289.29224 1320.16138
1310.0 0.000763 1289.24866 1321.50806
1380.0 0.000725 1289.20874 1322.94275
1373.0 0.000728 1289.17249 1324.37781
1313.0 0.000762 1289.14001 1325.71558
1340.0 0.000746 1289.11108 1326.86316
1351.0 0.000740 1289.08557 1327.82141
1300.0 0.000769 1289.06360 1328.64404
1345.0 0.000743 1289.04504 1329.46814
1322.0 0.000756 1289.02966 1330.45728
1302.0 0.000768 1289.01758 1331.77429
1303.0 0.000767 1289.00867 1333.57605
1291.0 0.000775 1289.00281 1335.97937
1329.0 0.000752 1288.99988 1337.23474
1302.0 0.000768 1288.99988 1341.15637
1289.0 0.000776 1289.00281 1346.41406
1396.0 0.000716 1289.00842 1352.06604
1311.0 0.000763 1289.01672 1358.58032
1418.0 0.000705 1289.02759 1365.87988
1434.0 0.000697 1289.04089 1373.80237
1349.0 0.000741 1289.05664 1382.09875
1309.0 0.000764 1289.07458 1390.47351
1430.0 0.000699 1289.09485 1398.70483
1458.0 0.000686 1289.11707 1406.86084
1377.0 0.000726 1289.14136 1415.32605
1418.0 0.000705 1289.16760 1424.77869
1455.0 0.000687 1289.19556 1435.98840
1496.0 0.000668 1289.22510 1449.63745
1450.0 0.000690 1289.25635 1466.24268
1523.0 0.000657 1289.28906 1486.18201
1424.0 0.000702 1289.32312 1509.77808
1588.0 0.000630 1289.35840 1537.36072
1492.0 0.000670 1289.39490 1569.16809
1624.0 0.000616 1289.43237 1605.09631
1617.0 0.000618 1289.47083 1644.36450
1695.0 0.000590 1289.51001 1685.18030
1744.0 0.000573 1289.54980 1724.48376
1768.0 0.000566 1289.59021 1757.83728
1876.0 0.000533 1289.63123 1780.21033
1783.0 0.000561 1289.67236 1787.39563
1840.0 0.000543 1289.71375 1777.85217
1807.0 0.000553 1289.75525 1753.50122
1719.0 0.000582 1289.79675 1718.72461
1704.0 0.000587 1289.83813 1678.82593
1679.0 0.000596 1289.87915 1638.21472
1571.0 0.000637 1289.91980 1600.17505
1537.0 0.000651 1289.95996 1566.89282
1492.0 0.000670 1289.99939 1539.75256
1487.0 0.000672 1290.03809 1519.57825
1412.0 0.000708 1290.07593 1506.94910
1465.0 0.000683 1290.11267 1502.15735
1533.0 0.000652 1290.14832 1505.37573
1468.0 0.000681 1290.18274 1516.67627
1432.0 0.000698 1290.21570 1535.98657
1447.0 0.000691 1290.24719 1563.04224
1554.0 0.000644 1290.27698 1597.29150
1653.0 0.000605 1290.30505 1637.77368
1684.0 0.000594 1290.33118 1682.92053
1687.0 0.000593 1290.35535 1730.27490
1765.0 0.000567 1290.37744 1776.16772
1860.0 0.000538 1290.39709 1815.58643
1870.0 0.000535 1290.41455 1842.69617
1889.0 0.000529 1290.42944 1852.35547
1839.0 0.000544 1290.44165 1842.17444
1756.0 0.000569 1290.45117 1813.67554
1699.0 0.000589 1290.45789 1771.53577
1756.0 0.000569 1290.46167 1721.58203
1663.0 0.000601 1290.46228 1669.02637
1630.0 0.000613 1290.45972 1617.69373
1545.0 0.000647 1290.45386 1570.02637
1481.0 0.000675 1290.44446 1527.37854
1495.0 0.000669 1290.43164 1490.32629
1451.0 0.000689 1290.41528 1458.73718
1395.0 0.000717 1290.39502 1432.62830
1352.0 0.000740 1290.37097 1411.28174
1412.0 0.000708 1290.34302 1394.06201
1393.0 0.000718 1290.31091 1380.27234
1357.0 0.000737 1290.27478 1369.28809
1420.0 0.000704 1290.23438 1360.54272
1408.0 0.000710 1290.18958 1353.55798
1363.0 0.000734 1290.14038 1347.94788
1368.0 0.000731 1290.08667 1343.41565
1373.0 0.000728 1290.02832 1339.74341
1286.0 0.000778 1289.96545 1336.79016
1355.0 0.000738 1289.89771 1334.43066
1346.0 0.000743 1289.82507 1332.62939
1339.0 0.000747 1289.74756 1331.34705
1278.0 0.000782 1289.66504 1329.64880
1339.0 0.000747 1289.57751 1329.38574
1312.0 0.000762 1289.48486 1329.62256
1308.0 0.000765 1289.38696 1330.35022
1392.0 0.000718 1289.28381 1331.54517
1279.0 0.000782 1289.17554 1333.14697
1316.0 0.000760 1289.06165 1335.06238
1349.0 0.000741 1288.94250 1337.13660
1391.0 0.000719 1288.81787 1339.13501
1360.0 0.000735 1288.68774 1340.74194
1296.0 0.000772 1288.55212 1341.62915
1347.0 0.000742 1288.41089 1341.51697
1291.0 0.000775 1288.26416 1340.31470
1281.0 0.000781 1288.11169 1338.15344
1301.0 0.000769 1287.95361 1335.32410
1365.0 0.000733 1287.78979 1332.16113
1349.0 0.000741 1287.62048 1329.12524
1293.0 0.000773 1287.44531 1326.08264
1334.0 0.000750 1287.26453 1323.34326
1346.0 0.000743 1287.07813 1320.99463
1337.0 0.000748 1286.88586 1319.07898
1321.0 0.000757 1286.68799 1317.61353
1318.0 0.000759 1286.48438 1316.66296
1354.0 0.000739 1286.27527 1316.06299
1389.0 0.000720 1286.06030 1315.85559
1329.0 0.000752 1285.83984 1315.99780
1343.0 0.000745 1285.61389 1316.51331
1301.0 0.000769 1285.38220 1317.27319
1338.0 0.000747 1285.14514 1318.31128
1303.0 0.000767 1284.90259 1319.65344
1323.0 0.000756 1284.65466 1321.37329
1258.0 0.000795 1284.40125 1323.58862
1340.0 0.000746 1284.14258 1326.43909
1245.0 0.000803 1283.87878 1330.05151
1414.0 0.000707 1283.60962 1334.55798
1376.0 0.000727 1283.33545 1340.02600
1346.0 0.000743 1283.05627 1346.47803
1379.0 0.000725 1282.77209 1353.86121
1364.0 0.000733 1282.48303 1362.01233
1334.0 0.000750 1282.18933 1370.62012
1391.0 0.000719 1281.89075 1379.21423
1465.0 0.000683 1281.58777 1387.22839
1391.0 0.000719 1281.28040 1394.17273
1413.0 0.000708 1280.96851 1399.80286
1448.0 0.000691 1280.65247 1404.27271
1363.0 0.000734 1280.33228 1407.97412
1438.0 0.000695 1280.00818 1411.28442
1460.0 0.000685 1279.68005 1414.33203
1407.0 0.000711 1279.34827 1416.91797
1449.0 0.000690 1279.01294 1418.57690
1440.0 0.000694 1278.67419 1418.74768
1488.0 0.000672 1278.33215 1416.99084
1344.0 0.000744 1277.98682 1413.15613
1438.0 0.000695 1277.63867 1407.44788
1435.0 0.000697 1277.28760 1400.36438
1436.0 0.000696 1276.93396 1392.48987
1401.0 0.000714 1276.57764 1384.40039
1360.0 0.000735 1276.21924 1376.40479
1374.0 0.000728 1275.85852 1368.67419
1408.0 0.000710 1275.49585 1361.30542
1362.0 0.000734 1275.13147 1354.44397
1280.0 0.000781 1274.76538 1348.21863
1366.0 0.000732 1274.39795 1342.78064
1366.0 0.000732 1274.02930 1338.14001
1353.0 0.000739 1273.65967 1334.26306
1360.0 0.000735 1273.28906 1330.99634
1285.0 0.000778 1272.91809 1328.10901
1302.0 0.000768 1272.54663 1325.33875
1331.0 0.000751 1272.17493 1322.50427
1331.0 0.000751 1271.80334 1319.51221
1371.0 0.000729 1271.43176 1316.40259
1379.0 0.000725 1271.06079 1313.29639
1295.0 0.000772 1270.69043 1311.22961
1310.0 0.000763 1270.32104 1308.54041
1281.0 0.000781 1269.95264 1306.19824
1280.0 0.000781 1269.58569 1304.25781
1344.0 0.000744 1269.22021 1302.75122
1312.0 0.000762 1268.85645 1301.69580
1300.0 0.000769 1268.49487 1301.10107
1277.0 0.000783 1268.13525 1300.96814
1280.0 0.000781 1267.77832 1301.29443
1266.0 0.000790 1267.42395 1302.07043
1291.0 0.000775 1267.07263 1303.27734
1269.0 0.000788 1266.72449 1304.88647
1285.0 0.000778 1266.37939 1306.84827
1301.0 0.000769 1266.03821 1309.08630
1302.0 0.000768 1265.70056 1311.49377
1347.0 0.000742 1265.36719 1313.93811
1338.0 0.000747 1265.03796 1316.29089
1350.0 0.000741 1264.71326 1318.45129
1370.0 0.000730 1264.39331 1320.41040
1296.0 0.000772 1264.07825 1322.19238
1269.0 0.000788 1263.76843 1323.86255
1342.0 0.000745 1263.46375 1325.47449
1338.0 0.000747 1263.16479 1327.03772
1376.0 0.000727 1262.87158 1328.50916
1361.0 0.000735 1262.58435 1329.90002
1362.0 0.000734 1262.30322 1331.05005
1342.0 0.000745 1262.02844 1332.12830
1330.0 0.000752 1261.76025 1333.35278
1390.0 0.000719 1261.49890 1335.02100
1389.0 0.000720 1261.24438 1337.46643
1298.0 0.000770 1260.99695 1341.02991
1332.0 0.000751 1260.75696 1346.06812
1293.0 0.000773 1260.52417 1353.43030
1364.0 0.000733 1260.29907 1362.68408
1385.0 0.000722 1260.08167 1374.79407
1290.0 0.000775 1259.87231 1390.46716
1417.0 0.000706 1259.67090 1410.33374
1363.0 0.000734 1259.47766 1435.03003
1430.0 0.000699 1259.29272 1465.08704
1479.0 0.000676 1259.11609 1500.82837
1486.0 0.000673 1258.94812 1542.28394
1560.0 0.000641 1258.78857 1589.01953
1700.0 0.000588 1258.63794 1640.10217
1707.0 0.000586 1258.49597 1693.64941
1772.0 0.000564 1258.36279 1746.66504
1850.0 0.000541 1258.23865 1794.81689
1823.0 0.000549 1258.12341 1832.66333
1836.0 0.000545 1258.01721 1854.69446
1843.0 0.000543 1257.91992 1857.10876
1884.0 0.000531 1257.83191 1839.41992
1810.0 0.000552 1257.75281 1804.67603
1686.0 0.000593 1257.68274 1757.71594
1680.0 0.000595 1257.62183 1704.99670
1659.0 0.000603 1257.56995 1650.80396
1532.0 0.000653 1257.52698 1598.51147
1571.0 0.000637 1257.49292 1550.29004
1486.0 0.000673 1257.46777 1507.33411
1440.0 0.000694 1257.45142 1470.20093
1411.0 0.000709 1257.44373 1438.96179
1417.0 0.000706 1257.44470 1413.35144
1340.0 0.000746 1257.45410 1392.88379
1413.0 0.000708 1257.47180 1376.94446
1358.0 0.000736 1257.49768 1364.84705
1401.0 0.000714 1257.53162 1355.89331
1316.0 0.000760 1257.57349 1349.39526
1369.0 0.000730 1257.62292 1344.68372
1368.0 0.000731 1257.67993 1341.11719
1374.0 0.000728 1257.74402 1338.08984
1371.0 0.000729 1257.81519 1335.10376
1334.0 0.000750 1257.89319 1331.83203
1346.0 0.000743 1257.97766 1328.13184
1367.0 0.000732 1258.06824 1324.11255
1353.0 0.000739 1258.16479 1319.96313
1302.0 0.000768 1258.26697 1315.89917
1318.0 0.000759 1258.37439 1311.59644
1332.0 0.000751 1258.48669 1308.16528
1277.0 0.000783 1258.60364 1305.16260
1352.0 0.000740 1258.72473 1302.60217
1301.0 0.000769 1258.84961 1300.46606
1323.0 0.000756 1258.97791 1298.71057
1280.0 0.000781 1259.10913 1297.27307
1298.0 0.000770 1259.24280 1296.07434
1370.0 0.000730 1259.37866 1295.02283
1240.0 0.000806 1259.51611 1294.03442
1326.0 0.000754 1259.65466 1293.04773
1267.0 0.000789 1259.79382 1292.04187
1243.0 0.000805 1259.93298 1291.03870
1314.0 0.000761 1260.07190 1290.07410
1344.0 0.000744 1260.20972 1289.18945
1351.0 0.000740 1260.34607 1288.41907
1218.0 0.000821 1260.48022 1287.78577
1216.0 0.000822 1260.61182 1287.30066
1315.0 0.000760 1260.73999 1286.97058
1287.0 0.000777 1260.86438 1286.79663
1308.0 0.000765 1260.98413 1286.78003
1287.0 0.000777 1261.09875 1286.92554
1251.0 0.000799 1261.20752 1287.23962
1325.0 0.000755 1261.30994 1287.73633
1202.0 0.000832 1261.40515 1288.42810
1329.0 0.000752 1261.49255 1289.33008
1281.0 0.000781 1261.57141 1290.44312
1239.0 0.000807 1261.64111 1291.76917
1211.0 0.000826 1261.70093 1293.29504
1256.0 0.000796 1261.75012 1295.00623
1306.0 0.000766 1261.78784 1296.82666
1268.0 0.000789 1261.81360 1298.69141
1303.0 0.000767 1261.82666 1300.50244
1354.0 0.000739 1261.82605 1302.15112
1343.0 0.000745 1261.81116 1303.56018
1277.0 0.000783 1261.78137 1304.68115
1299.0 0.000770 1261.73572 1305.62219
1295.0 0.000772 1261.67358 1306.44006
1350.0 0.000741 1261.59424 1307.22412
1278.0 0.000782 1261.49695 1308.02917
1243.0 0.000805 1261.38086 1308.87561
1254.0 0.000797 1261.24536 1309.75525
1338.0 0.000747 1261.08972 1310.67737
1343.0 0.000745 1260.91309 1311.69519
1302.0 0.000768 1260.71484 1312.92200
1328.0 0.000753 1260.49426 1314.52209
1375.0 0.000727 1260.25061 1316.68555
1333.0 0.000750 1259.98328 1319.99695
1363.0 0.000734 1259.69153 1323.88916
1215.0 0.000823 1259.37463 1328.95410
1390.0 0.000719 1259.03210 1335.42639
1365.0 0.000733 1258.66309 1343.52917
1301.0 0.000769 1258.26733 1353.52002
1335.0 0.000749 1257.84375 1365.61963
1398.0 0.000715 1257.39221 1380.00220
1399.0 0.000715 1256.91211 1396.72461
1349.0 0.000741 1256.40259 1415.69055
1423.0 0.000703 1255.86340 1436.58105
1445.0 0.000692 1255.29395 1458.76245
1435.0 0.000697 1254.69421 1481.20251
1477.0 0.000677 1254.06299 1502.44604
1544.0 0.000648 1253.40076 1520.76477
1609.0 0.000622 1252.70667 1534.54883
1539.0 0.000650 1251.98035 1542.81543
1584.0 0.000631 1251.22192 1545.51831
1567.0 0.000638 1250.43066 1543.39441
1566.0 0.000639 1249.60706 1537.46716
1530.0 0.000654 1248.75012 1528.57788
1508.0 0.000663 1247.86060 1517.22803
1602.0 0.000624 1246.93774 1503.71338
1504.0 0.000665 1245.98218 1488.31995
1474.0 0.000678 1244.99365 1471.42358
1457.0 0.000686 1243.97192 1453.48059
1418.0 0.000705 1242.91785 1435.01160
1503.0 0.000665 1241.83093 1416.59436
1375.0 0.000727 1240.71216 1398.82129
1376.0 0.000727 1239.56116 1382.22522
1372.0 0.000729 1238.37903 1367.18933
1433.0 0.000698 1237.16553 1353.94006
1392.0 0.000718 1235.92200 1342.55542
1363.0 0.000734 1234.64868 1333.00403
1262.0 0.000792 1233.34558 1325.61145
1333.0 0.000750 1232.01453 1319.36780
1313.0 0.000762 1230.65540 1314.51733
1304.0 0.000767 1229.26990 1310.86206
1326.0 0.000754 1227.85815 1308.22485
1355.0 0.000738 1226.42224 1306.30457
1300.0 0.000769 1224.96265 1304.92334
1347.0 0.000742 1223.47998 1303.89844
1296.0 0.000772 1221.97693 1303.10803
1365.0 0.000733 1220.45337 1302.51196
1300.0 0.000769 1218.91199 1302.14331
1351.0 0.000740 1217.35327 1302.09021
1392.0 0.000718 1215.77991 1302.47778
1335.0 0.000749 1214.19238 1303.45129
1351.0 0.000740 1212.59387 1305.18701
1303.0 0.000767 1210.98547 1307.88159
1315.0 0.000760 1209.36853 1311.76953
1352.0 0.000740 1207.74634 1317.09424
1365.0 0.000733 1206.11975 1324.27466
1366.0 0.000732 1204.49243 1333.69995
1302.0 0.000768 1202.86511 1345.88428
1313.0 0.000762 1201.24158 1361.44482
1316.0 0.000760 1199.62317 1381.08899
1398.0 0.000715 1198.01343 1405.57373
1435.0 0.000697 1196.41455 1435.72986
1430.0 0.000699 1194.82861 1472.26074
1495.0 0.000669 1193.25952 1515.92981
1523.0 0.000657 1191.70898 1567.20984
1533.0 0.000652 1190.18103 1626.39380
1655.0 0.000604 1188.67761 1693.42395
1655.0 0.000604 1187.20288 1767.67090
1768.0 0.000566 1185.75928 1847.64526
1950.0 0.000513 1184.34961 1930.58923
1984.0 0.000504 1182.97803 2012.08911
2090.0 0.000478 1181.64685 2085.86841
2088.0 0.000479 1180.36035 2144.14502
2152.0 0.000465 1179.12085 2179.07056
2178.0 0.000459 1177.93286 2185.04712
2059.0 0.000486 1176.79858 2160.87842
2020.0 0.000495 1175.72253 2110.28735
2041.0 0.000490 1174.70752 2040.40552
1987.0 0.000503 1173.75671 1959.35730
1870.0 0.000535 1172.87415 1874.35095
1713.0 0.000584 1172.06262 1790.85242
1635.0 0.000612 1171.32593 1712.57227
1658.0 0.000603 1170.66687 1641.80042
1597.0 0.000626 1170.08923 1579.78088
1545.0 0.000647 1169.59583 1527.01453
1544.0 0.000648 1169.18982 1483.48743
1468.0 0.000681 1168.87427 1448.83899
1367.0 0.000732 1168.65173 1422.50549
1418.0 0.000705 1168.52527 1403.82861
1421.0 0.000704 1168.49744 1392.14600
1389.0 0.000720 1168.57043 1386.85864
1400.0 0.000714 1168.74683 1387.45129
1416.0 0.000706 1169.02832 1393.50879
1425.0 0.000702 1169.41675 1404.69470
1479.0 0.000676 1169.91394 1420.67163
1457.0 0.000686 1170.52075 1441.04663
1495.0 0.000669 1171.23865 1465.31860
1508.0 0.000663 1172.06775 1492.87915
1602.0 0.000624 1173.00891 1523.07727
1596.0 0.000627 1174.06140 1555.37317
1618.0 0.000618 1175.22546 1589.23816
1645.0 0.000608 1176.49927 1624.00623
1706.0 0.000586 1177.88171 1658.51111
1730.0 0.000578 1179.37158 1690.74243
1739.0 0.000575 1180.96509 1717.73987
1729.0 0.000578 1182.66052 1735.94202
1756.0 0.000569 1184.45276 1742.07178
1704.0 0.000587 1186.33875 1734.31152
1679.0 0.000596 1188.31201 1713.09875
1686.0 0.000593 1190.36804 1680.96716
1583.0 0.000632 1192.49878 1641.60364
1561.0 0.000641 1194.69714 1598.75122
1551.0 0.000645 1196.95581 1555.50269
1453.0 0.000688 1199.26343 1514.07666
1460.0 0.000685 1201.61145 1475.89526
1425.0 0.000702 1203.98621 1441.76672
1376.0 0.000727 1206.37720 1412.04749
1471.0 0.000680 1208.76831 1386.77026
1390.0 0.000719 1211.14539 1365.74951
1369.0 0.000730 1213.49268 1348.64453
1281.0 0.000781 1215.79053 1335.02026
1346.0 0.000743 1218.02100 1323.91150
1314.0 0.000761 1220.16150 1315.80591
1281.0 0.000781 1222.19080 1309.74060
1332.0 0.000751 1224.08276 1305.27234
1332.0 . . .
loop_
_refln_index_h
_refln_index_k
_refln_index_l
_pd_refln_phase_id
_refln_observed_status
_refln_F_squared_meas
_refln_F_squared_calc
_refln_phase_calc
_refln_d_spacing
_gsas_i100_meas
1 1 0 1 o 11864.421 11993.117 180.00 6.96216 15.49
1 0 1 2 o 23974.734 16020.021 135.00 5.92582 1.05
0 0 1 1 o 1614.671 1789.627 180.00 4.95449 0.17
2 0 0 1 o 1554.839 2028.172 0.00 4.92299 1.32
1 1 0 2 o 14855.740 9313.932 -180.00 4.78298 0.20
1 0 2 2 o 2514.677 53.624 0.00 4.54818 0.08
1 1 1 2 o 14668.553 6705.528 -90.00 4.45729 0.37
1 1 1 1 o 28042.514 28101.025 0.00 4.03670 26.84
1 1 2 2 o 7159.672 978.071 -180.00 3.77431 0.16
1 0 3 2 o 3641.503 2609.291 -135.00 3.50394 0.05
2 0 1 1 o 1926.783 1987.363 180.00 3.49217 1.65
2 2 0 1 o 1200.888 1217.489 0.00 3.48108 0.14
2 0 0 2 o 3646.214 4448.005 180.00 3.38208 0.02
2 1 1 1 o 71.927 61.950 0.00 3.29128 0.11
2 0 1 2 o 101069.98 101729.79 45.00 3.26084 1.39
3 1 0 1 o 15609.817 15501.690 0.00 3.11357 8.35
1 1 3 2 o 7302.482 7311.170 90.00 3.11127 0.06
0 0 4 2 o 438962.5 441984.6 180.00 3.07229 1.33
2 1 0 2 o 53198.51 36824.24 0.00 3.02502 0.72
2 0 2 2 o 30037.742 24397.252 90.00 2.96291 0.36
2 1 1 2 o 35173.26 35899.66 -46.64 2.93734 0.76
2 2 1 1 o 201860.34 202317.34 180.00 2.84832 100.00
1 0 4 2 o 3404.844 3593.993 -90.00 2.79727 0.03
2 1 2 2 o 107476.56 97821.30 91.02 2.71396 1.92
3 1 1 1 o 5558.965 5385.322 180.00 2.63623 3.81
2 0 3 2 o 85960.60 83321.32 -45.00 2.60805 0.71
1 1 4 2 o 3113.535 3252.134 0.00 2.58496 0.01
0 0 2 1 o 106711.71 107996.09 0.00 2.47725 9.38
4 0 0 1 o 124698.90 126828.63 0.00 2.46150 22.19
2 1 3 2 o 12936.678 13619.033 60.22 2.43343 0.18
3 2 1 1 o 5156.815 4743.356 0.00 2.39157 4.42
2 2 0 2 o 0.390 0.012 180.00 2.39149 0.00
2 2 1 2 o 21.189 16.832 90.00 2.34745 0.00
1 1 2 1 o 4108.225 4008.978 180.00 2.33391 1.05
3 3 0 1 o 23537.334 23882.816 180.00 2.32072 3.67
1 0 5 2 o 42140.21 43456.81 -45.00 2.31006 0.28
2 0 4 2 o -7.065 20.696 0.00 2.27409 0.00
2 2 2 2 o 1420.419 1890.739 0.00 2.22864 0.01
3 0 1 2 o 13651.952 15581.896 135.00 2.21770 0.08
2 0 2 1 o 421.490 464.159 0.00 2.21288 0.15
4 0 1 1 o 7103.306 7379.986 180.00 2.20443 1.44
4 2 0 1 o 805.846 896.658 0.00 2.20163 0.28
1 1 5 2 o 4631.081 4228.667 90.00 2.18609 0.02
2 1 2 1 o 584.995 560.246 0.00 2.15902 0.41
2 1 4 2 o 19615.836 18482.730 -174.33 2.15553 0.26
4 1 1 1 o 2386.964 2086.986 0.00 2.15117 1.67
3 1 0 2 o 31705.580 30370.119 0.00 2.13901 0.17
3 0 2 2 o -60.300 321.453 0.00 2.11671 0.00
3 1 1 2 o 11194.822 10458.105 156.30 2.10733 0.12
3 3 1 1 o 1542.925 1642.621 0.00 2.10159 0.26
2 2 3 2 o 40.971 1091.929 -90.00 2.06529 0.00
3 1 2 2 o 927.764 938.095 -120.12 2.02011 0.01
2 2 2 1 o 6899.587 7009.907 0.00 2.01835 1.22
4 2 1 1 o 302.552 296.356 180.00 2.01193 0.19
2 0 5 2 o 30329.080 30928.217 -135.00 1.98826 0.15
3 0 3 2 o 4114.977 3578.416 -135.00 1.97527 0.02
1 0 6 2 o 580.942 406.680 -180.00 1.96030 0.00
3 1 2 1 o 18523.420 18076.248 0.00 1.93853 8.45
5 1 0 1 o 4735.834 4796.429 180.00 1.93096 0.96
2 1 5 2 o 30573.121 35185.39 130.09 1.90756 0.27
3 1 3 2 o 7915.970 10526.207 -158.77 1.89608 0.05
2 2 4 2 o 63.570 428.644 0.00 1.88715 0.00
1 1 6 2 o 1232.785 3359.522 0.00 1.88282 0.00
3 2 0 2 o -369.317 469.538 0.00 1.87604 0.00
3 2 1 2 o 81293.95 78770.64 42.17 1.85455 0.75
3 2 2 1 o 294.771 346.187 0.00 1.83478 0.16
4 3 1 1 o 305.039 361.762 180.00 1.82995 0.16
3 0 4 2 o 10538.656 9166.698 90.00 1.81773 0.05
5 1 1 1 o 19458.643 19158.625 0.00 1.79914 7.59
3 2 2 2 o 15005.468 14782.598 -92.77 1.79427 0.10
3 1 4 2 o 16840.225 17322.588 -165.54 1.75545 0.12
2 0 6 2 o 11032.835 11146.715 -90.00 1.75197 0.05
4 0 2 1 o 137398.45 137539.91 0.00 1.74608 26.93
4 4 0 1 o 130640.37 130221.14 0.00 1.74054 12.72
4 1 2 1 o 35.880 33.940 180.00 1.71926 0.02
5 2 1 1 o 63.349 70.547 180.00 1.71528 0.03
2 2 5 2 o 5517.502 6003.369 -90.00 1.71401 0.02
3 2 3 2 o 44680.42 45795.17 -45.99 1.70567 0.34
1 0 7 2 o 27.381 22.893 -135.00 1.69929 0.00
2 1 6 2 o 80144.89 79178.14 -90.06 1.69600 0.60
3 3 2 1 o 22951.736 22552.650 180.00 1.69363 4.14
4 0 0 2 o 197117.94 192716.44 -180.00 1.69104 0.37
5 3 0 1 o 6245.179 6070.418 0.00 1.68857 1.00
4 0 1 2 o 30723.461 28779.711 -135.00 1.67525 0.12
3 0 5 2 o 4956.442 5957.791 -45.00 1.66150 0.01
0 0 3 1 o 4209.473 4336.812 180.00 1.65150 0.12
1 1 7 2 o 10510.559 9935.197 -90.00 1.64808 0.03
4 2 2 1 o 1331.002 1276.242 0.00 1.64564 0.56
4 4 1 1 o 2445.822 2560.843 180.00 1.64215 0.20
6 0 0 1 o 125.263 157.569 0.00 1.64100 0.02
4 1 0 2 o 4577.451 5229.802 0.00 1.64055 0.01
4 0 2 2 o 1289.537 1387.471 -90.00 1.63042 0.00
4 1 1 2 o 3421.797 4666.073 -114.51 1.62612 0.02
3 1 5 2 o 2034.873 2710.272 -31.89 1.61354 0.01
1 1 3 1 o 6919.364 7082.013 0.00 1.60691 0.98
3 2 4 2 o 1774.162 1735.966 -143.32 1.60113 0.02
5 3 1 1 o 11504.567 11267.496 180.00 1.59830 3.60
3 3 0 2 o 29828.732 29041.889 -180.00 1.59433 0.05
4 1 2 2 o 195.560 122.377 116.98 1.58503 0.00
3 3 1 2 o 2727.994 2205.045 90.00 1.58108 0.01
2 0 3 1 o 347.834 397.142 180.00 1.56574 0.07
4 0 3 2 o 15847.166 16696.475 135.00 1.56309 0.05
2 0 7 2 o 76726.32 78823.95 135.00 1.55818 0.24
6 0 1 1 o 1353.829 1406.188 180.00 1.55777 0.25
6 2 0 1 o 8361.547 8646.179 0.00 1.55679 1.02
2 2 6 2 o 21549.555 22694.281 -180.00 1.55564 0.07
2 1 3 1 o 189.587 127.968 0.00 1.54631 0.07
3 3 2 2 o 413.205 254.692 -180.00 1.54322 0.00
4 3 2 1 o 19.419 15.694 0.00 1.54150 0.01
6 1 1 1 o 65.091 67.725 180.00 1.53864 0.03
0 0 8 2 o 212827.67 172940.02 0.00 1.53615 0.18
4 1 3 2 o 3534.286 2844.762 74.49 1.52295 0.02
5 1 2 1 o 114.932 108.526 180.00 1.52295 0.01
2 1 7 2 o 4470.258 5427.054 -120.15 1.51841 0.03
3 0 6 2 o 533.189 666.641 0.00 1.51606 0.00
4 2 0 2 o 2591.556 2478.089 0.00 1.51251 0.01
4 2 1 2 o 36048.49 36786.07 -47.23 1.50118 0.22
1 0 8 2 o 6514.486 6543.772 90.00 1.49800 0.02
2 2 3 1 o 92449.13 92248.51 180.00 1.49210 13.64
3 2 5 2 o 59546.39 59216.55 -133.97 1.49126 0.36
3 3 3 2 o 2408.025 2415.415 -90.00 1.48576 0.01
6 2 1 1 o 80497.95 80793.50 180.00 1.48519 23.37
4 0 4 2 o 137971.31 135777.09 0.00 1.48145 0.41
3 1 6 2 o 2802.358 2744.398 5.16 1.47936 0.02
5 2 2 1 o 181.641 186.311 0.00 1.47107 0.07
4 2 2 2 o 6294.394 6297.770 81.90 1.46867 0.04
5 4 1 1 o 27.924 27.849 180.00 1.46858 0.01
1 1 8 2 o 420.750 422.360 -180.00 1.46257 0.00
3 1 3 1 o 5175.091 5323.303 180.00 1.45897 1.30
4 1 4 2 o 11751.630 9547.287 -155.10 1.44715 0.07
4 4 2 1 o 69515.39 68910.26 0.00 1.42416 9.38
4 2 3 2 o 40580.94 41278.39 51.89 1.41888 0.22
2 2 7 2 o 140.963 146.962 90.00 1.41520 0.00
3 3 4 2 o 20468.988 20872.277 0.00 1.41513 0.05
3 2 3 1 o 475.641 506.949 180.00 1.41316 0.17
6 3 1 1 o 0.149 0.117 180.00 1.40730 0.00
2 0 8 2 o 599.053 619.974 180.00 1.39864 0.00
5 3 2 1 o 2225.595 2128.031 0.00 1.39527 0.44
4 0 5 2 o 16414.508 16052.494 45.00 1.39315 0.05
5 5 0 1 o 2625.245 2542.010 0.00 1.39243 0.30
7 1 0 1 o 8479.571 8339.780 0.00 1.39243 1.01
3 0 7 2 o 525.754 498.688 45.00 1.38521 0.00
3 2 6 2 o 9897.542 10013.259 88.36 1.38343 0.04
4 0 3 1 o 673.795 647.390 180.00 1.37142 0.03
2 1 8 2 o 10479.835 11661.776 1.86 1.36966 0.06
6 0 2 1 o 70.874 81.730 180.00 1.36806 0.01
6 4 0 1 o 51.033 66.412 0.00 1.36539 0.01
4 1 5 2 o 8000.942 8941.639 39.96 1.36451 0.04
4 1 3 1 o 675.872 763.784 180.00 1.35831 0.23
3 1 7 2 o 6997.571 7274.536 17.19 1.35705 0.03
4 2 4 2 o 4190.567 4399.239 127.91 1.35698 0.02
6 1 2 1 o 156.822 164.441 180.00 1.35505 0.05
4 3 0 2 o 1968.370 2400.012 0.00 1.35283 0.00
3 3 3 1 o 263.178 270.037 0.00 1.34557 0.01
5 0 1 2 o 7914.870 8483.235 -45.00 1.34471 0.02
4 3 1 2 o 5660.017 6139.989 171.41 1.34471 0.03
7 1 1 1 o 1133.006 1150.731 180.00 1.34050 0.19
5 5 1 1 o 21099.139 21607.842 0.00 1.34050 2.66
1 0 9 2 o 12414.667 12410.202 135.00 1.33846 0.03
3 3 5 2 o 0.221 0.216 90.01 1.33756 0.00
5 1 0 2 o 1341.996 1113.647 0.00 1.32656 0.00
4 3 2 2 o 51.934 42.707 -56.26 1.32119 0.00
5 0 2 2 o 283.091 162.898 180.00 1.32119 0.00
4 2 3 1 o 195.027 123.003 180.00 1.32112 0.07
5 1 1 2 o 3404.845 2735.769 89.60 1.31890 0.01
6 2 2 1 o 1203.235 1060.389 0.00 1.31811 0.14
6 4 1 1 o 829.478 680.468 180.00 1.31632 0.26
1 1 9 2 o 40.694 37.868 -90.00 1.31301 0.00
5 4 2 1 o 1.283 1.240 180.00 1.30646 0.00
7 2 1 1 o 1329.907 1389.832 180.00 1.30471 0.42
4 0 6 2 o 2302.728 2324.101 90.00 1.30402 0.01
5 1 2 2 o 195.339 194.752 51.38 1.29668 0.00
7 3 0 1 o 23930.477 24381.334 180.00 1.29284 2.98
2 2 8 2 o 6.071 6.324 0.00 1.29248 0.00
4 2 5 2 o 19008.518 18171.119 123.15 1.28814 0.10
5 0 3 2 o 962.055 961.285 45.00 1.28459 0.00
4 3 3 2 o 6282.812 6273.907 -156.14 1.28459 0.03
3 2 7 2 o 23841.113 22304.215 135.61 1.28186 0.13
4 1 6 2 o 187.212 153.456 5.02 1.28045 0.00
3 0 8 2 o 10093.783 9669.860 -90.00 1.26951 0.02
2 0 9 2 o 5511.309 5600.458 45.00 1.26616 0.01
4 3 3 1 o 178.868 172.439 0.00 1.26539 0.06
6 3 2 1 o 116.049 187.317 0.00 1.26275 0.04
5 1 3 2 o 2787.711 3343.703 -74.29 1.26203 0.01
3 3 6 2 o 295.204 329.229 0.00 1.25810 0.00
5 2 0 2 o 5895.205 6182.681 -180.00 1.25607 0.01
5 1 3 1 o 12771.552 13181.235 0.00 1.25507 2.93
7 3 1 1 o 12.032 2.849 180.00 1.25095 0.03
5 2 1 2 o 959.553 873.034 152.93 1.24956 0.00
3 1 8 2 o 4981.300 4606.293 13.19 1.24773 0.02
2 1 9 2 o 15223.524 14817.096 -41.06 1.24455 0.07
0 0 4 1 o 75444.14 74735.13 0.00 1.23862 2.24
4 3 4 2 o 4609.837 4516.542 117.98 1.23811 0.02
5 0 4 2 o 172.225 169.799 90.00 1.23811 0.00
8 0 0 1 o 43355.02 42876.70 0.00 1.23075 2.42
5 2 2 2 o 63893.94 63208.80 88.63 1.23062 0.29
5 2 3 1 o 209.576 201.837 0.00 1.22555 0.06
6 5 1 1 o 252.596 244.240 0.00 1.22172 0.08
1 1 4 1 o 4221.562 4341.022 180.00 1.21947 0.44
4 0 7 2 o 12294.758 13171.292 -45.00 1.21793 0.03
5 1 4 2 o 928.036 972.685 -167.45 1.21788 0.00
4 2 6 2 o 4631.723 5025.054 -68.46 1.21671 0.02
7 1 2 1 o 11911.281 12216.807 0.00 1.21382 2.68
5 5 2 1 o 945.347 964.122 180.00 1.21382 0.08
1 0 10 2 o 10.006 9.485 0.00 1.20912 0.00
2 0 4 1 o 208.608 183.688 0.00 1.20119 0.03
5 2 3 2 o 1113.978 1010.904 -153.48 1.20089 0.01
4 1 7 2 o 829.081 784.320 -144.82 1.19865 0.00
4 4 3 1 o 3939.434 3841.743 180.00 1.19803 0.33
6 4 2 1 o 0.477 0.036 0.00 1.19579 0.00
4 4 0 2 o 68553.07 65934.45 0.00 1.19574 0.08
8 0 1 1 o 2264.093 2215.796 180.00 1.19445 0.15
8 2 0 1 o 1359.493 1305.903 0.00 1.19400 0.18
2 1 4 1 o 123.987 127.058 180.00 1.19235 0.04
1 1 10 2 o 6678.556 7515.010 180.00 1.19026 0.01
4 4 1 2 o 18803.738 21435.555 90.00 1.19012 0.04
3 2 8 2 o 134.139 202.520 13.38 1.18854 0.00
7 2 2 1 o 95.147 121.298 180.00 1.18706 0.03
2 2 9 2 o 3942.822 4391.051 90.00 1.18579 0.01
7 4 1 1 o 69.312 80.100 0.00 1.18575 0.02
8 1 1 1 o 104.808 121.120 180.00 1.18575 0.03
5 0 5 2 o 15811.340 17430.723 135.00 1.18516 0.03
4 3 5 2 o 2341.732 2559.964 6.59 1.18516 0.01
5 3 3 1 o 4004.459 3668.942 180.00 1.18068 0.78
3 3 7 2 o 3632.423 3392.643 90.00 1.18026 0.01
4 4 2 2 o 868.150 622.103 180.00 1.17373 0.00
3 0 9 2 o 3255.994 2593.334 135.00 1.16798 0.01
5 1 5 2 o 1436.062 1272.522 -76.85 1.16738 0.00
2 2 4 1 o 504.318 481.775 0.00 1.16695 0.02
6 0 3 1 o 609.903 786.005 180.00 1.16406 0.08
5 2 4 2 o 5191.129 6679.723 -1.16 1.16266 0.02
8 2 1 1 o 98.684 126.839 0.00 1.16077 0.02
6 6 0 1 o 1100.061 1168.343 0.00 1.16036 0.02
5 3 0 2 o 2506.517 2630.672 180.00 1.16004 0.00
6 1 3 1 o 15.496 18.802 180.00 1.15600 0.00
2 0 10 2 o 3006.092 3024.662 90.00 1.15503 0.01
5 3 1 2 o 4806.575 4814.163 -145.98 1.15491 0.02
3 1 9 2 o 56.191 54.482 -32.34 1.15095 0.00
3 1 4 1 o 2862.900 2827.664 0.00 1.15090 0.50
4 4 3 2 o 15956.898 16470.191 -90.00 1.14784 0.03
7 3 2 1 o 9635.630 9549.738 180.00 1.14614 1.99
4 2 7 2 o 33717.520 33312.188 -129.38 1.14589 0.15
7 5 0 1 o 4242.122 4082.488 0.00 1.14457 0.42
5 3 2 2 o 1783.152 1743.035 -66.92 1.13991 0.01
2 1 10 2 o 23785.174 24039.803 82.04 1.13855 0.10
4 0 8 2 o 57848.86 59284.74 180.00 1.13704 0.12
6 2 3 1 o 39901.74 39804.24 180.00 1.13282 8.58
6 6 1 1 o 35557.73 35230.89 180.00 1.12979 3.80
4 3 6 2 o 591.754 587.978 150.50 1.12883 0.00
5 0 6 2 o 772.169 766.853 -180.00 1.12883 0.00
3 2 4 1 o 56.525 55.916 180.00 1.12801 0.02
6 0 0 2 o 8793.775 8723.567 0.00 1.12736 0.01
5 4 3 1 o 5.036 5.442 0.00 1.12539 0.00
6 5 2 1 o 46.568 50.218 0.00 1.12353 0.01
6 0 1 2 o 6573.570 6636.162 -135.00 1.12264 0.01
8 3 1 1 o 29.378 29.904 180.00 1.12242 0.01
4 1 8 2 o 6230.525 6710.376 47.37 1.12131 0.02
5 2 5 2 o 922.588 945.579 -85.93 1.11848 0.00
5 3 3 2 o 7371.700 7145.201 152.07 1.11615 0.03
7 5 1 1 o 1935.486 1868.701 180.00 1.11520 0.33
4 4 4 2 o 53927.24 51812.86 180.00 1.11432 0.12
5 1 6 2 o 1924.657 1877.735 -167.10 1.11343 0.01
6 1 0 2 o 6957.813 6690.354 -180.00 1.11202 0.02
6 0 2 2 o 41675.97 42320.28 -90.00 1.10885 0.10
6 1 1 2 o 8566.423 8427.850 112.15 1.10749 0.04
4 0 4 1 o 41916.15 41469.90 0.00 1.10644 4.54
3 3 8 2 o 8070.555 8002.507 -180.00 1.10622 0.01
3 2 9 2 o 26674.076 27033.623 46.91 1.10400 0.12
4 1 4 1 o 21.251 21.603 0.00 1.09952 0.01
1 0 11 2 o 734.552 746.087 45.00 1.10226 0.00
8 0 2 1 o 40396.13 40955.76 0.00 1.10221 4.41
8 4 0 1 o 29705.604 29770.254 0.00 1.10081 3.11
6 3 3 1 o 101.739 103.065 0.00 1.09709 0.03
8 1 2 1 o 12.207 12.054 0.00 1.09537 0.00
7 4 2 1 o 0.954 0.942 0.00 1.09537 0.00
6 1 2 2 o 21882.561 21517.871 -91.17 1.09424 0.09
2 2 10 2 o 22471.365 22317.590 0.00 1.09305 0.05
3 3 4 1 o 8090.361 8070.402 180.00 1.09273 0.85
1 1 11 2 o 6555.249 6302.862 90.00 1.08791 0.01
9 1 0 1 o 84.188 90.496 0.00 1.08731 0.04
6 0 3 2 o 14662.469 15432.848 135.00 1.08695 0.03
5 3 4 2 o 1412.980 1730.914 -28.80 1.08526 0.00
4 2 4 1 o 90.617 70.504 0.00 1.07951 0.03
3 0 10 2 o 1032.935 871.315 -180.00 1.07905 0.00
4 2 8 2 o 3270.198 2978.127 -59.65 1.07777 0.01
8 2 2 1 o 779.552 752.065 0.00 1.07558 0.21
4 4 5 2 o 16941.115 16565.912 -90.00 1.07525 0.04
8 4 1 1 o 3853.824 3786.108 180.00 1.07461 0.63
6 1 3 2 o 7007.729 6556.072 -101.26 1.07318 0.03
4 3 7 2 o 1706.070 1573.213 41.71 1.07159 0.01
5 0 7 2 o 86.632 81.586 -135.00 1.07159 0.00
5 2 6 2 o 44424.85 42821.22 -86.70 1.07076 0.20
6 2 0 2 o 990.222 968.216 0.00 1.06951 0.00
3 1 10 2 o 1411.653 1437.481 171.99 1.06557 0.01
6 2 1 2 o 1739.234 1772.813 -65.84 1.06548 0.01
7 1 3 1 o 373.949 375.453 180.00 1.06455 0.04
5 5 3 1 o 9294.373 9372.372 0.00 1.06455 0.99
4 0 9 2 o 9645.825 9827.838 -135.00 1.06237 0.02
9 1 1 1 o 9969.274 10095.262 0.00 1.06203 2.17
2 0 11 2 o 44019.23 42372.16 -45.00 1.06082 0.10
5 1 7 2 o 4222.801 3988.371 98.84 1.05839 0.02
6 0 4 2 o 4358.109 4093.600 180.00 1.05836 0.01
5 4 0 2 o 5520.008 5177.322 -180.00 1.05638 0.01
6 2 2 2 o 747.216 669.772 -163.96 1.05366 0.00
5 4 1 2 o 4144.544 3767.301 134.08 1.05250 0.02
6 4 3 1 o 145.343 125.997 180.00 1.05232 0.04
6 6 2 1 o 5212.119 5053.196 0.00 1.05080 0.48
4 1 9 2 o 6964.881 6846.444 -142.28 1.04950 0.03
5 3 5 2 o 998.148 992.336 11.11 1.04907 0.00
4 3 4 1 o 8.342 8.578 180.00 1.04846 0.00
2 1 11 2 o 819.285 874.207 70.98 1.04801 0.00
7 2 3 1 o 172.063 227.627 0.00 1.04636 0.05
6 1 4 2 o 4010.302 4822.108 7.03 1.04563 0.02
8 3 2 1 o 4.627 5.350 180.00 1.04486 0.00
9 2 1 1 o 26.668 31.401 180.00 1.04397 0.01
7 6 1 1 o 22.366 26.335 0.00 1.04397 0.01
5 1 4 1 o 452.340 465.259 180.00 1.04257 0.05
5 4 2 2 o 128.445 135.895 -104.07 1.04111 0.00
7 5 2 1 o 3922.984 3866.848 0.00 1.03903 0.81
9 3 0 1 o 1345.528 1318.691 0.00 1.03786 0.12
3 3 9 2 o 272.936 270.043 -90.00 1.03709 0.00
6 2 3 2 o 242.664 855.871 42.29 1.03482 0.00
4 4 6 2 o 65.937 169.890 0.00 1.03265 0.00
3 2 10 2 o 2783.150 4332.103 -111.65 1.02799 0.01
5 2 4 1 o 36.072 67.784 180.00 1.02546 0.01
6 0 5 2 o 1165.458 1470.083 45.00 1.02471 0.00
0 0 12 2 o 46226.98 54932.01 180.00 1.02410 0.03
5 4 3 2 o 1134.090 1030.084 -134.96 1.02292 0.01
5 2 7 2 o 1950.431 2060.255 0.66 1.02154 0.01
8 5 1 1 o 4.414 4.856 0.00 1.02126 0.00
7 3 3 1 o 22.117 23.149 0.00 1.01801 0.00
4 2 9 2 o 3212.357 3012.769 -57.45 1.01354 0.02
6 1 5 2 o 7889.180 7358.351 -64.51 1.01315 0.04
9 3 1 1 o 4510.859 4304.249 180.00 1.01581 0.96
1 0 12 2 o 8781.102 8295.122 -90.00 1.01256 0.02
5 0 8 2 o 1005.324 957.822 -90.00 1.01525 0.00
4 3 8 2 o 6667.128 6339.500 -66.91 1.01525 0.03
2 2 11 2 o 181.272 175.750 90.00 1.01220 0.00
6 2 4 2 o 1205.697 1188.267 -159.72 1.01006 0.01
5 3 6 2 o 2458.078 2426.681 132.67 1.00939 0.01
4 4 4 1 o 27027.027 26582.209 0.00 1.00917 3.05
6 3 0 2 o 34.413 34.212 180.00 1.00834 0.00
8 4 2 1 o 23990.992 23602.656 0.00 1.00596 5.42
6 3 1 2 o 14006.429 13740.026 -27.84 1.00496 0.06
5 1 8 2 o 749.423 740.222 19.42 1.00401 0.00
6 5 3 1 o 21.455 21.955 180.00 1.00207 0.01
1 1 12 2 o 215.672 216.618 0.00 1.00140 0.00
3 0 11 2 o -0.437 0.000 44.96 1.00105 0.00
5 4 4 2 o 3580.114 3615.832 -5.80 0.99898 0.02
5 3 4 1 o 2627.000 2665.508 0.00 0.99874 0.56
9 1 2 1 o 266.315 274.472 180.00 0.99563 0.03
6 3 2 2 o 4180.883 4364.534 -81.47 0.99503 0.02
7 7 0 1 o 11314.514 11944.774 180.00 0.99459 0.67
4 0 10 2 o 545.861 582.383 -90.00 0.99413 0.00
0 0 5 1 o 542.370 552.395 180.00 0.99090 0.01
3 1 11 2 o 6829.080 6591.021 -159.67 0.99026 0.03
6 0 4 1 o 8.575 9.061 180.00 0.98862 0.00
4 4 7 2 o 8996.666 9614.049 90.00 0.98828 0.02
6 0 6 2 o 22388.457 23377.088 90.00 0.98764 0.06
8 0 3 1 o 3066.592 3188.755 180.00 0.98685 0.28
8 6 0 1 o 76.969 90.775 0.00 0.98460 0.01
10 0 0 1 o 1217.126 1399.419 180.00 0.98460 0.08
6 1 4 1 o 50.837 55.502 0.00 0.98367 0.02
4 1 10 2 o 256.140 281.468 135.12 0.98356 0.00
8 1 3 1 o 97.024 95.220 0.00 0.98193 0.03
7 4 3 1 o 26.165 25.678 180.00 0.98193 0.01
1 1 5 1 o 3546.371 3569.061 0.00 0.98101 0.40
7 6 2 1 o 83.632 84.698 0.00 0.98070 0.03
9 2 2 1 o 22.591 22.879 180.00 0.98070 0.01
6 2 5 2 o 4696.186 4739.309 116.14 0.98068 0.02
2 0 12 2 o 160.660 162.614 0.00 0.98015 0.00
9 4 1 1 o 471.015 486.481 0.00 0.97996 0.16
6 3 3 2 o 9941.464 9965.087 29.34 0.97911 0.05
6 1 6 2 o 16418.539 13062.889 83.03 0.97727 0.08
7 7 1 1 o 318.967 114.018 180.00 0.97514 0.07
3 3 10 2 o 536.787 438.216 -180.00 0.97333 0.00
5 2 8 2 o 6142.723 4762.576 173.80 0.97239 0.04
2 0 5 1 o 98.580 63.042 180.00 0.97142 0.02
5 4 5 2 o 8744.560 7142.383 -34.74 0.97054 0.05
2 1 12 2 o 4049.864 3425.360 -173.57 0.97002 0.02
6 2 4 1 o 2389.313 2246.958 0.00 0.96927 0.45
5 3 7 2 o 4845.685 4816.347 -31.49 0.96784 0.02
8 2 3 1 o 136.484 137.899 0.00 0.96760 0.03
2 1 5 1 o 127.902 144.309 180.00 0.96672 0.04
10 0 1 1 o 1072.518 1122.617 180.00 0.96571 0.17
8 6 1 1 o 8.938 9.316 0.00 0.96571 0.00
10 2 0 1 o 2558.466 2605.156 0.00 0.96548 0.22
5 4 4 1 o 0.197 0.224 0.00 0.96460 0.00
7 0 1 2 o 1277.295 1677.336 -45.00 0.96333 0.00
8 5 2 1 o 3.309 3.647 180.00 0.96180 0.00
10 1 1 1 o 116.023 137.271 0.00 0.96110 0.04
4 3 9 2 o 888.342 964.689 -148.49 0.96103 0.00
5 0 9 2 o 9668.141 10848.945 -45.00 0.96103 0.02
3 2 11 2 o 2383.105 3965.086 -46.68 0.95989 0.01
9 5 0 1 o 5.188 4.272 180.00 0.95633 0.00
6 3 4 2 o 229.355 277.759 -90.35 0.95806 0.00
9 3 2 1 o 420.398 417.492 0.00 0.95724 0.06
7 0 2 2 o 96.885 93.099 0.00 0.95458 0.00
5 5 0 2 o 53.871 50.449 180.00 0.95660 0.00
7 1 0 2 o 7006.548 6646.248 -180.00 0.95660 0.02
4 2 10 2 o 2337.915 2295.050 130.81 0.95378 0.01
5 5 1 2 o 1350.912 1340.528 -90.00 0.95371 0.00
7 1 1 2 o 3522.504 3463.610 -53.53 0.95371 0.02
2 2 5 1 o 24653.182 24532.275 180.00 0.95304 3.17
5 1 9 2 o 568.638 564.284 119.12 0.95148 0.00
6 6 3 1 o 20239.793 20261.756 180.00 0.94944 2.61
6 0 7 2 o 10420.274 10500.013 -45.00 0.94861 0.03
6 2 6 2 o 2561.623 2568.137 6.68 0.94804 0.01
10 2 1 1 o 17552.057 17542.395 180.00 0.94765 4.49
6 3 4 1 o 74.882 74.701 180.00 0.94660 0.03
5 5 2 2 o 39.161 39.404 -180.00 0.94521 0.00
7 1 2 2 o 16.704 17.981 -67.07 0.94521 0.00
8 3 3 1 o 3.376 3.436 0.00 0.94505 0.00
3 1 5 1 o 881.059 863.060 180.00 0.94423 0.17
4 4 8 2 o 27633.059 26023.775 0.00 0.94358 0.08
2 2 12 2 o 14.751 14.293 0.00 0.94141 0.00
7 5 3 1 o 1721.418 1714.505 180.00 0.94073 0.40
7 0 3 2 o 1895.278 1911.495 45.00 0.94049 0.00
6 1 7 2 o 3176.401 3230.875 87.15 0.93942 0.02
9 5 1 1 o 7919.276 7990.890 0.00 0.93899 2.14
5 4 6 2 o 247.548 248.858 25.61 0.93886 0.00
6 4 0 2 o 4843.526 4849.848 180.00 0.93802 0.01
1 0 13 2 o 6990.045 6382.045 -45.00 0.93622 0.02
6 4 1 2 o 4357.249 3796.017 66.99 0.93530 0.03
6 3 5 2 o 12758.402 11598.111 144.85 0.93289 0.07
3 0 12 2 o 11613.255 10633.985 90.00 0.93242 0.03
4 0 11 2 o 3560.690 3192.932 135.00 0.93214 0.01
7 1 3 2 o 3398.720 2986.280 42.76 0.93153 0.02
5 5 3 2 o 1333.577 1243.740 90.00 0.93153 0.00
3 2 5 1 o 14.875 12.061 0.00 0.93147 0.01
7 2 0 2 o 7843.578 7582.811 0.00 0.92913 0.02
1 1 13 2 o 65.018 68.030 -90.00 0.92738 0.00
6 4 2 2 o 13904.605 14201.664 86.99 0.92728 0.08
9 4 2 1 o 1.213 1.232 180.00 0.92706 0.00
7 2 1 2 o 11323.149 11346.426 -141.31 0.92648 0.06
10 3 1 1 o 28.061 28.151 0.00 0.92644 0.01
5 3 8 2 o 1147.421 1144.730 151.78 0.92573 0.00
7 1 4 1 o 3365.977 3360.295 0.00 0.92546 0.89
5 5 4 1 o 121.820 121.085 0.00 0.92546 0.06
5 2 9 2 o 869.557 915.667 67.46 0.92443 0.00
3 1 12 2 o 1899.747 1981.667 -164.39 0.92369 0.01
4 1 11 2 o 1741.612 1817.119 -6.86 0.92341 0.01
7 7 2 1 o 7502.595 7681.885 180.00 0.92298 1.08
7 0 4 2 o 1720.907 1689.410 -90.00 0.92179 0.01
4 0 5 1 o 825.966 840.557 180.00 0.91921 0.06
7 2 2 2 o 51.405 42.626 -114.82 0.91868 0.00
6 4 4 1 o 17.791 13.926 0.00 0.91739 0.01
8 6 2 1 o 281.206 251.556 0.00 0.91498 0.12
10 0 2 1 o 46.315 44.321 180.00 0.91498 0.00
3 3 11 2 o 3575.723 3358.003 -90.00 0.91493 0.01
6 4 3 2 o 7391.761 6916.225 -65.62 0.91435 0.05
10 4 0 1 o 67.679 64.291 180.00 0.91418 0.01
8 4 3 1 o 949.172 911.710 180.00 0.91598 0.15
7 2 4 1 o 33.995 30.722 0.00 0.91343 0.01
6 2 7 2 o 29.050 22.220 -122.73 0.91337 0.00
5 5 4 2 o 423.837 386.343 0.00 0.91335 0.00
7 1 4 2 o 5419.281 5108.365 14.05 0.91335 0.03
4 1 5 1 o 233.127 208.262 0.00 0.91523 0.10
3 3 5 1 o 302.837 301.380 0.00 0.91130 0.03
10 1 2 1 o 31.532 29.676 0.00 0.91105 0.01
8 7 1 1 o 106.682 96.588 0.00 0.91046 0.05
2 0 13 2 o 131.862 119.677 -135.00 0.91043 0.00
4 3 10 2 o 1103.326 1129.402 -9.97 0.90964 0.01
5 0 10 2 o 1016.170 1036.009 0.00 0.90964 0.00
6 0 8 2 o 2062.278 2126.891 0.00 0.90887 0.01
9 1 3 1 o 4331.988 4380.899 0.00 0.90815 1.29
7 2 3 2 o 10931.944 9866.775 136.79 0.90611 0.08
5 4 7 2 o 339.541 309.908 118.45 0.90515 0.00
6 3 6 2 o 2727.449 2636.579 112.08 0.90465 0.02
4 2 5 1 o -0.842 0.023 180.00 0.90360 0.00
2 1 13 2 o 4540.292 5084.456 132.79 0.90229 0.02
5 1 10 2 o 3407.030 3554.437 -1.04 0.90152 0.02
6 1 8 2 o 1444.205 1461.240 -166.55 0.90077 0.01
4 4 9 2 o 6997.256 6914.704 90.00 0.89957 0.02
10 2 2 1 o 1891.946 1874.690 0.00 0.89957 0.44
7 0 5 2 o 188.994 187.542 135.00 0.89930 0.00
10 4 1 1 o 468.174 441.508 180.00 0.89900 0.20
3 2 12 2 o 110.346 99.135 -175.10 0.89889 0.00
4 2 11 2 o 18672.701 17655.275 52.57 0.89864 0.13
6 4 4 2 o 4508.752 4003.689 16.00 0.89714 0.03
7 6 3 1 o 16.249 13.394 0.00 0.89678 0.01
9 2 3 1 o 0.012 0.010 0.00 0.89678 0.00
9 6 1 1 o 93.044 96.570 0.00 0.89528 0.05
7 3 4 1 o 6336.782 6459.607 180.00 0.89439 2.22
9 5 2 1 o 241.081 218.768 0.00 0.89216 0.20
7 1 5 2 o 1575.999 1559.602 103.79 0.89146 0.01
5 5 5 2 o 1799.929 1787.538 90.00 0.89146 0.00
11 1 0 1 o 6207.082 6147.954 0.00 0.89141 1.15
