#------------------------------------------------------------------------------
#$Date: 2021-06-21 11:01:54 +0300 (Mon, 21 Jun 2021) $
#$Revision: 266596 $
#$URL: file:///home/coder/svn-repositories/cod/cif/1/56/36/1563625.cif $
#------------------------------------------------------------------------------
#
# This file is available in the Crystallography Open Database (COD),
# http://www.crystallography.net/
#
# All data on this site have been placed in the public domain by the
# contributors.
#
data_1563625
loop_
_publ_author_name
'Zubkov, Vladimir G.'
'Tarakina, Nadezda V.'
'Leonidov, Ivan I.'
'Tyutyunnik, Alexander P.'
'Surat, Ludmila L.'
'Melkozerova, Marina A.'
'Zabolotskaya, Elena V.'
'Kellerman, Dina G.'
_publ_section_title
;
 Synthesis and crystal structure of Ln2M2+Ge4O12, Ln=rare-earth element or
 Y; M=Ca, Mn, Zn
;
_journal_issue                   5
_journal_name_full               'Journal of Solid State Chemistry'
_journal_page_first              1186
_journal_page_last               1193
_journal_paper_doi               10.1016/j.jssc.2010.03.027
_journal_volume                  183
_journal_year                    2010
_chemical_formula_sum            'Er2 Ge4 Mn O12'
_chemical_formula_weight         871.81
_space_group_IT_number           125
_space_group_name_Hall           '-P 4a 2b'
_space_group_name_H-M_alt        'P 4/n b m :2'
_symmetry_cell_setting           tetragonal
_symmetry_space_group_name_H-M   'P 4/n b m :2'
_cell_angle_alpha                90.0
_cell_angle_beta                 90.0
_cell_angle_gamma                90.0
_cell_formula_units_Z            2
_cell_length_a                   9.86945(7)
_cell_length_b                   9.86945
_cell_length_c                   4.96668(5)
_cell_volume                     483.785(6)
_computing_structure_refinement  GSAS
_diffrn_radiation_polarisn_ratio 0.8
_diffrn_radiation_probe          x-ray
_diffrn_radiation_wavelength     1.54056
_exptl_absorpt_correction_T_max  1.00000
_exptl_absorpt_correction_T_min  1.00000
_exptl_absorpt_process_details
;   GSAS Absorption/surface roughness correction: function number 0
 No correction is applied.
;
_pd_calc_method                  'Rietveld Refinement'
_pd_instr_location               ' ?'
_pd_meas_2theta_range_inc        0.02
_pd_meas_2theta_range_max        119.98
_pd_meas_2theta_range_min        5.0
_pd_meas_number_of_points        5750
_pd_proc_2theta_range_inc        0.02
_pd_proc_2theta_range_max        119.95344
_pd_proc_2theta_range_min        4.97344
_pd_proc_info_datetime           2010-02-27T12:04:43
_pd_proc_info_excluded_regions   ' ?'
_pd_proc_ls_background_function
;   GSAS Background function number 1 with 36 terms.
 Shifted Chebyshev function of 1st kind
      1:    856.992     2:   -720.786     3:    426.049     4:   -195.652    
      5:    51.9237     6:    4.99954     7:   -17.4578     8:    8.65803    
      9:   0.484581    10:   -10.9937    11:    8.94700    12:    2.45499    
     13:   -9.12581    14:    4.81281    15:   -4.40138    16:   -4.02733    
     17:    8.25532    18:   -9.54116    19:    1.79657    20:    3.67749    
     21:   -9.84802    22:    12.1951    23:   -11.5873    24:    1.29208    
     25:    3.00740    26:   -12.9176    27:    9.49568    28:   -8.74493    
     29:   0.467473    30:    6.56367    31:   -7.02976    32:    3.59680    
     33:  -0.214456    34:   -6.90315    35:    5.51091    36:   -3.35204    
;
_pd_proc_ls_peak_cutoff          0.00100
_pd_proc_ls_profile_function
;
 CW Profile function number 2 with  18 terms
 Profile coefficients for Simpson's rule integration of pseudovoigt function
 C.J. Howard (1982). J. Appl. Cryst.,15,615-620.
 P. Thompson, D.E. Cox & J.B. Hastings (1987). J. Appl. Cryst.,20,79-83.
 #1(GU)   =    6.625 #2(GV)   =  -14.900 #3(GW)   =   26.883
 #4(LX)   =    1.542 #5(LY)   =   10.511 #6(trns) =    0.000
 #7(asym) =   1.4909 #8(shft) =   0.0000 #9(GP)   =    0.000
 #10(stec)=     0.00 #11(ptec)=     0.00 #12(sfec)=     0.00
 #13(L11) =    0.000 #14(L22) =    0.000 #15(L33) =    0.000
 #16(L12) =    0.000 #17(L13) =    0.000 #18(L23) =    0.000
 Peak tails are ignored  where the intensity is below 0.0010 times the peak
   Aniso. broadening axis   0.0   0.0   1.0
;
_pd_proc_ls_prof_R_factor        0.0324
_pd_proc_ls_prof_wR_expected     0.0337
_pd_proc_ls_prof_wR_factor       0.0436
_pd_proc_number_of_points        5750
_pd_spec_mounting                ' ?'
_refine_ls_goodness_of_fit_all   1.30
_refine_ls_matrix_type           full
_refine_ls_number_parameters     52
_refine_ls_number_restraints     0
_refine_ls_R_Fsqd_factor         0.01689
_refine_ls_shift/su_max          0.01
_refine_ls_shift/su_mean         0.00
_reflns_d_resolution_high        0.894
_reflns_d_resolution_low         6.979
_reflns_limit_h_max              11
_reflns_limit_h_min              0
_reflns_limit_k_max              7
_reflns_limit_k_min              0
_reflns_limit_l_max              5
_reflns_limit_l_min              0
_reflns_number_total             203
_cod_data_source_file            ER2MNGE4O12.cif
_cod_data_source_block           ER2MNGE4O12_publ
_cod_depositor_comments
;
The following automatic conversions were performed:

data item '_geom_angle_publ_flag' value 'N' was changed to 'n' in
accordance with the built-in table derived from the CIF Core
dictionary named 'cif_core.dic' version 2.4.5 last updated on
2014-11-21 (115 times).

data item '_geom_bond_publ_flag' value 'N' was changed to 'n' in
accordance with the built-in table derived from the CIF Core
dictionary named 'cif_core.dic' version 2.4.5 last updated on
2014-11-21 (50 times).

Automatic conversion script
Id: cif_fix_values 8369 2020-08-20 11:38:08Z andrius 
;
_cod_original_cell_volume        483.785(10)
_cod_original_sg_symbol_H-M      'P 4/n b m'
_cod_original_formula_sum        'Er2.00 Ge4 Mn1.00 O12'
_cod_database_code               1563625
_gsas_exptl_extinct_corr_t_min   1.00000
_gsas_exptl_extinct_corr_t_max   1.00000
loop_
_symmetry_equiv_pos_site_id
_symmetry_equiv_pos_as_xyz
1 +x,+y,+z
2 -y+1/2,+x,+z
3 -x+1/2,-y+1/2,+z
4 +y,-x+1/2,+z
5 -x,+y+1/2,+z
6 -y,-x,+z
7 +x+1/2,-y,+z
8 +y+1/2,+x+1/2,+z
-1 -x,-y,-z
-2 +y+1/2,-x,-z
-3 +x+1/2,+y+1/2,-z
-4 -y,+x+1/2,-z
-5 +x,-y+1/2,-z
-6 +y,+x,-z
-7 -x+1/2,+y,-z
-8 -y+1/2,-x+1/2,-z
loop_
_atom_site_type_symbol
_atom_site_label
_atom_site_fract_x
_atom_site_fract_y
_atom_site_fract_z
_atom_site_occupancy
_atom_site_thermal_displace_type
_atom_site_U_iso_or_equiv
_atom_site_symmetry_multiplicity
Mn Mn 0.0 0.0 0.5 0.5 Uiso 0.0215(5) 4
Er Er1 0.0 0.0 0.5 0.5 Uiso 0.0215(5) 4
Er Er2 0.25 0.25 0.5 1.0 Uiso 0.0172(6) 2
Ge GE 0.97848(13) 0.25 0.0 1.0 Uiso 0.0174(5) 8
O O1 0.1307(5) 0.8693(5) 0.8344(14) 1.0 Uiso 0.0120(23) 8
O O2 0.1695(5) 0.0638(5) 0.2571(11) 1.0 Uiso 0.0123(16) 16
loop_
_atom_type_symbol
_atom_type_number_in_cell
_atom_type_scat_dispersion_real
_atom_type_scat_dispersion_imag
_atom_type_scat_Cromer_Mann_a1
_atom_type_scat_Cromer_Mann_a2
_atom_type_scat_Cromer_Mann_a3
_atom_type_scat_Cromer_Mann_a4
_atom_type_scat_Cromer_Mann_b1
_atom_type_scat_Cromer_Mann_b2
_atom_type_scat_Cromer_Mann_b3
_atom_type_scat_Cromer_Mann_b4
_atom_type_scat_Cromer_Mann_c
_atom_type_scat_source
Mn 2.0 0.000 0.000 11.2819 5.34090 7.35730 0.34320 3.01930 17.8674 2.24410
83.7543 1.08960 International_Tables_Vol_C
Er 4.0 0.000 0.000 27.6563 2.07356 16.4285 0.22354 14.9779 11.3604 2.98233
105.703 5.92046 International_Tables_Vol_C
Ge 8.0 0.000 0.000 16.0816 2.85090 6.37470 0.25160 3.70680 11.4468 3.68300
54.7625 2.13130 International_Tables_Vol_C
O 24.0 0.000 0.000 3.04850 13.2771 2.28680 5.70110 1.54630 0.32390 0.86700
32.9089 0.25080 International_Tables_Vol_C
loop_
_geom_angle_atom_site_label_1
_geom_angle_atom_site_label_2
_geom_angle_atom_site_label_3
_geom_angle
_geom_angle_site_symmetry_1
_geom_angle_site_symmetry_2
_geom_angle_site_symmetry_3
_geom_angle_publ_flag
O2 Mn O2 98.05(26) 1_555 . 6_555 n
O2 Mn O2 180.0 1_555 . -1_556 n
O2 Mn O2 81.95(26) 1_555 . -6_556 n
O2 Mn O2 81.95(26) 6_555 . -1_556 n
O2 Mn O2 180.0 6_555 . -6_556 n
O2 Mn O2 98.05(26) -1_556 . -6_556 n
Er2 Er1 Er2 180.0 1_555 . 5_545 n
Er2 Er1 O1 89.9992 1_555 . 1_545 n
Er2 Er1 O1 90.0008 1_555 . -1_566 n
Er2 Er1 O2 40.98(13) 1_555 . 1_555 n
Er2 Er1 O2 139.02(13) 1_555 . 6_555 n
Er2 Er1 O2 139.02(13) 1_555 . -1_556 n
Er2 Er1 O2 40.98(13) 1_555 . -6_556 n
Er2 Er1 O1 90.0008 5_545 . 1_545 n
Er2 Er1 O1 89.9992 5_545 . -1_566 n
Er2 Er1 O2 139.02(13) 5_545 . 1_555 n
Er2 Er1 O2 40.98(13) 5_545 . 6_555 n
Er2 Er1 O2 40.98(13) 5_545 . -1_556 n
Er2 Er1 O2 139.02(13) 5_545 . -6_556 n
O1 Er1 O1 180.0 1_545 . -1_566 n
O1 Er1 O2 97.10(19) 1_545 . 1_555 n
O1 Er1 O2 97.10(19) 1_545 . 6_555 n
O1 Er1 O2 82.90(19) 1_545 . -1_556 n
O1 Er1 O2 82.90(19) 1_545 . -6_556 n
O1 Er1 O2 82.90(19) -1_566 . 1_555 n
O1 Er1 O2 82.90(19) -1_566 . 6_555 n
O1 Er1 O2 97.10(19) -1_566 . -1_556 n
O1 Er1 O2 97.10(19) -1_566 . -6_556 n
O2 Er1 O2 98.05(26) 1_555 . 6_555 n
O2 Er1 O2 180.0 1_555 . -1_556 n
O2 Er1 O2 81.95(26) 1_555 . -6_556 n
O2 Er1 O2 81.95(26) 6_555 . -1_556 n
O2 Er1 O2 180.0 6_555 . -6_556 n
O2 Er1 O2 98.05(26) -1_556 . -6_556 n
Er1 Er2 Er1 90.0 1_555 . 2_555 n
Er1 Er2 Er1 180.0 1_555 . 3_555 n
Er1 Er2 Er1 90.0 1_555 . 4_555 n
Er1 Er2 O2 37.23(13) 1_555 . 1_555 n
Er1 Er2 O2 108.40(11) 1_555 . 2_555 n
Er1 Er2 O2 142.77(13) 1_555 . 3_555 n
Er1 Er2 O2 71.60(11) 1_555 . 4_555 n
Er1 Er2 O2 108.40(11) 1_555 . -5_456 n
Er1 Er2 O2 37.23(13) 1_555 . -6_556 n
Er1 Er2 O2 71.60(11) 1_555 . -7_546 n
Er1 Er2 O2 142.77(13) 1_555 . -8_556 n
Er1 Er2 Er1 90.0 2_555 . 3_555 n
Er1 Er2 Er1 180.0 2_555 . 4_555 n
Er1 Er2 O2 71.60(11) 2_555 . 1_555 n
Er1 Er2 O2 37.23(13) 2_555 . 2_555 n
Er1 Er2 O2 108.40(11) 2_555 . 3_555 n
Er1 Er2 O2 142.77(13) 2_555 . 4_555 n
Er1 Er2 O2 142.77(13) 2_555 . -5_456 n
Er1 Er2 O2 108.40(11) 2_555 . -6_556 n
Er1 Er2 O2 37.23(13) 2_555 . -7_546 n
Er1 Er2 O2 71.60(11) 2_555 . -8_556 n
Er1 Er2 Er1 90.0 3_555 . 4_555 n
Er1 Er2 O2 142.77(13) 3_555 . 1_555 n
Er1 Er2 O2 71.60(11) 3_555 . 2_555 n
Er1 Er2 O2 37.23(13) 3_555 . 3_555 n
Er1 Er2 O2 108.40(11) 3_555 . 4_555 n
Er1 Er2 O2 71.60(11) 3_555 . -5_456 n
Er1 Er2 O2 142.77(13) 3_555 . -6_556 n
Er1 Er2 O2 108.40(11) 3_555 . -7_546 n
Er1 Er2 O2 37.23(13) 3_555 . -8_556 n
Er1 Er2 O2 108.40(11) 4_555 . 1_555 n
Er1 Er2 O2 142.77(13) 4_555 . 2_555 n
Er1 Er2 O2 71.60(11) 4_555 . 3_555 n
Er1 Er2 O2 37.23(13) 4_555 . 4_555 n
Er1 Er2 O2 37.23(13) 4_555 . -5_456 n
Er1 Er2 O2 71.60(11) 4_555 . -6_556 n
Er1 Er2 O2 142.77(13) 4_555 . -7_546 n
Er1 Er2 O2 108.40(11) 4_555 . -8_556 n
O2 Er2 O2 74.55(12) 1_555 . 2_555 n
O2 Er2 O2 117.86(26) 1_555 . 3_555 n
O2 Er2 O2 74.55(12) 1_555 . 4_555 n
O2 Er2 O2 140.27(23) 1_555 . -5_456 n
O2 Er2 O2 74.46(26) 1_555 . -6_556 n
O2 Er2 O2 76.33(23) 1_555 . -7_546 n
O2 Er2 O2 143.19(22) 1_555 . -8_556 n
O2 Er2 O2 74.55(12) 2_555 . 3_555 n
O2 Er2 O2 117.86(26) 2_555 . 4_555 n
O2 Er2 O2 143.19(22) 2_555 . -5_456 n
O2 Er2 O2 140.27(23) 2_555 . -6_556 n
O2 Er2 O2 74.46(26) 2_555 . -7_546 n
O2 Er2 O2 76.33(23) 2_555 . -8_556 n
O2 Er2 O2 74.55(12) 3_555 . 4_555 n
O2 Er2 O2 76.33(23) 3_555 . -5_456 n
O2 Er2 O2 143.19(22) 3_555 . -6_556 n
O2 Er2 O2 140.27(23) 3_555 . -7_546 n
O2 Er2 O2 74.46(26) 3_555 . -8_556 n
O2 Er2 O2 74.46(26) 4_555 . -5_456 n
O2 Er2 O2 76.33(23) 4_555 . -6_556 n
O2 Er2 O2 143.19(22) 4_555 . -7_546 n
O2 Er2 O2 140.27(23) 4_555 . -8_556 n
O2 Er2 O2 74.55(12) -5_456 . -6_556 n
O2 Er2 O2 117.86(26) -5_456 . -7_546 n
O2 Er2 O2 74.55(12) -5_456 . -8_556 n
O2 Er2 O2 74.55(12) -6_556 . -7_546 n
O2 Er2 O2 117.86(26) -6_556 . -8_556 n
O2 Er2 O2 74.55(12) -7_546 . -8_556 n
O1 GE O1 106.2(5) 4_554 . -1_666 n
O1 GE O2 109.29(34) 4_554 . 4_655 n
O1 GE O2 104.82(28) 4_554 . -6_655 n
O1 GE O2 104.83(28) -1_666 . 4_655 n
O1 GE O2 109.29(34) -1_666 . -6_655 n
O2 GE O2 121.5(4) 4_655 . -6_655 n
Er1 O1 GE 109.73(23) 1_565 . 2_556 n
Er1 O1 GE 109.72(23) 1_565 . 5_656 n
GE O1 GE 125.2(4) 2_556 . 5_656 n
Mn O2 Er1 0.0 1_555 . 1_555 n
Mn O2 Er2 101.80(20) 1_555 . 1_555 n
Mn O2 GE 129.01(29) 1_555 . 2_545 n
Er1 O2 Er2 101.80(20) 1_555 . 1_555 n
Er1 O2 GE 129.01(29) 1_555 . 2_545 n
Er2 O2 GE 127.58(29) 1_555 . 2_545 n
loop_
_geom_bond_atom_site_label_1
_geom_bond_atom_site_label_2
_geom_bond_distance
_geom_bond_site_symmetry_1
_geom_bond_site_symmetry_2
_geom_bond_publ_flag
Mn O1 2.467(7) . 1_545 n
Mn O1 2.467(7) . -1_566 n
Mn O2 2.157(5) . 1_555 n
Mn O2 2.157(5) . 6_555 n
Mn O2 2.157(5) . -1_556 n
Mn O2 2.157(5) . -6_556 n
Er1 Er2 3.489380(30) . 1_555 n
Er1 Er2 3.489380(30) . 5_545 n
Er1 GE 3.50713(8) . 1_455 n
Er1 GE 3.50713(8) . 1_456 n
Er1 GE 3.50713(8) . 2_545 n
Er1 GE 3.50713(8) . 2_546 n
Er1 GE 3.50713(8) . 5_645 n
Er1 GE 3.50713(8) . 5_646 n
Er1 GE 3.50713(8) . 6_565 n
Er1 GE 3.50713(8) . 6_566 n
Er1 O1 2.467(7) . 1_545 n
Er1 O1 2.467(7) . -1_566 n
Er1 O2 2.157(5) . 1_555 n
Er1 O2 2.157(5) . 6_555 n
Er1 O2 2.157(5) . -1_556 n
Er1 O2 2.157(5) . -6_556 n
Er2 Er1 3.489380(30) . 1_555 n
Er2 Er1 3.489380(30) . 2_555 n
Er2 Er1 3.489380(30) . 3_555 n
Er2 Er1 3.489380(30) . 4_555 n
Er2 O2 2.338(5) . 1_555 n
Er2 O2 2.338(5) . 2_555 n
Er2 O2 2.338(5) . 3_555 n
Er2 O2 2.338(5) . 4_555 n
Er2 O2 2.338(5) . -5_556 n
Er2 O2 2.338(5) . -6_556 n
Er2 O2 2.338(5) . -7_556 n
Er2 O2 2.338(5) . -8_556 n
GE Er1 3.50713(8) . 1_654 n
GE Er1 3.50713(8) . 1_655 n
GE Er1 3.50713(8) . 4_654 n
GE Er1 3.50713(8) . 4_655 n
GE O1 1.7956(31) . 4_554 n
GE O1 1.7956(31) . -1_666 n
GE O2 1.723(5) . 4_655 n
GE O2 1.723(5) . -6_655 n
O1 Mn 2.467(7) . 1_565 n
O1 Er1 2.467(7) . 1_565 n
O1 GE 1.7956(31) . 2_556 n
O1 GE 1.7956(31) . 5_656 n
O2 Mn 2.157(5) . 1_555 n
O2 Er1 2.157(5) . 1_555 n
O2 Er2 2.338(5) . 1_555 n
O2 GE 1.723(5) . 2_545 n
loop_
_pd_meas_counts_total
_pd_proc_ls_weight
_pd_proc_intensity_bkg_calc
_pd_calc_intensity_total
2249.0 0.000445 2237.93262 2237.93188
2192.0 0.000456 2232.24927 2232.24878
2194.0 0.000456 2227.15576 2227.15552
2224.0 0.000450 2222.60449 2222.60425
2208.0 0.000453 2218.55103 2218.55078
2143.0 0.000467 2214.95288 2214.95288
2219.0 0.000451 2211.77100 2211.77100
2264.0 0.000442 2208.96777 2208.96753
2194.0 0.000456 2206.50806 2206.50806
2235.0 0.000447 2204.35938 2204.35962
2261.0 0.000442 2202.49072 2202.49097
2205.0 0.000454 2200.87354 2200.87354
2141.0 0.000467 2199.47998 2199.48022
2148.0 0.000466 2198.28564 2198.28589
2203.0 0.000454 2197.26685 2197.26685
2222.0 0.000450 2196.40112 2196.40137
2272.0 0.000440 2195.66846 2195.66870
2175.0 0.000460 2195.04956 2195.04980
2212.0 0.000452 2194.52686 2194.52710
2237.0 0.000447 2194.08423 2194.08447
2214.0 0.000452 2193.70630 2193.70654
2272.0 0.000440 2193.37915 2193.37939
2259.0 0.000443 2193.09009 2193.09033
2169.0 0.000461 2192.82715 2192.82739
2223.0 0.000450 2192.57959 2192.57983
2211.0 0.000452 2192.33765 2192.33789
2228.0 0.000449 2192.09229 2192.09229
2209.0 0.000453 2191.83496 2191.83521
2153.0 0.000464 2191.55908 2191.55908
2093.0 0.000478 2191.25732 2191.25732
2151.0 0.000465 2190.92407 2190.92432
2176.0 0.000460 2190.55396 2190.55396
2238.0 0.000447 2190.14233 2190.14233
2200.0 0.000455 2189.68530 2189.68530
2214.0 0.000452 2189.17896 2189.17896
2138.0 0.000468 2188.62061 2188.62061
2150.0 0.000465 2188.00732 2188.00732
2271.0 0.000440 2187.33716 2187.33716
2186.0 0.000457 2186.60864 2186.60864
2181.0 0.000459 2185.81982 2185.81982
2174.0 0.000460 2184.97046 2184.97046
2179.0 0.000459 2184.05908 2184.05908
2227.0 0.000449 2183.08594 2183.08594
2242.0 0.000446 2182.05103 2182.05103
2182.0 0.000458 2180.95410 2180.95386
2165.0 0.000462 2179.79565 2179.79565
2122.0 0.000471 2178.57642 2178.57642
2136.0 0.000468 2177.29736 2177.29736
2163.0 0.000462 2175.95923 2175.95898
2187.0 0.000457 2174.56299 2174.56299
2249.0 0.000445 2173.11060 2173.11060
2185.0 0.000458 2171.60327 2171.60303
2129.0 0.000470 2170.04224 2170.04224
2094.0 0.000478 2168.42920 2168.42920
2154.0 0.000464 2166.76636 2166.76611
2130.0 0.000469 2165.05518 2165.05493
2113.0 0.000473 2163.29761 2163.29736
2097.0 0.000477 2161.49561 2161.49536
2127.0 0.000470 2159.65112 2159.65088
2095.0 0.000477 2157.76636 2157.76611
2171.0 0.000461 2155.84302 2155.84277
2175.0 0.000460 2153.88330 2153.88330
2090.0 0.000478 2151.88965 2151.88965
2167.0 0.000461 2149.86377 2149.86377
2179.0 0.000459 2147.80811 2147.80786
2153.0 0.000464 2145.72437 2145.72412
2161.0 0.000463 2143.61450 2143.61450
2114.0 0.000473 2141.48120 2141.48120
2025.0 0.000494 2139.32593 2139.32593
2145.0 0.000466 2137.15088 2137.15088
2126.0 0.000470 2134.95801 2134.95801
2032.0 0.000492 2132.74927 2132.74927
2132.0 0.000469 2130.52637 2130.52637
2111.0 0.000474 2128.29150 2128.29126
2071.0 0.000483 2126.04614 2126.04614
2161.0 0.000463 2123.79224 2123.79224
2070.0 0.000483 2121.53149 2121.53149
2101.0 0.000476 2119.26538 2119.26538
2128.0 0.000470 2116.99585 2116.99585
2122.0 0.000471 2114.72412 2114.72412
2121.0 0.000471 2112.45190 2112.45190
2168.0 0.000461 2110.18066 2110.18066
2151.0 0.000465 2107.91162 2107.91162
2140.0 0.000467 2105.64624 2105.64624
2118.0 0.000472 2103.38574 2103.38574
2177.0 0.000459 2101.13135 2101.13135
2166.0 0.000462 2098.88428 2098.88428
2165.0 0.000462 2096.64551 2096.64551
2134.0 0.000469 2094.41626 2094.41626
2050.0 0.000488 2092.19751 2092.19751
2077.0 0.000481 2089.98999 2089.98999
2125.0 0.000471 2087.79492 2087.79492
2083.0 0.000480 2085.61279 2085.61279
2186.0 0.000457 2083.44458 2083.44458
2094.0 0.000478 2081.29102 2081.29102
2125.0 0.000471 2079.15259 2079.15283
2086.0 0.000479 2077.03003 2077.03027
2133.0 0.000469 2074.92407 2074.92407
2049.0 0.000488 2072.83521 2072.83521
2006.0 0.000499 2070.76343 2070.76367
2101.0 0.000476 2068.70996 2068.70996
2116.0 0.000473 2066.67456 2066.67456
2083.0 0.000480 2064.65771 2064.65771
2007.0 0.000498 2062.65967 2062.65991
1998.0 0.000501 2060.68091 2060.68115
2046.0 0.000489 2058.72168 2058.72168
2143.0 0.000467 2056.78174 2056.78198
2040.0 0.000490 2054.86157 2054.86182
2028.0 0.000493 2052.96118 2052.96143
2133.0 0.000469 2051.08057 2051.08081
2050.0 0.000488 2049.21997 2049.22021
2161.0 0.000463 2047.37927 2047.37939
2097.0 0.000477 2045.55835 2045.55847
1981.0 0.000505 2043.75720 2043.75732
2140.0 0.000467 2041.97571 2041.97595
2059.0 0.000486 2040.21411 2040.21423
2031.0 0.000492 2038.47168 2038.47192
2078.0 0.000481 2036.74890 2036.74902
2020.0 0.000495 2035.04492 2035.04517
1970.0 0.000508 2033.35999 2033.36023
2084.0 0.000480 2031.69397 2031.69409
2105.0 0.000475 2030.04614 2030.04626
2044.0 0.000489 2028.41675 2028.41687
2028.0 0.000493 2026.80518 2026.80542
1991.0 0.000502 2025.21143 2025.21155
2045.0 0.000489 2023.63477 2023.63501
1968.0 0.000508 2022.07532 2022.07544
2021.0 0.000495 2020.53259 2020.53271
1936.0 0.000517 2019.00623 2019.00635
2000.0 0.000500 2017.49597 2017.49609
2003.0 0.000499 2016.00122 2016.00146
2046.0 0.000489 2014.52197 2014.52222
2074.0 0.000482 2013.05762 2013.05774
2005.0 0.000499 2011.60779 2011.60803
2019.0 0.000495 2010.17236 2010.17249
1969.0 0.000508 2008.75061 2008.75073
2018.0 0.000496 2007.34241 2007.34253
1980.0 0.000505 2005.94714 2005.94739
2048.0 0.000488 2004.56470 2004.56482
1977.0 0.000506 2003.19458 2003.19470
1980.0 0.000505 2001.83630 2001.83643
1980.0 0.000505 2000.48962 2000.48975
1989.0 0.000503 1999.15405 1999.15417
1993.0 0.000502 1997.82922 1997.82935
1992.0 0.000502 1996.51489 1996.51501
2002.0 0.000500 1995.21045 1995.21057
2009.0 0.000498 1993.91589 1993.91602
1934.0 0.000517 1992.63049 1992.63062
2066.0 0.000484 1991.35413 1991.35425
1950.0 0.000513 1990.08618 1990.08630
2044.0 0.000489 1988.82654 1988.82666
1982.0 0.000505 1987.57495 1987.57507
1910.0 0.000524 1986.33069 1986.33081
1895.0 0.000528 1985.09387 1985.09399
1928.0 0.000519 1983.86389 1983.86389
2020.0 0.000495 1982.64038 1982.64050
1969.0 0.000508 1981.42334 1981.42346
1989.0 0.000503 1980.21228 1980.21240
1966.0 0.000509 1979.00696 1979.00708
1949.0 0.000513 1977.80701 1977.80713
2038.0 0.000491 1976.61243 1976.61243
2009.0 0.000498 1975.42249 1975.42261
1943.0 0.000515 1974.23730 1974.23730
1988.0 0.000503 1973.05664 1973.05664
1933.0 0.000517 1971.87988 1971.88000
1923.0 0.000520 1970.70740 1970.70740
1944.0 0.000514 1969.53845 1969.53857
1954.0 0.000512 1968.37305 1968.37317
1981.0 0.000505 1967.21106 1967.21118
2013.0 0.000497 1966.05225 1966.05225
1931.0 0.000518 1964.89636 1964.89636
1983.0 0.000504 1963.74329 1963.74329
1957.0 0.000511 1962.59290 1962.59290
1963.0 0.000509 1961.44482 1961.44495
2067.0 0.000484 1960.29932 1960.29932
1902.0 0.000526 1959.15588 1959.15588
1906.0 0.000525 1958.01440 1958.01453
1950.0 0.000513 1956.87524 1956.87524
1873.0 0.000534 1955.73767 1955.73767
1956.0 0.000511 1954.60205 1954.60205
2006.0 0.000499 1953.46802 1953.46802
1947.0 0.000514 1952.33557 1952.33557
1986.0 0.000504 1951.20471 1951.20471
1929.0 0.000518 1950.07520 1950.07520
1957.0 0.000511 1948.94714 1948.94714
1951.0 0.000513 1947.82056 1947.82056
1928.0 0.000519 1946.69507 1946.69507
1895.0 0.000528 1945.57104 1945.57104
1914.0 0.000522 1944.44812 1944.44812
1977.0 0.000506 1943.32654 1943.32654
1963.0 0.000509 1942.20605 1942.20605
1966.0 0.000509 1941.08679 1941.08679
1979.0 0.000505 1939.96863 1939.96863
1865.0 0.000536 1938.85156 1938.85156
1917.0 0.000522 1937.73584 1937.73584
1948.0 0.000513 1936.62122 1936.62122
1972.0 0.000507 1935.50793 1935.50793
1904.0 0.000525 1934.39575 1934.39575
1868.0 0.000535 1933.28479 1933.28479
1887.0 0.000530 1932.17517 1932.17517
1869.0 0.000535 1931.06677 1931.06677
1891.0 0.000529 1929.95984 1929.95984
1970.0 0.000508 1928.85425 1928.85425
1941.0 0.000515 1927.75000 1927.74988
1907.0 0.000524 1926.64722 1926.64722
1935.0 0.000517 1925.54590 1925.54590
1838.0 0.000544 1924.44641 1924.44641
1949.0 0.000513 1923.34827 1923.34814
1935.0 0.000517 1922.25183 1922.25183
1994.0 0.000502 1921.15710 1921.15710
1950.0 0.000513 1920.06409 1920.06409
1966.0 0.000509 1918.97302 1918.97302
1896.0 0.000527 1917.88379 1917.88379
1911.0 0.000523 1916.79651 1916.79651
1938.0 0.000516 1915.71118 1915.71118
1895.0 0.000528 1914.62793 1914.62781
1926.0 0.000519 1913.54675 1913.54675
1903.0 0.000525 1912.46777 1912.46777
1871.0 0.000534 1911.39099 1911.39099
1918.0 0.000521 1910.31653 1910.31653
1920.0 0.000521 1909.24438 1909.24438
1958.0 0.000511 1908.17456 1908.17456
1824.0 0.000548 1907.10718 1907.10718
1961.0 0.000510 1906.04248 1906.04248
1847.0 0.000541 1904.98010 1904.98010
1918.0 0.000521 1903.92041 1903.92041
1928.0 0.000519 1902.86328 1902.86328
1860.0 0.000538 1901.80884 1901.80884
1918.0 0.000521 1900.75720 1900.75720
1881.0 0.000532 1899.70825 1899.70825
1873.0 0.000534 1898.66211 1898.66211
1918.0 0.000521 1897.61877 1897.61877
1932.0 0.000518 1896.57813 1896.57813
1864.0 0.000536 1895.54065 1895.54065
1916.0 0.000522 1894.50586 1894.50586
1879.0 0.000532 1893.47412 1893.47412
1905.0 0.000525 1892.44507 1892.44519
1936.0 0.000517 1891.41931 1891.41931
1881.0 0.000532 1890.39624 1890.39624
1917.0 0.000522 1889.37622 1889.37634
1891.0 0.000529 1888.35913 1888.35913
1820.0 0.000549 1887.34497 1887.34497
1899.0 0.000527 1886.33374 1886.33386
1844.0 0.000542 1885.32544 1885.32556
1925.0 0.000519 1884.32007 1884.32019
1933.0 0.000517 1883.31763 1883.31775
1862.0 0.000537 1882.31799 1882.31812
1844.0 0.000542 1881.32141 1881.32141
1918.0 0.000521 1880.32739 1880.32751
1845.0 0.000542 1879.33630 1879.33643
1919.0 0.000521 1878.34778 1878.34778
1904.0 0.000525 1877.36194 1877.36194
1856.0 0.000539 1876.37878 1876.37891
1843.0 0.000543 1875.39819 1875.39832
1818.0 0.000550 1874.42017 1874.42029
1864.0 0.000536 1873.44446 1873.44458
1923.0 0.000520 1872.47131 1872.47144
1910.0 0.000524 1871.50024 1871.50037
1877.0 0.000533 1870.53149 1870.53162
1862.0 0.000537 1869.56494 1869.56506
1882.0 0.000531 1868.60034 1868.60046
1821.0 0.000549 1867.63782 1867.63794
1979.0 0.000505 1866.67700 1866.67712
1908.0 0.000524 1865.71790 1865.71802
1849.0 0.000541 1864.76062 1864.76074
1786.0 0.000560 1863.80469 1863.80481
1866.0 0.000536 1862.85034 1862.85059
1835.0 0.000545 1861.89722 1861.89734
1842.0 0.000543 1860.94543 1860.94556
1930.0 0.000518 1859.99451 1859.99463
1942.0 0.000515 1859.04456 1859.04468
1926.0 0.000519 1858.09546 1858.09558
1827.0 0.000547 1857.14685 1857.14697
1895.0 0.000528 1856.19885 1856.19910
1901.0 0.000526 1855.25122 1855.25146
1894.0 0.000528 1854.30371 1854.30383
1913.0 0.000523 1853.35632 1853.35657
1907.0 0.000524 1852.40881 1852.40906
1884.0 0.000531 1851.46118 1851.46143
1855.0 0.000539 1850.51294 1850.51318
1860.0 0.000538 1849.56409 1849.56433
1900.0 0.000526 1848.61462 1848.61487
1875.0 0.000533 1847.66418 1847.66443
1794.0 0.000557 1846.71265 1846.71289
1885.0 0.000531 1845.75977 1845.76001
1868.0 0.000535 1844.80554 1844.80579
1899.0 0.000527 1843.84949 1843.84973
1873.0 0.000534 1842.89160 1842.89185
1840.0 0.000543 1841.93188 1841.93213
1883.0 0.000531 1840.96973 1840.96997
1856.0 0.000539 1840.00537 1840.00562
1804.0 0.000554 1839.03821 1839.03845
1894.0 0.000528 1838.06836 1838.06860
1797.0 0.000556 1837.09558 1837.09583
1894.0 0.000528 1836.11951 1836.11975
1831.0 0.000546 1835.14026 1835.14050
1889.0 0.000529 1834.15710 1834.15747
1852.0 0.000540 1833.17053 1833.17078
1746.0 0.000573 1832.17969 1832.17993
1880.0 0.000532 1831.18481 1831.18506
1880.0 0.000532 1830.18542 1830.18567
1882.0 0.000531 1829.18140 1829.18164
1837.0 0.000544 1828.17273 1828.17297
1816.0 0.000551 1827.15894 1827.15918
1824.0 0.000548 1826.14001 1826.14026
1926.0 0.000519 1825.11560 1825.11584
1876.0 0.000533 1824.08557 1824.08582
1890.0 0.000529 1823.04980 1823.05005
1843.0 0.000543 1822.00793 1822.00818
1844.0 0.000542 1820.95972 1820.95996
1761.0 0.000568 1819.90527 1819.90564
1834.0 0.000545 1818.84412 1818.84436
1815.0 0.000551 1817.77625 1817.77649
1869.0 0.000535 1816.70117 1816.70142
1748.0 0.000572 1815.61902 1815.61938
1787.0 0.000560 1814.52930 1814.52966
1777.0 0.000563 1813.43213 1813.43250
1762.0 0.000568 1812.32703 1812.32727
1829.0 0.000547 1811.21399 1811.21423
1789.0 0.000559 1810.09277 1810.09302
1807.0 0.000553 1808.96313 1808.96338
1754.0 0.000570 1807.82495 1807.82532
1760.0 0.000568 1806.67810 1806.67834
1776.0 0.000563 1805.52209 1805.52246
1828.0 0.000547 1804.35730 1804.35754
1747.0 0.000572 1803.18298 1803.18335
1805.0 0.000554 1801.99951 1801.99976
1789.0 0.000559 1800.80615 1803.77039
1752.0 0.000571 1799.60315 1802.67407
1811.0 0.000552 1798.39038 1801.57373
1817.0 0.000550 1797.16724 1800.46948
1743.0 0.000574 1795.93408 1799.36194
1827.0 0.000547 1794.69031 1798.25122
1798.0 0.000556 1793.43616 1797.13782
1780.0 0.000562 1792.17126 1796.02209
1778.0 0.000562 1790.89551 1794.90491
1724.0 0.000580 1789.60876 1793.78674
1734.0 0.000577 1788.31104 1792.66821
1690.0 0.000592 1787.00208 1791.55042
1705.0 0.000587 1785.68164 1790.43408
1752.0 0.000571 1784.34973 1789.32019
1727.0 0.000579 1783.00647 1788.21008
1802.0 0.000555 1781.65125 1787.10498
1783.0 0.000561 1780.28442 1786.00671
1735.0 0.000576 1778.90552 1784.91675
1700.0 0.000588 1777.51477 1783.83728
1784.0 0.000561 1776.11182 1782.77039
1775.0 0.000563 1774.69678 1781.71899
1796.0 0.000557 1773.26941 1780.68555
1718.0 0.000582 1771.82971 1779.67395
1773.0 0.000564 1770.37769 1778.68811
1741.0 0.000574 1768.91296 1777.73242
1748.0 0.000572 1767.43579 1776.81238
1802.0 0.000555 1765.94617 1775.93396
1773.0 0.000564 1764.44373 1775.10474
1741.0 0.000574 1762.92883 1774.33289
1658.0 0.000603 1761.40088 1773.62830
1781.0 0.000561 1759.86023 1773.00330
1800.0 0.000556 1758.30701 1772.47217
1756.0 0.000569 1756.74072 1772.05139
1785.0 0.000560 1755.16162 1771.76184
1729.0 0.000578 1753.56970 1771.62878
1743.0 0.000574 1751.96497 1771.68298
1712.0 0.000584 1750.34717 1771.96204
1697.0 0.000589 1748.71667 1772.51404
1635.0 0.000612 1747.07324 1773.39856
1742.0 0.000574 1745.41687 1774.69177
1805.0 0.000554 1743.74780 1776.49280
1753.0 0.000570 1742.06580 1778.93250
1861.0 0.000537 1740.37109 1782.19470
1835.0 0.000545 1738.66370 1786.56641
1863.0 0.000537 1736.94336 1792.57776
1877.0 0.000533 1735.21069 1801.37415
1958.0 0.000511 1733.46521 1815.58643
2058.0 0.000486 1731.70728 1841.08655
2073.0 0.000482 1729.93677 1889.86865
2352.0 0.000425 1728.15381 1983.62622
2514.0 0.000398 1726.35864 2156.14624
2732.0 0.000366 1724.55115 2450.80176
3077.0 0.0003250 1722.73157 2908.46802
3419.0 0.0002925 1720.89978 3543.08252
4034.0 0.0002479 1719.05615 4309.81738
4747.0 0.0002107 1717.20056 5087.20410
5340.0 0.0001873 1715.33313 5697.10547
5680.0 0.0001761 1713.45410 5948.16846
5745.0 0.0001741 1711.56360 5722.59473
5320.0 0.0001880 1709.66162 5088.65576
4435.0 0.0002255 1707.74829 4260.02051
3466.0 0.0002885 1705.82385 3451.49463
2893.0 0.0003457 1703.88843 2797.94556
2497.0 0.000400 1701.94202 2343.27148
2202.0 0.000454 1699.98511 2064.99438
1928.0 0.000519 1698.01746 1911.52722
1812.0 0.000552 1696.03955 1832.24268
1782.0 0.000561 1694.05127 1791.26660
1781.0 0.000561 1692.05286 1768.15833
1762.0 0.000568 1690.04468 1753.06299
1707.0 0.000586 1688.02673 1741.77319
1714.0 0.000583 1685.99927 1732.58679
1733.0 0.000577 1683.96240 1724.77527
1690.0 0.000592 1681.91638 1717.96716
1658.0 0.000603 1679.86145 1711.93201
1668.0 0.000600 1677.79773 1706.50732
1707.0 0.000586 1675.72546 1701.57202
1663.0 0.000601 1673.64490 1697.03333
1597.0 0.000626 1671.55603 1692.81885
1725.0 0.000580 1669.45947 1688.87207
1654.0 0.000605 1667.35510 1685.14771
1610.0 0.000621 1665.24341 1681.60962
1684.0 0.000594 1663.12427 1678.22827
1613.0 0.000620 1660.99829 1674.98010
1620.0 0.000617 1658.86548 1671.84509
1661.0 0.000602 1656.72607 1668.80725
1650.0 0.000606 1654.58057 1665.85315
1579.0 0.000633 1652.42883 1662.97107
1619.0 0.000618 1650.27148 1660.15198
1624.0 0.000616 1648.10864 1657.38745
1586.0 0.000631 1645.94031 1654.67078
1622.0 0.000617 1643.76721 1651.99646
1686.0 0.000593 1641.58911 1649.35901
1563.0 0.000640 1639.40674 1646.75464
1576.0 0.000635 1637.22009 1644.17920
1570.0 0.000637 1635.02954 1641.63013
1654.0 0.000605 1632.83521 1639.10413
1610.0 0.000621 1630.63770 1636.59912
1608.0 0.000622 1628.43677 1634.11304
1597.0 0.000626 1626.23315 1631.64392
1619.0 0.000618 1624.02710 1629.19080
1580.0 0.000633 1621.81860 1626.75159
1593.0 0.000628 1619.60828 1624.32581
1580.0 0.000633 1617.39612 1621.91187
1583.0 0.000632 1615.18262 1619.50928
1650.0 0.000606 1612.96814 1617.11719
1540.0 0.000649 1610.75269 1614.73499
1609.0 0.000622 1608.53674 1612.36206
1657.0 0.000604 1606.32068 1609.99817
1576.0 0.000635 1604.10449 1607.64258
1600.0 0.000625 1601.88892 1605.29529
1596.0 0.000627 1599.67383 1602.95581
1582.0 0.000632 1597.45984 1600.62402
1601.0 0.000625 1595.24695 1598.29956
1649.0 0.000606 1593.03577 1593.03589
1627.0 0.000615 1590.82642 1590.82642
1535.0 0.000651 1588.61926 1588.61926
1637.0 0.000611 1586.41455 1586.41455
1517.0 0.000659 1584.21265 1584.21265
1509.0 0.000663 1582.01379 1582.01379
1565.0 0.000639 1579.81836 1579.81836
1635.0 0.000612 1577.62646 1577.62646
1512.0 0.000661 1575.43884 1575.43884
1577.0 0.000634 1573.25525 1573.25525
1658.0 0.000603 1571.07642 1571.07642
1555.0 0.000643 1568.90247 1568.90247
1531.0 0.000653 1566.73352 1566.73352
1525.0 0.000656 1564.57043 1564.57043
1479.0 0.000676 1562.41284 1562.41272
1565.0 0.000639 1560.26147 1560.26147
1590.0 0.000629 1558.11646 1558.11633
1523.0 0.000657 1555.97815 1555.97815
1555.0 0.000643 1553.84668 1553.84668
1587.0 0.000630 1551.72266 1551.72266
1503.0 0.000665 1549.60620 1549.60608
1568.0 0.000638 1547.49744 1547.49744
1554.0 0.000644 1545.39697 1545.39697
1531.0 0.000653 1543.30493 1543.30493
1534.0 0.000652 1541.22144 1541.22144
1527.0 0.000655 1539.14722 1539.14722
1534.0 0.000652 1537.08203 1537.08203
1499.0 0.000667 1535.02661 1535.02661
1537.0 0.000651 1532.98083 1532.98083
1487.0 0.000672 1530.94531 1530.94531
1534.0 0.000652 1528.92004 1528.92004
1576.0 0.000635 1526.90564 1526.90564
1505.0 0.000664 1524.90198 1524.90186
1459.0 0.000685 1522.90942 1522.90942
1545.0 0.000647 1520.92847 1520.92847
1524.0 0.000656 1518.95911 1518.95911
1574.0 0.000635 1517.00183 1517.00171
1461.0 0.000684 1515.05676 1515.05664
1472.0 0.000679 1513.12402 1513.12402
1538.0 0.000650 1511.20410 1511.20410
1466.0 0.000682 1509.29712 1509.29712
1522.0 0.000657 1507.40332 1507.40332
1485.0 0.000673 1505.52307 1505.52295
1494.0 0.000669 1503.65625 1503.65625
1569.0 0.000637 1501.80359 1501.80359
1539.0 0.000650 1499.96484 1499.96484
1534.0 0.000652 1498.14063 1498.14063
1553.0 0.000644 1496.33081 1496.33081
1532.0 0.000653 1494.53601 1494.53589
1598.0 0.000626 1492.75598 1492.75586
1542.0 0.000649 1490.99121 1490.99109
1612.0 0.000620 1489.24182 1489.24182
1564.0 0.000639 1487.50806 1487.50806
1584.0 0.000631 1485.79016 1485.79016
1697.0 0.000589 1484.08826 1484.08813
1663.0 0.000601 1482.40234 1482.40234
1566.0 0.000639 1480.73315 1480.73303
1626.0 0.000615 1479.08020 1479.08008
1538.0 0.000650 1477.44409 1477.44409
1547.0 0.000646 1475.82483 1475.82483
1443.0 0.000693 1474.22253 1474.22253
1476.0 0.000678 1472.63770 1472.63770
1473.0 0.000679 1471.07007 1471.07007
1470.0 0.000680 1469.52014 1469.52002
1475.0 0.000678 1467.98767 1467.98755
1504.0 0.000665 1466.47314 1466.47314
1447.0 0.000691 1464.97656 1464.97644
1527.0 0.000655 1463.49805 1463.49792
1457.0 0.000686 1462.03772 1462.03772
1514.0 0.000661 1460.59583 1460.59570
1513.0 0.000661 1459.17236 1459.17236
1434.0 0.000697 1457.76746 1457.76746
1417.0 0.000706 1456.38123 1456.38110
1471.0 0.000680 1455.01392 1455.01379
1509.0 0.000663 1453.66528 1453.66528
1412.0 0.000708 1452.33594 1452.33582
1429.0 0.000700 1451.02539 1451.02539
1486.0 0.000673 1449.73425 1449.73413
1488.0 0.000672 1448.46216 1448.46204
1481.0 0.000675 1447.20947 1447.20935
1471.0 0.000680 1445.97620 1445.97607
1432.0 0.000698 1444.76233 1444.76221
1517.0 0.000659 1443.56799 1443.56799
1480.0 0.000676 1442.39331 1442.39319
1421.0 0.000704 1441.23816 1441.23804
1405.0 0.000712 1440.10266 1440.10254
1469.0 0.000681 1438.98694 1438.98682
1498.0 0.000668 1437.89099 1437.89087
1443.0 0.000693 1436.81470 1436.81458
1326.0 0.000754 1435.75818 1435.75806
1498.0 0.000668 1434.72168 1434.72156
1427.0 0.000701 1433.70483 1433.70471
1403.0 0.000713 1432.70789 1432.70789
1510.0 0.000662 1431.73083 1431.73071
1434.0 0.000697 1430.77356 1430.77356
1453.0 0.000688 1429.83618 1429.83606
1415.0 0.000707 1428.91858 1428.91858
1452.0 0.000689 1428.02075 1428.02075
1429.0 0.000700 1427.14282 1427.14270
1467.0 0.000682 1426.28467 1426.28455
1447.0 0.000691 1425.44604 1425.44604
1422.0 0.000703 1424.62720 1424.62720
1449.0 0.000690 1423.82825 1423.82813
1420.0 0.000704 1423.04858 1423.04858
1432.0 0.000698 1422.28882 1422.28870
1400.0 0.000714 1421.54834 1421.54822
1385.0 0.000722 1420.82739 1420.82727
1443.0 0.000693 1420.12573 1420.12561
1423.0 0.000703 1419.44348 1419.44336
1394.0 0.000717 1418.78027 1418.78027
1411.0 0.000709 1418.13635 1418.13635
1402.0 0.000713 1417.51147 1417.51135
1479.0 0.000676 1416.90576 1416.90564
1453.0 0.000688 1416.31885 1416.31873
1428.0 0.000700 1415.75061 1415.75049
1460.0 0.000685 1415.20105 1415.20105
1423.0 0.000703 1414.67029 1414.67017
1383.0 0.000723 1414.15771 1414.15771
1425.0 0.000702 1413.66382 1413.66370
1475.0 0.000678 1413.18787 1413.18787
1399.0 0.000715 1412.73022 1412.73010
1409.0 0.000710 1412.29041 1412.29041
1388.0 0.000720 1411.86853 1411.86841
1481.0 0.000675 1411.46423 1411.46411
1410.0 0.000709 1411.07776 1411.07764
1441.0 0.000694 1410.70850 1410.70850
1355.0 0.000738 1410.35657 1410.35645
1374.0 0.000728 1410.02173 1410.02161
1458.0 0.000686 1409.70386 1409.70386
1439.0 0.000695 1409.40283 1409.40271
1354.0 0.000739 1409.11841 1409.11829
1408.0 0.000710 1408.85034 1408.85034
1378.0 0.000726 1408.59875 1408.59863
1389.0 0.000720 1408.36316 1408.36304
1359.0 0.000736 1408.14343 1408.14331
1445.0 0.000692 1407.93958 1407.93945
1433.0 0.000698 1407.75122 1407.75110
1397.0 0.000716 1407.57825 1407.57813
1411.0 0.000709 1407.42041 1407.42029
1387.0 0.000721 1407.27747 1407.27734
1379.0 0.000725 1407.14941 1407.14929
1441.0 0.000694 1407.03577 1407.03564
1391.0 0.000719 1406.93665 1406.93652
1442.0 0.000693 1406.85156 1406.85144
1451.0 0.000689 1406.78040 1406.78027
1368.0 0.000731 1406.72302 1406.75317
1384.0 0.000723 1406.67908 1406.71033
1411.0 0.000709 1406.64844 1406.68079
1415.0 0.000707 1406.63074 1406.66431
1385.0 0.000722 1406.62585 1406.66077
1411.0 0.000709 1406.63354 1406.66992
1393.0 0.000718 1406.65356 1407.12964
1358.0 0.000736 1406.68579 1407.17908
1388.0 0.000720 1406.72974 1407.24158
1419.0 0.000705 1406.78552 1407.31653
1447.0 0.000691 1406.85254 1407.40405
1421.0 0.000704 1406.93054 1407.50403
1427.0 0.000701 1407.01965 1407.61597
1363.0 0.000734 1407.11926 1407.74011
1358.0 0.000736 1407.22937 1407.87622
1376.0 0.000727 1407.34949 1408.02393
1405.0 0.000712 1407.47949 1408.18347
1373.0 0.000728 1407.61902 1408.35449
1383.0 0.000723 1407.76794 1408.53699
1407.0 0.000711 1407.92603 1408.73108
1331.0 0.000751 1408.09290 1408.93652
1350.0 0.000741 1408.26831 1409.15332
1393.0 0.000718 1408.45190 1409.38147
1350.0 0.000741 1408.64355 1409.62097
1413.0 0.000708 1408.84302 1409.87231
1408.0 0.000710 1409.04980 1410.13513
1333.0 0.000750 1409.26392 1410.41003
1379.0 0.000725 1409.48486 1410.69678
1442.0 0.000693 1409.71252 1410.99634
1410.0 0.000709 1409.94653 1411.30872
1395.0 0.000717 1410.18665 1411.63464
1338.0 0.000747 1410.43262 1411.97485
1346.0 0.000743 1410.68408 1412.32983
1390.0 0.000719 1410.94080 1412.70105
1336.0 0.000749 1411.20239 1413.08960
1376.0 0.000727 1411.46875 1413.49707
1403.0 0.000713 1411.73962 1413.92554
1318.0 0.000759 1412.01440 1414.37708
1348.0 0.000742 1412.29321 1414.85486
1385.0 0.000722 1412.57556 1415.36267
1391.0 0.000719 1412.86121 1415.90479
1401.0 0.000714 1413.14990 1416.48730
1384.0 0.000723 1413.44104 1417.11731
1329.0 0.000752 1413.73486 1417.80469
1402.0 0.000713 1414.03076 1418.56287
1360.0 0.000735 1414.32849 1419.41260
1311.0 0.000763 1414.62793 1420.38977
1406.0 0.000711 1414.92847 1421.56177
1354.0 0.000739 1415.23022 1423.05957
1383.0 0.000723 1415.53271 1425.12146
1347.0 0.000742 1415.83557 1428.14001
1420.0 0.000704 1416.13855 1432.68738
1439.0 0.000695 1416.44141 1439.50061
1442.0 0.000693 1416.74402 1449.47937
1420.0 0.000704 1417.04590 1463.81238
1474.0 0.000678 1417.34680 1484.35620
1498.0 0.000668 1417.64648 1514.16711
1493.0 0.000670 1417.94470 1557.61926
1593.0 0.000628 1418.24109 1619.33154
1675.0 0.000597 1418.53540 1700.99573
1699.0 0.000589 1418.82751 1796.12207
1884.0 0.000531 1419.11694 1886.75110
1902.0 0.000526 1419.40356 1946.64673
1918.0 0.000521 1419.68701 1951.79248
1897.0 0.000527 1419.96692 1896.80164
1815.0 0.000551 1420.24341 1801.80920
1693.0 0.000591 1420.51575 1696.40112
1492.0 0.000670 1420.78394 1603.21484
1462.0 0.000684 1421.04761 1533.24084
1486.0 0.000673 1421.30664 1487.38623
1438.0 0.000695 1421.56067 1460.62549
1446.0 0.000692 1421.80945 1446.33850
1469.0 0.000681 1422.05261 1439.04736
1430.0 0.000699 1422.29004 1435.24438
1448.0 0.000691 1422.52148 1433.06653
1438.0 0.000695 1422.74670 1431.65369
1461.0 0.000684 1422.96533 1430.64160
1460.0 0.000685 1423.17725 1429.87463
1445.0 0.000692 1423.38220 1429.27881
1345.0 0.000743 1423.57983 1428.81067
1445.0 0.000692 1423.76990 1428.44104
1376.0 0.000727 1423.95239 1428.14807
1320.0 0.000758 1424.12683 1427.91589
1393.0 0.000718 1424.29309 1427.73157
1414.0 0.000707 1424.45093 1427.58508
1442.0 0.000693 1424.60010 1427.46814
1418.0 0.000705 1424.74036 1427.37488
1364.0 0.000733 1424.87158 1427.29980
1497.0 0.000668 1424.99341 1427.23865
1383.0 0.000723 1425.10571 1427.18774
1528.0 0.000654 1425.20825 1427.14417
1472.0 0.000679 1425.30066 1427.10547
1462.0 0.000684 1425.38306 1427.06934
1409.0 0.000710 1425.45508 1427.03430
1473.0 0.000679 1425.51636 1426.99829
1355.0 0.000738 1425.56689 1426.96021
1443.0 0.000693 1425.60645 1426.91895
1396.0 0.000716 1425.63477 1426.87317
1428.0 0.000700 1425.65173 1426.82214
1433.0 0.000698 1425.65710 1426.76501
1428.0 0.000700 1425.65063 1426.70093
1394.0 0.000717 1425.63220 1426.62915
1369.0 0.000730 1425.60168 1426.54932
1441.0 0.000694 1425.55884 1426.46069
1451.0 0.000689 1425.50342 1426.36292
1441.0 0.000694 1425.43542 1426.25525
1495.0 0.000669 1425.35449 1426.13733
1428.0 0.000700 1425.26062 1426.00903
1460.0 0.000685 1425.15356 1425.86975
1418.0 0.000705 1425.03320 1425.71912
1378.0 0.000726 1424.89941 1425.55688
1449.0 0.000690 1424.75183 1425.38257
1439.0 0.000695 1424.59058 1425.19641
1460.0 0.000685 1424.41528 1424.99768
1430.0 0.000699 1424.22595 1424.75610
1508.0 0.000663 1424.02246 1424.53271
1423.0 0.000703 1423.80444 1424.29590
1426.0 0.000701 1423.57214 1424.04578
1471.0 0.000680 1423.32507 1423.78186
1428.0 0.000700 1423.06335 1423.06311
1459.0 0.000685 1422.78674 1422.78650
1503.0 0.000665 1422.49512 1422.49487
1518.0 0.000659 1422.18835 1422.18823
1472.0 0.000679 1421.86646 1421.86621
1580.0 0.000633 1421.52905 1421.52893
1460.0 0.000685 1421.17639 1421.17627
1527.0 0.000655 1420.80811 1420.80798
1456.0 0.000687 1420.42432 1420.42419
1500.0 0.000667 1420.02466 1420.02454
1476.0 0.000678 1419.60938 1419.60913
1546.0 0.000647 1419.17798 1419.17773
1497.0 0.000668 1418.73059 1418.73035
1483.0 0.000674 1418.26721 1418.26709
1437.0 0.000696 1417.78772 1417.78748
1443.0 0.000693 1417.29199 1417.29175
1432.0 0.000698 1416.77991 1416.77966
1409.0 0.000710 1416.25134 1416.25122
1465.0 0.000683 1415.70667 1415.70642
1460.0 0.000685 1415.14526 1415.14502
1511.0 0.000662 1414.56738 1414.56726
1450.0 0.000690 1413.97290 1413.97278
1461.0 0.000684 1413.36182 1413.36157
1490.0 0.000671 1412.73413 1412.73389
1507.0 0.000664 1412.08948 1412.08936
1498.0 0.000668 1411.42834 1411.42810
1447.0 0.000691 1410.75024 1410.75000
1479.0 0.000676 1410.05542 1410.05518
1406.0 0.000711 1409.34351 1409.34338
1393.0 0.000718 1408.61487 1408.61475
1437.0 0.000696 1407.86938 1407.86926
1417.0 0.000706 1407.10693 1407.10669
1390.0 0.000719 1406.32764 1406.32739
1444.0 0.000693 1405.53125 1405.53101
1481.0 0.000675 1404.71790 1404.71777
1487.0 0.000672 1403.88770 1403.88757
1442.0 0.000693 1403.04053 1403.04028
1496.0 0.000668 1402.17639 1402.17627
1453.0 0.000688 1401.29529 1401.29517
1393.0 0.000718 1400.39746 1400.39722
1411.0 0.000709 1399.48242 1399.48230
1470.0 0.000680 1398.55054 1398.55042
1475.0 0.000678 1397.60193 1397.60181
1443.0 0.000693 1396.63647 1396.63635
1346.0 0.000743 1395.65405 1395.65393
1500.0 0.000667 1394.65491 1394.65479
1406.0 0.000711 1393.63892 1393.63879
1404.0 0.000712 1392.60632 1392.60620
1403.0 0.000713 1391.55701 1391.55688
1397.0 0.000716 1390.49109 1390.49097
1399.0 0.000715 1389.40845 1389.40833
1383.0 0.000723 1388.30933 1388.30920
1428.0 0.000700 1387.19385 1387.19360
1378.0 0.000726 1386.06177 1386.06165
1354.0 0.000739 1384.91345 1384.91321
1371.0 0.000729 1383.74866 1383.74841
1393.0 0.000718 1382.56775 1382.56763
1341.0 0.000746 1381.37061 1381.37048
1364.0 0.000733 1380.15735 1380.15710
1337.0 0.000748 1378.92810 1378.92786
1393.0 0.000718 1377.68298 1377.68274
1383.0 0.000723 1376.42175 1376.42163
1378.0 0.000726 1375.14478 1375.14465
1359.0 0.000736 1373.85217 1373.85205
1396.0 0.000716 1372.54407 1372.54382
1347.0 0.000742 1371.22034 1371.22021
1368.0 0.000731 1369.88110 1369.88098
1362.0 0.000734 1368.52649 1368.52637
1378.0 0.000726 1367.15686 1367.15674
1370.0 0.000730 1365.77197 1365.77173
1330.0 0.000752 1364.37195 1364.37183
1420.0 0.000704 1362.95715 1362.95703
1290.0 0.000775 1361.52747 1361.52722
1292.0 0.000774 1360.08325 1360.08301
1332.0 0.000751 1358.62415 1358.62402
1379.0 0.000725 1357.15076 1357.15063
1385.0 0.000722 1355.66296 1355.66284
1312.0 0.000762 1354.16113 1354.16101
1359.0 0.000736 1352.64502 1352.64490
1369.0 0.000730 1351.11487 1351.11475
1404.0 0.000712 1349.57092 1349.57080
1348.0 0.000742 1348.01343 1348.01331
1328.0 0.000753 1346.44226 1346.44214
1254.0 0.000797 1344.85754 1344.85742
1292.0 0.000774 1343.25952 1343.25940
1375.0 0.000727 1341.64868 1341.64844
1373.0 0.000728 1340.02441 1347.21997
1333.0 0.000750 1338.38745 1345.84119
1241.0 0.000806 1336.73767 1344.46350
1372.0 0.000729 1335.07544 1343.08875
1421.0 0.000704 1333.40063 1341.71753
1321.0 0.000757 1331.71338 1340.35168
1335.0 0.000749 1330.01416 1338.99280
1302.0 0.000768 1328.30310 1337.64246
1299.0 0.000770 1326.58020 1336.30237
1313.0 0.000762 1324.84546 1334.97449
1356.0 0.000737 1323.09924 1333.66125
1354.0 0.000739 1321.34167 1332.36487
1262.0 0.000792 1319.57312 1331.08850
1293.0 0.000773 1317.79346 1329.83447
1342.0 0.000745 1316.00293 1328.60645
1324.0 0.000755 1314.20166 1327.40796
1275.0 0.000784 1312.39014 1326.24329
1323.0 0.000756 1310.56799 1325.11670
1269.0 0.000788 1308.73584 1324.03381
1280.0 0.000781 1306.89355 1322.99988
1293.0 0.000773 1305.04163 1322.02197
1277.0 0.000783 1303.17993 1321.10730
1278.0 0.000782 1301.30872 1320.26428
1341.0 0.000746 1299.42834 1319.50293
1286.0 0.000778 1297.53894 1318.83435
1339.0 0.000747 1295.64050 1318.27112
1267.0 0.000789 1293.73328 1317.82825
1279.0 0.000782 1291.81750 1317.52307
1338.0 0.000747 1289.89343 1317.37610
1315.0 0.000760 1287.96106 1317.41064
1312.0 0.000762 1286.02087 1317.65515
1298.0 0.000770 1284.07263 1318.14282
1289.0 0.000776 1282.11694 1318.91394
1301.0 0.000769 1280.15369 1320.01624
1266.0 0.000790 1278.18311 1321.50818
1304.0 0.000767 1276.20557 1323.46118
1336.0 0.000749 1274.22107 1325.96265
1328.0 0.000753 1272.22998 1329.12207
1279.0 0.000782 1270.23230 1333.07544
1284.0 0.000779 1268.22827 1337.99658
1304.0 0.000767 1266.21826 1344.10754
1362.0 0.000734 1264.20227 1351.69727
1397.0 0.000716 1262.18054 1361.15186
1328.0 0.000753 1260.15320 1373.01379
1389.0 0.000720 1258.12048 1388.12952
1352.0 0.000740 1256.08276 1408.05444
1411.0 0.000709 1254.03992 1436.12183
1608.0 0.000622 1251.99243 1479.97424
1755.0 0.000570 1249.94019 1556.58289
1860.0 0.000538 1247.88391 1700.06909
2256.0 0.000443 1245.82312 1969.71350
2648.0 0.000378 1243.75830 2450.35205
3458.0 0.0002892 1241.68982 3233.37012
4420.0 0.0002262 1239.61768 4370.81104
5643.0 0.0001772 1237.54211 5811.24072
7229.0 0.0001383 1235.46326 7345.33203
8487.0 0.0001178 1233.38135 8603.07813
9368.0 0.0001067 1231.29688 9156.72852
8945.0 0.0001118 1229.20947 8761.24609
7751.0 0.0001290 1227.11975 7576.49707
6207.0 0.0001611 1225.02759 6037.06250
4575.0 0.0002186 1222.93347 4546.90234
3369.0 0.0002968 1220.83765 3344.84521
2616.0 0.000382 1218.73987 2504.01074
2134.0 0.000469 1216.64075 1982.13086
1798.0 0.000556 1214.54016 1687.28101
1555.0 0.000643 1212.43872 1529.45422
1446.0 0.000692 1210.33606 1444.26135
1320.0 0.000758 1208.23267 1394.33765
1306.0 0.000766 1206.12891 1361.15784
1324.0 0.000755 1204.02466 1336.48389
1297.0 0.000771 1201.92029 1316.78699
1277.0 0.000783 1199.81580 1300.44910
1246.0 0.000803 1197.71155 1286.59644
1276.0 0.000784 1195.60779 1274.67017
1182.0 0.000846 1193.50439 1264.27112
1300.0 0.000769 1191.40186 1255.10132
1268.0 0.000789 1189.30017 1246.93188
1186.0 0.000843 1187.19983 1239.58447
1213.0 0.000824 1185.10046 1232.91846
1230.0 0.000813 1183.00256 1226.82227
1188.0 0.000842 1180.90637 1221.20605
1175.0 0.000851 1178.81213 1215.99744
1206.0 0.000829 1176.71960 1211.13623
1173.0 0.000853 1174.62927 1206.57385
1148.0 0.000871 1172.54126 1202.26978
1178.0 0.000849 1170.45593 1198.19019
1104.0 0.000906 1168.37317 1194.30664
1196.0 0.000836 1166.29333 1190.59534
1184.0 0.000845 1164.21631 1187.03552
1207.0 0.000829 1162.14258 1183.61023
1158.0 0.000864 1160.07239 1180.30481
1178.0 0.000849 1158.00537 1177.10583
1186.0 0.000843 1155.94226 1174.00293
1108.0 0.000903 1153.88281 1170.98608
1119.0 0.000894 1151.82764 1168.04761
1134.0 0.000882 1149.77637 1165.17932
1090.0 0.000917 1147.72937 1162.37573
1145.0 0.000873 1145.68689 1159.63074
1154.0 0.000867 1143.64929 1156.93994
1139.0 0.000878 1141.61609 1154.29834
1092.0 0.000916 1139.58789 1151.70251
1085.0 0.000922 1137.56482 1149.14893
1135.0 0.000881 1135.54712 1146.63489
1110.0 0.000901 1133.53479 1144.15735
1129.0 0.000886 1131.52771 1141.71362
1096.0 0.000912 1129.52637 1139.30212
1090.0 0.000917 1127.53113 1136.92078
1109.0 0.000902 1125.54150 1134.56763
1087.0 0.000920 1123.55798 1132.24109
1098.0 0.000911 1121.58081 1129.94019
1123.0 0.000890 1119.60986 1127.66333
1087.0 0.000920 1117.64575 1125.40967
1087.0 0.000920 1115.68787 1123.17749
1105.0 0.000905 1113.73682 1113.73682
1133.0 0.000883 1111.79272 1111.79285
1103.0 0.000907 1109.85583 1109.85583
1082.0 0.000924 1107.92578 1107.92578
1106.0 0.000904 1106.00305 1106.00305
1134.0 0.000882 1104.08765 1104.08765
1087.0 0.000920 1102.17993 1102.17993
1017.0 0.000983 1100.27979 1100.27979
1115.0 0.000897 1098.38721 1098.38721
1085.0 0.000922 1096.50244 1096.50256
1104.0 0.000906 1094.62598 1094.62598
1064.0 0.000940 1092.75732 1092.75732
1074.0 0.000931 1090.89685 1090.89685
1145.0 0.000873 1089.04468 1089.04468
972.0 0.001029 1087.20105 1087.20105
1096.0 0.000912 1085.36572 1085.36572
1107.0 0.000903 1083.53894 1083.53894
1043.0 0.000959 1081.72083 1081.72083
1145.0 0.000873 1079.91174 1079.91187
1092.0 0.000916 1078.11145 1078.11157
1113.0 0.000898 1076.32007 1076.32007
1100.0 0.000909 1074.53772 1074.53772
1084.0 0.000923 1072.76453 1072.76453
1067.0 0.000937 1071.00073 1071.00073
1039.0 0.000962 1069.24622 1069.24622
1002.0 0.000998 1067.50098 1067.50098
984.0 0.001016 1065.76526 1065.76526
1078.0 0.000928 1064.03931 1064.03931
1016.0 0.000984 1062.32275 1062.32275
1063.0 0.000941 1060.61597 1060.61609
1052.0 0.000951 1058.91907 1058.91907
1079.0 0.000927 1057.23206 1057.23206
1032.0 0.000969 1055.55481 1055.55493
1079.0 0.000927 1053.88757 1053.88770
1038.0 0.000963 1052.23059 1052.23059
1083.0 0.000923 1050.58362 1050.58374
1023.0 0.000978 1048.94690 1048.94702
1055.0 0.000948 1047.32031 1047.32043
1063.0 0.000941 1045.70410 1045.70410
1084.0 0.000923 1044.09827 1044.09839
1106.0 0.000904 1042.50281 1042.50281
1107.0 0.000903 1040.91785 1040.91785
1026.0 0.000975 1039.34326 1039.34338
1057.0 0.000946 1037.77954 1037.77954
1053.0 0.000950 1036.22607 1036.22620
1090.0 0.000917 1034.68335 1034.68347
1066.0 0.000938 1033.15149 1033.15149
1050.0 0.000952 1031.63013 1031.63013
1034.0 0.000967 1030.11975 1030.48743
1038.0 0.000963 1028.62000 1028.99854
1008.0 0.000992 1027.13098 1027.52100
1077.0 0.000929 1025.65308 1026.05481
1032.0 0.000969 1024.18591 1024.61731
1014.0 0.000986 1022.72974 1023.17474
1015.0 0.000985 1021.28442 1021.74359
1004.0 0.000996 1019.85004 1020.32404
1015.0 0.000985 1018.42676 1018.91638
1039.0 0.000962 1017.01440 1017.52039
1084.0 0.000923 1015.61310 1016.13635
1028.0 0.000973 1014.22278 1014.76416
1028.0 0.000973 1012.84363 1013.40399
978.0 0.001022 1011.47540 1012.05585
1056.0 0.000947 1010.11829 1010.71997
1033.0 0.000968 1008.77228 1009.39630
1038.0 0.000963 1007.43738 1008.08502
1024.0 0.000977 1006.11353 1006.78619
1013.0 0.000987 1004.80066 1005.49982
1019.0 0.000981 1003.49896 1004.22614
1005.0 0.000995 1002.20844 1002.96545
992.0 0.001008 1000.92889 1001.71753
1061.0 0.000943 999.66046 1000.48273
974.0 0.001027 998.40308 999.26123
1028.0 0.000973 997.15668 998.05316
979.0 0.001021 995.92157 996.85889
1040.0 0.000962 994.69727 995.67834
1039.0 0.000962 993.48413 994.51208
1034.0 0.000967 992.28186 993.36017
997.0 0.001003 991.09076 992.22314
982.0 0.001018 989.91052 991.10114
1008.0 0.000992 988.74115 989.99463
1015.0 0.000985 987.58289 988.90430
1002.0 0.000998 986.43542 987.83051
1011.0 0.000989 985.29889 986.77393
965.0 0.001036 984.17316 985.73517
998.0 0.001002 983.05823 984.71509
1021.0 0.000979 981.95416 983.71484
1057.0 0.000946 980.86078 982.73529
970.0 0.001031 979.77820 981.77789
1033.0 0.000968 978.70624 980.84399
986.0 0.001014 977.64502 979.93567
999.0 0.001001 976.59430 979.05469
1006.0 0.000994 975.55414 978.20380
959.0 0.001043 974.52460 977.38617
965.0 0.001036 973.50562 976.60535
955.0 0.001047 972.49689 975.86566
972.0 0.001029 971.49860 975.17261
940.0 0.001064 970.51068 974.53320
960.0 0.001042 969.53314 973.95575
979.0 0.001021 968.56586 973.45068
940.0 0.001064 967.60864 973.03137
994.0 0.001006 966.66162 972.71503
1013.0 0.000987 965.72467 972.52405
936.0 0.001068 964.79785 972.48846
961.0 0.001041 963.88092 972.65021
985.0 0.001015 962.97400 973.07501
1012.0 0.000988 962.07684 973.88300
1002.0 0.000998 961.18958 975.32922
1032.0 0.000969 960.31195 977.98907
965.0 0.001036 959.44403 983.11780
971.0 0.001030 958.58575 993.18774
1048.0 0.000954 957.73712 1012.39508
1126.0 0.000888 956.89783 1046.57227
1121.0 0.000892 956.06793 1101.73535
1166.0 0.000858 955.24738 1180.88318
1259.0 0.000794 954.43622 1279.78308
1349.0 0.000741 953.63422 1383.53430
1483.0 0.000674 952.84131 1466.39038
1459.0 0.000685 952.05743 1499.29504
1458.0 0.000686 951.28265 1468.23596
1354.0 0.000739 950.51666 1387.56970
1234.0 0.000810 949.75958 1286.60437
1167.0 0.000857 949.01117 1189.68591
1091.0 0.000917 948.27148 1110.15686
1060.0 0.000943 947.54047 1052.08081
982.0 0.001018 946.81787 1013.42432
976.0 0.001025 946.10370 989.29907
958.0 0.001044 945.39801 974.68121
967.0 0.001034 944.70056 965.78290
992.0 0.001008 944.01129 960.11908
937.0 0.001067 943.33008 956.27820
934.0 0.001071 942.65686 953.46301
940.0 0.001064 941.99170 951.24219
923.0 0.001083 941.33441 949.38672
922.0 0.001085 940.68481 947.77484
950.0 0.001053 940.04291 946.33917
991.0 0.001009 939.40863 945.03906
949.0 0.001054 938.78180 943.84717
914.0 0.001094 938.16248 942.74396
942.0 0.001062 937.55042 941.71454
938.0 0.001066 936.94562 940.74731
982.0 0.001018 936.34790 939.83282
886.0 0.001129 935.75726 938.96393
944.0 0.001059 935.17358 938.13446
955.0 0.001047 934.59686 937.33972
960.0 0.001042 934.02692 936.57544
942.0 0.001062 933.46356 935.83820
940.0 0.001064 932.90680 935.12537
913.0 0.001095 932.35657 934.43445
933.0 0.001072 931.81281 933.76361
955.0 0.001047 931.27533 933.11096
947.0 0.001056 930.74396 932.47498
898.0 0.001114 930.21881 931.85443
953.0 0.001049 929.69965 931.24835
932.0 0.001073 929.18640 930.65546
949.0 0.001054 928.67908 930.07538
912.0 0.001096 928.17737 929.50677
908.0 0.001101 927.68140 928.94946
936.0 0.001068 927.19086 928.40253
944.0 0.001059 926.70581 927.86554
890.0 0.001124 926.22614 927.33820
911.0 0.001098 925.75165 926.81982
916.0 0.001092 925.28241 926.31024
992.0 0.001008 924.81812 925.80896
894.0 0.001119 924.35883 925.31580
904.0 0.001106 923.90442 924.83044
919.0 0.001088 923.45477 924.35248
950.0 0.001053 923.00977 923.88202
901.0 0.001110 922.56934 923.41870
871.0 0.001148 922.13336 922.96234
896.0 0.001116 921.70178 922.51300
900.0 0.001111 921.27441 922.07031
852.0 0.001174 920.85132 921.63458
878.0 0.001139 920.43219 921.20544
902.0 0.001109 920.01715 920.78333
894.0 0.001119 919.60590 920.36804
952.0 0.001050 919.19843 919.95990
886.0 0.001129 918.79474 919.55927
940.0 0.001064 918.39453 919.16638
949.0 0.001054 917.99792 918.78204
921.0 0.001086 917.60461 918.40680
879.0 0.001138 917.21466 918.04163
854.0 0.001171 916.82794 917.68835
939.0 0.001065 916.44421 917.34888
945.0 0.001058 916.06366 917.02655
837.0 0.001195 915.68591 916.72742
906.0 0.001104 915.31104 916.46478
828.0 0.001208 914.93884 915.90125
913.0 0.001095 914.56934 915.84479
944.0 0.001059 914.20239 916.04498
897.0 0.001115 913.83777 916.71820
909.0 0.001100 913.47565 918.15021
919.0 0.001088 913.11572 920.69214
930.0 0.001075 912.75793 924.49084
923.0 0.001083 912.40228 929.33929
915.0 0.001093 912.04858 934.47180
954.0 0.001048 911.69684 938.53314
885.0 0.001130 911.34680 939.94635
949.0 0.001054 910.99854 937.90326
905.0 0.001105 910.65192 933.14563
916.0 0.001092 910.30676 927.28705
937.0 0.001067 909.96313 921.71149
947.0 0.001056 909.62085 917.19183
983.0 0.001017 909.27985 913.93866
996.0 0.001004 908.93994 911.78577
1045.0 0.000957 908.60120 910.41278
1070.0 0.000935 908.26355 911.22583
1164.0 0.000859 907.92670 910.62921
1197.0 0.000835 907.59076 910.16107
1241.0 0.000806 907.25555 909.75745
1181.0 0.000847 906.92102 909.38940
1071.0 0.000934 906.58716 909.04425
1036.0 0.000965 906.25372 908.71570
966.0 0.001035 905.92078 908.40076
945.0 0.001058 905.58813 908.09705
915.0 0.001093 905.25580 907.80322
922.0 0.001085 904.92365 907.51819
902.0 0.001109 904.59161 907.24133
850.0 0.001176 904.25964 906.97198
862.0 0.001160 903.92767 906.70984
860.0 0.001163 903.59552 906.45459
900.0 0.001111 903.26312 906.20624
890.0 0.001124 902.93054 905.96484
865.0 0.001156 902.59760 905.73041
873.0 0.001145 902.26434 905.50336
824.0 0.001214 901.93048 905.28357
836.0 0.001196 901.59607 905.07166
909.0 0.001100 901.26105 904.86792
849.0 0.001178 900.92542 904.67303
857.0 0.001167 900.58893 904.48743
877.0 0.001140 900.25165 904.31195
856.0 0.001168 899.91345 904.14716
898.0 0.001114 899.57434 903.99426
835.0 0.001198 899.23419 903.85419
901.0 0.001110 898.89288 903.72797
875.0 0.001143 898.55054 903.61719
874.0 0.001144 898.20697 903.52332
866.0 0.001155 897.86200 903.44788
870.0 0.001149 897.51569 903.39313
883.0 0.001133 897.16803 903.36133
873.0 0.001145 896.81891 903.35504
863.0 0.001159 896.46838 903.37738
833.0 0.001200 896.11615 903.43158
859.0 0.001164 895.76227 903.52179
840.0 0.001190 895.40680 903.65271
874.0 0.001144 895.04944 903.82971
867.0 0.001153 894.69043 904.05908
894.0 0.001119 894.32953 904.34821
878.0 0.001139 893.96667 904.70593
866.0 0.001155 893.60199 905.14276
906.0 0.001104 893.23517 905.67084
892.0 0.001121 892.86633 906.30518
869.0 0.001151 892.49548 907.06390
895.0 0.001117 892.12250 907.96875
864.0 0.001157 891.74725 909.04645
898.0 0.001114 891.36975 910.33008
832.0 0.001202 890.98999 911.86102
876.0 0.001142 890.60797 913.69110
857.0 0.001167 890.22357 915.88635
921.0 0.001086 889.83673 918.53149
853.0 0.001172 889.44745 921.73767
878.0 0.001139 889.05579 925.65448
859.0 0.001164 888.66150 930.49512
893.0 0.001120 888.26471 936.60156
962.0 0.001040 887.86523 944.61444
942.0 0.001062 887.46326 955.90527
946.0 0.001057 887.05853 973.50781
1018.0 0.000982 886.65112 1003.93549
1099.0 0.000910 886.24103 1059.43127
1228.0 0.000814 885.82819 1159.83142
1329.0 0.000752 885.41254 1331.01941
1587.0 0.000630 884.99402 1596.95862
1955.0 0.000512 884.57269 1964.63977
2379.0 0.000420 884.14850 2406.20459
2770.0 0.000361 883.72144 2845.77686
3093.0 0.0003233 883.29150 3161.96216
3291.0 0.0003039 882.85852 3231.30737
2974.0 0.0003362 882.42255 3019.65503
2560.0 0.000391 881.98370 2618.58008
2079.0 0.000481 881.54175 2162.57520
1634.0 0.000612 881.09686 1751.92822
1342.0 0.000745 880.64880 1436.02490
1276.0 0.000784 880.19781 1222.01025
1079.0 0.000927 879.74359 1091.42847
1030.0 0.000971 879.28632 1017.52930
930.0 0.001075 878.82593 976.91736
1024.0 0.000977 878.36243 953.81982
969.0 0.001032 877.89581 939.38776
911.0 0.001098 877.42596 929.28662
994.0 0.001006 876.95294 921.56006
1106.0 0.000904 876.47681 915.32635
1081.0 0.000925 875.99738 910.14594
1135.0 0.000881 875.51489 905.76172
1161.0 0.000861 875.02911 902.00000
1179.0 0.000848 874.54016 898.73462
1110.0 0.000901 874.04797 895.86951
998.0 0.001002 873.55249 893.33099
975.0 0.001026 873.05389 891.06104
963.0 0.001038 872.55200 889.01392
940.0 0.001064 872.04694 887.15295
936.0 0.001068 871.53851 885.44861
877.0 0.001140 871.02692 883.87683
862.0 0.001160 870.51215 882.41797
882.0 0.001134 869.99408 881.05566
880.0 0.001136 869.47284 879.77655
872.0 0.001147 868.94830 878.56903
851.0 0.001175 868.42053 877.42383
822.0 0.001217 867.88965 876.33276
850.0 0.001176 867.35547 875.28900
930.0 0.001075 866.81812 874.28668
902.0 0.001109 866.27753 873.32074
895.0 0.001117 865.73383 872.38690
939.0 0.001065 865.18683 871.48126
937.0 0.001067 864.63666 870.60052
899.0 0.001112 864.08344 869.74207
956.0 0.001046 863.52704 868.90320
992.0 0.001008 862.96753 868.08185
943.0 0.001060 862.40479 867.27588
919.0 0.001088 861.83893 866.48376
953.0 0.001049 861.27008 865.70398
882.0 0.001134 860.69806 864.93506
856.0 0.001168 860.12311 864.17603
849.0 0.001178 859.54498 863.42554
833.0 0.001200 858.96387 862.68274
875.0 0.001143 858.37976 861.94696
887.0 0.001127 857.79266 861.21710
801.0 0.001248 857.20258 860.49280
824.0 0.001214 856.60950 859.77319
805.0 0.001242 856.01361 859.05786
824.0 0.001214 855.41467 858.34619
778.0 0.001285 854.81293 857.63776
857.0 0.001167 854.20831 856.93231
836.0 0.001196 853.60083 856.22919
830.0 0.001205 852.99060 855.52832
827.0 0.001209 852.37750 854.82916
793.0 0.001261 851.76166 854.13147
844.0 0.001185 851.14313 853.43530
778.0 0.001285 850.52185 852.73999
873.0 0.001145 849.89795 852.04559
854.0 0.001171 849.27130 851.35187
838.0 0.001193 848.64215 850.65863
832.0 0.001202 848.01031 849.96564
849.0 0.001178 847.37585 849.27277
834.0 0.001199 846.73901 871.44464
829.0 0.001206 846.09967 871.42700
802.0 0.001247 845.45776 869.70306
894.0 0.001119 844.81342 869.79633
857.0 0.001167 844.16669 869.92133
887.0 0.001127 843.51764 870.08038
853.0 0.001172 842.86627 870.27563
842.0 0.001188 842.21252 870.50964
821.0 0.001218 841.55652 870.78516
792.0 0.001263 840.89825 871.10522
901.0 0.001110 840.23792 871.47296
905.0 0.001105 839.57532 871.89191
857.0 0.001167 838.91064 872.36584
937.0 0.001067 838.24384 872.89874
955.0 0.001047 837.57507 873.49536
988.0 0.001012 836.90424 874.16040
967.0 0.001034 836.23145 874.89923
1033.0 0.000968 835.55670 875.71796
1008.0 0.000992 834.88019 876.62286
1030.0 0.000971 834.20172 877.62091
1074.0 0.000931 833.52136 878.72009
1006.0 0.000994 832.83929 879.92902
989.0 0.001011 832.15558 881.25726
907.0 0.001103 831.47015 882.71527
942.0 0.001062 830.78302 884.31482
829.0 0.001206 830.09430 886.06897
852.0 0.001174 829.40411 887.99231
847.0 0.001181 828.71228 890.10120
859.0 0.001164 828.01904 892.41382
830.0 0.001205 827.32428 894.95062
828.0 0.001208 826.62817 897.73499
834.0 0.001199 825.93085 900.79309
845.0 0.001183 825.23206 904.15448
872.0 0.001147 824.53204 907.85303
859.0 0.001164 823.83087 911.92743
888.0 0.001126 823.12854 916.42200
810.0 0.001235 822.42499 921.38727
889.0 0.001125 821.72040 926.88226
866.0 0.001155 821.01471 932.97510
864.0 0.001157 820.30817 939.74518
835.0 0.001198 819.60065 947.28540
919.0 0.001088 818.89215 955.70483
900.0 0.001111 818.18280 965.13281
853.0 0.001172 817.47278 975.72314
886.0 0.001129 816.76184 987.65924
938.0 0.001066 816.05035 1001.16266
924.0 0.001082 815.33801 1016.50153
978.0 0.001022 814.62524 1034.00354
995.0 0.001005 813.91174 1054.07202
1027.0 0.000974 813.19775 1077.20764
1023.0 0.000978 812.48334 1104.03845
1085.0 0.000922 811.76843 1135.35876
1152.0 0.000868 811.05316 1172.18652
1177.0 0.000850 810.33746 1215.84375
1173.0 0.000853 809.62152 1268.08911
1245.0 0.000803 808.90533 1331.37146
1279.0 0.000782 808.18903 1409.42834
1464.0 0.000683 807.47253 1508.85205
1596.0 0.000627 806.75586 1643.09473
1872.0 0.000534 806.03918 1841.63660
2207.0 0.000453 805.32251 2167.64404
2846.0 0.000351 804.60583 2744.48218
3876.0 0.0002580 803.88928 3781.18481
5462.0 0.0001831 803.17279 5570.07520
8031.0 0.0001245 802.45654 8419.00098
12097.0 0.0000827 801.74042 12498.14258
17335.0 0.0000577 801.02460 17632.51758
23211.0 0.0000431 800.30914 23115.46289
28274.0 0.0000354 799.59399 27638.64648
31125.0 0.0000321 798.87933 29592.21680
29543.0 0.0000338 798.16498 28075.00781
24447.0 0.0000409 797.45117 23776.58203
17905.0 0.0000559 796.73804 18310.76758
12862.0 0.0000777 796.02533 13068.23047
8956.0 0.0001117 795.31335 8831.50391
6260.0 0.0001597 794.60205 5832.12598
4197.0 0.0002383 793.89148 3929.44409
3027.0 0.0003304 793.18164 2820.17432
2483.0 0.000403 792.47260 2202.60229
1917.0 0.000522 791.76447 1855.38269
1674.0 0.000597 791.05713 1645.74207
1517.0 0.000659 790.35095 1505.06348
1409.0 0.000710 789.64557 1401.25867
1299.0 0.000770 788.94128 1319.78101
1217.0 0.000822 788.23810 1253.60132
1176.0 0.000850 787.53607 1198.79492
1113.0 0.000898 786.83521 1152.81665
1043.0 0.000959 786.13550 1113.84778
1051.0 0.000951 785.43701 1080.52454
973.0 0.001028 784.73993 1051.79883
994.0 0.001006 784.04413 1026.85352
966.0 0.001035 783.34973 1005.04382
905.0 0.001105 782.65668 985.85577
897.0 0.001115 781.96521 968.87622
974.0 0.001027 781.27515 953.76935
898.0 0.001114 780.58667 940.26086
910.0 0.001099 779.89978 928.12476
836.0 0.001196 779.21448 917.17310
866.0 0.001155 778.53094 907.24933
898.0 0.001114 777.84900 898.22162
804.0 0.001244 777.16876 889.97864
818.0 0.001222 776.49048 882.42596
819.0 0.001221 775.81390 875.48260
836.0 0.001196 775.13922 869.07947
801.0 0.001248 774.46637 863.15668
823.0 0.001215 773.79547 857.66266
778.0 0.001285 773.12665 852.55267
829.0 0.001206 772.45972 847.78735
795.0 0.001258 771.79498 843.33258
801.0 0.001248 771.13220 839.15820
802.0 0.001247 770.47156 835.23773
776.0 0.001289 769.81305 831.54761
799.0 0.001252 769.15668 828.06738
801.0 0.001248 768.50262 824.77838
826.0 0.001211 767.85077 821.66412
762.0 0.001312 767.20117 818.71008
770.0 0.001299 766.55408 815.90320
796.0 0.001256 765.90918 813.23126
796.0 0.001256 765.26666 810.68390
850.0 0.001176 764.62653 808.25159
841.0 0.001189 763.98895 805.92560
748.0 0.001337 763.35376 803.69812
783.0 0.001277 762.72107 801.56195
796.0 0.001256 762.09100 799.51080
767.0 0.001304 761.46356 797.53870
781.0 0.001280 760.83856 795.64026
719.0 0.001391 760.21631 793.81073
792.0 0.001263 759.59662 792.04541
801.0 0.001248 758.97968 790.34033
807.0 0.001239 758.36536 789.43939
828.0 0.001208 757.75385 787.86572
755.0 0.001325 757.14508 786.34283
741.0 0.001350 756.53906 784.86798
723.0 0.001383 755.93610 783.43848
757.0 0.001321 755.33569 782.05170
762.0 0.001312 754.73822 780.70563
779.0 0.001284 754.14368 779.39825
764.0 0.001309 753.55200 778.12744
779.0 0.001284 752.96320 753.94843
815.0 0.001227 752.37738 753.39575
809.0 0.001236 751.79468 752.84790
855.0 0.001170 751.21490 752.30487
804.0 0.001244 750.63812 751.76678
836.0 0.001196 750.06445 751.23376
965.0 0.001036 749.49371 750.70612
952.0 0.001050 748.92609 750.18384
1069.0 0.000935 748.36157 749.66730
1090.0 0.000917 747.80023 749.15680
1091.0 0.000917 747.24194 748.65228
1032.0 0.000969 746.68689 748.15442
957.0 0.001045 746.13501 747.66315
908.0 0.001101 745.58624 747.17877
818.0 0.001222 745.04071 746.70178
783.0 0.001277 744.49841 746.23260
743.0 0.001346 743.95929 745.77155
762.0 0.001312 743.42340 745.31909
789.0 0.001267 742.89081 744.87579
783.0 0.001277 742.36151 744.44226
712.0 0.001404 741.83557 744.01917
748.0 0.001337 741.31281 743.60699
717.0 0.001395 740.79340 743.20685
789.0 0.001267 740.27728 742.81946
777.0 0.001287 739.76447 742.44592
691.0 0.001447 739.25500 742.08752
741.0 0.001350 738.74896 741.74561
784.0 0.001276 738.24622 741.42157
765.0 0.001307 737.74689 741.11749
763.0 0.001311 737.25092 740.83521
712.0 0.001404 736.75830 740.57709
705.0 0.001418 736.26910 740.34613
761.0 0.001314 735.78333 740.14557
708.0 0.001412 735.30090 739.97919
713.0 0.001403 734.82184 739.85168
719.0 0.001391 734.34625 739.76843
764.0 0.001309 733.87421 739.73627
756.0 0.001323 733.40546 739.76270
673.0 0.001486 732.94006 739.85748
674.0 0.001484 732.47821 740.03265
754.0 0.001326 732.01978 740.30237
723.0 0.001383 731.56470 740.68500
752.0 0.001330 731.11310 741.20337
717.0 0.001395 730.66498 741.88623
700.0 0.001429 730.22021 742.77106
713.0 0.001403 729.77899 743.90662
737.0 0.001357 729.34113 745.35864
736.0 0.001359 728.90668 747.22144
747.0 0.001339 728.47571 749.64612
713.0 0.001403 728.04816 752.91388
748.0 0.001337 727.62402 757.61426
775.0 0.001290 727.20331 765.02289
747.0 0.001339 726.78601 777.75848
848.0 0.001179 726.37219 800.62646
864.0 0.001157 725.96173 841.14923
892.0 0.001121 725.55469 908.80017
1015.0 0.000985 725.15100 1011.91669
1192.0 0.000839 724.75079 1152.25488
1294.0 0.000773 724.35394 1318.71777
1517.0 0.000659 723.96045 1482.47058
1652.0 0.000605 723.57037 1597.18115
1665.0 0.000601 723.18365 1616.25757
1526.0 0.000655 722.80029 1529.98474
1287.0 0.000777 722.42029 1376.19958
1165.0 0.000858 722.04358 1205.27307
1121.0 0.000892 721.67023 1052.81104
911.0 0.001098 721.30023 935.62134
881.0 0.001135 720.93353 855.68951
811.0 0.001233 720.57007 806.20581
789.0 0.001267 720.21002 777.55164
749.0 0.001335 719.85321 761.30457
754.0 0.001326 719.49963 751.72675
777.0 0.001287 719.14935 745.54358
808.0 0.001238 718.80231 741.11340
786.0 0.001272 718.45844 737.67310
810.0 0.001235 718.11786 734.86743
816.0 0.001225 717.78040 732.51410
858.0 0.001166 717.44617 730.50488
841.0 0.001189 717.11511 728.76611
851.0 0.001175 716.78723 727.24414
850.0 0.001176 716.46246 725.89807
782.0 0.001279 716.14081 724.69641
788.0 0.001269 715.82227 723.61450
778.0 0.001285 715.50684 722.63275
702.0 0.001425 715.19446 721.73541
718.0 0.001393 714.88513 720.90985
757.0 0.001321 714.57892 720.14581
713.0 0.001403 714.27570 719.43481
734.0 0.001362 713.97540 718.76971
777.0 0.001287 713.67816 718.14484
747.0 0.001339 713.38385 717.55524
729.0 0.001372 713.09253 716.99683
787.0 0.001271 712.80414 716.46613
697.0 0.001435 712.51855 715.96002
733.0 0.001364 712.23596 715.47620
699.0 0.001431 711.95624 715.01227
732.0 0.001366 711.67926 714.56641
777.0 0.001287 711.40515 714.13690
694.0 0.001441 711.13385 713.72241
743.0 0.001346 710.86530 713.32166
745.0 0.001342 710.59949 712.93347
676.0 0.001479 710.33643 712.55695
672.0 0.001488 710.07605 712.19116
674.0 0.001484 709.81848 711.83539
674.0 0.001484 709.56348 713.86536
678.0 0.001475 709.31110 713.59784
655.0 0.001527 709.06134 713.34161
707.0 0.001414 708.81421 713.09650
706.0 0.001416 708.56964 712.86212
713.0 0.001403 708.32758 712.63831
721.0 0.001387 708.08801 712.42499
725.0 0.001379 707.85101 712.22205
699.0 0.001431 707.61646 712.02954
688.0 0.001453 707.38428 711.84735
681.0 0.001468 707.15460 711.67566
700.0 0.001429 706.92725 711.51471
676.0 0.001479 706.70227 717.08740
690.0 0.001449 706.47961 717.11700
700.0 0.001429 706.25928 717.16553
669.0 0.001495 706.04126 717.23364
735.0 0.001361 705.82544 717.32227
709.0 0.001410 705.61188 717.43262
632.0 0.001582 705.40051 717.56543
729.0 0.001372 705.19128 717.72223
701.0 0.001427 704.98419 717.90417
679.0 0.001473 704.77924 718.11298
699.0 0.001431 704.57642 718.35010
701.0 0.001427 704.37561 718.61761
721.0 0.001387 704.17682 718.91742
666.0 0.001502 703.98010 719.25189
666.0 0.001502 703.78528 718.86853
745.0 0.001342 703.59241 719.30139
681.0 0.001468 703.40143 719.77643
693.0 0.001443 703.21246 720.29742
704.0 0.001420 703.02521 720.86823
727.0 0.001376 702.83990 721.49335
700.0 0.001429 702.65631 722.17767
713.0 0.001403 702.47455 722.92694
738.0 0.001355 702.29443 723.74750
660.0 0.001515 702.11615 724.64667
707.0 0.001414 701.93945 725.63239
747.0 0.001339 701.76440 726.71423
695.0 0.001439 701.59100 727.90289
737.0 0.001357 701.41919 729.21063
705.0 0.001418 701.24896 730.65167
715.0 0.001399 701.08026 732.24255
713.0 0.001403 700.91309 734.00256
715.0 0.001399 700.74725 735.95422
744.0 0.001344 700.58295 738.12408
716.0 0.001397 700.42004 740.54370
714.0 0.001401 700.25854 743.25079
726.0 0.001377 700.09839 746.29059
721.0 0.001387 699.93951 749.71802
760.0 0.001316 699.78198 753.60016
768.0 0.001302 699.62567 758.01965
755.0 0.001325 699.47058 763.07953
737.0 0.001357 699.31671 768.90961
760.0 0.001316 699.16400 775.67578
723.0 0.001383 699.01245 783.59521
745.0 0.001342 698.86194 792.96515
739.0 0.001353 698.71259 804.22906
788.0 0.001269 698.56421 818.14563
815.0 0.001227 698.41693 836.20020
880.0 0.001136 698.27057 861.50812
867.0 0.001153 698.12518 900.46967
978.0 0.001022 697.98071 965.10535
1109.0 0.000902 697.83716 1075.03833
1256.0 0.000796 697.69446 1256.69116
1555.0 0.000643 697.55261 1536.63525
2000.0 0.000500 697.41156 1927.90369
2344.0 0.000427 697.27130 2412.27954
2935.0 0.0003407 697.13177 2925.30908
3315.0 0.0003017 696.99298 3344.73926
3510.0 0.0002849 696.85486 3525.80493
3448.0 0.0002900 696.71735 3397.51245
3000.0 0.0003333 696.58051 3041.51196
2544.0 0.000393 696.44427 2620.86597
2338.0 0.000428 696.30859 2283.10278
2184.0 0.000458 696.17352 2137.85034
2307.0 0.000433 696.03894 2264.41162
2875.0 0.0003478 695.90479 2713.91235
3641.0 0.0002746 695.77112 3495.94971
4656.0 0.0002148 695.63788 4550.23291
5495.0 0.0001820 695.50507 5713.36865
6648.0 0.0001504 695.37256 6697.52637
7113.0 0.0001406 695.24048 7140.72266
6705.0 0.0001491 695.10864 6827.26855
5601.0 0.0001785 694.97711 5897.96924
4319.0 0.0002315 694.84589 4705.13672
3257.0 0.0003070 694.71484 3552.07129
2412.0 0.000415 694.58398 2609.31812
1861.0 0.000537 694.45337 1930.50439
1434.0 0.000697 694.32288 1490.15125
1223.0 0.000818 694.19244 1226.29126
1030.0 0.000971 694.06219 1074.77856
977.0 0.001024 693.93201 986.95160
931.0 0.001074 693.80182 932.62000
854.0 0.001171 693.67169 895.62268
791.0 0.001264 693.54150 868.12640
881.0 0.001135 693.41132 846.46332
855.0 0.001170 693.28107 828.82184
820.0 0.001220 693.15076 814.18237
814.0 0.001229 693.02032 801.88458
803.0 0.001245 692.88977 791.45697
805.0 0.001242 692.75903 782.54639
788.0 0.001269 692.62811 774.88098
810.0 0.001235 692.49695 768.24866
770.0 0.001299 692.36560 762.48260
767.0 0.001304 692.23395 757.44989
802.0 0.001247 692.10205 753.04425
724.0 0.001381 691.96985 749.18036
711.0 0.001406 691.83734 745.78955
703.0 0.001422 691.70447 742.81610
717.0 0.001395 691.57123 740.21582
702.0 0.001425 691.43756 737.95355
734.0 0.001362 691.30353 736.00232
745.0 0.001342 691.16901 734.34198
684.0 0.001462 691.03406 732.95941
712.0 0.001404 690.89856 731.84747
714.0 0.001401 690.76263 731.23071
718.0 0.001393 690.62616 730.67267
728.0 0.001374 690.48914 730.40643
762.0 0.001312 690.35150 730.45581
709.0 0.001410 690.21332 730.85669
762.0 0.001312 690.07452 731.65942
767.0 0.001304 689.93512 732.93549
730.0 0.001370 689.79510 734.78729
720.0 0.001389 689.65436 737.37292
685.0 0.001460 689.51294 740.96735
707.0 0.001414 689.37085 746.11505
748.0 0.001337 689.22797 754.93494
788.0 0.001269 689.08435 767.94885
733.0 0.001364 688.94006 790.75177
862.0 0.001160 688.79492 831.20001
912.0 0.001096 688.64905 900.35303
1016.0 0.000984 688.50232 1010.19324
1181.0 0.000847 688.35480 1168.26807
1449.0 0.000690 688.20642 1370.13855
1703.0 0.000587 688.05719 1591.90259
1843.0 0.000543 687.90704 1785.30896
2032.0 0.000492 687.75604 1884.51709
1893.0 0.000528 687.60413 1844.01135
1743.0 0.000574 687.45129 1680.35803
1462.0 0.000684 687.29749 1462.35901
1247.0 0.000802 687.14282 1246.23669
1046.0 0.000956 686.98712 1066.31726
944.0 0.001059 686.83044 934.72449
832.0 0.001202 686.67279 848.16229
801.0 0.001248 686.51416 795.71674
802.0 0.001247 686.35449 765.42029
796.0 0.001256 686.19373 747.88226
750.0 0.001333 686.03198 737.12451
752.0 0.001330 685.86920 729.88000
735.0 0.001361 685.70532 724.54364
699.0 0.001431 685.54041 714.60400
748.0 0.001337 685.37433 711.37030
718.0 0.001393 685.20721 708.71332
724.0 0.001381 685.03894 706.50513
746.0 0.001340 684.86957 704.65649
737.0 0.001357 684.69904 703.10114
746.0 0.001340 684.52740 701.78937
728.0 0.001374 684.35461 700.68292
736.0 0.001359 684.18066 699.75256
662.0 0.001511 684.00549 698.97614
720.0 0.001389 683.82922 698.33679
750.0 0.001333 683.65173 697.82220
708.0 0.001412 683.47308 697.42419
706.0 0.001416 683.29315 697.13745
728.0 0.001374 683.11206 696.96027
725.0 0.001379 682.92975 696.89392
719.0 0.001391 682.74628 696.94299
676.0 0.001479 682.56152 697.11572
744.0 0.001344 682.37549 697.42480
676.0 0.001479 682.18835 697.88837
740.0 0.001351 681.99982 698.53259
737.0 0.001357 681.81012 699.39667
717.0 0.001395 681.61914 700.54559
782.0 0.001279 681.42688 702.10126
715.0 0.001399 681.23346 704.31195
694.0 0.001441 681.03870 707.68280
721.0 0.001387 680.84265 713.17065
714.0 0.001401 680.64539 722.37469
728.0 0.001374 680.44672 737.53644
765.0 0.001307 680.24689 761.09033
817.0 0.001224 680.04572 794.60773
902.0 0.001109 679.84332 837.31018
902.0 0.001109 679.63959 884.59149
954.0 0.001048 679.43463 927.03326
944.0 0.001059 679.22833 951.74921
928.0 0.001078 679.02069 950.15613
947.0 0.001056 678.81183 927.40741
899.0 0.001112 678.60162 899.31763
855.0 0.001170 678.39020 883.05878
905.0 0.001105 678.17749 893.81702
970.0 0.001031 677.96338 944.38000
1065.0 0.000939 677.74811 1043.22925
1190.0 0.000840 677.53149 1190.38452
1424.0 0.000702 677.31354 1372.04382
1501.0 0.000666 677.09436 1555.56201
1684.0 0.000594 676.87390 1688.31445
1780.0 0.000562 676.65210 1715.12854
1580.0 0.000633 676.42908 1621.55664
1433.0 0.000698 676.20471 1449.07983
1189.0 0.000841 675.97919 1254.99744
1062.0 0.000942 675.75226 1079.93372
951.0 0.001052 675.52411 943.39069
937.0 0.001067 675.29468 848.47723
890.0 0.001124 675.06409 788.36731
821.0 0.001218 674.83209 752.68414
767.0 0.001304 674.59894 731.97327
752.0 0.001330 674.36456 718.48755
774.0 0.001292 674.12885 710.45593
721.0 0.001387 673.89197 704.72424
704.0 0.001420 673.65381 700.30676
700.0 0.001429 673.41443 696.73285
665.0 0.001504 673.17389 693.79407
726.0 0.001377 672.93207 691.27515
683.0 0.001464 672.68903 689.11292
638.0 0.001567 672.44482 687.23615
637.0 0.001570 672.19940 685.59058
702.0 0.001425 671.95288 684.13428
655.0 0.001527 671.70508 682.83441
663.0 0.001508 671.45618 681.66486
640.0 0.001563 671.20599 680.84430
664.0 0.001506 670.95471 679.88232
666.0 0.001502 670.70233 678.99927
689.0 0.001451 670.44879 678.25140
689.0 0.001451 670.19409 677.49548
677.0 0.001477 669.93829 676.78992
685.0 0.001460 669.68134 676.12793
655.0 0.001527 669.42334 675.50439
657.0 0.001522 669.16418 674.91418
644.0 0.001553 668.90393 674.35345
670.0 0.001493 668.64264 673.81897
667.0 0.001499 668.38031 673.30774
692.0 0.001445 668.11688 672.81702
661.0 0.001513 667.85248 672.34497
682.0 0.001466 667.58698 671.88940
597.0 0.001675 667.32043 671.44873
675.0 0.001481 667.05292 671.02155
681.0 0.001468 666.78442 670.60663
652.0 0.001534 666.51489 670.20270
687.0 0.001456 666.24438 669.80908
653.0 0.001531 665.97290 669.42456
624.0 0.001603 665.70050 669.04877
648.0 0.001543 665.42719 668.68085
615.0 0.001626 665.15289 668.32013
654.0 0.001529 664.87769 667.96643
651.0 0.001536 664.60156 667.61884
646.0 0.001548 664.32452 667.27734
605.0 0.001653 664.04663 666.94159
652.0 0.001534 663.76794 666.61127
677.0 0.001477 663.48828 666.28607
641.0 0.001560 663.20789 665.96582
647.0 0.001546 662.92664 665.65057
669.0 0.001495 662.64453 665.33997
634.0 0.001577 662.36163 665.03406
691.0 0.001447 662.07794 664.73279
643.0 0.001555 661.79352 664.21497
687.0 0.001456 661.50830 663.92926
634.0 0.001577 661.22229 663.64819
604.0 0.001656 660.93567 663.37183
656.0 0.001524 660.64832 663.10046
632.0 0.001582 660.36017 662.83405
658.0 0.001520 660.07141 662.57318
623.0 0.001605 659.78198 662.31805
632.0 0.001582 659.49188 662.06921
638.0 0.001567 659.20105 661.82715
671.0 0.001490 658.90967 661.67175
615.0 0.001626 658.61774 660.47125
634.0 0.001577 658.32513 660.28278
669.0 0.001495 658.03204 660.10291
639.0 0.001565 657.73828 659.93280
692.0 0.001445 657.44397 659.77386
689.0 0.001451 657.14917 659.62775
626.0 0.001597 656.85382 659.49597
621.0 0.001610 656.55798 659.67657
665.0 0.001504 656.26166 659.58832
669.0 0.001495 655.96490 659.52277
702.0 0.001425 655.66766 659.48364
647.0 0.001546 655.36993 659.47546
675.0 0.001481 655.07184 659.50409
676.0 0.001479 654.77332 659.57599
636.0 0.001572 654.47443 659.70032
650.0 0.001538 654.17511 659.88831
639.0 0.001565 653.87543 660.15613
700.0 0.001429 653.57550 660.52826
675.0 0.001481 653.27515 661.04712
657.0 0.001522 652.97455 661.79279
659.0 0.001517 652.67365 662.91595
644.0 0.001553 652.37244 664.68146
662.0 0.001511 652.07098 667.50073
692.0 0.001445 651.76929 671.90723
667.0 0.001499 651.46735 678.42731
664.0 0.001506 651.16516 687.34479
692.0 0.001445 650.86285 698.43225
687.0 0.001456 650.56036 710.76501
671.0 0.001490 650.25769 722.77191
732.0 0.001366 649.95483 733.14392
724.0 0.001381 649.65186 743.15863
797.0 0.001255 649.34882 757.95148
753.0 0.001328 649.04565 784.17163
859.0 0.001164 648.74237 826.60675
883.0 0.001133 648.43915 885.63995
923.0 0.001083 648.13580 955.11090
1038.0 0.000963 647.83240 1020.69043
1070.0 0.000935 647.52899 1061.84546
1001.0 0.000999 647.22559 1063.40710
956.0 0.001046 646.92218 1027.60437
931.0 0.001074 646.61884 967.85699
863.0 0.001159 646.31555 898.26135
773.0 0.001294 646.01239 831.27148
726.0 0.001377 645.70923 775.35760
682.0 0.001466 645.40619 733.50494
671.0 0.001490 645.10321 704.68909
699.0 0.001431 644.80048 686.05231
712.0 0.001404 644.49780 674.45435
690.0 0.001449 644.19531 667.28223
647.0 0.001546 643.89301 662.70239
678.0 0.001475 643.59088 659.58276
670.0 0.001493 643.28906 657.29150
685.0 0.001460 642.98743 655.49854
672.0 0.001488 642.68597 654.03442
661.0 0.001513 642.38483 652.80823
706.0 0.001416 642.08392 651.76660
631.0 0.001585 641.78333 650.87427
636.0 0.001572 641.48303 650.10663
637.0 0.001570 641.18304 649.44574
666.0 0.001502 640.88348 648.91522
647.0 0.001546 640.58423 648.43372
667.0 0.001499 640.28528 648.03094
632.0 0.001582 639.98676 647.70337
652.0 0.001534 639.68866 647.45050
659.0 0.001517 639.39093 647.27380
645.0 0.001550 639.09363 647.17743
683.0 0.001464 638.79681 647.16901
681.0 0.001468 638.50043 647.25940
644.0 0.001553 638.20453 647.46490
634.0 0.001577 637.90912 647.81073
665.0 0.001504 637.61414 648.33917
656.0 0.001524 637.31976 649.13013
616.0 0.001623 637.02582 650.34052
664.0 0.001506 636.73248 652.27600
683.0 0.001464 636.43964 655.48193
646.0 0.001548 636.14746 660.81067
707.0 0.001414 635.85583 669.36749
665.0 0.001504 635.56482 682.23248
745.0 0.001342 635.27441 699.94391
736.0 0.001359 634.98462 721.88477
754.0 0.001326 634.69537 745.77527
859.0 0.001164 634.40686 767.55621
847.0 0.001181 634.11902 782.95050
856.0 0.001168 633.83185 792.12256
886.0 0.001129 633.54535 802.45789
904.0 0.001106 633.25952 823.98944
910.0 0.001099 632.97449 863.27393
1012.0 0.000988 632.69012 919.99689
1122.0 0.000891 632.40649 985.00494
1158.0 0.000864 632.12360 1039.44983
1187.0 0.000842 631.84155 1059.35962
1104.0 0.000906 631.56024 1031.91809
1019.0 0.000981 631.27966 967.98438
931.0 0.001074 630.99994 890.12494
804.0 0.001244 630.72101 816.44995
762.0 0.001312 630.44287 756.62445
761.0 0.001314 630.16559 713.38770
709.0 0.001410 629.88910 684.94989
674.0 0.001484 629.61353 667.48090
674.0 0.001484 629.33875 657.07227
669.0 0.001495 629.06488 650.74463
662.0 0.001511 628.79199 646.62268
678.0 0.001475 628.51984 643.68018
647.0 0.001546 628.24866 641.40521
695.0 0.001439 627.97839 639.54926
611.0 0.001637 627.70905 637.98608
650.0 0.001538 627.44055 636.64270
654.0 0.001529 627.17310 635.47137
634.0 0.001577 626.90656 634.43805
642.0 0.001558 626.64099 633.51721
642.0 0.001558 626.37640 632.68854
662.0 0.001511 626.11279 631.93701
688.0 0.001453 625.85010 631.21497
647.0 0.001546 625.58850 630.58423
588.0 0.001701 625.32782 630.00079
644.0 0.001553 625.06812 629.45856
654.0 0.001529 624.80951 628.95245
670.0 0.001493 624.55194 628.47845
622.0 0.001608 624.29541 628.03339
640.0 0.001563 624.03986 627.61493
625.0 0.001600 623.78534 626.97968
609.0 0.001642 623.53192 626.61487
604.0 0.001656 623.27954 626.27258
624.0 0.001603 623.02820 625.88531
669.0 0.001495 622.77795 625.58990
610.0 0.001639 622.52881 625.31879
625.0 0.001600 622.28076 625.07385
566.0 0.001767 622.03375 624.85876
589.0 0.001698 621.78790 624.67877
610.0 0.001639 621.54309 624.54285
658.0 0.001520 621.29938 624.46802
650.0 0.001538 621.05682 624.48859
650.0 0.001538 620.81537 624.67621
680.0 0.001471 620.57501 625.17188
667.0 0.001499 620.33588 626.22516
649.0 0.001541 620.09778 628.21667
642.0 0.001558 619.86084 631.61835
627.0 0.001595 619.62500 636.84949
629.0 0.001590 619.39032 644.02509
604.0 0.001656 619.15686 652.65839
668.0 0.001497 618.92450 661.37909
665.0 0.001504 618.69324 667.80920
652.0 0.001534 618.46326 669.28802
681.0 0.001468 618.23431 664.95758
619.0 0.001616 618.00659 656.69196
656.0 0.001524 617.78003 647.23779
596.0 0.001678 617.55463 638.56952
622.0 0.001608 617.33038 631.65662
612.0 0.001634 617.10730 626.69653
578.0 0.001730 616.88544 623.41058
629.0 0.001590 616.66473 621.33105
589.0 0.001698 616.44519 620.01233
605.0 0.001653 616.22687 619.34045
634.0 0.001577 616.00964 618.69507
600.0 0.001667 615.79370 618.17627
585.0 0.001709 615.57886 617.73083
633.0 0.001580 615.36523 617.33301
612.0 0.001634 615.15277 616.96912
588.0 0.001701 614.94147 616.63147
608.0 0.001645 614.73145 616.35522
575.0 0.001739 614.52252 616.05634
646.0 0.001548 614.31476 615.77161
591.0 0.001692 614.10822 615.49890
620.0 0.001613 613.90283 615.23639
612.0 0.001634 613.69867 614.98260
610.0 0.001639 613.49567 614.65753
608.0 0.001645 613.29382 614.42029
603.0 0.001658 613.09320 614.18909
639.0 0.001565 612.89374 613.96338
628.0 0.001592 612.69537 613.74274
635.0 0.001575 612.49829 613.52655
611.0 0.001637 612.30231 613.31470
627.0 0.001595 612.10754 613.10693
561.0 0.001783 611.91388 612.60736
603.0 0.001658 611.72144 612.41394
621.0 0.001610 611.53009 612.22357
603.0 0.001658 611.34003 612.03656
605.0 0.001653 611.15100 611.85236
587.0 0.001704 610.96313 611.67120
639.0 0.001565 610.77649 611.49298
643.0 0.001555 610.59088 611.31757
557.0 0.001795 610.40649 611.14508
629.0 0.001590 610.22327 610.97552
594.0 0.001684 610.04114 610.80902
574.0 0.001742 609.86011 610.64532
634.0 0.001577 609.68024 610.48468
628.0 0.001592 609.50153 610.32715
616.0 0.001623 609.32385 610.17285
619.0 0.001616 609.14734 610.02179
600.0 0.001667 608.97186 609.87408
607.0 0.001647 608.79755 609.72998
604.0 0.001656 608.62433 609.58960
568.0 0.001761 608.45227 609.45313
600.0 0.001667 608.28119 609.32086
586.0 0.001706 608.11121 609.19281
583.0 0.001715 607.94232 609.06940
618.0 0.001618 607.77448 608.95111
597.0 0.001675 607.60773 608.83801
635.0 0.001575 607.44202 608.73077
583.0 0.001715 607.27734 608.62976
596.0 0.001678 607.11377 608.53558
584.0 0.001712 606.95123 608.44885
599.0 0.001669 606.78967 608.37018
605.0 0.001653 606.62921 608.30060
638.0 0.001567 606.46973 608.24103
599.0 0.001669 606.31122 608.19257
602.0 0.001661 606.15375 608.15649
617.0 0.001621 605.99725 608.13458
628.0 0.001592 605.84180 608.12854
602.0 0.001661 605.68732 608.14087
585.0 0.001709 605.53375 608.17377
569.0 0.001757 605.38116 608.23090
590.0 0.001695 605.22955 608.31580
610.0 0.001639 605.07892 608.43341
583.0 0.001715 604.92920 608.58948
576.0 0.001736 604.78040 608.79120
635.0 0.001575 604.63257 609.04767
603.0 0.001658 604.48566 609.37030
626.0 0.001597 604.33960 609.77356
559.0 0.001789 604.19446 610.27667
618.0 0.001618 604.05029 610.90491
603.0 0.001658 603.90692 611.69452
657.0 0.001522 603.76447 612.70154
652.0 0.001534 603.62286 614.02563
611.0 0.001637 603.48206 615.86243
602.0 0.001661 603.34216 618.57275
584.0 0.001712 603.20313 623.00214
599.0 0.001669 603.06488 630.47290
661.0 0.001513 602.92749 643.05469
661.0 0.001513 602.79083 663.32825
697.0 0.001435 602.65503 693.63226
725.0 0.001379 602.52002 734.74158
801.0 0.001248 602.38580 784.26874
856.0 0.001168 602.25232 835.11414
881.0 0.001135 602.11963 874.60840
851.0 0.001175 601.98767 888.04749
893.0 0.001120 601.85645 870.10516
793.0 0.001261 601.72595 830.96790
802.0 0.001247 601.59619 786.33649
671.0 0.001490 601.46710 747.45282
747.0 0.001339 601.33875 719.20374
692.0 0.001445 601.21112 701.13287
697.0 0.001435 601.08417 689.06464
694.0 0.001441 600.95782 677.95782
662.0 0.001511 600.83215 665.39465
650.0 0.001538 600.70715 652.10614
620.0 0.001613 600.58276 639.71259
630.0 0.001587 600.45905 629.32782
650.0 0.001538 600.33588 621.37366
618.0 0.001618 600.21332 617.38562
578.0 0.001730 600.09137 613.60535
610.0 0.001639 599.97003 611.11169
593.0 0.001686 599.84924 609.43262
561.0 0.001783 599.72906 608.23889
556.0 0.001799 599.60938 607.33167
589.0 0.001698 599.49023 606.60187
627.0 0.001595 599.37158 605.99176
577.0 0.001733 599.25348 605.46985
628.0 0.001592 599.13593 605.01703
607.0 0.001647 599.01886 604.79712
573.0 0.001745 598.90222 604.45148
550.0 0.001818 598.78607 604.14532
630.0 0.001587 598.67035 603.87286
572.0 0.001748 598.55511 603.62982
637.0 0.001570 598.44031 603.41235
598.0 0.001672 598.32593 603.21741
608.0 0.001645 598.21198 603.04285
633.0 0.001580 598.09845 602.88654
603.0 0.001658 597.98529 602.74689
603.0 0.001658 597.87250 602.62262
621.0 0.001610 597.76007 602.51276
626.0 0.001597 597.64801 602.41644
603.0 0.001658 597.53632 602.33313
604.0 0.001656 597.42493 602.26202
607.0 0.001647 597.31384 602.20325
622.0 0.001608 597.20313 602.15637
592.0 0.001689 597.09271 602.12128
625.0 0.001600 596.98254 602.09784
637.0 0.001570 596.87262 602.08624
576.0 0.001736 596.76300 602.08685
565.0 0.001770 596.65369 602.09979
610.0 0.001639 596.54456 602.12549
582.0 0.001718 596.43567 602.16443
629.0 0.001590 596.32703 602.21729
583.0 0.001715 596.21857 602.28467
533.0 0.001876 596.11035 602.36743
632.0 0.001582 596.00226 602.46655
624.0 0.001603 595.89435 602.58313
570.0 0.001754 595.78662 602.71832
592.0 0.001689 595.67908 602.87366
623.0 0.001605 595.57159 603.05054
551.0 0.001815 595.46436 603.25116
671.0 0.001490 595.35712 603.47723
586.0 0.001706 595.25006 603.73138
604.0 0.001656 595.14307 604.01605
588.0 0.001701 595.03619 604.33429
638.0 0.001567 594.92938 604.68982
636.0 0.001572 594.82263 605.08630
604.0 0.001656 594.71594 605.52869
634.0 0.001577 594.60925 606.02191
641.0 0.001560 594.50262 606.57196
586.0 0.001706 594.39606 607.18622
606.0 0.001650 594.28949 607.87250
581.0 0.001721 594.18286 608.64056
609.0 0.001642 594.07629 609.50153
597.0 0.001675 593.96967 610.46869
646.0 0.001548 593.86298 611.55756
640.0 0.001563 593.75629 612.78693
586.0 0.001706 593.64954 614.17932
629.0 0.001590 593.54279 615.76166
636.0 0.001572 593.43591 617.56702
610.0 0.001639 593.32892 619.63580
629.0 0.001590 593.22186 622.01770
632.0 0.001582 593.11469 624.77527
625.0 0.001600 593.00745 627.98669
612.0 0.001634 592.90002 631.75153
626.0 0.001597 592.79254 636.19873
652.0 0.001534 592.68488 641.49805
650.0 0.001538 592.57703 647.67194
645.0 0.001550 592.46906 655.49500
693.0 0.001443 592.36090 665.32916
658.0 0.001520 592.25256 678.25970
697.0 0.001435 592.14404 696.46118
702.0 0.001425 592.03528 724.24329
784.0 0.001276 591.92633 769.53149
874.0 0.001144 591.81720 845.21539
1000.0 0.001000 591.70782 968.95837
1195.0 0.000837 591.59821 1159.88647
1436.0 0.000696 591.48834 1430.52393
1844.0 0.000542 591.37823 1775.88708
2229.0 0.000449 591.26782 2161.46362
2662.0 0.000376 591.15723 2512.25708
2845.0 0.000351 591.04626 2716.37622
2750.0 0.000364 590.93500 2683.48608
2360.0 0.000424 590.82355 2431.99829
1953.0 0.000512 590.71173 2070.42993
1621.0 0.000617 590.59961 1705.32166
1446.0 0.000692 590.48712 1401.28967
1207.0 0.000829 590.37433 1184.25806
1022.0 0.000978 590.26117 1051.98621
1025.0 0.000976 590.14777 984.72729
979.0 0.001021 590.03394 954.53168
915.0 0.001093 589.91974 932.86298
928.0 0.001078 589.80524 900.26343
857.0 0.001167 589.69031 854.04529
749.0 0.001335 589.57501 802.48553
773.0 0.001294 589.45935 754.12708
692.0 0.001445 589.34320 713.88586
656.0 0.001524 589.22675 683.31647
693.0 0.001443 589.10980 661.64124
686.0 0.001458 588.99249 646.89520
593.0 0.001686 588.87476 636.91876
572.0 0.001748 588.75659 629.94971
633.0 0.001580 588.63800 624.79517
595.0 0.001681 588.51892 620.74646
593.0 0.001686 588.39941 617.41412
620.0 0.001613 588.27948 614.58685
646.0 0.001548 588.15906 612.14319
632.0 0.001582 588.03815 610.00568
603.0 0.001658 587.91681 608.11908
593.0 0.001686 587.79498 606.44196
592.0 0.001689 587.67267 604.94128
628.0 0.001592 587.54987 603.59045
644.0 0.001553 587.42657 602.36804
573.0 0.001745 587.30273 601.25623
612.0 0.001634 587.17841 600.24030
603.0 0.001658 587.05359 599.30774
640.0 0.001563 586.92828 598.44836
696.0 0.001437 586.80243 597.65338
655.0 0.001527 586.67603 596.91498
653.0 0.001531 586.54913 596.22705
662.0 0.001511 586.42169 595.58392
661.0 0.001513 586.29370 594.98065
616.0 0.001623 586.16522 594.41327
634.0 0.001577 586.03613 593.87793
650.0 0.001538 585.90656 593.37164
585.0 0.001709 585.77637 592.89148
619.0 0.001616 585.64563 592.43494
605.0 0.001653 585.51440 591.99988
609.0 0.001642 585.38251 591.58423
569.0 0.001757 585.25012 591.18640
598.0 0.001672 585.11713 590.80475
559.0 0.001789 584.98358 590.43787
594.0 0.001684 584.84943 590.08453
556.0 0.001799 584.71478 589.74371
613.0 0.001631 584.57947 589.41425
625.0 0.001600 584.44360 589.09528
586.0 0.001706 584.30713 588.78601
593.0 0.001686 584.17004 588.48547
583.0 0.001715 584.03241 588.19336
598.0 0.001672 583.89423 587.95038
580.0 0.001724 583.75537 587.67383
560.0 0.001786 583.61597 587.40381
565.0 0.001770 583.47595 587.13983
529.0 0.001890 583.33539 586.88153
562.0 0.001779 583.19415 586.62836
556.0 0.001799 583.05231 586.38007
559.0 0.001789 582.90985 586.17609
591.0 0.001692 582.76685 585.93750
561.0 0.001783 582.62323 585.70282
607.0 0.001647 582.47900 585.47180
577.0 0.001733 582.33417 585.24438
608.0 0.001645 582.18866 585.02014
552.0 0.001812 582.04260 584.79877
588.0 0.001701 581.89594 584.58026
562.0 0.001779 581.74866 584.36444
566.0 0.001767 581.60083 584.15106
555.0 0.001802 581.45227 583.94000
577.0 0.001733 581.30316 583.73108
558.0 0.001792 581.15350 583.52429
573.0 0.001745 581.00317 583.31940
610.0 0.001639 580.85223 583.11633
547.0 0.001828 580.70068 582.91492
541.0 0.001848 580.54858 582.71509
583.0 0.001715 580.39581 582.51703
564.0 0.001773 580.24249 580.62292
563.0 0.001776 580.08850 580.46783
634.0 0.001577 579.93402 580.31262
619.0 0.001616 579.77887 580.15729
598.0 0.001672 579.62311 580.00195
555.0 0.001802 579.46674 579.84650
573.0 0.001745 579.30981 579.69092
595.0 0.001681 579.15222 579.53540
573.0 0.001745 578.99408 579.37982
574.0 0.001742 578.83539 579.22430
567.0 0.001764 578.67609 578.89044
562.0 0.001779 578.51624 578.73926
621.0 0.001610 578.35571 578.58795
598.0 0.001672 578.19470 578.43658
548.0 0.001825 578.03308 578.28540
527.0 0.001898 577.87085 578.13428
555.0 0.001802 577.70807 577.98334
615.0 0.001626 577.54468 577.83264
606.0 0.001650 577.38074 577.68225
568.0 0.001761 577.21631 577.53235
593.0 0.001686 577.05127 577.38293
666.0 0.001502 576.88568 577.23419
649.0 0.001541 576.71948 577.08612
627.0 0.001595 576.55280 576.93903
639.0 0.001565 576.38550 576.79291
639.0 0.001565 576.21771 576.64813
707.0 0.001414 576.04938 576.50488
725.0 0.001379 575.88049 578.01892
725.0 0.001379 575.71112 577.91968
598.0 0.001672 575.54120 577.82422
655.0 0.001527 575.37073 577.73297
608.0 0.001645 575.19977 577.64661
581.0 0.001721 575.02826 577.56561
612.0 0.001634 574.85626 577.49084
604.0 0.001656 574.68372 577.42310
613.0 0.001631 574.51074 577.36328
587.0 0.001704 574.33728 577.31268
574.0 0.001742 574.16327 577.27277
555.0 0.001802 573.98877 577.24524
564.0 0.001773 573.81378 577.23218
563.0 0.001776 573.63837 577.23627
553.0 0.001808 573.46240 577.26093
572.0 0.001748 573.28607 577.31042
565.0 0.001770 573.10919 577.39014
552.0 0.001812 572.93195 577.50800
556.0 0.001799 572.75421 577.67517
579.0 0.001727 572.57599 577.91071
578.0 0.001730 572.39734 578.25012
565.0 0.001770 572.21826 578.76190
591.0 0.001692 572.03882 579.57532
541.0 0.001848 571.85889 580.91418
601.0 0.001664 571.67859 583.11841
589.0 0.001698 571.49786 586.61841
621.0 0.001610 571.31671 591.82794
601.0 0.001664 571.13513 598.95111
598.0 0.001672 570.95325 607.74255
567.0 0.001764 570.77094 617.26019
606.0 0.001650 570.58820 625.67175
613.0 0.001631 570.40515 630.64154
597.0 0.001675 570.22174 631.11816
597.0 0.001675 570.03790 628.75385
577.0 0.001733 569.85382 626.37653
651.0 0.001536 569.66931 625.83771
613.0 0.001631 569.48450 627.30170
657.0 0.001522 569.29932 629.23743
597.0 0.001675 569.11383 628.97858
575.0 0.001739 568.92804 624.63428
558.0 0.001792 568.74188 616.85168
575.0 0.001739 568.55548 607.79309
588.0 0.001701 568.36877 599.29199
566.0 0.001767 568.18182 592.33630
590.0 0.001695 567.99451 587.22766
572.0 0.001748 567.80688 583.81396
566.0 0.001767 567.61908 581.71729
564.0 0.001773 567.43103 580.52582
568.0 0.001761 567.24261 579.90533
604.0 0.001656 567.05402 579.63354
558.0 0.001792 566.86523 579.58234
612.0 0.001634 566.67615 579.68634
599.0 0.001669 566.48682 579.91565
587.0 0.001704 566.29730 580.25842
592.0 0.001689 566.10760 580.71191
561.0 0.001783 565.91766 581.27942
603.0 0.001658 565.72754 581.96790
594.0 0.001684 565.53723 582.78778
555.0 0.001802 565.34674 583.75330
577.0 0.001733 565.15613 584.88330
597.0 0.001675 564.96533 586.20074
535.0 0.001869 564.77435 587.73486
594.0 0.001684 564.58319 589.52197
563.0 0.001776 564.39197 591.60736
570.0 0.001754 564.20050 594.04797
554.0 0.001805 564.00897 596.91571
598.0 0.001672 563.81738 600.30212
622.0 0.001608 563.62567 604.32574
631.0 0.001585 563.43378 609.14209
589.0 0.001698 563.24188 614.96411
590.0 0.001695 563.04980 622.10400
615.0 0.001626 562.85773 631.06946
661.0 0.001513 562.66559 642.78766
639.0 0.001565 562.47333 659.07086
713.0 0.001403 562.28101 683.45770
749.0 0.001335 562.08875 722.42511
791.0 0.001264 561.89636 786.56464
859.0 0.001164 561.70398 890.69269
1036.0 0.000965 561.51160 1051.42505
1296.0 0.000772 561.31915 1281.23340
1512.0 0.000661 561.12671 1579.53455
2019.0 0.000495 560.93427 1922.43396
2228.0 0.000449 560.74188 2252.04053
2495.0 0.000401 560.54950 2479.32813
2470.0 0.000405 560.35712 2498.32788
2231.0 0.000448 560.16479 2305.43359
1915.0 0.000522 559.97247 1986.09656
1537.0 0.000651 559.78027 1639.96265
1299.0 0.000770 559.58807 1331.49377
1096.0 0.000912 559.39594 1089.49207
963.0 0.001038 559.20392 917.68024
864.0 0.001157 559.01196 805.07477
785.0 0.001274 558.82013 738.10779
701.0 0.001427 558.62842 695.70795
688.0 0.001453 558.43671 669.34564
695.0 0.001439 558.24518 651.92926
650.0 0.001538 558.05377 639.52466
649.0 0.001541 557.86249 630.10425
597.0 0.001675 557.67133 622.63696
621.0 0.001610 557.48035 616.56683
564.0 0.001773 557.28949 611.55908
629.0 0.001590 557.09882 607.38898
601.0 0.001664 556.90833 603.89362
596.0 0.001678 556.71796 600.94995
595.0 0.001681 556.52783 598.46289
549.0 0.001821 556.33789 596.35858
619.0 0.001616 556.14813 594.57837
621.0 0.001610 555.95856 593.07544
567.0 0.001764 555.76923 591.81274
591.0 0.001692 555.58014 590.76025
595.0 0.001681 555.39130 589.89374
565.0 0.001770 555.20264 589.19360
587.0 0.001704 555.01422 588.64435
594.0 0.001684 554.82611 588.23328
602.0 0.001661 554.63818 587.90869
585.0 0.001709 554.45062 587.74707
591.0 0.001692 554.26324 587.70013
567.0 0.001764 554.07623 587.76331
619.0 0.001616 553.88947 587.93402
548.0 0.001825 553.70300 588.21063
600.0 0.001667 553.51685 588.59308
571.0 0.001751 553.33099 589.04236
607.0 0.001647 553.14545 589.64136
575.0 0.001739 552.96021 590.35260
577.0 0.001733 552.77533 591.18036
581.0 0.001721 552.59082 592.13049
590.0 0.001695 552.40668 593.20978
562.0 0.001779 552.22278 594.43079
581.0 0.001721 552.03931 595.79541
542.0 0.001845 551.85620 597.31952
576.0 0.001736 551.67346 599.01654
567.0 0.001764 551.49109 600.90234
571.0 0.001751 551.30908 602.99561
586.0 0.001706 551.12750 605.31763
599.0 0.001669 550.94635 607.90094
600.0 0.001667 550.76550 610.75952
629.0 0.001590 550.58514 613.93469
635.0 0.001575 550.40521 617.46606
595.0 0.001681 550.22565 621.40033
657.0 0.001522 550.04651 625.79236
606.0 0.001650 549.86786 630.70752
666.0 0.001502 549.68964 636.22345
635.0 0.001575 549.51190 642.43365
656.0 0.001524 549.33453 649.45038
653.0 0.001531 549.15765 657.41058
660.0 0.001515 548.98120 666.48151
697.0 0.001435 548.80530 676.87000
664.0 0.001506 548.62976 688.83331
648.0 0.001543 548.45477 702.69482
745.0 0.001342 548.28027 718.86658
719.0 0.001391 548.10632 737.88171
763.0 0.001311 547.93280 760.44922
781.0 0.001280 547.75977 787.56482
784.0 0.001276 547.58722 820.75293
825.0 0.001212 547.41522 862.62738
906.0 0.001104 547.24371 918.10223
941.0 0.001063 547.07281 996.70819
1074.0 0.000931 546.90234 1116.26086
1321.0 0.000757 546.73242 1307.19165
1608.0 0.000622 546.56305 1614.97400
2053.0 0.000487 546.39423 2096.13818
2804.0 0.000357 546.22595 2803.44971
3811.0 0.0002624 546.05823 3759.67456
4986.0 0.0002006 545.89099 4924.39697
6306.0 0.0001586 545.72437 6157.61279
7224.0 0.0001384 545.55829 7188.01367
7649.0 0.0001307 545.39282 7661.92578
7170.0 0.0001395 545.22791 7390.44678
6285.0 0.0001591 545.06354 6568.02686
5300.0 0.0001887 544.89972 5579.92871
4463.0 0.0002241 544.73651 4740.09570
4115.0 0.0002430 544.57391 4211.23047
3943.0 0.0002536 544.41187 4025.90088
4186.0 0.0002389 544.25043 4102.77930
4338.0 0.0002305 544.08960 4265.49658
4296.0 0.0002328 543.92938 4288.15576
4043.0 0.0002473 543.76971 4022.33984
3420.0 0.0002924 543.61066 3507.48438
2690.0 0.000372 543.45221 2892.86890
2188.0 0.000457 543.29443 2306.83618
1775.0 0.000563 543.13721 1818.64429
1383.0 0.000723 542.98059 1450.93787
1154.0 0.000867 542.82458 1195.17358
1002.0 0.000998 542.66925 1027.10645
889.0 0.001125 542.51459 919.46167
861.0 0.001161 542.36047 849.59601
812.0 0.001232 542.20697 801.95679
777.0 0.001287 542.05414 767.22009
724.0 0.001381 541.90192 740.28381
692.0 0.001445 541.75037 718.45819
690.0 0.001449 541.59943 700.28259
696.0 0.001437 541.44910 684.88885
654.0 0.001529 541.29950 671.70209
670.0 0.001493 541.15045 660.30664
656.0 0.001524 541.00214 650.38727
692.0 0.001445 540.85437 641.69708
624.0 0.001603 540.70728 634.04059
597.0 0.001675 540.56085 627.26117
600.0 0.001667 540.41510 621.23273
637.0 0.001570 540.26996 615.85370
635.0 0.001575 540.12555 611.04480
631.0 0.001585 539.98175 606.74658
604.0 0.001656 539.83856 602.91962
589.0 0.001698 539.69604 599.54456
571.0 0.001751 539.55420 596.61597
604.0 0.001656 539.41302 594.13379
624.0 0.001603 539.27246 592.08459
583.0 0.001715 539.13257 590.42505
542.0 0.001845 538.99341 589.06067
567.0 0.001764 538.85486 587.83075
604.0 0.001656 538.71698 586.54840
573.0 0.001745 538.57971 585.15741
565.0 0.001770 538.44318 583.82471
567.0 0.001764 538.30725 582.77130
559.0 0.001789 538.17200 582.07471
577.0 0.001733 538.03741 581.59283
564.0 0.001773 537.90344 580.96521
547.0 0.001828 537.77020 579.77338
589.0 0.001698 537.63757 577.90308
554.0 0.001805 537.50562 575.64679
574.0 0.001742 537.37433 573.38916
585.0 0.001709 537.24365 571.38678
596.0 0.001678 537.11365 569.75592
577.0 0.001733 536.98431 568.51471
594.0 0.001684 536.85559 567.62299
574.0 0.001742 536.72760 567.01776
623.0 0.001605 536.60028 566.63953
637.0 0.001570 536.47351 566.44629
654.0 0.001529 536.34741 566.41492
620.0 0.001613 536.22198 566.53876
631.0 0.001585 536.09723 566.82196
644.0 0.001553 535.97308 567.27728
614.0 0.001629 535.84955 567.92432
612.0 0.001634 535.72675 568.78925
599.0 0.001669 535.60455 569.90619
551.0 0.001815 535.48291 571.31927
599.0 0.001669 535.36200 573.08514
583.0 0.001715 535.24170 575.27826
601.0 0.001664 535.12201 577.99725
540.0 0.001852 535.00299 581.37952
636.0 0.001572 534.88452 585.63141
642.0 0.001558 534.76678 591.09766
647.0 0.001546 534.64960 598.41254
704.0 0.001420 534.53308 608.79828
734.0 0.001362 534.41711 624.56018
772.0 0.001295 534.30182 649.74426
790.0 0.001266 534.18707 690.52917
816.0 0.001225 534.07300 755.09137
888.0 0.001126 533.95953 851.80396
1008.0 0.000992 533.84662 979.67578
1241.0 0.000806 533.73438 1148.36426
1407.0 0.000711 533.62268 1335.48486
1579.0 0.000633 533.51160 1505.92773
1696.0 0.000590 533.40106 1606.59216
1580.0 0.000633 533.29114 1594.72913
1501.0 0.000666 533.18182 1480.19519
1375.0 0.000727 533.07306 1316.24854
1142.0 0.000876 532.96490 1154.05847
1057.0 0.000946 532.85730 1021.16479
975.0 0.001026 532.75031 934.27820
901.0 0.001110 532.64386 886.56281
883.0 0.001133 532.53796 863.49200
888.0 0.001126 532.43262 845.10858
850.0 0.001176 532.32782 815.74133
793.0 0.001261 532.22363 773.47003
673.0 0.001486 532.11993 726.03729
646.0 0.001548 532.01678 681.33795
637.0 0.001570 531.91418 643.86652
660.0 0.001515 531.81213 615.11487
622.0 0.001608 531.71063 594.53314
608.0 0.001645 531.60962 580.47662
574.0 0.001742 531.50909 571.03717
567.0 0.001764 531.40912 564.58197
561.0 0.001783 531.30969 559.95367
586.0 0.001706 531.21075 556.43433
528.0 0.001894 531.11230 553.61627
493.0 0.002028 531.01434 551.27563
561.0 0.001783 530.91693 549.28613
541.0 0.001848 530.81995 547.56964
557.0 0.001795 530.72345 546.07343
563.0 0.001776 530.62750 544.75848
606.0 0.001650 530.53198 543.59467
571.0 0.001751 530.43689 542.55841
533.0 0.001876 530.34235 541.63037
556.0 0.001799 530.24823 540.79517
538.0 0.001859 530.15454 540.03992
539.0 0.001855 530.06134 539.35419
575.0 0.001739 529.96857 538.72894
562.0 0.001779 529.87622 538.15723
524.0 0.001908 529.78436 537.63251
553.0 0.001808 529.69287 537.14978
571.0 0.001751 529.60181 536.70459
530.0 0.001887 529.51123 536.29303
523.0 0.001912 529.42102 535.90790
524.0 0.001908 529.33124 535.55444
525.0 0.001905 529.24182 535.22656
555.0 0.001802 529.15277 534.92188
526.0 0.001901 529.06415 534.63885
533.0 0.001876 528.97595 534.37610
566.0 0.001767 528.88812 534.13232
523.0 0.001912 528.80066 533.89929
504.0 0.001984 528.71356 533.69122
544.0 0.001838 528.62683 533.49988
545.0 0.001835 528.54041 533.32501
529.0 0.001890 528.45435 533.16638
537.0 0.001862 528.36865 533.02429
529.0 0.001890 528.28333 532.89874
513.0 0.001949 528.19830 532.79071
499.0 0.002004 528.11365 532.70074
563.0 0.001776 528.02930 532.63019
509.0 0.001965 527.94525 532.58051
524.0 0.001908 527.86151 532.55420
528.0 0.001894 527.77802 532.55396
541.0 0.001848 527.69489 532.58362
483.0 0.002070 527.61206 532.82141
566.0 0.001767 527.52948 532.93298
513.0 0.001949 527.44720 533.10040
529.0 0.001890 527.36523 533.34601
548.0 0.001825 527.28351 533.71051
509.0 0.001965 527.20203 534.26544
535.0 0.001869 527.12079 535.12677
540.0 0.001852 527.03979 536.45923
534.0 0.001873 526.95911 538.45868
566.0 0.001767 526.87860 541.29761
532.0 0.001880 526.79834 545.04004
576.0 0.001736 526.71832 549.53436
538.0 0.001859 526.63849 554.29602
552.0 0.001812 526.55890 558.41858
596.0 0.001678 526.47949 560.83740
554.0 0.001805 526.40033 561.28809
557.0 0.001795 526.32135 560.95563
517.0 0.001934 526.24249 562.42139
596.0 0.001678 526.16388 566.45197
593.0 0.001686 526.08545 575.31354
543.0 0.001842 526.00714 590.12659
568.0 0.001761 525.92902 611.00165
655.0 0.001527 525.85107 635.45422
676.0 0.001479 525.77325 661.67505
658.0 0.001520 525.69556 682.01447
670.0 0.001493 525.61804 689.09845
701.0 0.001427 525.54065 680.90088
641.0 0.001560 525.46338 663.10883
649.0 0.001541 525.38623 643.39282
629.0 0.001590 525.30920 626.52582
589.0 0.001698 525.23230 613.69458
584.0 0.001712 525.15546 603.16870
601.0 0.001664 525.07874 593.05750
544.0 0.001838 525.00208 582.24652
509.0 0.001965 524.92554 571.33038
535.0 0.001869 524.84906 561.23407
522.0 0.001916 524.77264 552.64734
529.0 0.001890 524.69629 545.87640
553.0 0.001808 524.62000 540.86749
541.0 0.001848 524.54382 537.33636
501.0 0.001996 524.46759 534.91376
523.0 0.001912 524.39148 533.25238
511.0 0.001957 524.31537 532.08240
493.0 0.002028 524.23926 531.22009
512.0 0.001953 524.16321 530.55273
549.0 0.001821 524.08722 530.01447
517.0 0.001934 524.01117 529.56775
491.0 0.002037 523.93518 529.19037
531.0 0.001883 523.85919 528.86786
512.0 0.001953 523.78314 528.59058
518.0 0.001931 523.70709 528.35138
519.0 0.001927 523.63110 528.14471
511.0 0.001957 523.55499 527.96600
492.0 0.002033 523.47894 527.81232
518.0 0.001931 523.40283 527.68066
477.0 0.002096 523.32666 527.56903
526.0 0.001901 523.25043 527.47595
539.0 0.001855 523.17419 527.39996
528.0 0.001894 523.09784 527.34021
510.0 0.001961 523.02148 527.29633
527.0 0.001898 522.94501 527.26752
549.0 0.001821 522.86853 527.25409
540.0 0.001852 522.79193 527.25549
497.0 0.002012 522.71527 527.27240
492.0 0.002033 522.63849 527.30530
549.0 0.001821 522.56165 527.35461
500.0 0.002000 522.48468 527.42151
514.0 0.001946 522.40765 527.50690
530.0 0.001887 522.33044 527.61224
531.0 0.001883 522.25317 527.73938
546.0 0.001832 522.17584 527.89026
476.0 0.002101 522.09827 528.06732
546.0 0.001832 522.02063 528.27362
506.0 0.001976 521.94287 528.51257
489.0 0.002045 521.86493 528.78857
492.0 0.002033 521.78687 529.10663
528.0 0.001894 521.70868 529.47290
566.0 0.001767 521.63031 529.89502
504.0 0.001984 521.55182 530.38208
526.0 0.001901 521.47314 530.94562
512.0 0.001953 521.39429 531.59979
547.0 0.001828 521.31525 532.36292
533.0 0.001876 521.23608 533.27466
576.0 0.001736 521.15668 534.33344
534.0 0.001873 521.07715 535.59937
519.0 0.001927 520.99744 537.14178
550.0 0.001818 520.91748 539.07953
543.0 0.001842 520.83734 541.63263
579.0 0.001727 520.75702 545.21252
562.0 0.001779 520.67651 550.54749
551.0 0.001815 520.59576 558.80688
587.0 0.001704 520.51483 571.62158
593.0 0.001686 520.43365 590.85962
613.0 0.001631 520.35223 618.05310
638.0 0.001567 520.27063 653.50616
713.0 0.001403 520.18878 695.19830
762.0 0.001312 520.10675 737.48663
793.0 0.001261 520.02441 770.09369
755.0 0.001325 519.94189 781.04346
729.0 0.001372 519.85913 766.05798
719.0 0.001391 519.77606 733.17633
691.0 0.001447 519.69281 695.05505
623.0 0.001605 519.60925 660.35748
647.0 0.001546 519.52545 633.97070
650.0 0.001538 519.44141 617.77881
583.0 0.001715 519.35712 612.37024
612.0 0.001634 519.27252 618.51129
655.0 0.001527 519.18768 638.37256
665.0 0.001504 519.10254 675.91449
753.0 0.001328 519.01721 736.84558
880.0 0.001136 518.93152 825.70947
919.0 0.001088 518.84564 943.28571
1061.0 0.000943 518.75940 1082.53870
1374.0 0.000728 518.67285 1224.04004
1354.0 0.000739 518.58606 1332.30481
1367.0 0.000732 518.49896 1365.23254
1292.0 0.000774 518.41162 1306.44226
1164.0 0.000859 518.32391 1183.01465
952.0 0.001050 518.23596 1037.70093
872.0 0.001147 518.14771 901.42609
759.0 0.001318 518.05914 789.53680
718.0 0.001393 517.97028 706.24207
652.0 0.001534 517.88110 648.90155
634.0 0.001577 517.79156 611.64258
594.0 0.001684 517.70178 588.11353
590.0 0.001695 517.61169 573.14844
570.0 0.001754 517.52124 563.20599
528.0 0.001894 517.43054 556.15680
576.0 0.001736 517.33948 550.82904
588.0 0.001701 517.24811 546.60321
532.0 0.001880 517.15643 543.14453
533.0 0.001876 517.06439 540.25726
534.0 0.001873 516.97211 537.81421
534.0 0.001873 516.87939 535.72681
545.0 0.001835 516.78644 533.92535
521.0 0.001919 516.69312 532.35968
552.0 0.001812 516.59955 530.98871
554.0 0.001805 516.50555 529.78070
528.0 0.001894 516.41125 528.70996
537.0 0.001862 516.31665 527.76105
513.0 0.001949 516.22168 526.90601
502.0 0.001992 516.12640 526.13611
517.0 0.001934 516.03076 525.44025
530.0 0.001887 515.93488 524.80865
525.0 0.001905 515.83856 524.23346
542.0 0.001845 515.74194 523.70801
523.0 0.001912 515.64502 523.22650
546.0 0.001832 515.54773 522.78430
516.0 0.001938 515.45013 522.37738
511.0 0.001957 515.35217 522.00220
516.0 0.001938 515.25385 521.65601
518.0 0.001931 515.15521 521.33630
543.0 0.001842 515.05627 521.04126
518.0 0.001931 514.95697 520.76898
532.0 0.001880 514.85730 520.51807
498.0 0.002008 514.75732 520.28748
526.0 0.001901 514.65704 520.07648
527.0 0.001898 514.55640 519.88458
525.0 0.001905 514.45538 519.71136
482.0 0.002075 514.35413 519.55688
503.0 0.001988 514.25244 519.42169
506.0 0.001976 514.15051 519.30597
501.0 0.001996 514.04822 519.21106
539.0 0.001855 513.94556 519.13849
541.0 0.001848 513.84259 519.09009
492.0 0.002033 513.73926 519.06891
521.0 0.001919 513.63562 519.07910
500.0 0.002000 513.53168 519.12653
524.0 0.001908 513.42737 519.22168
495.0 0.002020 513.32275 519.38232
515.0 0.001942 513.21783 519.64136
534.0 0.001873 513.11255 520.05719
538.0 0.001859 513.00696 520.72583
533.0 0.001876 512.90106 521.78992
495.0 0.002020 512.79480 523.41266
531.0 0.001883 512.68829 525.75916
511.0 0.001957 512.58142 528.90942
556.0 0.001799 512.47424 532.76898
542.0 0.001845 512.36676 536.95630
531.0 0.001883 512.25897 540.67963
526.0 0.001901 512.15082 542.81592
547.0 0.001828 512.04242 542.60852
537.0 0.001862 511.93365 540.45349
559.0 0.001789 511.82462 537.49988
587.0 0.001704 511.71527 534.76440
559.0 0.001789 511.60562 532.86005
548.0 0.001825 511.49567 532.11279
614.0 0.001629 511.38544 532.73328
541.0 0.001848 511.27490 535.00049
591.0 0.001692 511.16406 539.45886
587.0 0.001704 511.05295 547.09338
587.0 0.001704 510.94156 559.40265
656.0 0.001524 510.82983 578.26709
678.0 0.001475 510.71786 605.50037
676.0 0.001479 510.60559 642.02545
671.0 0.001490 510.49310 686.67871
793.0 0.001261 510.38028 734.68701
805.0 0.001242 510.26721 777.85834
751.0 0.001332 510.15384 805.21204
847.0 0.001181 510.04022 807.18231
806.0 0.001241 509.92633 781.46747
660.0 0.001515 509.81219 736.90173
701.0 0.001427 509.69778 686.72394
642.0 0.001558 509.58313 640.55072
570.0 0.001754 509.46823 602.97485
574.0 0.001742 509.35306 575.04047
560.0 0.001786 509.23764 555.71130
531.0 0.001883 509.12201 543.01819
486.0 0.002058 509.00610 534.89990
562.0 0.001779 508.88998 529.67914
535.0 0.001869 508.77359 526.20477
506.0 0.001976 508.65701 523.78900
543.0 0.001842 508.54019 522.07159
506.0 0.001976 508.42316 520.29694
478.0 0.002092 508.30591 519.64789
509.0 0.001965 508.18842 519.53448
547.0 0.001828 508.07071 519.98743
508.0 0.001969 507.95279 520.98712
503.0 0.001988 507.83469 522.40314
505.0 0.001980 507.71637 523.92334
498.0 0.002008 507.59790 524.99872
502.0 0.001992 507.47919 524.99115
528.0 0.001894 507.36026 523.66779
529.0 0.001890 507.24118 521.44702
521.0 0.001919 507.12192 518.97406
510.0 0.001961 507.00247 516.71594
528.0 0.001894 506.88284 514.90973
491.0 0.002037 506.76303 513.62799
521.0 0.001919 506.64310 512.83972
492.0 0.002033 506.52295 512.45850
532.0 0.001880 506.40268 512.37683
539.0 0.001855 506.28223 512.49139
522.0 0.001916 506.16162 512.74768
546.0 0.001832 506.04089 513.17010
493.0 0.002028 505.91998 513.79883
539.0 0.001855 505.79895 514.58398
504.0 0.001984 505.67783 515.31805
508.0 0.001969 505.55655 515.63617
560.0 0.001786 505.43512 515.21118
552.0 0.001812 505.31357 514.06500
574.0 0.001742 505.19189 512.53802
532.0 0.001880 505.07010 510.97833
503.0 0.001988 504.94821 509.59363
524.0 0.001908 504.82623 511.06461
505.0 0.001980 504.70413 510.25809
535.0 0.001869 504.58197 509.67688
537.0 0.001862 504.45969 509.26361
509.0 0.001965 504.33731 508.96359
502.0 0.001992 504.21484 508.73541
536.0 0.001866 504.09232 508.55167
492.0 0.002033 503.96970 508.39664
521.0 0.001919 503.84705 508.26132
492.0 0.002033 503.72427 508.14120
502.0 0.001992 503.60150 508.03378
493.0 0.002028 503.47864 507.93768
472.0 0.002119 503.35574 507.85211
533.0 0.001876 503.23276 507.77670
507.0 0.001972 503.10977 507.71164
510.0 0.001961 502.98669 507.65756
510.0 0.001961 502.86362 512.03766
478.0 0.002092 502.74051 512.10272
516.0 0.001938 502.61740 512.19189
515.0 0.001942 502.49426 512.31580
490.0 0.002041 502.37109 512.49255
480.0 0.002083 502.24789 512.74915
464.0 0.002155 502.12473 513.11981
491.0 0.002037 502.00156 513.63873
521.0 0.001919 501.87839 514.32684
512.0 0.001953 501.75519 515.17297
505.0 0.001980 501.63202 516.11157
518.0 0.001931 501.50891 516.99500
518.0 0.001931 501.38577 517.59149
466.0 0.002146 501.26266 517.69910
545.0 0.001835 501.13959 517.33643
515.0 0.001942 501.01657 516.72266
524.0 0.001908 500.89359 516.08246
522.0 0.001916 500.77063 515.55170
533.0 0.001876 500.64771 515.18817
558.0 0.001792 500.52487 514.98151
505.0 0.001980 500.40210 514.94318
494.0 0.002024 500.27936 515.02222
479.0 0.002088 500.15671 515.18640
487.0 0.002053 500.03412 515.41113
488.0 0.002049 499.91162 515.68073
515.0 0.001942 499.78918 515.98663
517.0 0.001934 499.66684 516.32465
523.0 0.001912 499.54459 516.69342
487.0 0.002053 499.42245 517.09290
500.0 0.002000 499.30035 517.52399
530.0 0.001887 499.17841 517.98792
536.0 0.001866 499.05655 518.48627
510.0 0.001961 498.93481 519.02106
526.0 0.001901 498.81320 519.60803
541.0 0.001848 498.69168 520.22314
487.0 0.002053 498.57031 520.88251
511.0 0.001957 498.44910 521.53308
517.0 0.001934 498.32797 522.29230
516.0 0.001938 498.20700 522.93158
506.0 0.001976 498.08618 523.81219
523.0 0.001912 497.96548 524.75446
566.0 0.001767 497.84494 525.76697
526.0 0.001901 497.72458 526.85614
535.0 0.001869 497.60437 528.02887
548.0 0.001825 497.48434 529.29321
538.0 0.001859 497.36444 530.65802
531.0 0.001883 497.24475 532.13336
566.0 0.001767 497.12521 533.73077
529.0 0.001890 497.00586 535.46326
549.0 0.001821 496.88669 537.34552
542.0 0.001845 496.76770 539.39453
527.0 0.001898 496.64893 541.62988
567.0 0.001764 496.53033 544.07410
549.0 0.001821 496.41196 546.75317
547.0 0.001828 496.29376 549.69769
575.0 0.001739 496.17581 552.94312
604.0 0.001656 496.05804 556.53162
639.0 0.001565 495.94049 560.51282
629.0 0.001590 495.82318 564.94611
585.0 0.001709 495.70605 569.90277
583.0 0.001715 495.58917 575.45929
634.0 0.001577 495.47256 581.74011
569.0 0.001757 495.35614 589.10004
599.0 0.001669 495.23999 597.23309
603.0 0.001658 495.12408 606.57104
573.0 0.001745 495.00839 617.37006
605.0 0.001653 494.89297 629.96313
658.0 0.001520 494.77777 644.80182
611.0 0.001637 494.66284 662.53876
629.0 0.001590 494.54822 684.20880
711.0 0.001406 494.43381 711.60437
755.0 0.001325 494.31970 748.00061
785.0 0.001274 494.20584 799.32690
885.0 0.001130 494.09225 875.71411
1024.0 0.000977 493.97894 992.80182
1241.0 0.000806 493.86591 1171.56458
1515.0 0.000660 493.75314 1435.07031
1870.0 0.000535 493.64072 1801.20984
2349.0 0.000426 493.52853 2271.87329
2834.0 0.000353 493.41666 2819.27148
3429.0 0.0002916 493.30508 3368.57202
3737.0 0.0002676 493.19379 3784.57715
3789.0 0.0002639 493.08282 3911.35205
3681.0 0.0002717 492.97214 3696.62183
3175.0 0.0003150 492.86176 3248.89111
2682.0 0.000373 492.75171 2729.39917
2207.0 0.000453 492.64197 2253.72705
1803.0 0.000555 492.53253 1881.79089
1625.0 0.000615 492.42340 1637.46289
1543.0 0.000648 492.31461 1526.97351
1581.0 0.000633 492.20612 1553.89673
1707.0 0.000586 492.09796 1729.17065
1973.0 0.000507 491.99014 2072.55103
2572.0 0.000389 491.88263 2603.64746
3243.0 0.0003084 491.77551 3324.14185
4093.0 0.0002443 491.66867 4194.23975
5117.0 0.0001954 491.56216 5103.08789
5646.0 0.0001771 491.45602 5839.90771
5928.0 0.0001687 491.35022 6132.25928
5645.0 0.0001771 491.24475 5836.61475
4862.0 0.0002057 491.13962 5087.56494
4016.0 0.0002490 491.03485 4156.16357
3251.0 0.0003076 490.93045 3254.92993
2424.0 0.000413 490.82635 2494.84424
1908.0 0.000524 490.72263 1912.69702
1541.0 0.000649 490.61926 1499.46667
1190.0 0.000840 490.51624 1222.50024
1056.0 0.000947 490.41357 1042.89697
974.0 0.001027 490.31131 926.60413
844.0 0.001185 490.20935 848.87201
817.0 0.001224 490.10779 793.96942
772.0 0.001295 490.00659 752.80511
700.0 0.001429 489.90576 720.40674
705.0 0.001418 489.80530 694.04083
653.0 0.001531 489.70517 672.12354
641.0 0.001560 489.60544 653.64825
647.0 0.001546 489.50607 637.91620
644.0 0.001553 489.40707 624.41223
627.0 0.001595 489.30847 612.74341
577.0 0.001733 489.21024 602.60596
581.0 0.001721 489.11237 593.76563
587.0 0.001704 489.01486 586.04810
583.0 0.001715 488.91776 579.33392
554.0 0.001805 488.82101 573.55847
554.0 0.001805 488.72467 568.70892
581.0 0.001721 488.62866 564.81073
567.0 0.001764 488.53308 561.89777
601.0 0.001664 488.43787 559.96429
555.0 0.001802 488.34302 558.90289
563.0 0.001776 488.24857 558.42596
564.0 0.001773 488.15448 557.97449
594.0 0.001684 488.06079 556.74762
562.0 0.001779 487.96747 554.15820
580.0 0.001724 487.87457 550.39746
578.0 0.001730 487.78201 546.20398
531.0 0.001883 487.68985 542.20880
543.0 0.001842 487.59808 538.68011
529.0 0.001890 487.50671 535.58881
574.0 0.001742 487.41568 532.79700
521.0 0.001919 487.32507 530.25739
531.0 0.001883 487.23480 528.02570
528.0 0.001894 487.14496 526.15662
533.0 0.001876 487.05548 524.66681
495.0 0.002020 486.96640 523.55096
531.0 0.001883 486.87772 522.79736
515.0 0.001942 486.78940 522.39764
493.0 0.002028 486.70145 522.35870
491.0 0.002037 486.61389 522.71832
545.0 0.001835 486.52670 523.57117
527.0 0.001898 486.43991 525.11530
509.0 0.001965 486.35349 529.57507
552.0 0.001812 486.26746 533.98975
543.0 0.001842 486.18182 541.27863
568.0 0.001761 486.09653 553.04120
507.0 0.001972 486.01163 571.22168
650.0 0.001538 485.92709 597.65509
639.0 0.001565 485.84293 633.28381
673.0 0.001486 485.75916 677.11060
703.0 0.001422 485.67575 724.85876
752.0 0.001330 485.59271 767.36041
733.0 0.001364 485.51007 790.88953
735.0 0.001361 485.42776 784.75958
704.0 0.001420 485.34586 751.69067
670.0 0.001493 485.26431 704.86804
656.0 0.001524 485.18311 656.76331
592.0 0.001689 485.10226 614.60455
615.0 0.001626 485.02182 581.29352
572.0 0.001748 484.94174 556.98352
565.0 0.001770 484.86197 540.29565
515.0 0.001942 484.78262 529.27649
504.0 0.001984 484.70358 522.06799
511.0 0.001957 484.62494 517.23798
506.0 0.001976 484.54663 513.83325
544.0 0.001838 484.46866 511.28415
560.0 0.001786 484.39105 509.27252
507.0 0.001972 484.31381 507.62430
512.0 0.001953 484.23688 506.24054
549.0 0.001821 484.16031 505.06061
501.0 0.001996 484.08411 504.07944
513.0 0.001949 484.00821 503.19577
503.0 0.001988 483.93268 499.84683
496.0 0.002016 483.85745 499.21838
511.0 0.001957 483.78259 498.66788
503.0 0.001988 483.70804 498.18433
503.0 0.001988 483.63382 497.75916
546.0 0.001832 483.55994 497.38522
504.0 0.001984 483.48639 497.05701
515.0 0.001942 483.41312 496.76993
495.0 0.002020 483.34021 496.52020
510.0 0.001961 483.26761 496.30487
516.0 0.001938 483.19534 496.12152
527.0 0.001898 483.12341 495.96829
472.0 0.002119 483.05173 495.84354
516.0 0.001938 482.98041 495.74631
511.0 0.001957 482.90933 495.67575
504.0 0.001984 482.83859 495.63126
481.0 0.002079 482.76816 491.18787
500.0 0.002000 482.69803 491.28387
500.0 0.002000 482.62817 491.40329
493.0 0.002028 482.55862 491.54666
483.0 0.002070 482.48938 491.71487
473.0 0.002114 482.42038 491.90881
535.0 0.001869 482.35168 492.12985
492.0 0.002033 482.28326 492.37936
513.0 0.001949 482.21512 492.65924
508.0 0.001969 482.14728 492.97153
484.0 0.002066 482.07968 493.31857
493.0 0.002028 482.01236 493.70325
489.0 0.002045 481.94528 494.12857
489.0 0.002045 481.87851 494.59839
492.0 0.002033 481.81195 495.11667
505.0 0.001980 481.74567 495.68842
483.0 0.002070 481.67966 496.31903
488.0 0.002049 481.61389 497.01477
494.0 0.002024 481.54834 497.78302
472.0 0.002119 481.48306 498.63220
498.0 0.002008 481.41803 499.57205
511.0 0.001957 481.35321 500.61389
478.0 0.002092 481.28864 501.77106
489.0 0.002045 481.22427 503.05914
520.0 0.001923 481.16016 504.49649
491.0 0.002037 481.09625 506.10486
498.0 0.002008 481.03256 507.91006
524.0 0.001908 480.96912 509.94318
564.0 0.001773 480.90585 512.24158
527.0 0.001898 480.84283 514.85071
540.0 0.001852 480.77997 517.89508
503.0 0.001988 480.71738 521.30609
535.0 0.001869 480.65491 525.23639
538.0 0.001859 480.59268 529.77881
505.0 0.001980 480.53061 535.09564
534.0 0.001873 480.46878 541.34747
521.0 0.001919 480.40710 548.76495
557.0 0.001795 480.34558 557.66943
560.0 0.001786 480.28427 568.80939
584.0 0.001712 480.22314 582.43622
616.0 0.001623 480.16217 600.20172
607.0 0.001647 480.10132 624.60590
669.0 0.001495 480.04071 660.06567
659.0 0.001517 479.98019 713.83673
736.0 0.001359 479.91989 796.60663
860.0 0.001163 479.85971 921.94519
1101.0 0.000908 479.79965 1103.74829
1334.0 0.000750 479.73978 1351.32825
1666.0 0.000600 479.68002 1662.50159
2015.0 0.000496 479.62042 2014.66418
2284.0 0.000438 479.56094 2353.02246
2652.0 0.000377 479.50159 2584.75757
2653.0 0.000377 479.44238 2615.25220
2406.0 0.000416 479.38324 2429.78320
2073.0 0.000482 479.32428 2109.46338
1658.0 0.000603 479.26538 1753.92847
1418.0 0.000705 479.20663 1428.44507
1155.0 0.000866 479.14798 1162.96399
901.0 0.001110 479.08942 964.13751
823.0 0.001215 479.03094 824.97400
768.0 0.001302 478.97260 732.22864
745.0 0.001342 478.91434 671.89746
673.0 0.001486 478.85614 632.16321
638.0 0.001567 478.79807 605.36646
613.0 0.001631 478.74005 586.18109
578.0 0.001730 478.68210 571.68665
549.0 0.001821 478.62424 560.27179
586.0 0.001706 478.56644 551.04041
592.0 0.001689 478.50870 543.47052
536.0 0.001866 478.45105 537.24469
515.0 0.001942 478.39343 532.17822
542.0 0.001845 478.33585 528.19702
532.0 0.001880 478.27835 525.33209
530.0 0.001887 478.22089 523.71033
537.0 0.001862 478.16348 523.51703
517.0 0.001934 478.10611 524.91821
515.0 0.001942 478.04877 527.94061
519.0 0.001927 477.99146 532.31696
521.0 0.001919 477.93420 537.28107
556.0 0.001799 477.87692 541.34235
538.0 0.001859 477.81970 542.47632
471.0 0.002123 477.76248 539.41919
537.0 0.001862 477.70529 532.92419
510.0 0.001961 477.64810 524.94427
527.0 0.001898 477.59091 517.11957
503.0 0.001988 477.53375 510.33707
468.0 0.002137 477.47659 504.91577
507.0 0.001972 477.41940 500.82513
449.0 0.002227 477.36221 497.84702
492.0 0.002033 477.30502 495.70123
490.0 0.002041 477.24780 494.12924
472.0 0.002119 477.19058 492.93417
520.0 0.001923 477.13336 491.98422
504.0 0.001984 477.07608 491.19846
525.0 0.001905 477.01880 490.52875
496.0 0.002016 476.96149 489.94449
509.0 0.001965 476.90411 489.42902
483.0 0.002070 476.84674 488.96280
452.0 0.002212 476.78931 488.54602
497.0 0.002012 476.73184 488.17868
478.0 0.002092 476.67435 487.86053
496.0 0.002016 476.61676 487.59091
522.0 0.001916 476.55917 487.36880
490.0 0.002041 476.50150 487.19324
481.0 0.002079 476.44376 487.06415
483.0 0.002070 476.38599 486.98453
497.0 0.002012 476.32813 486.95029
474.0 0.002110 476.27020 486.96661
492.0 0.002033 476.21225 487.03754
510.0 0.001961 476.15417 487.16840
492.0 0.002033 476.09607 487.36639
510.0 0.001961 476.03787 487.64078
512.0 0.001953 475.97955 488.00385
482.0 0.002075 475.92120 488.47501
505.0 0.001980 475.86273 489.07068
493.0 0.002028 475.80417 489.82764
465.0 0.002151 475.74554 490.79956
469.0 0.002132 475.68683 492.07660
549.0 0.001821 475.62799 493.81152
506.0 0.001976 475.56906 496.25317
512.0 0.001953 475.51007 499.77560
495.0 0.002020 475.45093 504.87930
528.0 0.001894 475.39169 512.13647
530.0 0.001887 475.33234 522.06549
540.0 0.001852 475.27292 534.94910
523.0 0.001912 475.21335 550.61371
584.0 0.001712 475.15369 568.14185
632.0 0.001582 475.09387 585.60327
599.0 0.001669 475.03397 600.70483
607.0 0.001647 474.97394 613.35205
631.0 0.001585 474.91376 627.32062
613.0 0.001631 474.85349 647.71417
692.0 0.001445 474.79306 677.42615
696.0 0.001437 474.73254 715.42950
725.0 0.001379 474.67188 755.35559
776.0 0.001289 474.61108 785.01636
760.0 0.001316 474.55014 790.20770
818.0 0.001222 474.48907 765.98523
748.0 0.001337 474.42789 721.52972
653.0 0.001531 474.36652 670.64612
648.0 0.001543 474.30502 623.08813
539.0 0.001855 474.24341 583.57556
536.0 0.001866 474.18164 553.40991
522.0 0.001916 474.11972 531.87286
518.0 0.001931 474.05768 517.21051
504.0 0.001984 473.99548 507.48270
480.0 0.002083 473.93311 501.00391
515.0 0.001942 473.87061 496.54529
499.0 0.002004 473.80792 493.31409
502.0 0.001992 473.74515 490.84250
502.0 0.001992 473.68216 487.05194
459.0 0.002179 473.61905 485.45859
537.0 0.001862 473.55579 484.12195
500.0 0.002000 473.49234 482.98438
453.0 0.002208 473.42877 482.00589
488.0 0.002049 473.36499 481.15646
458.0 0.002183 473.30109 480.41327
486.0 0.002058 473.23703 479.75797
496.0 0.002016 473.17282 479.17645
445.0 0.002247 473.10843 478.65704
468.0 0.002137 473.04388 478.19043
496.0 0.002016 472.97919 477.76889
457.0 0.002188 472.91431 477.38617
452.0 0.002212 472.84927 477.03705
472.0 0.002119 472.78406 476.71707
477.0 0.002096 472.71872 476.42276
467.0 0.002141 472.65320 476.15091
417.0 0.002398 472.58752 475.89911
493.0 0.002028 472.52164 475.66483
464.0 0.002155 472.45566 475.44659
465.0 0.002151 472.38950 475.24258
502.0 0.001992 472.32315 475.05225
470.0 0.002128 472.25665 474.87305
454.0 0.002203 472.18997 474.70490
481.0 0.002079 472.12317 474.54700
479.0 0.002088 472.05615 474.39865
464.0 0.002155 471.98901 474.25958
467.0 0.002141 471.92172 474.12949
467.0 0.002141 471.85422 473.97198
457.0 0.002188 471.78659 473.86072
480.0 0.002083 471.71881 473.75931
502.0 0.001992 471.65085 473.66873
498.0 0.002008 471.58273 473.59158
472.0 0.002119 471.51447 473.53232
457.0 0.002188 471.44604 473.49899
480.0 0.002083 471.37744 473.50497
433.0 0.002309 471.30872 474.19348
483.0 0.002070 471.23981 474.35626
471.0 0.002123 471.17078 474.63211
484.0 0.002066 471.10156 475.04202
482.0 0.002075 471.03220 475.58850
506.0 0.001976 470.96271 476.23938
476.0 0.002101 470.89307 476.90576
465.0 0.002151 470.82324 477.42365
472.0 0.002119 470.75333 477.59961
510.0 0.001961 470.68323 477.36530
447.0 0.002237 470.61298 476.86172
470.0 0.002128 470.54263 476.31329
522.0 0.001916 470.47208 475.89001
482.0 0.002075 470.40143 475.68021
486.0 0.002058 470.33063 475.70407
460.0 0.002174 470.25970 475.92230
505.0 0.001980 470.18866 476.23474
491.0 0.002037 470.11746 476.48859
474.0 0.002110 470.04614 476.54907
468.0 0.002137 469.97467 476.41705
468.0 0.002137 469.90311 476.22720
506.0 0.001976 469.83139 476.12244
494.0 0.002024 469.75958 476.17313
502.0 0.001992 469.68762 476.36337
501.0 0.001996 469.61557 476.58856
494.0 0.002024 469.54340 476.67886
434.0 0.002304 469.47110 476.50562
465.0 0.002151 469.39871 476.09909
468.0 0.002137 469.32620 475.60291
504.0 0.001984 469.25360 475.15067
470.0 0.002128 469.18088 474.82095
506.0 0.001976 469.10809 474.65079
500.0 0.002000 469.03516 474.65509
482.0 0.002075 468.96216 474.84457
493.0 0.002028 468.88907 475.24466
481.0 0.002079 468.81589 475.91815
470.0 0.002128 468.74261 476.99008
476.0 0.002101 468.66922 478.66968
482.0 0.002075 468.59583 481.25528
470.0 0.002128 468.52228 485.10352
491.0 0.002037 468.44870 490.47684
473.0 0.002114 468.37506 497.68509
519.0 0.001927 468.30130 506.47940
544.0 0.001838 468.22751 516.08221
557.0 0.001795 468.15366 524.79291
509.0 0.001965 468.07974 530.00848
513.0 0.001949 468.00577 529.60034
493.0 0.002028 467.93176 523.94891
516.0 0.001938 467.85767 515.32837
490.0 0.002041 467.78357 506.82953
525.0 0.001905 467.70941 499.71878
523.0 0.001912 467.63519 494.62766
515.0 0.001942 467.56100 491.55692
483.0 0.002070 467.48669 490.04916
519.0 0.001927 467.41245 489.30371
474.0 0.002110 467.33810 488.39865
512.0 0.001953 467.26379 486.76968
502.0 0.001992 467.18942 484.51755
502.0 0.001992 467.11508 482.08945
490.0 0.002041 467.04074 479.86856
479.0 0.002088 466.96634 478.02219
495.0 0.002020 466.89200 476.61734
453.0 0.002208 466.81760 475.62790
496.0 0.002016 466.74326 474.98505
436.0 0.002294 466.66891 474.60803
489.0 0.002045 466.59457 474.42468
466.0 0.002146 466.52026 474.38092
523.0 0.001912 466.44598 474.44186
478.0 0.002092 466.37173 474.60205
457.0 0.002188 466.29749 474.82401
517.0 0.001934 466.22330 475.11926
513.0 0.001949 466.14914 475.48981
478.0 0.002092 466.07507 475.94101
494.0 0.002024 466.00101 476.48151
456.0 0.002193 465.92703 477.17740
502.0 0.001992 465.85312 477.93744
481.0 0.002079 465.77921 478.83478
440.0 0.002273 465.70541 479.89401
475.0 0.002105 465.63168 481.14316
487.0 0.002053 465.55804 482.61447
505.0 0.001980 465.48447 484.34290
499.0 0.002004 465.41098 486.36621
482.0 0.002075 465.33755 488.72806
500.0 0.002000 465.26428 491.49713
478.0 0.002092 465.19110 494.80975
469.0 0.002132 465.11801 498.91699
523.0 0.001912 465.04501 504.23941
517.0 0.001934 464.97214 511.48532
505.0 0.001980 464.89941 521.85486
494.0 0.002024 464.82678 537.28790
543.0 0.001842 464.75430 560.64465
585.0 0.001709 464.68195 595.62341
606.0 0.001650 464.60974 646.20001
720.0 0.001389 464.53766 715.46350
748.0 0.001337 464.46573 803.89270
854.0 0.001171 464.39398 907.04413
968.0 0.001033 464.32236 1012.27826
1057.0 0.000946 464.25092 1095.62659
1089.0 0.000918 464.17963 1127.04626
1011.0 0.000989 464.10855 1092.03809
943.0 0.001060 464.03763 1006.56256
841.0 0.001189 463.96689 900.76935
755.0 0.001325 463.89633 798.01654
664.0 0.001506 463.82596 710.39990
664.0 0.001506 463.75583 642.02094
575.0 0.001739 463.68588 592.20410
558.0 0.001792 463.61615 557.76501
555.0 0.001802 463.54660 534.72223
507.0 0.001972 463.47733 519.40570
487.0 0.002053 463.40823 509.00473
503.0 0.001988 463.33939 501.62784
474.0 0.002110 463.27081 496.21100
495.0 0.002020 463.20242 491.90277
483.0 0.002070 463.13431 488.41525
482.0 0.002075 463.06641 485.52591
497.0 0.002012 462.99881 483.09451
487.0 0.002053 462.93146 481.02216
507.0 0.001972 462.86438 479.24503
482.0 0.002075 462.79755 477.70691
495.0 0.002020 462.73099 476.36636
489.0 0.002045 462.66476 475.19073
480.0 0.002083 462.59879 474.15369
478.0 0.002092 462.53314 473.23407
479.0 0.002088 462.46774 472.41141
489.0 0.002045 462.40268 471.67819
494.0 0.002024 462.33792 471.01938
511.0 0.001957 462.27347 470.42529
469.0 0.002132 462.20935 469.88794
433.0 0.002309 462.14551 469.40060
489.0 0.002045 462.08206 468.95767
450.0 0.002222 462.01889 468.55429
475.0 0.002105 461.95612 468.18671
478.0 0.002092 461.89365 467.85132
459.0 0.002179 461.83154 468.04669
444.0 0.002252 461.76981 467.77707
505.0 0.001980 461.70837 467.53320
460.0 0.002174 461.64737 467.31360
460.0 0.002174 461.58670 467.11725
435.0 0.002299 461.52646 466.94366
456.0 0.002193 461.46652 466.79239
486.0 0.002058 461.40701 466.66397
459.0 0.002179 461.34790 466.55911
497.0 0.002012 461.28918 466.47922
470.0 0.002128 461.23087 466.37274
495.0 0.002020 461.17291 466.35428
455.0 0.002198 461.11542 466.37656
484.0 0.002066 461.05832 466.45386
458.0 0.002183 461.00165 466.61050
486.0 0.002058 460.94540 466.88504
454.0 0.002203 460.88959 467.33261
468.0 0.002137 460.83423 468.02222
431.0 0.002320 460.77927 469.02567
430.0 0.002326 460.72479 470.39566
455.0 0.002198 460.67072 472.12460
475.0 0.002105 460.61716 474.14929
449.0 0.002227 460.56400 476.22348
467.0 0.002141 460.51135 477.92355
483.0 0.002070 460.45914 478.78073
471.0 0.002123 460.40744 478.69135
521.0 0.001919 460.35617 478.10165
478.0 0.002092 460.30542 477.66229
476.0 0.002101 460.25513 477.88818
480.0 0.002083 460.20535 479.09988
480.0 0.002083 460.15607 481.45840
462.0 0.002165 460.10730 484.96738
482.0 0.002075 460.05899 489.42050
491.0 0.002037 460.01126 494.41345
472.0 0.002119 459.96399 499.64679
528.0 0.001894 459.91727 505.25568
508.0 0.001969 459.87103 511.45163
554.0 0.001805 459.82535 517.72748
520.0 0.001923 459.78021 522.39618
526.0 0.001901 459.73560 523.11578
509.0 0.001965 459.69150 518.77185
517.0 0.001934 459.64798 510.68588
504.0 0.001984 459.60501 501.26376
514.0 0.001946 459.56253 492.32681
556.0 0.001799 459.52069 484.78586
488.0 0.002049 459.47937 478.92130
457.0 0.002188 459.43863 474.64615
474.0 0.002110 459.39841 471.68399
478.0 0.002092 459.35883 469.70004
484.0 0.002066 459.31976 468.39072
454.0 0.002203 459.28131 467.52127
449.0 0.002227 459.24344 466.93344
472.0 0.002119 459.20618 466.53030
472.0 0.002119 459.16949 466.25595
485.0 0.002062 459.13336 466.07974
444.0 0.002252 459.09787 465.98541
480.0 0.002083 459.06296 465.96426
513.0 0.001949 459.02866 466.01312
460.0 0.002174 458.99500 466.13242
448.0 0.002232 458.96191 466.32599
479.0 0.002088 458.92944 466.60196
474.0 0.002110 458.89758 466.97388
464.0 0.002155 458.86636 467.46432
483.0 0.002070 458.83575 467.48901
489.0 0.002045 458.80579 468.37326
472.0 0.002119 458.77643 469.59967
463.0 0.002160 458.74774 471.36603
481.0 0.002079 458.71967 473.98114
451.0 0.002217 458.69220 477.87695
472.0 0.002119 458.66544 483.57697
498.0 0.002008 458.63928 491.59497
496.0 0.002016 458.61377 502.25882
494.0 0.002024 458.58893 515.46094
505.0 0.001980 458.56473 530.30707
515.0 0.001942 458.54117 544.61823
564.0 0.001773 458.51828 554.66437
519.0 0.001927 458.49606 556.55981
517.0 0.001934 458.47449 549.49817
559.0 0.001789 458.45358 536.60199
533.0 0.001876 458.43335 521.96490
505.0 0.001980 458.41379 508.35995
507.0 0.001972 458.39490 497.09860
497.0 0.002012 458.37668 488.53638
489.0 0.002045 458.35910 482.47617
492.0 0.002033 458.34225 478.44962
520.0 0.001923 458.32605 475.92297
505.0 0.001980 458.31052 474.42761
500.0 0.002000 458.29568 473.61526
473.0 0.002114 458.28152 473.25827
479.0 0.002088 458.26810 473.22275
470.0 0.002128 458.25531 473.43738
457.0 0.002188 458.24323 473.86896
475.0 0.002105 458.23184 474.51514
499.0 0.002004 458.22110 475.36328
481.0 0.002079 458.21109 476.43640
457.0 0.002188 458.20178 477.75967
490.0 0.002041 458.19312 479.36935
481.0 0.002079 458.18518 481.31558
502.0 0.001992 458.17798 483.66748
447.0 0.002237 458.17142 486.52206
505.0 0.001980 458.16559 490.02347
519.0 0.001927 458.16046 494.41061
520.0 0.001923 458.15601 500.05157
519.0 0.001927 458.15228 507.62836
493.0 0.002028 458.14920 518.28754
518.0 0.001931 458.14688 533.87476
554.0 0.001805 458.14523 557.10071
557.0 0.001795 458.14429 591.47864
621.0 0.001610 458.14407 640.84149
686.0 0.001458 458.14453 708.31982
741.0 0.001350 458.14572 794.79773
868.0 0.001152 458.14758 896.79700
972.0 0.001029 458.15018 1003.38544
1036.0 0.000965 458.15347 1092.70740
1088.0 0.000919 458.15744 1134.96545
1018.0 0.000982 458.16214 1111.44849
967.0 0.001034 458.16751 1032.94617
872.0 0.001147 458.17358 928.61285
817.0 0.001224 458.18039 823.60583
661.0 0.001513 458.18790 731.81818
671.0 0.001490 458.19608 658.56531
636.0 0.001572 458.20496 604.00531
585.0 0.001709 458.21457 565.47992
562.0 0.001779 458.22485 539.25568
559.0 0.001789 458.23587 521.63794
536.0 0.001866 458.24756 509.65417
545.0 0.001835 458.25995 501.21100
534.0 0.001873 458.27301 494.97595
525.0 0.001905 458.28677 490.66293
509.0 0.001965 458.30124 486.80945
496.0 0.002016 458.31641 483.64465
519.0 0.001927 458.33224 480.98706
482.0 0.002075 458.34882 478.75400
494.0 0.002024 458.36600 476.85010
489.0 0.002045 458.38391 475.21515
472.0 0.002119 458.40250 473.80197
500.0 0.002000 458.42178 472.57361
487.0 0.002053 458.44174 471.44638
497.0 0.002012 458.46237 470.50528
485.0 0.002062 458.48370 469.67581
452.0 0.002212 458.50568 468.94193
484.0 0.002066 458.52832 468.29047
457.0 0.002188 458.55164 467.71030
496.0 0.002016 458.57565 467.20374
481.0 0.002079 458.60028 466.74048
469.0 0.002132 458.62561 466.32504
501.0 0.001996 458.65161 465.95193
483.0 0.002070 458.67825 465.61639
453.0 0.002208 458.70557 465.31424
456.0 0.002193 458.73352 465.04211
444.0 0.002252 458.76212 464.79675
506.0 0.001976 458.79135 464.57571
472.0 0.002119 458.82126 464.37656
472.0 0.002119 458.85181 464.19736
480.0 0.002083 458.88300 464.03632
491.0 0.002037 458.91483 463.89191
435.0 0.002299 458.94727 463.76257
460.0 0.002174 458.98035 463.64737
481.0 0.002079 459.01404 463.54517
497.0 0.002012 459.04837 463.45490
466.0 0.002146 459.08331 463.37589
453.0 0.002208 459.11890 463.30731
480.0 0.002083 459.15506 463.24854
463.0 0.002160 459.19186 463.19897
455.0 0.002198 459.22925 463.15814
451.0 0.002217 459.26727 463.12552
478.0 0.002092 459.30585 463.10086
494.0 0.002024 459.34503 463.08362
490.0 0.002041 459.38480 463.07352
488.0 0.002049 459.42520 463.07056
480.0 0.002083 459.46616 463.07434
473.0 0.002114 459.50766 463.08459
473.0 0.002114 459.54977 463.10144
480.0 0.002083 459.59244 463.12451
477.0 0.002096 459.63571 463.06213
429.0 0.002331 459.67950 463.09961
462.0 0.002165 459.72385 463.14331
459.0 0.002179 459.76877 463.19327
457.0 0.002188 459.81424 463.24951
461.0 0.002169 459.86023 463.31232
518.0 0.001931 459.90677 463.38181
483.0 0.002070 459.95386 463.45813
460.0 0.002174 460.00143 463.54163
447.0 0.002237 460.04956 463.63275
461.0 0.002169 460.09821 463.73190
493.0 0.002028 460.14740 463.83960
479.0 0.002088 460.19708 463.95660
471.0 0.002123 460.24725 464.45511
433.0 0.002309 460.29791 464.59991
470.0 0.002128 460.34909 464.75717
472.0 0.002119 460.40076 464.92871
456.0 0.002193 460.45291 465.11649
445.0 0.002247 460.50552 465.32333
468.0 0.002137 460.55862 465.55347
487.0 0.002053 460.61215 465.81360
467.0 0.002141 460.66620 466.11450
471.0 0.002123 460.72070 466.47400
479.0 0.002088 460.77563 466.92035
470.0 0.002128 460.83099 467.49493
468.0 0.002137 460.88681 468.25232
480.0 0.002083 460.94305 469.25391
484.0 0.002066 460.99973 470.55490
458.0 0.002183 461.05685 472.18268
444.0 0.002252 461.11435 474.10788
484.0 0.002066 461.17227 476.20187
497.0 0.002012 461.23059 478.18161
495.0 0.002020 461.28937 479.62195
470.0 0.002128 461.34848 480.19971
494.0 0.002024 461.40796 480.03296
484.0 0.002066 461.46786 479.61612
495.0 0.002020 461.52811 479.44693
472.0 0.002119 461.58875 479.82721
471.0 0.002123 461.64972 480.85226
471.0 0.002123 461.71109 482.42209
468.0 0.002137 461.77277 484.21481
522.0 0.001916 461.83481 485.68472
465.0 0.002151 461.89716 486.27747
454.0 0.002203 461.95984 486.25519
434.0 0.002304 462.02289 485.23300
484.0 0.002066 462.08618 484.12369
456.0 0.002193 462.14987 483.29230
496.0 0.002016 462.21381 482.92227
436.0 0.002294 462.27805 483.08130
440.0 0.002273 462.34256 483.77457
438.0 0.002283 462.40738 484.98117
482.0 0.002075 462.47247 486.68265
506.0 0.001976 462.53781 488.88382
489.0 0.002045 462.60342 491.62848
483.0 0.002070 462.66931 495.01529
474.0 0.002110 462.73544 498.73108
464.0 0.002155 462.80179 504.09464
515.0 0.001942 462.86841 511.16080
507.0 0.001972 462.93521 520.88098
508.0 0.001969 463.00223 534.79321
513.0 0.001949 463.06952 555.18665
555.0 0.001802 463.13696 585.10510
611.0 0.001637 463.20462 628.03589
691.0 0.001447 463.27246 687.10101
771.0 0.001297 463.34052 763.88593
833.0 0.001200 463.40872 856.67859
905.0 0.001105 463.47711 957.94342
961.0 0.001041 463.54565 1050.87402
1059.0 0.000944 463.61438 1108.98853
1096.0 0.000912 463.68323 1108.70996
982.0 0.001018 463.75220 1050.26001
911.0 0.001098 463.82132 957.43500
817.0 0.001224 463.89059 856.64044
774.0 0.001292 463.95996 764.54828
690.0 0.001449 464.02942 688.62091
633.0 0.001580 464.09906 630.56012
600.0 0.001667 464.16873 588.84009
553.0 0.001808 464.23846 560.35535
537.0 0.001862 464.30835 541.70831
552.0 0.001812 464.37827 529.88696
499.0 0.002004 464.44830 522.55280
522.0 0.001916 464.51834 517.97217
523.0 0.001912 464.58847 514.77466
518.0 0.001931 464.65863 511.79153
522.0 0.001916 464.72882 508.25092
516.0 0.001938 464.79907 504.16132
514.0 0.001946 464.86929 499.83289
523.0 0.001912 464.93958 495.79214
477.0 0.002096 465.00986 492.29251
491.0 0.002037 465.08014 489.41495
456.0 0.002193 465.15039 487.13800
508.0 0.001969 465.22067 485.38556
457.0 0.002188 465.29089 484.06049
498.0 0.002008 465.36108 483.06784
471.0 0.002123 465.43127 482.32846
470.0 0.002128 465.50137 481.78378
471.0 0.002123 465.57147 481.39383
493.0 0.002028 465.64151 481.13321
524.0 0.001908 465.71146 480.98611
490.0 0.002041 465.78131 480.94339
504.0 0.001984 465.85117 481.00058
538.0 0.001859 465.92084 481.15594
490.0 0.002041 465.99048 481.41061
460.0 0.002174 466.06000 481.76852
509.0 0.001965 466.12936 482.23590
474.0 0.002110 466.19867 482.82211
503.0 0.001988 466.26782 483.53961
495.0 0.002020 466.33685 484.89288
459.0 0.002179 466.40576 485.93707
493.0 0.002028 466.47446 487.17941
494.0 0.002024 466.54309 488.65668
463.0 0.002160 466.61151 490.41718
472.0 0.002119 466.67978 492.52759
531.0 0.001883 466.74783 495.08377
498.0 0.002008 466.81577 498.23450
496.0 0.002016 466.88345 502.22382
459.0 0.002179 466.95099 507.46506
492.0 0.002033 467.01828 514.65100
548.0 0.001825 467.08536 524.88715
558.0 0.001792 467.15225 539.80048
576.0 0.001736 467.21890 561.53259
592.0 0.001689 467.28531 592.50598
634.0 0.001577 467.35150 634.88812
721.0 0.001387 467.41742 689.73895
765.0 0.001307 467.48309 755.81281
816.0 0.001225 467.54852 827.76752
801.0 0.001248 467.61365 893.73029
886.0 0.001129 467.67853 935.05328
846.0 0.001182 467.74313 935.18256
850.0 0.001176 467.80743 894.24884
791.0 0.001264 467.87146 828.93768
791.0 0.001264 467.93515 757.85394
684.0 0.001462 467.99857 692.78870
653.0 0.001531 468.06165 639.03125
621.0 0.001610 468.12439 597.80334
554.0 0.001805 468.18686 568.04169
556.0 0.001799 468.24896 547.59015
559.0 0.001789 468.31073 534.05103
515.0 0.001942 468.37213 525.31720
514.0 0.001946 468.43320 519.80493
543.0 0.001842 468.49387 516.46112
499.0 0.002004 468.55420 514.65955
530.0 0.001887 468.61417 514.07599
542.0 0.001845 468.67374 514.59729
545.0 0.001835 468.73294 516.28333
518.0 0.001931 468.79172 519.38574
548.0 0.001825 468.85013 524.42340
538.0 0.001859 468.90811 532.29156
571.0 0.001751 468.96570 544.41718
581.0 0.001721 469.02286 562.75476
569.0 0.001757 469.07962 589.68292
635.0 0.001575 469.13593 627.57733
704.0 0.001420 469.19180 678.07318
795.0 0.001258 469.24725 741.00476
815.0 0.001227 469.30225 812.86682
878.0 0.001139 469.35681 884.49799
954.0 0.001048 469.41089 939.20276
964.0 0.001037 469.46451 957.30151
905.0 0.001105 469.51767 930.61243
887.0 0.001127 469.57034 870.66895
834.0 0.001199 469.62256 797.47668
798.0 0.001253 469.67426 726.32672
689.0 0.001451 469.72549 665.09521
649.0 0.001541 469.77621 616.49432
603.0 0.001658 469.82648 580.24274
532.0 0.001880 469.87619 554.49036
573.0 0.001745 469.92542 536.81543
516.0 0.001938 469.97409 524.90436
517.0 0.001934 470.02225 516.91248
507.0 0.001972 470.06992 511.59897
515.0 0.001942 470.11703 508.06223
534.0 0.001873 470.16364 505.86597
495.0 0.002020 470.20966 504.70667
495.0 0.002020 470.25516 504.33398
520.0 0.001923 470.30008 504.43988
481.0 0.002079 470.34448 504.56985
499.0 0.002004 470.38831 504.16342
505.0 0.001980 470.43158 502.86963
494.0 0.002024 470.47427 500.84720
513.0 0.001949 470.51642 498.57916
492.0 0.002033 470.55795 496.50562
480.0 0.002083 470.59894 494.89352
494.0 0.002024 470.63931 493.88528
492.0 0.002033 470.67911 493.07330
512.0 0.001953 470.71832 493.49026
492.0 0.002033 470.75693 494.71408
514.0 0.001946 470.79492 496.69281
470.0 0.002128 470.83234 499.45105
507.0 0.001972 470.86911 502.90912
502.0 0.001992 470.90530 506.85605
536.0 0.001866 470.94086 510.91446
515.0 0.001942 470.97583 514.74725
512.0 0.001953 471.01013 518.52716
550.0 0.001818 471.04379 523.12964
531.0 0.001883 471.07687 529.55487
539.0 0.001855 471.10931 538.33167
574.0 0.001742 471.14111 549.19934
549.0 0.001821 471.17227 560.80328
584.0 0.001712 471.20279 570.39014
566.0 0.001767 471.23264 574.48553
568.0 0.001761 471.26190 571.22662
541.0 0.001848 471.29047 562.18481
584.0 0.001712 471.31836 550.76038
558.0 0.001792 471.34564 539.75635
539.0 0.001855 471.37225 530.70776
477.0 0.002096 471.39816 524.23102
538.0 0.001859 471.42346 520.42444
485.0 0.002062 471.44809 519.14655
534.0 0.001873 471.47202 520.23077
541.0 0.001848 471.49530 523.68262
569.0 0.001757 471.51788 529.85889
542.0 0.001845 471.53983 539.64032
555.0 0.001802 471.56107 554.56750
572.0 0.001748 471.58163 576.88257
625.0 0.001600 471.60153 609.32721
651.0 0.001536 471.62073 654.69019
679.0 0.001473 471.63925 714.93390
712.0 0.001404 471.65710 789.98120
837.0 0.001195 471.67426 875.93396
930.0 0.001075 471.69070 962.36798
975.0 0.001026 471.70648 1029.91064
1000.0 0.001000 471.72156 1054.99377
1032.0 0.000969 471.73596 1026.51074
976.0 0.001025 471.74966 956.78802
817.0 0.001224 471.76266 869.51996
789.0 0.001267 471.77496 783.54303
691.0 0.001447 471.78656 708.81238
656.0 0.001524 471.79745 648.92462
593.0 0.001686 471.80768 603.77936
556.0 0.001799 471.81720 571.31116
544.0 0.001838 471.82602 548.68066
555.0 0.001802 471.83411 533.09003
530.0 0.001887 471.84152 522.23706
541.0 0.001848 471.84824 514.45282
513.0 0.001949 471.85425 508.63773
487.0 0.002053 471.85956 504.11240
538.0 0.001859 471.86417 500.47107
516.0 0.001938 471.86807 497.46890
512.0 0.001953 471.87125 494.95197
481.0 0.002079 471.87375 492.92917
466.0 0.002146 471.87555 491.10370
478.0 0.002092 471.87665 489.53043
483.0 0.002070 471.87704 487.79468
500.0 0.002000 471.87674 486.61169
494.0 0.002024 471.87573 485.57632
485.0 0.002062 471.87402 484.66641
511.0 0.001957 471.87161 483.86432
492.0 0.002033 471.86853 483.15540
540.0 0.001852 471.86472 482.52777
436.0 0.002294 471.86020 481.97156
492.0 0.002033 471.85504 481.47891
442.0 0.002262 471.84912 481.04312
471.0 0.002123 471.84253 480.65909
469.0 0.002132 471.83527 480.32272
466.0 0.002146 471.82730 480.03076
499.0 0.002004 471.81863 479.78131
507.0 0.001972 471.80930 479.57370
460.0 0.002174 471.79926 479.40878
495.0 0.002020 471.78851 479.28970
469.0 0.002132 471.77713 479.22360
481.0 0.002079 471.76505 479.22266
448.0 0.002232 471.75226 479.30646
494.0 0.002024 471.73880 479.50266
483.0 0.002070 471.72467 479.84607
531.0 0.001883 471.70987 480.37344
461.0 0.002169 471.69440 481.11475
471.0 0.002123 471.67825 482.08054
481.0 0.002079 471.66144 483.24194
470.0 0.002128 471.64395 484.50211
501.0 0.001996 471.62579 485.66379
470.0 0.002128 471.60699 486.46393
464.0 0.002155 471.58752 486.36636
479.0 0.002088 471.56738 486.31961
478.0 0.002092 471.54660 486.31049
529.0 0.001890 471.52515 486.74976
484.0 0.002066 471.50308 487.99591
477.0 0.002096 471.48035 490.36227
553.0 0.001808 471.45697 494.10663
502.0 0.001992 471.43295 499.37949
514.0 0.001946 471.40829 506.12888
500.0 0.002000 471.38300 513.94781
523.0 0.001912 471.35709 521.83087
552.0 0.001812 471.33051 527.97620
562.0 0.001779 471.30334 530.26575
543.0 0.001842 471.27554 527.79419
542.0 0.001845 471.24713 521.77173
517.0 0.001934 471.21808 514.38245
541.0 0.001848 471.18845 507.36551
520.0 0.001923 471.15817 501.69833
490.0 0.002041 471.12732 497.84140
502.0 0.001992 471.09586 495.97253
515.0 0.001942 471.06378 496.17218
508.0 0.001969 471.03116 498.44022
484.0 0.002066 470.99789 502.76242
492.0 0.002033 470.96405 509.04779
514.0 0.001946 470.92966 516.96667
534.0 0.001873 470.89468 525.69940
473.0 0.002114 470.85910 533.74860
580.0 0.001724 470.82297 539.14600
542.0 0.001845 470.78625 540.23688
511.0 0.001957 470.74899 536.59912
539.0 0.001855 470.71118 529.48041
522.0 0.001916 470.67282 521.01001
482.0 0.002075 470.63391 512.90826
493.0 0.002028 470.59445 505.97897
533.0 0.001876 470.55441 500.26318
463.0 0.002160 470.51389 495.47745
475.0 0.002105 470.47281 491.34265
530.0 0.001887 470.43124 487.80414
496.0 0.002016 470.38913 484.88141
461.0 0.002169 470.34650 482.57077
488.0 0.002049 470.30334 480.75192
493.0 0.002028 470.25967 479.36227
495.0 0.002020 470.21555 478.25037
478.0 0.002092 470.17090 477.48486
498.0 0.002008 470.12576 476.93585
473.0 0.002114 470.08011 476.56003
464.0 0.002155 470.03403 476.33194
493.0 0.002028 469.98743 476.24466
455.0 0.002198 469.94037 476.30884
501.0 0.001996 469.89285 476.55063
482.0 0.002075 469.84488 477.00653
501.0 0.001996 469.79642 477.71603
464.0 0.002155 469.74753 478.71115
466.0 0.002146 469.69821 480.00500
475.0 0.002105 469.64844 481.54218
454.0 0.002203 469.59821 483.19360
525.0 0.001905 469.54761 484.71384
487.0 0.002053 469.49652 485.90128
442.0 0.002262 469.44507 486.76941
483.0 0.002070 469.39313 487.49365
489.0 0.002045 469.34085 488.13849
476.0 0.002101 469.28815 488.49393
510.0 0.001961 469.23505 488.19843
468.0 0.002137 469.18158 487.10498
466.0 0.002146 469.12769 484.99054
508.0 0.001969 469.07349 483.27304
501.0 0.001996 469.01883 481.78366
473.0 0.002114 468.96387 480.68933
474.0 0.002110 468.90848 480.05511
458.0 0.002183 468.85278 479.90094
464.0 0.002155 468.79675 480.24304
490.0 0.002041 468.74036 481.13226
493.0 0.002028 468.68362 482.69272
486.0 0.002058 468.62656 485.16043
474.0 0.002110 468.56918 488.90881
499.0 0.002004 468.51144 494.44165
451.0 0.002217 468.45343 502.34232
527.0 0.001898 468.39511 513.14795
536.0 0.001866 468.33649 527.15704
598.0 0.001672 468.27756 544.15314
583.0 0.001715 468.21835 562.97540
588.0 0.001701 468.15884 580.89734
609.0 0.001642 468.09906 593.35248
625.0 0.001600 468.03903 595.66260
578.0 0.001730 467.97870 586.76221
578.0 0.001730 467.91815 570.26099
554.0 0.001805 467.85730 551.14813
551.0 0.001815 467.79626 532.94989
558.0 0.001792 467.73495 517.39404
536.0 0.001866 467.67340 505.02237
494.0 0.002024 467.61166 495.70541
518.0 0.001931 467.54965 488.96976
493.0 0.002028 467.48746 484.22131
482.0 0.002075 467.42502 480.89313
528.0 0.001894 467.36243 478.52573
474.0 0.002110 467.29959 476.78708
457.0 0.002188 467.23657 475.45755
509.0 0.001965 467.17343 474.48508
451.0 0.002217 467.11002 473.61862
446.0 0.002242 467.04651 472.89053
471.0 0.002123 466.98279 472.26828
477.0 0.002096 466.91895 471.72968
426.0 0.002347 466.85492 471.25882
513.0 0.001949 466.79074 470.84341
501.0 0.001996 466.72644 470.47433
438.0 0.002283 466.66202 470.14398
444.0 0.002252 466.59744 469.84641
465.0 0.002151 466.53278 469.57681
478.0 0.002092 466.46796 469.33121
451.0 0.002217 466.40305 469.10629
479.0 0.002088 466.33804 468.89948
461.0 0.002169 466.27289 468.70850
474.0 0.002110 466.20770 468.53159
498.0 0.002008 466.14243 468.36710
460.0 0.002174 466.07706 468.20786
452.0 0.002212 466.01163 468.06488
453.0 0.002208 465.94608 467.93118
450.0 0.002222 465.88055 467.80606
448.0 0.002232 465.81491 468.05328
464.0 0.002155 465.74924 467.95029
483.0 0.002070 465.68350 467.85461
467.0 0.002141 465.61780 467.76639
448.0 0.002232 465.55200 467.68518
455.0 0.002198 465.48621 467.61133
488.0 0.002049 465.42038 467.54498
479.0 0.002088 465.35452 467.55304
465.0 0.002151 465.28870 467.45844
477.0 0.002096 465.22284 467.42032
485.0 0.002062 465.15701 467.39371
492.0 0.002033 465.09119 467.38144
452.0 0.002212 465.02539 467.38766
478.0 0.002092 464.95963 467.41907
457.0 0.002188 464.89383 467.48462
453.0 0.002208 464.82813 467.59583
456.0 0.002193 464.76242 467.76556
475.0 0.002105 464.69681 468.00504
497.0 0.002012 464.63120 468.32220
462.0 0.002165 464.56567 468.71426
469.0 0.002132 464.50021 469.16016
444.0 0.002252 464.43481 469.61020
467.0 0.002141 464.36948 469.98495
465.0 0.002151 464.30426 470.19962
470.0 0.002128 464.23911 470.31686
462.0 0.002165 464.17401 470.40308
443.0 0.002257 464.10904 470.69495
436.0 0.002294 464.04416 471.31204
462.0 0.002165 463.97940 472.39789
468.0 0.002137 463.91476 474.07715
482.0 0.002075 463.85019 476.43497
509.0 0.001965 463.78580 479.47122
445.0 0.002247 463.72150 483.06363
494.0 0.002024 463.65735 486.82327
461.0 0.002169 463.59329 490.00528
468.0 0.002137 463.52942 491.60352
460.0 0.002174 463.46567 490.95187
474.0 0.002110 463.40210 488.33655
535.0 0.001869 463.33868 484.71722
505.0 0.001980 463.27542 480.99698
492.0 0.002033 463.21234 477.71555
501.0 0.001996 463.14938 475.11603
473.0 0.002114 463.08664 473.26901
457.0 0.002188 463.02405 472.15338
473.0 0.002114 462.96170 471.70349
489.0 0.002045 462.89951 471.83395
478.0 0.002092 462.83749 472.44617
490.0 0.002041 462.77570 473.41129
507.0 0.001972 462.71408 474.53192
446.0 0.002242 462.65271 475.51273
479.0 0.002088 462.59152 476.01532
489.0 0.002045 462.53058 475.81958
494.0 0.002024 462.46982 474.94012
481.0 0.002079 462.40933 473.59238
470.0 0.002128 462.34903 472.09015
470.0 0.002128 462.28897 470.66736
433.0 0.002309 462.22916 469.45337
494.0 0.002024 462.16956 468.49066
443.0 0.002257 462.11026 467.76071
456.0 0.002193 462.05115 467.25082
486.0 0.002058 461.99234 466.90964
462.0 0.002165 461.93375 468.23669
448.0 0.002232 461.87543 468.15164
447.0 0.002237 461.81741 468.14557
455.0 0.002198 461.75961 468.20599
452.0 0.002212 461.70209 468.32584
499.0 0.002004 461.64487 468.50070
481.0 0.002079 461.58789 468.72482
488.0 0.002049 461.53119 468.98703
472.0 0.002119 461.47482 469.26608
471.0 0.002123 461.41870 469.53152
454.0 0.002203 461.36285 469.76089
460.0 0.002174 461.30734 469.96185
448.0 0.002232 461.25211 470.16821
491.0 0.002037 461.19717 470.41702
477.0 0.002096 461.14252 470.73550
478.0 0.002092 461.08820 471.81784
433.0 0.002309 461.03418 472.34283
450.0 0.002222 460.98047 472.99237
423.0 0.002364 460.92706 473.68100
464.0 0.002155 460.87399 474.68033
453.0 0.002208 460.82123 475.94904
444.0 0.002252 460.76877 477.60727
520.0 0.001923 460.71664 479.84076
493.0 0.002028 460.66486 482.91959
493.0 0.002028 460.61337 487.18414
516.0 0.001938 460.56223 493.03296
505.0 0.001980 460.51144 500.83893
529.0 0.001890 460.46094 510.83832
506.0 0.001976 460.41080 522.95337
560.0 0.001786 460.36099 536.53790
536.0 0.001866 460.31152 549.96259
539.0 0.001855 460.26239 560.34027
579.0 0.001727 460.21359 564.38110
562.0 0.001779 460.16516 560.77850
561.0 0.001783 460.11707 551.49261
548.0 0.001825 460.06931 539.93909
512.0 0.001953 460.02191 528.80841
493.0 0.002028 459.97485 519.54999
521.0 0.001919 459.92816 512.74182
516.0 0.001938 459.88181 508.48383
524.0 0.001908 459.83582 506.66089
473.0 0.002114 459.79016 507.13885
521.0 0.001919 459.74487 509.92886
518.0 0.001931 459.69995 515.32855
515.0 0.001942 459.65536 524.02344
522.0 0.001916 459.61118 537.12830
565.0 0.001770 459.56729 556.12128
609.0 0.001642 459.52380 582.63312
633.0 0.001580 459.48065 618.05920
637.0 0.001570 459.43787 662.98663
721.0 0.001387 459.39548 716.34674
768.0 0.001302 459.35339 774.04730
836.0 0.001196 459.31171 827.16675
846.0 0.001182 459.27039 862.02240
808.0 0.001238 459.22940 866.76953
863.0 0.001159 459.18878 841.57715
788.0 0.001269 459.14856 798.62787
696.0 0.001437 459.10864 751.77655
733.0 0.001364 459.06912 709.59247
688.0 0.001453 459.02997 674.89893
612.0 0.001634 458.99115 646.46576
579.0 0.001727 458.95273 621.32446
611.0 0.001637 458.91464 597.53986
608.0 0.001645 458.87692 575.31653
561.0 0.001783 458.83954 555.70221
567.0 0.001764 458.80255 539.30054
512.0 0.001953 458.76587 526.11865
530.0 0.001887 458.72961 515.87903
500.0 0.002000 458.69370 508.06412
503.0 0.001988 458.65808 502.23889
474.0 0.002110 458.62286 497.95383
521.0 0.001919 458.58798 494.81912
508.0 0.001969 458.55347 492.52548
478.0 0.002092 458.51929 490.84537
486.0 0.002058 458.48550 489.62149
506.0 0.001976 458.45203 488.75021
484.0 0.002066 458.41891 488.16165
477.0 0.002096 458.38614 487.81696
480.0 0.002083 458.35370 487.68521
500.0 0.002000 458.32162 487.74786
512.0 0.001953 458.28989 487.99319
515.0 0.001942 458.25848 488.41458
493.0 0.002028 458.22739 489.01004
493.0 0.002028 458.19666 489.78098
501.0 0.001996 458.16626 490.73279
517.0 0.001934 458.13620 491.87436
502.0 0.001992 458.10648 493.21857
527.0 0.001898 458.07706 494.78223
510.0 0.001961 458.04797 496.58710
523.0 0.001912 458.01920 498.63632
511.0 0.001957 457.99078 501.01129
556.0 0.001799 457.96265 503.72888
511.0 0.001957 457.93488 506.83981
509.0 0.001965 457.90738 510.40610
520.0 0.001923 457.88019 514.50464
543.0 0.001842 457.85333 519.23145
539.0 0.001855 457.82675 524.70691
504.0 0.001984 457.80051 531.08545
558.0 0.001792 457.77454 538.57013
539.0 0.001855 457.74890 547.44061
570.0 0.001754 457.72354 558.10132
567.0 0.001764 457.69846 571.17194
623.0 0.001605 457.67371 587.63763
582.0 0.001718 457.64917 609.07367
656.0 0.001524 457.62500 637.96741
672.0 0.001488 457.60104 677.98877
718.0 0.001393 457.57739 734.19928
802.0 0.001247 457.55402 812.84320
910.0 0.001099 457.53091 920.62689
987.0 0.001013 457.50809 1063.28564
1141.0 0.000876 457.48547 1244.03003
1457.0 0.000686 457.46317 1457.73340
1663.0 0.000601 457.44110 1689.38782
1914.0 0.000522 457.41931 1904.27869
2058.0 0.000486 457.39774 2047.50854
2079.0 0.000481 457.37640 2067.67847
1989.0 0.000503 457.35535 1958.65369
1832.0 0.000546 457.33450 1765.94556
1621.0 0.000617 457.31390 1547.93030
1386.0 0.000722 457.29355 1345.74414
1164.0 0.000859 457.27341 1180.63562
1101.0 0.000908 457.25348 1061.08765
1001.0 0.000999 457.23380 988.50543
947.0 0.001056 457.21426 960.35229
1008.0 0.000992 457.19501 971.72473
1012.0 0.000988 457.17593 1015.74561
1117.0 0.000895 457.15704 1082.53735
1147.0 0.000872 457.13840 1156.55579
1226.0 0.000816 457.11990 1214.23169
1288.0 0.000776 457.10162 1229.12598
1200.0 0.000833 457.08353 1188.59192
1121.0 0.000892 457.06558 1104.38586
1027.0 0.000974 457.04782 1001.53888
888.0 0.001126 457.03027 899.03497
809.0 0.001236 457.01285 808.51868
753.0 0.001328 456.99557 734.12360
631.0 0.001585 456.97849 675.98846
627.0 0.001595 456.96155 632.14014
578.0 0.001730 456.94476 599.74384
524.0 0.001908 456.92810 576.37848
538.0 0.001859 456.91162 558.77295
518.0 0.001931 456.89523 545.47931
533.0 0.001876 456.87897 535.16296
521.0 0.001919 456.86285 526.92755
543.0 0.001842 456.84686 520.19165
527.0 0.001898 456.83096 514.57996
531.0 0.001883 456.81519 509.75485
558.0 0.001792 456.79953 505.70953
503.0 0.001988 456.78394 502.22293
504.0 0.001984 456.76846 499.18756
481.0 0.002079 456.75308 496.52109
495.0 0.002020 456.73779 494.17386
480.0 0.002083 456.72253 492.12497
427.0 0.002342 456.70740 490.36606
511.0 0.001957 456.69232 488.88647
472.0 0.002119 456.67731 487.66531
458.0 0.002183 456.66235 486.66382
450.0 0.002222 456.64743 485.81378
508.0 0.001969 456.63260 485.01996
508.0 0.001969 456.61777 484.17935
489.0 0.002045 456.60300 483.27371
499.0 0.002004 456.58826 482.35211
520.0 0.001923 456.57355 481.46216
474.0 0.002110 456.55884 480.59427
483.0 0.002070 456.54419 479.69525
492.0 0.002033 456.52951 478.73352
505.0 0.001980 456.51483 477.74258
481.0 0.002079 456.50018 476.78699
488.0 0.002049 456.48553 475.55325
470.0 0.002128 456.47086 474.79846
500.0 0.002000 456.45618 474.15421
469.0 0.002132 456.44147 473.61304
455.0 0.002198 456.42673 473.16351
478.0 0.002092 456.41199 472.79315
454.0 0.002203 456.39716 472.49045
443.0 0.002257 456.38229 472.17905
458.0 0.002183 456.36743 471.98755
482.0 0.002075 456.35248 471.84344
516.0 0.001938 456.33746 471.74496
433.0 0.002309 456.32239 471.69183
481.0 0.002079 456.30725 471.80597
497.0 0.002012 456.29205 471.85162
484.0 0.002066 456.27676 471.95200
511.0 0.001957 456.26138 472.11447
491.0 0.002037 456.24591 472.35019
477.0 0.002096 456.23035 472.67642
504.0 0.001984 456.21466 473.12061
488.0 0.002049 456.19888 473.72717
449.0 0.002227 456.18298 474.56570
495.0 0.002020 456.16699 475.74057
465.0 0.002151 456.15085 477.39676
483.0 0.002070 456.13458 479.71738
504.0 0.001984 456.11816 482.90649
465.0 0.002151 456.10165 487.15140
552.0 0.001812 456.08496 492.56409
531.0 0.001883 456.06812 499.09286
538.0 0.001859 456.05112 506.37994
556.0 0.001799 456.03400 513.54333
508.0 0.001969 456.01666 519.03558
473.0 0.002114 455.99918 521.09204
542.0 0.001845 455.98151 518.96863
500.0 0.002000 455.96362 513.63892
512.0 0.001953 455.94562 506.90414
493.0 0.002028 455.92737 500.22620
525.0 0.001905 455.90894 494.39996
481.0 0.002079 455.89032 489.73141
513.0 0.001949 455.87146 486.24567
485.0 0.002062 455.85242 483.82019
455.0 0.002198 455.83313 482.26736
471.0 0.002123 455.81363 481.39951
513.0 0.001949 455.79391 481.02679
496.0 0.002016 455.77393 481.02673
466.0 0.002146 455.75372 481.30908
481.0 0.002079 455.73331 481.81851
487.0 0.002053 455.71259 482.52487
461.0 0.002169 455.69165 483.41571
477.0 0.002096 455.67044 484.49042
500.0 0.002000 455.64896 485.75711
499.0 0.002004 455.62723 487.23083
504.0 0.001984 455.60519 488.93320
476.0 0.002101 455.58292 490.89294
513.0 0.001949 455.56033 493.14737
433.0 0.002309 455.53745 495.74332
533.0 0.001876 455.51428 498.74069
517.0 0.001934 455.49084 502.21664
476.0 0.002101 455.46707 506.27252
510.0 0.001961 455.44302 511.04688
529.0 0.001890 455.41864 516.73865
528.0 0.001894 455.39395 523.64740
567.0 0.001764 455.36893 530.69836
523.0 0.001912 455.34360 541.74945
557.0 0.001795 455.31793 556.38025
580.0 0.001724 455.29193 576.29327
598.0 0.001672 455.26559 603.83197
658.0 0.001520 455.23892 641.92725
694.0 0.001441 455.21188 693.80530
783.0 0.001277 455.18454 762.39520
865.0 0.001156 455.15680 849.39337
996.0 0.001004 455.12872 953.85449
1010.0 0.000990 455.10028 1069.88708
1157.0 0.000864 455.07144 1183.17676
1206.0 0.000829 455.04227 1268.87708
1346.0 0.000743 455.01273 1299.07910
1236.0 0.000809 454.98279 1261.80103
1166.0 0.000858 454.95245 1174.24927
1074.0 0.000931 454.92178 1064.44360
972.0 0.001029 454.89066 955.61047
892.0 0.001121 454.85919 860.43677
815.0 0.001227 454.82730 783.90045
732.0 0.001366 454.79504 726.61481
727.0 0.001376 454.76233 686.98975
670.0 0.001493 454.72925 662.60016
632.0 0.001582 454.69577 651.20398
674.0 0.001484 454.66183 651.40228
667.0 0.001499 454.62750 663.01001
695.0 0.001439 454.59274 687.11279
714.0 0.001401 454.55759 725.82074
741.0 0.001350 454.52197 781.73096
819.0 0.001221 454.48596 857.11853
942.0 0.001062 454.44949 952.81146
1032.0 0.000969 454.41260 1066.48743
1158.0 0.000864 454.37527 1189.87244
1273.0 0.000786 454.33749 1305.40027
1283.0 0.000779 454.29929 1387.56091
1347.0 0.000742 454.26059 1416.78174
1297.0 0.000771 454.22150 1397.13770
1302.0 0.000768 454.18195 1353.35889
1272.0 0.000786 454.14194 1310.48157
1270.0 0.000787 454.10147 1280.29944
1250.0 0.000800 454.06055 1259.08777
1213.0 0.000824 454.01917 1231.08899
1142.0 0.000876 453.97729 1179.19861
1119.0 0.000894 453.93500 1099.34607
1048.0 0.000954 453.89218 1003.11816
919.0 0.001088 453.84897 906.00250
849.0 0.001178 453.80521 818.34698
730.0 0.001370 453.76105 744.55597
687.0 0.001456 453.71640 685.39673
692.0 0.001445 453.67123 639.49054
647.0 0.001546 453.62561 604.83875
622.0 0.001608 453.57950 579.10553
577.0 0.001733 453.53293 560.08533
532.0 0.001880 453.48587 545.94031
534.0 0.001873 453.43832 535.26801
539.0 0.001855 453.39032 527.07855
539.0 0.001855 453.34177 520.69739
489.0 0.002045 453.29279 515.65790
515.0 0.001942 453.24329 511.59772
502.0 0.001992 453.19330 508.17831
499.0 0.002004 453.14282 505.06180
495.0 0.002020 453.09189 501.99728
495.0 0.002020 453.04041 498.94653
501.0 0.001996 452.98846 496.03952
476.0 0.002101 452.93604 493.43506
503.0 0.001988 452.88309 491.23276
483.0 0.002070 452.82968 489.47324
482.0 0.002075 452.77576 488.16113
428.0 0.002336 452.72134 487.29141
511.0 0.001957 452.66641 486.86099
478.0 0.002092 452.61102 486.90857
491.0 0.002037 452.55511 487.55139
497.0 0.002012 452.49872 489.00839
486.0 0.002058 452.44183 491.60678
507.0 0.001972 452.38443 495.78284
506.0 0.001976 452.32657 502.06271
528.0 0.001894 452.26819 511.00238
501.0 0.001996 452.20932 523.07397
528.0 0.001894 452.14993 538.48981
572.0 0.001748 452.09009 556.93091
583.0 0.001715 452.02972 577.09351
619.0 0.001616 451.96887 596.05554
595.0 0.001681 451.90756 609.09351
563.0 0.001776 451.84570 611.47272
599.0 0.001669 451.78339 601.99915
584.0 0.001712 451.72058 584.12848
538.0 0.001859 451.65729 562.97107
541.0 0.001848 451.59348 542.35950
474.0 0.002110 451.52924 524.28033
538.0 0.001859 451.46448 509.44171
532.0 0.001880 451.39923 497.83148
497.0 0.002012 451.33353 489.06485
504.0 0.001984 451.26730 482.59811
423.0 0.002364 451.20062 477.87180
483.0 0.002070 451.13345 474.39618
434.0 0.002304 451.06586 471.78970
444.0 0.002252 450.99771 469.78046
415.0 0.002410 450.92914 468.18756
465.0 0.002151 450.86014 466.89764
456.0 0.002193 450.79059 465.84317
457.0 0.002188 450.72064 464.98801
446.0 0.002242 450.65018 464.31863
478.0 0.002092 450.57928 463.80011
454.0 0.002203 450.50790 463.67953
495.0 0.002020 450.43610 463.64380
453.0 0.002208 450.36383 463.87192
421.0 0.002375 450.29111 464.38535
491.0 0.002037 450.21793 465.18213
448.0 0.002232 450.14432 466.21231
451.0 0.002217 450.07025 467.33890
500.0 0.002000 449.99573 468.29248
471.0 0.002123 449.92081 468.69699
459.0 0.002179 449.84543 468.26282
423.0 0.002364 449.76962 467.02676
454.0 0.002203 449.69342 465.31540
439.0 0.002278 449.61673 463.48703
471.0 0.002123 449.53964 461.77472
430.0 0.002326 449.46213 460.60986
422.0 0.002370 449.38425 459.38120
461.0 0.002169 449.30588 458.39377
475.0 0.002105 449.22717 457.61362
435.0 0.002299 449.14804 456.99887
479.0 0.002088 449.06848 456.50894
466.0 0.002146 448.98859 456.10983
442.0 0.002262 448.90823 455.77542
460.0 0.002174 448.82755 455.48758
453.0 0.002208 448.74640 455.23407
429.0 0.002331 448.66495 455.00720
500.0 0.002000 448.58310 454.80188
449.0 0.002227 448.50085 454.61499
468.0 0.002137 448.41830 454.44452
411.0 0.002433 448.33530 454.28882
475.0 0.002105 448.25201 454.14722
493.0 0.002028 448.16833 454.01895
458.0 0.002183 448.08432 453.90411
496.0 0.002016 447.99994 453.80255
465.0 0.002151 447.91522 453.71509
469.0 0.002132 447.83017 453.64261
402.0 0.002488 447.74481 453.58679
446.0 0.002242 447.65912 453.55029
448.0 0.002232 447.57309 453.53751
471.0 0.002123 447.48679 453.55518
473.0 0.002114 447.40012 453.61319
440.0 0.002273 447.31317 453.72565
457.0 0.002188 447.22589 453.91068
476.0 0.002101 447.13837 453.55652
433.0 0.002309 447.05051 453.96051
434.0 0.002304 446.96237 454.49765
461.0 0.002169 446.87399 455.17407
478.0 0.002092 446.78531 455.97336
396.0 0.002525 446.69638 456.83817
409.0 0.002445 446.60715 457.64615
451.0 0.002217 446.51770 458.21445
442.0 0.002262 446.42795 458.38501
425.0 0.002353 446.33801 458.15399
478.0 0.002092 446.24783 457.67953
479.0 0.002088 446.15738 457.15784
462.0 0.002165 446.06674 456.73026
458.0 0.002183 445.97583 456.47400
443.0 0.002257 445.88474 456.42679
422.0 0.002370 445.79343 456.60916
427.0 0.002342 445.70190 457.04065
448.0 0.002232 445.61020 457.75244
475.0 0.002105 445.51828 458.80121
498.0 0.002008 445.42624 460.27972
444.0 0.002252 445.33395 462.32666
458.0 0.002183 445.24155 464.49948
474.0 0.002110 445.14893 468.29733
483.0 0.002070 445.05618 473.33844
489.0 0.002045 444.96326 479.87650
519.0 0.001927 444.87021 488.10242
508.0 0.001969 444.77698 498.02844
545.0 0.001835 444.68369 509.29037
473.0 0.002114 444.59024 520.55310
526.0 0.001901 444.49661 531.43231
535.0 0.001869 444.40298 540.78778
549.0 0.001821 444.30914 548.88629
550.0 0.001818 444.21527 556.06647
565.0 0.001770 444.12131 561.38098
588.0 0.001701 444.02722 562.42767
576.0 0.001736 443.93311 557.06763
519.0 0.001927 443.83887 545.62018
509.0 0.001965 443.74460 530.79797
497.0 0.002012 443.65024 515.40314
493.0 0.002028 443.55588 501.36957
518.0 0.001931 443.46143 489.51450
484.0 0.002066 443.36697 480.00204
446.0 0.002242 443.27246 472.65674
482.0 0.002075 443.17798 467.14413
479.0 0.002088 443.08347 463.08096
559.0 0.001789 442.98889 460.10324
442.0 0.002262 442.89441 457.90573
466.0 0.002146 442.79984 456.25031
477.0 0.002096 442.70535 454.98077
498.0 0.002008 442.61084 453.98080
474.0 0.002110 442.51642 453.17804
483.0 0.002070 442.42197 452.52463
475.0 0.002105 442.32761 451.98993
469.0 0.002132 442.23328 451.55298
477.0 0.002096 442.13901 451.19873
505.0 0.001980 442.04483 450.91672
473.0 0.002114 441.95068 450.69797
473.0 0.002114 441.85666 450.53796
457.0 0.002188 441.76270 450.43192
459.0 0.002179 441.66885 450.37692
466.0 0.002146 441.57513 450.37143
469.0 0.002132 441.48148 450.41476
456.0 0.002193 441.38797 450.50748
449.0 0.002227 441.29459 450.66016
458.0 0.002183 441.20135 450.85724
438.0 0.002283 441.10822 451.11124
467.0 0.002141 441.01526 451.42703
448.0 0.002232 440.92245 451.81085
487.0 0.002053 440.82983 452.27087
467.0 0.002141 440.73740 452.81677
461.0 0.002169 440.64508 453.34192
458.0 0.002183 440.55301 454.10263
468.0 0.002137 440.46109 454.99811
449.0 0.002227 440.36942 456.05453
504.0 0.001984 440.27792 457.30847
448.0 0.002232 440.18668 458.81134
482.0 0.002075 440.09561 460.63986
461.0 0.002169 440.00482 462.91302
478.0 0.002092 439.91428 465.80270
449.0 0.002227 439.82394 469.57416
475.0 0.002105 439.73392 474.59937
479.0 0.002088 439.64410 481.36835
500.0 0.002000 439.55460 490.47073
498.0 0.002008 439.46533 502.53467
526.0 0.001901 439.37640 518.11328
541.0 0.001848 439.28775 537.51453
553.0 0.001808 439.19937 560.50519
583.0 0.001715 439.11136 585.87665
589.0 0.001698 439.02359 610.74573
614.0 0.001629 438.93622 630.22217
650.0 0.001538 438.84912 638.95148
628.0 0.001592 438.76242 634.87335
661.0 0.001513 438.67599 621.27301
607.0 0.001647 438.58997 604.24365
616.0 0.001623 438.50433 589.18213
580.0 0.001724 438.41901 579.67279
586.0 0.001706 438.33408 577.94373
606.0 0.001650 438.24951 585.43341
622.0 0.001608 438.16537 603.01416
633.0 0.001580 438.08160 630.96283
657.0 0.001522 437.99826 668.57446
721.0 0.001387 437.91531 713.47711
724.0 0.001381 437.83279 760.34882
807.0 0.001239 437.75070 799.68811
826.0 0.001211 437.66904 819.29150
800.0 0.001250 437.58780 810.98572
745.0 0.001342 437.50702 777.32684
751.0 0.001332 437.42673 729.29291
692.0 0.001445 437.34683 677.79596
606.0 0.001650 437.26746 630.00891
621.0 0.001610 437.18857 589.16144
568.0 0.001761 437.11011 556.11237
563.0 0.001776 437.03214 530.43982
525.0 0.001905 436.95468 511.08878
496.0 0.002016 436.87775 496.79025
487.0 0.002053 436.80127 486.26462
470.0 0.002128 436.72534 478.46320
491.0 0.002037 436.64993 472.56516
447.0 0.002237 436.57507 467.98328
471.0 0.002123 436.50073 464.32001
506.0 0.001976 436.42691 461.31482
478.0 0.002092 436.35367 458.79822
459.0 0.002179 436.28094 456.65799
456.0 0.002193 436.20877 454.81683
434.0 0.002304 436.13721 453.21902
427.0 0.002342 436.06619 451.82260
464.0 0.002155 435.99573 450.59509
437.0 0.002288 435.92590 449.51074
418.0 0.002392 435.85666 448.54865
461.0 0.002169 435.78796 447.69168
421.0 0.002375 435.71991 446.92609
493.0 0.002028 435.65247 446.24045
429.0 0.002331 435.58563 445.62518
436.0 0.002294 435.51938 445.07248
438.0 0.002283 435.45380 444.57596
449.0 0.002227 435.38882 444.13019
461.0 0.002169 435.32446 443.73080
458.0 0.002183 435.26080 443.37454
419.0 0.002387 435.19772 443.05814
458.0 0.002183 435.13531 442.77527
437.0 0.002288 435.07355 442.53394
429.0 0.002331 435.01248 442.32864
437.0 0.002288 434.95206 442.15930
443.0 0.002257 434.89230 442.02701
458.0 0.002183 434.83325 441.93329
450.0 0.002222 434.77484 441.88144
471.0 0.002123 434.71716 441.87637
467.0 0.002141 434.66013 441.92581
448.0 0.002232 434.60382 442.04156
441.0 0.002268 434.54819 442.24051
428.0 0.002336 434.49326 442.54575
418.0 0.002392 434.43903 442.98795
489.0 0.002045 434.38556 443.60449
441.0 0.002268 434.33276 444.43753
419.0 0.002387 434.28070 445.53073
445.0 0.002247 434.22940 446.92499
444.0 0.002252 434.17874 448.64929
410.0 0.002439 434.12888 450.70587
403.0 0.002481 434.07974 453.04520
442.0 0.002262 434.03137 455.56293
511.0 0.001957 433.98370 458.18762
506.0 0.001976 433.93680 461.01224
452.0 0.002212 433.89063 464.49780
461.0 0.002169 433.84521 469.06311
466.0 0.002146 433.80060 475.00635
501.0 0.001996 433.75668 482.30847
506.0 0.001976 433.71356 490.38803
506.0 0.001976 433.67120 498.20236
444.0 0.002252 433.62964 503.70468
520.0 0.001923 433.58881 504.88034
477.0 0.002096 433.54877 501.07330
492.0 0.002033 433.50952 493.54593
489.0 0.002045 433.47104 484.39673
488.0 0.002049 433.43332 475.31192
447.0 0.002237 433.39639 467.21799
481.0 0.002079 433.36029 460.47733
460.0 0.002174 433.32495 455.12943
438.0 0.002283 433.29041 451.04471
441.0 0.002268 433.25665 448.01602
473.0 0.002114 433.22369 445.81573
452.0 0.002212 433.19153 444.23224
443.0 0.002257 433.16016 443.08789
420.0 0.002381 433.12964 442.24747
428.0 0.002336 433.09985 441.62152
457.0 0.002188 433.07089 441.16739
433.0 0.002309 433.04276 440.87830
431.0 0.002320 433.01541 440.76740
449.0 0.002227 432.98886 440.85715
434.0 0.002304 432.96317 441.17145
447.0 0.002237 432.93823 441.72974
440.0 0.002273 432.91412 442.53662
437.0 0.002288 432.89081 443.56894
408.0 0.002451 432.86832 444.73654
464.0 0.002155 432.84665 445.86273
449.0 0.002227 432.82578 446.66202
447.0 0.002237 432.80573 446.84155
453.0 0.002208 432.78650 446.30481
446.0 0.002242 432.76804 445.23633
460.0 0.002174 432.75043 443.94891
446.0 0.002242 432.73364 442.69940
438.0 0.002283 432.71765 441.63422
456.0 0.002193 432.70245 440.81641
424.0 0.002358 432.68808 440.25919
440.0 0.002273 432.67453 439.94769
438.0 0.002283 432.66174 439.85300
428.0 0.002336 432.64984 439.94318
460.0 0.002174 432.63870 440.18481
429.0 0.002331 432.62836 440.53281
466.0 0.002146 432.61884 440.91751
451.0 0.002217 432.61014 441.25763
460.0 0.002174 432.60220 441.50928
413.0 0.002421 432.59509 441.70923
485.0 0.002062 432.58881 441.94916
431.0 0.002320 432.58328 442.30847
452.0 0.002212 432.57855 442.81281
478.0 0.002092 432.57462 443.41663
449.0 0.002227 432.57150 443.99725
444.0 0.002252 432.56918 444.38568
454.0 0.002203 432.56763 444.46631
428.0 0.002336 432.56686 444.27325
447.0 0.002237 432.56689 443.96268
422.0 0.002370 432.56769 443.69781
429.0 0.002331 432.56931 443.44482
422.0 0.002370 432.57166 443.57840
437.0 0.002288 432.57477 443.99301
431.0 0.002320 432.57870 444.73703
423.0 0.002364 432.58337 445.87906
442.0 0.002262 432.58881 447.52628
447.0 0.002237 432.59500 449.84290
429.0 0.002331 432.60196 453.06384
425.0 0.002353 432.60968 457.49686
460.0 0.002174 432.61813 463.50598
448.0 0.002232 432.62735 471.46817
491.0 0.002037 432.63733 481.69989
490.0 0.002041 432.64798 494.44400
494.0 0.002024 432.65942 509.28409
497.0 0.002012 432.67160 525.09973
550.0 0.001818 432.68448 540.54321
576.0 0.001736 432.69809 552.03796
567.0 0.001764 432.71243 556.21814
579.0 0.001727 432.72745 551.92804
594.0 0.001684 432.74319 541.24890
508.0 0.001969 432.75967 527.75610
556.0 0.001799 432.77682 514.32446
495.0 0.002020 432.79468 502.39206
486.0 0.002058 432.81320 492.22406
507.0 0.001972 432.83243 483.44266
492.0 0.002033 432.85236 475.60562
438.0 0.002283 432.87292 468.57565
477.0 0.002096 432.89417 462.44830
441.0 0.002268 432.91608 457.30338
462.0 0.002165 432.93863 453.10602
459.0 0.002179 432.96185 449.74350
439.0 0.002278 432.98572 447.07932
430.0 0.002326 433.01022 444.98163
438.0 0.002283 433.03534 443.33344
443.0 0.002257 433.06113 442.03448
440.0 0.002273 433.08749 441.00229
462.0 0.002165 433.11450 440.17169
454.0 0.002203 433.14212 439.49323
456.0 0.002193 433.17032 438.93018
409.0 0.002445 433.19913 438.45636
437.0 0.002288 433.22852 438.05307
433.0 0.002309 433.25851 437.70670
466.0 0.002146 433.28903 437.40714
439.0 0.002278 433.32016 437.14700
407.0 0.002457 433.35187 436.92029
446.0 0.002242 433.38409 436.72208
429.0 0.002331 433.41684 436.54861
447.0 0.002237 433.45016 436.39651
424.0 0.002358 433.48401 436.26328
455.0 0.002198 433.51837 436.14651
446.0 0.002242 433.55328 436.04434
443.0 0.002257 433.58868 435.95523
422.0 0.002370 433.62457 435.87747
417.0 0.002398 433.66095 435.81006
428.0 0.002336 433.69785 435.75198
439.0 0.002278 433.73520 435.70221
464.0 0.002155 433.77298 436.00558
406.0 0.002463 433.81128 435.97495
417.0 0.002398 433.85001 435.95071
386.0 0.002591 433.88919 435.93237
446.0 0.002242 433.92877 435.91940
469.0 0.002132 433.96884 435.91150
440.0 0.002273 434.00931 435.90814
450.0 0.002222 434.05014 435.90900
432.0 0.002315 434.09143 435.91394
435.0 0.002299 434.13309 435.92276
412.0 0.002427 434.17511 435.93506
464.0 0.002155 434.21753 435.95071
411.0 0.002433 434.26031 435.96964
431.0 0.002320 434.30344 435.99155
440.0 0.002273 434.34692 436.00864
461.0 0.002169 434.39075 436.03647
424.0 0.002358 434.43488 436.06702
417.0 0.002398 434.47934 436.10025
436.0 0.002294 434.52414 436.13611
440.0 0.002273 434.56921 436.17459
450.0 0.002222 434.61456 436.21573
418.0 0.002392 434.66022 436.25949
422.0 0.002370 434.70612 436.91956
419.0 0.002387 434.75232 436.91629
443.0 0.002257 434.79874 436.97797
393.0 0.002545 434.84540 437.04282
437.0 0.002288 434.89230 437.11142
455.0 0.002198 434.93942 437.18390
441.0 0.002268 434.98676 437.26080
393.0 0.002545 435.03430 437.34305
427.0 0.002342 435.08203 437.43158
439.0 0.002278 435.12991 437.52820
409.0 0.002445 435.17801 437.63559
393.0 0.002545 435.22626 437.75729
443.0 0.002257 435.27463 437.89883
421.0 0.002375 435.32318 438.06720
458.0 0.002183 435.37183 438.27069
409.0 0.002445 435.42062 438.51981
424.0 0.002358 435.46948 438.82343
458.0 0.002183 435.51849 439.18814
460.0 0.002174 435.56757 439.61478
436.0 0.002294 435.61670 440.09256
453.0 0.002208 435.66595 440.58948
424.0 0.002358 435.71521 441.04205
459.0 0.002179 435.76453 441.35934
474.0 0.002110 435.81390 441.46381
431.0 0.002320 435.86328 441.34888
470.0 0.002128 435.91266 441.08502
442.0 0.002262 435.96207 440.76584
430.0 0.002326 436.01147 440.44891
440.0 0.002273 436.06082 440.18973
432.0 0.002315 436.11017 439.99252
456.0 0.002193 436.15948 439.85797
449.0 0.002227 436.20871 439.78009
421.0 0.002375 436.25790 439.75000
439.0 0.002278 436.30704 439.75836
461.0 0.002169 436.35605 439.79630
476.0 0.002101 436.40500 439.85678
442.0 0.002262 436.45383 439.93445
441.0 0.002268 436.50253 440.02579
427.0 0.002342 436.55115 440.12863
444.0 0.002252 436.59958 440.24155
423.0 0.002364 436.64786 440.36395
429.0 0.002331 436.69601 440.49332
438.0 0.002283 436.74399 440.63528
421.0 0.002375 436.79178 440.78769
429.0 0.002331 436.83936 440.95102
451.0 0.002217 436.88678 441.12561
415.0 0.002410 436.93393 441.31143
424.0 0.002358 436.98090 441.50699
441.0 0.002268 437.02762 441.70963
433.0 0.002309 437.07410 441.97067
450.0 0.002222 437.12030 442.17548
474.0 0.002110 437.16623 442.37939
423.0 0.002364 437.21188 442.58734
436.0 0.002294 437.25726 442.80621
438.0 0.002283 437.30234 443.04184
464.0 0.002155 437.34711 443.29865
452.0 0.002212 437.39154 443.58014
438.0 0.002283 437.43564 443.88977
432.0 0.002315 437.47943 444.23172
464.0 0.002155 437.52283 444.61081
442.0 0.002262 437.56586 445.03360
483.0 0.002070 437.60852 445.50845
438.0 0.002283 437.65082 446.04529
451.0 0.002217 437.69269 446.65594
437.0 0.002288 437.73419 447.35324
420.0 0.002381 437.77524 448.15015
460.0 0.002174 437.81589 449.05853
440.0 0.002273 437.85608 450.08618
458.0 0.002183 437.89584 451.23318
471.0 0.002123 437.93512 452.48898
456.0 0.002193 437.97394 453.84271
451.0 0.002217 438.01230 455.20834
457.0 0.002188 438.05017 456.90463
459.0 0.002179 438.08749 459.00513
467.0 0.002141 438.12439 461.76038
476.0 0.002101 438.16071 465.47183
459.0 0.002179 438.19653 470.48715
457.0 0.002188 438.23181 477.18677
527.0 0.001898 438.26651 486.01865
474.0 0.002110 438.30069 497.13385
493.0 0.002028 438.33426 510.71347
542.0 0.001845 438.36731 526.48584
555.0 0.001802 438.39975 543.47308
546.0 0.001832 438.43158 559.55682
580.0 0.001724 438.46283 571.36426
594.0 0.001684 438.49344 575.38110
615.0 0.001626 438.52347 570.25543
540.0 0.001852 438.55286 557.92285
575.0 0.001739 438.58157 542.03339
530.0 0.001887 438.60965 525.75269
520.0 0.001923 438.63708 510.94797
524.0 0.001908 438.66385 498.42587
497.0 0.002012 438.68994 488.36203
472.0 0.002119 438.71533 480.59833
480.0 0.002083 438.74005 474.81564
472.0 0.002119 438.76407 470.63956
465.0 0.002151 438.78738 467.70734
482.0 0.002075 438.80997 465.70724
462.0 0.002165 438.83185 464.39462
447.0 0.002237 438.85297 463.59155
447.0 0.002237 438.87335 463.17584
476.0 0.002101 438.89304 463.06885
436.0 0.002294 438.91193 463.22229
456.0 0.002193 438.93002 463.60944
456.0 0.002193 438.94739 464.21637
452.0 0.002212 438.96399 465.04144
447.0 0.002237 438.97977 466.09106
448.0 0.002232 438.99478 467.37924
435.0 0.002299 439.00900 468.92856
431.0 0.002320 439.02240 470.77084
455.0 0.002198 439.03497 472.95038
477.0 0.002096 439.04675 475.52808
502.0 0.001992 439.05771 478.59003
510.0 0.001961 439.06781 482.26035
479.0 0.002088 439.07712 486.72275
482.0 0.002075 439.08554 492.25009
465.0 0.002151 439.09311 499.24457
485.0 0.002062 439.09985 508.28055
538.0 0.001859 439.10574 520.14081
543.0 0.001842 439.11072 535.82556
546.0 0.001832 439.11484 556.51404
576.0 0.001736 439.11810 583.45392
664.0 0.001506 439.12048 617.76898
728.0 0.001374 439.12198 660.15039
718.0 0.001393 439.12256 710.35956
788.0 0.001269 439.12225 766.36798
851.0 0.001175 439.12106 823.02692
923.0 0.001083 439.11893 870.95203
923.0 0.001083 439.11594 898.07635
944.0 0.001059 439.11200 895.95520
929.0 0.001076 439.10712 866.29205
869.0 0.001151 439.10135 819.55994
839.0 0.001192 439.09467 767.60443
762.0 0.001312 439.08704 718.71460
730.0 0.001370 439.07846 677.08826
689.0 0.001451 439.06897 644.39563
686.0 0.001458 439.05853 620.89911
637.0 0.001570 439.04715 606.27380
620.0 0.001613 439.03482 600.10498
611.0 0.001637 439.02155 602.23212
641.0 0.001560 439.00732 612.96783
661.0 0.001513 438.99213 633.18408
660.0 0.001515 438.97601 664.23926
706.0 0.001416 438.95892 707.73981
721.0 0.001387 438.94089 765.12640
808.0 0.001238 438.92188 837.04352
948.0 0.001055 438.90192 922.32867
1090.0 0.000917 438.88098 1016.30896
1142.0 0.000876 438.85910 1108.37280
1225.0 0.000816 438.83624 1180.61816
1287.0 0.000777 438.81241 1212.21509
1256.0 0.000796 438.78760 1191.62708
1243.0 0.000805 438.76187 1125.71472
1146.0 0.000873 438.73514 1034.08081
1014.0 0.000986 438.70746 936.15723
923.0 0.001083 438.67880 844.46436
785.0 0.001274 438.64917 764.92249
793.0 0.001261 438.61859 699.28204
726.0 0.001377 438.58704 647.04449
661.0 0.001513 438.55453 606.58325
571.0 0.001751 438.52103 575.81427
557.0 0.001795 438.48657 552.61932
532.0 0.001880 438.45120 535.10431
567.0 0.001764 438.41483 521.72473
523.0 0.001912 438.37750 511.30875
521.0 0.001919 438.33923 503.01633
512.0 0.001953 438.29999 496.26843
477.0 0.002096 438.25980 490.67429
491.0 0.002037 438.21863 485.97531
506.0 0.001976 438.17657 481.98251
487.0 0.002053 438.13354 478.57224
434.0 0.002304 438.08957 475.64990
481.0 0.002079 438.04465 473.14093
458.0 0.002183 437.99881 470.98245
500.0 0.002000 437.95203 469.11493
477.0 0.002096 437.90433 467.52222
419.0 0.002387 437.85568 466.04953
452.0 0.002212 437.80612 464.69272
451.0 0.002217 437.75568 463.43842
460.0 0.002174 437.70428 462.29224
466.0 0.002146 437.65201 461.28290
447.0 0.002237 437.59882 460.43048
443.0 0.002257 437.54474 459.74844
446.0 0.002242 437.48975 459.26721
455.0 0.002198 437.43387 458.96317
458.0 0.002183 437.37714 458.88022
463.0 0.002160 437.31952 459.05884
435.0 0.002299 437.26102 459.56284
454.0 0.002203 437.20166 460.48615
418.0 0.002392 437.14145 461.95801
426.0 0.002347 437.08035 464.14215
439.0 0.002278 437.01846 467.22888
474.0 0.002110 436.95569 471.41388
481.0 0.002079 436.89215 476.86508
491.0 0.002037 436.82773 483.66760
463.0 0.002160 436.76251 491.73529
460.0 0.002174 436.69650 500.65625
490.0 0.002041 436.62964 509.46829
479.0 0.002088 436.56204 516.51831
528.0 0.001894 436.49362 519.83124
528.0 0.001894 436.42444 518.21155
534.0 0.001873 436.35446 512.17175
486.0 0.002058 436.28378 503.51392
493.0 0.002028 436.21231 494.12366
475.0 0.002105 436.14008 485.26205
529.0 0.001890 436.06717 477.55106
473.0 0.002114 435.99350 471.19626
436.0 0.002294 435.91910 466.17648
447.0 0.002237 435.84399 462.35712
435.0 0.002299 435.76825 459.55707
453.0 0.002208 435.69180 457.59091
410.0 0.002439 435.61465 456.29636
438.0 0.002283 435.53687 455.54910
439.0 0.002278 435.45837 455.27005
442.0 0.002262 435.37930 455.42609
456.0 0.002193 435.29953 456.03091
476.0 0.002101 435.21921 457.14484
435.0 0.002299 435.13824 458.87671
486.0 0.002058 435.05667 461.38150
461.0 0.002169 434.97455 464.86041
459.0 0.002179 434.89182 469.51306
483.0 0.002070 434.80850 475.57089
445.0 0.002247 434.72467 483.25540
483.0 0.002070 434.64029 492.72809
506.0 0.001976 434.55536 503.96439
518.0 0.001931 434.46994 516.51935
504.0 0.001984 434.38403 529.20398
564.0 0.001773 434.29761 539.83447
593.0 0.001686 434.21072 545.59192
578.0 0.001730 434.12335 544.44360
507.0 0.001972 434.03558 536.65393
531.0 0.001883 433.94730 524.56537
495.0 0.002020 433.85864 510.94525
443.0 0.002257 433.76956 497.77625
500.0 0.002000 433.68008 486.09097
490.0 0.002041 433.59024 476.16412
466.0 0.002146 433.50000 468.20844
475.0 0.002105 433.40942 461.94116
420.0 0.002381 433.31848 457.09738
438.0 0.002283 433.22726 453.39185
427.0 0.002342 433.13568 450.55759
419.0 0.002387 433.04385 448.36990
418.0 0.002392 432.95169 446.65244
438.0 0.002283 432.85931 445.27548
421.0 0.002375 432.76666 444.14786
430.0 0.002326 432.67374 443.20752
440.0 0.002273 432.58066 442.41299
441.0 0.002268 432.48730 441.73788
418.0 0.002392 432.39380 441.15829
430.0 0.002326 432.30008 440.66153
415.0 0.002410 432.20627 440.23495
439.0 0.002278 432.11227 439.86569
430.0 0.002326 432.01816 439.53851
415.0 0.002410 431.92395 439.23483
402.0 0.002488 431.82959 438.93668
404.0 0.002475 431.73520 438.63541
444.0 0.002252 431.64072 438.33539
417.0 0.002398 431.54623 438.04868
446.0 0.002242 431.45166 437.78656
454.0 0.002203 431.35712 437.55627
448.0 0.002232 431.26257 437.36160
423.0 0.002364 431.16800 437.20377
448.0 0.002232 431.07352 437.08395
426.0 0.002347 430.97906 437.04373
409.0 0.002445 430.88470 437.00378
434.0 0.002304 430.79037 437.00693
447.0 0.002237 430.69623 437.05725
435.0 0.002299 430.60214 437.16113
431.0 0.002320 430.50821 437.32831
443.0 0.002257 430.41443 437.57324
464.0 0.002155 430.32083 437.91779
429.0 0.002331 430.22742 438.39618
457.0 0.002188 430.13422 439.05911
457.0 0.002188 430.04126 439.97546
467.0 0.002141 429.94849 441.23013
420.0 0.002381 429.85602 442.91754
402.0 0.002488 429.76379 445.13724
441.0 0.002268 429.67191 447.95990
480.0 0.002083 429.58032 451.42856
474.0 0.002110 429.48901 455.15381
488.0 0.002049 429.39813 459.62610
452.0 0.002212 429.30756 464.03094
493.0 0.002028 429.21738 467.57892
523.0 0.001912 429.12756 469.34042
435.0 0.002299 429.03824 468.73654
437.0 0.002288 428.94931 466.00739
443.0 0.002257 428.86084 462.00848
476.0 0.002101 428.77286 457.65927
464.0 0.002155 428.68533 453.59851
428.0 0.002336 428.59833 450.16589
504.0 0.001984 428.51181 447.50473
441.0 0.002268 428.42590 445.67795
462.0 0.002165 428.34048 444.61566
438.0 0.002283 428.25568 444.32605
473.0 0.002114 428.17148 444.69312
433.0 0.002309 428.08783 445.66187
426.0 0.002347 428.00488 447.11063
457.0 0.002188 427.92255 448.83652
480.0 0.002083 427.84085 450.50687
453.0 0.002208 427.75986 451.67090
418.0 0.002392 427.67957 451.92307
441.0 0.002268 427.59998 450.55258
439.0 0.002278 427.52112 449.05127
459.0 0.002179 427.44305 447.22803
429.0 0.002331 427.36569 445.41913
427.0 0.002342 427.28912 443.78912
449.0 0.002227 427.21335 442.37656
453.0 0.002208 427.13843 441.17780
454.0 0.002203 427.06430 440.20935
438.0 0.002283 426.99106 439.51337
409.0 0.002445 426.91867 439.13321
481.0 0.002079 426.84714 439.10202
427.0 0.002342 426.77655 439.44952
460.0 0.002174 426.70682 440.21216
467.0 0.002141 426.63806 441.43979
455.0 0.002198 426.57022 443.19482
442.0 0.002262 426.50339 445.54224
470.0 0.002128 426.43747 448.53030
473.0 0.002114 426.37262 452.17554
489.0 0.002045 426.30875 456.47858
466.0 0.002146 426.24588 461.46527
458.0 0.002183 426.18408 467.17511
483.0 0.002070 426.12332 473.52289
440.0 0.002273 426.06363 480.08078
520.0 0.001923 426.00504 485.92966
490.0 0.002041 425.94754 489.81934
469.0 0.002132 425.89114 490.80695
487.0 0.002053 425.83591 488.93970
488.0 0.002049 425.78180 485.17511
501.0 0.001996 425.72885 480.72626
452.0 0.002212 425.67706 476.49356
508.0 0.001969 425.62646 472.89099
461.0 0.002169 425.57709 469.84421
465.0 0.002151 425.52887 466.90689
508.0 0.001969 425.48193 463.55911
489.0 0.002045 425.43622 459.58890
463.0 0.002160 425.39175 455.21603
476.0 0.002101 425.34857 450.85690
467.0 0.002141 425.30661 446.84875
471.0 0.002123 425.26599 443.36145
418.0 0.002392 425.22665 440.43509
441.0 0.002268 425.18866 438.03906
446.0 0.002242 425.15195 436.11096
445.0 0.002247 425.11658 434.57715
471.0 0.002123 425.08261 433.36380
479.0 0.002088 425.04993 432.40375
439.0 0.002278 425.01868 431.63947
457.0 0.002188 424.98877 431.02496
442.0 0.002262 424.96027 430.52496
413.0 0.002421 424.93317 430.11392
420.0 0.002381 424.90747 429.71307
401.0 0.002494 424.88321 429.43137
412.0 0.002427 424.86035 429.19965
408.0 0.002451 424.83896 429.01239
415.0 0.002410 424.81900 428.86694
451.0 0.002217 424.80051 428.76312
436.0 0.002294 424.78348 428.70331
418.0 0.002392 424.76791 428.69278
428.0 0.002336 424.75385 428.74527
426.0 0.002347 424.74127 428.86453
412.0 0.002427 424.73019 429.07208
391.0 0.002558 424.72061 429.38766
458.0 0.002183 424.71252 429.83228
448.0 0.002232 424.70596 430.42499
434.0 0.002304 424.70096 431.17761
451.0 0.002217 424.69745 432.08673
448.0 0.002232 424.69550 433.11963
458.0 0.002183 424.69507 434.18677
436.0 0.002294 424.69620 435.12796
435.0 0.002299 424.69885 435.72256
403.0 0.002481 424.70309 435.78415
457.0 0.002188 424.70889 435.28702
437.0 0.002288 424.71625 434.68134
451.0 0.002217 424.72516 433.60257
435.0 0.002299 424.73566 432.52399
441.0 0.002268 424.74774 431.55038
427.0 0.002342 424.76138 430.72653
435.0 0.002299 424.77661 430.06198
409.0 0.002445 424.79343 429.54733
443.0 0.002257 424.81183 429.07565
433.0 0.002309 424.83179 428.80505
425.0 0.002353 424.85333 428.62427
473.0 0.002114 424.87650 428.51553
441.0 0.002268 424.90125 428.46457
408.0 0.002451 424.92755 428.46167
422.0 0.002370 424.95547 428.50104
466.0 0.002146 424.98495 428.58017
413.0 0.002421 425.01602 428.69962
462.0 0.002165 425.04874 428.86282
459.0 0.002179 425.08298 429.07422
457.0 0.002188 425.11880 429.33923
412.0 0.002427 425.15622 429.66360
412.0 0.002427 425.19522 430.05090
450.0 0.002222 425.23575 430.50082
387.0 0.002584 425.27786 431.00446
454.0 0.002203 425.32159 431.53934
433.0 0.002309 425.36685 432.06525
435.0 0.002299 425.41367 432.53555
453.0 0.002208 425.46207 432.92596
434.0 0.002304 425.51199 433.26318
436.0 0.002294 425.56345 433.61935
410.0 0.002439 425.61646 434.08478
427.0 0.002342 425.67099 434.98782
440.0 0.002273 425.72705 435.93741
441.0 0.002268 425.78464 437.26114
412.0 0.002427 425.84372 439.05637
475.0 0.002105 425.90436 441.42542
445.0 0.002247 425.96643 444.46188
474.0 0.002110 426.03003 448.23459
471.0 0.002123 426.09509 452.75314
473.0 0.002114 426.16162 457.91125
474.0 0.002110 426.22961 463.39172
515.0 0.001942 426.29907 468.55164
453.0 0.002208 426.37000 472.41409
479.0 0.002088 426.44229 473.97836
479.0 0.002088 426.51608 472.82004
470.0 0.002128 426.59122 469.41492
488.0 0.002049 426.66782 465.19684
469.0 0.002132 426.74573 460.33548
452.0 0.002212 426.82504 455.87607
450.0 0.002222 426.90576 452.13940
499.0 0.002004 426.98776 449.23813
444.0 0.002252 427.07120 447.16891
440.0 0.002273 427.15585 445.86212
441.0 0.002268 427.24188 445.20627
443.0 0.002257 427.32919 445.05667
472.0 0.002119 427.41779 445.24966
435.0 0.002299 427.50763 445.63007
459.0 0.002179 427.59872 446.12756
458.0 0.002183 427.69110 446.77249
405.0 0.002469 427.78464 447.65286
427.0 0.002342 427.87943 448.84000
491.0 0.002037 427.97537 450.34695
416.0 0.002404 428.07251 452.14874
444.0 0.002252 428.17075 454.22736
421.0 0.002375 428.27017 456.77075
448.0 0.002232 428.37070 459.96124
438.0 0.002283 428.47232 463.99213
430.0 0.002326 428.57504 468.91541
464.0 0.002155 428.67880 474.53912
475.0 0.002105 428.78363 480.32840
505.0 0.001980 428.88947 485.37427
480.0 0.002083 428.99631 488.57681
521.0 0.001919 429.10413 489.07187
495.0 0.002020 429.21289 486.64490
530.0 0.001887 429.32263 481.83530
466.0 0.002146 429.43329 475.66959
463.0 0.002160 429.54486 469.14859
489.0 0.002045 429.65726 463.00784
454.0 0.002203 429.77057 457.62405
438.0 0.002283 429.88464 453.10898
453.0 0.002208 429.99960 449.47656
426.0 0.002347 430.11530 446.62158
428.0 0.002336 430.23175 444.42447
442.0 0.002262 430.34900 442.75970
401.0 0.002494 430.46692 441.51111
452.0 0.002212 430.58557 440.57959
442.0 0.002262 430.70483 439.88400
424.0 0.002358 430.82480 439.36874
418.0 0.002392 430.94537 438.98819
412.0 0.002427 431.06650 438.71219
427.0 0.002342 431.18823 438.51984
414.0 0.002415 431.31052 438.39749
430.0 0.002326 431.43332 438.33676
448.0 0.002232 431.55658 438.33331
420.0 0.002381 431.68036 438.38635
415.0 0.002410 431.80453 438.49844
463.0 0.002160 431.92917 438.67490
442.0 0.002262 432.05414 438.92404
426.0 0.002347 432.17947 439.25620
423.0 0.002364 432.30518 439.67770
460.0 0.002174 432.43112 440.20657
435.0 0.002299 432.55740 440.84360
433.0 0.002309 432.68390 441.58682
405.0 0.002469 432.81067 442.42197
469.0 0.002132 432.93756 443.30869
409.0 0.002445 433.06470 444.15051
452.0 0.002212 433.19189 444.83856
471.0 0.002123 433.31921 445.21579
451.0 0.002217 433.44666 445.20508
449.0 0.002227 433.57407 444.86780
435.0 0.002299 433.70157 444.33817
428.0 0.002336 433.82901 443.75818
437.0 0.002288 433.95648 443.22412
418.0 0.002392 434.08380 442.76563
417.0 0.002398 434.21106 442.43951
471.0 0.002123 434.33823 442.22580
428.0 0.002336 434.46518 442.11517
425.0 0.002353 434.59198 442.09436
439.0 0.002278 434.71854 442.14944
423.0 0.002364 434.84488 442.26740
444.0 0.002252 434.97089 442.64645
461.0 0.002169 435.09665 442.86234
471.0 0.002123 435.22202 443.11633
398.0 0.002513 435.34702 443.40558
418.0 0.002392 435.47165 443.72968
456.0 0.002193 435.59583 444.09058
439.0 0.002278 435.71957 444.49280
445.0 0.002247 435.84277 444.94260
410.0 0.002439 435.96548 445.44864
453.0 0.002208 436.08765 446.02139
446.0 0.002242 436.20923 446.67203
435.0 0.002299 436.33014 447.41153
430.0 0.002326 436.45044 448.24841
453.0 0.002208 436.57010 449.18542
440.0 0.002273 436.68896 450.21375
429.0 0.002331 436.80719 451.30298
441.0 0.002268 436.92459 452.39114
403.0 0.002481 437.04120 453.38702
459.0 0.002179 437.15695 454.20319
451.0 0.002217 437.27188 454.81326
454.0 0.002203 437.38593 455.27487
490.0 0.002041 437.49899 455.69083
477.0 0.002096 437.61118 456.15244
442.0 0.002262 437.72232 456.70926
449.0 0.002227 437.83249 457.37042
455.0 0.002198 437.94162 458.12137
470.0 0.002128 438.04968 458.94876
448.0 0.002232 438.15659 459.86398
467.0 0.002141 438.26236 460.90271
475.0 0.002105 438.36703 462.10150
461.0 0.002169 438.47049 463.51862
425.0 0.002353 438.57272 465.18323
487.0 0.002053 438.67371 467.13440
465.0 0.002151 438.77344 469.41949
467.0 0.002141 438.87183 472.10196
473.0 0.002114 438.96890 475.27090
493.0 0.002028 439.06461 479.05325
448.0 0.002232 439.15891 483.63147
456.0 0.002193 439.25183 489.26495
442.0 0.002262 439.34326 496.31229
501.0 0.001996 439.43326 505.25232
534.0 0.001873 439.52173 516.69348
554.0 0.001805 439.60870 531.36389
582.0 0.001718 439.69409 550.07300
615.0 0.001626 439.77786 573.63470
620.0 0.001613 439.86011 602.74091
642.0 0.001558 439.94067 637.75775
639.0 0.001565 440.01959 678.37775
741.0 0.001350 440.09680 723.01801
784.0 0.001276 440.17236 767.94958
829.0 0.001206 440.24612 806.62598
873.0 0.001145 440.31818 830.59137
836.0 0.001196 440.38843 833.15460
835.0 0.001198 440.45685 813.76233
822.0 0.001217 440.52347 778.41333
728.0 0.001374 440.58823 735.61035
754.0 0.001326 440.65115 692.33173
667.0 0.001499 440.71213 652.72931
643.0 0.001555 440.77121 618.67804
648.0 0.001543 440.82834 590.65454
587.0 0.001704 440.88351 568.39325
581.0 0.001721 440.93668 551.26672
539.0 0.001855 440.98788 538.50623
548.0 0.001825 441.03705 529.34155
554.0 0.001805 441.08414 523.08789
524.0 0.001908 441.12921 519.19684
470.0 0.002128 441.17221 517.27930
511.0 0.001957 441.21307 517.11060
507.0 0.001972 441.25183 518.62933
537.0 0.001862 441.28845 521.93011
479.0 0.002088 441.32297 527.25940
525.0 0.001905 441.35526 535.00525
488.0 0.002049 441.38538 545.67804
566.0 0.001767 441.41333 559.87335
545.0 0.001835 441.43906 578.16919
581.0 0.001721 441.46252 601.19196
666.0 0.001502 441.48380 629.21729
660.0 0.001515 441.50278 662.07507
700.0 0.001429 441.51950 698.65930
725.0 0.001379 441.53394 736.27008
792.0 0.001263 441.54608 770.07025
834.0 0.001199 441.55594 793.66736
879.0 0.001138 441.56345 801.81299
851.0 0.001175 441.56866 793.89429
828.0 0.001208 441.57153 774.65161
796.0 0.001256 441.57205 751.28503
788.0 0.001269 441.57025 730.20898
767.0 0.001304 441.56604 715.81403
706.0 0.001416 441.55948 710.76117
720.0 0.001389 441.55057 716.55981
768.0 0.001302 441.53925 733.95978
806.0 0.001241 441.52551 763.01697
817.0 0.001224 441.50943 802.85645
872.0 0.001147 441.49094 851.05157
978.0 0.001022 441.47003 902.62830
1021.0 0.000979 441.44672 949.09247
1031.0 0.000970 441.42099 979.19592
1049.0 0.000953 441.39288 983.11066
967.0 0.001034 441.36234 958.27429
947.0 0.001056 441.32935 911.06805
895.0 0.001117 441.29401 852.29974
902.0 0.001109 441.25623 791.56189
837.0 0.001195 441.21600 734.96210
767.0 0.001304 441.17343 685.30750
696.0 0.001437 441.12839 643.46741
665.0 0.001504 441.08096 609.11212
609.0 0.001642 441.03113 581.41211
611.0 0.001637 440.97891 559.35632
557.0 0.001795 440.92426 541.93274
559.0 0.001789 440.86725 528.21039
525.0 0.001905 440.80786 517.37952
535.0 0.001869 440.74606 508.77533
528.0 0.001894 440.68192 501.88123
484.0 0.002066 440.61542 496.31271
545.0 0.001835 440.54654 491.79898
458.0 0.002183 440.47531 488.15259
465.0 0.002151 440.40176 485.24683
472.0 0.002119 440.32590 482.99527
496.0 0.002016 440.24771 481.33627
427.0 0.002342 440.16724 480.22079
440.0 0.002273 440.08444 479.59848
478.0 0.002092 439.99939 479.48468
486.0 0.002058 439.91205 479.57050
516.0 0.001938 439.82248 479.71768
447.0 0.002237 439.73065 479.60406
461.0 0.002169 439.63663 478.90045
459.0 0.002179 439.54037 477.44363
465.0 0.002151 439.44199 475.33917
516.0 0.001938 439.34140 472.87842
483.0 0.002070 439.23865 470.36447
460.0 0.002174 439.13379 468.00818
459.0 0.002179 439.02679 465.91934
439.0 0.002278 438.91772 464.13797
449.0 0.002227 438.80655 462.66479
441.0 0.002268 438.69336 461.48111
421.0 0.002375 438.57809 460.55942
463.0 0.002160 438.46088 459.87161
424.0 0.002358 438.34167 459.39212
410.0 0.002439 438.22046 459.09583
432.0 0.002315 438.09735 458.98474
420.0 0.002381 437.97229 459.05191
471.0 0.002123 437.84543 459.30890
456.0 0.002193 437.71661 459.77921
456.0 0.002193 437.58600 460.50143
450.0 0.002222 437.45361 461.63516
455.0 0.002198 437.31940 463.03775
424.0 0.002358 437.18347 464.89578
432.0 0.002315 437.04578 467.29916
450.0 0.002222 436.90643 470.33737
479.0 0.002088 436.76538 474.08679
465.0 0.002151 436.62277 478.58826
439.0 0.002278 436.47849 483.80804
510.0 0.001961 436.33270 489.57495
477.0 0.002096 436.18536 495.49542
504.0 0.001984 436.03647 500.91653
511.0 0.001957 435.88617 505.07730
524.0 0.001908 435.73434 507.51776
502.0 0.001992 435.58121 508.47601
491.0 0.002037 435.42664 508.85486
468.0 0.002137 435.27078 509.81253
521.0 0.001919 435.11359 512.40271
504.0 0.001984 434.95520 517.46661
474.0 0.002110 434.79556 525.66718
533.0 0.001876 434.63467 537.52710
535.0 0.001869 434.47272 553.41614
555.0 0.001802 434.30957 573.45966
602.0 0.001661 434.14539 597.34576
600.0 0.001667 433.98013 623.96887
641.0 0.001560 433.81393 650.91760
666.0 0.001502 433.64679 674.12103
700.0 0.001429 433.47864 688.37781
723.0 0.001383 433.30969 689.50604
708.0 0.001412 433.13983 676.90814
646.0 0.001548 432.96924 653.97284
673.0 0.001486 432.79785 625.83197
617.0 0.001621 432.62579 596.90112
588.0 0.001701 432.45297 569.92957
588.0 0.001701 432.27963 546.22949
545.0 0.001835 432.10565 526.19177
539.0 0.001855 431.93106 509.71121
488.0 0.002049 431.75604 496.41577
508.0 0.001969 431.58054 485.83771
503.0 0.001988 431.40463 477.48190
491.0 0.002037 431.22827 470.88422
494.0 0.002024 431.05170 465.64178
462.0 0.002165 430.87473 461.42551
486.0 0.002058 430.69757 457.97946
461.0 0.002169 430.52026 455.11237
446.0 0.002242 430.34268 452.68463
427.0 0.002342 430.16507 450.59656
442.0 0.002262 429.98730 448.77606
455.0 0.002198 429.80963 447.17145
430.0 0.002326 429.63187 445.74377
422.0 0.002370 429.45425 444.46390
457.0 0.002188 429.27673 443.30890
446.0 0.002242 429.09933 442.26013
438.0 0.002283 428.92215 441.30310
458.0 0.002183 428.74518 440.42657
445.0 0.002247 428.56857 439.61765
473.0 0.002114 428.39221 438.86905
430.0 0.002326 428.21628 438.17358
448.0 0.002232 428.04074 437.52509
422.0 0.002370 427.86572 436.91803
430.0 0.002326 427.69119 436.34824
440.0 0.002273 427.51718 435.81158
430.0 0.002326 427.34384 435.30493
436.0 0.002294 427.17105 434.82504
437.0 0.002288 426.99902 434.36972
439.0 0.002278 426.82770 433.93643
411.0 0.002433 426.65717 433.52359
407.0 0.002457 426.48740 433.14041
431.0 0.002320 426.31857 432.76343
424.0 0.002358 426.15063 432.40216
436.0 0.002294 425.98361 432.05545
420.0 0.002381 425.81763 431.72260
438.0 0.002283 425.65259 431.40240
450.0 0.002222 425.48871 431.09430
434.0 0.002304 425.32590 430.80566
417.0 0.002398 425.16428 430.51987
400.0 0.002500 425.00388 430.24432
402.0 0.002488 424.84464 429.99167
455.0 0.002198 424.68677 429.73590
450.0 0.002222 424.53015 429.19144
417.0 0.002398 424.37491 428.95810
411.0 0.002433 424.22104 428.73447
413.0 0.002421 424.06870 428.52084
442.0 0.002262 423.91772 428.31747
423.0 0.002364 423.76834 428.12527
396.0 0.002525 423.62051 427.94556
431.0 0.002320 423.47421 427.77756
408.0 0.002451 423.32959 427.62265
455.0 0.002198 423.18655 427.48068
394.0 0.002538 423.04532 427.35129
417.0 0.002398 422.90570 427.23209
426.0 0.002347 422.76791 427.11853
443.0 0.002257 422.63193 427.00409
434.0 0.002304 422.49774 426.87701
396.0 0.002525 422.36548 426.73157
460.0 0.002174 422.23505 426.56766
413.0 0.002421 422.10657 426.39172
402.0 0.002488 421.98001 426.21341
399.0 0.002506 421.85550 426.04065
405.0 0.002469 421.73294 425.87814
429.0 0.002331 421.61246 425.72867
432.0 0.002315 421.49405 425.59308
402.0 0.002488 421.37772 425.47134
441.0 0.002268 421.26352 425.36298
454.0 0.002203 421.15146 425.26736
409.0 0.002445 421.04163 425.18448
432.0 0.002315 420.93393 425.11319
394.0 0.002538 420.82849 425.05356
385.0 0.002597 420.72525 425.00549
396.0 0.002525 420.62433 424.72772
386.0 0.002591 420.52570 424.70578
392.0 0.002551 420.42932 424.69601
407.0 0.002457 420.33533 424.69910
432.0 0.002315 420.24362 424.71692
424.0 0.002358 420.15430 424.74811
403.0 0.002481 420.06735 424.79489
457.0 0.002188 419.98282 424.85971
438.0 0.002283 419.90067 424.94177
403.0 0.002481 419.82095 425.04404
414.0 0.002415 419.74371 425.16864
412.0 0.002427 419.66885 425.31790
419.0 0.002387 419.59650 425.49475
433.0 0.002309 419.52658 425.70645
448.0 0.002232 419.45917 426.04657
427.0 0.002342 419.39423 425.91986
462.0 0.002165 419.33179 426.25415
442.0 0.002262 419.27185 426.64148
424.0 0.002358 419.21442 427.09045
451.0 0.002217 419.15948 427.61215
428.0 0.002336 419.10709 428.22095
410.0 0.002439 419.05719 428.93472
405.0 0.002469 419.00980 429.77698
460.0 0.002174 418.96497 430.77917
461.0 0.002169 418.92264 431.98065
452.0 0.002212 418.88281 433.44312
437.0 0.002288 418.84555 435.23923
437.0 0.002288 418.81076 437.46500
461.0 0.002169 418.77850 440.23819
440.0 0.002273 418.74872 443.69489
446.0 0.002242 418.72147 447.98676
457.0 0.002188 418.69669 453.27576
471.0 0.002123 418.67438 459.72577
466.0 0.002146 418.65454 467.47409
505.0 0.001980 418.63721 476.57126
500.0 0.002000 418.62231 486.88095
519.0 0.001927 418.60983 497.92603
518.0 0.001931 418.59982 508.70557
536.0 0.001866 418.59219 517.62213
533.0 0.001876 418.58694 522.80402
564.0 0.001773 418.58411 522.94635
566.0 0.001767 418.58365 518.12299
544.0 0.001838 418.58551 509.74246
551.0 0.001815 418.58972 499.69702
513.0 0.001949 418.59622 489.54779
502.0 0.001992 418.60504 480.30203
490.0 0.002041 418.61612 472.43433
467.0 0.002141 418.62943 466.12521
452.0 0.002212 418.64496 461.39542
433.0 0.002309 418.66269 458.19821
479.0 0.002088 418.68259 456.47397
434.0 0.002304 418.70465 456.18329
473.0 0.002114 418.72882 457.32538
457.0 0.002188 418.75507 459.94437
483.0 0.002070 418.78339 464.12271
457.0 0.002188 418.81372 469.96088
461.0 0.002169 418.84610 477.54376
485.0 0.002062 418.88043 486.88208
458.0 0.002183 418.91669 497.81583
494.0 0.002024 418.95483 509.85526
566.0 0.001767 418.99487 521.96906
555.0 0.001802 419.03674 532.43860
557.0 0.001795 419.08041 539.08484
539.0 0.001855 419.12585 540.10394
549.0 0.001821 419.17303 535.10742
529.0 0.001890 419.22189 525.37585
544.0 0.001838 419.27240 513.04462
512.0 0.001953 419.32452 500.07544
523.0 0.001912 419.37823 487.77084
461.0 0.002169 419.43344 476.80011
481.0 0.002079 419.49017 467.40549
499.0 0.002004 419.54837 459.58557
485.0 0.002062 419.60797 453.21228
447.0 0.002237 419.66891 448.09848
485.0 0.002062 419.73123 444.00485
406.0 0.002463 419.79480 440.79953
448.0 0.002232 419.85956 438.26865
425.0 0.002353 419.92560 436.26089
419.0 0.002387 419.99274 434.65466
413.0 0.002421 420.06100 433.35626
435.0 0.002299 420.13028 432.29605
435.0 0.002299 420.20062 431.42334
407.0 0.002457 420.27188 430.70224
447.0 0.002237 420.34412 430.10770
433.0 0.002309 420.41718 429.62280
441.0 0.002268 420.49106 429.23645
419.0 0.002387 420.56573 428.94266
458.0 0.002183 420.64111 428.73898
423.0 0.002364 420.71719 428.62546
421.0 0.002375 420.79388 428.39441
445.0 0.002247 420.87119 428.47131
425.0 0.002353 420.94897 428.64554
434.0 0.002304 421.02725 428.91595
410.0 0.002439 421.10602 429.27423
427.0 0.002342 421.18512 429.69763
420.0 0.002381 421.26459 430.14139
446.0 0.002242 421.34430 430.53235
443.0 0.002257 421.42429 430.77921
449.0 0.002227 421.50446 430.80664
422.0 0.002370 421.58475 430.59872
448.0 0.002232 421.66513 430.20834
406.0 0.002463 421.74557 429.72440
404.0 0.002475 421.82599 429.25827
423.0 0.002364 421.90634 428.80981
417.0 0.002398 421.98660 428.43787
424.0 0.002358 422.06674 428.15527
460.0 0.002174 422.14664 427.96542
438.0 0.002283 422.22629 427.86652
405.0 0.002469 422.30569 427.87247
426.0 0.002347 422.38467 427.94098
460.0 0.002174 422.46332 428.08414
408.0 0.002451 422.54153 428.29367
455.0 0.002198 422.61923 428.55829
439.0 0.002278 422.69644 428.86154
422.0 0.002370 422.77307 429.18152
394.0 0.002538 422.84909 429.49783
429.0 0.002331 422.92441 429.80377
443.0 0.002257 422.99905 430.11716
371.0 0.002695 423.07297 430.47705
396.0 0.002525 423.14606 430.93149
436.0 0.002294 423.21835 431.52618
493.0 0.002028 423.28979 432.30008
463.0 0.002160 423.36029 433.28497
464.0 0.002155 423.42984 434.50369
441.0 0.002268 423.49841 435.96567
450.0 0.002222 423.56598 437.65479
428.0 0.002336 423.63245 439.51126
449.0 0.002227 423.69781 441.41528
432.0 0.002315 423.76208 443.19464
435.0 0.002299 423.82516 444.68616
455.0 0.002198 423.88705 445.83093
436.0 0.002294 423.94772 446.72079
440.0 0.002273 424.00708 447.53220
446.0 0.002242 424.06519 448.40848
487.0 0.002053 424.12195 449.37161
433.0 0.002309 424.17734 450.30759
443.0 0.002257 424.23135 451.01205
445.0 0.002247 424.28397 451.26639
457.0 0.002188 424.33514 450.89990
433.0 0.002309 424.38483 449.83655
454.0 0.002203 424.43307 448.14008
427.0 0.002342 424.47977 446.01605
478.0 0.002092 424.52496 443.73340
458.0 0.002183 424.56860 441.52411
474.0 0.002110 424.61066 439.53232
436.0 0.002294 424.65115 437.81860
430.0 0.002326 424.69000 436.38669
437.0 0.002288 424.72726 435.21219
405.0 0.002469 424.76285 434.26675
451.0 0.002217 424.79681 433.51459
434.0 0.002304 424.82913 432.92996
403.0 0.002481 424.85974 432.47946
406.0 0.002463 424.88870 432.12213
443.0 0.002257 424.91592 431.81467
465.0 0.002151 424.94147 431.52213
399.0 0.002506 424.96530 431.22842
452.0 0.002212 424.98746 430.93887
444.0 0.002252 425.00784 430.83875
409.0 0.002445 425.02655 430.60275
441.0 0.002268 425.04352 430.40903
384.0 0.002604 425.05875 430.26138
406.0 0.002463 425.07230 430.16074
418.0 0.002392 425.08411 430.10690
406.0 0.002463 425.09421 430.09921
417.0 0.002398 425.10257 430.13776
375.0 0.002667 425.10925 430.22351
426.0 0.002347 425.11426 430.35812
441.0 0.002268 425.11752 430.54416
437.0 0.002288 425.11914 430.78503
422.0 0.002370 425.11908 431.08347
422.0 0.002370 425.11734 431.44046
392.0 0.002551 425.11398 431.85339
444.0 0.002252 425.10898 432.31262
472.0 0.002119 425.10236 432.80109
417.0 0.002398 425.09412 433.29688
436.0 0.002294 425.08432 433.78192
433.0 0.002309 425.07291 434.24820
417.0 0.002398 425.05997 434.69928
424.0 0.002358 425.04553 435.14746
392.0 0.002551 425.02954 435.60785
473.0 0.002114 425.01205 436.08817
448.0 0.002232 424.99313 436.59250
416.0 0.002404 424.97278 437.04697
445.0 0.002247 424.95096 437.42270
406.0 0.002463 424.92776 437.69922
389.0 0.002571 424.90323 437.90500
422.0 0.002370 424.87732 438.10916
405.0 0.002469 424.85010 438.39371
449.0 0.002227 424.82159 438.83237
464.0 0.002155 424.79184 439.56775
434.0 0.002304 424.76086 440.50024
466.0 0.002146 424.72867 441.77484
448.0 0.002232 424.69534 443.47256
447.0 0.002237 424.66086 445.69666
468.0 0.002137 424.62524 448.57571
447.0 0.002237 424.58856 452.26407
437.0 0.002288 424.55087 456.93698
461.0 0.002169 424.51215 462.78101
429.0 0.002331 424.47244 469.97546
490.0 0.002041 424.43182 478.66348
511.0 0.001957 424.39026 488.90323
507.0 0.001972 424.34784 500.58167
552.0 0.001812 424.30457 513.28137
539.0 0.001855 424.26050 526.08582
540.0 0.001852 424.21564 537.44458
549.0 0.001821 424.17001 545.32385
574.0 0.001742 424.12372 547.88196
555.0 0.001802 424.07672 544.42609
528.0 0.001894 424.02908 535.84198
543.0 0.001842 423.98087 524.05042
599.0 0.001669 423.93207 510.95850
532.0 0.001880 423.88266 498.21109
510.0 0.001961 423.83282 486.55716
478.0 0.002092 423.78247 476.36435
490.0 0.002041 423.73166 467.71341
468.0 0.002137 423.68042 460.52850
477.0 0.002096 423.62881 454.65552
478.0 0.002092 423.57684 449.90787
442.0 0.002262 423.52451 446.09393
446.0 0.002242 423.47192 443.03403
434.0 0.002304 423.41901 440.56970
430.0 0.002326 423.36588 438.56870
429.0 0.002331 423.31250 436.92514
465.0 0.002151 423.25894 435.55655
442.0 0.002262 423.20520 434.40121
434.0 0.002304 423.15131 433.41272
418.0 0.002392 423.09729 432.55722
427.0 0.002342 423.04315 431.80951
457.0 0.002188 422.98892 431.15045
400.0 0.002500 422.93460 430.56564
472.0 0.002119 422.88025 430.04395
466.0 0.002146 422.82584 429.57608
414.0 0.002415 422.77139 429.15491
421.0 0.002375 422.71695 428.66757
442.0 0.002262 422.66251 428.32404
421.0 0.002375 422.60806 428.01187
412.0 0.002427 422.55365 427.72797
448.0 0.002232 422.49927 427.46909
392.0 0.002551 422.44485 427.23322
443.0 0.002257 422.39056 427.01825
440.0 0.002273 422.33624 426.82285
438.0 0.002283 422.28198 426.64554
408.0 0.002451 422.22778 426.48578
429.0 0.002331 422.17361 426.34256
387.0 0.002584 422.11948 426.21555
429.0 0.002331 422.06534 426.10385
385.0 0.002597 422.01126 426.00720
421.0 0.002375 421.95718 425.92398
423.0 0.002364 421.90314 425.85272
415.0 0.002410 421.84906 425.78943
420.0 0.002381 421.79498 425.72940
468.0 0.002137 421.74088 425.66656
431.0 0.002320 421.68671 425.59576
397.0 0.002519 421.63251 425.51620
427.0 0.002342 421.57819 425.43060
419.0 0.002387 421.52380 425.34451
486.0 0.002058 421.46924 425.26331
460.0 0.002174 421.41461 425.19086
434.0 0.002304 421.35974 425.13141
390.0 0.002564 421.30472 425.08197
462.0 0.002165 421.24948 425.04517
432.0 0.002315 421.19397 425.02106
433.0 0.002309 421.13818 425.00964
449.0 0.002227 421.08212 425.01111
413.0 0.002421 421.02570 425.02560
406.0 0.002463 420.96890 425.05347
431.0 0.002320 420.91171 425.09549
414.0 0.002415 420.85413 425.15237
420.0 0.002381 420.79602 425.22070
416.0 0.002404 420.73743 425.31158
430.0 0.002326 420.67828 425.42206
440.0 0.002273 420.61859 425.55484
446.0 0.002242 420.55826 425.71292
448.0 0.002232 420.49734 425.90045
415.0 0.002410 420.43570 426.12256
450.0 0.002222 420.37335 426.38574
423.0 0.002364 420.31030 426.69904
414.0 0.002415 420.24640 427.07455
404.0 0.002475 420.18173 427.52661
436.0 0.002294 420.11618 428.07639
421.0 0.002375 420.04980 428.75040
427.0 0.002342 419.98245 429.58203
432.0 0.002315 419.91422 430.61285
437.0 0.002288 419.84497 431.89197
392.0 0.002551 419.77478 433.47534
431.0 0.002320 419.70355 435.42349
428.0 0.002336 419.63126 437.79578
418.0 0.002392 419.55792 440.64886
419.0 0.002387 419.48349 444.01526
489.0 0.002045 419.40799 447.88583
465.0 0.002151 419.33136 452.17136
492.0 0.002033 419.25360 456.65414
436.0 0.002294 419.17474 460.95496
494.0 0.002024 419.09473 464.57346
477.0 0.002096 419.01364 467.05450
477.0 0.002096 418.93137 468.20685
479.0 0.002088 418.84802 468.18124
480.0 0.002083 418.76355 467.30884
452.0 0.002212 418.67804 465.84457
493.0 0.002028 418.59140 463.92331
494.0 0.002024 418.50378 461.28992
464.0 0.002155 418.41516 458.03320
469.0 0.002132 418.32556 454.30472
474.0 0.002110 418.23508 450.39511
454.0 0.002203 418.14368 446.60410
411.0 0.002433 418.05148 443.14154
446.0 0.002242 417.95853 440.10352
453.0 0.002208 417.86493 437.53305
426.0 0.002347 417.77069 435.40189
433.0 0.002309 417.67596 433.65472
424.0 0.002358 417.58084 432.26764
455.0 0.002198 417.48532 431.17719
457.0 0.002188 417.38962 430.33707
409.0 0.002445 417.29376 429.70697
440.0 0.002273 417.19800 429.25314
449.0 0.002227 417.10233 428.94861
409.0 0.002445 417.00696 428.77271
385.0 0.002597 416.91205 428.70941
415.0 0.002410 416.81769 428.74921
405.0 0.002469 416.72409 428.88318
428.0 0.002336 416.63141 429.10504
426.0 0.002347 416.53989 429.40845
433.0 0.002309 416.44965 429.78763
416.0 0.002404 416.36093 430.23956
437.0 0.002288 416.27393 430.76651
441.0 0.002268 416.18887 431.38483
449.0 0.002227 416.10602 432.11594
432.0 0.002315 416.02554 432.98904
436.0 0.002294 415.94775 434.03677
430.0 0.002326 415.87283 435.29721
390.0 0.002564 415.80115 436.81580
417.0 0.002398 415.73291 438.64908
432.0 0.002315 415.66840 440.86884
433.0 0.002309 415.60794 443.65598
407.0 0.002457 415.55185 446.94815
448.0 0.002232 415.50037 450.97433
405.0 0.002469 415.45383 455.89847
462.0 0.002165 415.41260 461.90405
436.0 0.002294 415.37695 469.18839
444.0 0.002252 415.34726 477.96283
476.0 0.002101 415.32382 488.45602
531.0 0.001883 415.30704 500.90195
508.0 0.001969 415.29718 515.48529
492.0 0.002033 415.29465 532.23041
581.0 0.001721 415.29980 550.82495
594.0 0.001684 415.31296 570.38354
585.0 0.001709 415.33447 589.20819
611.0 0.001637 415.36472 604.73535
650.0 0.001538 415.40402 614.03833
577.0 0.001733 415.45273 614.97406
625.0 0.001600 415.51117 607.32153
587.0 0.001704 415.57971 592.91650
592.0 0.001689 415.65866 574.63715
605.0 0.001653 415.74829 555.18646
558.0 0.001792 415.84897 536.45947
548.0 0.001825 415.96094 519.52838
514.0 0.001946 416.08447 504.84958
506.0 0.001976 416.21982 492.51791
494.0 0.002024 416.36725 482.43015
471.0 0.002123 416.52689 474.38626
492.0 0.002033 416.69897 468.14978
502.0 0.001992 416.88373 463.48361
480.0 0.002083 417.08112 460.17288
476.0 0.002101 417.29138 458.03802
461.0 0.002169 417.51440 456.94101
473.0 0.002114 417.75034 456.78601
444.0 0.002252 417.99902 457.51422
443.0 0.002257 418.26041 459.09537
469.0 0.002132 418.53442 461.51160
420.0 0.002381 418.82074 464.73334
473.0 0.002114 419.11923 468.68970
476.0 0.002101 419.42935 473.24203
453.0 0.002208 419.75092 478.19614
461.0 0.002169 420.08322 483.37372
510.0 0.001961 420.42590 488.72299
494.0 0.002024 420.77808 494.36066
489.0 0.002045 421.13907 500.47229
530.0 0.001887 421.50815 507.10638
519.0 0.001927 421.88412 514.07013
548.0 0.001825 422.26608 520.39459
511.0 0.001957 422.65259 525.00696
540.0 0.001852 423.04251 526.66681
543.0 0.001842 423.43414 524.63904
529.0 0.001890 423.82605 519.11017
501.0 0.001996 424.21616 511.07321
501.0 0.001996 424.60266 501.80975
494.0 0.002024 424.98349 492.40976
497.0 0.002012 425.35602 483.58325
540.0 0.001852 425.71805 475.69507
469.0 0.002132 426.06647 468.87344
450.0 0.002222 426.39859 463.10892
497.0 0.002012 426.71091 458.31866
477.0 0.002096 427.00012 454.38504
435.0 0.002299 427.26257 451.17834
447.0 0.002237 427.49408 448.56964
438.0 0.002283 427.69049 446.43973
460.0 0.002174 427.84705 444.68259
437.0 0.002288 427.95895 443.20834
455.0 0.002198 428.02087 441.84540
431.0 0.002320 428.02716 440.72897
457.0 0.002188 427.97189 439.71268
423.0 0.002364 427.84869 438.76282
389.0 0.002571 427.65063 437.83856
446.0 0.002242 427.37064 436.91925
404.0 0.002475 427.00085 435.98260
466.0 0.002146 426.53339 435.00980
405.0 0.002469 425.95923 433.98303
431.0 0.002320 425.26962 432.88641
421.0 0.002375 424.45435 431.70425
411.0 0.002433 423.50381 430.42154
447.0 0.002237 422.40674 429.02350
397.0 0.002519 421.15118 427.49448
423.0 0.002364 419.72598 425.82019
400.0 0.002500 418.11722 423.98447
430.0 0.002326 416.31253 421.97278
421.0 0.002375 414.29633 419.76740
401.0 0.002494 412.05505 417.35336
411.0 0.002433 409.57211 414.71255
438.0 0.002283 406.82983 411.82605
413.0 0.002421 403.81268 408.67725
426.0 0.002347 400.49985 405.24454
390.0 0.002564 396.87436 401.50998
402.0 0.002488 392.91318 397.44992
421.0 0.002375 388.59772 393.04517
460.0 . . .
loop_
_refln_index_h
_refln_index_k
_refln_index_l
_refln_observed_status
_refln_F_squared_meas
_refln_F_squared_calc
_refln_phase_calc
_refln_d_spacing
_gsas_i100_meas
1 1 0 o 11068.546 11295.839 180.00 6.97876 13.64
0 0 1 o 1224.321 1497.779 180.00 4.96668 0.00
2 0 0 o 1246.328 2027.131 0.00 4.93473 1.06
1 1 1 o 28385.057 28415.234 0.00 4.04653 26.35
2 0 1 o 2222.779 2112.311 180.00 3.50062 1.91
2 2 0 o 942.806 958.626 0.00 3.48938 0.08
2 1 1 o 180.825 60.894 0.00 3.29924 0.28
3 1 0 o 16568.346 15946.923 0.00 3.12100 8.48
2 2 1 o 209419.88 208422.77 180.00 2.85518 100.00
3 1 1 o 6717.122 5281.382 180.00 2.64257 4.58
0 0 2 o 110981.02 113044.07 0.00 2.48334 9.15
4 0 0 o 130131.01 133695.39 0.00 2.46736 21.78
3 2 1 o 5464.649 5056.577 0.00 2.39731 4.56
1 1 2 o 4151.932 3990.209 180.00 2.33963 0.92
3 3 0 o 25347.850 25380.531 180.00 2.32625 3.70
2 0 2 o 414.036 534.024 0.00 2.21829 0.14
4 0 1 o 7175.570 7530.818 180.00 2.20971 1.14
4 2 0 o 927.237 1069.181 0.00 2.20688 0.31
2 1 2 o 837.873 601.976 0.00 2.16429 0.57
4 1 1 o 2954.683 2252.432 0.00 2.15633 1.99
3 3 1 o 1187.605 1432.797 0.00 2.10663 0.11
2 2 2 o 6783.893 7324.245 0.00 2.02326 0.88
4 2 1 o 279.725 333.427 180.00 2.01675 0.17
3 1 2 o 19921.396 19514.938 0.00 1.94324 8.20
5 1 0 o 4957.723 4861.422 180.00 1.93556 0.86
3 2 2 o 535.215 384.524 0.00 1.83923 0.26
4 3 1 o 396.808 368.415 180.00 1.83433 0.19
5 1 1 o 21559.768 21576.717 0.00 1.80345 7.47
4 0 2 o 150091.31 151979.58 0.00 1.75031 26.23
4 4 0 o 141822.89 143877.67 0.00 1.74469 12.27
4 1 2 o 33.323 39.599 180.00 1.72342 0.01
5 2 1 o 66.886 73.733 180.00 1.71939 0.03
3 3 2 o 28809.965 26143.277 180.00 1.69773 4.70
5 3 0 o 6885.556 6511.233 0.00 1.69260 0.94
0 0 3 o 4479.524 4576.231 180.00 1.65556 0.09
4 2 2 o 1314.255 1588.938 0.00 1.64962 0.50
4 4 1 o 2441.717 2819.721 180.00 1.64608 0.09
6 0 0 o 41.404 188.298 0.00 1.64491 0.01
1 1 3 o 7829.152 8032.307 0.00 1.61085 0.93
5 3 1 o 12703.122 12748.152 180.00 1.60212 3.36
2 0 3 o 658.884 523.355 180.00 1.56958 0.12
6 0 1 o 2203.092 1866.846 180.00 1.56150 0.37
6 2 0 o 10274.590 9850.692 0.00 1.56050 1.03
2 1 3 o 87.059 147.589 0.00 1.55010 0.03
4 3 2 o 39.386 18.598 0.00 1.54522 0.01
6 1 1 o 268.383 91.293 180.00 1.54231 0.09
5 1 2 o 32.202 53.170 180.00 1.52662 0.01
2 2 3 o 107892.47 107978.13 180.00 1.49575 13.49
6 2 1 o 92402.74 93813.23 180.00 1.48874 22.54
5 2 2 o 253.292 213.773 0.00 1.47462 0.08
5 4 1 o 53.187 47.708 180.00 1.47209 0.02
3 1 3 o 5834.626 5967.257 180.00 1.46253 1.17
4 4 2 o 81637.48 81745.49 0.00 1.42759 9.08
3 2 3 o 490.009 598.216 180.00 1.41661 0.15
6 3 1 o 1.953 1.499 180.00 1.41066 0.00
5 3 2 o 2479.391 2418.729 0.00 1.39862 0.36
5 5 0 o 3364.703 3478.719 0.00 1.39575 0.35
7 1 0 o 9794.394 9944.348 0.00 1.39575 0.92
4 0 3 o 803.169 710.973 180.00 1.37476 0.03
6 0 2 o 221.405 108.220 180.00 1.37136 0.03
6 4 0 o 192.677 87.695 0.00 1.36865 0.03
4 1 3 o 1043.914 915.115 180.00 1.36162 0.29
6 1 2 o 305.045 194.996 180.00 1.35831 0.08
3 3 3 o 229.734 229.001 0.00 1.34884 0.00
7 1 1 o 1188.815 1216.521 180.00 1.34370 0.12
5 5 1 o 25823.207 26997.861 0.00 1.34370 2.62
4 2 3 o 109.802 178.657 180.00 1.32433 0.03
6 2 2 o 1291.942 1306.138 0.00 1.32128 0.06
6 4 1 o 1141.077 978.411 180.00 1.31947 0.29
5 4 2 o 1.316 1.392 180.00 1.30960 0.00
7 2 1 o 1599.405 1598.600 180.00 1.30783 0.42
7 3 0 o 31185.309 30639.865 180.00 1.29592 3.10
4 3 3 o 231.821 198.380 0.00 1.26846 0.06
6 3 2 o 134.914 234.248 0.00 1.26579 0.03
5 1 3 o 15866.648 16728.621 0.00 1.25812 2.77
7 3 1 o 62.596 29.926 180.00 1.25394 0.07
0 0 4 o 92636.70 94563.49 0.00 1.24167 2.09
8 0 0 o 56008.32 53382.85 0.00 1.23368 2.38
5 2 3 o 234.893 240.793 0.00 1.22853 0.06
6 5 1 o 359.107 333.476 0.00 1.22464 0.08
1 1 4 o 5357.454 5217.988 180.00 1.22247 0.41
7 1 2 o 15424.327 15768.300 0.00 1.21674 2.59
5 5 2 o 921.085 933.546 180.00 1.21674 0.05
2 0 4 o 251.115 280.884 0.00 1.20414 0.03
4 4 3 o 5485.055 4884.713 180.00 1.20093 0.32
6 4 2 o 3.342 1.989 0.00 1.19866 0.00
8 0 1 o 2900.810 2931.580 180.00 1.19730 0.11
8 2 0 o 1897.239 1950.985 0.00 1.19685 0.20
2 1 4 o 177.968 161.478 180.00 1.19527 0.04
7 2 2 o 128.631 157.894 180.00 1.18991 0.03
8 1 1 o 107.615 125.754 180.00 1.18858 0.02
7 4 1 o 100.803 117.794 0.00 1.18858 0.02
5 3 3 o 5022.658 4691.990 180.00 1.18354 0.68
2 2 4 o 464.743 565.289 0.00 1.16981 0.00
6 0 3 o 1034.858 1227.792 180.00 1.16687 0.11
8 2 1 o 208.697 172.085 0.00 1.16354 0.04
6 6 0 o 1799.824 1744.480 0.00 1.16313 0.03
6 1 3 o 15.644 19.124 180.00 1.15880 0.00
3 1 4 o 3669.446 3735.242 0.00 1.15372 0.43
7 3 2 o 12795.820 12973.058 180.00 1.14889 1.86
7 5 0 o 5295.965 5268.846 0.00 1.14730 0.35
6 2 3 o 53097.77 52571.29 180.00 1.13556 7.99
6 6 1 o 46709.52 46139.43 180.00 1.13249 3.46
5 4 3 o 11.456 11.805 0.00 1.12812 0.00
3 2 4 o 69.761 73.776 180.00 1.13077 0.01
6 5 2 o 70.637 62.889 0.00 1.12623 0.01
8 3 1 o 69.998 51.942 180.00 1.12510 0.01
7 5 1 o 2631.100 2401.375 180.00 1.11786 0.30
4 0 4 o 56763.72 56366.16 0.00 1.10914 4.19
8 0 2 o 53216.19 54878.48 0.00 1.10486 3.91
8 4 0 o 39302.13 39348.86 0.00 1.10344 2.75
4 1 4 o 30.859 29.177 0.00 1.10221 0.01
6 3 3 o 138.283 149.043 0.00 1.09975 0.03
8 1 2 o 14.366 16.051 0.00 1.09800 0.00
7 4 2 o 1.141 1.274 0.00 1.09800 0.00
3 3 4 o 10352.706 10975.615 180.00 1.09540 0.71
9 1 0 o -107.212 170.285 0.00 1.08990 0.03
4 2 4 o 23.203 145.637 0.00 1.08215 0.01
8 2 2 o 1423.864 1295.024 0.00 1.07816 0.26
8 4 1 o 5753.545 5357.183 180.00 1.07717 0.58
5 5 3 o 14041.990 13272.228 0.00 1.06712 0.99
7 1 3 o 449.072 441.071 180.00 1.06712 0.02
9 1 1 o 14586.976 14090.959 0.00 1.06457 2.08
6 4 3 o 210.619 241.551 180.00 1.05486 0.04
6 6 2 o 6900.240 6991.276 0.00 1.05332 0.36
4 3 4 o 9.701 11.631 180.00 1.05102 0.00
7 2 3 o 279.947 275.999 0.00 1.04888 0.06
8 3 2 o 8.739 7.499 180.00 1.04737 0.00
7 6 1 o 50.014 33.641 0.00 1.04646 0.01
9 2 1 o 69.806 46.953 180.00 1.04646 0.01
5 1 4 o 558.918 549.153 180.00 1.04511 0.03
7 5 2 o 5131.385 5296.190 0.00 1.04152 0.62
9 3 0 o 1772.591 1791.154 0.00 1.04033 0.09
5 2 4 o 130.121 91.444 180.00 1.02796 0.03
8 5 1 o 2.586 5.367 0.00 1.02370 0.00
7 3 3 o 8.597 7.100 0.00 1.02047 0.01
9 3 1 o 6197.833 6077.050 180.00 1.01823 0.76
4 4 4 o 40024.08 38042.43 0.00 1.01163 2.68
8 4 2 o 35467.36 33691.484 0.00 1.00838 4.72
6 5 3 o 28.551 37.912 180.00 1.00449 0.01
5 3 4 o 3153.289 3643.009 0.00 1.00117 0.34
9 1 2 o 283.772 295.901 180.00 0.99801 0.01
7 7 0 o 15719.525 18052.818 180.00 0.99697 0.52
0 0 5 o 613.045 752.653 180.00 0.99334 0.00
6 0 4 o 8.684 7.274 180.00 0.99102 0.00
8 0 3 o 5069.601 4732.573 180.00 0.98923 0.25
10 0 0 o 2053.056 2042.304 180.00 0.98695 0.08
8 6 0 o 211.158 209.906 0.00 0.98695 0.02
6 1 4 o 86.133 77.055 0.00 0.98606 0.02
7 4 3 o 57.778 42.366 180.00 0.98430 0.01
8 1 3 o 157.434 115.439 0.00 0.98430 0.03
1 1 5 o 5774.115 5169.977 0.00 0.98342 0.37
9 2 2 o 37.135 30.553 180.00 0.98305 0.01
7 6 2 o 147.217 121.119 0.00 0.98305 0.03
9 4 1 o 989.460 690.737 0.00 0.98230 0.19
7 7 1 o 592.108 264.115 180.00 0.97747 0.09
2 0 5 o 186.865 133.930 180.00 0.97380 0.02
6 2 4 o 3690.585 3313.673 0.00 0.97162 0.34
8 2 3 o 193.367 194.714 0.00 0.96994 0.03
2 1 5 o 144.032 204.717 180.00 0.96910 0.03
10 0 1 o 1724.946 2020.821 180.00 0.96802 0.15
8 6 1 o 5.095 6.430 0.00 0.96802 0.00
10 2 0 o 3934.890 4196.588 0.00 0.96778 0.15
5 4 4 o 0.129 0.233 0.00 0.96695 0.00
8 5 2 o 2.248 5.386 180.00 0.96410 0.00
10 1 1 o 110.705 211.499 0.00 0.96340 0.02
9 3 2 o 477.891 542.506 0.00 0.95954 0.02
9 5 0 o -8.175 3.964 0.00 0.95861 0.01
2 2 5 o 37900.73 37131.55 180.00 0.95538 2.50
6 6 3 o 31120.963 30159.566 180.00 0.95173 2.03
10 2 1 o 27693.904 26057.031 180.00 0.94991 3.60
6 3 4 o 127.230 110.888 180.00 0.94890 0.02
8 3 3 o 6.716 8.181 0.00 0.94733 0.00
3 1 5 o 1111.784 1226.076 180.00 0.94655 0.08
7 5 3 o 2191.576 2487.833 180.00 0.94300 0.21
9 5 1 o 12313.543 12414.799 0.00 0.94123 1.63
3 2 5 o -0.744 16.242 0.00 0.93376 0.00
9 4 2 o 2.417 1.832 180.00 0.92928 0.00
10 3 1 o 44.033 36.578 0.00 0.92865 0.01
7 1 4 o 5726.538 5143.811 0.00 0.92771 0.72
5 5 4 o 356.494 244.629 0.00 0.92771 0.07
7 7 2 o 12588.926 11969.933 180.00 0.92519 0.86
4 0 5 o 1287.325 1297.046 180.00 0.92146 0.03
6 4 4 o 20.493 33.855 0.00 0.91962 0.01
8 4 3 o 1580.770 1549.967 180.00 0.91819 0.09
4 1 5 o 294.095 305.437 0.00 0.91747 0.06
10 0 2 o 82.882 84.116 180.00 0.91717 0.00
8 6 2 o 454.985 470.933 0.00 0.91717 0.09
10 4 0 o 84.259 99.553 180.00 0.91636 0.00
7 2 4 o 12.967 48.559 0.00 0.91565 0.00
3 3 5 o 309.570 378.102 0.00 0.91354 0.00
10 1 2 o 13.718 43.126 0.00 0.91323 0.00
8 7 1 o 47.177 138.402 0.00 0.91263 0.01
9 1 3 o 7451.448 6944.415 0.00 0.91034 0.98
4 2 5 o 9.509 3.003 180.00 0.90581 0.00
10 2 2 o 3184.674 3047.474 0.00 0.90173 0.27
10 4 1 o 1008.990 889.862 180.00 0.90115 0.18
7 6 3 o 15.497 21.585 0.00 0.89894 0.00
9 2 3 o 0.170 0.236 0.00 0.89894 0.00
9 6 1 o 105.092 136.694 0.00 0.89741 0.02
7 3 4 o 10418.962 10397.898 180.00 0.89656 1.46
9 5 2 o 378.549 394.841 0.00 0.89429 0.15
11 1 0 o 9838.159 9491.637 0.00 0.89354 0.71
