#------------------------------------------------------------------------------
#$Date: 2021-06-21 12:12:48 +0300 (Mon, 21 Jun 2021) $
#$Revision: 266609 $
#$URL: file:///home/coder/svn-repositories/cod/cif/1/56/36/1563641.cif $
#------------------------------------------------------------------------------
#
# This file is available in the Crystallography Open Database (COD),
# http://www.crystallography.net/
#
# All data on this site have been placed in the public domain by the
# contributors.
#
data_1563641
loop_
_publ_author_name
'Zubkov, Vladimir G.'
'Tarakina, Nadezda V.'
'Leonidov, Ivan I.'
'Tyutyunnik, Alexander P.'
'Surat, Ludmila L.'
'Melkozerova, Marina A.'
'Zabolotskaya, Elena V.'
'Kellerman, Dina G.'
_publ_section_title
;
 Synthesis and crystal structure of Ln2M2+Ge4O12, Ln=rare-earth element or
 Y; M=Ca, Mn, Zn
;
_journal_issue                   5
_journal_name_full               'Journal of Solid State Chemistry'
_journal_page_first              1186
_journal_page_last               1193
_journal_paper_doi               10.1016/j.jssc.2010.03.027
_journal_volume                  183
_journal_year                    2010
_chemical_formula_sum            'Ge2 O7 Y2'
_chemical_formula_weight         434.99
_space_group_IT_number           92
_space_group_name_Hall           'P 4abw 2nw'
_space_group_name_H-M_alt        'P 41 21 2'
_symmetry_cell_setting           tetragonal
_symmetry_space_group_name_H-M   'P 41 21 2'
_cell_angle_alpha                90.0
_cell_angle_beta                 90.0
_cell_angle_gamma                90.0
_cell_formula_units_Z            4
_cell_length_a                   6.80399(25)
_cell_length_b                   6.80399
_cell_length_c                   12.3755(8)
_cell_volume                     572.91(4)
_diffrn_radiation_polarisn_ratio 0.8
_diffrn_radiation_probe          x-ray
_diffrn_radiation_wavelength     1.54056
_exptl_absorpt_correction_T_max  3.57673
_exptl_absorpt_correction_T_min  1.84114
_exptl_absorpt_process_details
;   GSAS Absorption/surface roughness correction: function number 4
 Flat plate transmission absorption correction
Terms =    -0.39378         0.0000    
Correction is refined.
;
_pd_calc_method                  'Rietveld Refinement'
_pd_meas_2theta_range_inc        0.02
_pd_meas_2theta_range_max        119.98
_pd_meas_2theta_range_min        5.0
_pd_meas_number_of_points        5750
_pd_proc_2theta_range_inc        0.02
_pd_proc_2theta_range_max        119.96983
_pd_proc_2theta_range_min        4.98983
_pd_proc_info_datetime           2010-02-27T13:38:03
_pd_proc_ls_background_function
;   GSAS Background function number 1 with 36 terms.
 Shifted Chebyshev function of 1st kind
      1:    669.079     2:   -756.926     3:    510.848     4:   -237.708    
      5:    68.8286     6:    12.2526     7:   -30.8092     8:    16.8798    
      9:  -0.556239    10:   -14.6368    11:    17.6487    12:   -3.46771    
     13:   -3.17003    14:    4.04292    15:  -0.302081    16:   -7.47552    
     17:    17.1929    18:   -11.3410    19:  -0.903347    20:    14.2633    
     21:   -14.0778    22:    17.7012    23:   -9.39738    24:   0.362372    
     25:    9.50085    26:   -12.6790    27:    13.3544    28:   -8.75464    
     29:    4.41323    30:    6.80161    31:   -8.11433    32:    9.28991    
     33:   -6.43229    34:   -1.36659    35:    4.22020    36:   -3.42778    
;
_pd_proc_ls_prof_R_factor        0.0315
_pd_proc_ls_prof_wR_expected     0.0354
_pd_proc_ls_prof_wR_factor       0.0428
_pd_proc_number_of_points        5750
_refine_ls_R_Fsqd_factor         0.01859
_reflns_d_resolution_high        0.890
_reflns_d_resolution_low         6.964
_reflns_limit_h_max              11
_reflns_limit_h_min              0
_reflns_limit_k_max              7
_reflns_limit_k_min              0
_reflns_limit_l_max              14
_reflns_limit_l_min              0
_reflns_number_total             492
_cod_data_source_file            Y2ZNGE4O12.cif
_cod_data_source_block           Y2ZNGE4O12_phase_2
_cod_depositor_comments
;
The following automatic conversions were performed:

data item '_geom_angle_publ_flag' value 'N' was changed to 'n' in
accordance with the built-in table derived from the CIF Core
dictionary named 'cif_core.dic' version 2.4.5 last updated on
2014-11-21 (47 times).

data item '_geom_bond_publ_flag' value 'N' was changed to 'n' in
accordance with the built-in table derived from the CIF Core
dictionary named 'cif_core.dic' version 2.4.5 last updated on
2014-11-21 (32 times).

Automatic conversion script
Id: cif_fix_values 8369 2020-08-20 11:38:08Z andrius 
;
_cod_original_cell_volume        572.91(5)
_cod_database_code               1563641
_gsas_exptl_extinct_corr_t_min   1.00000
_gsas_exptl_extinct_corr_t_max   1.00000
loop_
_symmetry_equiv_pos_site_id
_symmetry_equiv_pos_as_xyz
1 +x,+y,+z
2 -y+1/2,+x+1/2,+z+1/4
3 -x,-y,+z+1/2
4 +y+1/2,-x+1/2,+z+3/4
5 -x+1/2,+y+1/2,-z+1/4
6 -y,-x,-z+1/2
7 +x+1/2,-y+1/2,-z+3/4
8 +y,+x,-z
loop_
_atom_site_type_symbol
_atom_site_label
_atom_site_fract_x
_atom_site_fract_y
_atom_site_fract_z
_atom_site_occupancy
_atom_site_thermal_displace_type
_atom_site_U_iso_or_equiv
_atom_site_symmetry_multiplicity
Y Y 0.8782 0.35 0.6351 1.0 Uiso 0.025 8
Ge Ge 0.4018 0.345 0.6291 1.0 Uiso 0.025 8
O O1 0.0635 0.3368 0.0712 1.0 Uiso 0.025 8
O O2 0.357 0.1889 0.2956 1.0 Uiso 0.025 8
O O3 0.4246 0.4717 0.1249 1.0 Uiso 0.025 8
O O4 0.696 0.696 0.0 1.0 Uiso 0.025 4
loop_
_atom_type_symbol
_atom_type_scat_dispersion_real
_atom_type_scat_dispersion_imag
_atom_type_scat_Cromer_Mann_a1
_atom_type_scat_Cromer_Mann_a2
_atom_type_scat_Cromer_Mann_a3
_atom_type_scat_Cromer_Mann_a4
_atom_type_scat_Cromer_Mann_b1
_atom_type_scat_Cromer_Mann_b2
_atom_type_scat_Cromer_Mann_b3
_atom_type_scat_Cromer_Mann_b4
_atom_type_scat_Cromer_Mann_c
_atom_type_scat_source
Zn 0.000 0.000 14.0743 3.26550 7.03180 0.23330 5.16520 10.3163 2.41000 58.7097
1.30410 International_Tables_Vol_C
Y 0.000 0.000 17.7760 1.40290 10.2946 12.8006 5.72629 0.12560 3.26588 104.354
1.91213 International_Tables_Vol_C
Ge 0.000 0.000 16.0816 2.85090 6.37470 0.25160 3.70680 11.4468 3.68300 54.7625
2.13130 International_Tables_Vol_C
O 0.000 0.000 3.04850 13.2771 2.28680 5.70110 1.54630 0.32390 0.86700 32.9089
0.25080 International_Tables_Vol_C
loop_
_geom_angle_atom_site_label_1
_geom_angle_atom_site_label_2
_geom_angle_atom_site_label_3
_geom_angle
_geom_angle_site_symmetry_1
_geom_angle_site_symmetry_2
_geom_angle_site_symmetry_3
_geom_angle_publ_flag
Y Y O1 138.13190(10) 6_666 . 3_665 n
Y Y O1 45.0776(25) 6_666 . 4_555 n
Y Y O1 41.6955(10) 6_666 . 7_555 n
Y Y O2 134.9194(25) 6_666 . 7_555 n
Y Y O2 96.4242(29) 6_666 . 8_656 n
Y Y O3 83.6175(6) 6_666 . 3_665 n
Y Y O3 71.2626(13) 6_666 . 7_555 n
O1 Y O1 97.0595(22) 3_665 . 4_555 n
O1 Y O1 132.67870(20) 3_665 . 7_555 n
O1 Y O2 77.2714(19) 3_665 . 7_555 n
O1 Y O2 87.1492(11) 3_665 . 8_656 n
O1 Y O3 70.2384 3_665 . 3_665 n
O1 Y O3 150.3463(12) 3_665 . 7_555 n
O1 Y O1 79.6040(10) 4_555 . 7_555 n
O1 Y O2 167.1169(9) 4_555 . 7_555 n
O1 Y O2 75.0649(19) 4_555 . 8_656 n
O1 Y O3 79.9145(11) 4_555 . 3_665 n
O1 Y O3 108.2704(8) 4_555 . 7_555 n
O1 Y O2 95.6306(13) 7_555 . 7_555 n
O1 Y O2 135.1665(17) 7_555 . 8_656 n
O1 Y O3 62.66610(20) 7_555 . 3_665 n
O1 Y O3 68.82060(20) 7_555 . 7_555 n
O2 Y O2 115.7312(12) 7_555 . 8_656 n
O2 Y O3 87.25880(20) 7_555 . 3_665 n
O2 Y O3 80.66690(20) 7_555 . 7_555 n
O2 Y O3 143.7510(5) 8_656 . 3_665 n
O2 Y O3 84.81200(20) 8_656 . 7_555 n
O3 Y O3 128.34770(10) 3_665 . 7_555 n
O1 Ge O2 111.6107(24) 7_555 . 8_556 n
O1 Ge O3 95.2015 7_555 . 3_665 n
O1 Ge O4 116.2586(10) 7_555 . 3_665 n
O2 Ge O3 124.0126(7) 8_556 . 3_665 n
O2 Ge O4 100.4385(33) 8_556 . 3_665 n
O3 Ge O4 110.4149(15) 3_665 . 3_665 n
Y O1 Y 100.2997(20) 2_544 . 3_664 n
Y O1 Y 93.2269(15) 2_544 . 7_455 n
Y O1 Ge 124.7979(4) 2_544 . 7_455 n
Y O1 Y 104.0916(8) 3_664 . 7_455 n
Y O1 Ge 129.3925(21) 3_664 . 7_455 n
Y O1 Ge 95.7518(7) 7_455 . 7_455 n
Y O2 Y 105.3755(19) 7_455 . 8_546 n
Y O2 Ge 129.5787(14) 7_455 . 8_556 n
Y O2 Ge 125.0417(33) 8_546 . 8_556 n
Y O3 Y 112.3969 3_664 . 7_455 n
Y O3 Ge 102.8339 3_664 . 3_664 n
Y O3 Ge 144.7682 7_455 . 3_664 n
Ge O4 Ge 135.2175(28) 3_664 . 6_665 n
loop_
_geom_bond_atom_site_label_1
_geom_bond_atom_site_label_2
_geom_bond_distance
_geom_bond_site_symmetry_1
_geom_bond_site_symmetry_2
_geom_bond_publ_flag
Y Y 3.60955(17) . 2_645 n
Y Y 3.60955(17) . 4_564 n
Y Y 3.83138(14) . 5_646 n
Y Y 3.83138(14) . 5_656 n
Y Y 3.59294(15) . 6_666 n
Y Ge 3.24245(12) . 1_555 n
Y Ge 3.56350(13) . 1_655 n
Y O1 2.30736(8) . 3_665 n
Y O1 2.39372(14) . 4_555 n
Y O1 2.54807(9) . 7_555 n
Y O2 2.25647(14) . 7_555 n
Y O2 2.28183(8) . 8_656 n
Y O3 2.39422(9) . 3_665 n
Y O3 2.21495(8) . 7_555 n
Ge Y 3.56350(13) . 1_455 n
Ge Y 3.24245(12) . 1_555 n
Ge O1 1.76602(6) . 7_555 n
Ge O2 1.72436(6) . 8_556 n
Ge O3 1.71852(6) . 3_665 n
Ge O4 1.75305(9) . 3_665 n
O1 Y 2.39372(14) . 2_544 n
O1 Y 2.30736(8) . 3_664 n
O1 Y 2.54807(9) . 7_455 n
O1 Ge 1.76602(6) . 7_455 n
O2 Y 2.25647(14) . 7_455 n
O2 Y 2.28183(8) . 8_546 n
O2 Ge 1.72436(6) . 8_556 n
O3 Y 2.39422(9) . 3_664 n
O3 Y 2.21495(8) . 7_455 n
O3 Ge 1.71852(6) . 3_664 n
O4 Ge 1.75305(9) . 3_664 n
O4 Ge 1.75305(9) . 6_665 n
loop_
_pd_meas_counts_total
_pd_proc_ls_weight
_pd_proc_intensity_bkg_calc
_pd_calc_intensity_total
2278.0 0.000439 2217.51245 2217.51221
2243.0 0.000446 2215.43164 2215.43164
2320.0 0.000431 2213.34399 2213.34399
2220.0 0.000450 2211.24805 2211.24805
2133.0 0.000469 2209.14355 2209.14355
2205.0 0.000454 2207.02979 2207.03003
2196.0 0.000455 2204.90674 2204.90674
2222.0 0.000450 2202.77368 2202.77368
2205.0 0.000454 2200.63086 2200.63110
2176.0 0.000460 2198.47852 2198.47876
2084.0 0.000480 2196.31641 2196.31665
2109.0 0.000474 2194.14526 2194.14551
2118.0 0.000472 2191.96509 2191.96533
2260.0 0.000442 2189.77637 2189.77661
2132.0 0.000469 2187.57983 2187.58008
2156.0 0.000464 2185.37573 2185.37598
2094.0 0.000478 2183.16504 2183.16528
2198.0 0.000455 2180.94800 2180.94824
2258.0 0.000443 2178.72534 2178.72559
2254.0 0.000444 2176.49805 2176.49829
2205.0 0.000454 2174.26636 2174.26660
2225.0 0.000449 2172.03149 2172.03174
2230.0 0.000448 2169.79370 2169.79395
2193.0 0.000456 2167.55396 2167.55444
2163.0 0.000462 2165.31299 2165.31348
2163.0 0.000462 2163.07153 2163.07178
2148.0 0.000466 2160.83008 2160.83057
2147.0 0.000466 2158.58960 2158.58984
2075.0 0.000482 2156.35059 2156.35083
2141.0 0.000467 2154.11353 2154.11377
2175.0 0.000460 2151.87939 2151.87964
2098.0 0.000477 2149.64844 2149.64868
2151.0 0.000465 2147.42139 2147.42188
2190.0 0.000457 2145.19897 2145.19922
2141.0 0.000467 2142.98145 2142.98169
2152.0 0.000465 2140.76929 2140.76978
2101.0 0.000476 2138.56299 2138.56348
2166.0 0.000462 2136.36304 2136.36328
2130.0 0.000469 2134.16992 2134.17017
2084.0 0.000480 2131.98364 2131.98389
2123.0 0.000471 2129.80469 2129.80493
2211.0 0.000452 2127.63354 2127.63379
2157.0 0.000464 2125.46997 2125.47021
2113.0 0.000473 2123.31470 2123.31494
2105.0 0.000475 2121.16772 2121.16797
2137.0 0.000468 2119.02905 2119.02930
2094.0 0.000478 2116.89893 2116.89917
2050.0 0.000488 2114.77759 2114.77759
2144.0 0.000466 2112.66455 2112.66479
2117.0 0.000472 2110.56030 2110.56055
2092.0 0.000478 2108.46484 2108.46509
2140.0 0.000467 2106.37817 2106.37817
2146.0 0.000466 2104.30005 2104.30005
2109.0 0.000474 2102.23022 2102.23022
2095.0 0.000477 2100.16895 2100.16895
2122.0 0.000471 2098.11597 2098.11597
2132.0 0.000469 2096.07104 2096.07104
2116.0 0.000473 2094.03418 2094.03418
2094.0 0.000478 2092.00488 2092.00513
2081.0 0.000481 2089.98340 2089.98364
2070.0 0.000483 2087.96899 2087.96924
2079.0 0.000481 2085.96191 2085.96191
2114.0 0.000473 2083.96143 2083.96167
2135.0 0.000468 2081.96777 2081.96777
2101.0 0.000476 2079.98022 2079.98022
2151.0 0.000465 2077.99854 2077.99878
2106.0 0.000475 2076.02271 2076.02271
2023.0 0.000494 2074.05225 2074.05225
2108.0 0.000474 2072.08667 2072.08691
2106.0 0.000475 2070.12598 2070.12598
2065.0 0.000484 2068.16943 2068.16968
2026.0 0.000494 2066.21729 2066.21729
2087.0 0.000479 2064.26855 2064.26880
2110.0 0.000474 2062.32324 2062.32349
2039.0 0.000490 2060.38135 2060.38135
2083.0 0.000480 2058.44165 2058.44189
2080.0 0.000481 2056.50464 2056.50488
2056.0 0.000486 2054.56958 2054.56982
2019.0 0.000495 2052.63623 2052.63647
1999.0 0.000500 2050.70435 2050.70459
2102.0 0.000476 2048.77368 2048.77368
2022.0 0.000495 2046.84351 2046.84363
1923.0 0.000520 2044.91394 2044.91406
2049.0 0.000488 2042.98462 2042.98474
1993.0 0.000502 2041.05493 2041.05505
2009.0 0.000498 2039.12488 2039.12500
2016.0 0.000496 2037.19446 2037.19458
1992.0 0.000502 2035.26282 2035.26294
2050.0 0.000488 2033.33020 2033.33032
1978.0 0.000506 2031.39612 2031.39624
2022.0 0.000495 2029.46045 2029.46057
2050.0 0.000488 2027.52295 2027.52307
2076.0 0.000482 2025.58337 2025.58350
2085.0 0.000480 2023.64185 2023.64197
2026.0 0.000494 2021.69775 2021.69788
1886.0 0.000530 2019.75134 2019.75146
2021.0 0.000495 2017.80200 2017.80212
1925.0 0.000519 2015.85010 2015.85010
2064.0 0.000484 2013.89539 2013.89551
2051.0 0.000488 2011.93750 2011.93762
2009.0 0.000498 2009.97693 2009.97705
2028.0 0.000493 2008.01294 2008.01306
2004.0 0.000499 2006.04602 2006.04602
2007.0 0.000498 2004.07593 2004.07605
2011.0 0.000497 2002.10266 2002.10266
1956.0 0.000511 2000.12634 2000.12646
2017.0 0.000496 1998.14673 1998.14685
2090.0 0.000478 1996.16418 1996.16431
1946.0 0.000514 1994.17847 1994.17859
1991.0 0.000502 1992.18994 1992.18994
2036.0 0.000491 1990.19849 1990.19861
2018.0 0.000496 1988.20435 1988.20447
1968.0 0.000508 1986.20752 1986.20764
1943.0 0.000515 1984.20813 1984.20825
1928.0 0.000519 1982.20642 1982.20654
1961.0 0.000510 1980.20264 1980.20276
1990.0 0.000503 1978.19678 1978.19690
1933.0 0.000517 1976.18921 1976.18933
1962.0 0.000510 1974.17993 1974.18005
1983.0 0.000504 1972.16931 1972.16943
1970.0 0.000508 1970.15771 1970.15784
1935.0 0.000517 1968.14502 1968.14502
1967.0 0.000508 1966.13184 1966.13196
1955.0 0.000512 1964.11829 1964.11841
1927.0 0.000519 1962.10474 1962.10486
1893.0 0.000528 1960.09143 1960.09143
1938.0 0.000516 1958.07861 1958.07861
1942.0 0.000515 1956.06677 1956.06677
2021.0 0.000495 1954.05603 1954.05603
1948.0 0.000513 1952.04700 1952.04712
1926.0 0.000519 1950.03979 1950.03979
1892.0 0.000529 1948.03491 1948.03503
1933.0 0.000517 1946.03259 1946.03271
1996.0 0.000501 1944.03345 1944.03345
1946.0 0.000514 1942.03760 1942.03772
2012.0 0.000497 1940.04565 1940.04565
1938.0 0.000516 1938.05786 1938.05798
1995.0 0.000501 1936.07471 1936.07471
1950.0 0.000513 1934.09644 1934.09656
1991.0 0.000502 1932.12390 1932.12390
1968.0 0.000508 1930.15698 1930.15710
1862.0 0.000537 1928.19666 1928.19666
1964.0 0.000509 1926.24280 1926.24280
1932.0 0.000518 1924.29614 1924.29614
1950.0 0.000513 1922.35718 1922.35718
1931.0 0.000518 1920.42615 1920.42615
1873.0 0.000534 1918.50378 1918.50378
1913.0 0.000523 1916.59009 1916.59009
1909.0 0.000524 1914.68604 1914.68604
1942.0 0.000515 1912.79150 1912.79150
1885.0 0.000531 1910.90735 1910.90735
1977.0 0.000506 1909.03394 1909.03394
1860.0 0.000538 1907.17151 1907.17151
1936.0 0.000517 1905.32080 1905.32080
1867.0 0.000536 1903.48193 1903.48193
1884.0 0.000531 1901.65552 1901.65552
1946.0 0.000514 1899.84216 1899.84216
1899.0 0.000527 1898.04187 1898.04187
1885.0 0.000531 1896.25549 1896.25549
1928.0 0.000519 1894.48303 1894.48303
1888.0 0.000530 1892.72522 1892.72522
1975.0 0.000506 1890.98230 1890.98230
1913.0 0.000523 1889.25464 1889.25464
1880.0 0.000532 1887.54297 1887.54297
1931.0 0.000518 1885.84717 1885.84717
1865.0 0.000536 1884.16809 1884.16809
1890.0 0.000529 1882.50574 1882.50574
1864.0 0.000536 1880.86072 1880.86072
1887.0 0.000530 1879.23328 1879.23328
1825.0 0.000548 1877.62378 1877.62378
1895.0 0.000528 1876.03259 1876.03259
1900.0 0.000526 1874.45996 1874.45996
1932.0 0.000518 1872.90637 1872.90637
1839.0 0.000544 1871.37195 1871.37195
1860.0 0.000538 1869.85718 1869.85718
1885.0 0.000531 1868.36206 1868.36206
1878.0 0.000532 1866.88721 1866.88708
1940.0 0.000515 1865.43274 1865.43274
1845.0 0.000542 1863.99890 1863.99890
1876.0 0.000533 1862.58606 1862.58606
1777.0 0.000563 1861.19409 1861.19409
1885.0 0.000531 1859.82361 1859.82361
1869.0 0.000535 1858.47485 1858.47485
1895.0 0.000528 1857.14758 1857.14758
1870.0 0.000535 1855.84241 1855.84241
1909.0 0.000524 1854.55933 1854.55933
1867.0 0.000536 1853.29846 1853.29846
1866.0 0.000536 1852.06018 1852.06018
1846.0 0.000542 1850.84424 1850.84424
1866.0 0.000536 1849.65112 1849.65112
1775.0 0.000563 1848.48071 1848.48071
1874.0 0.000534 1847.33325 1847.33313
1850.0 0.000541 1846.20862 1846.20850
1862.0 0.000537 1845.10693 1845.10693
1788.0 0.000559 1844.02844 1844.02844
1882.0 0.000531 1842.97302 1842.97290
1900.0 0.000526 1841.94080 1841.94080
1826.0 0.000548 1840.93152 1840.93152
1883.0 0.000531 1839.94543 1839.94543
1815.0 0.000551 1838.98254 1838.98254
1836.0 0.000545 1838.04260 1838.04260
1894.0 0.000528 1837.12585 1837.12585
1814.0 0.000551 1836.23193 1836.23193
1807.0 0.000553 1835.36096 1835.36096
1808.0 0.000553 1834.51282 1834.51282
1942.0 0.000515 1833.68726 1833.68726
1784.0 0.000561 1832.88440 1832.88440
1806.0 0.000554 1832.10388 1832.10388
1851.0 0.000540 1831.34583 1831.34583
1753.0 0.000570 1830.60974 1830.60974
1820.0 0.000549 1829.89563 1829.89563
1859.0 0.000538 1829.20349 1829.20349
1828.0 0.000547 1828.53284 1828.53271
1814.0 0.000551 1827.88354 1827.88354
1821.0 0.000549 1827.25537 1827.25537
1830.0 0.000546 1826.64819 1826.64819
1812.0 0.000552 1826.06165 1826.06165
1822.0 0.000549 1825.49548 1825.49548
1797.0 0.000556 1824.94946 1824.94946
1803.0 0.000555 1824.42322 1824.42322
1833.0 0.000546 1823.91675 1823.91675
1794.0 0.000557 1823.42920 1823.42920
1881.0 0.000532 1822.96057 1822.96057
1827.0 0.000547 1822.51074 1822.51074
1815.0 0.000551 1822.07886 1822.07886
1845.0 0.000542 1821.66504 1821.66504
1801.0 0.000555 1821.26855 1821.26855
1851.0 0.000540 1820.88916 1820.88916
1764.0 0.000567 1820.52661 1820.52661
1873.0 0.000534 1820.18030 1820.18030
1751.0 0.000571 1819.84998 1819.84998
1724.0 0.000580 1819.53503 1819.53491
1836.0 0.000545 1819.23499 1819.23499
1748.0 0.000572 1818.94983 1818.94971
1862.0 0.000537 1818.67859 1818.67859
1747.0 0.000572 1818.42126 1818.42126
1792.0 0.000558 1818.17700 1818.17700
1734.0 0.000577 1817.94568 1817.94568
1829.0 0.000547 1817.72644 1817.72644
1818.0 0.000550 1817.51904 1817.51904
1784.0 0.000561 1817.32288 1817.32288
1783.0 0.000561 1817.13757 1817.13745
1826.0 0.000548 1816.96252 1816.96252
1824.0 0.000548 1816.79712 1816.79712
1753.0 0.000570 1816.64099 1816.64087
1772.0 0.000564 1816.49353 1816.49353
1847.0 0.000541 1816.35425 1816.35413
1753.0 0.000570 1816.22253 1816.22253
1824.0 0.000548 1816.09790 1816.09790
1758.0 0.000569 1815.97986 1815.97974
1745.0 0.000573 1815.86755 1815.86743
1858.0 0.000538 1815.76074 1815.76062
1832.0 0.000546 1815.65869 1815.65869
1789.0 0.000559 1815.56091 1815.56091
1829.0 0.000547 1815.46692 1815.46680
1791.0 0.000558 1815.37585 1815.37585
1746.0 0.000573 1815.28748 1815.28735
1766.0 0.000566 1815.20081 1815.20081
1792.0 0.000558 1815.11560 1815.11560
1853.0 0.000540 1815.03125 1815.03113
1852.0 0.000540 1814.94690 1814.94690
1855.0 0.000539 1814.86230 1814.86230
1806.0 0.000554 1814.77661 1814.77649
1821.0 0.000549 1814.68933 1814.68921
1829.0 0.000547 1814.59985 1814.59985
1805.0 0.000554 1814.50769 1814.50757
1766.0 0.000566 1814.41211 1814.41199
1800.0 0.000556 1814.31250 1814.31250
1778.0 0.000562 1814.20862 1814.20850
1787.0 0.000560 1814.09937 1814.09924
1895.0 0.000528 1813.98438 1813.98425
1866.0 0.000536 1813.86328 1813.86316
1865.0 0.000536 1813.73511 1813.73499
1792.0 0.000558 1813.59949 1813.59949
1847.0 0.000541 1813.45593 1813.45581
1870.0 0.000535 1813.30359 1813.30359
1764.0 0.000567 1813.14233 1813.14221
1794.0 0.000557 1812.97107 1812.97095
1789.0 0.000559 1812.78967 1812.78955
1873.0 0.000534 1812.59717 1812.59705
1811.0 0.000552 1812.39331 1812.39319
1768.0 0.000566 1812.17749 1812.17737
1820.0 0.000549 1811.94910 1811.94897
1870.0 0.000535 1811.70776 1811.70764
1843.0 0.000543 1811.45251 1811.45239
1840.0 0.000543 1811.18335 1811.18323
1841.0 0.000543 1810.89929 1810.89929
1868.0 0.000535 1810.60010 1810.59998
1825.0 0.000548 1810.28528 1810.28516
1862.0 0.000537 1809.95410 1809.95398
1843.0 0.000543 1809.60620 1809.60620
1777.0 0.000563 1809.24097 1809.24097
1858.0 0.000538 1808.85815 1808.85803
1844.0 0.000542 1808.45715 1808.45703
1806.0 0.000554 1808.03735 1808.03723
1822.0 0.000549 1807.59839 1807.59827
1875.0 0.000533 1807.13977 1807.13965
1850.0 0.000541 1806.66125 1806.66113
1869.0 0.000535 1806.16211 1806.16199
1888.0 0.000530 1805.64209 1805.64197
1839.0 0.000544 1805.10059 1805.10034
1779.0 0.000562 1804.53723 1804.53711
1825.0 0.000548 1803.95178 1803.95166
1877.0 0.000533 1803.34363 1803.34351
1904.0 0.000525 1802.71265 1802.71252
1873.0 0.000534 1802.05811 1802.05798
1816.0 0.000551 1801.37976 1801.37964
1750.0 0.000571 1800.67749 1800.67737
1803.0 0.000555 1799.95056 1799.95044
1816.0 0.000551 1799.19885 1799.19861
1853.0 0.000540 1798.42200 1798.42188
1840.0 0.000543 1797.61963 1797.61938
1828.0 0.000547 1796.79150 1796.79138
1786.0 0.000560 1795.93726 1795.93701
1752.0 0.000571 1795.05664 1795.05652
1796.0 0.000557 1794.14929 1794.14905
1787.0 0.000560 1793.21497 1793.21484
1755.0 0.000570 1792.25330 1792.25317
1801.0 0.000555 1791.26428 1791.26416
1833.0 0.000546 1790.24756 1790.24744
1839.0 0.000544 1789.20276 1789.20264
1832.0 0.000546 1788.13000 1788.12988
1794.0 0.000557 1787.02869 1787.02856
1781.0 0.000561 1785.89880 1785.89856
1826.0 0.000548 1784.74023 1784.73999
1826.0 0.000548 1783.55261 1783.55237
1803.0 0.000555 1782.33594 1782.33582
1787.0 0.000560 1781.08997 1781.08972
1791.0 0.000558 1779.81458 1779.81433
1847.0 0.000541 1778.50977 1778.50964
1725.0 0.000580 1777.17505 1777.17493
1716.0 0.000583 1775.81091 1775.81067
1680.0 0.000595 1774.41663 1774.41638
1718.0 0.000582 1772.99255 1772.99231
1758.0 0.000569 1771.53821 1771.53809
1828.0 0.000547 1770.05396 1770.05371
1761.0 0.000568 1768.53955 1768.53931
1744.0 0.000573 1766.99487 1766.99463
1717.0 0.000582 1765.42004 1765.41980
1760.0 0.000568 1763.81494 1766.01624
1764.0 0.000567 1762.17957 1764.48120
1760.0 0.000568 1760.51404 1762.92297
1798.0 0.000556 1758.81812 1761.34204
1763.0 0.000567 1757.09216 1759.73962
1778.0 0.000562 1755.33594 1758.11621
1742.0 0.000574 1753.54968 1756.47290
1804.0 0.000554 1751.73328 1754.81079
1761.0 0.000568 1749.88696 1753.13135
1711.0 0.000584 1748.01062 1751.43579
1748.0 0.000572 1746.10437 1749.72607
1721.0 0.000581 1744.16858 1748.00391
1751.0 0.000571 1742.20300 1746.27136
1730.0 0.000578 1740.20801 1744.53149
1747.0 0.000572 1738.18384 1742.78723
1712.0 0.000584 1736.13025 1741.04150
1703.0 0.000587 1734.04773 1739.29883
1670.0 0.000599 1731.93616 1737.56348
1603.0 0.000624 1729.79590 1735.84155
1624.0 0.000616 1727.62732 1734.13953
1706.0 0.000586 1725.43018 1732.46497
1681.0 0.000595 1723.20496 1730.82813
1756.0 0.000569 1720.95178 1729.23999
1633.0 0.000612 1718.67102 1727.71521
1669.0 0.000599 1716.36267 1726.27100
1718.0 0.000582 1714.02722 1724.92957
1675.0 0.000597 1711.66455 1723.71814
1652.0 0.000605 1709.27527 1722.67212
1665.0 0.000601 1706.85962 1721.83691
1726.0 0.000579 1704.41772 1721.27197
1707.0 0.000586 1701.94995 1721.05615
1754.0 0.000570 1699.45667 1721.29700
1691.0 0.000591 1696.93787 1722.14355
1713.0 0.000584 1694.39441 1723.81799
1803.0 0.000555 1691.82605 1726.71155
1788.0 0.000559 1689.23340 1731.73718
1745.0 0.000573 1686.61682 1741.46313
1861.0 0.000537 1683.97644 1762.91699
1990.0 0.000503 1681.31299 1812.39124
2082.0 0.000480 1678.62646 1920.14294
2366.0 0.000423 1675.91760 2130.47827
2685.0 0.000372 1673.18616 2493.42969
3017.0 0.0003315 1670.43323 3042.05225
3505.0 0.0002853 1667.65869 3747.91040
4267.0 0.0002344 1664.86316 4488.47168
4997.0 0.0002001 1662.04712 5030.66260
5311.0 0.0001883 1659.21069 5068.91650
4657.0 0.0002147 1656.35449 4517.84668
3823.0 0.0002616 1653.47888 3656.64990
2927.0 0.0003416 1650.58423 2840.22754
2395.0 0.000418 1647.67126 2263.90820
1917.0 0.000522 1644.73999 1940.61890
1738.0 0.000575 1641.79126 1789.27283
1762.0 0.000568 1638.82507 1725.02380
1717.0 0.000582 1635.84229 1696.15271
1695.0 0.000590 1632.84314 1679.93311
1690.0 0.000592 1629.82813 1668.44189
1576.0 0.000635 1626.79773 1659.20313
1630.0 0.000613 1623.75232 1651.35327
1604.0 0.000623 1620.69263 1644.47949
1567.0 0.000638 1617.61902 1638.32629
1600.0 0.000625 1614.53162 1632.71777
1570.0 0.000637 1611.43152 1627.52820
1535.0 0.000651 1608.31885 1622.66492
1553.0 0.000644 1605.19421 1618.05957
1578.0 0.000634 1602.05798 1613.65979
1547.0 0.000646 1598.91064 1609.42566
1548.0 0.000646 1595.75293 1605.32678
1636.0 0.000611 1592.58508 1601.33826
1605.0 0.000623 1589.40796 1597.44153
1537.0 0.000651 1586.22156 1593.62036
1497.0 0.000668 1583.02686 1589.86328
1573.0 0.000636 1579.82397 1586.15967
1625.0 0.000615 1576.61377 1582.50171
1582.0 0.000632 1573.39661 1578.88257
1523.0 0.000657 1570.17285 1575.29663
1540.0 0.000649 1566.94336 1571.73950
1546.0 0.000647 1563.70837 1568.20740
1590.0 0.000629 1560.46838 1564.69702
1568.0 0.000638 1557.22437 1561.20630
1507.0 0.000664 1553.97620 1557.73230
1519.0 0.000658 1550.72498 1554.27393
1481.0 0.000675 1547.47058 1550.82910
1505.0 0.000664 1544.21423 1547.39709
1533.0 0.000652 1540.95593 1543.97668
1577.0 0.000634 1537.69653 1540.56738
1498.0 0.000668 1534.43628 1537.16772
1483.0 0.000674 1531.17566 1533.77795
1493.0 0.000670 1527.91577 1530.39758
1551.0 0.000645 1524.65637 1527.02600
1494.0 0.000669 1521.39856 1523.66345
1525.0 0.000656 1518.14233 1518.14209
1455.0 0.000687 1514.88855 1514.88843
1448.0 0.000691 1511.63782 1511.63757
1543.0 0.000648 1508.39026 1508.39014
1450.0 0.000690 1505.14661 1505.14648
1465.0 0.000683 1501.90759 1501.90747
1541.0 0.000649 1498.67322 1498.67310
1536.0 0.000651 1495.44458 1495.44446
1439.0 0.000695 1492.22156 1492.22131
1482.0 0.000675 1489.00513 1489.00488
1462.0 0.000684 1485.79529 1485.79517
1487.0 0.000672 1482.59314 1482.59302
1418.0 0.000705 1479.39868 1479.39844
1502.0 0.000666 1476.21265 1476.21240
1473.0 0.000679 1473.03540 1473.03516
1456.0 0.000687 1469.86743 1469.86719
1443.0 0.000693 1466.70923 1466.74841
1429.0 0.000700 1463.56140 1463.60217
1435.0 0.000697 1460.42395 1460.46680
1418.0 0.000705 1457.29810 1457.34290
1475.0 0.000678 1454.18359 1454.23047
1444.0 0.000693 1451.08118 1451.13049
1428.0 0.000700 1447.99133 1448.04321
1501.0 0.000666 1444.91443 1444.96899
1538.0 0.000650 1441.85107 1441.90857
1418.0 0.000705 1438.80139 1438.86194
1448.0 0.000691 1435.76611 1435.83020
1392.0 0.000718 1432.74536 1432.81323
1449.0 0.000690 1429.73999 1429.81177
1399.0 0.000715 1426.74976 1426.82617
1422.0 0.000703 1423.77563 1423.85693
1374.0 0.000728 1420.81787 1420.90442
1484.0 0.000674 1417.87695 1417.96936
1415.0 0.000707 1414.95300 1415.05200
1398.0 0.000715 1412.04663 1412.15295
1382.0 0.000724 1409.15796 1409.27234
1447.0 0.000691 1406.28784 1406.41125
1410.0 0.000709 1403.43616 1403.56958
1432.0 0.000698 1400.60364 1400.74854
1404.0 0.000712 1397.79028 1397.94812
1393.0 0.000718 1394.99683 1395.16943
1375.0 0.000727 1392.22314 1392.41260
1497.0 0.000668 1389.47009 1389.67908
1346.0 0.000743 1386.73755 1386.96924
1426.0 0.000701 1384.02612 1384.28442
1443.0 0.000693 1381.33618 1381.62585
1413.0 0.000708 1378.66772 1378.99475
1379.0 0.000725 1376.02124 1376.39343
1362.0 0.000734 1373.39722 1373.82458
1345.0 0.000743 1370.79553 1371.29126
1406.0 0.000711 1368.21692 1368.79883
1438.0 0.000695 1365.66125 1366.35632
1413.0 0.000708 1363.12903 1363.98523
1407.0 0.000711 1360.62061 1361.74524
1387.0 0.000721 1358.13586 1359.79675
1424.0 0.000702 1355.67554 1358.51147
1436.0 0.000696 1353.23938 1358.58606
1394.0 0.000717 1350.82813 1361.04541
1401.0 0.000714 1348.44141 1366.93213
1421.0 0.000704 1346.08020 1376.45984
1428.0 0.000700 1343.74390 1387.86340
1473.0 0.000679 1341.43335 1397.22827
1463.0 0.000684 1339.14844 1399.26843
1402.0 0.000713 1336.88953 1390.63489
1403.0 0.000713 1334.65662 1374.52209
1408.0 0.000710 1332.44995 1357.41931
1366.0 0.000732 1330.26965 1343.79529
1358.0 0.000736 1328.11621 1334.76550
1326.0 0.000754 1325.98926 1329.25732
1303.0 0.000767 1323.88953 1325.71265
1311.0 0.000763 1321.81653 1323.03735
1343.0 0.000745 1319.77075 1320.70129
1354.0 0.000739 1317.75244 1318.50708
1332.0 0.000751 1315.76135 1316.39063
1286.0 0.000778 1313.79810 1314.33142
1288.0 0.000776 1311.86218 1312.31995
1323.0 0.000756 1309.95422 1310.35132
1339.0 0.000747 1308.07385 1308.42163
1294.0 0.000773 1306.22144 1306.52832
1336.0 0.000749 1304.39709 1304.66992
1379.0 0.000725 1302.60071 1302.84485
1321.0 0.000757 1300.83252 1301.05225
1335.0 0.000749 1299.09241 1299.29114
1267.0 0.000789 1297.38049 1297.56104
1391.0 0.000719 1295.69690 1295.86182
1336.0 0.000749 1294.04138 1294.19250
1350.0 0.000741 1292.41443 1292.55334
1331.0 0.000751 1290.81555 1290.94373
1310.0 0.000763 1289.24500 1289.36377
1291.0 0.000775 1287.70276 1287.81299
1274.0 0.000785 1286.18884 1286.29150
1306.0 0.000766 1284.70325 1284.79907
1305.0 0.000766 1283.24585 1283.33545
1279.0 0.000782 1281.81677 1281.90076
1294.0 0.000773 1280.41589 1280.49475
1312.0 0.000762 1279.04309 1279.11731
1320.0 0.000758 1277.69849 1277.76843
1323.0 0.000756 1276.38184 1276.44788
1292.0 0.000774 1275.09338 1275.15588
1261.0 0.000793 1273.83276 1273.89197
1246.0 0.000803 1272.59985 1272.65601
1237.0 0.000808 1271.39490 1271.44824
1244.0 0.000804 1270.21753 1270.26819
1285.0 0.000778 1269.06787 1269.11609
1282.0 0.000780 1267.94556 1267.99158
1277.0 0.000783 1266.85083 1266.89478
1303.0 0.000767 1265.78320 1265.82507
1276.0 0.000784 1264.74280 1264.74280
1272.0 0.000786 1263.72937 1263.72925
1290.0 0.000775 1262.74268 1262.74268
1277.0 0.000783 1261.78296 1261.78296
1295.0 0.000772 1260.84973 1260.84973
1272.0 0.000786 1259.94287 1259.94287
1246.0 0.000803 1259.06250 1259.06250
1268.0 0.000789 1258.20813 1258.20813
1324.0 0.000755 1257.37988 1257.37976
1259.0 0.000794 1256.57715 1256.57715
1314.0 0.000761 1255.80029 1255.80029
1303.0 0.000767 1255.04871 1255.04858
1282.0 0.000780 1254.32239 1254.32239
1259.0 0.000794 1253.62097 1253.62097
1253.0 0.000798 1252.94446 1252.94446
1242.0 0.000805 1252.29260 1252.29260
1255.0 0.000797 1251.66528 1251.66516
1247.0 0.000802 1251.06213 1251.06201
1254.0 0.000797 1250.48279 1250.48267
1273.0 0.000786 1249.92725 1249.92712
1307.0 0.000765 1249.39526 1249.39514
1264.0 0.000791 1248.88635 1248.88635
1296.0 0.000772 1248.40076 1248.40076
1312.0 0.000762 1247.93787 1247.93774
1237.0 0.000808 1247.49756 1247.49744
1227.0 0.000815 1247.07935 1247.07935
1231.0 0.000812 1246.68323 1246.68323
1215.0 0.000823 1246.30884 1246.30884
1209.0 0.000827 1245.95605 1245.95605
1224.0 0.000817 1245.62463 1245.62451
1262.0 0.000792 1245.31384 1245.31384
1260.0 0.000794 1245.02380 1245.02380
1217.0 0.000822 1244.75427 1244.75415
1210.0 0.000826 1244.50464 1244.50464
1274.0 0.000785 1244.27502 1244.27502
1313.0 0.000762 1244.06482 1244.06470
1225.0 0.000816 1243.87390 1243.87378
1237.0 0.000808 1243.70178 1243.70166
1240.0 0.000806 1243.54822 1243.54810
1203.0 0.000831 1243.41309 1243.41309
1232.0 0.000812 1243.29590 1243.29590
1191.0 0.000840 1243.19641 1243.19629
1193.0 0.000838 1243.11426 1243.11414
1226.0 0.000816 1243.04907 1243.04895
1231.0 0.000812 1243.00073 1243.00073
1242.0 0.000805 1242.96863 1242.96863
1199.0 0.000834 1242.95276 1242.95276
1256.0 0.000796 1242.95264 1242.95251
1232.0 0.000812 1242.96777 1242.96765
1221.0 0.000819 1242.99805 1242.99792
1230.0 0.000813 1243.04309 1243.04297
1265.0 0.000791 1243.10254 1243.10242
1247.0 0.000802 1243.17603 1243.17590
1227.0 0.000815 1243.26318 1243.26306
1188.0 0.000842 1243.36377 1243.36365
1268.0 0.000789 1243.47729 1243.47717
1222.0 0.000818 1243.60364 1243.60352
1198.0 0.000835 1243.74219 1243.74207
1226.0 0.000816 1243.89294 1243.89270
1224.0 0.000817 1244.05505 1244.05493
1195.0 0.000837 1244.22852 1244.22839
1240.0 0.000806 1244.41309 1244.41284
1225.0 0.000816 1244.60803 1244.60791
1224.0 0.000817 1244.81335 1244.81323
1224.0 0.000817 1245.02844 1245.02820
1186.0 0.000843 1245.25305 1245.25281
1189.0 0.000841 1245.48669 1246.31323
1201.0 0.000833 1245.72925 1248.22729
1180.0 0.000847 1245.98035 1248.59216
1216.0 0.000822 1246.23938 1248.97278
1200.0 0.000833 1246.50610 1249.37000
1291.0 0.000775 1246.78027 1249.78406
1157.0 0.000864 1247.06140 1250.21570
1183.0 0.000845 1247.34924 1250.66577
1265.0 0.000791 1247.64319 1251.13452
1231.0 0.000812 1247.94324 1251.62366
1173.0 0.000853 1248.24878 1252.13403
1213.0 0.000824 1248.55957 1252.66724
1248.0 0.000801 1248.87512 1253.22485
1257.0 0.000796 1249.19519 1253.80896
1212.0 0.000825 1249.51953 1254.42212
1191.0 0.000840 1249.84741 1255.06702
1182.0 0.000846 1250.17896 1255.74695
1165.0 0.000858 1250.51331 1256.46570
1210.0 0.000826 1250.85059 1257.22876
1194.0 0.000838 1251.19019 1258.04126
1208.0 0.000828 1251.53162 1258.91028
1182.0 0.000846 1251.87488 1259.84412
1190.0 0.000840 1252.21936 1260.85315
1279.0 0.000782 1252.56494 1261.94946
1218.0 0.000821 1252.91113 1263.14856
1214.0 0.000824 1253.25732 1264.46899
1217.0 0.000822 1253.60376 1265.93518
1206.0 0.000829 1253.94958 1267.57666
1211.0 0.000826 1254.29468 1269.43176
1198.0 0.000835 1254.63867 1271.55029
1195.0 0.000837 1254.98120 1273.99683
1152.0 0.000868 1255.32214 1276.85754
1255.0 0.000797 1255.66089 1280.24841
1215.0 0.000823 1255.99707 1284.32922
1224.0 0.000817 1256.33057 1289.32861
1255.0 0.000797 1256.66101 1295.60291
1298.0 0.000770 1256.98816 1303.82764
1323.0 0.000756 1257.31140 1315.65491
1332.0 0.000751 1257.63062 1335.68188
1439.0 0.000695 1257.94543 1376.11584
1592.0 0.000628 1258.25549 1464.78125
1757.0 0.000569 1258.56055 1652.81140
2152.0 0.000465 1258.86047 2010.06213
2561.0 0.000390 1259.15466 2590.29028
3365.0 0.0002972 1259.44299 3360.95825
4051.0 0.0002469 1259.72498 4142.93750
4591.0 0.0002178 1260.00049 4639.19678
4677.0 0.0002138 1260.26904 4581.51514
3970.0 0.0002519 1260.53076 3971.83716
3210.0 0.0003115 1260.78479 3121.12354
2443.0 0.000409 1261.03125 2357.29663
1836.0 0.000545 1261.26965 1834.69263
1593.0 0.000628 1261.49988 1546.14880
1352.0 0.000740 1261.72156 1411.59485
1342.0 0.000745 1261.93445 1354.30530
1343.0 0.000745 1262.13818 1328.72644
1269.0 0.000788 1262.33240 1314.91553
1256.0 0.000796 1262.51721 1305.80725
1254.0 0.000797 1262.69202 1299.09143
1260.0 0.000794 1262.85681 1293.90088
1250.0 0.000800 1263.01099 1289.79456
1286.0 0.000778 1263.15466 1286.49426
1235.0 0.000810 1263.28735 1283.80652
1252.0 0.000799 1263.40894 1281.59509
1246.0 0.000803 1263.51904 1279.76001
1253.0 0.000798 1263.61768 1278.22705
1245.0 0.000803 1263.70447 1276.93335
1278.0 0.000782 1263.77893 1275.82153
1236.0 0.000809 1263.84119 1274.84021
1242.0 0.000805 1263.89099 1273.95032
1281.0 0.000781 1263.92798 1273.13806
1255.0 0.000797 1263.95203 1272.40259
1271.0 0.000787 1263.96277 1271.74426
1283.0 0.000779 1263.96021 1271.15491
1230.0 0.000813 1263.94397 1270.62219
1275.0 0.000784 1263.91394 1270.13354
1277.0 0.000783 1263.87000 1269.67834
1268.0 0.000789 1263.81177 1269.24890
1256.0 0.000796 1263.73926 1268.83984
1254.0 0.000797 1263.65210 1268.44666
1309.0 0.000764 1263.55029 1268.06543
1286.0 0.000778 1263.43359 1267.69312
1314.0 0.000761 1263.30164 1267.32690
1360.0 0.000735 1263.15454 1266.96411
1336.0 0.000749 1262.99207 1266.60291
1364.0 0.000733 1262.81384 1266.24121
1289.0 0.000776 1262.62000 1265.87744
1328.0 0.000753 1262.41028 1265.51038
1275.0 0.000784 1262.18457 1265.13843
1251.0 0.000799 1261.94263 1264.76038
1267.0 0.000789 1261.68433 1264.37573
1329.0 0.000752 1261.40967 1263.13879
1247.0 0.000802 1261.11829 1261.12354
1256.0 0.000796 1260.81042 1260.81604
1343.0 0.000745 1260.48560 1260.49170
1273.0 0.000786 1260.14380 1260.15039
1308.0 0.000765 1259.78491 1259.79211
1283.0 0.000779 1259.40894 1259.41699
1322.0 0.000756 1259.01575 1259.02466
1249.0 0.000801 1258.60498 1258.61487
1274.0 0.000785 1258.17688 1258.18811
1276.0 0.000784 1257.73108 1257.74377
1240.0 0.000806 1257.26770 1257.28235
1329.0 0.000752 1256.78662 1256.80359
1295.0 0.000772 1256.28760 1256.30750
1374.0 0.000728 1255.77087 1255.79456
1265.0 0.000791 1255.23596 1255.26489
1365.0 0.000733 1254.68311 1254.72058
1314.0 0.000761 1254.11218 1254.16626
1316.0 0.000760 1253.52295 1253.61340
1307.0 0.000765 1252.91565 1253.08618
1321.0 0.000757 1252.28992 1252.61987
1258.0 0.000795 1251.64600 1252.24768
1386.0 0.000722 1250.98364 1251.96387
1333.0 0.000750 1250.30286 1251.68555
1317.0 0.000759 1249.60376 1251.26111
1291.0 0.000775 1248.88599 1250.53931
1287.0 0.000777 1248.14990 1249.50720
1327.0 0.000754 1247.39514 1248.32764
1316.0 0.000760 1246.62183 1247.17163
1307.0 0.000765 1245.83008 1246.11877
1249.0 0.000801 1245.01953 1245.16528
1287.0 0.000777 1244.19067 1244.27039
1272.0 0.000786 1243.34302 1243.39526
1234.0 0.000810 1242.47681 1242.51721
1266.0 0.000790 1241.59204 1241.62695
1318.0 0.000759 1240.68872 1240.72058
1331.0 0.000751 1239.76685 1239.79797
1336.0 0.000749 1238.82629 1238.85974
1310.0 0.000763 1237.86731 1237.90881
1275.0 0.000784 1236.88977 1236.95276
1247.0 0.000802 1235.89368 1236.00391
1269.0 0.000788 1234.87915 1235.07776
1302.0 0.000768 1233.84631 1234.18127
1277.0 0.000783 1232.79504 1233.29590
1221.0 0.000819 1231.72534 1232.36877
1253.0 0.000798 1230.63721 1231.33313
1225.0 0.000816 1229.53113 1230.15186
1299.0 0.000770 1228.40662 1228.86609
1243.0 0.000805 1227.26404 1227.55334
1277.0 0.000783 1226.10327 1226.26282
1217.0 0.000822 1224.92456 1225.00623
1200.0 0.000833 1223.72778 1223.77075
1236.0 0.000809 1222.51306 1222.53894
1245.0 0.000803 1221.28064 1221.29907
1293.0 0.000773 1220.03052 1220.04504
1207.0 0.000829 1218.76245 1218.77441
1281.0 0.000781 1217.47681 1217.48706
1259.0 0.000794 1216.17371 1216.18262
1216.0 0.000822 1214.85327 1214.86108
1245.0 0.000803 1213.51538 1213.52222
1230.0 0.000813 1212.16028 1212.16638
1184.0 0.000845 1210.78796 1210.79346
1157.0 0.000864 1209.39844 1209.40332
1204.0 0.000831 1207.99231 1207.99670
1194.0 0.000838 1206.56897 1206.57288
1233.0 0.000811 1205.12915 1205.13281
1216.0 0.000822 1203.67249 1203.67578
1167.0 0.000857 1202.19946 1202.20264
1209.0 0.000827 1200.70984 1200.71265
1232.0 0.000812 1199.20386 1199.20667
1134.0 0.000882 1197.68201 1197.68323
1144.0 0.000874 1196.14404 1196.14514
1200.0 0.000833 1194.58984 1194.59094
1185.0 0.000844 1193.02002 1193.02087
1199.0 0.000834 1191.43445 1191.43518
1234.0 0.000810 1189.83350 1189.83435
1247.0 0.000802 1188.21716 1188.21777
1171.0 0.000854 1186.58533 1186.58582
1185.0 0.000844 1184.93835 1184.93896
1117.0 0.000895 1183.27673 1183.27710
1203.0 0.000831 1181.59998 1181.60034
1185.0 0.000844 1179.90845 1179.90894
1150.0 0.000870 1178.20264 1178.20288
1208.0 0.000828 1176.48218 1176.48242
1144.0 0.000874 1174.74768 1174.74805
1158.0 0.000864 1172.99890 1172.99915
1133.0 0.000883 1171.23621 1171.23645
1095.0 0.000913 1169.45984 1169.46008
1119.0 0.000894 1167.67004 1167.67017
1121.0 0.000892 1165.86646 1165.86646
1175.0 0.000851 1164.04956 1164.04956
1114.0 0.000898 1162.21948 1162.21912
1138.0 0.000879 1160.37683 1160.37634
1122.0 0.000891 1158.52112 1158.52075
1113.0 0.000898 1156.65271 1156.65234
1108.0 0.000903 1154.77185 1154.77148
1093.0 0.000915 1152.87891 1152.87854
1169.0 0.000855 1150.97363 1150.97327
1120.0 0.000893 1149.05652 1149.05615
1139.0 0.000878 1147.12756 1147.12720
1136.0 0.000880 1145.18726 1145.18689
1176.0 0.000850 1143.23535 1143.23499
1149.0 0.000870 1141.27222 1141.27173
1158.0 0.000864 1139.29797 1139.29761
1082.0 0.000924 1137.31311 1137.31274
1139.0 0.000878 1135.31750 1135.31714
1148.0 0.000871 1133.31128 1133.31091
1157.0 0.000864 1131.29468 1131.29431
1136.0 0.000880 1129.26807 1129.26770
1135.0 0.000881 1127.23169 1127.23132
1187.0 0.000842 1125.18542 1125.18506
1129.0 0.000886 1123.12952 1123.12915
1144.0 0.000874 1121.06433 1121.06396
1137.0 0.000880 1118.99011 1118.98975
1112.0 0.000899 1116.90674 1127.16956
1105.0 0.000905 1114.81458 1125.54126
1227.0 0.000815 1112.71375 1123.93652
1079.0 0.000927 1110.60486 1122.35864
1111.0 0.000900 1108.48743 1120.81091
1139.0 0.000878 1106.36194 1119.29773
1181.0 0.000847 1104.22888 1117.82336
1046.0 0.000956 1102.08801 1116.39307
1099.0 0.000910 1099.93982 1115.01233
1106.0 0.000904 1097.78430 1113.68750
1092.0 0.000916 1095.62170 1112.42639
1139.0 0.000878 1093.45239 1111.23730
1066.0 0.000938 1091.27625 1110.12952
1065.0 0.000939 1089.09387 1109.11450
1098.0 0.000911 1086.90503 1108.20471
1089.0 0.000918 1084.71033 1107.41541
1127.0 0.000887 1082.50952 1106.76343
1111.0 0.000900 1080.30310 1106.26965
1142.0 0.000876 1078.09131 1105.95801
1077.0 0.000929 1075.87402 1105.85669
1178.0 0.000849 1073.65198 1106.00037
1158.0 0.000864 1071.42480 1106.42957
1108.0 0.000903 1069.19299 1107.19397
1136.0 0.000880 1066.95667 1108.35413
1074.0 0.000931 1064.71606 1109.98474
1083.0 0.000923 1062.47144 1112.17822
1106.0 0.000904 1060.22266 1115.05017
1145.0 0.000873 1057.97021 1118.74792
1120.0 0.000893 1055.71448 1123.45972
1146.0 0.000873 1053.45508 1129.42957
1092.0 0.000916 1051.19275 1136.97925
1169.0 0.000855 1048.92725 1146.53796
1140.0 0.000877 1046.65930 1158.69080
1125.0 0.000889 1044.38843 1174.24988
1201.0 0.000833 1042.11523 1194.39417
1216.0 0.000822 1039.83997 1221.01904
1275.0 0.000784 1037.56274 1257.91992
1388.0 0.000720 1035.28357 1314.89514
1531.0 0.000653 1033.00269 1419.87146
1938.0 0.000516 1030.72034 1646.34460
2467.0 0.000405 1028.43689 2154.66040
3557.0 0.0002811 1026.15222 3212.05273
5294.0 0.0001889 1023.86670 5110.43408
7734.0 0.0001293 1021.58032 7914.17773
10939.0 0.0000914 1019.29346 11122.77148
13656.0 0.0000732 1017.00647 13592.58887
14041.0 0.0000712 1014.71899 14030.27344
12104.0 0.0000826 1012.43164 12069.32129
8527.0 0.0001173 1010.14435 8840.92676
5536.0 0.0001806 1007.85767 5752.52197
3459.0 0.0002891 1005.57123 3546.39917
2231.0 0.000448 1003.28546 2283.87402
1709.0 0.000585 1001.00067 1676.52405
1396.0 0.000716 998.71698 1411.21753
1291.0 0.000775 996.43445 1290.66162
1201.0 0.000833 994.15314 1224.86182
1082.0 0.000924 991.87335 1180.96179
1180.0 0.000847 989.59558 1148.06091
1130.0 0.000885 987.31934 1122.09399
1111.0 0.000900 985.04523 1101.03589
1025.0 0.000976 982.77325 1083.61743
998.0 0.001002 980.50385 1068.96326
1045.0 0.000957 978.23669 1056.44495
991.0 0.001009 975.97223 1045.60254
1014.0 0.000986 973.71063 1036.09302
985.0 0.001015 971.45215 1027.65674
978.0 0.001022 969.19659 1020.09625
945.0 0.001058 966.94421 1013.25128
982.0 0.001018 964.69537 1007.00220
955.0 0.001047 962.45007 1001.25189
967.0 0.001034 960.20856 995.92230
963.0 0.001038 957.97089 990.95007
987.0 0.001013 955.73712 986.28345
926.0 0.001080 953.50745 981.87994
888.0 0.001126 951.28235 977.70471
938.0 0.001066 949.06140 973.72754
923.0 0.001083 946.84509 969.92426
952.0 0.001050 944.63336 966.27368
960.0 0.001042 942.42670 962.75854
930.0 0.001075 940.22473 959.36316
932.0 0.001073 938.02783 956.07483
965.0 0.001036 935.83624 952.88263
879.0 0.001138 933.65009 949.77686
921.0 0.001086 931.46918 946.74872
914.0 0.001094 929.29382 943.79132
962.0 0.001040 927.12415 940.89825
912.0 0.001096 924.96051 938.06415
918.0 0.001089 922.80273 935.28369
870.0 0.001149 920.65082 932.55280
905.0 0.001105 918.50507 929.86755
894.0 0.001119 916.36584 927.22491
880.0 0.001136 914.23267 914.24573
906.0 0.001104 912.10602 912.12042
887.0 0.001127 909.98608 910.00201
911.0 0.001098 907.87268 907.89038
899.0 0.001112 905.76630 905.78613
854.0 0.001171 903.66656 903.68890
900.0 0.001111 901.57385 901.59912
861.0 0.001161 899.48828 899.51721
895.0 0.001117 897.41003 897.44342
890.0 0.001124 895.33875 895.37775
895.0 0.001117 893.27484 893.32098
868.0 0.001152 891.21838 891.27393
864.0 0.001157 889.16968 889.23871
865.0 0.001156 887.12848 887.22003
896.0 0.001116 885.09479 885.23187
879.0 0.001138 883.06891 883.30725
891.0 0.001122 881.05109 881.50732
868.0 0.001152 879.04095 879.91162
879.0 0.001138 877.03888 878.56873
863.0 0.001159 875.04480 877.40698
864.0 0.001157 873.05914 876.17670
848.0 0.001179 871.08136 874.52209
849.0 0.001178 869.11188 872.22992
889.0 0.001125 867.15070 869.48920
891.0 0.001122 865.19818 866.68793
871.0 0.001148 863.25403 864.08386
856.0 0.001168 861.31824 861.74347
833.0 0.001200 859.39099 859.61090
855.0 0.001170 857.47241 857.60052
810.0 0.001235 855.56268 855.65045
814.0 0.001229 853.66162 853.72888
815.0 0.001227 851.76917 851.82379
837.0 0.001195 849.88556 849.93103
810.0 0.001235 848.01105 848.04962
835.0 0.001198 846.14520 846.17828
826.0 0.001211 844.28839 844.31708
861.0 0.001161 842.44055 842.46570
793.0 0.001261 840.60187 840.62408
811.0 0.001233 838.77209 838.79181
833.0 0.001200 836.95135 836.96899
835.0 0.001198 835.13989 835.15582
796.0 0.001256 833.33759 833.35199
856.0 0.001168 831.54443 831.55756
809.0 0.001236 829.76038 829.77234
840.0 0.001190 827.98560 827.99658
867.0 0.001153 826.22028 826.23041
818.0 0.001222 824.46399 824.47333
833.0 0.001200 822.71716 822.72583
801.0 0.001248 820.97949 820.98761
837.0 0.001195 819.25140 819.25897
803.0 0.001245 817.53241 817.53949
815.0 0.001227 815.82281 815.82935
830.0 0.001205 814.12268 814.12885
846.0 0.001182 812.43182 812.43762
852.0 0.001174 810.75055 810.75598
819.0 0.001221 809.07843 809.08356
821.0 0.001218 807.41571 807.42065
797.0 0.001255 805.76251 805.76721
810.0 0.001235 804.11871 804.12311
867.0 0.001153 802.48425 802.48846
824.0 0.001214 800.85913 800.86316
825.0 0.001212 799.24341 799.24719
811.0 0.001233 797.63721 797.64087
861.0 0.001161 796.04022 796.04370
801.0 0.001248 794.45270 794.45599
779.0 0.001284 792.87439 792.87762
746.0 0.001340 791.30560 791.30872
807.0 0.001239 789.74603 789.74658
776.0 0.001289 788.19568 788.19629
796.0 0.001256 786.65479 786.65540
813.0 0.001230 785.12311 785.12372
804.0 0.001244 783.60077 783.60144
810.0 0.001235 782.08746 782.08813
782.0 0.001279 780.58344 780.58411
801.0 0.001248 779.08875 779.08948
783.0 0.001277 777.60309 777.60382
769.0 0.001300 776.12659 776.12738
764.0 0.001309 774.65918 774.65997
758.0 0.001319 773.20074 773.20166
776.0 0.001289 771.75165 771.75250
795.0 0.001258 770.31134 770.31226
760.0 0.001316 768.88013 768.88110
774.0 0.001292 767.45770 767.45868
795.0 0.001258 766.04437 769.12012
760.0 0.001316 764.63983 767.85455
727.0 0.001376 763.24402 766.60736
783.0 0.001277 761.85718 765.37970
792.0 0.001263 760.47900 764.17236
776.0 0.001289 759.10962 762.98645
755.0 0.001325 757.74884 761.82312
764.0 0.001309 756.39661 760.68390
774.0 0.001292 755.05316 759.57050
750.0 0.001333 753.71808 758.48456
744.0 0.001344 752.39160 757.42828
729.0 0.001372 751.07349 756.40399
778.0 0.001285 749.76385 755.41461
801.0 0.001248 748.46246 754.46332
786.0 0.001272 747.16937 753.55383
765.0 0.001307 745.88458 752.69043
776.0 0.001289 744.60803 751.87848
828.0 0.001208 743.33948 751.12360
833.0 0.001200 742.07898 750.43317
773.0 0.001294 740.82654 749.81567
799.0 0.001252 739.58215 749.28149
753.0 0.001328 738.34570 748.84308
738.0 0.001355 737.11694 748.51617
767.0 0.001304 735.89600 748.32202
732.0 0.001366 734.68280 748.28894
724.0 0.001381 733.47742 748.45349
743.0 0.001346 732.27948 748.85724
738.0 0.001355 731.08917 749.54077
741.0 0.001350 729.90631 750.53717
756.0 0.001323 728.73096 751.87927
745.0 0.001342 727.56281 753.63049
711.0 0.001406 726.40198 755.93616
742.0 0.001348 725.24847 759.00092
758.0 0.001319 724.10223 763.10803
767.0 0.001304 722.96283 768.62018
766.0 0.001305 721.83051 776.09167
765.0 0.001307 720.70514 786.60657
841.0 0.001189 719.58685 802.91406
853.0 0.001172 718.47528 832.76965
990.0 0.001010 717.37042 896.50751
1120.0 0.000893 716.27222 1038.35181
1450.0 0.000690 715.18085 1331.42102
1908.0 0.000524 714.09583 1854.02222
2647.0 0.000378 713.01733 2620.56396
3489.0 0.0002866 711.94519 3492.11011
4235.0 0.0002361 710.87939 4151.95313
4299.0 0.0002326 709.81995 4248.76709
3642.0 0.0002746 708.76660 3707.91846
2782.0 0.000359 707.71942 2838.81128
1935.0 0.000517 706.67828 2010.68018
1358.0 0.000736 705.64325 1416.32239
986.0 0.001014 704.61389 1071.49048
851.0 0.001175 703.59039 901.74872
802.0 0.001247 702.57269 825.29248
808.0 0.001238 701.56079 789.45868
766.0 0.001305 700.55444 769.50549
709.0 0.001410 699.55353 756.07117
714.0 0.001401 698.55804 745.93787
752.0 0.001330 697.56812 737.88239
728.0 0.001374 696.58337 731.29602
754.0 0.001326 695.60394 725.80011
694.0 0.001441 694.62958 721.13397
823.0 0.001215 693.66040 717.11060
795.0 0.001258 692.69617 713.59320
828.0 0.001208 691.73682 710.47974
844.0 0.001185 690.78241 707.69379
879.0 0.001138 689.83289 705.17664
801.0 0.001248 688.88800 702.88416
751.0 0.001332 687.94769 700.78558
777.0 0.001287 687.01196 698.86810
704.0 0.001420 686.08075 697.15204
708.0 0.001412 685.15405 695.71411
711.0 0.001406 684.23163 694.69873
710.0 0.001408 683.31342 694.26569
697.0 0.001435 682.39941 694.43738
672.0 0.001488 681.48969 694.89917
710.0 0.001408 680.58386 694.94208
652.0 0.001534 679.68207 693.77808
712.0 0.001404 678.78412 691.25769
676.0 0.001479 677.89014 688.17163
673.0 0.001486 676.99982 685.18549
685.0 0.001460 676.11310 683.21216
666.0 0.001502 675.23022 681.36755
685.0 0.001460 674.35071 679.91705
674.0 0.001484 673.47485 678.68243
654.0 0.001529 672.60217 677.55225
663.0 0.001508 671.73291 676.47510
629.0 0.001590 670.86707 675.43140
644.0 0.001553 670.00427 674.41327
639.0 0.001565 669.14465 673.41779
627.0 0.001595 668.28802 672.44263
651.0 0.001536 667.43451 669.58765
683.0 0.001464 666.58386 667.57440
667.0 0.001499 665.73596 666.77728
662.0 0.001511 664.89099 665.98975
697.0 0.001435 664.04865 665.21167
665.0 0.001504 663.20911 664.44421
624.0 0.001603 662.37201 663.68768
674.0 0.001484 661.53741 662.94324
664.0 0.001506 660.70544 662.21234
667.0 0.001499 659.87573 661.49609
705.0 0.001418 659.04846 660.79675
681.0 0.001468 658.22339 660.11615
659.0 0.001517 657.40045 659.45740
652.0 0.001534 656.57983 658.82404
699.0 0.001431 655.76117 658.22021
683.0 0.001464 654.94458 657.65137
709.0 0.001410 654.12994 657.12457
639.0 0.001565 653.31726 656.64856
669.0 0.001495 652.50635 656.23492
691.0 0.001447 651.69720 655.89868
645.0 0.001550 650.88989 655.66040
676.0 0.001479 650.08423 655.54712
710.0 0.001408 649.28021 655.59717
647.0 0.001546 648.47766 655.86609
648.0 0.001543 647.67664 656.44330
651.0 0.001536 646.87714 657.50543
611.0 0.001637 646.07898 659.48309
653.0 0.001531 645.28223 663.52167
692.0 0.001445 644.48669 672.47717
672.0 0.001488 643.69238 692.40527
811.0 0.001233 642.89941 733.40295
790.0 0.001266 642.10742 807.05615
900.0 0.001111 641.31665 917.84918
1057.0 0.000946 640.52686 1050.51599
1103.0 0.000907 639.73810 1163.71948
1181.0 0.000847 638.95026 1204.34131
1106.0 0.000904 638.16327 1144.60828
991.0 0.001009 637.37726 1016.26404
902.0 0.001109 636.59198 879.47925
798.0 0.001253 635.80756 773.27429
720.0 0.001389 635.02374 707.23920
662.0 0.001511 634.24066 672.68597
689.0 0.001451 633.45831 656.37823
633.0 0.001580 632.67645 648.53375
632.0 0.001582 631.89526 644.09753
695.0 0.001439 631.11450 641.02594
654.0 0.001529 630.33429 638.60138
600.0 0.001667 629.55444 636.56281
615.0 0.001626 628.77502 634.79065
611.0 0.001637 627.99603 633.21423
653.0 0.001531 627.21747 631.78571
638.0 0.001567 626.43909 630.47083
600.0 0.001667 625.66095 629.24475
663.0 0.001508 624.88306 628.08936
605.0 0.001653 624.10541 626.99054
635.0 0.001575 623.32806 625.93890
597.0 0.001675 622.55066 624.92371
612.0 0.001634 621.77344 623.93958
569.0 0.001757 620.99628 622.98138
613.0 0.001631 620.21930 622.04510
653.0 0.001531 619.44226 621.12720
662.0 0.001511 618.66528 620.22504
665.0 0.001504 617.88818 619.33624
614.0 0.001629 617.11121 621.34845
639.0 0.001565 616.33411 620.61072
619.0 0.001616 615.55682 619.89063
642.0 0.001558 614.77954 619.18787
591.0 0.001692 614.00220 618.50238
637.0 0.001570 613.22449 617.83423
603.0 0.001658 612.44672 617.18408
585.0 0.001709 611.66870 616.55267
605.0 0.001653 610.89056 615.94110
630.0 0.001587 610.11224 615.35052
607.0 0.001647 609.33362 615.21442
609.0 0.001642 608.55469 614.69006
670.0 0.001493 607.77557 614.19391
591.0 0.001692 606.99609 613.72833
591.0 0.001692 606.21643 613.29706
640.0 0.001563 605.43634 612.90381
621.0 0.001610 604.65594 612.48535
621.0 0.001610 603.87537 612.18585
610.0 0.001639 603.09430 611.49994
613.0 0.001631 602.31293 611.33551
601.0 0.001664 601.53125 611.24139
605.0 0.001653 600.74927 611.22906
593.0 0.001686 599.96674 611.31158
576.0 0.001736 599.18390 611.50562
629.0 0.001590 598.40063 611.83148
618.0 0.001618 597.61719 612.31421
648.0 0.001543 596.83325 612.98468
570.0 0.001754 596.04889 613.88220
608.0 0.001645 595.26410 615.05682
594.0 0.001684 594.47906 616.57361
634.0 0.001577 593.69354 618.51794
616.0 0.001623 592.90765 621.00665
609.0 0.001642 592.12134 624.20221
623.0 0.001605 591.33478 628.33429
671.0 0.001490 590.54767 633.72321
613.0 0.001631 589.76019 641.06940
626.0 0.001597 588.97241 650.60577
692.0 0.001445 588.18427 664.14325
720.0 0.001389 587.39581 686.09149
794.0 0.001259 586.60681 728.90326
880.0 0.001136 585.81757 822.57135
1134.0 0.000882 585.02795 1023.42792
1501.0 0.000666 584.23810 1405.64673
2040.0 0.000490 583.44794 2014.76147
2800.0 0.000357 582.65735 2788.10083
3587.0 0.0002788 581.86646 3495.01929
3972.0 0.0002518 581.07538 3792.69946
3469.0 0.0002883 580.28387 3483.66357
2670.0 0.000375 579.49231 2762.61670
1959.0 0.000510 578.70026 1991.62976
1351.0 0.000740 577.90820 1404.91150
1076.0 0.000929 577.11572 1068.11292
938.0 0.001066 576.32306 941.36737
933.0 0.001072 575.53033 951.30316
945.0 0.001058 574.73730 1025.53601
1084.0 0.000923 573.94421 1094.26453
1038.0 0.000963 573.15088 1096.77930
951.0 0.001052 572.35742 1016.58392
858.0 0.001166 571.56403 894.58795
781.0 0.001280 570.77032 779.56274
708.0 0.001412 569.97675 696.27576
652.0 0.001534 569.18292 646.51294
593.0 0.001686 568.38928 620.37781
621.0 0.001610 567.59552 607.04156
575.0 0.001739 566.80170 599.51190
597.0 0.001675 566.00806 594.47150
596.0 0.001678 565.21442 590.74689
544.0 0.001838 564.42096 587.65668
604.0 0.001656 563.62744 585.12341
630.0 0.001587 562.83417 583.06342
575.0 0.001739 562.04108 581.44818
551.0 0.001815 561.24811 580.31812
547.0 0.001828 560.45544 579.87781
524.0 0.001908 559.66284 580.78448
548.0 0.001825 558.87061 584.78046
566.0 0.001767 558.07874 595.55023
609.0 0.001642 557.28711 618.84241
666.0 0.001502 556.49585 660.07184
659.0 0.001517 555.70496 718.59784
776.0 0.001289 554.91455 781.33276
794.0 0.001259 554.12439 822.38983
813.0 0.001230 553.33478 816.29138
761.0 0.001314 552.54572 765.73669
681.0 0.001468 551.75714 698.93066
602.0 0.001661 550.96918 640.63129
550.0 0.001818 550.18170 600.95874
554.0 0.001805 549.39484 578.55164
566.0 0.001767 548.60876 567.32605
530.0 0.001887 547.82324 561.73822
587.0 0.001704 547.03851 558.54260
537.0 0.001862 546.25446 556.30676
545.0 0.001835 545.47119 554.50531
545.0 0.001835 544.68878 550.07220
521.0 0.001919 543.90717 548.81537
564.0 0.001773 543.12646 547.68433
547.0 0.001828 542.34668 546.65479
559.0 0.001789 541.56787 545.71130
597.0 0.001675 540.78998 544.84546
547.0 0.001828 540.01306 544.05383
525.0 0.001905 539.23724 543.33862
542.0 0.001845 538.46252 542.70801
590.0 0.001695 537.68896 541.74146
487.0 0.002053 536.91650 541.37238
549.0 0.001821 536.14514 541.24475
546.0 0.001832 535.37518 541.64636
529.0 0.001890 534.60632 543.32068
550.0 0.001818 533.83893 547.84808
552.0 0.001812 533.07269 557.73969
585.0 0.001709 532.30798 575.46698
619.0 0.001616 531.54456 601.01331
634.0 0.001577 530.78253 629.00769
661.0 0.001513 530.02209 648.14655
644.0 0.001553 529.26318 646.95831
598.0 0.001672 528.50580 625.62982
590.0 0.001695 527.74988 596.39716
585.0 0.001709 526.99567 570.60114
599.0 0.001669 526.24316 553.21765
568.0 0.001761 525.49231 544.19543
545.0 0.001835 524.74316 541.76349
577.0 0.001733 523.99579 545.52277
587.0 0.001704 523.25018 558.05463
606.0 0.001650 522.50653 584.36285
617.0 0.001621 521.76465 628.30981
692.0 0.001445 521.02478 686.42908
731.0 0.001368 520.28674 742.60004
804.0 0.001244 519.55078 770.35437
798.0 0.001253 518.81677 750.90240
694.0 0.001441 518.08484 696.28192
647.0 0.001546 517.35504 634.26544
617.0 0.001621 516.62744 624.21838
586.0 0.001706 515.90186 593.56421
608.0 0.001645 515.17853 577.71582
554.0 0.001805 514.45740 570.79047
565.0 0.001770 513.73859 568.17688
567.0 0.001764 513.02209 567.40118
561.0 0.001783 512.30792 567.43701
527.0 0.001898 511.59613 567.92194
549.0 0.001821 510.88681 568.73053
598.0 0.001672 510.17984 569.81213
540.0 0.001852 509.47543 571.14325
580.0 0.001724 508.77347 572.71283
589.0 0.001698 508.07410 574.51886
560.0 0.001786 507.37738 576.56512
603.0 0.001658 506.68317 578.86072
541.0 0.001848 505.99161 581.41907
538.0 0.001859 505.30286 584.26123
556.0 0.001799 504.61682 587.40247
551.0 0.001815 503.93341 590.87207
588.0 0.001701 503.25281 594.70050
632.0 0.001582 502.57501 598.92358
588.0 0.001701 501.90021 603.58270
626.0 0.001597 501.22824 608.72565
650.0 0.001538 500.55914 614.40814
715.0 0.001399 499.89294 620.69452
681.0 0.001468 499.22983 627.65991
693.0 0.001443 498.56964 635.39191
655.0 0.001527 497.91260 643.99310
634.0 0.001577 497.25848 653.47253
665.0 0.001504 496.60760 664.20142
641.0 0.001560 495.95978 676.23273
666.0 0.001502 495.31506 689.76990
668.0 0.001497 494.67365 705.05774
719.0 0.001391 494.03537 722.39276
716.0 0.001397 493.40039 742.13757
746.0 0.001340 492.76862 764.73779
759.0 0.001318 492.14014 790.74750
752.0 0.001330 491.51501 820.86115
790.0 0.001266 490.89331 855.95825
852.0 0.001174 490.27496 897.16589
933.0 0.001072 489.65997 945.94556
910.0 0.001099 489.04843 1004.21960
1005.0 0.000995 488.44037 1074.31897
1111.0 0.000900 487.83575 1160.20728
1186.0 0.000843 487.23474 1266.47205
1300.0 0.000769 486.63715 1400.06299
1499.0 0.000667 486.04321 1571.86755
1706.0 0.000586 485.45276 1802.51892
2078.0 0.000481 484.86591 2142.24146
2831.0 0.000353 484.28275 2729.84961
4191.0 0.0002386 483.70322 3927.02441
6699.0 0.0001493 483.12735 6517.28711
11229.0 0.0000891 482.55515 11784.73535
19625.0 0.0000510 481.98663 21075.07813
32693.0 0.0000306 481.42194 34582.42969
48915.0 0.0000204 480.86090 49820.65234
61724.0 0.0000162 480.30371 61060.31641
63296.0 0.0000158 479.75027 61901.70703
52625.0 0.0000190 479.20068 51617.56250
36441.0 0.0000274 478.65485 36361.06641
21862.0 0.0000457 478.11285 22361.28516
12563.0 0.0000796 477.57477 12516.41113
7074.0 0.0001414 477.04050 6859.52393
4351.0 0.0002298 476.51025 4069.25342
2848.0 0.000351 475.98376 2790.15552
2233.0 0.000448 475.46124 2171.97803
1733.0 0.000577 474.94272 1819.15454
1510.0 0.000662 474.42807 1581.24438
1305.0 0.000766 473.91748 1404.34485
1179.0 0.000848 473.41077 1267.20728
1071.0 0.000934 472.90805 1158.52417
1013.0 0.000987 472.40939 1070.85413
976.0 0.001025 471.91473 998.71643
899.0 0.001112 471.42413 938.07269
862.0 0.001160 470.93750 886.36945
814.0 0.001229 470.45499 842.15491
765.0 0.001307 469.97647 804.35699
698.0 0.001433 469.50201 771.98468
739.0 0.001353 469.03168 744.10419
735.0 0.001361 468.56534 719.89453
664.0 0.001506 468.10321 698.69189
647.0 0.001546 467.64511 679.98340
678.0 0.001475 467.19104 663.37402
634.0 0.001577 466.74121 648.55176
605.0 0.001653 466.29544 635.26361
595.0 0.001681 465.85382 623.30084
599.0 0.001669 465.41626 612.48932
609.0 0.001642 464.98285 602.68311
572.0 0.001748 464.55362 593.75879
556.0 0.001799 464.12848 585.61121
571.0 0.001751 463.70749 578.15112
588.0 0.001701 463.29065 571.30176
527.0 0.001898 462.87796 564.99695
537.0 0.001862 462.46933 559.17963
515.0 0.001942 462.06485 553.80042
575.0 0.001739 461.66461 548.81635
566.0 0.001767 461.26840 544.18988
553.0 0.001808 460.87634 539.88843
537.0 0.001862 460.48856 535.88361
523.0 0.001912 460.10474 532.15045
513.0 0.001949 459.72510 528.66754
518.0 0.001931 459.34955 525.41632
541.0 0.001848 458.97821 522.38098
534.0 0.001873 458.61093 519.54816
527.0 0.001898 458.24771 516.90717
491.0 0.002037 457.88873 514.45007
501.0 0.001996 457.53378 512.17139
531.0 0.001883 457.18289 510.06879
544.0 0.001838 456.83618 508.14401
550.0 0.001818 456.49347 506.40305
540.0 0.001852 456.15485 504.85843
522.0 0.001916 455.82028 503.53088
519.0 0.001927 455.48981 502.45450
529.0 0.001890 455.16330 461.59747
474.0 0.002110 454.84085 462.62842
508.0 0.001969 454.52258 464.28165
515.0 0.001942 454.20810 467.31912
517.0 0.001934 453.89771 473.73120
542.0 0.001845 453.59134 487.86942
589.0 0.001698 453.28888 516.98376
642.0 0.001558 452.99036 568.93994
695.0 0.001439 452.69580 645.53137
743.0 0.001346 452.40527 733.69330
808.0 0.001238 452.11862 801.39484
811.0 0.001233 451.83585 810.61548
752.0 0.001330 451.55701 754.12579
644.0 0.001553 451.28198 666.18842
584.0 0.001712 451.01077 583.67279
555.0 0.001802 450.74344 524.53766
548.0 0.001825 450.48001 490.15930
501.0 0.001996 450.22028 472.68518
485.0 0.002062 449.96439 464.46890
520.0 0.001923 449.71228 460.37891
524.0 0.001908 449.46390 457.96552
504.0 0.001984 449.21918 456.27625
480.0 0.002083 448.97827 455.09604
454.0 0.002203 448.74097 454.04102
495.0 0.002020 448.50732 453.16278
448.0 0.002232 448.27734 452.41736
474.0 0.002110 448.05106 451.77420
465.0 0.002151 447.82834 451.21140
491.0 0.002037 447.60913 450.71283
470.0 0.002128 447.39355 450.26666
438.0 0.002283 447.18146 449.86377
481.0 0.002079 446.97287 449.49728
504.0 0.001984 446.76773 449.16190
530.0 0.001887 446.56613 448.85349
530.0 0.001887 446.36792 448.56879
565.0 0.001770 446.17313 448.30527
557.0 0.001795 445.98172 448.06107
505.0 0.001980 445.79361 447.83734
503.0 0.001988 445.60889 447.62750
518.0 0.001931 445.42749 447.43338
510.0 0.001961 445.24930 447.25443
484.0 0.002066 445.07434 447.09042
468.0 0.002137 444.90262 446.94122
463.0 0.002160 444.73419 446.80707
445.0 0.002247 444.56882 446.68820
438.0 0.002283 444.40652 446.58527
467.0 0.002141 444.24747 446.49924
479.0 0.002088 444.09140 446.43121
445.0 0.002247 443.93835 446.38272
470.0 0.002128 443.78836 446.35571
428.0 0.002336 443.64133 446.35266
507.0 0.001972 443.49722 446.37646
418.0 0.002392 443.35605 446.43109
466.0 0.002146 443.21783 446.52124
445.0 0.002247 443.08240 446.65295
446.0 0.002242 442.94977 446.83398
426.0 0.002347 442.82001 447.07422
426.0 0.002347 442.69293 447.38641
433.0 0.002309 442.56857 447.78745
466.0 0.002146 442.44696 448.30008
489.0 0.002045 442.32800 448.95468
431.0 0.002320 442.21158 449.79379
435.0 0.002299 442.09784 450.87900
431.0 0.002320 441.98660 452.30936
467.0 0.002141 441.87796 454.28143
457.0 0.002188 441.77170 457.28583
500.0 0.002000 441.66794 462.64594
486.0 0.002058 441.56659 473.36771
502.0 0.001992 441.46759 496.41428
605.0 0.001653 441.37097 541.01074
618.0 0.001618 441.27667 615.16119
731.0 0.001368 441.18460 716.19373
842.0 0.001188 441.09479 821.52960
886.0 0.001129 441.00714 889.06964
927.0 0.001079 440.92172 884.26074
833.0 0.001200 440.83835 823.02478
776.0 0.001289 440.75714 754.55505
737.0 0.001357 440.67798 710.17102
689.0 0.001451 440.60080 688.19690
666.0 0.001502 440.52560 665.22644
622.0 0.001608 440.45236 624.51514
557.0 0.001795 440.38098 573.17993
586.0 0.001706 440.31152 526.06451
500.0 0.002000 440.24384 491.60443
488.0 0.002049 440.17798 470.58344
452.0 0.002212 440.11380 459.37863
469.0 0.002132 440.05142 453.73560
423.0 0.002364 439.99075 450.74567
418.0 0.002392 439.93164 448.97443
421.0 0.002375 439.87411 447.88971
440.0 0.002273 439.81815 447.35278
421.0 0.002375 439.76376 447.31241
448.0 0.002232 439.71078 447.61716
454.0 0.002203 439.65930 447.91623
461.0 0.002169 439.60925 447.72586
433.0 0.002309 439.56049 446.80762
393.0 0.002545 439.51312 445.45541
436.0 0.002294 439.46698 444.11938
428.0 0.002336 439.42215 443.05954
465.0 0.002151 439.37854 442.32559
497.0 0.002012 439.33603 441.84454
380.0 0.002632 439.29471 441.51724
417.0 0.002398 439.25446 441.27118
427.0 0.002342 439.21524 441.06775
428.0 0.002336 439.17709 440.89005
438.0 0.002283 439.13989 440.73062
439.0 0.002278 439.10364 440.58591
417.0 0.002398 439.06824 440.45349
453.0 0.002208 439.03378 440.33173
418.0 0.002392 439.00006 440.21906
441.0 0.002268 438.96716 440.11447
420.0 0.002381 438.93503 440.01697
428.0 0.002336 438.90356 439.92575
448.0 0.002232 438.87283 439.84021
418.0 0.002392 438.84268 439.75958
411.0 0.002433 438.81314 439.68356
469.0 0.002132 438.78412 439.61154
435.0 0.002299 438.75565 439.54318
366.0 0.002732 438.72763 439.47818
424.0 0.002358 438.70004 439.41620
401.0 0.002494 438.67285 439.35696
442.0 0.002262 438.64606 439.30020
446.0 0.002242 438.61960 439.24573
422.0 0.002370 438.59338 439.19327
389.0 0.002571 438.56741 439.14276
393.0 0.002545 438.54169 439.09393
432.0 0.002315 438.51617 439.04666
436.0 0.002294 438.49066 439.00070
450.0 0.002222 438.46539 438.95615
430.0 0.002326 438.44012 438.91266
431.0 0.002320 438.41489 438.57684
434.0 0.002304 438.38965 438.54538
402.0 0.002488 438.36435 438.51422
428.0 0.002336 438.33899 438.48331
452.0 0.002212 438.31354 438.45258
402.0 0.002488 438.28787 438.42197
409.0 0.002445 438.26205 438.26743
403.0 0.002481 438.23599 441.87308
459.0 0.002179 438.20972 451.05930
452.0 0.002212 438.18307 451.49655
424.0 0.002358 438.15619 451.95923
425.0 0.002353 438.12888 452.44897
414.0 0.002415 438.10123 452.96808
431.0 0.002320 438.07309 453.51859
414.0 0.002415 438.04446 454.10309
398.0 0.002513 438.01538 454.72443
443.0 0.002257 437.98581 455.38556
441.0 0.002268 437.95560 456.08978
450.0 0.002222 437.92484 456.84097
458.0 0.002183 437.89337 457.67838
454.0 0.002203 437.86127 458.53754
455.0 0.002198 437.82852 459.45474
405.0 0.002469 437.79498 460.44150
448.0 0.002232 437.76077 461.50150
420.0 0.002381 437.72568 462.64175
449.0 0.002227 437.68979 463.87064
460.0 0.002174 437.65308 465.19739
454.0 0.002203 437.61548 466.63245
482.0 0.002075 437.57693 468.18787
445.0 0.002247 437.53745 469.87714
416.0 0.002404 437.49698 471.71591
481.0 0.002079 437.45551 473.72217
508.0 0.001969 437.41302 475.91656
456.0 0.002193 437.36951 478.32309
473.0 0.002114 437.32480 480.96960
475.0 0.002105 437.27905 483.88873
517.0 0.001934 437.23215 487.11880
497.0 0.002012 437.18408 490.70508
468.0 0.002137 437.13480 494.70135
467.0 0.002141 437.08426 499.17184
483.0 0.002070 437.03253 504.19382
488.0 0.002049 436.97946 509.86087
514.0 0.001946 436.92511 516.28729
523.0 0.001912 436.86938 523.61365
503.0 0.001988 436.81241 532.01422
516.0 0.001938 436.75394 541.70776
515.0 0.001942 436.69409 552.97089
537.0 0.001862 436.63281 566.15802
553.0 0.001808 436.57013 581.72882
566.0 0.001767 436.50589 600.28717
593.0 0.001686 436.44019 622.63977
635.0 0.001575 436.37292 649.88312
663.0 0.001508 436.30414 683.54987
722.0 0.001385 436.23376 725.90454
770.0 0.001299 436.16180 780.74280
878.0 0.001139 436.08826 855.86737
974.0 0.001027 436.01306 970.30835
1259.0 0.000794 435.93619 1171.69580
1758.0 0.000569 435.85767 1567.43579
2588.0 0.000386 435.77744 2358.55640
4063.0 0.0002461 435.69553 3834.78345
6576.0 0.0001521 435.61179 6266.60889
9788.0 0.0001022 435.52637 9657.55078
13481.0 0.0000742 435.43915 13436.35938
16365.0 0.0000611 435.35013 16414.87695
16932.0 0.0000591 435.25934 17306.71289
15135.0 0.0000661 435.16669 15513.76758
11346.0 0.0000881 435.07220 11871.04883
7511.0 0.0001331 434.97586 7986.22168
4655.0 0.0002148 434.87766 4911.98877
2901.0 0.0003447 434.77750 2930.68604
1817.0 0.000550 434.67548 1846.00024
1352.0 0.000740 434.57159 1316.67920
1061.0 0.000943 434.46567 1067.32361
961.0 0.001041 434.35785 940.25787
894.0 0.001119 434.24802 861.83374
800.0 0.001250 434.13626 800.37366
656.0 0.001524 434.02249 745.03455
700.0 0.001429 433.90671 695.87976
676.0 0.001479 433.78894 654.95093
652.0 0.001534 433.66913 622.67126
555.0 0.001802 433.54724 597.86383
538.0 0.001859 433.42334 578.65759
530.0 0.001887 433.29736 563.34497
547.0 0.001828 433.16931 550.73944
548.0 0.001825 433.03915 540.11829
511.0 0.001957 432.90695 531.04382
501.0 0.001996 432.77261 523.22601
494.0 0.002024 432.63617 516.45435
512.0 0.001953 432.49765 510.56656
490.0 0.002041 432.35693 505.43362
519.0 0.001927 432.21411 500.95313
503.0 0.001988 432.06915 497.04276
487.0 0.002053 431.92206 493.63638
486.0 0.002058 431.77280 490.68127
475.0 0.002105 431.62134 488.13608
473.0 0.002114 431.46777 485.96906
486.0 0.002058 431.31204 484.15683
446.0 0.002242 431.15408 482.68433
479.0 0.002088 430.99396 481.54370
461.0 0.002169 430.83160 480.73511
495.0 0.002020 430.66711 480.26697
508.0 0.001969 430.50043 480.15674
437.0 0.002288 430.33157 480.43283
489.0 0.002045 430.16049 481.13684
486.0 0.002058 429.98721 482.32724
468.0 0.002137 429.81174 484.08371
474.0 0.002110 429.63400 486.51346
501.0 0.001996 429.45410 489.76117
519.0 0.001927 429.27206 494.02319
498.0 0.002008 429.08774 499.57211
484.0 0.002066 428.90125 506.80035
516.0 0.001938 428.71252 516.30133
517.0 0.001934 428.52164 529.09070
531.0 0.001883 428.32852 547.34821
591.0 0.001692 428.13321 576.72217
663.0 0.001508 427.93570 632.07617
820.0 0.001220 427.73596 747.61780
1062.0 0.000942 427.53409 985.70355
1525.0 0.000656 427.32996 1426.63440
2276.0 0.000439 427.12369 2115.51807
3296.0 0.0003034 426.91525 2995.56250
4118.0 0.0002428 426.70462 3807.04297
4607.0 0.0002171 426.49182 4173.31787
4045.0 0.0002472 426.27682 3837.76196
3168.0 0.0003157 426.05966 3022.73291
2113.0 0.000473 425.84036 2135.05249
1447.0 0.000691 425.61890 1430.86902
1005.0 0.000995 425.39532 980.10400
800.0 0.001250 425.16956 735.91943
649.0 0.001541 424.94171 617.19983
601.0 0.001664 424.71173 560.08252
519.0 0.001927 424.47958 529.37921
539.0 0.001855 424.24536 509.93109
528.0 0.001894 424.00903 495.95447
514.0 0.001946 423.77063 485.24829
521.0 0.001919 423.53015 476.79077
540.0 0.001852 423.28754 469.98309
550.0 0.001818 423.04297 464.42432
504.0 0.001984 422.79623 459.83026
529.0 0.001890 422.54752 455.99597
490.0 0.002041 422.29675 452.77200
503.0 0.001988 422.04391 450.04767
535.0 0.001869 421.78915 447.73822
493.0 0.002028 421.53232 445.77127
502.0 0.001992 421.27356 444.07794
491.0 0.002037 421.01276 442.59155
514.0 0.001946 420.75006 441.26514
485.0 0.002062 420.48541 440.08902
498.0 0.002008 420.21872 439.07007
480.0 0.002083 419.95023 438.20996
467.0 0.002141 419.67975 437.50204
439.0 0.002278 419.40738 436.93811
479.0 0.002088 419.13318 436.50522
463.0 0.002160 418.85703 436.20026
461.0 0.002169 418.57913 436.02322
470.0 0.002128 418.29932 435.97855
458.0 0.002183 418.01770 436.07486
442.0 0.002262 417.73428 436.32520
438.0 0.002283 417.44904 436.74768
433.0 0.002309 417.16205 437.36661
447.0 0.002237 416.87326 438.21417
482.0 0.002075 416.58276 439.33286
439.0 0.002278 416.29056 440.77896
460.0 0.002174 415.99661 442.62723
458.0 0.002183 415.70099 444.97925
468.0 0.002137 415.40363 447.97592
434.0 0.002304 415.10464 451.82599
474.0 0.002110 414.80399 456.87219
458.0 0.002183 414.50180 463.75061
466.0 0.002146 414.19797 473.73044
463.0 0.002160 413.89249 489.35794
537.0 0.001862 413.58554 515.63947
601.0 0.001664 413.27701 562.31616
668.0 0.001497 412.96689 647.69678
833.0 0.001200 412.65530 801.82373
1023.0 0.000978 412.34225 1061.37988
1442.0 0.000693 412.02765 1448.90735
1912.0 0.000523 411.71167 1935.04028
2403.0 0.000416 411.39420 2396.21265
2617.0 0.000382 411.07541 2618.08423
2394.0 0.000418 410.75516 2451.68970
1837.0 0.000544 410.43353 1991.53625
1313.0 0.000762 410.11057 1469.43213
989.0 0.001011 409.78632 1043.33887
736.0 0.001359 409.46066 763.17163
599.0 0.001669 409.13379 607.45245
519.0 0.001927 408.80566 530.16406
497.0 0.002012 408.47626 492.63602
471.0 0.002123 408.14566 472.57114
451.0 0.002217 407.81381 459.94415
406.0 0.002463 407.48080 450.88284
418.0 0.002392 407.14667 443.90652
410.0 0.002439 406.81134 438.34531
468.0 0.002137 406.47495 433.81622
437.0 0.002288 406.13739 430.06650
439.0 0.002278 405.79883 426.91376
395.0 0.002532 405.45929 424.22885
398.0 0.002513 405.11865 421.91470
375.0 0.002667 404.77704 419.89902
423.0 0.002364 404.43439 418.12744
388.0 0.002577 404.09079 416.56165
409.0 0.002445 403.74631 415.18042
401.0 0.002494 403.40091 413.98413
390.0 0.002564 403.05460 412.99707
391.0 0.002558 402.70746 412.26224
387.0 0.002584 402.35947 411.75998
402.0 0.002488 402.01068 411.41544
390.0 0.002564 401.66104 411.02194
357.0 0.002801 401.31067 410.31082
413.0 0.002421 400.95953 409.19769
396.0 0.002525 400.60773 407.88950
379.0 0.002639 400.25513 406.62976
424.0 0.002358 399.90201 405.54333
403.0 0.002481 399.54813 404.64499
423.0 0.002364 399.19360 403.89087
401.0 0.002494 398.83856 403.22699
415.0 0.002410 398.48291 402.61469
399.0 0.002506 398.12665 402.03323
412.0 0.002427 397.76990 401.47324
420.0 0.002381 397.41260 400.93011
394.0 0.002538 397.05487 400.40143
382.0 0.002618 396.69675 399.88547
369.0 0.002710 396.33807 399.38065
404.0 0.002475 395.97903 398.88599
394.0 0.002538 395.61957 398.40039
377.0 0.002653 395.25980 397.92316
396.0 0.002525 394.89963 397.45343
370.0 0.002703 394.53922 396.99072
369.0 0.002710 394.17847 396.53442
353.0 0.002833 393.81744 396.08398
336.0 0.002976 393.45624 395.82886
393.0 0.002545 393.09473 395.40399
370.0 0.002703 392.73303 395.24612
391.0 0.002558 392.37122 394.83777
391.0 0.002558 392.00922 394.36624
419.0 0.002387 391.64709 393.97061
376.0 0.002660 391.28482 391.98993
358.0 0.002793 390.92261 391.65933
405.0 0.002469 390.56027 391.33148
385.0 0.002597 390.19785 391.00681
378.0 0.002646 389.83545 390.68607
389.0 0.002571 389.47308 390.37036
368.0 0.002717 389.11075 390.06177
388.0 0.002577 388.74844 389.76514
406.0 0.002463 388.38623 389.49222
409.0 0.002445 388.02420 389.26617
372.0 0.002688 387.66223 389.12241
414.0 0.002415 387.30048 389.09537
372.0 0.002688 386.93884 389.18759
390.0 0.002564 386.57739 389.33191
388.0 0.002577 386.21622 389.37384
391.0 0.002558 385.85519 389.13968
352.0 0.002841 385.49451 388.62796
376.0 0.002660 385.13409 388.03354
396.0 0.002525 384.77408 387.57224
365.0 0.002740 384.41434 387.43616
381.0 0.002625 384.05490 387.84277
360.0 0.002778 383.69586 389.04175
410.0 0.002439 383.33719 391.18546
388.0 0.002577 382.97900 394.06805
410.0 0.002439 382.62122 396.86844
390.0 0.002564 382.26389 398.18536
402.0 0.002488 381.90710 397.02133
370.0 0.002703 381.55075 394.03381
376.0 0.002660 381.19498 390.78329
407.0 0.002457 380.83975 388.05795
360.0 0.002778 380.48502 386.26688
352.0 0.002841 380.13092 385.28421
380.0 0.002632 379.77740 384.83670
375.0 0.002667 379.42453 384.69775
383.0 0.002611 379.07227 384.74323
400.0 0.002500 378.72076 384.92871
329.0 0.003040 378.36993 385.25269
358.0 0.002793 378.01971 385.73627
402.0 0.002488 377.67029 386.41644
368.0 0.002717 377.32156 387.34769
396.0 0.002525 376.97363 388.61078
387.0 0.002584 376.62646 390.33591
399.0 0.002506 376.28009 392.77466
446.0 0.002242 375.93463 396.51340
390.0 0.002564 375.58994 403.01642
441.0 0.002268 375.24603 415.67734
456.0 0.002193 374.90308 441.14804
463.0 0.002160 374.56097 489.78247
579.0 0.001727 374.21979 572.62842
735.0 0.001361 373.87952 690.92322
820.0 0.001220 373.54019 829.79065
951.0 0.001052 373.20187 948.40680
1033.0 0.000968 372.86447 997.12775
944.0 0.001059 372.52811 949.82208
782.0 0.001279 372.19269 827.34991
672.0 0.001488 371.85837 684.82721
548.0 0.001825 371.52502 565.14124
466.0 0.002146 371.19275 483.50583
478.0 0.002092 370.86154 436.04404
411.0 0.002433 370.53140 411.40524
394.0 0.002538 370.20242 399.08752
405.0 0.002469 369.87454 392.49908
363.0 0.002755 369.54779 388.42975
378.0 0.002646 369.22211 385.55878
383.0 0.002611 368.89761 383.37161
375.0 0.002667 368.57434 381.64478
381.0 0.002625 368.25220 380.25839
384.0 0.002604 367.93130 379.13693
401.0 0.002494 367.61166 378.22943
375.0 0.002667 367.29318 377.50262
376.0 0.002660 366.97592 376.93054
374.0 0.002674 366.65991 376.50037
353.0 0.002833 366.34518 376.20999
330.0 0.003030 366.03174 376.06152
368.0 0.002717 365.71954 376.06918
405.0 0.002469 365.40869 376.26663
393.0 0.002545 365.09918 376.73538
389.0 0.002571 364.79092 377.69101
348.0 0.002874 364.48404 379.68277
358.0 0.002793 364.17844 383.92953
382.0 0.002618 363.87424 392.45358
415.0 0.002410 363.57135 407.72238
461.0 0.002169 363.26987 430.90820
449.0 0.002227 362.96973 459.47202
488.0 0.002049 362.67105 485.09290
505.0 0.001980 362.37378 495.11789
477.0 0.002096 362.07788 483.12894
475.0 0.002105 361.78339 457.50003
461.0 0.002169 361.49036 430.84738
430.0 0.002326 361.19870 410.57794
410.0 0.002439 360.90851 398.55103
379.0 0.002639 360.61975 393.31589
420.0 0.002381 360.33249 392.54303
429.0 0.002331 360.04672 394.51556
437.0 0.002288 359.76236 398.50070
465.0 0.002151 359.47949 404.66379
472.0 0.002119 359.19809 414.28522
502.0 0.001992 358.91821 430.94214
522.0 0.001916 358.63980 463.16388
571.0 0.001751 358.36295 528.02118
741.0 0.001350 358.08755 652.21576
960.0 0.001042 357.81369 863.95367
1250.0 0.000800 357.54135 1171.06909
1696.0 0.000590 357.27051 1530.81873
2065.0 0.000484 357.00122 1832.64856
2184.0 0.000458 356.73343 1932.02527
1887.0 0.000530 356.46716 1762.48352
1482.0 0.000675 356.20248 1420.70862
1140.0 0.000877 355.93930 1061.21045
868.0 0.001152 355.67773 777.87378
644.0 0.001553 355.41769 594.87903
461.0 0.002169 355.15918 493.28897
465.0 0.002151 354.90219 442.11539
441.0 0.002268 354.64679 416.52750
438.0 0.002283 354.39291 402.37967
378.0 0.002646 354.14059 393.26657
408.0 0.002451 353.88989 386.65726
390.0 0.002564 353.64072 381.55042
357.0 0.002801 353.39313 377.48148
385.0 0.002597 353.14709 374.18781
340.0 0.002941 352.90262 371.50937
381.0 0.002625 352.65970 369.35391
394.0 0.002538 352.41837 367.66910
371.0 0.002695 352.17856 366.40149
384.0 0.002604 351.94031 365.45187
385.0 0.002597 351.70367 364.62305
385.0 0.002597 351.46860 363.67593
344.0 0.002907 351.23508 362.51306
358.0 0.002793 351.00308 361.31705
374.0 0.002674 350.77267 360.38681
335.0 0.002985 350.54379 360.05157
336.0 0.002976 350.31647 360.71295
340.0 0.002941 350.09073 362.79752
401.0 0.002494 349.86649 366.48889
362.0 0.002762 349.64383 371.28561
373.0 0.002681 349.42273 375.61456
382.0 0.002618 349.20316 377.04422
375.0 0.002667 348.98514 374.24924
373.0 0.002681 348.76862 368.74799
347.0 0.002882 348.55362 362.95584
346.0 0.002890 348.34012 358.31372
370.0 0.002703 348.12820 355.19537
365.0 0.002740 347.91779 353.22662
352.0 0.002841 347.70889 352.13232
353.0 0.002833 347.50150 351.43848
341.0 0.002933 347.29556 350.93417
336.0 0.002976 347.09116 350.52673
352.0 0.002841 346.88821 350.18320
375.0 0.002667 346.68680 349.89972
359.0 0.002786 346.48688 349.69778
361.0 0.002770 346.28836 349.64618
329.0 0.003040 346.09137 349.90216
368.0 0.002717 345.89578 350.74057
338.0 0.002959 345.70172 352.49533
344.0 0.002907 345.50903 355.34268
351.0 0.002849 345.31778 358.96753
375.0 0.002667 345.12802 362.27628
351.0 0.002849 344.93961 363.52307
367.0 0.002725 344.75266 361.69174
379.0 0.002639 344.56711 357.82532
396.0 0.002525 344.38297 353.66342
355.0 0.002817 344.20020 350.05521
367.0 0.002725 344.01880 346.78860
360.0 0.002778 343.83884 345.48126
349.0 0.002865 343.66016 344.73651
358.0 0.002793 343.48288 344.27927
347.0 0.002882 343.30695 343.95212
375.0 0.002667 343.13229 343.68378
347.0 0.002882 342.95908 343.44669
330.0 0.003030 342.78711 343.23007
325.0 0.003077 342.61646 343.02966
338.0 0.002959 342.44708 342.84402
353.0 0.002833 342.27902 342.67450
356.0 0.002809 342.11221 342.52853
351.0 0.002849 341.94669 342.42691
321.0 0.003115 341.78244 342.41623
328.0 0.003049 341.61942 342.57639
349.0 0.002865 341.45761 343.00089
315.0 0.003175 341.29703 343.73483
337.0 0.002967 341.13770 344.67929
331.0 0.003021 340.97949 345.51196
344.0 0.002907 340.82257 345.73483
348.0 0.002874 340.66675 345.08411
298.0 0.003356 340.51212 343.87845
337.0 0.002967 340.35861 342.61630
355.0 0.002817 340.20633 341.58838
331.0 0.003021 340.05511 340.86972
318.0 0.003145 339.90503 340.40359
322.0 0.003106 339.75604 340.09406
286.0 0.003497 339.60812 339.86447
283.0 0.00353 339.46130 339.67133
342.0 0.002924 339.31555 339.49496
332.0 0.003012 339.17087 339.32761
324.0 0.003086 339.02722 339.14728
301.0 0.003322 338.88458 338.99084
301.0 0.003322 338.74298 338.83795
360.0 0.002778 338.60233 338.68790
344.0 0.002907 338.46274 338.54041
342.0 0.002924 338.32404 338.39496
325.0 0.003077 338.18634 338.25143
315.0 0.003175 338.04959 338.12393
330.0 0.003030 337.91382 338.24313
353.0 0.002833 337.77890 338.11420
310.0 0.003226 337.64490 337.98721
330.0 0.003030 337.51175 337.86206
315.0 0.003175 337.37955 337.73874
328.0 0.003049 337.24817 337.61728
349.0 0.002865 337.11765 337.49765
351.0 0.002849 336.98792 337.37976
328.0 0.003049 336.85907 337.26385
342.0 0.002924 336.73102 337.14984
348.0 0.002874 336.60373 337.03772
312.0 0.003205 336.47726 336.97266
334.0 0.002994 336.35153 336.86633
330.0 0.003030 336.22650 336.74832
330.0 0.003030 336.10223 336.64706
321.0 0.003115 335.97867 336.54831
360.0 0.002778 335.85583 336.45215
331.0 0.003021 335.73370 336.35889
335.0 0.002985 335.61221 336.26862
312.0 0.003205 335.49136 336.18152
309.0 0.003236 335.37119 336.09805
315.0 0.003175 335.25162 336.01852
331.0 0.003021 335.13263 335.94321
337.0 0.002967 335.01428 335.87289
292.0 0.003425 334.89651 335.80884
313.0 0.003195 334.77933 335.75308
331.0 0.003021 334.66266 335.70969
319.0 0.003135 334.54651 335.68433
339.0 0.002950 334.43094 335.68280
329.0 0.003040 334.31583 335.70609
307.0 0.003257 334.20123 335.74542
344.0 0.002907 334.08710 335.77933
323.0 0.003096 333.97342 335.78229
319.0 0.003135 333.86017 335.75339
305.0 0.003279 333.74741 335.72086
352.0 0.002841 333.63501 335.71231
327.0 0.003058 333.52301 335.74310
311.0 0.003215 333.41141 335.81488
344.0 0.002907 333.30014 335.93701
309.0 0.003236 333.18927 336.10751
340.0 0.002941 333.07870 336.33228
315.0 0.003175 332.96851 336.62177
332.0 0.003012 332.85858 336.99164
349.0 0.002865 332.74896 337.46381
324.0 0.003086 332.63962 338.07059
322.0 0.003106 332.53052 338.85202
320.0 0.003125 332.42169 339.87805
309.0 0.003236 332.31305 341.27408
361.0 0.002770 332.20468 343.32397
353.0 0.002833 332.09647 346.73874
336.0 0.002976 331.98849 353.21353
353.0 0.002833 331.88071 366.18118
386.0 0.002591 331.77298 391.04831
449.0 0.002227 331.66547 433.52765
470.0 0.002128 331.55804 495.19202
548.0 0.001825 331.45081 567.51581
651.0 0.001536 331.34363 627.70374
689.0 0.001451 331.23648 644.54462
619.0 0.001616 331.12943 606.37140
581.0 0.001721 331.02249 537.13916
499.0 0.002004 330.91553 467.52100
358.0 0.002793 330.80862 414.49335
391.0 0.002558 330.70172 382.10309
376.0 0.002660 330.59485 367.13916
375.0 0.002667 330.48792 364.49966
390.0 0.002564 330.38095 369.76721
370.0 0.002703 330.27396 378.89847
437.0 0.002288 330.16693 386.86798
361.0 0.002770 330.05984 387.93109
368.0 0.002717 329.95261 380.18109
377.0 0.002653 329.84531 367.74033
364.0 0.002747 329.73788 355.54382
318.0 0.003145 329.63034 346.18661
353.0 0.002833 329.52267 340.13132
355.0 0.002817 329.41486 336.64310
335.0 0.002985 329.30685 334.71109
341.0 0.002933 329.19870 333.57230
354.0 0.002825 329.09033 332.80460
360.0 0.002778 328.98175 332.21756
332.0 0.003012 328.87296 331.73340
320.0 0.003125 328.76395 331.31854
325.0 0.003077 328.65466 330.95532
339.0 0.002950 328.54517 330.63245
348.0 0.002874 328.43536 330.34119
355.0 0.002817 328.32535 330.07471
351.0 0.002849 328.21503 329.82703
354.0 0.002825 328.10434 329.59433
356.0 0.002809 327.99338 329.37540
331.0 0.003021 327.88211 329.16904
335.0 0.002985 327.77048 328.97464
365.0 0.002740 327.65851 328.79099
356.0 0.002809 327.54614 328.61737
351.0 0.002849 327.43344 328.45380
336.0 0.002976 327.32037 328.30255
351.0 0.002849 327.20691 328.17093
353.0 0.002833 327.09302 328.07639
355.0 0.002817 326.97867 331.54382
365.0 0.002740 326.86395 331.75116
329.0 0.003040 326.74875 332.24277
357.0 0.002801 326.63318 332.71155
317.0 0.003155 326.51709 333.18073
351.0 0.002849 326.40054 333.44412
357.0 0.002801 326.28354 333.34225
368.0 0.002717 326.16602 332.96265
349.0 0.002865 326.04803 332.52426
358.0 0.002793 325.92950 332.17795
353.0 0.002833 325.81049 331.97662
332.0 0.003012 325.69095 331.90756
332.0 0.003012 325.57083 331.93271
330.0 0.003030 325.45026 332.01721
344.0 0.002907 325.32907 332.13998
344.0 0.002907 325.20734 332.29205
336.0 0.002976 325.08505 332.47064
330.0 0.003030 324.96216 332.74561
352.0 0.002841 324.83868 332.72733
332.0 0.003012 324.71463 333.00488
338.0 0.002959 324.59000 333.31601
339.0 0.002950 324.46475 333.66409
327.0 0.003058 324.33887 334.05313
346.0 0.002890 324.21237 334.48785
315.0 0.003175 324.08524 334.97360
333.0 0.003003 323.95749 335.51672
332.0 0.003012 323.82910 336.12460
329.0 0.003040 323.70001 336.80554
329.0 0.003040 323.57031 337.56989
348.0 0.002874 323.43997 338.38507
362.0 0.002762 323.30890 339.35507
344.0 0.002907 323.17719 340.45074
381.0 0.002625 323.04477 341.69205
338.0 0.002959 322.91168 343.11224
355.0 0.002817 322.77792 344.72256
368.0 0.002717 322.64343 346.56766
324.0 0.003086 322.50827 348.69144
327.0 0.003058 322.37234 351.14883
382.0 0.002618 322.23578 354.00876
358.0 0.002793 322.09845 357.35855
365.0 0.002740 321.96042 361.31052
387.0 0.002584 321.82169 366.01071
397.0 0.002519 321.68216 371.65128
394.0 0.002538 321.54193 378.48990
362.0 0.002762 321.40097 386.87872
416.0 0.002404 321.25925 397.30814
436.0 0.002294 321.11682 410.51169
457.0 0.002188 320.97360 427.72986
452.0 0.002212 320.82965 451.54068
537.0 0.001862 320.68494 488.23346
600.0 0.001667 320.53949 553.30035
732.0 0.001366 320.39325 680.49280
1031.0 0.000970 320.24628 929.05200
1458.0 0.000686 320.09854 1374.36511
2202.0 0.000454 319.95001 2066.30347
3199.0 0.0003126 319.80075 2959.62695
4041.0 0.0002475 319.65067 3844.41284
4509.0 0.0002218 319.49988 4337.57373
4123.0 0.0002425 319.34827 4132.26660
3424.0 0.0002921 319.19586 3370.44482
2371.0 0.000422 319.04272 2448.65430
1636.0 0.000611 318.88876 1656.09937
1123.0 0.000890 318.73407 1103.90588
791.0 0.001264 318.57861 776.04883
655.0 0.001527 318.42233 602.35620
549.0 0.001821 318.26535 514.48718
466.0 0.002146 318.10748 468.22482
475.0 0.002105 317.94888 441.73209
401.0 0.002494 317.78952 426.57834
406.0 0.002463 317.62933 420.52060
388.0 0.002577 317.46844 423.14371
441.0 0.002268 317.30676 432.99451
444.0 0.002252 317.14426 445.51227
457.0 0.002188 316.98105 452.20441
411.0 0.002433 316.81702 444.77640
434.0 0.002304 316.65222 424.39127
396.0 0.002525 316.48666 399.81476
366.0 0.002732 316.32031 378.10281
364.0 0.002747 316.15320 362.13440
335.0 0.002985 315.98535 351.73865
342.0 0.002924 315.81674 345.33511
325.0 0.003077 315.64737 341.28375
363.0 0.002755 315.47723 338.49377
346.0 0.002890 315.30634 336.43982
335.0 0.002985 315.13470 334.97382
331.0 0.003021 314.96234 334.15302
321.0 0.003115 314.78918 334.08804
347.0 0.002882 314.61533 334.76453
334.0 0.002994 314.44073 335.85123
350.0 0.002857 314.26538 336.56766
321.0 0.003115 314.08932 336.12454
330.0 0.003030 313.91251 333.85956
306.0 0.003268 313.73505 330.81607
294.0 0.003401 313.55676 327.90027
318.0 0.003145 313.37784 325.57059
306.0 0.003268 313.19818 323.90469
330.0 0.003030 313.01788 322.77631
371.0 0.002695 312.83682 322.01736
332.0 0.003012 312.65509 321.50195
387.0 0.002584 312.47269 321.14633
350.0 0.002857 312.28952 320.87534
337.0 0.002967 312.10577 320.59918
317.0 0.003155 311.92133 320.25620
317.0 0.003155 311.73621 319.88519
274.0 0.00365 311.55048 319.54541
303.0 0.003300 311.36404 319.20050
298.0 0.003356 311.17697 318.73575
335.0 0.002985 310.98926 318.11212
298.0 0.003356 310.80090 317.43521
301.0 0.003322 310.61194 316.82990
299.0 0.003344 310.42233 316.38370
304.0 0.003289 310.23215 316.17529
301.0 0.003322 310.04135 316.31552
299.0 0.003344 309.84998 316.95459
289.0 0.003460 309.65796 314.67078
284.0 0.00352 309.46539 316.43265
333.0 0.003003 309.27222 318.42926
307.0 0.003257 309.07852 319.63483
288.0 0.003472 308.88425 319.20892
305.0 0.003279 308.68942 317.33429
330.0 0.003030 308.49402 314.97220
299.0 0.003344 308.29816 312.87833
324.0 0.003086 308.10168 311.36115
299.0 0.003344 307.90475 310.40793
318.0 0.003145 307.70728 309.85773
307.0 0.003257 307.50931 309.54272
301.0 0.003322 307.31085 309.35165
316.0 0.003165 307.11191 309.22885
318.0 0.003145 306.91248 309.15326
318.0 0.003145 306.71262 309.12009
307.0 0.003257 306.51227 309.04904
299.0 0.003344 306.31152 309.11481
274.0 0.00365 306.11026 309.24222
308.0 0.003247 305.90860 309.44620
298.0 0.003356 305.70648 309.74777
277.0 0.00361 305.50400 310.17746
330.0 0.003030 305.30112 310.78174
329.0 0.003040 305.09787 311.64368
312.0 0.003205 304.89426 312.94308
330.0 0.003030 304.69022 315.12201
367.0 0.002725 304.48584 319.23834
332.0 0.003012 304.28113 327.60214
368.0 0.002717 304.07602 343.70502
392.0 0.002551 303.87064 371.47195
398.0 0.002513 303.66489 412.97665
414.0 0.002415 303.45889 464.02618
490.0 0.002041 303.25262 510.72504
551.0 0.001815 303.04599 530.62646
484.0 0.002066 302.83914 510.33783
451.0 0.002217 302.63196 463.14557
415.0 0.002410 302.42459 411.65634
382.0 0.002618 302.21692 369.76263
337.0 0.002967 302.00906 341.63196
346.0 0.002890 301.80096 325.31931
293.0 0.003413 301.59268 316.70746
305.0 0.003279 301.38419 312.21036
307.0 0.003257 301.17551 309.64255
303.0 0.003300 300.96664 307.95013
299.0 0.003344 300.75763 306.69278
300.0 0.003333 300.54846 305.69394
271.0 0.00369 300.33914 304.87012
295.0 0.003390 300.12970 304.17468
274.0 0.00365 299.92010 303.57703
314.0 0.003185 299.71051 303.05457
274.0 0.00365 299.50073 302.59402
271.0 0.00369 299.29086 302.18756
284.0 0.00352 299.08096 301.81726
286.0 0.003497 298.87097 301.48138
323.0 0.003096 298.66095 301.17523
286.0 0.003497 298.45093 300.89545
296.0 0.003378 298.24081 300.63937
283.0 0.00353 298.03076 300.40549
286.0 0.003497 297.82068 300.19272
269.0 0.00372 297.61063 300.00085
296.0 0.003378 297.40054 299.82098
314.0 0.003185 297.19052 302.30545
321.0 0.003115 296.98056 302.25797
284.0 0.00352 296.77066 302.23984
296.0 0.003378 296.56085 302.25458
287.0 0.003484 296.35114 302.30667
288.0 0.003472 296.14154 302.40216
271.0 0.00369 295.93198 302.54877
275.0 0.00364 295.72256 302.75684
316.0 0.003165 295.51328 303.04004
273.0 0.00366 295.30414 303.41656
292.0 0.003425 295.09515 303.91135
293.0 0.003413 294.88635 304.55939
314.0 0.003185 294.67776 305.41275
302.0 0.003311 294.46936 306.56006
306.0 0.003268 294.26117 308.18344
271.0 0.00369 294.05316 310.71368
313.0 0.003195 293.84540 315.17120
325.0 0.003077 293.63788 323.70599
338.0 0.002959 293.43060 340.01981
386.0 0.002591 293.22360 368.84958
441.0 0.002268 293.01688 413.60672
522.0 0.001916 292.81052 472.22574
549.0 0.001821 292.60440 532.62860
607.0 0.001647 292.39859 571.89825
594.0 0.001684 292.19312 568.96527
541.0 0.001848 291.98798 525.38245
492.0 0.002033 291.78323 463.95578
420.0 0.002381 291.57880 406.75476
340.0 0.002941 291.37476 364.29257
329.0 0.003040 291.17114 337.37216
314.0 0.003185 290.96790 322.58954
308.0 0.003247 290.76508 315.00919
309.0 0.003236 290.56265 311.13345
321.0 0.003115 290.36066 309.00671
285.0 0.00351 290.15912 307.72861
325.0 0.003077 289.95807 306.92743
309.0 0.003236 289.75748 306.44812
313.0 0.003195 289.55734 306.21680
303.0 0.003300 289.35779 306.19269
279.0 0.00358 289.15869 306.35153
323.0 0.003096 288.96008 306.68011
321.0 0.003115 288.76202 307.17328
286.0 0.003497 288.56448 307.83234
292.0 0.003425 288.36749 308.66449
303.0 0.003300 288.17105 309.68277
336.0 0.002976 287.97522 310.90585
315.0 0.003175 287.78000 312.35913
309.0 0.003236 287.58536 314.07574
293.0 0.003413 287.39127 316.09811
319.0 0.003135 287.19785 318.48950
307.0 0.003257 287.00504 321.30402
333.0 0.003003 286.81287 324.64554
336.0 0.002976 286.62134 328.64868
362.0 0.002762 286.43048 333.51004
322.0 0.003106 286.24033 339.52457
299.0 0.003344 286.05084 347.04837
355.0 0.002817 285.86203 356.52948
374.0 0.002674 285.67389 368.39841
397.0 0.002519 285.48648 383.04532
386.0 0.002591 285.29980 400.98318
439.0 0.002278 285.11389 423.82071
463.0 0.002160 284.92865 456.88071
506.0 0.001976 284.74423 513.55908
645.0 0.001550 284.56055 622.39978
852.0 0.001174 284.37762 834.50073
1266.0 0.000790 284.19550 1219.41309
1879.0 0.000532 284.01416 1834.28613
2819.0 0.000355 283.83365 2664.99561
3657.0 0.0002734 283.65390 3559.26685
4177.0 0.0002394 283.47501 4187.02734
4199.0 0.0002382 283.29694 4181.83643
3481.0 0.0002873 283.11972 3545.86938
2648.0 0.000378 282.94333 2648.96484
1819.0 0.000550 282.76776 1819.86365
1182.0 0.000846 282.59311 1207.97876
846.0 0.001182 282.41931 825.48755
603.0 0.001658 282.24640 614.36200
490.0 0.002041 282.07437 505.05603
445.0 0.002247 281.90326 447.04684
430.0 0.002326 281.73303 412.68533
380.0 0.002632 281.56372 389.34866
405.0 0.002469 281.39536 371.99533
374.0 0.002674 281.22791 358.60437
352.0 0.002841 281.06140 347.89899
349.0 0.002865 280.89584 339.19131
339.0 0.002950 280.73126 332.01001
362.0 0.002762 280.56760 326.01575
339.0 0.002950 280.40494 320.95807
354.0 0.002825 280.24326 316.64893
311.0 0.003215 280.08255 324.49509
330.0 0.003030 279.92282 326.84637
328.0 0.003049 279.76410 324.55536
316.0 0.003165 279.60641 322.62698
303.0 0.003300 279.44968 321.00793
328.0 0.003049 279.29401 319.65570
360.0 0.002778 279.13937 318.53638
320.0 0.003125 278.98575 317.62250
303.0 0.003300 278.83316 316.89188
341.0 0.002933 278.68161 316.32678
326.0 0.003067 278.53113 315.91293
352.0 0.002841 278.38168 315.63892
328.0 0.003049 278.23331 315.49600
305.0 0.003279 278.08597 315.47757
329.0 0.003040 277.93973 315.57886
332.0 0.003012 277.79462 315.79700
334.0 0.002994 277.65054 316.13080
316.0 0.003165 277.50754 316.58087
342.0 0.002924 277.36563 317.14984
353.0 0.002833 277.22482 317.84293
348.0 0.002874 277.08514 318.67007
314.0 0.003185 276.94653 319.65179
306.0 0.003268 276.80905 320.83273
330.0 0.003030 276.67267 322.30649
304.0 0.003289 276.53748 324.24194
330.0 0.003030 276.40335 326.87943
339.0 0.002950 276.27036 330.45520
332.0 0.003012 276.13849 335.04810
318.0 0.003145 276.00775 340.40356
339.0 0.002950 275.87817 345.78958
340.0 0.002941 275.74973 350.27570
356.0 0.002809 275.62244 353.80463
345.0 0.002899 275.49634 357.13641
371.0 0.002695 275.37131 360.33197
341.0 0.002933 275.24747 362.40277
346.0 0.002890 275.12479 362.80145
385.0 0.002597 275.00323 362.51828
324.0 0.003086 274.88287 362.85614
357.0 0.002801 274.76367 364.52692
373.0 0.002681 274.64563 367.70517
388.0 0.002577 274.52881 372.25726
401.0 0.002494 274.41309 377.96695
398.0 0.002513 274.29855 384.76315
390.0 0.002564 274.18521 392.46082
431.0 0.002320 274.07303 401.20822
392.0 0.002551 273.96204 411.11746
421.0 0.002375 273.85223 422.35992
468.0 0.002137 273.74359 435.17389
434.0 0.002304 273.63611 449.84464
447.0 0.002237 273.52982 466.72934
488.0 0.002049 273.42474 483.64755
516.0 0.001938 273.32080 506.50519
530.0 0.001887 273.21808 533.32867
546.0 0.001832 273.11649 565.07153
628.0 0.001592 273.01611 602.99042
638.0 0.001567 272.91690 648.76514
694.0 0.001441 272.81891 704.68896
751.0 0.001332 272.72208 774.10266
816.0 0.001225 272.62643 861.72711
982.0 0.001018 272.53195 976.31494
1136.0 0.000880 272.43866 1136.16626
1389.0 0.000720 272.34656 1384.43530
1779.0 0.000562 272.25558 1820.15222
2679.0 0.000373 272.16583 2641.84399
4124.0 0.0002425 272.07724 4170.59619
6661.0 0.0001501 271.98984 6783.67773
10846.0 0.0000922 271.90359 10701.10742
15538.0 0.0000644 271.81851 15651.07520
20587.0 0.0000486 271.73462 20518.58789
23139.0 0.0000432 271.65189 23354.48047
22625.0 0.0000442 271.57031 22678.63086
18950.0 0.0000528 271.48987 18954.04297
13872.0 0.0000721 271.41061 13948.94629
9230.0 0.0001083 271.33255 9309.24219
5929.0 0.0001687 271.25562 5839.25635
3656.0 0.0002735 271.17981 3615.74854
2391.0 0.000418 271.10519 2345.73999
1703.0 0.000587 271.03168 1665.45581
1275.0 0.000784 270.95935 1297.58350
1130.0 0.000885 270.88812 1080.62085
937.0 0.001067 270.81805 936.40833
817.0 0.001224 270.74911 830.96515
758.0 0.001319 270.68130 749.47839
698.0 0.001433 270.61462 684.61316
653.0 0.001531 270.54907 632.03314
626.0 0.001597 270.48459 588.82880
565.0 0.001770 270.42126 552.92200
522.0 0.001916 270.35904 524.37915
540.0 0.001852 270.29791 499.10898
476.0 0.002101 270.23788 477.44736
438.0 0.002283 270.17899 458.97238
478.0 0.002092 270.12115 443.28104
464.0 0.002155 270.06439 430.11887
448.0 0.002232 270.00873 419.27225
464.0 0.002155 269.95410 410.41104
409.0 0.002445 269.90060 402.94711
412.0 0.002427 269.84814 395.84467
389.0 0.002571 269.79672 388.16309
389.0 0.002571 269.74640 379.90359
374.0 0.002674 269.69711 371.87003
336.0 0.002976 269.64883 364.75595
362.0 0.002762 269.60165 358.84000
368.0 0.002717 269.55548 354.15286
375.0 0.002667 269.51031 350.67154
386.0 0.002591 269.46616 348.63055
382.0 0.002618 269.42303 348.75192
331.0 0.003021 269.38092 352.50632
334.0 0.002994 269.33978 361.94931
397.0 0.002519 269.29962 378.83234
410.0 0.002439 269.26050 402.94208
449.0 0.002227 269.22235 430.09393
449.0 0.002227 269.18515 450.76428
456.0 0.002193 269.14893 454.07004
441.0 0.002268 269.11365 438.50592
410.0 0.002439 269.07932 412.07431
411.0 0.002433 269.04593 383.85968
366.0 0.002732 269.01352 360.27713
316.0 0.003165 268.98199 343.92255
314.0 0.003185 268.95139 334.48636
367.0 0.002725 268.92172 330.70450
304.0 0.003289 268.89294 331.93362
319.0 0.003135 268.86508 338.96005
367.0 0.002725 268.83807 353.62112
358.0 0.002793 268.81198 377.02716
417.0 0.002398 268.78677 407.13852
411.0 0.002433 268.76239 436.50110
432.0 0.002315 268.73889 451.93802
445.0 0.002247 268.71622 443.38800
412.0 0.002427 268.69443 416.60406
384.0 0.002604 268.67343 385.61563
334.0 0.002994 268.65326 360.42963
343.0 0.002915 268.63391 345.58939
340.0 0.002941 268.61539 342.18439
354.0 0.002825 268.59763 349.60538
402.0 0.002488 268.58066 366.09225
406.0 0.002463 268.56448 387.90222
457.0 0.002188 268.54907 407.85962
441.0 0.002268 268.53442 415.87534
416.0 0.002404 268.52054 395.48254
410.0 0.002439 268.50739 376.53613
362.0 0.002762 268.49493 351.67722
322.0 0.003106 268.48325 337.07288
343.0 0.002915 268.47229 329.21713
360.0 0.002778 268.46198 327.52942
334.0 0.002994 268.45239 330.63336
332.0 0.003012 268.44348 337.50058
316.0 0.003165 268.43530 348.00729
367.0 0.002725 268.42773 363.38040
408.0 0.002451 268.42084 387.39407
409.0 0.002445 268.41458 429.21021
528.0 0.001894 268.40897 507.84888
745.0 0.001342 268.40396 655.36444
990.0 0.001010 268.39960 911.75568
1352.0 0.000740 268.39584 1304.69641
1945.0 0.000514 268.39267 1815.77832
2327.0 0.000430 268.39008 2343.37842
2749.0 0.000364 268.38809 2685.86523
2589.0 0.000386 268.38666 2649.42944
2213.0 0.000452 268.38577 2264.43286
1757.0 0.000569 268.38544 1736.95630
1131.0 0.000884 268.38565 1247.45190
890.0 0.001124 268.38638 882.69415
647.0 0.001546 268.38760 652.06927
540.0 0.001852 268.38934 523.43243
467.0 0.002141 268.39160 454.95007
397.0 0.002519 268.39432 414.13440
383.0 0.002611 268.39752 384.49536
370.0 0.002703 268.40118 361.01413
345.0 0.002899 268.40527 342.58542
307.0 0.003257 268.40982 328.66415
295.0 0.003390 268.41483 318.45459
315.0 0.003175 268.42023 310.97653
296.0 0.003378 268.42606 305.87570
296.0 0.003378 268.43225 301.49551
287.0 0.003484 268.43887 297.94565
313.0 0.003195 268.44586 294.96631
308.0 0.003247 268.45322 292.44644
284.0 0.00352 268.46091 290.29156
267.0 0.00375 268.46896 288.43530
268.0 0.00373 268.47736 286.82654
297.0 0.003367 268.48605 285.42661
291.0 0.003436 268.49509 284.13037
284.0 0.00352 268.50443 283.05865
291.0 0.003436 268.51407 282.13531
310.0 0.003226 268.52396 281.35651
287.0 0.003484 268.53415 280.68774
291.0 0.003436 268.54459 280.09918
310.0 0.003226 268.55527 279.54343
275.0 0.00364 268.56622 278.98007
292.0 0.003425 268.57736 278.41339
273.0 0.00366 268.58875 277.87979
264.0 0.00379 268.60034 277.40228
278.0 0.00360 268.61212 276.98792
269.0 0.00372 268.62408 276.63248
263.0 0.00380 268.63620 276.32639
293.0 0.003413 268.64850 276.06024
264.0 0.00379 268.66098 275.72668
279.0 0.00358 268.67358 275.52481
287.0 0.003484 268.68631 275.34866
285.0 0.00351 268.69919 275.19644
261.0 0.00383 268.71216 275.06732
281.0 0.00356 268.72522 274.96118
281.0 0.00356 268.73840 274.87964
260.0 0.00385 268.75165 274.82730
276.0 0.00362 268.76495 274.81418
254.0 0.00394 268.77832 274.85556
284.0 0.00352 268.79175 274.89505
271.0 0.00369 268.80524 275.09186
269.0 0.00372 268.81873 275.34705
285.0 0.00351 268.83224 275.60443
295.0 0.003390 268.84576 275.76727
275.0 0.00364 268.85928 275.77347
274.0 0.00365 268.87280 275.67834
283.0 0.00353 268.88629 275.58414
285.0 0.00351 268.89972 275.55762
277.0 0.00361 268.91315 275.62427
259.0 0.00386 268.92651 275.78329
272.0 0.00368 268.93982 276.02423
259.0 0.00386 268.95306 276.33957
247.0 0.00405 268.96619 276.73251
284.0 0.00352 268.97925 277.22104
244.0 0.00410 268.99219 277.84085
271.0 0.00369 269.00504 278.64432
256.0 0.00391 269.01779 279.68655
270.0 0.00370 269.03033 280.99695
271.0 0.00369 269.04279 282.54245
272.0 0.00368 269.05511 282.62051
303.0 0.003300 269.06726 284.04584
296.0 0.003378 269.07922 285.54477
281.0 0.00356 269.09103 287.18896
256.0 0.00391 269.10266 289.34305
288.0 0.003472 269.11407 292.36658
297.0 0.003367 269.12527 296.66846
284.0 0.00352 269.13629 303.13510
318.0 0.003145 269.14709 313.78391
344.0 0.002907 269.15762 333.14536
363.0 0.002755 269.16791 369.45773
437.0 0.002288 269.17798 434.58246
577.0 0.001733 269.18781 539.88806
725.0 0.001379 269.19733 687.40680
928.0 0.001078 269.20657 858.47467
1003.0 0.000997 269.21555 1003.56708
1068.0 0.000936 269.22421 1051.61475
972.0 0.001029 269.23264 972.92883
806.0 0.001241 269.24066 816.29828
631.0 0.001585 269.24844 648.99713
517.0 0.001934 269.25589 511.72955
414.0 0.002415 269.26294 417.11151
353.0 0.002833 269.26971 360.06943
345.0 0.002899 269.27612 328.75888
296.0 0.003378 269.28217 312.20673
293.0 0.003413 269.28787 303.17587
324.0 0.003086 269.29318 297.75964
302.0 0.003311 269.29813 293.99014
278.0 0.00360 269.30264 290.82114
289.0 0.003460 269.30679 288.10593
304.0 0.003289 269.31055 285.38174
284.0 0.00352 269.31387 284.22324
298.0 0.003356 269.31680 282.36234
283.0 0.00353 269.31927 280.90717
256.0 0.00391 269.32135 279.77835
281.0 0.00356 269.32300 278.88998
268.0 0.00373 269.32416 278.17340
268.0 0.00373 269.32489 277.58231
228.0 0.00439 269.32516 277.09253
295.0 0.003390 269.32498 276.67786
246.0 0.00407 269.32431 276.33096
283.0 0.00353 269.32315 276.04568
297.0 0.003367 269.32156 275.82211
255.0 0.00392 269.31943 275.67078
271.0 0.00369 269.31680 275.61945
284.0 0.00352 269.31372 275.71393
266.0 0.00376 269.31009 276.00623
258.0 0.00388 269.30597 276.51480
271.0 0.00369 269.30130 277.18341
277.0 0.00361 269.29611 277.82730
263.0 0.00380 269.29041 278.13306
261.0 0.00383 269.28418 277.88080
249.0 0.00402 269.27737 277.22357
277.0 0.00361 269.27005 276.48221
264.0 0.00379 269.26218 275.87170
257.0 0.00389 269.25372 275.46924
259.0 0.00386 269.24472 275.26340
273.0 0.00366 269.23517 275.20367
268.0 0.00373 269.22501 275.23898
284.0 0.00352 269.21429 275.33511
293.0 0.003413 269.20300 275.47461
247.0 0.00405 269.19110 275.65152
257.0 0.00389 269.17862 275.86615
264.0 0.00379 269.16556 276.12210
274.0 0.00365 269.15192 276.42673
281.0 0.00356 269.13763 276.79422
251.0 0.00398 269.12280 277.25540
285.0 0.00351 269.10730 277.87857
270.0 0.00370 269.09122 278.80380
259.0 0.00386 269.07449 280.27173
274.0 0.00365 269.05719 282.59677
292.0 0.003425 269.03925 286.04114
273.0 0.00366 269.02066 290.55771
314.0 0.003185 269.00143 295.51187
307.0 0.003257 268.98163 299.45837
302.0 0.003311 268.96112 300.62744
305.0 0.003279 268.94003 298.77078
283.0 0.00353 268.91827 295.52731
301.0 0.003322 268.89587 292.54767
273.0 0.00366 268.87280 290.67651
304.0 0.003289 268.84912 290.11380
278.0 0.00360 268.82477 290.70889
315.0 0.003175 268.79977 292.24469
300.0 0.003333 268.77411 294.56671
276.0 0.00362 268.74780 297.70419
310.0 0.003226 268.72079 301.24054
295.0 0.003390 268.69318 306.36853
312.0 0.003205 268.66489 312.73215
306.0 0.003268 268.63593 320.30176
335.0 0.002985 268.60629 329.22482
340.0 0.002941 268.57599 340.64948
397.0 0.002519 268.54501 357.64191
396.0 0.002525 268.51334 386.43936
451.0 0.002217 268.48105 437.61780
564.0 0.001773 268.44806 527.24884
732.0 0.001366 268.41440 675.44897
962.0 0.001040 268.38004 899.32318
1284.0 0.000779 268.34506 1197.45898
1651.0 0.000606 268.30939 1532.39661
1968.0 0.000508 268.27301 1833.05640
2115.0 0.000473 268.23596 2002.69922
1988.0 0.000503 268.19824 1939.89966
1768.0 0.000566 268.15985 1656.73669
1380.0 0.000725 268.12079 1287.68811
991.0 0.001009 268.08102 950.67737
710.0 0.001408 268.04059 698.18475
553.0 0.001808 267.99951 534.62048
452.0 0.002212 267.95773 439.43500
377.0 0.002653 267.91528 386.74945
336.0 0.002976 267.87213 356.85641
287.0 0.003484 267.82831 338.39865
346.0 0.002890 267.78384 325.96323
273.0 0.00366 267.73871 316.90967
294.0 0.003401 267.69287 310.40012
299.0 0.003344 267.64636 305.28711
286.0 0.003497 267.59918 300.97260
285.0 0.00351 267.55136 297.17172
306.0 0.003268 267.50284 293.75620
288.0 0.003472 267.45367 290.76175
292.0 0.003425 267.40384 288.20700
295.0 0.003390 267.35333 286.06958
293.0 0.003413 267.30215 284.28656
280.0 0.00357 267.25034 282.78699
280.0 0.00357 267.19785 281.50711
260.0 0.00385 267.14471 280.39886
278.0 0.00360 267.09091 279.42773
299.0 0.003344 267.03647 278.57047
281.0 0.00356 266.98138 277.81000
282.0 0.00355 266.92563 277.13284
274.0 0.00365 266.86920 276.52853
273.0 0.00366 266.81219 275.98865
281.0 0.00356 266.75452 275.50607
271.0 0.00369 266.69620 275.07532
290.0 0.003448 266.63724 274.69177
292.0 0.003425 266.57764 274.35193
288.0 0.003472 266.51743 274.08475
238.0 0.00420 266.45657 273.82648
247.0 0.00405 266.39514 273.60699
265.0 0.00377 266.33304 273.42679
259.0 0.00386 266.27036 273.28720
254.0 0.00394 266.20703 273.19189
283.0 0.00353 266.14313 273.14743
286.0 0.003497 266.07858 273.16833
280.0 0.00357 266.01346 273.28653
261.0 0.00383 265.94769 273.55548
278.0 0.00360 265.88135 274.13751
283.0 0.00353 265.81445 275.22156
292.0 0.003425 265.74692 277.04214
294.0 0.003401 265.67883 279.73904
277.0 0.00361 265.61014 283.17490
304.0 0.003289 265.54089 286.75443
268.0 0.00373 265.47104 289.40021
275.0 0.00364 265.40063 290.40100
310.0 0.003226 265.32968 290.71564
310.0 0.003226 265.25815 292.62799
308.0 0.003247 265.18607 298.09848
312.0 0.003205 265.11346 307.94315
315.0 0.003175 265.04028 321.12152
345.0 0.002899 264.96655 334.07797
356.0 0.002809 264.89230 340.96512
367.0 0.002725 264.81750 337.89862
339.0 0.002950 264.74216 327.99210
339.0 0.002950 264.66632 317.30124
327.0 0.003058 264.58997 309.47839
333.0 0.003003 264.51309 305.02347
324.0 0.003086 264.43570 302.11557
298.0 0.003356 264.35782 298.65002
303.0 0.003300 264.27945 294.19785
268.0 0.00373 264.20053 290.37524
295.0 0.003390 264.12119 287.77628
277.0 0.00361 264.04132 285.59790
294.0 0.003401 263.96103 286.30450
271.0 0.00369 263.88019 288.75644
282.0 0.00355 263.79898 293.42490
300.0 0.003333 263.71722 301.65787
337.0 0.002967 263.63504 316.22137
328.0 0.003049 263.55240 341.66199
380.0 0.002632 263.46933 384.15582
430.0 0.002326 263.38583 449.78952
516.0 0.001938 263.30185 540.49615
639.0 0.001565 263.21750 648.11847
772.0 0.001295 263.13272 752.91986
774.0 0.001292 263.04749 827.13885
840.0 0.001190 262.96185 835.86493
709.0 0.001410 262.87582 765.42761
639.0 0.001565 262.78943 649.20972
516.0 0.001938 262.70261 531.19879
464.0 0.002155 262.61539 436.14697
363.0 0.002755 262.52780 370.69241
333.0 0.003003 262.43985 330.78003
317.0 0.003155 262.35153 308.36960
274.0 0.00365 262.26282 296.07623
299.0 0.003344 262.17383 288.98059
265.0 0.00377 262.08441 284.64163
305.0 0.003279 261.99466 281.42664
276.0 0.00362 261.90460 279.03024
274.0 0.00365 261.81421 277.27597
291.0 0.003436 261.72348 276.16220
266.0 0.00376 261.63245 275.85751
269.0 0.00372 261.54108 276.73309
272.0 0.00368 261.44940 279.31476
304.0 0.003289 261.35742 284.04599
323.0 0.003096 261.26520 290.85358
319.0 0.003135 261.17264 298.62433
318.0 0.003145 261.07983 304.74771
324.0 0.003086 260.98672 305.76630
298.0 0.003356 260.89337 300.69867
305.0 0.003279 260.79974 292.35980
293.0 0.003413 260.70587 283.97144
297.0 0.003367 260.61176 277.26959
262.0 0.00382 260.51740 272.71259
278.0 0.00360 260.42279 270.01099
259.0 0.00386 260.32794 268.62970
236.0 0.00424 260.23288 268.15164
274.0 0.00365 260.13763 268.45227
277.0 0.00361 260.04218 269.73883
258.0 0.00388 259.94650 272.54459
298.0 0.003356 259.85062 277.34232
302.0 0.003311 259.75458 284.46371
308.0 0.003247 259.65829 293.39148
307.0 0.003257 259.56189 302.23013
300.0 0.003333 259.46530 307.70325
320.0 0.003125 259.36856 307.47784
298.0 0.003356 259.27164 302.15689
289.0 0.003460 259.17459 293.83621
286.0 0.003497 259.07736 284.88513
275.0 0.00364 258.98004 277.20996
280.0 0.00357 258.88254 271.59497
266.0 0.00376 258.78494 267.88922
281.0 0.00356 258.68723 265.73459
270.0 0.00370 258.58942 264.59341
265.0 0.00377 258.49149 264.13254
287.0 0.003484 258.39346 264.18509
276.0 0.00362 258.29535 264.67706
262.0 0.00382 258.19711 265.50235
266.0 0.00376 258.09885 266.48416
269.0 0.00372 258.00046 267.22040
257.0 0.00389 257.90204 267.40103
272.0 0.00368 257.80353 266.95313
253.0 0.00395 257.70502 266.53333
264.0 0.00379 257.60641 266.68784
265.0 0.00377 257.50778 267.67371
298.0 0.003356 257.40909 269.37900
254.0 0.00394 257.31039 271.25473
293.0 0.003413 257.21167 272.34915
253.0 0.00395 257.11295 271.92007
287.0 0.003484 257.01416 270.29950
263.0 0.00380 256.91544 268.41235
273.0 0.00366 256.81668 266.91617
259.0 0.00386 256.71793 266.06567
271.0 0.00369 256.61920 265.75122
271.0 0.00369 256.52045 266.03632
259.0 0.00386 256.42175 266.37283
273.0 0.00366 256.32309 267.70154
279.0 0.00358 256.22446 269.93839
265.0 0.00377 256.12585 273.88110
288.0 0.003472 256.02734 281.14774
329.0 0.003040 255.92883 294.46799
321.0 0.003115 255.83043 317.38928
363.0 0.002755 255.73204 352.80795
448.0 0.002232 255.63376 400.31720
507.0 0.001972 255.53554 453.19293
547.0 0.001828 255.43739 495.26477
534.0 0.001873 255.33934 505.10706
460.0 0.002174 255.24139 476.07715
463.0 0.002160 255.14354 425.46353
367.0 0.002725 255.04578 373.65857
340.0 0.002941 254.94814 331.81686
317.0 0.003155 254.85057 303.00900
283.0 0.00353 254.75314 285.47934
260.0 0.00385 254.65585 275.66641
266.0 0.00376 254.55869 270.30789
261.0 0.00383 254.46164 274.14780
237.0 0.00422 254.36478 272.44931
263.0 0.00380 254.26801 282.75797
241.0 0.00415 254.17140 282.46967
275.0 0.00364 254.07495 282.56458
272.0 0.00368 253.97864 283.09210
262.0 0.00382 253.88251 284.25351
283.0 0.00353 253.78653 286.48221
289.0 0.003460 253.69075 290.48141
272.0 0.00368 253.59514 297.07907
297.0 0.003367 253.49968 306.79233
322.0 0.003106 253.40445 319.15759
371.0 0.002695 253.30939 331.97873
342.0 0.002924 253.21451 340.85657
328.0 0.003049 253.11981 341.26495
323.0 0.003096 253.02536 333.64462
383.0 0.002611 252.93109 322.74005
307.0 0.003257 252.83704 312.50528
279.0 0.00358 252.74321 304.71509
293.0 0.003413 252.64957 299.81287
281.0 0.00356 252.55617 297.32874
248.0 0.00403 252.46298 296.56390
312.0 0.003205 252.37004 296.90909
305.0 0.003279 252.27731 297.95844
289.0 0.003460 252.18483 299.51440
306.0 0.003268 252.09258 301.52890
291.0 0.003436 252.00061 304.09973
295.0 0.003390 251.90884 307.53915
312.0 0.003205 251.81734 312.50665
338.0 0.002959 251.72610 320.10742
373.0 0.002681 251.63512 331.75006
360.0 0.002778 251.54437 348.54642
374.0 0.002674 251.45389 370.25961
375.0 0.002667 251.36368 394.07541
433.0 0.002309 251.27377 413.50989
415.0 0.002410 251.18410 420.23416
388.0 0.002577 251.09471 412.26642
411.0 0.002433 251.00560 396.71201
351.0 0.002849 250.91676 381.41336
353.0 0.002833 250.82820 370.58081
357.0 0.002801 250.73993 365.41095
367.0 0.002725 250.65193 365.17276
362.0 0.002762 250.56427 368.62024
372.0 0.002688 250.47685 374.61108
378.0 0.002646 250.38974 382.45340
387.0 0.002584 250.30293 391.86557
407.0 0.002457 250.21642 402.83142
405.0 0.002469 250.13020 415.48822
400.0 0.002500 250.04428 430.08423
439.0 0.002278 249.95865 447.02252
481.0 0.002079 249.87335 466.98505
480.0 0.002083 249.78838 491.09000
541.0 0.001848 249.70367 521.02985
598.0 0.001672 249.61929 559.04858
618.0 0.001618 249.53522 607.51697
658.0 0.001520 249.45145 668.04694
741.0 0.001350 249.36800 740.39355
807.0 0.001239 249.28488 821.47034
906.0 0.001104 249.20206 906.55359
949.0 0.001054 249.11958 998.08130
1069.0 0.000935 249.03738 1115.39368
1322.0 0.000756 248.95552 1297.06030
1666.0 0.000600 248.87398 1608.35657
2256.0 0.000443 248.79276 2161.04321
3207.0 0.0003118 248.71185 3124.20020
4824.0 0.0002073 248.63129 4703.85986
7038.0 0.0001421 248.55103 7070.93555
10009.0 0.0000999 248.47112 10224.71582
13533.0 0.0000739 248.39148 13794.15137
16683.0 0.0000599 248.31221 16954.72461
18661.0 0.0000536 248.23325 18845.09570
18635.0 0.0000537 248.15460 18895.56055
16762.0 0.0000597 248.07628 16831.39453
13445.0 0.0000744 247.99831 13314.96875
9909.0 0.0001009 247.92064 9583.18262
6760.0 0.0001479 247.84331 6459.67432
4360.0 0.0002294 247.76628 4214.35254
2954.0 0.0003385 247.68959 2777.13892
2099.0 0.000476 247.61322 1931.92139
1454.0 0.000688 247.53717 1452.62341
1159.0 0.000863 247.46144 1173.63867
1008.0 0.000992 247.38605 997.22473
854.0 0.001171 247.31096 874.21869
786.0 0.001272 247.23621 781.90912
705.0 0.001418 247.16176 709.83716
700.0 0.001429 247.08765 652.40863
613.0 0.001631 247.01384 606.11523
551.0 0.001815 246.94035 568.27588
554.0 0.001805 246.86717 536.46301
545.0 0.001835 246.79433 508.43649
514.0 0.001946 246.72177 482.87634
466.0 0.002146 246.64955 459.73828
479.0 0.002088 246.57762 439.32306
463.0 0.002160 246.50601 421.67514
382.0 0.002618 246.43471 406.59283
435.0 0.002299 246.36371 393.74286
350.0 0.002857 246.29300 382.76312
358.0 0.002793 246.22261 373.32355
376.0 0.002660 246.15254 365.13260
362.0 0.002762 246.08273 357.90704
352.0 0.002841 246.01324 351.36533
367.0 0.002725 245.94406 345.36847
324.0 0.003086 245.87517 340.10632
349.0 0.002865 245.80655 336.04846
335.0 0.002985 245.73822 333.77695
347.0 0.002882 245.67018 334.25540
334.0 0.002994 245.60245 338.04517
363.0 0.002755 245.53497 345.11102
391.0 0.002558 245.46779 354.04901
334.0 0.002994 245.40091 361.40982
374.0 0.002674 245.33427 362.27115
339.0 0.002950 245.26791 354.34842
345.0 0.002899 245.20181 340.71268
294.0 0.003401 245.13599 326.06940
311.0 0.003215 245.07045 313.42780
328.0 0.003049 245.00514 303.86133
313.0 0.003195 244.94011 297.18686
297.0 0.003367 244.87535 292.65714
295.0 0.003390 244.81084 289.48422
327.0 0.003058 244.74655 287.09381
284.0 0.00352 244.68253 285.15070
273.0 0.00366 244.61873 283.48700
284.0 0.00352 244.55521 282.02484
282.0 0.00355 244.49188 280.72714
282.0 0.00355 244.42882 279.57480
266.0 0.00376 244.36600 278.55728
280.0 0.00357 244.30338 277.66953
293.0 0.003413 244.24101 276.82108
273.0 0.00366 244.17883 276.19733
284.0 0.00352 244.11688 275.71454
272.0 0.00368 244.05513 275.38824
254.0 0.00394 243.99362 275.24210
250.0 0.00400 243.93231 275.33200
277.0 0.00361 243.87119 275.74152
269.0 0.00372 243.81029 276.61740
275.0 0.00364 243.74956 278.17584
277.0 0.00361 243.68906 280.68170
303.0 0.003300 243.62871 284.39886
285.0 0.00351 243.56854 282.72287
291.0 0.003436 243.50858 289.88602
299.0 0.003344 243.44878 299.67145
295.0 0.003390 243.38913 303.21735
353.0 0.002833 243.32968 328.50204
388.0 0.002577 243.27039 370.42551
420.0 0.002381 243.21124 432.68069
524.0 0.001908 243.15228 511.85660
570.0 0.001754 243.09343 592.48151
632.0 0.001582 243.03477 644.32898
625.0 0.001600 242.97620 637.37134
569.0 0.001757 242.91782 575.65942
538.0 0.001859 242.85953 491.74850
423.0 0.002364 242.80141 413.03564
425.0 0.002353 242.74338 352.26822
344.0 0.002907 242.68549 311.48932
276.0 0.00362 242.62770 286.89865
290.0 0.003448 242.57004 272.98102
272.0 0.00368 242.51251 265.11005
297.0 0.003367 242.45503 265.03296
277.0 0.00361 242.39769 261.96832
277.0 0.00361 242.34042 259.76779
257.0 0.00389 242.28325 258.09427
277.0 0.00361 242.22615 256.78571
272.0 0.00368 242.16916 255.74860
256.0 0.00391 242.11223 254.92111
252.0 0.00397 242.05536 254.25948
260.0 0.00385 241.99858 253.73166
263.0 0.00380 241.94183 253.31346
258.0 0.00388 241.88516 252.98671
259.0 0.00386 241.82852 252.73738
236.0 0.00424 241.77196 252.55298
260.0 0.00385 241.71541 252.42897
250.0 0.00400 241.65892 252.35709
246.0 0.00407 241.60245 252.33240
251.0 0.00398 241.54601 252.35127
260.0 0.00385 241.48961 252.41098
232.0 0.00431 241.43320 252.50948
263.0 0.00380 241.37682 252.64571
247.0 0.00405 241.32045 252.81889
240.0 0.00417 241.26408 253.02898
270.0 0.00370 241.20772 253.23183
221.0 0.00452 241.15134 253.50986
282.0 0.00355 241.09499 253.83617
240.0 0.00417 241.03856 254.20355
253.0 0.00395 240.98216 254.61427
241.0 0.00415 240.92570 255.07103
255.0 0.00392 240.86925 255.57710
214.0 0.00467 240.81273 256.13632
273.0 0.00366 240.75620 256.75320
251.0 0.00398 240.69963 257.43301
249.0 0.00402 240.64299 258.18179
274.0 0.00365 240.58632 259.00668
263.0 0.00380 240.52956 259.91592
262.0 0.00382 240.47276 260.91907
239.0 0.00418 240.41586 262.02750
246.0 0.00407 240.35895 263.40952
271.0 0.00369 240.30188 264.77451
272.0 0.00368 240.24481 266.29239
261.0 0.00383 240.18762 267.98419
246.0 0.00407 240.13033 269.87698
256.0 0.00391 240.07297 272.00272
283.0 0.00353 240.01549 274.40155
252.0 0.00397 239.95792 277.12506
264.0 0.00379 239.90021 280.24557
269.0 0.00372 239.84242 283.87628
289.0 0.003460 239.78450 288.21289
297.0 0.003367 239.72646 293.60135
287.0 0.003484 239.66830 300.60654
311.0 0.003215 239.60999 310.00745
322.0 0.003106 239.55156 322.61386
341.0 0.002933 239.49298 338.86115
335.0 0.002985 239.43427 358.26620
371.0 0.002695 239.37540 378.83310
417.0 0.002398 239.31638 396.93359
402.0 0.002488 239.25722 409.94571
410.0 0.002439 239.19786 420.28470
425.0 0.002353 239.13837 433.66422
471.0 0.002123 239.07866 455.79166
477.0 0.002096 239.01881 492.90189
582.0 0.001718 238.95879 557.16766
654.0 0.001529 238.89857 670.88165
812.0 0.001232 238.83817 874.83582
1244.0 0.000804 238.77757 1228.84265
1820.0 0.000549 238.71680 1796.64929
2766.0 0.000362 238.65581 2609.51929
3817.0 0.0002620 238.59462 3614.12183
4922.0 0.0002032 238.53323 4613.27734
5283.0 0.0001893 238.47163 5234.50049
5192.0 0.0001926 238.40982 5124.31738
4346.0 0.0002301 238.34778 4352.53125
3267.0 0.0003061 238.28551 3319.48340
2394.0 0.000418 238.22305 2353.68066
1573.0 0.000636 238.16035 1606.71851
1080.0 0.000926 238.09740 1102.94470
769.0 0.001300 238.03423 796.95898
628.0 0.001592 237.97081 622.55859
551.0 0.001815 237.90717 524.38464
466.0 0.002146 237.84325 464.58783
413.0 0.002421 237.77911 424.75211
397.0 0.002519 237.71471 395.74976
364.0 0.002747 237.65005 373.38602
349.0 0.002865 237.58513 355.57916
334.0 0.002994 237.51996 341.13187
310.0 0.003226 237.45451 329.25748
316.0 0.003165 237.38879 319.39810
307.0 0.003257 237.32281 311.14337
302.0 0.003311 237.25656 304.18613
284.0 0.00352 237.19005 298.29352
308.0 0.003247 237.12326 293.28867
271.0 0.00369 237.05614 289.03720
276.0 0.00362 236.98878 285.43890
290.0 0.003448 236.92111 282.42224
287.0 0.003484 236.85318 279.94269
292.0 0.003425 236.78493 277.98770
260.0 0.00385 236.71642 276.59610
270.0 0.00370 236.64757 275.91299
232.0 0.00431 236.57846 276.30701
259.0 0.00386 236.50905 278.56274
286.0 0.003497 236.43929 284.07574
310.0 0.003226 236.36926 294.82486
328.0 0.003049 236.29890 312.80911
341.0 0.002933 236.22826 338.81168
356.0 0.002809 236.15732 370.71545
348.0 0.002874 236.08604 401.61591
417.0 0.002398 236.01448 419.12149
376.0 0.002660 235.94255 412.61465
367.0 0.002725 235.87035 385.73318
327.0 0.003058 235.79781 351.54636
284.0 0.00352 235.72496 320.12704
294.0 0.003401 235.65176 295.97159
264.0 0.00379 235.57829 279.66724
240.0 0.00417 235.50446 269.69620
248.0 0.00403 235.43031 263.96518
242.0 0.00413 235.35587 260.75845
270.0 0.00370 235.28104 259.06741
250.0 0.00400 235.20592 258.36655
255.0 0.00392 235.13046 258.54440
247.0 0.00405 235.05467 259.55237
257.0 0.00389 234.97858 261.21857
252.0 0.00397 234.90213 263.10123
283.0 0.00353 234.82533 264.37277
248.0 0.00403 234.74825 264.18423
268.0 0.00373 234.67082 262.58084
249.0 0.00402 234.59305 260.38983
271.0 0.00369 234.51495 258.49374
265.0 0.00377 234.43649 257.23700
263.0 0.00380 234.35776 256.72131
258.0 0.00388 234.27864 256.88779
259.0 0.00386 234.19923 257.62930
236.0 0.00424 234.11946 258.86823
263.0 0.00380 234.03937 260.58820
259.0 0.00386 233.95895 262.84030
287.0 0.003484 233.87819 265.73276
261.0 0.00383 233.79710 269.47092
277.0 0.00361 233.71567 274.39011
297.0 0.003367 233.63394 281.22415
294.0 0.003401 233.55185 291.26093
330.0 0.003030 233.46947 302.90128
390.0 0.002564 233.38675 331.29999
422.0 0.002370 233.30370 380.92337
505.0 0.001980 233.22032 463.68335
709.0 0.001410 233.13660 589.75470
790.0 0.001266 233.05258 759.65387
1084.0 0.000923 232.96825 954.23212
1245.0 0.000803 232.88358 1124.67798
1311.0 0.000763 232.79858 1197.11633
1148.0 0.000871 232.71330 1127.89465
949.0 0.001054 232.62772 957.88818
750.0 0.001333 232.54178 762.29205
598.0 0.001672 232.45555 591.07843
504.0 0.001984 232.36897 463.81696
392.0 0.002551 232.28215 380.18201
352.0 0.002841 232.19496 330.00494
312.0 0.003205 232.10753 301.27377
290.0 0.003448 232.01978 284.59082
299.0 0.003344 231.93170 274.17343
250.0 0.00400 231.84337 267.00763
261.0 0.00383 231.75470 261.66776
236.0 0.00424 231.66576 257.48502
276.0 0.00362 231.57652 254.11432
260.0 0.00385 231.48703 251.34938
253.0 0.00395 231.39722 249.05171
233.0 0.00429 231.30716 247.12190
227.0 0.00441 231.21683 245.48611
244.0 0.00410 231.12617 244.08856
256.0 0.00391 231.03528 242.88702
248.0 0.00403 230.94411 241.84879
216.0 0.00463 230.85268 240.94888
236.0 0.00424 230.76097 240.16837
227.0 0.00441 230.66905 239.49304
254.0 0.00394 230.57681 238.91301
225.0 0.00444 230.48438 238.42282
236.0 0.00424 230.39169 238.02254
220.0 0.00455 230.29875 237.85895
234.0 0.00427 230.20558 237.56618
234.0 0.00427 230.11215 237.60497
215.0 0.00465 230.01852 238.00290
246.0 0.00407 229.92462 238.99715
275.0 0.00364 229.83054 240.94977
249.0 0.00402 229.73625 244.20425
234.0 0.00427 229.64171 248.87627
263.0 0.00380 229.54698 254.56169
267.0 0.00375 229.45204 260.00580
256.0 0.00391 229.35690 262.99570
294.0 0.003401 229.26157 261.68439
267.0 0.00375 229.16603 256.76233
243.0 0.00412 229.07031 250.55548
259.0 0.00386 228.97443 244.84566
239.0 0.00418 228.87837 240.42839
221.0 0.00452 228.78210 237.41357
246.0 0.00407 228.68570 235.53316
230.0 0.00435 228.58913 234.44180
234.0 0.00427 228.49240 233.83208
230.0 0.00435 228.39551 233.53163
205.0 0.00488 228.29851 233.48122
242.0 0.00413 228.20132 233.69255
245.0 0.00408 228.10405 234.19553
251.0 0.00398 228.00662 234.97946
218.0 0.00459 227.90904 235.93330
240.0 0.00417 227.81142 236.78601
250.0 0.00400 227.71361 237.13025
231.0 0.00433 227.61574 236.74457
230.0 0.00435 227.51775 235.87611
233.0 0.00429 227.41966 234.93861
270.0 0.00370 227.32153 234.20361
206.0 0.00485 227.22325 233.78658
270.0 0.00370 227.12494 233.70670
244.0 0.00410 227.02652 233.94650
218.0 0.00459 226.92809 234.51176
269.0 0.00372 226.82954 235.49561
243.0 0.00412 226.73100 237.18970
233.0 0.00429 226.63239 240.10887
226.0 0.00442 226.53375 246.38213
265.0 0.00377 226.43509 255.01917
270.0 0.00370 226.33638 267.65811
323.0 0.003096 226.23769 286.67722
307.0 0.003257 226.13895 310.01077
351.0 0.002849 226.04021 333.50906
341.0 0.002933 225.94147 349.63925
355.0 0.002817 225.84277 352.13904
351.0 0.002849 225.74405 342.01044
326.0 0.003067 225.64539 324.08237
305.0 0.003279 225.54675 302.86545
292.0 0.003425 225.44815 282.47934
281.0 0.00356 225.34958 265.71866
274.0 0.00365 225.25107 253.47121
261.0 0.00383 225.15265 245.27090
236.0 0.00424 225.05424 240.11351
282.0 0.00355 224.95596 236.98813
228.0 0.00439 224.85776 235.10994
242.0 0.00413 224.75960 233.96344
256.0 0.00391 224.66158 233.25040
218.0 0.00459 224.56363 232.80949
235.0 0.00426 224.46584 232.54848
224.0 0.00446 224.36810 232.39825
235.0 0.00426 224.27055 232.29634
240.0 0.00417 224.17310 232.21086
251.0 0.00398 224.07582 232.16359
258.0 0.00388 223.97873 232.19576
261.0 0.00383 223.88171 232.33800
232.0 0.00431 223.78494 232.61017
234.0 0.00427 223.68826 233.02753
218.0 0.00459 223.59183 233.60854
222.0 0.00450 223.49556 234.38214
210.0 0.00476 223.39951 235.39890
240.0 0.00417 223.30362 236.75389
220.0 0.00455 223.20799 238.64203
249.0 0.00402 223.11261 241.47050
209.0 0.00478 223.01738 246.07285
221.0 0.00452 222.92247 253.95668
231.0 0.00433 222.82774 267.41650
277.0 0.00361 222.73331 289.17117
324.0 0.003086 222.63913 321.25372
316.0 0.003165 222.54523 363.17526
385.0 0.002597 222.45161 409.74902
429.0 0.002331 222.35825 448.67758
436.0 0.002294 222.26523 463.64203
412.0 0.002427 222.17245 448.13086
387.0 0.002584 222.08006 411.49255
355.0 0.002817 221.98795 367.72278
305.0 0.003279 221.89619 327.18817
296.0 0.003378 221.80473 295.25269
273.0 0.00366 221.71368 273.00052
222.0 0.00450 221.62297 258.88394
258.0 0.00388 221.53258 250.50391
261.0 0.00383 221.44261 245.71973
270.0 0.00370 221.35298 243.04350
251.0 0.00398 221.26379 241.60406
258.0 0.00388 221.17496 240.95551
230.0 0.00435 221.08655 240.88512
237.0 0.00422 220.99852 241.27609
257.0 0.00389 220.91096 242.01662
228.0 0.00439 220.82384 242.94171
231.0 0.00433 220.73712 243.83794
225.0 0.00444 220.65086 244.60582
246.0 0.00407 220.56505 245.39392
254.0 0.00394 220.47972 246.44096
251.0 0.00398 220.39485 247.92552
266.0 0.00376 220.31052 249.96306
256.0 0.00391 220.22662 252.64011
251.0 0.00398 220.14323 256.04843
241.0 0.00415 220.06036 260.31854
264.0 0.00379 219.97800 265.65280
268.0 0.00373 219.89618 272.37250
291.0 0.003436 219.81485 281.09711
311.0 0.003215 219.73410 292.78220
311.0 0.003215 219.65387 309.92575
318.0 0.003145 219.57425 336.52185
385.0 0.002597 219.49518 381.27972
487.0 0.002053 219.41666 457.99258
585.0 0.001709 219.33873 584.83881
777.0 0.001287 219.26137 778.72351
1038.0 0.000963 219.18466 1044.15637
1412.0 0.000708 219.10854 1358.93921
1643.0 0.000609 219.03304 1659.31189
1724.0 0.000580 218.95811 1834.44507
1700.0 0.000588 218.88390 1786.43030
1499.0 0.000667 218.81027 1542.41846
1188.0 0.000842 218.73730 1221.38184
876.0 0.001142 218.66502 919.81152
669.0 0.001495 218.59335 682.81689
523.0 0.001912 218.52240 518.84839
383.0 0.002611 218.45210 416.12137
351.0 0.002849 218.38252 355.63712
303.0 0.003300 218.31363 320.41534
287.0 0.003484 218.24542 298.93283
320.0 0.003125 218.17793 284.64810
304.0 0.003289 218.11116 274.29526
259.0 0.00386 218.04515 266.32520
254.0 0.00394 217.97986 259.96753
251.0 0.00398 217.91531 254.78848
245.0 0.00408 217.85149 250.50864
236.0 0.00424 217.78847 246.93092
234.0 0.00427 217.72618 243.90923
250.0 0.00400 217.66467 241.33344
226.0 0.00442 217.60397 239.12045
237.0 0.00422 217.54402 237.20692
247.0 0.00405 217.48491 235.54326
240.0 0.00417 217.42656 234.08948
237.0 0.00422 217.36905 232.81511
233.0 0.00429 217.31233 231.69528
241.0 0.00415 217.25647 230.71318
221.0 0.00452 217.20142 229.85973
201.0 0.00498 217.14722 229.40178
230.0 0.00435 217.09386 228.82173
207.0 0.00483 217.04134 228.38989
259.0 0.00386 216.98973 228.10883
244.0 0.00410 216.93892 227.95442
235.0 0.00426 216.88902 227.85782
229.0 0.00437 216.84003 227.69165
246.0 0.00407 216.79187 227.32364
236.0 0.00424 216.74466 226.75421
248.0 0.00403 216.69829 226.11444
229.0 0.00437 216.65288 225.52679
220.0 0.00455 216.60834 225.05109
237.0 0.00422 216.56473 224.69533
222.0 0.00450 216.52205 224.43283
226.0 0.00442 216.48033 224.22176
203.0 0.00493 216.43951 224.03580
248.0 0.00403 216.39966 223.74141
218.0 0.00459 216.36075 223.59451
257.0 0.00389 216.32277 223.52232
243.0 0.00412 216.28580 223.49023
226.0 0.00442 216.24976 223.51987
238.0 0.00420 216.21471 223.60396
232.0 0.00431 216.18063 223.74742
239.0 0.00418 216.14755 223.95778
230.0 0.00435 216.11545 224.24339
234.0 0.00427 216.08435 224.60982
235.0 0.00426 216.05423 225.05568
225.0 0.00444 216.02513 225.56876
241.0 0.00415 215.99704 226.14949
242.0 0.00413 215.96997 226.76707
229.0 0.00437 215.94391 227.49055
227.0 0.00441 215.91890 228.38974
239.0 0.00418 215.89490 229.53564
251.0 0.00398 215.87193 231.00813
240.0 0.00417 215.85001 232.93158
240.0 0.00417 215.82913 235.52025
262.0 0.00382 215.80930 239.20284
234.0 0.00427 215.79051 246.20914
250.0 0.00400 215.77280 255.38306
241.0 0.00415 215.75612 270.64417
296.0 0.003378 215.74054 295.56403
355.0 0.002817 215.72600 333.96606
411.0 0.002433 215.71255 388.20230
494.0 0.002024 215.70018 456.20847
582.0 0.001718 215.68887 528.40491
628.0 0.001592 215.67865 587.52405
588.0 0.001701 215.66954 612.95898
567.0 0.001764 215.66150 590.97821
524.0 0.001908 215.65456 529.88409
466.0 0.002146 215.64871 454.45917
392.0 0.002551 215.64398 384.97253
365.0 0.002740 215.64035 330.71915
316.0 0.003165 215.63779 293.13965
283.0 0.00353 215.63640 269.42719
299.0 0.003344 215.63606 255.45491
259.0 0.00386 215.63687 246.28387
244.0 0.00410 215.63881 241.65320
214.0 0.00467 215.64185 238.80281
253.0 0.00395 215.64601 236.83931
235.0 0.00426 215.65128 235.24580
260.0 0.00385 215.65768 233.81137
234.0 0.00427 215.66524 232.55969
240.0 0.00417 215.67389 231.56491
224.0 0.00446 215.68370 230.86264
243.0 0.00412 215.69464 230.45190
253.0 0.00395 215.70671 230.31210
242.0 0.00413 215.71992 230.41830
241.0 0.00415 215.73427 230.75369
207.0 0.00483 215.74976 231.31677
234.0 0.00427 215.76637 232.12430
230.0 0.00435 215.78415 233.21367
222.0 0.00450 215.80305 234.65005
237.0 0.00422 215.82314 236.54869
243.0 0.00412 215.84430 239.13199
247.0 0.00405 215.86664 242.86113
236.0 0.00424 215.89014 248.68401
267.0 0.00375 215.91476 258.38910
279.0 0.00358 215.94055 274.88907
318.0 0.003145 215.96747 302.02838
385.0 0.002597 215.99554 343.44208
394.0 0.002538 216.02477 400.34116
453.0 0.002208 216.05510 468.57019
486.0 0.002058 216.08662 535.12366
548.0 0.001825 216.11928 576.38806
519.0 0.001927 216.15306 570.34814
490.0 0.002041 216.18799 520.87500
434.0 0.002304 216.22408 452.76007
386.0 0.002591 216.26131 387.27216
296.0 0.003378 216.29970 334.86554
326.0 0.003067 216.33920 298.04764
309.0 0.003236 216.37985 274.75360
260.0 0.00385 216.42163 261.13712
286.0 0.003497 216.46454 253.53056
271.0 0.00369 216.50862 249.32137
259.0 0.00386 216.55379 246.97581
242.0 0.00413 216.60011 245.71049
270.0 0.00370 216.64758 245.15993
249.0 0.00402 216.69615 245.16048
275.0 0.00364 216.74586 245.64116
251.0 0.00398 216.79669 246.58075
236.0 0.00424 216.84866 247.98100
250.0 0.00400 216.90173 249.88972
262.0 0.00382 216.95592 252.40063
255.0 0.00392 217.01122 255.68187
250.0 0.00400 217.06764 260.00220
288.0 0.003472 217.12517 265.73718
278.0 0.00360 217.18379 273.32382
300.0 0.003333 217.24353 283.15451
303.0 0.003300 217.30437 295.44351
303.0 0.003300 217.36629 310.12964
326.0 0.003067 217.42931 326.98956
324.0 0.003086 217.49344 346.79028
372.0 0.002688 217.55861 374.18466
408.0 0.002451 217.62492 419.85129
489.0 0.002045 217.69225 500.20496
590.0 0.001695 217.76067 635.41022
833.0 0.001200 217.83018 843.63165
1126.0 0.000888 217.90076 1130.20837
1433.0 0.000698 217.97238 1473.26514
1748.0 0.000572 218.04504 1806.48206
1944.0 0.000514 218.11882 2010.93811
1854.0 0.000539 218.19359 1977.64136
1618.0 0.000618 218.26945 1727.58948
1336.0 0.000749 218.34631 1384.37634
1036.0 0.000965 218.42421 1053.48242
789.0 0.001267 218.50316 787.51996
592.0 0.001689 218.58310 600.20477
471.0 0.002123 218.66408 481.98904
377.0 0.002653 218.74605 413.62225
381.0 0.002625 218.82907 375.26709
332.0 0.003012 218.91309 351.21713
321.0 0.003115 218.99805 332.08929
301.0 0.003322 219.08405 314.37628
284.0 0.00352 219.17101 298.41510
320.0 0.003125 219.25897 284.95477
271.0 0.00369 219.34790 274.18173
247.0 0.00405 219.43781 265.80411
271.0 0.00369 219.52866 259.33475
250.0 0.00400 219.62047 254.31010
246.0 0.00407 219.71321 250.33907
238.0 0.00420 219.80690 247.13525
268.0 0.00373 219.90155 244.49940
248.0 0.00403 219.99709 242.29463
222.0 0.00450 220.09358 240.42888
235.0 0.00426 220.19098 238.86038
218.0 0.00459 220.28929 237.51331
256.0 0.00391 220.38847 236.31152
258.0 0.00388 220.48859 235.25888
256.0 0.00391 220.58954 234.33287
237.0 0.00422 220.69139 233.51558
213.0 0.00469 220.79413 232.79248
213.0 0.00469 220.89774 232.15138
236.0 0.00424 221.00220 231.58235
224.0 0.00446 221.10748 231.07672
237.0 0.00422 221.21364 230.62752
220.0 0.00455 221.32059 230.22862
227.0 0.00441 221.42836 229.87503
223.0 0.00448 221.53699 229.56255
267.0 0.00375 221.64638 229.28760
236.0 0.00424 221.75661 229.04755
256.0 0.00391 221.86761 228.84084
234.0 0.00427 221.97942 228.66823
229.0 0.00437 222.09196 228.53107
222.0 0.00450 222.20531 228.43883
210.0 0.00476 222.31935 228.40819
232.0 0.00431 222.43417 228.46495
198.0 0.00505 222.54976 228.36855
208.0 0.00481 222.66606 228.69203
241.0 0.00415 222.78310 229.15428
230.0 0.00435 222.90082 229.69806
234.0 0.00427 223.01926 230.18590
225.0 0.00444 223.13838 230.40900
233.0 0.00429 223.25821 230.24274
268.0 0.00373 223.37869 229.80399
242.0 0.00413 223.49980 229.32413
257.0 0.00389 223.62164 228.99289
239.0 0.00418 223.74409 228.89717
217.0 0.00461 223.86720 229.09911
214.0 0.00467 223.99091 229.59814
215.0 0.00465 224.11526 230.32928
229.0 0.00437 224.24017 232.43529
232.0 0.00431 224.36569 233.07738
231.0 0.00433 224.49184 233.38551
235.0 0.00426 224.61853 232.96866
231.0 0.00433 224.74583 232.24922
234.0 0.00427 224.87364 231.51018
242.0 0.00413 225.00203 230.91055
229.0 0.00437 225.13094 230.50365
244.0 0.00410 225.26039 230.27823
244.0 0.00410 225.39032 230.19267
222.0 0.00450 225.52077 230.20142
243.0 0.00412 225.65173 230.26901
229.0 0.00437 225.78314 230.37390
240.0 0.00417 225.91508 230.50594
212.0 0.00472 226.04745 230.64343
215.0 0.00465 226.18030 230.82381
219.0 0.00457 226.31354 231.02814
212.0 0.00472 226.44727 231.25375
216.0 0.00463 226.58134 231.49179
240.0 0.00417 226.71587 231.72566
224.0 0.00446 226.85083 231.93616
211.0 0.00474 226.98610 232.12337
237.0 0.00422 227.12181 232.29970
220.0 0.00455 227.25784 231.08351
226.0 0.00442 227.39429 231.32840
234.0 0.00427 227.53102 231.60121
211.0 0.00474 227.66808 231.89493
247.0 0.00405 227.80550 232.22813
210.0 0.00476 227.94318 232.59215
202.0 0.00495 228.08122 232.98840
202.0 0.00495 228.21948 233.41927
236.0 0.00424 228.35809 233.88882
216.0 0.00463 228.49690 234.40469
221.0 0.00452 228.63602 234.95924
249.0 0.00402 228.77530 235.64275
240.0 0.00417 228.91484 236.48088
233.0 0.00429 229.05466 237.53746
245.0 0.00408 229.19460 238.88231
230.0 0.00435 229.33481 240.59238
237.0 0.00422 229.47514 242.76448
224.0 0.00446 229.61569 245.54883
258.0 0.00388 229.75638 249.22313
235.0 0.00426 229.89723 254.37575
243.0 0.00412 230.03821 261.87564
277.0 0.00361 230.17928 272.34863
285.0 0.00351 230.32051 285.50565
266.0 0.00376 230.46182 299.49991
328.0 0.003049 230.60327 310.60583
308.0 0.003247 230.74474 314.59665
284.0 0.00352 230.88634 309.82831
313.0 0.003195 231.02792 298.52008
256.0 0.00391 231.16954 285.11099
284.0 0.00352 231.31126 273.00790
240.0 0.00417 231.45297 263.75943
266.0 0.00376 231.59471 257.58633
245.0 0.00408 231.73640 254.00130
272.0 0.00368 231.87816 252.28529
248.0 0.00403 232.01981 251.79298
252.0 0.00397 232.16148 252.07793
241.0 0.00415 232.30304 252.88699
266.0 0.00376 232.44458 254.10010
243.0 0.00412 232.58604 255.66660
244.0 0.00410 232.72742 257.55994
266.0 0.00376 232.86871 259.74948
251.0 0.00398 233.00987 262.20361
278.0 0.00360 233.15096 264.94934
268.0 0.00373 233.29184 268.10800
282.0 0.00355 233.43269 271.84448
254.0 0.00394 233.57329 276.34476
282.0 0.00355 233.71373 281.84985
289.0 0.003460 233.85405 289.76880
265.0 0.00377 233.99413 298.46475
281.0 0.00356 234.13406 309.76172
321.0 0.003115 234.27373 325.01248
348.0 0.002874 234.41325 346.74619
374.0 0.002674 234.55246 380.75681
405.0 0.002469 234.69142 433.35376
533.0 0.001876 234.83020 518.27612
638.0 0.001567 234.96863 651.62488
882.0 0.001134 235.10686 848.54730
1121.0 0.000892 235.24474 1114.24817
1465.0 0.000683 235.38237 1430.98511
1735.0 0.000576 235.51964 1742.41040
1928.0 0.000519 235.65663 1946.77991
1984.0 0.000504 235.79324 1949.63806
1833.0 0.000546 235.92950 1758.99231
1490.0 0.000671 236.06546 1464.91272
1157.0 0.000864 236.20099 1154.47009
909.0 0.001100 236.33621 883.98474
724.0 0.001381 236.47099 677.73340
552.0 0.001812 236.60541 535.38531
438.0 0.002283 236.73936 443.96417
390.0 0.002564 236.87297 387.60422
380.0 0.002632 237.00607 352.95581
329.0 0.003040 237.13876 330.85791
356.0 0.002809 237.27101 315.85529
305.0 0.003279 237.40276 304.97305
271.0 0.00369 237.53409 296.69287
313.0 0.003195 237.66487 290.22473
285.0 0.00351 237.79523 285.13428
304.0 0.003289 237.92502 281.15659
306.0 0.003268 238.05428 278.07742
281.0 0.00356 238.18309 275.70032
282.0 0.00355 238.31131 273.77765
276.0 0.00362 238.43903 271.99951
261.0 0.00383 238.56612 270.11679
285.0 0.00351 238.69272 268.13904
251.0 0.00398 238.81870 266.25208
258.0 0.00388 238.94412 264.63373
289.0 0.003460 239.06891 263.29568
263.0 0.00380 239.19308 262.30658
270.0 0.00370 239.31670 261.54858
271.0 0.00369 239.43964 261.01666
265.0 0.00377 239.56200 260.66797
283.0 0.00353 239.68365 260.47125
252.0 0.00397 239.80472 260.40717
247.0 0.00405 239.92506 260.46609
275.0 0.00364 240.04478 260.64520
252.0 0.00397 240.16377 260.94659
283.0 0.00353 240.28210 261.37762
256.0 0.00391 240.39975 261.95178
234.0 0.00427 240.51666 262.69391
275.0 0.00364 240.63289 263.65125
250.0 0.00400 240.74835 264.91696
269.0 0.00372 240.86311 266.66699
244.0 0.00410 240.97713 269.22009
273.0 0.00366 241.09035 273.04831
255.0 0.00392 241.20287 278.73651
307.0 0.003257 241.31459 286.79605
302.0 0.003311 241.42558 297.34717
307.0 0.003257 241.53574 309.67767
363.0 0.002755 241.64513 321.85715
346.0 0.002890 241.75368 330.28809
356.0 0.002809 241.86148 331.77573
359.0 0.002786 241.96843 326.81921
368.0 0.002717 242.07455 319.15363
330.0 0.003030 242.17987 312.14969
348.0 0.002874 242.28433 307.61081
317.0 0.003155 242.38795 306.17197
330.0 0.003030 242.49072 307.79990
329.0 0.003040 242.59265 312.21039
326.0 0.003067 242.69366 319.20847
365.0 0.002740 242.79387 329.07135
363.0 0.002755 242.89313 342.35205
365.0 0.002740 242.99152 361.05762
414.0 0.002415 243.08904 390.27991
469.0 0.002132 243.18562 434.28281
544.0 0.001838 243.28134 504.85245
686.0 0.001458 243.37611 615.57831
826.0 0.001211 243.47000 779.93994
1021.0 0.000979 243.56291 1005.56232
1299.0 0.000770 243.65489 1286.33557
1514.0 0.000661 243.74599 1591.44556
1743.0 0.000574 243.83607 1856.82385
1843.0 0.000543 243.92526 2015.26721
1942.0 0.000515 244.01346 2065.51123
2036.0 0.000491 244.10074 2057.29077
1876.0 0.000533 244.18700 2004.65479
1828.0 0.000547 244.27232 1868.36548
1609.0 0.000622 244.35661 1628.87402
1315.0 0.000760 244.43996 1335.35583
1048.0 0.000954 244.52234 1053.36145
827.0 0.001209 244.60368 819.89886
684.0 0.001462 244.68407 645.49866
525.0 0.001905 244.76341 525.41675
508.0 0.001969 244.84177 447.66034
439.0 0.002278 244.91910 397.55658
379.0 0.002639 244.99545 366.72623
341.0 0.002933 245.07072 346.30432
327.0 0.003058 245.14499 331.70694
313.0 0.003195 245.21825 320.94064
323.0 0.003096 245.29045 312.65878
318.0 0.003145 245.36165 306.27826
303.0 0.003300 245.43176 301.48611
298.0 0.003356 245.50087 298.06638
291.0 0.003436 245.56891 295.78976
294.0 0.003401 245.63589 294.31937
315.0 0.003175 245.70183 293.13068
313.0 0.003195 245.76669 291.62891
306.0 0.003268 245.83054 289.63684
270.0 0.00370 245.89326 287.54852
313.0 0.003195 245.95497 285.80099
273.0 0.00366 246.01556 284.51578
270.0 0.00370 246.07513 283.56561
282.0 0.00355 246.13358 282.97949
285.0 0.00351 246.19095 283.23578
291.0 0.003436 246.24727 285.15796
277.0 0.00361 246.30249 289.51968
307.0 0.003257 246.35664 296.83743
328.0 0.003049 246.40970 307.03900
309.0 0.003236 246.46167 319.00113
330.0 0.003030 246.51253 330.21500
325.0 0.003077 246.56235 337.53491
350.0 0.002857 246.61102 338.60904
330.0 0.003030 246.65862 332.55981
338.0 0.002959 246.70515 321.14404
296.0 0.003378 246.75055 308.05490
290.0 0.003448 246.79485 296.24408
272.0 0.00368 246.83807 287.04776
251.0 0.00398 246.88019 280.66211
273.0 0.00366 246.92119 276.67947
269.0 0.00372 246.96111 274.48135
276.0 0.00362 246.99991 273.48138
287.0 0.003484 247.03764 273.25745
300.0 0.003333 247.07425 273.55219
280.0 0.00357 247.10976 274.23495
303.0 0.003300 247.14418 275.26340
288.0 0.003472 247.17747 276.61017
304.0 0.003289 247.20969 278.30316
263.0 0.00380 247.24080 280.38223
278.0 0.00360 247.27080 282.90228
300.0 0.003333 247.29973 285.95300
302.0 0.003311 247.32753 289.65451
307.0 0.003257 247.35423 294.20883
288.0 0.003472 247.37984 299.78223
315.0 0.003175 247.40437 306.81653
324.0 0.003086 247.42780 315.83502
311.0 0.003215 247.45012 328.10080
328.0 0.003049 247.47137 345.75739
371.0 0.002695 247.49150 371.97092
421.0 0.002375 247.51059 412.69958
464.0 0.002155 247.52855 476.55945
564.0 0.001773 247.54544 574.71094
690.0 0.001449 247.56123 718.38879
909.0 0.001100 247.57596 913.21973
1109.0 0.000902 247.58960 1152.06726
1398.0 0.000715 247.60217 1411.23474
1627.0 0.000615 247.61365 1644.84656
1734.0 0.000577 247.62407 1775.29797
1674.0 0.000597 247.63342 1730.62024
1529.0 0.000654 247.64169 1525.90735
1283.0 0.000779 247.64891 1249.50830
1022.0 0.000978 247.65508 979.94250
770.0 0.001299 247.66017 757.49951
598.0 0.001672 247.66422 593.81763
463.0 0.002160 247.66721 483.66568
421.0 0.002375 247.66914 414.15179
380.0 0.002632 247.67006 370.48840
354.0 0.002825 247.66991 344.03760
316.0 0.003165 247.66873 326.67651
302.0 0.003311 247.66652 314.42682
320.0 0.003125 247.66327 304.20132
288.0 0.003472 247.65900 297.00845
322.0 0.003106 247.65370 291.22864
283.0 0.00353 247.64738 286.50171
278.0 0.00360 247.64008 282.56100
275.0 0.00364 247.63173 279.19583
277.0 0.00361 247.62239 276.26968
258.0 0.00388 247.61205 273.72955
270.0 0.00370 247.60069 271.58337
240.0 0.00417 247.58836 269.74158
283.0 0.00353 247.57506 268.17688
242.0 0.00413 247.56076 266.82913
267.0 0.00375 247.54549 265.60944
263.0 0.00380 247.52924 264.43225
257.0 0.00389 247.51202 263.35309
261.0 0.00383 247.49385 262.41110
261.0 0.00383 247.47472 261.63904
248.0 0.00403 247.45464 261.07376
238.0 0.00420 247.43361 260.77344
241.0 0.00415 247.41165 260.82935
269.0 0.00372 247.38873 261.35413
283.0 0.00353 247.36494 262.47903
250.0 0.00400 247.34018 264.24017
268.0 0.00373 247.31451 266.51990
283.0 0.00353 247.28793 268.92294
277.0 0.00361 247.26045 270.66855
286.0 0.003497 247.23209 270.84299
275.0 0.00364 247.20282 269.19983
245.0 0.00408 247.17267 266.47113
233.0 0.00429 247.14163 263.56461
257.0 0.00389 247.10973 261.03510
253.0 0.00395 247.07697 259.10327
256.0 0.00391 247.04333 257.77994
242.0 0.00413 247.00885 256.94067
253.0 0.00395 246.97353 256.51022
251.0 0.00398 246.93738 256.35883
242.0 0.00413 246.90039 256.38666
248.0 0.00403 246.86256 256.66400
277.0 0.00361 246.82393 257.16159
244.0 0.00410 246.78447 257.90430
263.0 0.00380 246.74422 258.91269
244.0 0.00410 246.70319 260.18811
249.0 0.00402 246.66135 261.69498
237.0 0.00422 246.61873 263.39655
264.0 0.00379 246.57535 265.37927
244.0 0.00410 246.53119 268.06369
277.0 0.00361 246.48628 271.19177
267.0 0.00375 246.44061 274.88968
269.0 0.00372 246.39421 278.90402
298.0 0.003356 246.34706 283.25797
289.0 0.003460 246.29919 288.86731
324.0 0.003086 246.25058 297.32715
318.0 0.003145 246.20129 310.29691
320.0 0.003125 246.15131 329.21121
369.0 0.002710 246.10060 354.74637
381.0 0.002625 246.04922 385.92010
433.0 0.002309 245.99713 420.09894
452.0 0.002212 245.94441 453.99097
494.0 0.002024 245.89099 482.96149
523.0 0.001912 245.83696 499.29385
479.0 0.002088 245.78227 493.88239
474.0 0.002110 245.72691 465.36948
425.0 0.002353 245.67094 423.99426
386.0 0.002591 245.61433 381.87772
321.0 0.003115 245.55716 346.22205
327.0 0.003058 245.49933 319.52881
293.0 0.003413 245.44093 301.22577
282.0 0.00355 245.38193 288.94080
290.0 0.003448 245.32237 280.40616
293.0 0.003413 245.26224 273.89484
248.0 0.00403 245.20154 268.74878
258.0 0.00388 245.14029 263.42017
259.0 0.00386 245.07849 260.31912
269.0 0.00372 245.01616 257.99014
242.0 0.00413 244.95329 256.28397
269.0 0.00372 244.88995 255.05432
268.0 0.00373 244.82605 254.17586
276.0 0.00362 244.76167 253.55713
273.0 0.00366 244.69682 253.14183
248.0 0.00403 244.63144 252.91202
230.0 0.00435 244.56564 252.85509
242.0 0.00413 244.49933 253.01082
250.0 0.00400 244.43260 253.45547
248.0 0.00403 244.36540 254.33069
266.0 0.00376 244.29779 255.86668
266.0 0.00376 244.22975 258.38815
241.0 0.00415 244.16125 262.28479
280.0 0.00357 244.09242 267.94171
275.0 0.00364 244.02310 275.60669
280.0 0.00357 243.95346 285.13202
301.0 0.003322 243.88338 295.58298
290.0 0.003448 243.81297 305.23950
302.0 0.003311 243.74217 312.73975
334.0 0.002994 243.67104 317.71179
285.0 0.00351 243.59956 319.23187
290.0 0.003448 243.52773 315.49188
313.0 0.003195 243.45558 306.28931
305.0 0.003279 243.38310 294.13010
266.0 0.00376 243.31033 282.03250
266.0 0.00376 243.23726 271.78830
278.0 0.00360 243.16391 263.99960
246.0 0.00407 243.09024 258.55325
234.0 0.00427 243.01633 254.98706
266.0 0.00376 242.94215 252.75908
265.0 0.00377 242.86771 251.37857
274.0 0.00365 242.79305 250.51826
255.0 0.00392 242.71811 249.97461
242.0 0.00413 242.64297 249.63847
229.0 0.00437 242.56758 249.45914
237.0 0.00422 242.49203 249.39951
219.0 0.00457 242.41628 249.48511
244.0 0.00410 242.34030 249.70732
245.0 0.00408 242.26418 250.07556
278.0 0.00360 242.18785 250.59793
249.0 0.00402 242.11136 251.32466
268.0 0.00373 242.03471 252.16682
246.0 0.00407 241.95796 253.30354
253.0 0.00395 241.88101 254.60249
273.0 0.00366 241.80399 256.42526
270.0 0.00370 241.72684 259.22775
252.0 0.00397 241.64954 263.78653
266.0 0.00376 241.57219 271.33014
328.0 0.003049 241.49472 283.54532
306.0 0.003268 241.41716 302.28687
367.0 0.002725 241.33954 328.88550
361.0 0.002770 241.26184 363.10608
464.0 0.002155 241.18407 401.81689
475.0 0.002105 241.10628 437.34549
496.0 0.002016 241.02844 457.26282
451.0 0.002217 240.95058 451.54416
473.0 0.002114 240.87270 423.25629
420.0 0.002381 240.79475 384.88531
336.0 0.002976 240.71684 347.19904
324.0 0.003086 240.63890 315.76038
327.0 0.003058 240.56100 292.30148
301.0 0.003322 240.48314 276.25128
268.0 0.00373 240.40526 265.97366
289.0 0.003460 240.32745 259.57092
258.0 0.00388 240.24962 255.56180
241.0 0.00415 240.17191 252.89676
274.0 0.00365 240.09421 251.01518
263.0 0.00380 240.01662 249.60533
226.0 0.00442 239.93906 248.44331
258.0 0.00388 239.86162 247.26288
245.0 0.00408 239.78427 246.40305
267.0 0.00375 239.70700 245.66121
248.0 0.00403 239.62984 245.03186
264.0 0.00379 239.55276 244.49968
224.0 0.00446 239.47588 244.05136
253.0 0.00395 239.39905 243.67418
246.0 0.00407 239.32240 243.34918
242.0 0.00413 239.24588 243.08885
244.0 0.00410 239.16953 242.88400
248.0 0.00403 239.09335 242.74391
238.0 0.00420 239.01729 242.69098
245.0 0.00408 238.94144 242.76547
230.0 0.00435 238.86575 243.02376
265.0 0.00377 238.79025 243.52786
265.0 0.00377 238.71495 244.32086
238.0 0.00420 238.63986 245.39072
257.0 0.00389 238.56497 246.62410
249.0 0.00402 238.49028 247.74948
238.0 0.00420 238.41583 248.33298
237.0 0.00422 238.34161 248.03123
242.0 0.00413 238.26764 246.95615
256.0 0.00391 238.19388 245.54269
228.0 0.00439 238.12038 244.16408
253.0 0.00395 238.04712 243.02707
228.0 0.00439 237.97415 242.16919
246.0 0.00407 237.90146 241.58554
238.0 0.00420 237.82899 241.33144
230.0 0.00435 237.75687 241.12553
249.0 0.00402 237.68497 241.02260
240.0 0.00417 237.61340 241.72156
238.0 0.00420 237.54208 241.81491
250.0 0.00400 237.47112 241.85487
258.0 0.00388 237.40044 241.93462
230.0 0.00435 237.33008 242.00572
258.0 0.00388 237.26007 242.10286
247.0 0.00405 237.19035 242.28372
266.0 0.00376 237.12099 242.52251
230.0 0.00435 237.05193 242.82986
239.0 0.00418 236.98325 243.22021
242.0 0.00413 236.91487 243.71437
244.0 0.00410 236.84691 244.34341
236.0 0.00424 236.77927 245.15312
233.0 0.00429 236.71198 246.21208
275.0 0.00364 236.64510 247.62836
239.0 0.00418 236.57854 249.58276
247.0 0.00405 236.51241 252.38431
271.0 0.00369 236.44661 256.54083
227.0 0.00441 236.38123 262.82315
265.0 0.00377 236.31621 272.29465
296.0 0.003378 236.25163 286.18668
308.0 0.003247 236.18742 305.42865
363.0 0.002755 236.12361 329.86304
333.0 0.003003 236.06024 357.29166
380.0 0.002632 235.99722 382.86322
365.0 0.002740 235.93468 399.98547
402.0 0.002488 235.87253 402.77454
370.0 0.002703 235.81081 389.66257
338.0 0.002959 235.74950 365.55777
354.0 0.002825 235.68864 337.81131
311.0 0.003215 235.62822 311.89795
270.0 0.00370 235.56821 290.68613
271.0 0.00369 235.50867 274.94586
239.0 0.00418 235.44955 264.11743
248.0 0.00403 235.39090 257.06293
248.0 0.00403 235.33266 252.59612
226.0 0.00442 235.27493 249.75371
290.0 0.003448 235.21762 247.86359
256.0 0.00391 235.16077 246.30550
252.0 0.00397 235.10440 245.28328
248.0 0.00403 235.04846 244.48549
241.0 0.00415 234.99301 243.86478
264.0 0.00379 234.93802 243.39397
232.0 0.00431 234.88351 243.05386
239.0 0.00418 234.82947 242.83382
218.0 0.00459 234.77589 242.73212
229.0 0.00437 234.72282 242.76056
244.0 0.00410 234.67023 242.94942
250.0 0.00400 234.61809 243.34930
242.0 0.00413 234.56644 244.02615
224.0 0.00446 234.51527 245.04642
250.0 0.00400 234.46460 246.45593
224.0 0.00446 234.41441 248.24934
264.0 0.00379 234.36472 250.34793
267.0 0.00375 234.31552 252.56920
246.0 0.00407 234.26680 254.75063
261.0 0.00383 234.21858 257.07349
241.0 0.00415 234.17084 260.07080
272.0 0.00368 234.12360 264.13086
301.0 0.003322 234.07687 269.07642
286.0 0.003497 234.03062 273.92993
288.0 0.003472 233.98488 276.89825
269.0 0.00372 233.93964 276.34006
290.0 0.003448 233.89487 272.41797
251.0 0.00398 233.85063 266.86414
253.0 0.00395 233.80687 261.32968
271.0 0.00369 233.76363 256.72797
281.0 0.00356 233.72084 253.38470
281.0 0.00356 233.67860 251.26596
263.0 0.00380 233.63683 253.33499
275.0 0.00364 233.59557 253.02782
262.0 0.00382 233.55481 254.58427
253.0 0.00395 233.51454 255.17213
255.0 0.00392 233.47478 256.04422
242.0 0.00413 233.43550 257.15234
266.0 0.00376 233.39673 258.49420
262.0 0.00382 233.35844 260.08859
245.0 0.00408 233.32066 261.95996
277.0 0.00361 233.28337 264.15546
244.0 0.00410 233.24658 266.73480
253.0 0.00395 233.21028 269.77884
259.0 0.00386 233.17447 273.39838
269.0 0.00372 233.13913 277.75284
296.0 0.003378 233.10429 283.08289
285.0 0.00351 233.06996 289.77155
284.0 0.00352 233.03609 298.44809
292.0 0.003425 233.00272 310.15292
360.0 0.002778 232.96980 326.58078
334.0 0.002994 232.93739 350.39996
388.0 0.002577 232.90547 385.59070
423.0 0.002364 232.87401 437.62436
540.0 0.001852 232.84302 513.12134
595.0 0.001681 232.81250 618.56964
788.0 0.001269 232.78246 757.80231
922.0 0.001085 232.75287 928.04059
1165.0 0.000858 232.72379 1116.71545
1384.0 0.000723 232.69516 1300.83862
1474.0 0.000678 232.66696 1441.17285
1480.0 0.000676 232.63924 1484.04614
1416.0 0.000706 232.61197 1402.09619
1234.0 0.000810 232.58516 1227.17700
1038.0 0.000963 232.55879 1018.02631
833.0 0.001200 232.53290 819.71997
729.0 0.001372 232.50743 655.46167
550.0 0.001818 232.48241 532.12518
488.0 0.002049 232.45782 446.34421
382.0 0.002618 232.43365 389.90710
376.0 0.002660 232.40994 353.82785
316.0 0.003165 232.38669 330.69598
296.0 0.003378 232.36382 315.34723
286.0 0.003497 232.34137 304.60385
298.0 0.003356 232.31935 296.66498
286.0 0.003497 232.29776 290.54788
248.0 0.00403 232.27658 285.72369
254.0 0.00394 232.25580 281.83701
271.0 0.00369 232.23543 278.69550
272.0 0.00368 232.21545 276.15454
277.0 0.00361 232.19588 274.10590
250.0 0.00400 232.17671 272.46933
289.0 0.003460 232.15790 271.18283
247.0 0.00405 232.13951 270.19833
288.0 0.003472 232.12151 269.47867
286.0 0.003497 232.10384 268.99481
277.0 0.00361 232.08656 268.72482
268.0 0.00373 232.06966 268.65195
295.0 0.003390 232.05313 268.76694
293.0 0.003413 232.03694 269.04907
252.0 0.00397 232.02112 269.50763
272.0 0.00368 232.00565 270.13852
281.0 0.00356 231.99052 270.94055
265.0 0.00377 231.97575 271.91797
266.0 0.00376 231.96129 273.07803
288.0 0.003472 231.94719 274.43176
283.0 0.00353 231.93340 275.99420
290.0 0.003448 231.91994 277.78479
289.0 0.003460 231.90677 279.73291
288.0 0.003472 231.89395 282.05328
283.0 0.00353 231.88144 284.67676
292.0 0.003425 231.86922 287.62796
284.0 0.00352 231.85730 290.92755
258.0 0.00388 231.84567 294.61285
295.0 0.003390 231.83434 298.73199
310.0 0.003226 231.82327 303.27890
292.0 0.003425 231.81248 308.42923
339.0 0.002950 231.80199 314.32108
338.0 0.002959 231.79175 321.09406
350.0 0.002857 231.78177 328.89127
325.0 0.003077 231.77203 337.86435
349.0 0.002865 231.76257 348.15848
359.0 0.002786 231.75334 359.96268
366.0 0.002732 231.74437 373.57748
411.0 0.002433 231.73561 389.50433
383.0 0.002611 231.72710 408.45187
405.0 0.002469 231.71878 431.34686
420.0 0.002381 231.71071 459.53290
454.0 0.002203 231.70284 495.16074
492.0 0.002033 231.69518 542.06903
566.0 0.001767 231.68773 607.33484
691.0 0.001447 231.68047 703.64642
862.0 0.001160 231.67339 852.01318
1076.0 0.000929 231.66649 1083.49036
1399.0 0.000715 231.65979 1436.91260
1983.0 0.000504 231.65323 1950.86694
2737.0 0.000365 231.64687 2648.18774
3502.0 0.0002856 231.64064 3513.68091
4507.0 0.0002219 231.63460 4463.43945
5460.0 0.0001832 231.62868 5312.45557
5891.0 0.0001698 231.62289 5804.57227
5820.0 0.0001718 231.61726 5776.24414
5528.0 0.0001809 231.61177 5271.88086
4587.0 0.0002180 231.60638 4461.02344
3584.0 0.0002790 231.60114 3546.42041
2782.0 0.000359 231.59599 2696.65869
1966.0 0.000509 231.59096 2001.78430
1496.0 0.000668 231.58601 1482.76904
1148.0 0.000871 231.58116 1120.36389
871.0 0.001148 231.57642 878.91656
698.0 0.001433 231.57176 721.71027
607.0 0.001647 231.56717 618.75818
557.0 0.001795 231.56264 548.99927
508.0 0.001969 231.55818 499.21500
462.0 0.002165 231.55379 461.73779
452.0 0.002212 231.54945 432.28528
397.0 0.002519 231.54515 408.43927
399.0 0.002506 231.54089 388.75305
349.0 0.002865 231.53667 372.28766
364.0 0.002747 231.53249 358.38614
349.0 0.002865 231.52831 346.56143
364.0 0.002747 231.52415 336.43713
331.0 0.003021 231.52000 327.71228
298.0 0.003356 231.51588 320.13434
301.0 0.003322 231.51173 313.56174
300.0 0.003333 231.50760 307.90527
297.0 0.003367 231.50342 303.05704
303.0 0.003300 231.49925 299.29086
301.0 0.003322 231.49504 296.58871
290.0 0.003448 231.49081 294.32422
301.0 0.003322 231.48654 293.94843
281.0 0.00356 231.48224 294.88550
302.0 0.003311 231.47786 296.71677
277.0 0.00361 231.47345 298.88226
308.0 0.003247 231.46898 300.67700
276.0 0.00362 231.46442 301.59418
282.0 0.00355 231.45981 301.18048
324.0 0.003086 231.45514 299.05457
276.0 0.00362 231.45033 295.43839
310.0 0.003226 231.44548 291.37592
297.0 0.003367 231.44051 289.80032
306.0 0.003268 231.43546 287.75208
287.0 0.003484 231.43030 286.71103
263.0 0.00380 231.42502 285.69507
274.0 0.00365 231.41960 285.29214
262.0 0.00382 231.41408 282.74448
291.0 0.003436 231.40845 278.13651
301.0 0.003322 231.40265 273.47647
257.0 0.00389 231.39671 269.34250
259.0 0.00386 231.39067 266.00168
257.0 0.00389 231.38445 263.54938
270.0 0.00370 231.37807 261.93182
254.0 0.00394 231.37152 261.00790
260.0 0.00385 231.36482 260.59393
259.0 0.00386 231.35797 260.47440
272.0 0.00368 231.35089 260.39609
249.0 0.00402 231.34366 260.12534
265.0 0.00377 231.33624 259.60184
261.0 0.00383 231.32864 258.97516
259.0 0.00386 231.32080 258.44916
272.0 0.00368 231.31279 258.18350
249.0 0.00402 231.30458 258.30988
244.0 0.00410 231.29613 258.98584
259.0 0.00386 231.28749 260.45490
270.0 0.00370 231.27859 263.09955
270.0 0.00370 231.26952 267.45688
300.0 0.003333 231.26018 274.15073
279.0 0.00358 231.25060 283.70953
312.0 0.003205 231.24080 296.26807
330.0 0.003030 231.23073 311.16345
346.0 0.002890 231.22043 326.43900
373.0 0.002681 231.20987 338.55511
355.0 0.002817 231.19904 343.36743
378.0 0.002646 231.18796 338.91370
380.0 0.002632 231.17661 327.38409
371.0 0.002695 231.16498 313.15186
310.0 0.003226 231.15308 299.62216
322.0 0.003106 231.14090 288.40198
288.0 0.003472 231.12842 279.71915
285.0 0.00351 231.11566 273.25476
278.0 0.00360 231.10262 268.59171
271.0 0.00369 231.08926 265.35770
256.0 0.00391 231.07561 263.22891
262.0 0.00382 231.06165 262.01932
243.0 0.00412 231.04738 261.69101
247.0 0.00405 231.03281 262.27057
251.0 0.00398 231.01791 263.82300
237.0 0.00422 231.00272 266.35861
273.0 0.00366 230.98718 269.75165
268.0 0.00373 230.97131 273.62778
260.0 0.00385 230.95514 277.22391
288.0 0.003472 230.93861 279.40720
286.0 0.003497 230.92175 279.31952
275.0 0.00364 230.90456 277.23279
300.0 0.003333 230.88701 274.24048
267.0 0.00375 230.86916 271.31964
262.0 0.00382 230.85089 268.99939
291.0 0.003436 230.83232 267.45435
275.0 0.00364 230.81339 263.47305
298.0 0.003356 230.79408 263.31821
269.0 0.00372 230.77443 262.27298
271.0 0.00369 230.75441 262.96771
264.0 0.00379 230.73402 263.95056
270.0 0.00370 230.71327 265.18179
262.0 0.00382 230.69215 266.63541
269.0 0.00372 230.67065 268.30231
263.0 0.00380 230.64880 270.18002
292.0 0.003425 230.62656 272.28192
315.0 0.003175 230.60391 274.61908
318.0 0.003145 230.58092 277.21182
295.0 0.003390 230.55754 280.42590
304.0 0.003289 230.53375 283.62350
271.0 0.00369 230.50958 287.17755
299.0 0.003344 230.48505 291.13702
301.0 0.003322 230.46011 295.56076
283.0 0.00353 230.43477 300.59500
311.0 0.003215 230.40904 306.17557
358.0 0.002793 230.38293 312.48013
328.0 0.003049 230.35640 319.63568
311.0 0.003215 230.32951 327.79825
332.0 0.003012 230.30220 337.16177
298.0 0.003356 230.27449 347.96915
335.0 0.002985 230.24637 360.52997
371.0 0.002695 230.21785 375.24506
342.0 0.002924 230.18893 392.65332
382.0 0.002618 230.15961 413.52121
444.0 0.002252 230.12990 439.02594
466.0 0.002146 230.09976 471.12164
466.0 0.002146 230.06923 513.20850
568.0 0.001761 230.03828 571.19330
625.0 0.001600 230.00694 654.87256
781.0 0.001280 229.97519 779.19861
1021.0 0.000979 229.94301 964.68164
1257.0 0.000796 229.91045 1235.75452
1653.0 0.000605 229.87744 1616.48975
2108.0 0.000474 229.84409 2122.81104
2655.0 0.000377 229.81027 2749.54492
3239.0 0.0003087 229.77608 3450.59863
3938.0 0.0002539 229.74147 4127.19775
4572.0 0.0002187 229.70644 4667.84863
4988.0 0.0002005 229.67104 5015.41113
5061.0 0.0001976 229.63518 5137.43896
4842.0 0.0002065 229.59895 4969.80273
4342.0 0.0002303 229.56229 4488.26807
3727.0 0.0002683 229.52527 3788.13354
3038.0 0.0003292 229.48781 3028.43872
2330.0 0.000429 229.44995 2334.03149
1783.0 0.000561 229.41170 1765.33044
1280.0 0.000781 229.37303 1335.08643
1036.0 0.000965 229.33397 1029.11743
837.0 0.001195 229.29449 821.16693
687.0 0.001456 229.25465 683.16718
587.0 0.001704 229.21439 591.31366
537.0 0.001862 229.17374 528.31122
450.0 0.002222 229.13269 482.96478
466.0 0.002146 229.09125 448.61572
417.0 0.002398 229.04944 421.46793
396.0 0.002525 229.00720 399.36295
415.0 0.002410 228.96460 381.00092
323.0 0.003096 228.92160 365.54913
308.0 0.003247 228.87823 352.42526
349.0 0.002865 228.83447 341.20172
335.0 0.002985 228.79034 331.55612
317.0 0.003155 228.74583 323.24701
307.0 0.003257 228.70094 316.10187
316.0 0.003165 228.65569 310.00662
304.0 0.003289 228.61005 304.91510
268.0 0.00373 228.56404 300.84000
316.0 0.003165 228.51765 297.84332
291.0 0.003436 228.47095 296.01385
307.0 0.003257 228.42384 295.31778
272.0 0.00368 228.37639 295.78696
272.0 0.00368 228.32860 297.06488
295.0 0.003390 228.28041 298.56802
314.0 0.003185 228.23192 299.45398
312.0 0.003205 228.18306 298.83487
311.0 0.003215 228.13387 296.20694
261.0 0.00383 228.08432 291.93445
285.0 0.00351 228.03444 287.01706
293.0 0.003413 227.98424 282.39169
289.0 0.003460 227.93369 278.53104
273.0 0.00366 227.88283 275.43732
291.0 0.003436 227.83162 272.70151
296.0 0.003378 227.78011 270.01328
291.0 0.003436 227.72827 267.53757
258.0 0.00388 227.67615 265.21686
281.0 0.00356 227.62367 263.17932
292.0 0.003425 227.57092 261.60248
282.0 0.00355 227.51788 260.49146
281.0 0.00356 227.46451 259.79361
269.0 0.00372 227.41087 259.49030
245.0 0.00408 227.35692 259.51227
257.0 0.00389 227.30270 259.84064
213.0 0.00469 227.24820 260.49857
266.0 0.00376 227.19344 261.54367
258.0 0.00388 227.13838 263.07089
239.0 0.00418 227.08304 265.23560
274.0 0.00365 227.02747 268.31961
265.0 0.00377 226.97162 272.83002
293.0 0.003413 226.91553 279.65973
288.0 0.003472 226.85915 290.26791
291.0 0.003436 226.80257 306.78012
326.0 0.003067 226.74573 331.88010
357.0 0.002801 226.68864 368.30164
430.0 0.002326 226.63136 417.89304
436.0 0.002294 226.57382 480.30273
534.0 0.001873 226.51607 551.21875
633.0 0.001580 226.45808 619.99451
584.0 0.001712 226.39992 668.84161
652.0 0.001534 226.34151 680.93274
633.0 0.001580 226.28294 655.50458
596.0 0.001678 226.22415 607.39545
510.0 0.001961 226.16518 551.22815
479.0 0.002088 226.10603 494.10294
445.0 0.002247 226.04669 439.53983
402.0 0.002488 225.98718 391.19406
326.0 0.003067 225.92746 351.72382
335.0 0.002985 225.86765 321.51508
301.0 0.003322 225.80763 299.39575
312.0 0.003205 225.74747 283.66245
277.0 0.00361 225.68718 272.66837
265.0 0.00377 225.62671 264.99243
257.0 0.00389 225.56613 259.59830
226.0 0.00442 225.50542 255.74043
241.0 0.00415 225.44460 252.91852
286.0 0.003497 225.38362 250.80057
254.0 0.00394 225.32256 249.14922
259.0 0.00386 225.26137 247.76088
252.0 0.00397 225.20010 246.45076
270.0 0.00370 225.13872 245.11142
228.0 0.00439 225.07726 243.76169
235.0 0.00426 225.01572 242.48434
266.0 0.00376 224.95409 241.34731
261.0 0.00383 224.89241 240.38658
248.0 0.00403 224.83063 239.61964
230.0 0.00435 224.76883 239.05884
211.0 0.00474 224.70692 236.92075
221.0 0.00452 224.64502 236.86646
251.0 0.00398 224.58307 237.08549
216.0 0.00463 224.52106 237.59116
245.0 0.00408 224.45905 236.59647
241.0 0.00415 224.39699 236.39958
262.0 0.00382 224.33495 237.35753
235.0 0.00426 224.27286 237.94072
269.0 0.00372 224.21080 237.86362
257.0 0.00389 224.14874 237.12534
238.0 0.00420 224.08667 236.02467
200.0 0.00500 224.02464 234.90526
229.0 0.00437 223.96260 233.99455
243.0 0.00412 223.90062 233.41106
231.0 0.00433 223.83865 233.19972
228.0 0.00439 223.77675 233.35487
231.0 0.00433 223.71487 233.83421
237.0 0.00422 223.65306 235.02359
256.0 0.00391 223.59134 235.86703
240.0 0.00417 223.52965 237.63754
213.0 0.00469 223.46805 238.24687
255.0 0.00392 223.40651 238.70650
234.0 0.00427 223.34508 239.26064
228.0 0.00439 223.28372 240.20918
252.0 0.00397 223.22249 241.81671
241.0 0.00415 223.16135 244.28828
250.0 0.00400 223.10033 247.74971
247.0 0.00405 223.03943 252.24063
286.0 0.003497 222.97862 257.68518
263.0 0.00380 222.91801 263.73026
309.0 0.003236 222.85748 269.49893
282.0 0.00355 222.79713 273.58185
314.0 0.003185 222.73694 274.83621
277.0 0.00361 222.67688 273.60425
279.0 0.00358 222.61702 271.57431
290.0 0.003448 222.55730 270.61124
289.0 0.003460 222.49777 272.29416
290.0 0.003448 222.43842 278.03281
275.0 0.00364 222.37927 289.36920
316.0 0.003165 222.32031 307.89520
352.0 0.002841 222.26157 335.08139
382.0 0.002618 222.20302 371.61807
432.0 0.002315 222.14471 416.55734
484.0 0.002066 222.08662 466.68469
528.0 0.001894 222.02875 516.06763
535.0 0.001869 221.97115 554.78497
578.0 0.001730 221.91374 569.78497
546.0 0.001832 221.85661 553.36938
507.0 0.001972 221.79971 511.16101
407.0 0.002457 221.74312 457.12039
363.0 0.002755 221.68675 403.52341
347.0 0.002882 221.63069 357.28534
335.0 0.002985 221.57491 320.98264
312.0 0.003205 221.51939 294.50681
284.0 0.00352 221.46419 276.29834
260.0 0.00385 221.40927 264.27466
262.0 0.00382 221.35468 256.45950
250.0 0.00400 221.30038 251.30318
252.0 0.00397 221.24641 247.76613
247.0 0.00405 221.19278 245.23129
234.0 0.00427 221.13947 243.34567
258.0 0.00388 221.08647 241.87207
241.0 0.00415 221.03384 240.61784
248.0 0.00403 220.98157 239.45033
215.0 0.00465 220.92961 238.34464
235.0 0.00426 220.87805 237.35464
225.0 0.00444 220.82686 236.54108
234.0 0.00427 220.77603 235.94456
226.0 0.00442 220.72557 235.59247
241.0 0.00415 220.67549 235.50699
239.0 0.00418 220.62582 235.70721
245.0 0.00408 220.57652 235.86774
218.0 0.00459 220.52766 236.67548
236.0 0.00424 220.47917 237.76396
265.0 0.00377 220.43112 239.07101
261.0 0.00383 220.38345 240.40617
263.0 0.00380 220.33624 241.81944
263.0 0.00380 220.28946 243.29962
252.0 0.00397 220.24307 245.05769
249.0 0.00402 220.19719 247.25317
248.0 0.00403 220.15170 249.78029
268.0 0.00373 220.10667 252.17303
269.0 0.00372 220.06209 253.65198
251.0 0.00398 220.01802 253.57771
263.0 0.00380 219.97437 252.06282
270.0 0.00370 219.93118 249.84264
279.0 0.00358 219.88850 247.64320
261.0 0.00383 219.84627 245.94463
253.0 0.00395 219.80455 244.96027
267.0 0.00375 219.76331 244.54625
236.0 0.00424 219.72258 244.75955
235.0 0.00426 219.68233 245.51979
237.0 0.00422 219.64259 246.74641
249.0 0.00402 219.60338 248.38925
273.0 0.00366 219.56465 250.43335
240.0 0.00417 219.52646 252.89633
252.0 0.00397 219.48880 255.82121
271.0 0.00369 219.45166 259.27048
255.0 0.00392 219.41502 263.32135
267.0 0.00375 219.37897 268.06750
275.0 0.00364 219.34341 273.63464
277.0 0.00361 219.30843 280.22455
304.0 0.003289 219.27399 288.19321
306.0 0.003268 219.24010 298.17764
306.0 0.003268 219.20677 311.28580
315.0 0.003175 219.17400 329.38409
351.0 0.002849 219.14180 355.50302
370.0 0.002703 219.11015 394.29785
474.0 0.002110 219.07909 452.21719
481.0 0.002079 219.04861 537.14099
699.0 0.001431 219.01869 657.02008
802.0 0.001247 218.98936 817.28796
998.0 0.001002 218.96062 1016.85065
1173.0 0.000853 218.93248 1242.61194
1406.0 0.000711 218.90491 1464.54163
1532.0 0.000653 218.87794 1638.44995
1624.0 0.000616 218.85158 1719.84167
1615.0 0.000619 218.82584 1680.26575
1427.0 0.000701 218.80067 1526.73682
1250.0 0.000800 218.77612 1305.53748
1065.0 0.000939 218.75220 1071.15051
831.0 0.001203 218.72887 859.86444
660.0 0.001515 218.70616 687.91907
538.0 0.001859 218.68410 558.04932
459.0 0.002179 218.66263 465.62897
423.0 0.002364 218.64178 402.62161
350.0 0.002857 218.62158 360.62430
328.0 0.003049 218.60202 332.54550
345.0 0.002899 218.58305 313.22247
292.0 0.003425 218.56476 299.26007
311.0 0.003215 218.54709 288.70444
283.0 0.00353 218.53004 280.38953
259.0 0.00386 218.51364 273.67401
267.0 0.00375 218.49789 268.15961
271.0 0.00369 218.48280 263.55252
284.0 0.00352 218.46832 259.59671
271.0 0.00369 218.45453 256.07034
281.0 0.00356 218.44136 252.84134
251.0 0.00398 218.42883 249.88850
240.0 0.00417 218.41698 247.24117
248.0 0.00403 218.40578 244.91754
258.0 0.00388 218.39522 242.89209
240.0 0.00417 218.38531 241.40474
219.0 0.00457 218.37610 240.03751
255.0 0.00392 218.36751 238.75546
277.0 0.00361 218.35959 237.80350
296.0 0.003378 218.35233 237.17383
206.0 0.00485 218.34575 236.69514
218.0 0.00459 218.33980 236.27007
222.0 0.00450 218.33452 235.77444
225.0 0.00444 218.32990 235.12753
268.0 0.00373 218.32599 234.36339
222.0 0.00450 218.32268 233.58797
247.0 0.00405 218.32007 232.88553
257.0 0.00389 218.31813 232.28061
245.0 0.00408 218.31683 231.74355
237.0 0.00422 218.31621 231.22337
258.0 0.00388 218.31628 230.69067
215.0 0.00465 218.31699 230.16539
227.0 0.00441 218.31834 229.68806
219.0 0.00457 218.32039 229.28683
231.0 0.00433 218.32309 228.97943
229.0 0.00437 218.32646 228.76825
230.0 0.00435 218.33049 228.65433
246.0 0.00407 218.33519 228.63493
226.0 0.00442 218.34055 228.71494
218.0 0.00459 218.34656 228.90556
211.0 0.00474 218.35324 229.22821
209.0 0.00478 218.36058 229.71373
208.0 0.00481 218.36858 230.39981
239.0 0.00418 218.37724 231.32405
246.0 0.00407 218.38655 232.51563
234.0 0.00427 218.39651 233.98721
242.0 0.00413 218.40714 235.72746
241.0 0.00415 218.41841 237.69963
215.0 0.00465 218.43034 239.92160
222.0 0.00450 218.44292 242.61635
224.0 0.00446 218.45613 246.39320
253.0 0.00395 218.47002 252.18141
238.0 0.00420 218.48451 261.02969
271.0 0.00369 218.49968 273.87476
300.0 0.003333 218.51549 291.32336
295.0 0.003390 218.53192 313.14783
309.0 0.003236 218.54900 337.80411
349.0 0.002865 218.56670 361.78098
370.0 0.002703 218.58505 379.50339
395.0 0.002532 218.60402 385.12601
379.0 0.002639 218.62363 376.24164
314.0 0.003185 218.64384 356.11356
315.0 0.003175 218.66469 331.04974
317.0 0.003155 218.68614 306.35693
256.0 0.00391 218.70825 284.99554
252.0 0.00397 218.73093 268.07950
257.0 0.00389 218.75424 255.57448
257.0 0.00389 218.77818 246.81987
264.0 0.00379 218.80269 240.91866
230.0 0.00435 218.82782 237.00734
230.0 0.00435 218.85353 234.39658
228.0 0.00439 218.87987 232.60468
214.0 0.00467 218.90677 231.32874
227.0 0.00441 218.93427 230.38950
239.0 0.00418 218.96236 229.68681
259.0 0.00386 218.99101 229.16341
251.0 0.00398 219.02026 228.78716
216.0 0.00463 219.05009 228.54008
231.0 0.00433 219.08049 228.41457
238.0 0.00420 219.11142 228.41219
239.0 0.00418 219.14296 228.54770
239.0 0.00418 219.17503 228.85039
236.0 0.00424 219.20766 229.38330
225.0 0.00444 219.24084 230.25554
247.0 0.00405 219.27458 231.64180
211.0 0.00474 219.30887 233.79234
229.0 0.00437 219.34366 236.56693
227.0 0.00441 219.37900 241.24013
242.0 0.00413 219.41487 246.62491
263.0 0.00380 219.45128 254.74272
248.0 0.00403 219.48817 264.23801
275.0 0.00364 219.52562 274.11118
275.0 0.00364 219.56357 282.53131
274.0 0.00365 219.60199 287.15845
277.0 0.00361 219.64096 286.47559
254.0 0.00394 219.68039 280.95309
291.0 0.003436 219.72032 272.43295
261.0 0.00383 219.76074 262.91708
254.0 0.00394 219.80165 253.94255
257.0 0.00389 219.84300 246.38280
234.0 0.00427 219.88481 240.53091
195.0 0.00513 219.92715 236.30533
215.0 0.00465 219.96989 233.43358
237.0 0.00422 220.01312 231.59050
239.0 0.00418 220.05679 230.48141
226.0 0.00442 220.10091 229.88145
235.0 0.00426 220.14542 229.63991
239.0 0.00418 220.19040 229.66570
238.0 0.00420 220.23581 229.91490
225.0 0.00444 220.28160 230.35988
211.0 0.00474 220.32784 230.98216
251.0 0.00398 220.37448 231.75693
228.0 0.00439 220.42152 232.64348
231.0 0.00433 220.46895 233.58997
241.0 0.00415 220.51677 234.57680
232.0 0.00431 220.56497 235.66956
230.0 0.00435 220.61356 237.01430
262.0 0.00382 220.66251 238.80898
237.0 0.00422 220.71182 241.33575
205.0 0.00488 220.76151 244.99319
276.0 0.00362 220.81152 250.44148
278.0 0.00360 220.86192 258.66913
277.0 0.00361 220.91263 270.99356
277.0 0.00361 220.96367 288.94080
328.0 0.003049 221.01505 313.91693
391.0 0.002558 221.06671 346.66592
414.0 0.002415 221.11873 386.55673
472.0 0.002119 221.17102 430.63364
510.0 0.001961 221.22365 472.37018
534.0 0.001873 221.27652 501.22809
553.0 0.001808 221.32973 506.64334
550.0 0.001818 221.38318 486.35519
496.0 0.002016 221.43690 448.53461
432.0 0.002315 221.49091 404.46649
361.0 0.002770 221.54515 362.37411
355.0 0.002817 221.59969 326.54233
308.0 0.003247 221.65440 298.42441
277.0 0.00361 221.70940 277.74231
263.0 0.00380 221.76463 263.27774
275.0 0.00364 221.82008 253.49182
237.0 0.00422 221.87572 246.94600
249.0 0.00402 221.93158 242.51193
226.0 0.00442 221.98764 239.41064
240.0 0.00417 222.04388 237.15442
243.0 0.00412 222.10034 235.45851
243.0 0.00412 222.15697 234.16115
249.0 0.00402 222.21378 233.16240
221.0 0.00452 222.27071 232.40570
202.0 0.00495 222.32785 231.82870
249.0 0.00402 222.38510 231.36545
226.0 0.00442 222.44249 230.93492
224.0 0.00446 222.50003 230.46037
232.0 0.00431 222.55771 229.91513
209.0 0.00478 222.61551 229.33424
230.0 0.00435 222.67339 228.77237
226.0 0.00442 222.73141 228.30734
223.0 0.00448 222.78952 227.83594
206.0 0.00485 222.84769 227.64171
235.0 0.00426 222.90599 227.37494
201.0 0.00498 222.96431 227.17458
236.0 0.00424 223.02274 227.03105
221.0 0.00452 223.08121 226.93912
228.0 0.00439 223.13974 226.89906
199.0 0.00503 223.19829 226.91835
258.0 0.00388 223.25691 227.01387
214.0 0.00467 223.31555 227.21164
287.0 0.003484 223.37418 227.54413
231.0 0.00433 223.43285 228.04376
206.0 0.00485 223.49153 228.73172
222.0 0.00450 223.55020 229.60217
232.0 0.00431 223.60886 230.60289
233.0 0.00429 223.66750 231.60725
216.0 0.00463 223.72610 232.39543
226.0 0.00442 223.78471 232.71313
232.0 0.00431 223.84323 232.44536
231.0 0.00433 223.90173 231.71327
253.0 0.00395 223.96019 230.75302
238.0 0.00420 224.01854 229.77167
245.0 0.00408 224.07686 228.90190
251.0 0.00398 224.13509 228.20764
245.0 0.00408 224.19324 227.70403
242.0 0.00413 224.25127 227.37639
214.0 0.00467 224.30920 227.19612
212.0 0.00472 224.36705 227.13116
245.0 0.00408 224.42474 227.15164
195.0 0.00513 224.48236 227.23096
220.0 0.00455 224.53981 227.34335
241.0 0.00415 224.59714 227.46432
231.0 0.00433 224.65428 227.58206
211.0 0.00474 224.71133 227.70399
226.0 0.00442 224.76817 227.85933
215.0 0.00465 224.82483 227.98718
199.0 0.00503 224.88136 228.17569
234.0 0.00427 224.93767 228.31175
227.0 0.00441 224.99380 228.36072
227.0 0.00441 225.04973 228.28508
238.0 0.00420 225.10547 228.11810
235.0 0.00426 225.16095 227.91818
229.0 0.00437 225.21625 227.73094
211.0 0.00474 225.27130 227.58086
249.0 0.00402 225.32611 227.47682
253.0 0.00395 225.38068 227.41815
214.0 0.00467 225.43501 227.39885
239.0 0.00418 225.48907 227.41081
228.0 0.00439 225.54285 227.44583
233.0 0.00429 225.59639 227.49765
237.0 0.00422 225.64964 227.56177
236.0 0.00424 225.70258 227.63527
196.0 0.00510 225.75525 227.71660
213.0 0.00469 225.80762 227.80513
243.0 0.00412 225.85966 227.90088
217.0 0.00461 225.91139 228.00371
213.0 0.00469 225.96281 228.11432
231.0 0.00433 226.01390 228.23367
256.0 0.00391 226.06467 228.36258
199.0 0.00503 226.11505 228.50261
211.0 0.00474 226.16512 228.65564
226.0 0.00442 226.21481 228.82443
229.0 0.00437 226.26414 229.01288
235.0 0.00426 226.31314 229.22736
208.0 0.00481 226.36171 229.47821
228.0 0.00439 226.40993 229.78313
221.0 0.00452 226.45775 230.17101
211.0 0.00474 226.50517 230.68677
219.0 0.00457 226.55220 232.46532
232.0 0.00431 226.59880 233.46431
237.0 0.00422 226.64502 234.82343
231.0 0.00433 226.69078 236.61514
261.0 0.00383 226.73615 240.70030
239.0 0.00418 226.78107 243.38141
244.0 0.00410 226.82556 246.25778
271.0 0.00369 226.86958 248.90898
234.0 0.00427 226.91316 250.73549
270.0 0.00370 226.95630 251.23689
257.0 0.00389 226.99896 250.40556
266.0 0.00376 227.04117 248.71017
235.0 0.00426 227.08289 246.71706
215.0 0.00465 227.12413 244.84116
238.0 0.00420 227.16487 243.33809
235.0 0.00426 227.20515 242.35107
228.0 0.00439 227.24493 241.92804
238.0 0.00420 227.28419 242.03618
245.0 0.00408 227.32295 242.57950
252.0 0.00397 227.36122 243.41344
252.0 0.00397 227.39896 244.18530
267.0 0.00375 227.43614 245.16402
240.0 0.00417 227.47285 246.11510
243.0 0.00412 227.50900 246.94931
250.0 0.00400 227.54462 247.56375
266.0 0.00376 227.57970 247.87694
270.0 0.00370 227.61421 247.90001
249.0 0.00402 227.64818 247.77853
237.0 0.00422 227.68159 247.72264
244.0 0.00410 227.71446 247.90492
254.0 0.00394 227.74675 248.43271
259.0 0.00386 227.77847 249.37047
264.0 0.00379 227.80963 250.76987
265.0 0.00377 227.84019 252.69958
226.0 0.00442 227.87018 255.28391
289.0 0.003460 227.89960 258.74759
300.0 0.003333 227.92841 263.49533
286.0 0.003497 227.95662 270.19379
260.0 0.00385 227.98424 279.85968
286.0 0.003497 228.01126 293.88275
321.0 0.003115 228.03769 313.97186
364.0 0.002747 228.06349 341.88153
410.0 0.002439 228.08868 378.93320
489.0 0.002045 228.11327 425.28366
523.0 0.001912 228.13722 478.98593
583.0 0.001715 228.16057 534.97363
654.0 0.001529 228.18329 584.47290
695.0 0.001439 228.20538 615.77576
659.0 0.001517 228.22682 618.30212
647.0 0.001546 228.24767 590.23486
572.0 0.001748 228.26785 541.07520
487.0 0.002053 228.28738 484.22095
431.0 0.002320 228.30630 429.70868
359.0 0.002786 228.32457 382.86792
376.0 0.002660 228.34219 345.61612
327.0 0.003058 228.35916 317.76245
314.0 0.003185 228.37549 297.94791
312.0 0.003205 228.39116 284.35178
297.0 0.003367 228.40616 275.19357
262.0 0.00382 228.42053 269.01321
244.0 0.00410 228.43423 264.75674
291.0 0.003436 228.44727 261.73569
260.0 0.00385 228.45966 259.52155
257.0 0.00389 228.47137 257.86169
257.0 0.00389 228.48242 256.61795
245.0 0.00408 228.49280 255.69519
252.0 0.00397 228.50253 255.03665
243.0 0.00412 228.51158 254.60353
263.0 0.00380 228.51996 254.37082
269.0 0.00372 228.52769 254.32474
252.0 0.00397 228.53474 254.46284
252.0 0.00397 228.54111 254.79453
270.0 0.00370 228.54683 255.48508
254.0 0.00394 228.55186 256.28180
231.0 0.00433 228.55623 257.36169
264.0 0.00379 228.55991 258.75653
257.0 0.00389 228.56294 260.78329
255.0 0.00392 228.56529 262.79016
250.0 0.00400 228.56696 264.98727
264.0 0.00379 228.56796 267.18097
298.0 0.003356 228.56831 269.07880
271.0 0.00369 228.56798 270.44589
259.0 0.00386 228.56697 271.29407
289.0 0.003460 228.56531 271.88147
268.0 0.00373 228.56296 272.51895
297.0 0.003367 228.55994 273.40759
290.0 0.003448 228.55627 274.68515
268.0 0.00373 228.55193 276.41937
285.0 0.00351 228.54692 278.64047
285.0 0.00351 228.54124 281.35962
283.0 0.00353 228.53494 284.58566
270.0 0.00370 228.52794 288.33719
276.0 0.00362 228.52029 292.65070
288.0 0.003472 228.51199 297.58438
280.0 0.00357 228.50304 303.22040
309.0 0.003236 228.49344 309.66672
346.0 0.002890 228.48318 317.06110
316.0 0.003165 228.47227 325.57874
312.0 0.003205 228.46072 335.44910
316.0 0.003165 228.44852 346.98444
328.0 0.003049 228.43571 360.62564
329.0 0.003040 228.42224 377.03143
391.0 0.002558 228.40813 397.24207
413.0 0.002421 228.39340 422.94846
449.0 0.002227 228.37804 456.88443
520.0 0.001923 228.36205 503.32968
554.0 0.001805 228.34543 568.62659
682.0 0.001466 228.32822 661.50024
794.0 0.001259 228.31036 792.87677
967.0 0.001034 228.29192 974.87610
1231.0 0.000812 228.27287 1218.67444
1487.0 0.000672 228.25320 1530.87158
1878.0 0.000532 228.23294 1907.73462
2321.0 0.000431 228.21210 2327.13770
2698.0 0.000371 228.19064 2742.92139
3261.0 0.0003067 228.16861 3094.57422
3469.0 0.0002883 228.14598 3331.62646
3562.0 0.0002807 228.12280 3418.93701
3442.0 0.0002905 228.09904 3325.42529
3135.0 0.0003190 228.07471 3048.06299
2660.0 0.000376 228.04982 2641.90332
2175.0 0.000460 228.02437 2191.99902
1772.0 0.000564 227.99837 1766.37158
1342.0 0.000745 227.97182 1401.43640
1108.0 0.000903 227.94473 1109.45068
875.0 0.001143 227.91710 888.06799
726.0 0.001377 227.88896 727.18988
606.0 0.001650 227.86026 613.70142
518.0 0.001931 227.83107 534.71497
466.0 0.002146 227.80135 479.42700
479.0 0.002088 227.77115 439.77887
415.0 0.002410 227.74042 410.27951
357.0 0.002801 227.70920 387.43268
375.0 0.002667 227.67752 369.10251
357.0 0.002801 227.64532 353.99472
366.0 0.002732 227.61267 341.31549
341.0 0.002933 227.57954 330.52988
335.0 0.002985 227.54597 321.27502
330.0 0.003030 227.51193 313.28711
303.0 0.003300 227.47745 306.35883
315.0 0.003175 227.44252 300.34277
314.0 0.003185 227.40720 295.11826
290.0 0.003448 227.37141 290.59253
275.0 0.00364 227.33522 286.69678
290.0 0.003448 227.29863 283.37341
307.0 0.003257 227.26161 280.62399
267.0 0.00375 227.22423 278.27176
290.0 0.003448 227.18645 276.28784
272.0 0.00368 227.14830 274.61984
264.0 0.00379 227.10977 273.02844
283.0 0.00353 227.07089 271.50949
251.0 0.00398 227.03166 269.98849
246.0 0.00407 226.99207 268.35846
257.0 0.00389 226.95216 266.54123
288.0 0.003472 226.91193 264.57941
252.0 0.00397 226.87137 262.61374
250.0 0.00400 226.83049 260.78149
248.0 0.00403 226.78934 259.16501
247.0 0.00405 226.74789 257.79742
270.0 0.00370 226.70615 256.68719
263.0 0.00380 226.66415 255.76651
251.0 0.00398 226.62187 255.10202
265.0 0.00377 226.57936 254.36090
249.0 0.00402 226.53658 254.07224
233.0 0.00429 226.49359 253.95256
247.0 0.00405 226.45036 254.00436
253.0 0.00395 226.40694 254.23856
259.0 0.00386 226.36331 254.67596
249.0 0.00402 226.31947 255.34616
259.0 0.00386 226.27545 256.28674
255.0 0.00392 226.23126 257.54196
259.0 0.00386 226.18692 259.16324
265.0 0.00377 226.14241 261.21240
261.0 0.00383 226.09776 263.77081
272.0 0.00368 226.05301 266.95673
248.0 0.00403 226.00812 270.96954
276.0 0.00362 225.96310 276.18616
274.0 0.00365 225.91800 283.27719
284.0 0.00352 225.87282 293.24442
299.0 0.003344 225.82755 307.36380
312.0 0.003205 225.78221 327.02957
353.0 0.002833 225.73682 353.67892
362.0 0.002762 225.69139 388.40738
382.0 0.002618 225.64594 431.62335
483.0 0.002070 225.60045 482.20459
542.0 0.001845 225.55495 536.41333
507.0 0.001972 225.50945 588.79852
656.0 0.001524 225.46397 634.52917
638.0 0.001567 225.41852 671.11230
694.0 0.001441 225.37309 695.26093
668.0 0.001497 225.32773 699.80743
649.0 0.001541 225.28242 677.94232
605.0 0.001653 225.23720 631.39221
558.0 0.001792 225.19202 570.71082
485.0 0.002062 225.14697 507.68008
433.0 0.002309 225.10202 450.16351
418.0 0.002392 225.05721 401.89578
378.0 0.002646 225.01248 363.67807
318.0 0.003145 224.96796 334.53162
296.0 0.003378 224.92355 312.65067
304.0 0.003289 224.87932 296.22491
305.0 0.003279 224.83530 283.83084
281.0 0.00356 224.79143 274.40588
263.0 0.00380 224.74779 267.15103
248.0 0.00403 224.70435 261.48343
279.0 0.00358 224.66116 256.99411
254.0 0.00394 224.61819 253.39616
242.0 0.00413 224.57550 250.48103
255.0 0.00392 224.53310 248.09581
286.0 0.003497 224.49094 246.11011
229.0 0.00437 224.44908 244.44078
239.0 0.00418 224.40753 243.01147
264.0 0.00379 224.36630 241.77650
244.0 0.00410 224.32539 240.84171
245.0 0.00408 224.28487 239.90363
252.0 0.00397 224.24466 239.08316
233.0 0.00429 224.20483 238.36967
229.0 0.00437 224.16539 237.75565
249.0 0.00402 224.12634 237.23595
228.0 0.00439 224.08771 236.80571
234.0 0.00427 224.04948 236.53093
261.0 0.00383 224.01170 236.25446
207.0 0.00483 223.97437 236.02734
228.0 0.00439 223.93748 235.81631
250.0 0.00400 223.90106 235.57816
238.0 0.00420 223.86516 235.28001
233.0 0.00429 223.82973 234.92314
243.0 0.00412 223.79482 234.54053
235.0 0.00426 223.76044 234.17003
249.0 0.00402 223.72656 232.75555
223.0 0.00448 223.69327 232.49556
224.0 0.00446 223.66051 232.29070
259.0 0.00386 223.62836 230.30673
238.0 0.00420 223.59677 230.24524
236.0 0.00424 223.56578 230.23439
230.0 0.00435 223.53543 230.27016
234.0 0.00427 223.50568 230.35719
243.0 0.00412 223.47656 230.49721
233.0 0.00429 223.44810 230.69804
227.0 0.00441 223.42032 230.97310
243.0 0.00412 223.39317 231.34152
256.0 0.00391 223.36674 231.82805
238.0 0.00420 223.34102 232.46204
240.0 0.00417 223.31599 233.27403
244.0 0.00410 223.29169 234.29222
253.0 0.00395 223.26814 235.53760
262.0 0.00382 223.24532 237.01991
231.0 0.00433 223.22327 238.73283
242.0 0.00413 223.20200 240.65761
247.0 0.00405 223.18149 242.80600
237.0 0.00422 223.16179 245.32906
244.0 0.00410 223.14293 248.60983
234.0 0.00427 223.12485 253.22159
275.0 0.00364 223.10760 259.79755
301.0 0.003322 223.09122 268.90869
308.0 0.003247 223.07570 280.94543
301.0 0.003322 223.06102 295.96808
307.0 0.003257 223.04723 313.47720
330.0 0.003030 223.03435 332.08008
363.0 0.002755 223.02234 349.27853
386.0 0.002591 223.01126 361.92020
366.0 0.002732 223.00108 367.34543
341.0 0.002933 222.99187 364.24387
354.0 0.002825 222.98358 353.09094
335.0 0.002985 222.97626 336.35132
287.0 0.003484 222.96989 317.49484
302.0 0.003311 222.96452 299.42578
261.0 0.00383 222.96013 283.83798
254.0 0.00394 222.95674 271.41812
267.0 0.00375 222.95438 262.17749
246.0 0.00407 222.95302 255.73752
233.0 0.00429 222.95267 251.50812
268.0 0.00373 222.95338 248.80583
253.0 0.00395 222.95514 246.94211
263.0 0.00380 222.95795 245.35152
252.0 0.00397 222.96184 243.74397
234.0 0.00427 222.96680 242.11951
234.0 0.00427 222.97284 240.60968
211.0 0.00474 222.97998 239.33640
219.0 0.00457 222.98825 238.37248
233.0 0.00429 222.99760 237.75259
263.0 0.00380 223.00809 237.49454
250.0 0.00400 223.01971 237.60365
255.0 0.00392 223.03246 238.10995
251.0 0.00398 223.04637 239.07649
226.0 0.00442 223.06143 240.62392
235.0 0.00426 223.07765 242.96616
243.0 0.00412 223.09506 246.36852
234.0 0.00427 223.11363 251.29538
266.0 0.00376 223.13341 258.08533
265.0 0.00377 223.15437 267.27237
280.0 0.00357 223.17653 279.18103
269.0 0.00372 223.19991 293.99255
284.0 0.00352 223.22449 311.00809
293.0 0.003413 223.25029 329.13406
317.0 0.003155 223.27734 346.58264
324.0 0.003086 223.30562 360.81485
343.0 0.002915 223.33514 368.77609
347.0 0.002882 223.36589 367.92422
367.0 0.002725 223.39793 358.01575
297.0 0.003367 223.43120 341.56757
306.0 0.003268 223.46573 322.73016
292.0 0.003425 223.50156 304.46841
294.0 0.003401 223.53864 288.57498
256.0 0.00391 223.57700 275.78864
286.0 0.003497 223.61662 265.87982
280.0 0.00357 223.65759 259.08218
264.0 0.00379 223.69980 254.49811
239.0 0.00418 223.74332 251.45824
242.0 0.00413 223.78815 249.35381
269.0 0.00372 223.83426 247.79765
229.0 0.00437 223.88170 246.67274
256.0 0.00391 223.93044 245.95709
272.0 0.00368 223.98050 245.73495
238.0 0.00420 224.03186 246.13028
253.0 0.00395 224.08456 247.28127
274.0 0.00365 224.13857 249.40388
254.0 0.00394 224.19386 252.80780
265.0 0.00377 224.25053 257.90933
247.0 0.00405 224.30850 265.21716
280.0 0.00357 224.36781 275.26907
289.0 0.003460 224.42844 288.50549
286.0 0.003497 224.49040 305.12073
339.0 0.002950 224.55368 324.90985
344.0 0.002907 224.61832 347.08710
339.0 0.002950 224.68423 369.93439
380.0 0.002632 224.75150 390.39233
393.0 0.002545 224.82011 404.36328
391.0 0.002558 224.89003 408.80600
404.0 0.002475 224.96129 404.29230
412.0 0.002427 225.03386 394.58051
417.0 0.002398 225.10779 383.59329
414.0 0.002415 225.18300 373.27863
467.0 0.002141 225.25954 363.31110
414.0 0.002415 225.33742 352.02258
396.0 0.002525 225.41658 338.20129
375.0 0.002667 225.49710 322.38104
350.0 0.002857 225.57889 306.25995
324.0 0.003086 225.66202 291.38382
327.0 0.003058 225.74643 278.60147
300.0 0.003333 225.83215 268.18823
253.0 0.00395 225.91914 260.06024
261.0 0.00383 226.00742 253.92767
275.0 0.00364 226.09703 249.38992
252.0 0.00397 226.18788 246.02171
256.0 0.00391 226.28004 243.46043
230.0 0.00435 226.37346 241.45430
227.0 0.00441 226.46815 239.85117
223.0 0.00448 226.56409 238.56822
240.0 0.00417 226.66129 237.51051
240.0 0.00417 226.75972 236.64833
244.0 0.00410 226.85939 235.94748
258.0 0.00388 226.96033 235.38039
209.0 0.00478 227.06245 234.92407
237.0 0.00422 227.16585 234.55907
221.0 0.00452 227.27039 234.26878
238.0 0.00420 227.37617 234.04021
238.0 0.00420 227.48314 233.86301
238.0 0.00420 227.59126 233.72916
240.0 0.00417 227.70062 233.63316
254.0 0.00394 227.81110 233.57039
252.0 0.00397 227.92278 233.53754
217.0 0.00461 228.03555 233.53195
244.0 0.00410 228.14954 233.54758
224.0 0.00446 228.26457 233.59125
250.0 0.00400 228.38078 233.66023
247.0 0.00405 228.49803 233.74847
254.0 0.00394 228.61641 233.85809
229.0 0.00437 228.73590 233.98914
206.0 0.00485 228.85641 234.14166
212.0 0.00472 228.97806 234.31592
236.0 0.00424 229.10066 234.51321
239.0 0.00418 229.22437 234.73434
236.0 0.00424 229.34906 234.98138
249.0 0.00402 229.47479 235.19931
228.0 0.00439 229.60147 235.50502
237.0 0.00422 229.72914 235.83824
254.0 0.00394 229.85782 236.14287
232.0 0.00431 229.98740 236.55835
217.0 0.00461 230.11797 237.01764
238.0 0.00420 230.24942 237.52507
230.0 0.00435 230.38182 238.08665
247.0 0.00405 230.51506 238.71135
223.0 0.00448 230.64920 239.41338
256.0 0.00391 230.78424 240.21310
234.0 0.00427 230.92007 241.13754
221.0 0.00452 231.05679 242.22267
271.0 0.00369 231.19427 243.51564
251.0 0.00398 231.33261 245.07462
222.0 0.00450 231.47166 247.00131
231.0 0.00433 231.61154 249.41063
275.0 0.00364 231.75211 252.46875
263.0 0.00380 231.89340 256.39645
274.0 0.00365 232.03546 261.47421
309.0 0.003236 232.17815 268.04120
240.0 0.00417 232.32156 276.50150
314.0 0.003185 232.46558 287.34106
329.0 0.003040 232.61029 301.08975
315.0 0.003175 232.75557 318.16092
344.0 0.002907 232.90147 338.60428
372.0 0.002688 233.04793 361.90265
373.0 0.002681 233.19492 386.88858
431.0 0.002320 233.34250 411.80301
419.0 0.002387 233.49055 434.66061
452.0 0.002212 233.63916 453.67557
468.0 0.002137 233.78816 466.81927
464.0 0.002155 233.93768 471.05530
439.0 0.002278 234.08760 463.36710
447.0 0.002237 234.23790 443.66086
463.0 0.002160 234.38867 415.79053
383.0 0.002611 234.53975 385.03995
330.0 0.003030 234.69122 355.60037
315.0 0.003175 234.84296 329.73505
347.0 0.002882 234.99504 308.53760
282.0 0.00355 235.14737 291.95551
259.0 0.00386 235.30000 280.53763
262.0 0.00382 235.45280 271.52750
248.0 0.00403 235.60583 265.14853
276.0 0.00362 235.75908 260.68701
266.0 0.00376 235.91245 258.37064
263.0 0.00380 236.06601 256.17377
247.0 0.00405 236.21964 254.59592
281.0 0.00356 236.37341 254.77974
228.0 0.00439 236.52719 253.97084
250.0 0.00400 236.68108 253.44456
230.0 0.00435 236.83492 253.19586
242.0 0.00413 236.98877 253.25697
282.0 0.00355 237.14264 253.68524
224.0 0.00446 237.29639 254.55765
249.0 0.00402 237.45013 255.96101
263.0 0.00380 237.60370 257.97552
241.0 0.00415 237.75722 260.65201
263.0 0.00380 237.91051 263.98105
230.0 0.00435 238.06361 267.85287
257.0 0.00389 238.21660 272.00201
262.0 0.00382 238.36928 275.96643
269.0 0.00372 238.52177 279.15854
267.0 0.00375 238.67392 281.15674
278.0 0.00360 238.82582 282.05649
283.0 0.00353 238.97733 282.36230
255.0 0.00392 239.12854 282.57315
251.0 0.00398 239.27931 282.79916
259.0 0.00386 239.42967 282.56192
255.0 0.00392 239.57967 281.54776
238.0 0.00420 239.72914 279.23016
268.0 0.00373 239.87819 275.79428
265.0 0.00377 240.02666 271.84067
268.0 0.00373 240.17464 267.96964
294.0 0.003401 240.32202 264.49255
263.0 0.00380 240.46884 261.73151
274.0 0.00365 240.61502 259.63889
271.0 0.00369 240.76054 258.14523
257.0 0.00389 240.90546 257.13083
233.0 0.00429 241.04962 256.47507
236.0 0.00424 241.19312 256.08752
258.0 0.00388 241.33583 255.91006
237.0 0.00422 241.47781 255.83415
266.0 0.00376 241.61894 255.77867
210.0 0.00476 241.75926 255.64720
269.0 0.00372 241.89877 255.41634
255.0 0.00392 242.03735 255.12335
262.0 0.00382 242.17511 254.83551
248.0 0.00403 242.31187 254.60849
266.0 0.00376 242.44774 254.47484
242.0 0.00413 242.58260 254.45123
257.0 0.00389 242.71649 254.54208
223.0 0.00448 242.84930 254.75159
267.0 0.00375 242.98106 255.08582
248.0 0.00403 243.11183 255.55893
266.0 0.00376 243.24142 256.19748
257.0 0.00389 243.36993 257.04440
269.0 0.00372 243.49727 258.15750
295.0 0.003390 243.62347 259.60693
277.0 0.00361 243.74843 261.46445
295.0 0.003390 243.87221 263.78503
293.0 0.003413 243.99471 266.57877
300.0 0.003333 244.11592 269.77472
308.0 0.003247 244.23592 273.17621
305.0 0.003279 244.35454 276.40756
295.0 0.003390 244.47186 278.90778
339.0 0.002950 244.58778 280.09039
346.0 0.002890 244.70238 279.69031
323.0 0.003096 244.81552 277.96579
309.0 0.003236 244.92722 275.51318
300.0 0.003333 245.03752 272.90308
284.0 0.00352 245.14633 270.51755
283.0 0.00353 245.25366 268.56061
249.0 0.00402 245.35944 267.11380
278.0 0.00360 245.46375 266.18188
260.0 0.00385 245.56645 265.73917
252.0 0.00397 245.66760 265.69305
259.0 0.00386 245.76715 265.98969
254.0 0.00394 245.86505 266.56339
266.0 0.00376 245.96138 267.35184
288.0 0.003472 246.05600 268.37558
266.0 0.00376 246.14900 269.38431
278.0 0.00360 246.24026 271.14102
290.0 0.003448 246.32986 272.01486
290.0 0.003448 246.41771 272.73712
260.0 0.00385 246.50383 273.34311
260.0 0.00385 246.58815 273.90784
245.0 0.00408 246.67070 274.48965
271.0 0.00369 246.75150 275.09604
293.0 0.003413 246.83043 275.73706
262.0 0.00382 246.90758 276.43341
289.0 0.003460 246.98286 277.21793
263.0 0.00380 247.05632 278.12112
270.0 0.00370 247.12787 279.16208
297.0 0.003367 247.19754 280.35007
283.0 0.00353 247.26534 281.68628
292.0 0.003425 247.33118 283.17960
304.0 0.003289 247.39514 284.83029
311.0 0.003215 247.45714 286.64279
312.0 0.003205 247.51721 288.62662
281.0 0.00356 247.57529 290.77536
316.0 0.003165 247.63142 293.13434
304.0 0.003289 247.68555 295.70367
288.0 0.003472 247.73767 298.45847
290.0 0.003448 247.78783 301.53799
293.0 0.003413 247.83595 304.90555
286.0 0.003497 247.88206 308.62625
288.0 0.003472 247.92613 312.55667
290.0 0.003448 247.96819 317.10889
298.0 0.003356 248.00816 322.16632
315.0 0.003175 248.04611 327.80435
326.0 0.003067 248.08199 334.11224
345.0 0.002899 248.11580 341.19809
356.0 0.002809 248.14754 349.19580
365.0 0.002740 248.17722 358.28134
326.0 0.003067 248.20480 368.69406
357.0 0.002801 248.23030 380.76105
402.0 0.002488 248.25374 394.92899
389.0 0.002571 248.27507 411.82523
454.0 0.002203 248.29430 432.36002
435.0 0.002299 248.31143 457.87701
503.0 0.001988 248.32649 490.34232
541.0 0.001848 248.33945 532.53027
636.0 0.001572 248.35031 588.18842
707.0 0.001414 248.35905 662.10968
822.0 0.001217 248.36574 760.06555
875.0 0.001143 248.37032 888.42188
1027.0 0.000974 248.37279 1053.27954
1219.0 0.000820 248.37318 1259.16406
1460.0 0.000685 248.37151 1507.10889
1662.0 0.000602 248.36774 1791.69055
1981.0 0.000505 248.36188 2097.39380
2299.0 0.000435 248.35397 2398.28491
2591.0 0.000386 248.34399 2667.71265
2990.0 0.0003344 248.33194 2894.11743
3167.0 0.0003158 248.31786 3082.22754
3327.0 0.0003006 248.30171 3233.75806
3478.0 0.0002875 248.28352 3331.51294
3462.0 0.0002889 248.26332 3344.26245
3384.0 0.0002955 248.24109 3244.21606
2988.0 0.0003347 248.21684 3023.87085
2753.0 0.000363 248.19060 2706.30908
2273.0 0.000440 248.16237 2338.32349
1966.0 0.000509 248.13216 1968.15906
1583.0 0.000632 248.09999 1629.37292
1323.0 0.000756 248.06586 1338.97693
1053.0 0.000950 248.02980 1101.98633
909.0 0.001100 247.99178 916.05981
765.0 0.001307 247.95189 774.74591
622.0 0.001608 247.91006 669.80463
601.0 0.001664 247.86638 592.86035
540.0 0.001852 247.82080 536.46918
514.0 0.001946 247.77342 494.63330
488.0 0.002049 247.72418 462.89053
458.0 0.002183 247.67313 438.10016
401.0 0.002494 247.62029 418.21414
382.0 0.002618 247.56564 401.85681
391.0 0.002558 247.50926 388.14288
399.0 0.002506 247.45114 376.47577
389.0 0.002571 247.39133 366.42947
359.0 0.002786 247.32977 357.68976
355.0 0.002817 247.26657 350.02106
328.0 0.003049 247.20174 343.34125
338.0 0.002959 247.13525 337.58597
343.0 0.002915 247.06717 332.74738
326.0 0.003067 246.99748 328.82669
327.0 0.003058 246.92628 325.81662
334.0 0.002994 246.85353 323.68826
327.0 0.003058 246.77928 322.36301
359.0 0.002786 246.70357 321.69376
335.0 0.002985 246.62636 321.41611
347.0 0.002882 246.54778 321.12427
289.0 0.003460 246.46776 320.31747
338.0 0.002959 246.38640 318.60153
314.0 0.003185 246.30367 315.90518
307.0 0.003257 246.21968 312.48166
297.0 0.003367 246.13437 308.72589
327.0 0.003058 246.04784 305.01828
292.0 0.003425 245.96008 301.62836
294.0 0.003401 245.87112 298.70551
293.0 0.003413 245.78102 296.29385
284.0 0.00352 245.68977 294.36639
303.0 0.003300 245.59747 292.86469
326.0 0.003067 245.50407 291.73526
324.0 0.003086 245.40968 290.94543
288.0 0.003472 245.31427 290.47769
299.0 0.003344 245.21796 290.32214
322.0 0.003106 245.12070 290.47610
308.0 0.003247 245.02252 290.94803
309.0 0.003236 244.92355 291.74646
286.0 0.003497 244.82372 292.90021
308.0 0.003247 244.72313 294.44519
306.0 0.003268 244.62177 296.42709
304.0 0.003289 244.51976 298.90405
302.0 0.003311 244.41707 301.94958
313.0 0.003195 244.31371 305.66034
296.0 0.003378 244.20982 310.15182
310.0 0.003226 244.10532 315.59851
319.0 0.003135 244.00034 322.25159
310.0 0.003226 243.89487 330.58267
332.0 0.003012 243.78899 341.30270
346.0 0.002890 243.68266 355.51508
357.0 0.002801 243.57603 374.75641
363.0 0.002755 243.46909 401.02167
399.0 0.002506 243.36182 436.72125
444.0 0.002252 243.25435 484.49185
518.0 0.001931 243.14665 546.83582
619.0 0.001616 243.03885 625.64178
715.0 0.001399 242.93088 721.59418
857.0 0.001167 242.82289 833.24292
964.0 0.001037 242.71481 955.53345
1088.0 0.000919 242.60680 1078.12402
1269.0 0.000788 242.49884 1184.44580
1325.0 0.000755 242.39093 1253.33325
1213.0 0.000824 242.28319 1266.01880
1219.0 0.000820 242.17558 1217.29651
1062.0 0.000942 242.06825 1120.14880
868.0 0.001152 241.96112 997.15002
822.0 0.001217 241.85434 868.77258
741.0 0.001350 241.74792 748.49268
613.0 0.001631 241.64183 643.46289
555.0 0.001802 241.53621 556.48059
477.0 0.002096 241.43102 487.50110
419.0 0.002387 241.32640 434.71481
377.0 0.002653 241.22227 395.40030
352.0 0.002841 241.11879 366.60486
317.0 0.003155 241.01591 345.60892
314.0 0.003185 240.91374 330.17117
311.0 0.003215 240.81229 318.58771
311.0 0.003215 240.71156 309.98297
313.0 0.003195 240.61168 302.82791
307.0 0.003257 240.51260 296.89301
276.0 0.00362 240.41444 292.21332
286.0 0.003497 240.31720 287.77255
285.0 0.00351 240.22093 283.84940
281.0 0.00356 240.12564 280.37396
275.0 0.00364 240.03145 277.29434
269.0 0.00372 239.93831 274.56546
264.0 0.00379 239.84628 272.14606
260.0 0.00385 239.75545 269.99918
268.0 0.00373 239.66579 268.09131
275.0 0.00364 239.57739 266.39362
280.0 0.00357 239.49025 264.88153
293.0 0.003413 239.40446 263.53534
284.0 0.00352 239.32002 262.34006
256.0 0.00391 239.23694 261.28354
261.0 0.00383 239.15532 260.35883
258.0 0.00388 239.07513 259.55615
274.0 0.00365 238.99646 258.86697
264.0 0.00379 238.91931 258.27884
253.0 0.00395 238.84377 257.77286
279.0 0.00358 238.76979 257.31937
264.0 0.00379 238.69746 256.87784
285.0 0.00351 238.62683 256.40521
237.0 0.00422 238.55786 255.87776
259.0 0.00386 238.49065 255.30884
240.0 0.00417 238.42519 254.73346
269.0 0.00372 238.36156 254.21579
254.0 0.00394 238.29971 253.79625
262.0 0.00382 238.23975 253.50110
245.0 0.00408 238.18166 253.36896
246.0 0.00407 238.12549 253.43433
231.0 0.00433 238.07126 253.73135
262.0 0.00382 238.01900 254.28769
250.0 0.00400 237.96873 255.11670
266.0 0.00376 237.92047 255.19226
271.0 0.00369 237.87430 256.50696
275.0 0.00364 237.83015 257.92236
260.0 0.00385 237.78810 259.24496
257.0 0.00389 237.74818 259.41537
266.0 0.00376 237.71039 259.86261
223.0 0.00448 237.67474 258.40344
276.0 0.00362 237.64128 257.89780
289.0 0.003460 237.61003 257.23441
266.0 0.00376 237.58096 256.58005
301.0 0.003322 237.55415 255.96904
275.0 0.00364 237.52957 255.31584
263.0 0.00380 237.50728 254.48471
277.0 0.00361 237.48723 253.39880
241.0 0.00415 237.46950 252.10638
244.0 0.00410 237.45407 250.73694
253.0 0.00395 237.44093 249.41815
255.0 0.00392 237.43015 248.23410
267.0 0.00375 237.42169 247.22693
258.0 0.00388 237.41559 246.41026
227.0 0.00441 237.41182 245.77968
223.0 0.00448 237.41043 245.31984
252.0 0.00397 237.41141 245.00975
263.0 0.00380 237.41476 244.82614
264.0 0.00379 237.42047 244.74666
213.0 0.00469 237.42859 244.74977
226.0 0.00442 237.43906 244.81580
247.0 0.00405 237.45192 244.92754
234.0 0.00427 237.46716 245.07709
225.0 0.00444 237.48480 245.25392
276.0 0.00362 237.50481 245.44600
250.0 0.00400 237.52719 245.63489
247.0 0.00405 237.55196 245.79372
241.0 0.00415 237.57906 245.88831
235.0 0.00426 237.60855 245.89316
255.0 0.00392 237.64038 245.80661
274.0 0.00365 237.67455 245.66153
276.0 0.00362 237.71104 245.50096
259.0 0.00386 237.74988 245.36206
213.0 0.00469 237.79102 245.25122
252.0 0.00397 237.83443 245.22234
253.0 0.00395 237.88014 245.24193
248.0 0.00403 237.92813 245.33401
259.0 0.00386 237.97836 245.49168
257.0 0.00389 238.03081 245.80765
230.0 0.00435 238.08549 246.12132
246.0 0.00407 238.14235 246.52330
262.0 0.00382 238.20139 247.02606
239.0 0.00418 238.26259 247.63960
243.0 0.00412 238.32590 248.37373
259.0 0.00386 238.39133 249.22839
229.0 0.00437 238.45882 250.19225
250.0 0.00400 238.52838 251.23341
256.0 0.00391 238.59995 252.29224
239.0 0.00418 238.67351 253.28459
244.0 0.00410 238.74905 254.14145
216.0 0.00463 238.82652 254.83250
231.0 0.00433 238.90591 255.41574
251.0 0.00398 238.98715 255.99855
253.0 0.00395 239.07027 256.55792
270.0 0.00370 239.15514 257.10654
264.0 0.00379 239.24179 257.56174
272.0 0.00368 239.33017 257.84958
266.0 0.00376 239.42024 257.95386
261.0 0.00383 239.51198 257.94556
255.0 0.00392 239.60530 257.94067
271.0 0.00369 239.70024 258.00742
263.0 0.00380 239.79666 258.22607
254.0 0.00394 239.89462 258.63467
257.0 0.00389 239.99399 259.25104
243.0 0.00412 240.09479 260.08548
249.0 0.00402 240.19688 261.14319
280.0 0.00357 240.30032 262.42963
275.0 0.00364 240.40506 263.95355
277.0 0.00361 240.51094 265.71582
272.0 0.00368 240.61806 267.77234
271.0 0.00369 240.72624 270.14496
270.0 0.00370 240.83554 272.88760
257.0 0.00389 240.94580 275.98944
283.0 0.00353 241.05702 279.73407
303.0 0.003300 241.16922 284.19464
280.0 0.00357 241.28220 288.83838
321.0 0.003115 241.39604 295.58206
280.0 0.00357 241.51060 304.16605
326.0 0.003067 241.62590 315.35141
332.0 0.003012 241.74178 330.16888
354.0 0.002825 241.85831 349.96414
380.0 0.002632 241.97531 376.31815
390.0 0.002564 242.09277 410.94128
469.0 0.002132 242.21069 455.43909
509.0 0.001965 242.32895 510.98892
627.0 0.001595 242.44753 577.86493
648.0 0.001543 242.56628 654.75653
730.0 0.001370 242.68530 737.87842
883.0 0.001133 242.80437 820.26044
847.0 0.001181 242.92355 892.34656
972.0 0.001029 243.04269 944.77887
1029.0 0.000972 243.16176 971.40399
952.0 0.001050 243.28076 969.36102
997.0 0.001003 243.39955 937.92834
893.0 0.001120 243.51813 879.93097
801.0 0.001248 243.63635 803.69635
729.0 0.001372 243.75427 719.29529
633.0 0.001580 243.87172 636.57043
532.0 0.001880 243.98868 561.64960
488.0 0.002049 244.10515 497.50162
439.0 0.002278 244.22098 444.88861
387.0 0.002584 244.33617 403.21164
368.0 0.002717 244.45058 371.11981
340.0 0.002941 244.56425 346.93329
294.0 0.003401 244.67705 328.94498
296.0 0.003378 244.78899 315.61374
321.0 0.003115 244.89990 305.66492
288.0 0.003472 245.00981 298.11777
277.0 0.00361 245.11867 292.26645
278.0 0.00360 245.22632 287.63263
269.0 0.00372 245.33284 283.90857
289.0 0.003460 245.43808 280.90005
268.0 0.00373 245.54201 278.47458
263.0 0.00380 245.64455 276.54285
286.0 0.003497 245.74571 275.02765
274.0 0.00365 245.84535 273.85730
270.0 0.00370 245.94347 272.94019
253.0 0.00395 246.04002 272.16324
265.0 0.00377 246.13492 271.39209
271.0 0.00369 246.22813 270.51904
289.0 0.003460 246.31961 269.47675
296.0 0.003378 246.40932 268.32333
252.0 0.00397 246.49713 267.15674
240.0 0.00417 246.58308 266.06653
250.0 0.00400 246.66714 265.10260
262.0 0.00382 246.74916 264.27457
292.0 0.003425 246.82921 263.55652
272.0 0.00368 246.90717 262.89984
271.0 0.00369 246.98303 262.25131
256.0 0.00391 247.05672 261.57883
244.0 0.00410 247.12823 260.87494
242.0 0.00413 247.19753 260.19000
283.0 0.00353 247.26453 259.54666
272.0 0.00368 247.32925 258.96832
287.0 0.003484 247.39165 258.46664
262.0 0.00382 247.45166 258.04526
264.0 0.00379 247.50926 257.70187
264.0 0.00379 247.56448 257.43152
281.0 0.00356 247.61720 257.22076
267.0 0.00375 247.66748 257.07602
269.0 0.00372 247.71521 256.98630
249.0 0.00402 247.76044 256.94217
251.0 0.00398 247.80310 256.94229
284.0 0.00352 247.84319 256.98434
244.0 0.00410 247.88071 257.06732
253.0 0.00395 247.91560 257.19150
260.0 0.00385 247.94789 257.35782
271.0 0.00369 247.97752 257.56812
265.0 0.00377 248.00455 257.82681
242.0 0.00413 248.02892 258.14276
263.0 0.00380 248.05061 258.53159
265.0 0.00377 248.06967 259.01608
271.0 0.00369 248.08603 259.62695
266.0 0.00376 248.09976 260.40533
240.0 0.00417 248.11081 261.40509
250.0 0.00400 248.11920 262.69940
282.0 0.00355 248.12495 264.38519
272.0 0.00368 248.12807 266.58798
278.0 0.00360 248.12852 269.46021
265.0 0.00377 248.12636 273.17880
260.0 0.00385 248.12158 277.94495
279.0 0.00358 248.11424 283.95660
290.0 0.003448 248.10431 291.37073
291.0 0.003436 248.09183 300.23132
315.0 0.003175 248.07683 310.39194
339.0 0.002950 248.05931 321.44455
352.0 0.002841 248.03934 332.67261
402.0 0.002488 248.01689 343.02725
347.0 0.002882 247.99207 351.12619
349.0 0.002865 247.96484 355.40518
389.0 0.002571 247.93527 354.66431
391.0 0.002558 247.90341 348.83759
327.0 0.003058 247.86931 339.15189
310.0 0.003226 247.83295 327.44815
316.0 0.003165 247.79443 315.37607
316.0 0.003165 247.75381 304.05026
299.0 0.003344 247.71107 294.25714
311.0 0.003215 247.66635 285.90631
266.0 0.00376 247.61964 279.18539
250.0 0.00400 247.57103 273.96378
255.0 0.00392 247.52055 270.02942
252.0 0.00397 247.46831 267.13983
261.0 0.00383 247.41432 265.07080
254.0 0.00394 247.35866 263.62106
267.0 0.00375 247.30142 262.63672
237.0 0.00422 247.24265 262.00961
256.0 0.00391 247.18240 261.67355
291.0 0.003436 247.12077 261.59943
255.0 0.00392 247.05788 261.78766
254.0 0.00394 246.99371 262.27979
243.0 0.00412 246.92839 263.13361
250.0 0.00400 246.86203 264.43631
266.0 0.00376 246.79465 266.29532
278.0 0.00360 246.72638 268.82870
283.0 0.00353 246.65726 272.14984
269.0 0.00372 246.58745 276.34344
286.0 0.003497 246.51695 281.43622
287.0 0.003484 246.44594 287.35657
299.0 0.003344 246.37447 293.88809
289.0 0.003460 246.30257 300.63348
304.0 0.003289 246.23042 307.01331
299.0 0.003344 246.15810 312.32242
317.0 0.003155 246.08569 315.90408
333.0 0.003003 246.01329 317.43329
326.0 0.003067 245.94101 317.11258
331.0 0.003021 245.86894 315.52240
312.0 0.003205 245.79718 313.25299
324.0 0.003086 245.72585 310.62823
303.0 0.003300 245.65501 307.63303
309.0 0.003236 245.58482 304.04031
291.0 0.003436 245.51532 299.68961
286.0 0.003497 245.44667 294.71185
288.0 0.003472 245.37894 289.48602
281.0 0.00356 245.31223 284.43127
270.0 0.00370 245.24667 279.85843
255.0 0.00392 245.18237 275.93600
273.0 0.00366 245.11942 272.75610
284.0 0.00352 245.05786 270.27554
255.0 0.00392 244.99794 268.47324
248.0 0.00403 244.93962 267.28387
259.0 0.00386 244.88309 266.63483
253.0 0.00395 244.82838 266.11145
273.0 0.00366 244.77571 266.34995
279.0 0.00358 244.72507 266.95450
265.0 0.00377 244.67657 267.89600
275.0 0.00364 244.63039 268.75113
256.0 0.00391 244.58653 270.32639
281.0 0.00356 244.54515 272.21771
282.0 0.00355 244.50633 274.44592
280.0 0.00357 244.47017 277.06870
281.0 0.00356 244.43674 280.21844
289.0 0.003460 244.40614 284.14267
304.0 0.003289 244.37848 289.22876
283.0 0.00353 244.35381 296.01501
306.0 0.003268 244.33221 305.19952
334.0 0.002994 244.31381 317.63995
328.0 0.003049 244.29866 334.32138
339.0 0.002950 244.28685 356.27573
373.0 0.002681 244.27841 384.42960
415.0 0.002410 244.27348 419.41516
464.0 0.002155 244.27208 461.31497
540.0 0.001852 244.27428 509.35492
599.0 0.001669 244.28015 561.49487
616.0 0.001623 244.28973 613.85199
707.0 0.001414 244.30312 660.18365
728.0 0.001374 244.32034 692.32013
734.0 0.001362 244.34143 702.74414
697.0 0.001435 244.36644 688.62250
670.0 0.001493 244.39542 653.68536
592.0 0.001689 244.42841 605.80743
561.0 0.001783 244.46539 553.01373
501.0 0.001996 244.50647 501.22562
466.0 0.002146 244.55161 454.78214
441.0 0.002268 244.60085 414.04480
375.0 0.002667 244.65419 380.34070
371.0 0.002695 244.71164 353.46960
334.0 0.002994 244.77321 332.89920
308.0 0.003247 244.83888 317.67191
304.0 0.003289 244.90869 306.26511
270.0 0.00370 244.98256 298.05411
292.0 0.003425 245.06053 292.21732
297.0 0.003367 245.14250 288.10175
287.0 0.003484 245.22853 285.20966
285.0 0.00351 245.31851 283.19489
273.0 0.00366 245.41246 281.82950
269.0 0.00372 245.51025 280.95370
307.0 0.003257 245.61191 280.41861
301.0 0.003322 245.71735 280.04358
313.0 0.003195 245.82643 279.59787
274.0 0.00365 245.93924 278.83026
270.0 0.00370 246.05551 277.56265
276.0 0.00362 246.17532 275.78723
308.0 0.003247 246.29845 273.66266
276.0 0.00362 246.42485 271.41211
292.0 0.003425 246.55446 269.22687
262.0 0.00382 246.68706 267.23157
265.0 0.00377 246.82266 265.49216
255.0 0.00392 246.96101 264.03342
251.0 0.00398 247.10210 262.85358
240.0 0.00417 247.24565 261.93414
238.0 0.00420 247.39165 261.24808
260.0 0.00385 247.53981 260.76590
262.0 0.00382 247.69006 260.45917
252.0 0.00397 247.84225 260.30298
265.0 0.00377 247.99614 260.27609
258.0 0.00388 248.15163 260.36017
262.0 0.00382 248.30843 260.53741
265.0 0.00377 248.46643 260.78738
282.0 0.00355 248.62537 261.08246
265.0 0.00377 248.78511 261.38559
274.0 0.00365 248.94536 261.65070
243.0 0.00412 249.10591 261.83459
257.0 0.00389 249.26665 261.92206
277.0 0.00361 249.42720 261.92859
229.0 0.00437 249.58743 261.89453
262.0 0.00382 249.74702 261.86163
291.0 0.003436 249.90582 261.86609
290.0 0.003448 250.06342 261.92789
261.0 0.00383 250.21967 262.04803
221.0 0.00452 250.37436 262.25702
221.0 0.00452 250.52710 262.54031
282.0 0.00355 250.67772 262.90945
284.0 0.00352 250.82582 263.27606
255.0 0.00392 250.97128 263.81021
258.0 0.00388 251.11365 264.43314
251.0 0.00398 251.25279 265.15094
275.0 0.00364 251.38829 265.97577
269.0 0.00372 251.51990 266.92639
281.0 0.00356 251.64738 268.03137
268.0 0.00373 251.77036 269.33243
265.0 0.00377 251.88858 270.89090
264.0 0.00379 252.00169 272.79666
262.0 0.00382 252.10947 275.17871
223.0 0.00448 252.21153 278.21710
285.0 0.00351 252.30763 282.15353
300.0 0.003333 252.39742 287.29614
314.0 0.003185 252.48062 294.01193
312.0 0.003205 252.55698 302.70236
293.0 0.003413 252.62611 313.75760
322.0 0.003106 252.68779 327.49399
355.0 0.002817 252.74170 344.07870
376.0 0.002660 252.78755 363.43680
378.0 0.002646 252.82504 385.11331
388.0 0.002577 252.85391 408.06924
452.0 0.002212 252.87390 430.43549
499.0 0.002004 252.88472 449.39874
500.0 0.002000 252.88609 461.59348
488.0 0.002049 252.87781 464.27722
487.0 0.002053 252.85959 456.75635
454.0 0.002203 252.83121 440.81543
414.0 0.002415 252.79242 419.69034
391.0 0.002558 252.74301 396.61639
400.0 0.002500 252.68280 374.00409
356.0 0.002809 252.61154 353.33746
309.0 0.003236 252.52911 335.37686
299.0 0.003344 252.43527 320.38086
314.0 0.003185 252.32994 308.27545
306.0 0.003268 252.21291 298.77759
275.0 0.00364 252.08411 291.49475
282.0 0.00355 251.94334 286.00146
264.0 0.00379 251.79066 281.89587
312.0 0.003205 251.62589 278.83185
282.0 0.00355 251.44893 276.54361
277.0 0.00361 251.25989 274.80228
268.0 0.00373 251.05858 273.46878
279.0 0.00358 250.84518 272.43976
260.0 0.00385 250.61957 271.64307
292.0 0.003425 250.38196 271.02805
229.0 0.00437 250.13234 270.55579
264.0 0.00379 249.87073 270.19345
282.0 0.00355 249.59747 269.90787
300.0 0.003333 249.31247 269.69589
296.0 0.003378 249.01614 269.55664
250.0 0.00400 248.70853 269.48636
274.0 0.00365 248.39008 269.59714
288.0 0.003472 248.06081 269.90964
255.0 0.00392 247.72128 270.49350
297.0 0.003367 247.37178 271.40530
289.0 0.003460 247.01245 272.70053
242.0 0.00413 246.64403 274.41959
273.0 0.00366 246.26669 276.57184
290.0 0.003448 245.88120 279.17480
295.0 0.003390 245.48776 282.13947
284.0 0.00352 245.08725 285.31921
260.0 0.00385 244.67999 288.47314
309.0 0.003236 244.26689 291.25681
308.0 0.003247 243.84850 293.27100
255.0 0.00392 243.42538 294.19751
270.0 0.00370 242.99860 293.93472
310.0 0.003226 242.56863 292.71170
297.0 0.003367 242.13670 290.93979
294.0 0.003401 241.70332 289.03906
296.0 0.003378 241.26979 287.29288
305.0 0.003279 240.83694 285.89505
303.0 0.003300 240.40559 284.94159
308.0 0.003247 239.97717 284.47247
298.0 0.003356 239.55247 284.52386
294.0 0.003401 239.13300 285.11917
275.0 0.00364 238.71960 286.29453
299.0 0.003344 238.31390 288.04953
295.0 0.003390 237.91689 290.41528
290.0 0.003448 237.53018 293.42993
285.0 0.00351 237.15503 297.14627
314.0 0.003185 236.79276 301.64987
308.0 0.003247 236.44513 307.07159
307.0 0.003257 236.11340 313.60718
299.0 0.003344 235.79939 321.54904
364.0 0.002747 235.50450 331.33243
341.0 0.002933 235.23059 343.60089
382.0 0.002618 234.97917 359.27884
399.0 0.002506 234.75217 379.62637
376.0 0.002660 234.55125 406.24854
398.0 0.002513 234.37817 441.06284
492.0 0.002033 234.23492 486.44287
534.0 0.001873 234.12329 543.97717
583.0 0.001715 234.04523 615.81482
648.0 0.001543 234.00264 702.85834
777.0 0.001287 233.99756 806.00214
876.0 0.001142 234.03189 923.52740
1040.0 0.000962 234.10771 1050.47314
1234.0 0.000810 234.22702 1178.94958
1238.0 0.000808 234.39189 1296.76208
1339.0 0.000747 234.60428 1389.86877
1487.0 0.000672 234.86639 1447.26257
1494.0 0.000669 235.18011 1465.17358
1504.0 0.000665 235.54768 1446.26733
1446.0 0.000692 235.97093 1395.25439
1393.0 0.000718 236.45195 1316.47034
1236.0 0.000809 236.99301 1215.20874
1104.0 0.000906 237.59567 1099.45081
930.0 0.001075 238.26233 978.97839
893.0 0.001120 238.99446 862.74255
698.0 0.001433 239.79437 756.97961
644.0 0.001553 240.66338 664.94763
594.0 0.001684 241.60385 587.60718
510.0 0.001961 242.61678 524.41827
488.0 0.002049 243.70406 473.98877
436.0 0.002294 244.86772 434.51657
413.0 0.002421 246.10828 404.08533
416.0 0.002404 247.42796 380.87085
373.0 0.002681 248.82698 363.24231
360.0 0.002778 250.30748 349.87592
342.0 0.002924 251.86917 339.69098
346.0 0.002890 253.51346 331.87619
343.0 0.002915 255.24149 325.83618
308.0 0.003247 257.05243 321.14389
298.0 0.003356 258.94781 317.50021
314.0 0.003185 260.92624 314.69278
325.0 0.003077 262.98892 312.57294
291.0 0.003436 265.13382 311.02969
312.0 . . .
loop_
_refln_index_h
_refln_index_k
_refln_index_l
_pd_refln_phase_id
_refln_observed_status
_refln_F_squared_meas
_refln_F_squared_calc
_refln_phase_calc
_refln_d_spacing
_gsas_i100_meas
1 1 0 1 o 2177.963 2235.465 180.00 6.96390 5.47
1 0 1 2 o 8376.066 1579.666 135.00 5.96227 0.47
0 0 1 1 o 3339.909 3535.650 0.00 4.92894 1.73
2 0 0 1 o 3151.850 3312.102 0.00 4.92422 3.44
1 1 0 2 o 142.929 1.436 0.00 4.81114 0.00
1 0 2 2 o 12452.167 85.997 0.00 4.57778 0.41
1 1 1 2 o 2940.499 67.571 90.00 4.48420 0.09
1 1 1 1 o 12954.580 13068.084 0.00 4.02318 20.46
1 1 2 2 o -3.285 236.581 -180.00 3.79814 0.00
1 0 3 2 o 1473.627 54.870 45.00 3.52747 0.03
2 0 1 1 o 3379.127 3243.858 180.00 3.48362 3.69
2 2 0 1 o 4181.128 4055.160 180.00 3.48195 2.26
2 0 0 2 o 1006.400 1378.396 -180.00 3.40199 0.01
2 1 1 1 o 58.345 55.272 0.00 3.28421 0.13
2 0 1 2 o 51273.90 49469.61 45.00 3.28030 0.83
1 1 3 2 o 224.242 202.351 -90.00 3.13163 0.00
3 1 0 1 o 5543.282 5471.154 0.00 3.11435 5.17
0 0 4 2 o 191821.72 208484.81 180.00 3.09387 0.69
2 1 0 2 o 25817.521 31037.848 0.00 3.04283 0.35
2 0 2 2 o 15553.976 14237.278 90.00 2.98114 0.21
2 1 1 2 o 16717.307 15249.165 -36.95 2.95483 0.44
2 2 1 1 o 131278.94 132083.36 180.00 2.84391 100.00
1 0 4 2 o 589.873 637.762 -90.00 2.81637 0.01
2 1 2 2 o 40091.06 25838.098 93.17 2.73054 0.92
3 1 1 1 o 519.614 475.899 180.00 2.63283 0.77
2 0 3 2 o 27910.469 29819.133 -45.00 2.62460 0.28
1 1 4 2 o 128.395 778.464 180.00 2.60225 0.00
0 0 2 1 o 59950.58 60056.99 0.00 2.46447 8.27
4 0 0 1 o 74416.09 75868.49 0.00 2.46211 20.86
2 1 3 2 o 4535.021 4628.372 52.40 2.44873 0.08
2 2 0 2 o 6.164 6.022 0.00 2.40557 0.00
3 2 1 1 o 5873.559 5267.275 0.00 2.38914 6.89
2 2 1 2 o 125.407 17.499 -90.00 2.36137 0.00
1 0 5 2 o 14380.640 14055.239 -45.00 2.32598 0.13
1 1 2 1 o 245.223 250.467 180.00 2.32328 0.15
3 3 0 1 o 13201.066 13793.313 180.00 2.32130 3.37
2 0 4 2 o -41.729 455.251 180.00 2.28889 0.00
2 2 2 2 o 24.354 398.186 0.00 2.24210 0.00
3 0 1 2 o 497.570 2519.606 135.00 2.23084 0.01
2 0 2 1 o 965.040 987.929 0.00 2.20387 0.40
4 0 1 1 o 0.702 1.981 180.00 2.20260 0.02
4 2 0 1 o 1603.605 1658.620 0.00 2.20218 0.66
1 1 5 2 o 37.055 41.175 90.00 2.20092 0.00
2 1 4 2 o 16030.941 14888.503 -175.93 2.16943 0.22
3 1 0 2 o 6128.708 5056.877 0.00 2.15161 0.05
2 1 2 1 o 680.386 578.909 0.00 2.15068 0.65
4 1 1 1 o 2585.521 2234.763 0.00 2.14950 2.47
3 0 2 2 o 676.313 465.102 0.00 2.12946 0.01
3 1 1 2 o 2380.313 2681.293 156.12 2.11981 0.04
3 3 1 1 o 139.591 115.147 180.00 2.10006 0.04
2 2 3 2 o 101.560 1294.523 -90.00 2.07805 0.00
3 1 2 2 o -2.581 33.096 170.52 2.03225 0.00
2 2 2 1 o 5.052 13.436 0.00 2.01159 0.02
4 2 1 1 o 724.098 745.318 180.00 2.01063 0.50
2 0 5 2 o 18622.207 14728.286 -135.00 2.00144 0.11
3 0 3 2 o 45.210 7.707 45.00 1.98742 0.00
1 0 6 2 o 2507.378 619.038 -180.00 1.97388 0.02
3 1 2 1 o 9543.315 9097.822 0.00 1.93258 7.15
5 1 0 1 o 584.170 560.701 180.00 1.93144 0.28
2 1 5 2 o 12953.578 13753.854 135.74 1.92009 0.15
3 1 3 2 o 1001.417 1424.469 -156.89 1.90771 0.01
2 2 4 2 o 623.110 345.870 0.00 1.89907 0.00
1 1 6 2 o -9.362 418.600 0.00 1.89571 0.00
3 2 0 2 o 416.935 3385.997 0.00 1.88709 0.00
3 2 1 2 o 32314.736 37211.25 47.01 1.86552 0.35
3 2 2 1 o 323.351 319.176 0.00 1.82978 0.23
3 0 4 2 o 3646.167 3628.896 90.00 1.82916 0.02
4 3 1 1 o 368.305 367.289 180.00 1.82905 0.26
3 2 2 2 o 1077.955 1087.901 -95.54 1.80501 0.01
5 1 1 1 o 11486.779 11341.523 0.00 1.79830 7.23
3 1 4 2 o 1858.277 2020.712 -146.92 1.76644 0.02
2 0 6 2 o 5727.937 6076.352 -90.00 1.76374 0.03
4 0 2 1 o 100826.68 100804.51 0.00 1.74181 29.95
4 4 0 1 o 92124.50 92009.88 0.00 1.74098 13.68
2 2 5 2 o 4132.092 3824.234 -90.00 1.72505 0.02
3 2 3 2 o 22363.602 21751.408 -54.10 1.71605 0.20
4 1 2 1 o 54.874 53.581 180.00 1.71519 0.03
5 2 1 1 o 42.074 41.406 180.00 1.71459 0.03
1 0 7 2 o 766.712 808.447 -135.00 1.71110 0.00
2 1 6 2 o 26698.088 28032.016 -87.42 1.70731 0.25
4 0 0 2 o 96152.23 82996.09 -180.00 1.70100 0.22
3 3 2 1 o 14531.073 14340.604 180.00 1.68976 4.12
5 3 0 1 o 1558.926 1558.672 0.00 1.68899 0.48
4 0 1 2 o 14410.211 14565.702 -135.00 1.68515 0.06
3 0 5 2 o 210.670 100.387 -45.00 1.67214 0.00
1 1 7 2 o 471.766 310.566 -90.00 1.65943 0.00
4 1 0 2 o 713.423 1119.632 0.00 1.65021 0.00
0 0 3 1 o 47.400 47.405 0.00 1.64298 0.00
4 2 2 1 o 2610.831 2640.624 0.00 1.64211 1.32
4 4 1 1 o 269.474 273.738 0.00 1.64158 0.06
6 0 0 1 o 522.434 533.939 0.00 1.64141 0.07
4 0 2 2 o 469.851 486.804 -90.00 1.64015 0.00
4 1 1 2 o 747.999 694.600 -77.02 1.63573 0.01
3 1 5 2 o -29.903 713.902 -32.48 1.62383 0.00
3 2 4 2 o 4464.449 4751.664 -161.67 1.61105 0.03
3 3 0 2 o 4715.310 4742.145 180.00 1.60371 0.01
1 1 3 1 o 2639.471 2488.788 0.00 1.59908 0.68
5 3 1 1 o 5685.767 5435.006 180.00 1.59779 3.00
4 1 2 2 o 1329.107 1419.929 97.66 1.59448 0.01
3 3 1 2 o 702.443 844.343 90.00 1.59042 0.00
4 0 3 2 o 8138.287 7214.713 135.00 1.57255 0.03
2 0 7 2 o 38716.77 32254.047 135.00 1.56874 0.15
2 2 6 2 o 10934.373 9079.263 -180.00 1.56581 0.04
2 0 3 1 o 961.806 989.228 180.00 1.55852 0.21
6 0 1 1 o 2816.967 2883.296 180.00 1.55732 0.63
6 2 0 1 o 982.340 1013.756 0.00 1.55718 0.31
3 3 2 2 o 135.260 130.782 180.00 1.55242 0.00
0 0 8 2 o 101674.96 78694.73 0.00 1.54693 0.10
2 1 3 1 o 140.873 121.393 0.00 1.53936 0.07
4 3 2 1 o 26.201 23.197 0.00 1.53864 0.01
6 1 1 1 o 42.502 37.418 180.00 1.53821 0.02
4 1 3 2 o 1461.595 1375.891 37.63 1.53216 0.01
2 1 7 2 o 3252.505 2837.213 -132.01 1.52864 0.02
3 0 6 2 o 341.815 310.040 0.00 1.52593 0.00
4 2 0 2 o 964.707 818.606 0.00 1.52142 0.00
5 1 2 1 o 1201.650 1096.038 0.00 1.52020 0.53
4 2 1 2 o 15243.869 15281.813 -47.67 1.51005 0.11
1 0 8 2 o 957.717 1034.512 90.00 1.50844 0.00
3 2 5 2 o 25768.658 26093.664 -127.51 1.50067 0.19
3 3 3 2 o 162.702 167.599 -90.00 1.49473 0.00
4 0 4 2 o 55666.84 56107.45 0.00 1.49057 0.20
3 1 6 2 o 1126.692 1120.499 -29.05 1.48894 0.01
2 2 3 1 o 68809.47 68990.15 180.00 1.48587 15.32
6 2 1 1 o 57871.43 57626.92 180.00 1.48484 25.78
4 2 2 2 o 3300.425 3108.322 73.08 1.47741 0.02
1 1 8 2 o 1303.658 1263.621 0.00 1.47268 0.00
5 2 2 1 o 207.464 203.094 0.00 1.46862 0.10
5 4 1 1 o 40.247 39.806 180.00 1.46824 0.02
4 1 4 2 o 3556.290 3393.732 -160.59 1.45604 0.03
3 1 3 1 o 1763.328 1649.830 180.00 1.45316 0.85
4 2 3 2 o 15140.105 15663.746 55.36 1.42743 0.10
2 2 7 2 o 498.671 503.959 90.00 1.42458 0.00
3 3 4 2 o 3103.483 3100.833 0.00 1.42380 0.01
4 4 2 1 o 49370.16 48974.52 0.00 1.42195 10.18
2 0 8 2 o 55.570 63.253 180.00 1.40819 0.00
3 2 3 1 o 611.607 723.924 180.00 1.40791 0.28
6 3 1 1 o 1.355 1.738 180.00 1.40703 0.00
4 0 5 2 o 6789.261 7271.247 45.00 1.40186 0.02
3 0 7 2 o 311.345 275.571 -135.00 1.39434 0.00
5 3 2 1 o 219.238 195.079 0.00 1.39321 0.10
5 5 0 1 o 10954.317 10091.718 0.00 1.39278 1.12
7 1 0 1 o 4579.493 4228.468 0.00 1.39278 0.91
3 2 6 2 o 1160.613 1075.260 96.40 1.39229 0.01
2 1 8 2 o 11399.867 9901.741 -1.95 1.37896 0.07
4 1 5 2 o 1953.759 1543.306 41.75 1.37302 0.01
4 0 3 1 o 1255.040 1120.881 0.00 1.36664 0.23
6 0 2 1 o 27.761 21.917 180.00 1.36614 0.01
3 1 7 2 o 742.954 630.372 15.04 1.36596 0.01
6 4 0 1 o 394.842 342.308 0.00 1.36573 0.07
4 2 4 2 o 2725.642 2174.002 118.45 1.36527 0.02
4 3 0 2 o 491.003 278.241 0.00 1.36080 0.00
4 1 3 1 o 779.974 919.985 180.00 1.35367 0.34
6 1 2 1 o 167.459 192.049 180.00 1.35318 0.07
4 3 1 2 o 3242.429 3603.106 138.07 1.35264 0.02
5 0 1 2 o 1748.747 1947.158 -45.00 1.35264 0.01
1 0 9 2 o 1498.116 1696.815 135.00 1.34780 0.01
3 3 5 2 o 5.035 4.944 -90.00 1.34589 0.00
3 3 3 1 o 422.758 422.424 180.00 1.34106 0.07
7 1 1 1 o 0.200 0.265 0.00 1.34030 0.00
5 5 1 1 o 17146.838 17366.801 0.00 1.34030 3.29
5 1 0 2 o 4.250 4.878 0.00 1.33437 0.00
5 0 2 2 o 706.117 386.307 -180.00 1.32904 0.00
4 3 2 2 o 860.982 519.967 89.85 1.32904 0.00
5 1 1 2 o 185.898 139.012 -105.17 1.32668 0.00
1 1 9 2 o 639.093 397.085 90.00 1.32211 0.00
4 2 3 1 o 507.603 464.641 180.00 1.31686 0.17
6 2 2 1 o 517.814 476.219 180.00 1.31641 0.18
6 4 1 1 o 1754.948 1611.495 180.00 1.31614 0.61
4 0 6 2 o 1759.195 1356.823 90.00 1.31230 0.01
5 4 2 1 o 1.265 1.273 180.00 1.30481 0.00
7 2 1 1 o 1805.699 1828.216 180.00 1.30455 0.74
5 1 2 2 o 376.323 380.125 -94.47 1.30439 0.00
2 2 8 2 o 25.767 16.487 0.00 1.30113 0.00
4 2 5 2 o 8762.857 8754.134 118.26 1.29613 0.05
7 3 0 1 o 20085.938 20718.131 180.00 1.29316 3.72
5 0 3 2 o 5.381 5.649 45.00 1.29230 0.00
4 3 3 2 o 4082.886 4216.497 -128.85 1.29230 0.02
3 2 7 2 o 12012.137 12599.035 128.52 1.29018 0.07
4 1 6 2 o 547.922 552.138 -58.19 1.28855 0.00
3 0 8 2 o 3711.298 2251.167 -90.00 1.27797 0.01
2 0 9 2 o 2798.122 3412.033 45.00 1.27485 0.01
5 1 3 2 o 31.719 137.068 45.32 1.26960 0.00
3 3 6 2 o -1.504 50.285 0.00 1.26605 0.00
5 2 0 2 o 1764.489 2842.170 -180.00 1.26347 0.00
4 3 3 1 o 159.800 199.545 0.00 1.26168 0.06
6 3 2 1 o 189.781 230.612 0.00 1.26128 0.08
5 2 1 2 o 366.299 401.397 172.50 1.25693 0.00
3 1 8 2 o 39.023 46.556 29.26 1.25601 0.00
2 1 9 2 o 4666.148 4819.808 -29.16 1.25305 0.03
5 1 3 1 o 9773.916 9695.534 0.00 1.25145 3.50
7 3 1 1 o 1507.715 1482.929 180.00 1.25083 0.47
4 3 4 2 o 1484.767 1305.675 94.81 1.24563 0.01
5 0 4 2 o 0.643 0.468 90.00 1.24563 0.00
5 2 2 2 o 28378.672 23318.592 87.00 1.23793 0.16
0 0 4 1 o 64945.82 65194.01 0.00 1.23224 2.81
8 0 0 1 o 31176.693 31282.277 0.00 1.23106 2.65
4 0 7 2 o 8045.855 7170.670 -45.00 1.22576 0.02
5 1 4 2 o 28.929 25.303 -127.40 1.22527 0.00
4 2 6 2 o 2416.078 2384.347 -72.91 1.22437 0.01
5 2 3 1 o 178.878 176.846 0.00 1.22220 0.07
6 5 1 1 o 282.130 287.104 0.00 1.22162 0.11
1 0 10 2 o 74.179 64.162 0.00 1.21757 0.00
1 1 4 1 o 1546.017 1580.889 180.00 1.21339 0.30
7 1 2 1 o 9282.877 9395.522 0.00 1.21254 3.25
5 5 2 1 o 3.289 3.844 180.00 1.21254 0.01
5 2 3 2 o 289.416 330.273 -139.84 1.20807 0.00
4 1 7 2 o 304.964 408.610 178.68 1.20634 0.00
4 4 0 2 o 22436.318 25584.109 0.00 1.20279 0.03
1 1 10 2 o 1058.894 2208.932 -180.00 1.19853 0.00
4 4 1 2 o 8279.398 9378.829 90.00 1.19715 0.02
3 2 8 2 o 1275.568 1257.455 -2.62 1.19634 0.01
2 0 4 1 o 617.528 609.176 0.00 1.19538 0.09
4 4 3 1 o 312.861 308.788 180.00 1.19491 0.08
6 4 2 1 o 51.345 51.195 0.00 1.19457 0.01
8 0 1 1 o 9.706 9.655 180.00 1.19437 0.01
8 2 0 1 o 2940.290 2939.582 0.00 1.19430 0.46
2 2 9 2 o 2455.679 2478.662 90.00 1.19379 0.01
4 3 5 2 o 1207.210 1203.841 -46.26 1.19245 0.01
5 0 5 2 o 6070.216 6051.879 135.00 1.19245 0.02
3 3 7 2 o 259.187 282.910 90.00 1.18782 0.00
2 1 4 1 o 176.208 190.495 180.00 1.18667 0.07
7 2 2 1 o 116.233 128.493 180.00 1.18588 0.04
7 4 1 1 o 60.913 67.267 0.00 1.18568 0.02
8 1 1 1 o 141.806 156.598 180.00 1.18568 0.05
4 4 2 2 o 729.707 599.801 -180.00 1.18069 0.00
5 3 3 1 o 1799.608 1501.149 180.00 1.17769 0.61
3 0 9 2 o 33.035 15.366 135.00 1.17582 0.00
5 1 5 2 o 337.878 245.978 63.05 1.17455 0.00
5 2 4 2 o 3536.188 3556.634 1.82 1.16969 0.02
5 3 0 2 o 116.473 68.573 -180.00 1.16687 0.00
8 2 1 1 o 49.090 55.024 0.00 1.16071 0.02
6 6 0 1 o 48.519 53.666 180.00 1.16065 0.00
2 0 10 2 o 1406.130 1518.751 90.00 1.16299 0.00
3 1 9 2 o 209.068 167.697 -50.90 1.15865 0.00
5 3 1 2 o 982.546 1031.887 -133.75 1.16172 0.01
2 2 4 1 o 706.779 735.049 180.00 1.16164 0.10
6 0 3 1 o 1745.485 1851.449 180.00 1.16121 0.26
4 4 3 2 o 6588.564 6904.358 -90.00 1.15470 0.02
6 1 3 1 o 39.190 33.253 180.00 1.15322 0.01
4 2 7 2 o 15270.459 13114.203 -126.88 1.15319 0.08
5 3 2 2 o 104.114 104.204 19.43 1.14666 0.00
2 1 10 2 o 7786.417 7738.146 81.31 1.14636 0.04
3 1 4 1 o 1126.274 1109.497 0.00 1.14581 0.36
7 3 2 1 o 7769.644 7622.965 180.00 1.14510 2.45
7 5 0 1 o 2126.138 2079.786 0.00 1.14486 0.36
4 0 8 2 o 24656.980 24014.406 180.00 1.14445 0.06
4 3 6 2 o 249.635 256.033 -141.83 1.13586 0.00
5 0 6 2 o 129.140 133.507 -180.00 1.13586 0.00
6 0 0 2 o 3018.150 3036.838 0.00 1.13400 0.00
6 2 3 1 o 32297.471 31970.461 180.00 1.13021 10.27
6 6 1 1 o 27396.336 27070.170 180.00 1.12975 4.37
6 0 1 2 o 2794.384 2766.044 -135.00 1.12927 0.01
4 1 8 2 o 1903.580 1896.776 41.30 1.12859 0.01
5 2 5 2 o 235.888 243.234 -73.41 1.12533 0.00
3 2 4 1 o 63.085 67.146 180.00 1.12323 0.02
5 4 3 1 o 9.297 9.808 0.00 1.12284 0.00
5 3 3 2 o 1551.698 1634.921 152.08 1.12282 0.01
6 5 2 1 o 53.172 54.976 0.00 1.12256 0.02
8 3 1 1 o 89.181 90.905 180.00 1.12239 0.03
4 4 4 2 o 19749.373 20261.418 -180.00 1.12105 0.05
5 1 6 2 o 495.876 502.220 141.74 1.12036 0.00
6 1 0 2 o 3727.818 3654.171 -180.00 1.11857 0.01
6 0 2 2 o 29802.502 24460.520 -90.00 1.11542 0.08
7 5 1 1 o 597.324 472.944 180.00 1.11517 0.21
6 1 1 2 o 3220.049 2687.595 129.15 1.11403 0.02
3 3 8 2 o 880.554 853.013 180.00 1.11338 0.00
3 2 9 2 o 10919.298 10848.963 53.81 1.11132 0.06
1 0 11 2 o 957.770 793.938 45.00 1.10997 0.00
4 0 4 1 o 34328.758 34919.613 0.00 1.10193 5.38
8 0 2 1 o 33565.617 34084.238 0.00 1.10130 5.36
8 4 0 1 o 22634.191 22941.252 0.00 1.10109 3.55
6 1 2 2 o 6739.938 6813.946 -88.95 1.10073 0.04
2 2 10 2 o 7945.426 8014.153 0.00 1.10046 0.02
1 1 11 2 o 646.622 675.144 90.00 1.09549 0.00
4 1 4 1 o 45.447 45.844 0.00 1.09510 0.02
6 3 3 1 o 133.835 130.903 0.00 1.09474 0.05
7 4 2 1 o 1.609 1.540 0.00 1.09448 0.00
8 1 2 1 o 21.040 20.136 0.00 1.09448 0.01
6 0 3 2 o 8549.611 7072.740 135.00 1.09344 0.02
5 3 4 2 o 173.276 165.674 -97.33 1.09180 0.00
3 3 4 1 o 6138.230 6416.784 180.00 1.08839 0.98
9 1 0 1 o 1502.354 1525.244 0.00 1.08758 0.22
3 0 10 2 o 444.823 427.974 -180.00 1.08634 0.00
4 2 8 2 o 1407.103 1145.248 -63.71 1.08471 0.01
4 4 5 2 o 9730.927 7491.534 -90.00 1.08181 0.02
6 1 3 2 o 2056.061 1982.027 -114.98 1.07958 0.01
5 0 7 2 o 3.128 2.659 -135.00 1.07835 0.00
4 3 7 2 o 1265.634 1140.483 80.64 1.07835 0.01
5 2 6 2 o 21121.670 16963.207 -86.77 1.07740 0.11
6 2 0 2 o 831.895 768.651 0.00 1.07580 0.00
4 2 4 1 o 328.165 314.871 0.00 1.07534 0.08
8 2 2 1 o 1892.633 1868.374 0.00 1.07475 0.54
8 4 1 1 o 833.530 826.902 180.00 1.07460 0.32
3 1 10 2 o 493.817 473.556 124.72 1.07276 0.00
6 2 1 2 o 1082.927 1127.266 -67.55 1.07176 0.00
4 0 9 2 o 7124.338 5192.925 -135.00 1.06935 0.02
2 0 11 2 o 24622.057 18649.836 -45.00 1.06815 0.06
5 1 7 2 o 161.572 154.985 93.55 1.06505 0.00
6 0 4 2 o 916.835 896.236 -180.00 1.06473 0.00
5 4 0 2 o 2369.793 2421.170 -180.00 1.06260 0.01
5 5 3 1 o 8394.066 8590.402 0.00 1.06241 1.31
7 1 3 1 o 22.751 23.040 0.00 1.06241 0.00
9 1 1 1 o 8651.556 8860.692 0.00 1.06203 2.75
6 2 2 2 o 306.729 284.240 -153.68 1.05990 0.00
5 4 1 2 o 1271.316 1054.661 130.59 1.05871 0.01
4 1 9 2 o 1625.944 1320.842 -136.39 1.05638 0.01
5 3 5 2 o 78.074 50.644 -13.70 1.05546 0.00
2 1 11 2 o 942.791 710.242 52.79 1.05523 0.00
6 1 4 2 o 1909.240 2508.554 2.30 1.05193 0.01
6 4 3 1 o 442.609 478.419 180.00 1.05026 0.11
6 6 2 1 o 1518.945 1677.447 0.00 1.05003 0.29
5 4 2 2 o 13.930 11.802 70.13 1.04727 0.00
4 3 4 1 o 15.382 17.484 180.00 1.04465 0.01
7 2 3 1 o 345.164 390.812 0.00 1.04434 0.13
8 3 2 1 o 5.339 6.078 180.00 1.04411 0.00
9 2 1 1 o 48.627 55.765 180.00 1.04398 0.02
7 6 1 1 o 30.011 34.417 0.00 1.04398 0.01
3 3 9 2 o 1.556 2.083 -90.00 1.04388 0.00
5 1 4 1 o 2.337 2.080 0.00 1.03882 0.00
6 2 3 2 o 1012.845 996.440 45.63 1.04099 0.00
7 5 2 1 o 2449.555 2185.474 0.00 1.03829 0.83
9 3 0 1 o 273.020 237.780 0.00 1.03812 0.06
4 4 6 2 o 145.022 130.435 0.00 1.03903 0.00
3 2 10 2 o 342.678 741.577 -129.69 1.03486 0.00
0 0 12 2 o 35965.37 27396.139 180.00 1.03129 0.02
6 0 5 2 o 1191.232 698.542 45.00 1.03094 0.00
5 4 3 2 o 4.440 304.717 -149.03 1.02901 0.00
5 2 7 2 o 415.373 813.468 9.73 1.02794 0.00
5 2 4 1 o 94.028 105.604 180.00 1.02191 0.03
4 3 8 2 o 1456.835 1645.792 -73.14 1.02173 0.01
5 0 8 2 o 145.931 166.907 -90.00 1.02173 0.00
8 5 1 1 o 7.239 9.437 0.00 1.02128 0.00
4 2 9 2 o 1571.916 1478.884 -62.66 1.02014 0.01
1 0 12 2 o 2734.092 2327.742 -90.00 1.01964 0.01
6 1 5 2 o 2800.693 2356.686 -50.38 1.01931 0.01
2 2 11 2 o 4.328 3.184 90.00 1.01910 0.00
7 3 3 1 o 610.994 555.794 180.00 1.01616 0.16
6 2 4 2 o 1038.411 925.213 -165.25 1.01613 0.01
9 3 1 1 o 3302.354 2969.946 180.00 1.01583 1.09
5 3 6 2 o 330.848 294.898 168.01 1.01561 0.00
6 3 0 2 o 164.971 152.048 180.00 1.01428 0.00
6 3 1 2 o 4595.132 4495.313 -39.80 1.01089 0.02
5 1 8 2 o 77.402 71.694 35.68 1.01041 0.00
1 1 12 2 o 193.995 209.110 -180.00 1.00838 0.00
3 0 11 2 o 299.084 321.114 45.00 1.00786 0.00
4 4 4 1 o 23965.908 23806.066 0.00 1.00579 3.83
8 4 2 1 o 20068.043 19870.705 0.00 1.00531 6.49
5 4 4 2 o 1583.329 1574.058 1.95 1.00498 0.01
6 3 2 2 o 984.279 1001.071 -79.05 1.00092 0.01
4 0 10 2 o 285.984 299.155 -90.00 1.00072 0.00
6 5 3 1 o 32.702 35.759 180.00 1.00031 0.01
3 1 11 2 o 1311.678 1432.159 -155.14 0.99698 0.01
5 3 4 1 o 1242.490 1315.241 0.00 0.99547 0.47
9 1 2 1 o 63.346 64.183 0.00 0.99500 0.01
7 7 0 1 o 12821.965 13190.029 180.00 0.99484 1.05
4 4 7 2 o 4300.945 4364.520 90.00 0.99446 0.01
6 0 6 2 o 13494.924 13076.948 90.00 0.99371 0.03
4 1 10 2 o 895.804 757.117 115.78 0.99007 0.00
2 0 12 2 o 21.685 15.382 0.00 0.98694 0.00
6 2 5 2 o 3428.793 2714.333 115.88 0.98664 0.02
0 0 5 1 o 179.446 165.712 0.00 0.98579 0.00
6 0 4 1 o 10.779 10.253 0.00 0.98545 0.00
8 0 3 1 o 978.047 912.534 180.00 0.98518 0.20
6 3 3 2 o 3430.094 3356.616 45.42 0.98494 0.02
10 0 0 1 o 2106.076 2090.044 180.00 0.98484 0.19
8 6 0 1 o 358.645 356.679 0.00 0.98484 0.05
6 1 6 2 o 3962.639 4004.327 87.41 0.98328 0.02
6 1 4 1 o 82.476 96.352 0.00 0.98055 0.03
7 4 3 1 o 18.640 21.639 180.00 0.98029 0.01
8 1 3 1 o 118.653 137.741 0.00 0.98029 0.05
9 2 2 1 o 22.333 25.515 180.00 0.98011 0.01
7 6 2 1 o 101.883 116.394 0.00 0.98011 0.04
9 4 1 1 o 692.283 780.736 0.00 0.97999 0.27
3 3 10 2 o 69.335 75.472 -180.00 0.97975 0.00
5 2 8 2 o 3172.307 2880.533 177.60 0.97855 0.02
2 1 12 2 o 3016.346 2916.969 -179.57 0.97672 0.02
5 4 5 2 o 2470.407 2379.650 -34.61 0.97642 0.01
1 1 5 1 o 2824.769 2607.120 0.00 0.97606 0.50
7 7 1 1 o 2096.005 1654.981 180.00 0.97518 0.32
5 3 7 2 o 1099.361 919.323 -32.31 0.97387 0.01
7 0 1 2 o 30.398 43.690 -45.00 0.96901 0.00
4 3 9 2 o 210.013 192.451 136.70 0.96723 0.00
5 0 9 2 o 3673.762 3315.871 -45.00 0.96723 0.01
2 0 5 1 o 325.707 312.712 180.00 0.96661 0.05
3 2 11 2 o 2598.818 2540.961 -56.58 0.96634 0.01
6 2 4 1 o 388.481 378.229 0.00 0.96629 0.19
8 2 3 1 o 96.805 96.319 0.00 0.96604 0.04
10 0 1 1 o 2705.882 2721.635 180.00 0.96575 0.43
8 6 1 1 o 5.653 5.660 180.00 0.96575 0.00
10 2 0 1 o 679.812 685.739 0.00 0.96572 0.14
7 1 0 2 o 836.574 1334.224 180.00 0.96223 0.00
5 5 0 2 o 37.394 51.528 180.00 0.96223 0.00
2 1 5 1 o 123.778 192.375 180.00 0.96199 0.05
5 4 4 1 o 0.167 0.257 0.00 0.96167 0.00
6 3 4 2 o 152.720 179.547 -65.30 0.96381 0.00
8 5 2 1 o 4.241 6.241 180.00 0.96125 0.00
10 1 1 1 o 143.028 202.838 0.00 0.96114 0.06
7 0 2 2 o 54.160 61.041 0.00 0.96022 0.00
4 2 10 2 o 789.391 944.399 126.71 0.96005 0.00
7 1 1 2 o 1135.416 1555.662 -41.72 0.95933 0.01
5 5 1 2 o 100.690 122.039 90.00 0.95933 0.00
5 1 9 2 o 182.531 125.595 -135.15 0.95760 0.00
9 3 2 1 o 22.191 7.105 0.00 0.95670 0.01
9 5 0 1 o 850.785 553.530 0.00 0.95657 0.12
6 0 7 2 o 4050.482 3841.274 -45.00 0.95451 0.01
6 2 6 2 o 702.481 721.835 13.26 0.95385 0.00
5 5 2 2 o 0.264 0.349 0.00 0.95080 0.00
7 1 2 2 o 314.498 333.069 -92.20 0.95080 0.00
4 4 8 2 o 10609.324 10494.355 0.00 0.94954 0.03
2 2 5 1 o 23691.604 23762.705 180.00 0.94851 4.14
6 6 3 1 o 18709.053 18551.250 180.00 0.94797 3.32
2 2 12 2 o 9.355 9.302 0.00 0.94786 0.00
10 2 1 1 o 15273.172 15163.409 180.00 0.94770 5.42
7 0 3 2 o 67.135 64.746 45.00 0.94609 0.00
6 1 7 2 o 1047.644 1007.012 73.50 0.94526 0.01
5 4 6 2 o 43.699 41.473 -46.55 0.94462 0.00
6 3 4 1 o 144.735 134.886 180.00 0.94384 0.06
8 3 3 1 o 24.305 22.921 0.00 0.94361 0.01
6 4 0 2 o 1703.613 1614.462 180.00 0.94354 0.01
1 0 13 2 o 1446.758 1266.476 -45.00 0.94278 0.00
6 4 1 2 o 1595.073 1654.607 75.29 0.94081 0.01
3 1 5 1 o 134.053 140.466 180.00 0.93983 0.06
7 5 3 1 o 813.420 825.188 180.00 0.93931 0.34
9 5 1 1 o 8444.150 8580.602 0.00 0.93904 3.02
3 0 12 2 o 3201.057 3291.382 90.00 0.93879 0.01
6 3 5 2 o 4010.322 4161.933 130.37 0.93853 0.02
4 0 11 2 o 1565.918 1632.516 135.00 0.93837 0.00
5 5 3 2 o 93.135 93.920 -90.00 0.93707 0.00
7 1 3 2 o 937.081 949.724 30.64 0.93707 0.01
7 2 0 2 o 2261.635 1870.035 0.00 0.93460 0.01
1 1 13 2 o 204.825 198.851 -90.00 0.93385 0.00
6 4 2 2 o 8770.231 6888.710 87.59 0.93276 0.05
7 2 1 2 o 6289.161 4359.619 -136.31 0.93195 0.04
5 3 8 2 o 54.917 35.891 123.74 0.93157 0.00
5 2 9 2 o 139.013 171.350 71.15 0.93036 0.00
3 1 12 2 o 131.715 123.268 -175.35 0.92998 0.00
4 1 11 2 o 1496.468 1108.967 -20.44 0.92957 0.01
7 0 4 2 o 433.302 649.063 -90.00 0.92731 0.00
3 2 5 1 o 20.412 32.043 0.00 0.92725 0.01
9 4 2 1 o 4.304 4.531 180.00 0.92659 0.00
10 3 1 1 o 37.272 37.425 0.00 0.92650 0.02
7 2 2 2 o 624.606 611.618 -99.18 0.92412 0.00
7 1 4 1 o 2611.845 2571.252 0.00 0.92289 1.00
5 5 4 1 o 1713.849 1688.599 0.00 0.92289 0.31
7 7 2 1 o 8133.727 8088.213 180.00 0.92252 1.53
3 3 11 2 o 480.875 538.690 -90.00 0.92101 0.00
6 4 3 2 o 3098.518 3107.387 -73.16 0.91979 0.02
6 2 7 2 o 272.978 243.792 -114.30 0.91903 0.00
5 5 4 2 o 477.248 396.269 0.00 0.91882 0.00
7 1 4 2 o 1146.144 933.323 16.68 0.91882 0.01
2 0 13 2 o 252.269 215.775 -135.00 0.91674 0.00
4 3 10 2 o 628.615 619.173 17.83 0.91556 0.00
5 0 10 2 o 201.041 197.586 0.00 0.91556 0.00
4 0 5 1 o 2.777 1.885 180.00 0.91516 0.01
6 4 4 1 o 133.651 126.848 0.00 0.91489 0.05
8 4 3 1 o 28.351 25.275 180.00 0.91468 0.02
6 0 8 2 o 534.292 503.289 0.00 0.91458 0.00
10 0 2 1 o 3.365 3.224 180.00 0.91453 0.00
8 6 2 1 o 888.333 846.257 0.00 0.91453 0.33
10 4 0 1 o 26.751 25.712 180.00 0.91440 0.01
7 2 3 2 o 4482.833 4591.728 129.50 0.91150 0.03
4 1 5 1 o 321.194 324.225 0.00 0.91124 0.15
7 2 4 1 o 41.686 41.926 0.00 0.91097 0.02
5 4 7 2 o 97.507 99.805 113.07 0.91075 0.00
10 1 2 1 o 35.851 37.357 0.00 0.91061 0.02
8 7 1 1 o 177.017 187.203 0.00 0.91052 0.08
6 3 6 2 o 461.424 516.631 115.75 0.91018 0.00
2 1 13 2 o 1357.427 1322.742 138.22 0.90853 0.01
5 1 10 2 o 1301.215 1272.103 -26.07 0.90738 0.01
3 3 5 1 o 0.521 0.445 180.00 0.90736 0.00
9 1 3 1 o 4285.142 4168.454 0.00 0.90689 1.73
6 1 8 2 o 584.981 573.651 177.89 0.90643 0.00
4 4 9 2 o 3120.323 2993.505 90.00 0.90531 0.01
3 2 12 2 o 524.822 480.464 170.30 0.90497 0.00
7 0 5 2 o 168.459 152.442 -45.00 0.90473 0.00
4 2 11 2 o 8328.753 7378.766 56.02 0.90459 0.06
6 4 4 2 o 1356.869 1327.453 18.29 0.90251 0.01
4 2 5 1 o 32.323 32.699 180.00 0.89975 0.01
10 2 2 1 o 584.919 564.652 0.00 0.89915 0.29
10 4 1 1 o 1358.580 1323.711 180.00 0.89906 0.51
7 1 5 2 o 709.847 634.294 119.33 0.89684 0.01
5 5 5 2 o 9.342 5.617 90.00 0.89684 0.00
9 2 3 1 o 2.436 2.378 0.00 0.89557 0.00
7 6 3 1 o 15.509 15.142 0.00 0.89557 0.01
9 6 1 1 o 199.400 193.101 0.00 0.89534 0.10
7 2 4 2 o 1074.402 951.791 166.06 0.89467 0.01
7 3 0 2 o 2516.500 2485.569 0.00 0.89341 0.01
7 3 4 1 o 7153.319 7159.312 180.00 0.89208 3.19
9 5 2 1 o 1841.169 1829.941 0.00 0.89175 0.74
11 1 0 1 o 6404.865 6357.094 0.00 0.89164 1.47
7 3 1 2 o 64.286 63.400 4.50 0.89109 0.00
5 3 9 2 o 11.030 11.323 65.19 0.88970 0.00
