#------------------------------------------------------------------------------
#$Date: 2021-06-21 12:09:18 +0300 (Mon, 21 Jun 2021) $
#$Revision: 266608 $
#$URL: file:///home/coder/svn-repositories/cod/cif/1/56/36/1563639.cif $
#------------------------------------------------------------------------------
#
# This file is available in the Crystallography Open Database (COD),
# http://www.crystallography.net/
#
# All data on this site have been placed in the public domain by the
# contributors.
#
data_1563639
loop_
_publ_author_name
'Zubkov, Vladimir G.'
'Tarakina, Nadezda V.'
'Leonidov, Ivan I.'
'Tyutyunnik, Alexander P.'
'Surat, Ludmila L.'
'Melkozerova, Marina A.'
'Zabolotskaya, Elena V.'
'Kellerman, Dina G.'
_publ_section_title
;
 Synthesis and crystal structure of Ln2M2+Ge4O12, Ln=rare-earth element or
 Y; M=Ca, Mn, Zn
;
_journal_issue                   5
_journal_name_full               'Journal of Solid State Chemistry'
_journal_page_first              1186
_journal_page_last               1193
_journal_paper_doi               10.1016/j.jssc.2010.03.027
_journal_volume                  183
_journal_year                    2010
_chemical_formula_sum            'Ge4 Mn O12 Y2'
_chemical_formula_weight         715.10
_space_group_IT_number           125
_space_group_name_Hall           '-P 4a 2b'
_space_group_name_H-M_alt        'P 4/n b m :2'
_symmetry_cell_setting           tetragonal
_symmetry_space_group_name_H-M   'P 4/n b m :2'
_cell_angle_alpha                90.0
_cell_angle_beta                 90.0
_cell_angle_gamma                90.0
_cell_formula_units_Z            2
_cell_length_a                   9.88850(5)
_cell_length_b                   9.8885
_cell_length_c                   4.972714(29)
_cell_volume                     486.244(4)
_computing_structure_refinement  GSAS
_diffrn_radiation_polarisn_ratio 0.8
_diffrn_radiation_probe          x-ray
_diffrn_radiation_wavelength     1.54056
_exptl_absorpt_correction_T_max  4.38825
_exptl_absorpt_correction_T_min  2.03421
_exptl_absorpt_process_details
;   GSAS Absorption/surface roughness correction: function number 4
 Flat plate transmission absorption correction
Terms =    -0.45814         0.0000    
Correction is refined.
;
_pd_calc_method                  'Rietveld Refinement'
_pd_instr_location               ' ?'
_pd_meas_2theta_range_inc        0.02
_pd_meas_2theta_range_max        119.98
_pd_meas_2theta_range_min        5.0
_pd_meas_number_of_points        5750
_pd_proc_2theta_range_inc        0.02
_pd_proc_2theta_range_max        119.96958
_pd_proc_2theta_range_min        4.98958
_pd_proc_info_datetime           2010-02-27T12:32:32
_pd_proc_info_excluded_regions   ' ?'
_pd_proc_ls_background_function
;   GSAS Background function number 1 with 36 terms.
 Shifted Chebyshev function of 1st kind
      1:    3373.14     2:   -2052.27     3:    1517.82     4:   -753.526    
      5:    206.293     6:    7.76706     7:   -37.1827     8:    20.2691    
      9:    2.98291    10:   -48.5267    11:    45.9787    12:    10.9603    
     13:   -30.9443    14:    22.7050    15:   -10.9750    16:   -9.39011    
     17:    36.5990    18:   -36.2797    19:    7.05080    20:    13.5154    
     21:   -23.8259    22:    35.8775    23:   -35.7923    24:    6.37894    
     25:    16.9427    26:   -32.2370    27:    30.3239    28:   -28.9758    
     29:  -0.283556    30:    20.2038    31:   -27.3404    32:    17.9340    
     33:   -3.98818    34:   -13.2001    35:    23.5369    36:   -6.55863    
;
_pd_proc_ls_peak_cutoff          0.00100
_pd_proc_ls_profile_function
;
 CW Profile function number 2 with  18 terms
 Profile coefficients for Simpson's rule integration of pseudovoigt function
 C.J. Howard (1982). J. Appl. Cryst.,15,615-620.
 P. Thompson, D.E. Cox & J.B. Hastings (1987). J. Appl. Cryst.,20,79-83.
 #1(GU)   =    3.374 #2(GV)   =  -14.900 #3(GW)   =   23.913
 #4(LX)   =    0.350 #5(LY)   =   11.017 #6(trns) =    0.000
 #7(asym) =   0.5592 #8(shft) =   0.0000 #9(GP)   =    0.000
 #10(stec)=     0.00 #11(ptec)=     0.00 #12(sfec)=     0.00
 #13(L11) =    0.000 #14(L22) =    0.000 #15(L33) =    0.000
 #16(L12) =    0.000 #17(L13) =    0.000 #18(L23) =    0.000
 Peak tails are ignored  where the intensity is below 0.0010 times the peak
   Aniso. broadening axis   0.0   0.0   1.0
;
_pd_proc_ls_prof_R_factor        0.0190
_pd_proc_ls_prof_wR_expected     0.0173
_pd_proc_ls_prof_wR_factor       0.0265
_pd_proc_number_of_points        5750
_pd_spec_mounting                ' ?'
_refine_ls_goodness_of_fit_all   1.54
_refine_ls_matrix_type           full
_refine_ls_number_parameters     54
_refine_ls_number_restraints     0
_refine_ls_R_Fsqd_factor         0.02727
_refine_ls_shift/su_max          0.01
_refine_ls_shift/su_mean         0.00
_reflns_d_resolution_high        0.895
_reflns_d_resolution_low         6.992
_reflns_limit_h_max              11
_reflns_limit_h_min              0
_reflns_limit_k_max              7
_reflns_limit_k_min              0
_reflns_limit_l_max              5
_reflns_limit_l_min              0
_reflns_number_total             203
_cod_data_source_file            Y2MNGE4O12.cif
_cod_data_source_block           Y2MNGE4O12_publ
_cod_depositor_comments
;
The following automatic conversions were performed:

data item '_geom_angle_publ_flag' value 'N' was changed to 'n' in
accordance with the built-in table derived from the CIF Core
dictionary named 'cif_core.dic' version 2.4.5 last updated on
2014-11-21 (115 times).

data item '_geom_bond_publ_flag' value 'N' was changed to 'n' in
accordance with the built-in table derived from the CIF Core
dictionary named 'cif_core.dic' version 2.4.5 last updated on
2014-11-21 (56 times).

Automatic conversion script
Id: cif_fix_values 8369 2020-08-20 11:38:08Z andrius 
;
_cod_original_cell_volume        486.245(6)
_cod_original_sg_symbol_H-M      'P 4/n b m'
_cod_original_formula_sum        'Ge4 Mn1.00 O12 Y2.00'
_cod_database_code               1563639
_gsas_exptl_extinct_corr_t_min   1.00000
_gsas_exptl_extinct_corr_t_max   1.00000
loop_
_symmetry_equiv_pos_site_id
_symmetry_equiv_pos_as_xyz
1 +x,+y,+z
2 -y+1/2,+x,+z
3 -x+1/2,-y+1/2,+z
4 +y,-x+1/2,+z
5 -x,+y+1/2,+z
6 -y,-x,+z
7 +x+1/2,-y,+z
8 +y+1/2,+x+1/2,+z
-1 -x,-y,-z
-2 +y+1/2,-x,-z
-3 +x+1/2,+y+1/2,-z
-4 -y,+x+1/2,-z
-5 +x,-y+1/2,-z
-6 +y,+x,-z
-7 -x+1/2,+y,-z
-8 -y+1/2,-x+1/2,-z
loop_
_atom_site_type_symbol
_atom_site_label
_atom_site_fract_x
_atom_site_fract_y
_atom_site_fract_z
_atom_site_occupancy
_atom_site_thermal_displace_type
_atom_site_U_iso_or_equiv
_atom_site_symmetry_multiplicity
Mn Mn 0.0 0.0 0.5 0.5 Uiso 0.0190(7) 4
Y Y1 0.0 0.0 0.5 0.5 Uiso 0.0190(7) 4
Y Y2 0.25 0.25 0.5 1.0 Uiso 0.0150(7) 2
Ge GE 0.97819(8) 0.25 0.0 1.0 Uiso 0.0170(6) 8
O O1 0.13082(31) 0.86918(31) 0.8333(8) 1.0 Uiso 0.0095(14) 8
O O2 0.16891(29) 0.06256(28) 0.2571(6) 1.0 Uiso 0.0099(10) 16
loop_
_atom_type_symbol
_atom_type_number_in_cell
_atom_type_scat_dispersion_real
_atom_type_scat_dispersion_imag
_atom_type_scat_Cromer_Mann_a1
_atom_type_scat_Cromer_Mann_a2
_atom_type_scat_Cromer_Mann_a3
_atom_type_scat_Cromer_Mann_a4
_atom_type_scat_Cromer_Mann_b1
_atom_type_scat_Cromer_Mann_b2
_atom_type_scat_Cromer_Mann_b3
_atom_type_scat_Cromer_Mann_b4
_atom_type_scat_Cromer_Mann_c
_atom_type_scat_source
Mn 2.0 0.000 0.000 11.2819 5.34090 7.35730 0.34320 3.01930 17.8674 2.24410
83.7543 1.08960 International_Tables_Vol_C
Y 4.0 0.000 0.000 17.7760 1.40290 10.2946 12.8006 5.72629 0.12560 3.26588
104.354 1.91213 International_Tables_Vol_C
Ge 8.0 0.000 0.000 16.0816 2.85090 6.37470 0.25160 3.70680 11.4468 3.68300
54.7625 2.13130 International_Tables_Vol_C
O 24.0 0.000 0.000 3.04850 13.2771 2.28680 5.70110 1.54630 0.32390 0.86700
32.9089 0.25080 International_Tables_Vol_C
loop_
_geom_angle_atom_site_label_1
_geom_angle_atom_site_label_2
_geom_angle_atom_site_label_3
_geom_angle
_geom_angle_site_symmetry_1
_geom_angle_site_symmetry_2
_geom_angle_site_symmetry_3
_geom_angle_publ_flag
O2 Mn O2 97.54(15) 1_555 . 6_555 n
O2 Mn O2 180.0 1_555 . -1_556 n
O2 Mn O2 82.46(15) 1_555 . -6_556 n
O2 Mn O2 82.46(15) 6_555 . -1_556 n
O2 Mn O2 180.0 6_555 . -6_556 n
O2 Mn O2 97.54(15) -1_556 . -6_556 n
Y2 Y1 Y2 180.0 1_555 . 5_545 n
Y2 Y1 O1 89.9987 1_555 . 1_545 n
Y2 Y1 O1 90.0013 1_555 . -1_566 n
Y2 Y1 O2 41.23(7) 1_555 . 1_555 n
Y2 Y1 O2 138.77(7) 1_555 . 6_555 n
Y2 Y1 O2 138.77(7) 1_555 . -1_556 n
Y2 Y1 O2 41.23(7) 1_555 . -6_556 n
Y2 Y1 O1 90.0013 5_545 . 1_545 n
Y2 Y1 O1 89.9987 5_545 . -1_566 n
Y2 Y1 O2 138.77(7) 5_545 . 1_555 n
Y2 Y1 O2 41.23(7) 5_545 . 6_555 n
Y2 Y1 O2 41.23(7) 5_545 . -1_556 n
Y2 Y1 O2 138.77(7) 5_545 . -6_556 n
O1 Y1 O1 180.0 1_545 . -1_566 n
O1 Y1 O2 96.93(9) 1_545 . 1_555 n
O1 Y1 O2 96.94(9) 1_545 . 6_555 n
O1 Y1 O2 83.07(9) 1_545 . -1_556 n
O1 Y1 O2 83.06(9) 1_545 . -6_556 n
O1 Y1 O2 83.07(9) -1_566 . 1_555 n
O1 Y1 O2 83.06(9) -1_566 . 6_555 n
O1 Y1 O2 96.93(9) -1_566 . -1_556 n
O1 Y1 O2 96.94(9) -1_566 . -6_556 n
O2 Y1 O2 97.54(15) 1_555 . 6_555 n
O2 Y1 O2 180.0 1_555 . -1_556 n
O2 Y1 O2 82.46(15) 1_555 . -6_556 n
O2 Y1 O2 82.46(15) 6_555 . -1_556 n
O2 Y1 O2 180.0 6_555 . -6_556 n
O2 Y1 O2 97.54(15) -1_556 . -6_556 n
Y1 Y2 Y1 90.0 1_555 . 2_555 n
Y1 Y2 Y1 180.0 1_555 . 3_555 n
Y1 Y2 Y1 90.0 1_555 . 4_555 n
Y1 Y2 O2 37.07(8) 1_555 . 1_555 n
Y1 Y2 O2 108.42(6) 1_555 . 2_555 n
Y1 Y2 O2 142.93(8) 1_555 . 3_555 n
Y1 Y2 O2 71.58(6) 1_555 . 4_555 n
Y1 Y2 O2 108.42(6) 1_555 . -5_456 n
Y1 Y2 O2 37.07(8) 1_555 . -6_556 n
Y1 Y2 O2 71.58(6) 1_555 . -7_546 n
Y1 Y2 O2 142.93(8) 1_555 . -8_556 n
Y1 Y2 Y1 90.0 2_555 . 3_555 n
Y1 Y2 Y1 180.0 2_555 . 4_555 n
Y1 Y2 O2 71.58(6) 2_555 . 1_555 n
Y1 Y2 O2 37.07(8) 2_555 . 2_555 n
Y1 Y2 O2 108.42(6) 2_555 . 3_555 n
Y1 Y2 O2 142.93(8) 2_555 . 4_555 n
Y1 Y2 O2 142.93(8) 2_555 . -5_456 n
Y1 Y2 O2 108.42(6) 2_555 . -6_556 n
Y1 Y2 O2 37.07(8) 2_555 . -7_546 n
Y1 Y2 O2 71.58(6) 2_555 . -8_556 n
Y1 Y2 Y1 90.0 3_555 . 4_555 n
Y1 Y2 O2 142.93(8) 3_555 . 1_555 n
Y1 Y2 O2 71.58(6) 3_555 . 2_555 n
Y1 Y2 O2 37.07(8) 3_555 . 3_555 n
Y1 Y2 O2 108.42(6) 3_555 . 4_555 n
Y1 Y2 O2 71.58(6) 3_555 . -5_456 n
Y1 Y2 O2 142.93(8) 3_555 . -6_556 n
Y1 Y2 O2 108.42(6) 3_555 . -7_546 n
Y1 Y2 O2 37.07(8) 3_555 . -8_556 n
Y1 Y2 O2 108.42(6) 4_555 . 1_555 n
Y1 Y2 O2 142.93(8) 4_555 . 2_555 n
Y1 Y2 O2 71.58(6) 4_555 . 3_555 n
Y1 Y2 O2 37.07(8) 4_555 . 4_555 n
Y1 Y2 O2 37.07(8) 4_555 . -5_456 n
Y1 Y2 O2 71.58(6) 4_555 . -6_556 n
Y1 Y2 O2 142.93(8) 4_555 . -7_546 n
Y1 Y2 O2 108.42(6) 4_555 . -8_556 n
O2 Y2 O2 74.73(7) 1_555 . 2_555 n
O2 Y2 O2 118.24(15) 1_555 . 3_555 n
O2 Y2 O2 74.73(7) 1_555 . 4_555 n
O2 Y2 O2 140.15(13) 1_555 . -5_456 n
O2 Y2 O2 74.14(15) 1_555 . -6_556 n
O2 Y2 O2 76.06(13) 1_555 . -7_546 n
O2 Y2 O2 143.16(12) 1_555 . -8_556 n
O2 Y2 O2 74.73(7) 2_555 . 3_555 n
O2 Y2 O2 118.24(15) 2_555 . 4_555 n
O2 Y2 O2 143.16(12) 2_555 . -5_456 n
O2 Y2 O2 140.15(13) 2_555 . -6_556 n
O2 Y2 O2 74.14(15) 2_555 . -7_546 n
O2 Y2 O2 76.06(13) 2_555 . -8_556 n
O2 Y2 O2 74.73(7) 3_555 . 4_555 n
O2 Y2 O2 76.06(13) 3_555 . -5_456 n
O2 Y2 O2 143.16(12) 3_555 . -6_556 n
O2 Y2 O2 140.15(13) 3_555 . -7_546 n
O2 Y2 O2 74.14(15) 3_555 . -8_556 n
O2 Y2 O2 74.14(15) 4_555 . -5_456 n
O2 Y2 O2 76.06(13) 4_555 . -6_556 n
O2 Y2 O2 143.16(12) 4_555 . -7_546 n
O2 Y2 O2 140.15(13) 4_555 . -8_556 n
O2 Y2 O2 74.73(7) -5_456 . -6_556 n
O2 Y2 O2 118.24(15) -5_456 . -7_546 n
O2 Y2 O2 74.73(7) -5_456 . -8_556 n
O2 Y2 O2 74.73(7) -6_556 . -7_546 n
O2 Y2 O2 118.24(15) -6_556 . -8_556 n
O2 Y2 O2 74.73(7) -7_546 . -8_556 n
O1 GE O1 106.39(27) 4_554 . -1_666 n
O1 GE O2 109.08(17) 4_554 . 4_655 n
O1 GE O2 104.65(15) 4_554 . -6_655 n
O1 GE O2 104.65(15) -1_666 . 4_655 n
O1 GE O2 109.07(17) -1_666 . -6_655 n
O2 GE O2 122.13(23) 4_655 . -6_655 n
Y1 O1 GE 109.79(14) 1_565 . 2_556 n
Y1 O1 GE 109.79(14) 1_565 . 5_656 n
GE O1 GE 124.93(22) 2_556 . 5_656 n
Mn O2 Y1 0.0 1_555 . 1_555 n
Mn O2 Y2 101.70(11) 1_555 . 1_555 n
Mn O2 GE 129.64(17) 1_555 . 2_545 n
Y1 O2 Y2 101.70(11) 1_555 . 1_555 n
Y1 O2 GE 129.64(17) 1_555 . 2_545 n
Y2 O2 GE 127.10(17) 1_555 . 2_545 n
loop_
_geom_bond_atom_site_label_1
_geom_bond_atom_site_label_2
_geom_bond_distance
_geom_bond_site_symmetry_1
_geom_bond_site_symmetry_2
_geom_bond_publ_flag
Mn Y2 3.496110(20) . 1_555 n
Mn Y2 3.496110(20) . 5_545 n
Mn O1 2.469(4) . 1_545 n
Mn O1 2.469(4) . -1_566 n
Mn O2 2.1520(33) . 1_555 n
Mn O2 2.1520(33) . 6_555 n
Mn O2 2.1520(33) . -1_556 n
Mn O2 2.1520(33) . -6_556 n
Y1 Y2 3.496110(20) . 1_555 n
Y1 Y2 3.496110(20) . 5_545 n
Y1 GE 3.51282(5) . 1_455 n
Y1 GE 3.51282(5) . 1_456 n
Y1 GE 3.51282(5) . 2_545 n
Y1 GE 3.51282(5) . 2_546 n
Y1 GE 3.51282(5) . 5_645 n
Y1 GE 3.51282(5) . 5_646 n
Y1 GE 3.51282(5) . 6_565 n
Y1 GE 3.51282(5) . 6_566 n
Y1 O1 2.469(4) . 1_545 n
Y1 O1 2.469(4) . -1_566 n
Y1 O2 2.1520(33) . 1_555 n
Y1 O2 2.1520(33) . 6_555 n
Y1 O2 2.1520(33) . -1_556 n
Y1 O2 2.1520(33) . -6_556 n
Y2 Mn 3.496110(20) . 1_555 n
Y2 Mn 3.496110(20) . 2_555 n
Y2 Mn 3.496110(20) . 3_555 n
Y2 Mn 3.496110(20) . 4_555 n
Y2 Y1 3.496110(20) . 1_555 n
Y2 Y1 3.496110(20) . 2_555 n
Y2 Y1 3.496110(20) . 3_555 n
Y2 Y1 3.496110(20) . 4_555 n
Y2 O2 2.3531(29) . 1_555 n
Y2 O2 2.3531(29) . 2_555 n
Y2 O2 2.3531(29) . 3_555 n
Y2 O2 2.3531(29) . 4_555 n
Y2 O2 2.3531(29) . -5_556 n
Y2 O2 2.3531(29) . -6_556 n
Y2 O2 2.3531(29) . -7_556 n
Y2 O2 2.3531(29) . -8_556 n
GE Y1 3.51282(5) . 1_654 n
GE Y1 3.51282(5) . 1_655 n
GE Y1 3.51282(5) . 4_654 n
GE Y1 3.51282(5) . 4_655 n
GE O1 1.7994(18) . 4_554 n
GE O1 1.7994(18) . -1_666 n
GE O2 1.7244(27) . 4_655 n
GE O2 1.7244(27) . -6_655 n
O1 Mn 2.469(4) . 1_565 n
O1 Y1 2.469(4) . 1_565 n
O1 GE 1.7994(18) . 2_556 n
O1 GE 1.7994(18) . 5_656 n
O2 Mn 2.1520(33) . 1_555 n
O2 Y1 2.1520(33) . 1_555 n
O2 Y2 2.3531(29) . 1_555 n
O2 GE 1.7244(27) . 2_545 n
loop_
_pd_meas_counts_total
_pd_proc_ls_weight
_pd_proc_intensity_bkg_calc
_pd_calc_intensity_total
7881.0 0.0001269 7915.68848 7915.68848
7852.0 0.0001274 7900.97900 7900.97949
8027.0 0.0001246 7887.37939 7887.37939
7837.0 0.0001276 7874.79541 7874.79541
7805.0 0.0001281 7863.14111 7863.14160
7788.0 0.0001284 7852.33496 7852.33496
7880.0 0.0001269 7842.30029 7842.30029
7871.0 0.0001270 7832.96533 7832.96533
7828.0 0.0001277 7824.26318 7824.26318
7749.0 0.0001290 7816.13184 7816.13184
7799.0 0.0001282 7808.51123 7808.51172
7813.0 0.0001280 7801.34863 7801.34912
7792.0 0.0001283 7794.59229 7794.59229
7858.0 0.0001273 7788.19482 7788.19482
7890.0 0.0001267 7782.11328 7782.11328
7949.0 0.0001258 7776.30566 7776.30566
7621.0 0.0001312 7770.73584 7770.73633
7808.0 0.0001281 7765.36816 7765.36816
7596.0 0.0001316 7760.17041 7760.17041
7729.0 0.0001294 7755.11426 7755.11426
7844.0 0.0001275 7750.17090 7750.17139
7640.0 0.0001309 7745.31738 7745.31738
7833.0 0.0001277 7740.52930 7740.52930
7669.0 0.0001304 7735.78760 7735.78809
7744.0 0.0001291 7731.07275 7731.07275
7731.0 0.0001293 7726.36768 7726.36768
7779.0 0.0001286 7721.65820 7721.65820
7773.0 0.0001287 7716.92920 7716.92920
7600.0 0.0001316 7712.16992 7712.16992
7553.0 0.0001324 7707.36865 7707.36865
7710.0 0.0001297 7702.51660 7702.51660
7717.0 0.0001296 7697.60498 7697.60498
7738.0 0.0001292 7692.62646 7692.62646
7836.0 0.0001276 7687.57568 7687.57617
7686.0 0.0001301 7682.44727 7682.44727
7622.0 0.0001312 7677.23730 7677.23730
7806.0 0.0001281 7671.94141 7671.94141
7772.0 0.0001287 7666.55762 7666.55811
7572.0 0.0001321 7661.08496 7661.08496
7602.0 0.0001315 7655.52100 7655.52100
7805.0 0.0001281 7649.86572 7649.86572
7676.0 0.0001303 7644.11865 7644.11865
7586.0 0.0001318 7638.28076 7638.28076
7485.0 0.0001336 7632.35303 7632.35303
7653.0 0.0001307 7626.33594 7626.33594
7727.0 0.0001294 7620.23193 7620.23242
7583.0 0.0001319 7614.04297 7614.04297
7655.0 0.0001306 7607.77148 7607.77148
7616.0 0.0001313 7601.41943 7601.41943
7502.0 0.0001333 7594.99023 7594.99023
7635.0 0.0001310 7588.48730 7588.48730
7526.0 0.0001329 7581.91260 7581.91309
7680.0 0.0001302 7575.27100 7575.27100
7550.0 0.0001325 7568.56494 7568.56494
7562.0 0.0001322 7561.79834 7561.79834
7715.0 0.0001296 7554.97510 7554.97510
7558.0 0.0001323 7548.09863 7548.09863
7509.0 0.0001332 7541.17334 7541.17334
7452.0 0.0001342 7534.20166 7534.20166
7498.0 0.0001334 7527.18896 7527.18896
7610.0 0.0001314 7520.13770 7520.13721
7433.0 0.0001345 7513.05225 7513.05225
7498.0 0.0001334 7505.93652 7505.93652
7406.0 0.0001350 7498.79395 7498.79395
7548.0 0.0001325 7491.62842 7491.62842
7416.0 0.0001348 7484.44336 7484.44336
7417.0 0.0001348 7477.24170 7477.24170
7409.0 0.0001350 7470.02881 7470.02832
7529.0 0.0001328 7462.80518 7462.80518
7426.0 0.0001347 7455.57617 7455.57617
7373.0 0.0001356 7448.34424 7448.34424
7400.0 0.0001351 7441.11230 7441.11230
7453.0 0.0001342 7433.88330 7433.88330
7247.0 0.0001380 7426.66016 7426.65967
7515.0 0.0001331 7419.44580 7419.44580
7381.0 0.0001355 7412.24219 7412.24170
7416.0 0.0001348 7405.05273 7405.05225
7347.0 0.0001361 7397.87842 7397.87842
7385.0 0.0001354 7390.72266 7390.72266
7362.0 0.0001358 7383.58740 7383.58740
7419.0 0.0001348 7376.47412 7376.47412
7381.0 0.0001355 7369.38525 7369.38525
7428.0 0.0001346 7362.32227 7362.32227
7230.0 0.0001383 7355.28711 7355.28662
7227.0 0.0001384 7348.27979 7348.27979
7372.0 0.0001356 7341.30322 7341.30322
7277.0 0.0001374 7334.35938 7334.35938
7273.0 0.0001375 7327.44727 7327.44727
7248.0 0.0001380 7320.56982 7320.56982
7190.0 0.0001391 7313.72656 7313.72656
7331.0 0.0001364 7306.91943 7306.91943
7314.0 0.0001367 7300.14893 7300.14893
7438.0 0.0001344 7293.41504 7293.41504
7302.0 0.0001369 7286.71924 7286.71924
7330.0 0.0001364 7280.06152 7280.06104
7338.0 0.0001363 7273.44238 7273.44189
7308.0 0.0001368 7266.86133 7266.86084
7349.0 0.0001361 7260.31934 7260.31885
7215.0 0.0001386 7253.81641 7253.81641
7233.0 0.0001383 7247.35254 7247.35254
7200.0 0.0001389 7240.92871 7240.92822
7228.0 0.0001384 7234.54248 7234.54248
7332.0 0.0001364 7228.19531 7228.19531
7190.0 0.0001391 7221.88672 7221.88672
7272.0 0.0001375 7215.61621 7215.61621
7155.0 0.0001398 7209.38428 7209.38428
7225.0 0.0001384 7203.18896 7203.18896
7255.0 0.0001378 7197.03125 7197.03076
7212.0 0.0001387 7190.90918 7190.90869
7112.0 0.0001406 7184.82324 7184.82275
7115.0 0.0001405 7178.77295 7178.77246
7119.0 0.0001405 7172.75684 7172.75684
7295.0 0.0001371 7166.77490 7166.77490
7221.0 0.0001385 7160.82617 7160.82617
6983.0 0.0001432 7154.91016 7154.91016
7076.0 0.0001413 7149.02637 7149.02588
7254.0 0.0001379 7143.17285 7143.17285
7254.0 0.0001379 7137.35059 7137.35010
7181.0 0.0001393 7131.55664 7131.55664
7206.0 0.0001388 7125.79199 7125.79150
7125.0 0.0001404 7120.05518 7120.05518
7137.0 0.0001401 7114.34473 7114.34473
7262.0 0.0001377 7108.66113 7108.66113
7030.0 0.0001422 7103.00244 7103.00244
6978.0 0.0001433 7097.36865 7097.36865
7093.0 0.0001410 7091.75781 7091.75781
7117.0 0.0001405 7086.16943 7086.16943
7102.0 0.0001408 7080.60352 7080.60352
7223.0 0.0001384 7075.05859 7075.05859
7127.0 0.0001403 7069.53369 7069.53369
7088.0 0.0001411 7064.02832 7064.02832
7177.0 0.0001393 7058.54150 7058.54150
7119.0 0.0001405 7053.07227 7053.07227
7161.0 0.0001396 7047.62012 7047.61963
7130.0 0.0001403 7042.18408 7042.18408
6842.0 0.0001462 7036.76367 7036.76318
7070.0 0.0001414 7031.35791 7031.35791
7088.0 0.0001411 7025.96582 7025.96582
7090.0 0.0001410 7020.58740 7020.58740
6875.0 0.0001455 7015.22217 7015.22168
7025.0 0.0001423 7009.86816 7009.86816
7157.0 0.0001397 7004.52637 7004.52637
7093.0 0.0001410 6999.19482 6999.19482
7074.0 0.0001414 6993.87354 6993.87354
6813.0 0.0001468 6988.56201 6988.56201
6811.0 0.0001468 6983.25977 6983.25977
6953.0 0.0001438 6977.96680 6977.96631
7022.0 0.0001424 6972.68115 6972.68115
6999.0 0.0001429 6967.40430 6967.40430
6937.0 0.0001442 6962.13379 6962.13379
6916.0 0.0001446 6956.87109 6956.87061
6844.0 0.0001461 6951.61475 6951.61475
6860.0 0.0001458 6946.36475 6946.36475
6979.0 0.0001433 6941.12109 6941.12061
7082.0 0.0001412 6935.88281 6935.88281
6967.0 0.0001435 6930.65039 6930.64990
7085.0 0.0001411 6925.42334 6925.42334
6951.0 0.0001439 6920.20117 6920.20068
6897.0 0.0001450 6914.98438 6914.98438
6899.0 0.0001449 6909.77197 6909.77197
6878.0 0.0001454 6904.56543 6904.56494
6873.0 0.0001455 6899.36279 6899.36230
6884.0 0.0001453 6894.16455 6894.16455
6971.0 0.0001435 6888.97168 6888.97168
6795.0 0.0001472 6883.78320 6883.78320
6817.0 0.0001467 6878.59961 6878.59961
6990.0 0.0001431 6873.42041 6873.42041
7013.0 0.0001426 6868.24658 6868.24609
6854.0 0.0001459 6863.07764 6863.07715
6821.0 0.0001466 6857.91309 6857.91309
6833.0 0.0001463 6852.75439 6852.75439
6872.0 0.0001455 6847.60107 6847.60107
6941.0 0.0001441 6842.45361 6842.45361
6803.0 0.0001470 6837.31152 6837.31152
6720.0 0.0001488 6832.17578 6832.17578
6926.0 0.0001444 6827.04590 6827.04590
6897.0 0.0001450 6821.92236 6821.92236
6928.0 0.0001443 6816.80664 6816.80664
6763.0 0.0001479 6811.69727 6811.69727
6781.0 0.0001475 6806.59619 6806.59570
6869.0 0.0001456 6801.50195 6801.50195
6714.0 0.0001489 6796.41650 6796.41602
6750.0 0.0001481 6791.33936 6791.33887
6707.0 0.0001491 6786.27100 6786.27051
6754.0 0.0001481 6781.21143 6781.21143
6707.0 0.0001491 6776.16211 6776.16211
6817.0 0.0001467 6771.12256 6771.12256
6606.0 0.0001514 6766.09375 6766.09375
6798.0 0.0001471 6761.07568 6761.07520
6742.0 0.0001483 6756.06885 6756.06836
6643.0 0.0001505 6751.07324 6751.07324
6784.0 0.0001474 6746.09033 6746.09033
6751.0 0.0001481 6741.11963 6741.11963
6574.0 0.0001521 6736.16162 6736.16162
6578.0 0.0001520 6731.21777 6731.21777
6479.0 0.0001543 6726.28711 6726.28711
6679.0 0.0001497 6721.37158 6721.37109
6795.0 0.0001472 6716.47021 6716.46973
6705.0 0.0001491 6711.58350 6711.58350
6620.0 0.0001511 6706.71338 6706.71338
6651.0 0.0001504 6701.85840 6701.85840
6783.0 0.0001474 6697.02100 6697.02051
6573.0 0.0001521 6692.19922 6692.19922
6692.0 0.0001494 6687.39551 6687.39551
6735.0 0.0001485 6682.60986 6682.60938
6643.0 0.0001505 6677.84131 6677.84131
6633.0 0.0001508 6673.09229 6673.09229
6624.0 0.0001510 6668.36182 6668.36182
6524.0 0.0001533 6663.65088 6663.65088
6619.0 0.0001511 6658.95947 6658.95898
6601.0 0.0001515 6654.28760 6654.28760
6635.0 0.0001507 6649.63721 6649.63672
6650.0 0.0001504 6645.00684 6645.00635
6650.0 0.0001504 6640.39795 6640.39746
6498.0 0.0001539 6635.81006 6635.81006
6610.0 0.0001513 6631.24414 6631.24365
6744.0 0.0001483 6626.70020 6626.69971
6606.0 0.0001514 6622.17822 6622.17822
6670.0 0.0001499 6617.67920 6617.67920
6708.0 0.0001491 6613.20264 6613.20264
6647.0 0.0001504 6608.75000 6608.74951
6468.0 0.0001546 6604.31934 6604.31934
6412.0 0.0001560 6599.91260 6599.91260
6513.0 0.0001535 6595.52979 6595.52979
6583.0 0.0001519 6591.17041 6591.17041
6548.0 0.0001527 6586.83545 6586.83496
6594.0 0.0001517 6582.52393 6582.52393
6646.0 0.0001505 6578.23682 6578.23633
6522.0 0.0001533 6573.97412 6573.97412
6566.0 0.0001523 6569.73535 6569.73535
6544.0 0.0001528 6565.52197 6565.52148
6482.0 0.0001543 6561.33203 6561.33203
6486.0 0.0001542 6557.16650 6557.16650
6627.0 0.0001509 6553.02637 6553.02637
6732.0 0.0001485 6548.91016 6548.91016
6581.0 0.0001520 6544.81885 6544.81836
6402.0 0.0001562 6540.75098 6540.75098
6587.0 0.0001518 6536.70850 6536.70801
6442.0 0.0001552 6532.68896 6532.68896
6643.0 0.0001505 6528.69482 6528.69434
6542.0 0.0001529 6524.72314 6524.72314
6497.0 0.0001539 6520.77637 6520.77588
6494.0 0.0001540 6516.85254 6516.85254
6578.0 0.0001520 6512.95215 6512.95215
6537.0 0.0001530 6509.07520 6509.07520
6507.0 0.0001537 6505.22119 6505.22119
6649.0 0.0001504 6501.38916 6501.38916
6435.0 0.0001554 6497.58057 6497.58057
6612.0 0.0001512 6493.79346 6493.79346
6515.0 0.0001535 6490.02832 6490.02832
6436.0 0.0001554 6486.28418 6486.28418
6500.0 0.0001538 6482.56104 6482.56104
6528.0 0.0001532 6478.85938 6478.85938
6373.0 0.0001569 6475.17773 6475.17725
6394.0 0.0001564 6471.51563 6471.51563
6444.0 0.0001552 6467.87305 6467.87305
6426.0 0.0001556 6464.25000 6464.25000
6380.0 0.0001567 6460.64502 6460.64502
6556.0 0.0001525 6457.05811 6457.05811
6416.0 0.0001559 6453.48877 6453.48877
6443.0 0.0001552 6449.93652 6449.93652
6579.0 0.0001520 6446.40088 6446.40088
6541.0 0.0001529 6442.88086 6442.88086
6431.0 0.0001555 6439.37646 6439.37598
6351.0 0.0001575 6435.88672 6435.88672
6336.0 0.0001578 6432.41113 6432.41113
6341.0 0.0001577 6428.94922 6428.94922
6356.0 0.0001573 6425.50049 6425.50049
6440.0 0.0001553 6422.06396 6422.06396
6565.0 0.0001523 6418.63867 6418.63867
6612.0 0.0001512 6415.22461 6415.22461
6378.0 0.0001568 6411.82129 6411.82129
6489.0 0.0001541 6408.42676 6408.42676
6468.0 0.0001546 6405.04199 6405.04199
6462.0 0.0001548 6401.66504 6401.66455
6403.0 0.0001562 6398.29492 6398.29492
6439.0 0.0001553 6394.93213 6394.93213
6452.0 0.0001550 6391.57520 6391.57520
6504.0 0.0001538 6388.22363 6388.22363
6415.0 0.0001559 6384.87646 6384.87646
6547.0 0.0001527 6381.53223 6381.53223
6396.0 0.0001563 6378.19189 6378.19189
6330.0 0.0001580 6374.85303 6374.85303
6357.0 0.0001573 6371.51611 6371.51611
6497.0 0.0001539 6368.17920 6368.17920
6398.0 0.0001563 6364.84229 6364.84229
6475.0 0.0001544 6361.50342 6361.50342
6548.0 0.0001527 6358.16309 6358.16309
6447.0 0.0001551 6354.81982 6354.81982
6316.0 0.0001583 6351.47314 6351.47314
6363.0 0.0001572 6348.12207 6348.12207
6304.0 0.0001586 6344.76514 6344.76514
6458.0 0.0001548 6341.40234 6341.40234
6532.0 0.0001531 6338.03271 6338.03271
6350.0 0.0001575 6334.65479 6334.65479
6433.0 0.0001554 6331.26904 6331.26904
6317.0 0.0001583 6327.87305 6327.87305
6401.0 0.0001562 6324.46680 6324.46729
6316.0 0.0001583 6321.04932 6321.04932
6363.0 0.0001572 6317.62012 6317.62012
6287.0 0.0001591 6314.17773 6314.17773
6285.0 0.0001591 6310.72119 6310.72168
6277.0 0.0001593 6307.25098 6307.25098
6381.0 0.0001567 6303.76465 6303.76465
6370.0 0.0001570 6300.26270 6300.26270
6293.0 0.0001589 6296.74316 6296.74316
6363.0 0.0001572 6293.20557 6293.20557
6539.0 0.0001529 6289.64990 6289.64990
6390.0 0.0001565 6286.07422 6286.07422
6426.0 0.0001556 6282.47803 6282.47803
6352.0 0.0001574 6278.86182 6278.86182
6296.0 0.0001588 6275.22266 6275.22266
6348.0 0.0001575 6271.56152 6271.56152
6437.0 0.0001554 6267.87598 6267.87646
6342.0 0.0001577 6264.16699 6264.16748
6289.0 0.0001590 6260.43311 6260.43311
6312.0 0.0001584 6256.67334 6256.67334
6255.0 0.0001599 6252.88672 6252.88672
6231.0 0.0001605 6249.07324 6249.07324
6268.0 0.0001595 6245.23193 6245.23193
6139.0 0.0001629 6241.36133 6241.36182
6232.0 0.0001605 6237.46240 6237.46240
6120.0 0.0001634 6233.53320 6233.53320
6237.0 0.0001603 6229.57275 6229.57275
6166.0 0.0001622 6225.58154 6225.58203
6295.0 0.0001589 6221.55811 6221.55811
6255.0 0.0001599 6217.50244 6217.50244
6176.0 0.0001619 6213.41357 6213.41357
6098.0 0.0001640 6209.29053 6209.29053
6089.0 0.0001642 6205.13379 6205.13379
6116.0 0.0001635 6200.94092 6200.94092
6163.0 0.0001623 6196.71387 6196.71387
6066.0 0.0001649 6192.44971 6192.45020
6094.0 0.0001641 6188.14990 6188.14990
6203.0 0.0001612 6183.81201 6183.81201
6147.0 0.0001627 6179.43701 6179.43701
6149.0 0.0001626 6175.02393 6175.02441
6139.0 0.0001629 6170.57275 6170.57275
6148.0 0.0001627 6166.08203 6166.08203
6081.0 0.0001644 6161.55225 6161.55225
6058.0 0.0001651 6156.98242 6156.98242
6140.0 0.0001629 6152.37256 6152.37256
6008.0 0.0001664 6147.72168 6147.72217
6033.0 0.0001658 6143.03076 6143.03076
6020.0 0.0001661 6138.29785 6138.29785
6115.0 0.0001635 6133.52393 6133.52393
6082.0 0.0001644 6128.70801 6128.70801
6103.0 0.0001639 6123.85010 6128.82813
6026.0 0.0001659 6118.94922 6124.21729
6040.0 0.0001656 6114.00586 6119.59033
6088.0 0.0001643 6109.02002 6114.94971
6091.0 0.0001642 6103.99072 6110.29883
6127.0 0.0001632 6098.91797 6105.64209
5997.0 0.0001668 6093.80273 6100.98438
6085.0 0.0001643 6088.64355 6096.33154
5875.0 0.0001702 6083.44092 6091.69043
5911.0 0.0001692 6078.19385 6087.06836
5912.0 0.0001691 6072.90283 6082.47607
6077.0 0.0001646 6067.56885 6077.92627
6006.0 0.0001665 6062.19043 6073.43115
5908.0 0.0001693 6056.76855 6069.01025
6124.0 0.0001633 6051.30176 6064.68457
6006.0 0.0001665 6045.79199 6060.48047
6073.0 0.0001647 6040.23779 6056.43213
6007.0 0.0001665 6034.64014 6052.58203
6112.0 0.0001636 6028.99805 6048.98389
6013.0 0.0001663 6023.31250 6045.70850
5965.0 0.0001676 6017.58398 6042.84766
5980.0 0.0001672 6011.81152 6040.52344
5984.0 0.0001671 6005.99609 6038.90527
6194.0 0.0001614 6000.13721 6038.23975
6079.0 0.0001645 5994.23535 6038.96484
6239.0 0.0001603 5988.29199 6042.10840
6249.0 0.0001600 5982.30518 6050.62305
6432.0 0.0001555 5976.27686 6073.14941
6514.0 0.0001535 5970.20654 6132.28955
6671.0 0.0001499 5964.09424 6277.47852
7219.0 0.0001385 5957.94141 6594.38770
7604.0 0.0001315 5951.74707 7190.42822
8317.0 0.0001202 5945.51318 8135.00830
9197.0 0.0001087 5939.23828 9364.54492
10279.0 0.0000973 5932.92383 10614.45020
11272.0 0.0000887 5926.57031 11460.92090
11360.0 0.0000880 5920.17773 11525.82227
10421.0 0.0000960 5913.74658 10769.80176
9204.0 0.0001086 5907.27734 9535.56934
8152.0 0.0001227 5900.77100 8262.77344
7306.0 0.0001369 5894.22754 7249.74463
6600.0 0.0001515 5887.64746 6589.41455
6152.0 0.0001625 5881.03174 6225.46387
6045.0 0.0001654 5874.38037 6049.61426
5981.0 0.0001672 5867.69482 5970.02490
5868.0 0.0001704 5860.97412 5931.87158
5916.0 0.0001690 5854.22070 5909.57275
5822.0 0.0001718 5847.43408 5893.25830
5849.0 0.0001710 5840.61523 5879.56738
5861.0 0.0001706 5833.76465 5867.35645
5752.0 0.0001739 5826.88281 5856.15283
5636.0 0.0001774 5819.97119 5845.69678
5695.0 0.0001756 5813.02930 5835.81152
5737.0 0.0001743 5806.05859 5826.37061
5716.0 0.0001749 5799.06006 5817.28027
5775.0 0.0001732 5792.03418 5808.46729
5784.0 0.0001729 5784.98193 5799.87695
5857.0 0.0001707 5777.90332 5791.46533
5933.0 0.0001685 5770.79932 5783.19824
5789.0 0.0001727 5763.67188 5775.05078
5885.0 0.0001699 5756.52002 5766.99902
5564.0 0.0001797 5749.34619 5759.02832
5596.0 0.0001787 5742.15039 5751.12207
5785.0 0.0001729 5734.93359 5743.27002
5616.0 0.0001781 5727.69629 5735.46240
5692.0 0.0001757 5720.43994 5727.69238
5754.0 0.0001738 5713.16553 5719.95313
5539.0 0.0001805 5705.87305 5712.23926
5474.0 0.0001827 5698.56445 5704.54736
5645.0 0.0001771 5691.23975 5696.87256
5730.0 0.0001745 5683.90039 5689.21289
5679.0 0.0001761 5676.54736 5676.54736
5615.0 0.0001781 5669.18115 5669.18115
5649.0 0.0001770 5661.80322 5661.80322
5635.0 0.0001775 5654.41357 5654.41406
5515.0 0.0001813 5647.01465 5647.01514
5584.0 0.0001791 5639.60645 5639.60645
5501.0 0.0001818 5632.18994 5632.18994
5537.0 0.0001806 5624.76611 5624.76611
5452.0 0.0001834 5617.33594 5617.33594
5598.0 0.0001786 5609.90088 5609.90137
5520.0 0.0001812 5602.46143 5602.46143
5521.0 0.0001811 5595.01904 5595.01904
5563.0 0.0001798 5587.57422 5587.57422
5482.0 0.0001824 5580.12793 5580.12793
5524.0 0.0001810 5572.68164 5572.68164
5449.0 0.0001835 5565.23633 5565.23633
5499.0 0.0001819 5557.79248 5557.79248
5450.0 0.0001835 5550.35156 5550.35156
5548.0 0.0001802 5542.91455 5542.91455
5548.0 0.0001802 5535.48291 5535.48291
5519.0 0.0001812 5528.05615 5528.05615
5573.0 0.0001794 5520.63721 5520.63721
5526.0 0.0001810 5513.22559 5513.22559
5442.0 0.0001838 5505.82324 5505.82324
5543.0 0.0001804 5498.43066 5498.43066
5379.0 0.0001859 5491.04932 5491.04932
5444.0 0.0001837 5483.68018 5483.68018
5516.0 0.0001813 5476.32373 5476.32373
5477.0 0.0001826 5468.98145 5468.98145
5515.0 0.0001813 5461.65430 5461.65430
5476.0 0.0001826 5454.34277 5454.34277
5432.0 0.0001841 5447.04932 5447.04932
5382.0 0.0001858 5439.77344 5439.77344
5389.0 0.0001856 5432.51660 5432.51660
5418.0 0.0001846 5425.28027 5425.28027
5289.0 0.0001891 5418.06445 5418.06445
5295.0 0.0001889 5410.87207 5410.87207
5341.0 0.0001872 5403.70166 5403.70166
5449.0 0.0001835 5396.55615 5396.55615
5414.0 0.0001847 5389.43506 5389.43506
5536.0 0.0001806 5382.34082 5382.34082
5365.0 0.0001864 5375.27295 5375.27295
5355.0 0.0001867 5368.23340 5368.23291
5388.0 0.0001856 5361.22266 5361.22266
5290.0 0.0001890 5354.24219 5354.24219
5345.0 0.0001871 5347.29248 5347.29248
5388.0 0.0001856 5340.37451 5340.37451
5364.0 0.0001864 5333.48877 5333.48877
5313.0 0.0001882 5326.63770 5326.63770
5378.0 0.0001859 5319.82031 5319.82031
5325.0 0.0001878 5313.03955 5313.03955
5345.0 0.0001871 5306.29395 5306.29395
5309.0 0.0001884 5299.58691 5299.58643
5421.0 0.0001845 5292.91650 5292.91650
5277.0 0.0001895 5286.28662 5286.28662
5224.0 0.0001914 5279.69531 5279.69531
5215.0 0.0001918 5273.14551 5273.14502
5358.0 0.0001866 5266.63672 5266.63672
5345.0 0.0001871 5260.17041 5260.17041
5237.0 0.0001909 5253.74756 5253.74756
5407.0 0.0001849 5247.36865 5247.36865
5358.0 0.0001866 5241.03467 5241.03467
5333.0 0.0001875 5234.74609 5234.74609
5235.0 0.0001910 5228.50391 5228.50391
5328.0 0.0001877 5222.30859 5222.30811
5224.0 0.0001914 5216.16113 5216.16113
5288.0 0.0001891 5210.06250 5210.06250
5297.0 0.0001888 5204.01318 5204.01318
5264.0 0.0001900 5198.01318 5198.01318
5256.0 0.0001903 5192.06494 5192.06494
5197.0 0.0001924 5186.16699 5186.16699
5328.0 0.0001877 5180.32227 5180.32178
5254.0 0.0001903 5174.52881 5174.52881
5332.0 0.0001875 5168.78955 5168.78955
5461.0 0.0001831 5163.10400 5163.10400
5409.0 0.0001849 5157.47314 5157.47314
5212.0 0.0001919 5151.89697 5151.89697
5208.0 0.0001920 5146.37695 5146.37695
5194.0 0.0001925 5140.91260 5140.91260
5238.0 0.0001909 5135.50586 5135.50586
5209.0 0.0001920 5130.15576 5130.15576
5088.0 0.0001965 5124.86426 5124.86426
5258.0 0.0001902 5119.63037 5119.63037
5219.0 0.0001916 5114.45557 5114.45557
5324.0 0.0001878 5109.34033 5109.34033
5156.0 0.0001939 5104.28467 5104.28467
5167.0 0.0001935 5099.28955 5099.28955
5111.0 0.0001957 5094.35449 5094.35449
5236.0 0.0001910 5089.48096 5089.48096
5092.0 0.0001964 5084.66846 5084.66846
5125.0 0.0001951 5079.91797 5079.91797
5134.0 0.0001948 5075.22998 5075.22998
5176.0 0.0001932 5070.60400 5070.60400
5097.0 0.0001962 5066.04102 5066.04102
5077.0 0.0001970 5061.54150 5061.54102
5155.0 0.0001940 5057.10498 5057.10449
5023.0 0.0001991 5052.73242 5052.73242
5072.0 0.0001972 5048.42334 5048.42334
5011.0 0.0001996 5044.17920 5044.17920
4964.0 0.0002015 5039.99902 5039.99902
4989.0 0.0002004 5035.88379 5035.88379
4969.0 0.0002012 5031.83301 5031.83301
5020.0 0.0001992 5027.84717 5027.84717
5002.0 0.0001999 5023.92725 5023.92725
5032.0 0.0001987 5020.07178 5020.07178
4926.0 0.0002030 5016.28223 5016.28223
5081.0 0.0001968 5012.55811 5012.55811
5144.0 0.0001944 5008.89941 5008.89941
5047.0 0.0001981 5005.30664 5005.30664
5113.0 0.0001956 5001.77930 5001.77930
5071.0 0.0001972 4998.31836 4998.31836
4950.0 0.0002020 4994.92285 4994.92236
4938.0 0.0002025 4991.59277 4991.59277
5123.0 0.0001952 4988.32910 4988.32910
5144.0 0.0001944 4985.13086 4985.13086
5054.0 0.0001979 4981.99854 4981.99854
5020.0 0.0001992 4978.93164 4978.93164
5084.0 0.0001967 4975.93066 4975.93066
5098.0 0.0001962 4972.99463 4972.99463
5116.0 0.0001955 4970.12451 4970.12451
4979.0 0.0002008 4967.31934 4967.31934
5042.0 0.0001983 4964.57910 4964.57910
4979.0 0.0002008 4961.90430 4961.90381
4970.0 0.0002012 4959.29346 4959.29346
4974.0 0.0002010 4956.74756 4956.74756
4977.0 0.0002009 4954.26611 4954.26611
5000.0 0.0002000 4951.84863 4951.84863
5025.0 0.0001990 4949.49561 4949.49561
4957.0 0.0002017 4947.20557 4947.20557
4953.0 0.0002019 4944.97900 4944.97900
4974.0 0.0002010 4942.81543 4942.81543
4953.0 0.0002019 4940.71484 4940.71484
4986.0 0.0002006 4938.67627 4938.67627
4964.0 0.0002015 4936.70020 4936.70020
5081.0 0.0001968 4934.78516 4934.78516
4958.0 0.0002017 4932.93262 4932.93262
5090.0 0.0001965 4931.14063 4931.14063
4954.0 0.0002019 4929.40869 4929.40869
4968.0 0.0002013 4927.73730 4927.73730
5066.0 0.0001974 4926.12598 4926.12598
4781.0 0.0002092 4924.57324 4924.57324
4847.0 0.0002063 4923.08008 4923.08008
4974.0 0.0002010 4921.64502 4921.64502
4835.0 0.0002068 4920.26807 4920.26807
5019.0 0.0001992 4918.94824 4918.94824
4980.0 0.0002008 4917.68506 4917.68506
4934.0 0.0002027 4916.47852 4916.47852
4765.0 0.0002099 4915.32861 4915.32813
4883.0 0.0002048 4914.23340 4914.23340
4920.0 0.0002033 4913.19287 4913.19287
4921.0 0.0002032 4912.20654 4912.20605
4836.0 0.0002068 4911.27393 4911.27393
4982.0 0.0002007 4910.39404 4910.39404
4866.0 0.0002055 4909.56689 4909.56689
4938.0 0.0002025 4908.79150 4908.79102
4929.0 0.0002029 4908.06738 4908.06689
4930.0 0.0002028 4907.39307 4907.39307
5012.0 0.0001995 4906.76904 4906.76904
4981.0 0.0002008 4906.19434 4906.19434
4862.0 0.0002057 4905.66797 4905.66797
4806.0 0.0002081 4905.18945 4905.18945
4974.0 0.0002010 4904.75781 4904.75781
4978.0 0.0002009 4904.37256 4904.37256
4869.0 0.0002054 4904.03369 4904.03320
4773.0 0.0002095 4903.73877 4903.73877
4865.0 0.0002055 4903.48877 4903.48877
4764.0 0.0002099 4903.28174 4903.28174
4744.0 0.0002108 4903.11816 4903.11768
4683.0 0.0002135 4902.99609 4902.99561
4913.0 0.0002035 4902.91504 4902.91504
4920.0 0.0002033 4902.87451 4902.87451
4813.0 0.0002078 4902.87354 4902.87354
4732.0 0.0002113 4902.91162 4902.91162
4948.0 0.0002021 4902.98730 4902.98730
4861.0 0.0002057 4903.10010 4903.10010
4747.0 0.0002107 4903.25000 4903.25000
4863.0 0.0002056 4903.43457 4903.43457
4812.0 0.0002078 4903.65479 4903.65479
4839.0 0.0002067 4903.90820 4905.80371
4921.0 0.0002032 4904.19434 4906.17627
4705.0 0.0002125 4904.51318 4906.58691
4851.0 0.0002061 4904.86328 4907.03564
4878.0 0.0002050 4905.24365 4907.52197
4987.0 0.0002005 4905.65381 4909.79541
4815.0 0.0002077 4906.09229 4910.43604
4881.0 0.0002049 4906.55859 4911.11865
5014.0 0.0001994 4907.05176 4911.84521
4812.0 0.0002078 4907.57129 4912.61670
4830.0 0.0002070 4908.11572 4913.43359
4852.0 0.0002061 4908.68457 4914.29688
4894.0 0.0002043 4909.27637 4915.20898
4846.0 0.0002064 4909.89063 4916.17188
4923.0 0.0002031 4910.52686 4917.18848
4774.0 0.0002095 4911.18262 4918.25977
4763.0 0.0002100 4911.85938 4919.39307
4747.0 0.0002107 4912.55420 4920.58984
4849.0 0.0002062 4913.26660 4921.85596
4822.0 0.0002074 4913.99609 4923.19922
4804.0 0.0002082 4914.74170 4924.62646
4766.0 0.0002098 4915.50244 4926.14844
4868.0 0.0002054 4916.27734 4927.77588
4744.0 0.0002108 4917.06543 4929.52393
4741.0 0.0002109 4917.86523 4931.40869
4844.0 0.0002064 4918.67676 4933.45508
4803.0 0.0002082 4919.49902 4935.68945
4766.0 0.0002098 4920.33008 4938.14648
4910.0 0.0002037 4921.16992 4940.87158
4788.0 0.0002089 4922.01758 4943.92139
4821.0 0.0002074 4922.87158 4947.37061
4860.0 0.0002058 4923.73145 4951.31787
4777.0 0.0002093 4924.59570 4955.89795
4892.0 0.0002044 4925.46484 4961.30713
4881.0 0.0002049 4926.33594 4967.87305
4906.0 0.0002038 4927.20947 4976.31934
4827.0 0.0002072 4928.08398 4988.56299
4840.0 0.0002066 4928.95850 5009.83350
5064.0 0.0001975 4929.83252 5052.97998
5115.0 0.0001955 4930.70459 5144.39258
5497.0 0.0001819 4931.57422 5326.73877
5785.0 0.0001729 4932.44043 5648.83057
6111.0 0.0001636 4933.30176 6135.91895
6848.0 0.0001460 4934.15820 6750.95996
7448.0 0.0001343 4935.00830 7376.29834
7769.0 0.0001287 4935.85107 7845.15234
8079.0 0.0001238 4936.68604 8046.39941
7861.0 0.0001272 4937.51172 8039.79834
7755.0 0.0001289 4938.32764 7984.13135
7744.0 0.0001291 4939.13330 7956.50732
7682.0 0.0001302 4939.92725 7884.17090
7492.0 0.0001335 4940.70850 7625.71387
6964.0 0.0001436 4941.47656 7143.10449
6375.0 0.0001569 4942.22998 6548.16064
5863.0 0.0001706 4942.96875 5988.15967
5412.0 0.0001848 4943.69141 5558.66797
5283.0 0.0001893 4944.39746 5282.37744
5096.0 0.0001962 4945.08545 5129.83008
4954.0 0.0002019 4945.75537 5055.06104
4924.0 0.0002031 4946.40576 5020.43750
4918.0 0.0002033 4947.03662 5003.64648
4978.0 0.0002009 4947.64600 4994.16943
4905.0 0.0002039 4948.23389 4987.82617
4990.0 0.0002004 4948.79883 4983.09082
4925.0 0.0002030 4949.34033 4979.37402
4796.0 0.0002085 4949.85840 4976.38916
4843.0 0.0002065 4950.35107 4973.96191
4806.0 0.0002081 4950.81836 4971.96826
4899.0 0.0002041 4951.25879 4970.31494
4762.0 0.0002100 4951.67188 4968.93213
4920.0 0.0002033 4952.05713 4967.76416
4861.0 0.0002057 4952.41357 4966.76953
4854.0 0.0002060 4952.74121 4965.91309
4925.0 0.0002030 4953.03809 4965.16748
5069.0 0.0001973 4953.30371 4964.51074
5087.0 0.0001966 4953.53809 4963.92383
4890.0 0.0002045 4953.74023 4963.39160
4956.0 0.0002018 4953.90918 4962.90186
4988.0 0.0002005 4954.04492 4962.44482
4963.0 0.0002015 4954.14551 4962.00879
4828.0 0.0002071 4954.21143 4961.58887
4828.0 0.0002071 4954.24170 4961.17676
4910.0 0.0002037 4954.23535 4960.76660
4980.0 0.0002008 4954.19238 4960.35449
4965.0 0.0002014 4954.11133 4959.93457
4972.0 0.0002011 4953.99219 4959.50439
4986.0 0.0002006 4953.83447 4959.05908
4970.0 0.0002012 4953.63721 4958.59619
5024.0 0.0001990 4953.39990 4958.11328
5042.0 0.0001983 4953.12207 4957.60840
4937.0 0.0002026 4952.80273 4957.07715
4898.0 0.0002042 4952.44189 4954.65039
4960.0 0.0002016 4952.03857 4954.14258
5035.0 0.0001986 4951.59229 4953.59863
5041.0 0.0001984 4951.10303 4953.01904
5068.0 0.0001973 4950.57031 4952.40137
5007.0 0.0001997 4949.99219 4949.99268
5060.0 0.0001976 4949.37012 4949.37012
4988.0 0.0002005 4948.70215 4948.70215
4982.0 0.0002007 4947.98828 4947.98877
5007.0 0.0001997 4947.22900 4947.22900
5195.0 0.0001925 4946.42236 4946.42236
5104.0 0.0001959 4945.56885 4945.56885
5057.0 0.0001977 4944.66699 4944.66748
5002.0 0.0001999 4943.71777 4943.71777
5040.0 0.0001984 4942.72021 4942.72021
4989.0 0.0002004 4941.67383 4941.67383
4939.0 0.0002025 4940.57813 4940.57813
5151.0 0.0001941 4939.43262 4939.43311
5070.0 0.0001972 4938.23730 4938.23779
5064.0 0.0001975 4936.99219 4936.99268
5066.0 0.0001974 4935.69629 4935.69629
5083.0 0.0001967 4934.34961 4934.34961
5042.0 0.0001983 4932.95117 4932.95166
5061.0 0.0001976 4931.50146 4931.50195
5192.0 0.0001926 4930.00049 4930.00049
5117.0 0.0001954 4928.44678 4928.44678
5050.0 0.0001980 4926.84131 4926.84131
5146.0 0.0001943 4925.18262 4925.18262
5005.0 0.0001998 4923.47119 4923.47119
5173.0 0.0001933 4921.70703 4921.70703
5124.0 0.0001952 4919.88916 4919.88916
5164.0 0.0001936 4918.01807 4918.01807
5146.0 0.0001943 4916.09277 4916.09326
5179.0 0.0001931 4914.11426 4914.11426
5200.0 0.0001923 4912.08154 4912.08154
5149.0 0.0001942 4909.99414 4909.99414
4962.0 0.0002015 4907.85303 4907.85303
5123.0 0.0001952 4905.65674 4905.65674
5034.0 0.0001986 4903.40625 4903.40674
4906.0 0.0002038 4901.10107 4901.10107
5066.0 0.0001974 4898.74072 4898.74072
4986.0 0.0002006 4896.32617 4896.32617
5149.0 0.0001942 4893.85547 4893.85596
5035.0 0.0001986 4891.33057 4891.33105
5065.0 0.0001974 4888.75049 4888.75049
5080.0 0.0001969 4886.11523 4886.11523
5044.0 0.0001983 4883.42432 4883.42432
4989.0 0.0002004 4880.67822 4880.67822
4940.0 0.0002024 4877.87695 4877.87695
4964.0 0.0002015 4875.02051 4875.02051
5035.0 0.0001986 4872.10889 4872.10938
5024.0 0.0001990 4869.14209 4869.14209
4988.0 0.0002005 4866.11963 4866.12012
5140.0 0.0001946 4863.04297 4863.04297
4891.0 0.0002045 4859.91064 4859.91064
4963.0 0.0002015 4856.72314 4856.72363
4960.0 0.0002016 4853.48096 4853.48096
4992.0 0.0002003 4850.18408 4850.18457
4822.0 0.0002074 4846.83203 4846.83252
4869.0 0.0002054 4843.42578 4843.42578
4979.0 0.0002008 4839.96484 4839.96484
4884.0 0.0002048 4836.44971 4836.44971
4837.0 0.0002067 4832.87988 4832.88037
4828.0 0.0002071 4829.25635 4829.25635
4817.0 0.0002076 4825.57861 4825.57861
4733.0 0.0002113 4821.84717 4821.84766
4661.0 0.0002145 4818.06250 4818.06250
4823.0 0.0002073 4814.22412 4814.22412
4866.0 0.0002055 4810.33252 4810.33252
4699.0 0.0002128 4806.38818 4806.38818
4720.0 0.0002119 4802.39111 4802.39111
4694.0 0.0002130 4798.34131 4798.34131
4770.0 0.0002096 4794.23926 4794.23975
4805.0 0.0002081 4790.08545 4790.08545
4760.0 0.0002101 4785.87988 4785.87988
4691.0 0.0002132 4781.62256 4781.62256
4912.0 0.0002036 4777.31396 4777.31396
4746.0 0.0002107 4772.95459 4772.95508
4718.0 0.0002120 4768.54541 4768.54541
4771.0 0.0002096 4764.08447 4764.08496
4715.0 0.0002121 4759.57422 4759.57422
4698.0 0.0002129 4755.01416 4755.01416
4766.0 0.0002098 4750.40527 4750.40527
4644.0 0.0002153 4745.74707 4745.74707
4713.0 0.0002122 4741.04004 4741.04004
4638.0 0.0002156 4736.28467 4736.28467
4752.0 0.0002104 4731.48193 4731.48193
4719.0 0.0002119 4726.63086 4726.63086
4775.0 0.0002094 4721.73291 4721.73291
4726.0 0.0002116 4716.78809 4716.78857
4740.0 0.0002110 4711.79688 4711.79688
4723.0 0.0002117 4706.76074 4706.76074
4694.0 0.0002130 4701.67773 4701.67773
4642.0 0.0002154 4696.54980 4696.54980
4599.0 0.0002174 4691.37744 4691.37744
4609.0 0.0002170 4686.16113 4686.16113
4555.0 0.0002195 4680.90039 4680.90039
4651.0 0.0002150 4675.59619 4675.59619
4592.0 0.0002178 4670.24902 4670.24902
4476.0 0.0002234 4664.86035 4664.86035
4752.0 0.0002104 4659.42920 4659.42920
4596.0 0.0002176 4653.95605 4653.95605
4651.0 0.0002150 4648.44189 4648.44189
4606.0 0.0002171 4642.88770 4642.88770
4616.0 0.0002166 4637.29297 4637.29297
4602.0 0.0002173 4631.65869 4631.65869
4544.0 0.0002201 4625.98535 4625.98535
4593.0 0.0002177 4620.27393 4620.27393
4563.0 0.0002192 4614.52393 4614.52393
4633.0 0.0002158 4608.73633 4608.73633
4630.0 0.0002160 4602.91211 4602.91211
4469.0 0.0002238 4597.05176 4597.05176
4485.0 0.0002230 4591.15479 4591.15479
4471.0 0.0002237 4585.22266 4601.69922
4464.0 0.0002240 4579.25537 4596.46826
4677.0 0.0002138 4573.25391 4591.25391
4522.0 0.0002211 4567.21973 4586.06201
4531.0 0.0002207 4561.15137 4580.89600
4610.0 0.0002169 4555.05078 4575.76416
4557.0 0.0002194 4548.91748 4570.67285
4547.0 0.0002199 4542.75391 4565.63184
4549.0 0.0002198 4536.55859 4560.64746
4368.0 0.0002289 4530.33301 4555.73193
4389.0 0.0002278 4524.07764 4550.89600
4467.0 0.0002239 4517.79395 4546.15381
4497.0 0.0002224 4511.48096 4541.51855
4525.0 0.0002210 4505.13965 4537.00830
4502.0 0.0002221 4498.77148 4532.64355
4474.0 0.0002235 4492.37695 4528.44629
4497.0 0.0002224 4485.95557 4524.44238
4567.0 0.0002190 4479.50879 4520.66406
4509.0 0.0002218 4473.03711 4517.14648
4539.0 0.0002203 4466.54150 4513.93408
4425.0 0.0002260 4460.02148 4511.07568
4528.0 0.0002208 4453.47852 4508.63379
4506.0 0.0002219 4446.91309 4506.68115
4406.0 0.0002270 4440.32617 4505.30713
4530.0 0.0002208 4433.71729 4504.61963
4392.0 0.0002277 4427.08789 4504.75342
4443.0 0.0002251 4420.43848 4505.87500
4467.0 0.0002239 4413.76953 4508.19385
4523.0 0.0002211 4407.08252 4511.97656
4438.0 0.0002253 4400.37646 4517.56250
4451.0 0.0002247 4393.65283 4525.39648
4516.0 0.0002214 4386.91309 4536.06543
4474.0 0.0002235 4380.15674 4550.35596
4513.0 0.0002216 4373.38477 4569.36719
4623.0 0.0002163 4366.59717 4594.77930
4756.0 0.0002103 4359.79492 4629.70557
4696.0 0.0002129 4352.98047 4681.51270
5002.0 0.0001999 4346.15137 4770.10889
5359.0 0.0001866 4339.31055 4947.85010
6100.0 0.0001639 4332.45703 5335.26367
6875.0 0.0001455 4325.59326 6160.15869
8502.0 0.0001176 4318.71826 7752.28906
11125.0 0.0000899 4311.83252 10421.40820
14236.0 0.0000702 4304.93848 14196.76465
18159.0 0.0000551 4298.03516 18543.12695
21897.0 0.0000457 4291.12402 22264.65625
23829.0 0.0000420 4284.20508 23835.41406
22323.0 0.0000448 4277.27881 22432.66406
18177.0 0.0000550 4270.34717 18786.68555
14023.0 0.0000713 4263.40918 14421.18750
10557.0 0.0000947 4256.46631 10570.96094
7961.0 0.0001256 4249.51855 7813.74609
6306.0 0.0001586 4242.56689 6148.21973
5322.0 0.0001879 4235.61328 5272.72217
4932.0 0.0002028 4228.65576 4852.91162
4667.0 0.0002143 4221.69678 4653.28662
4604.0 0.0002172 4214.73584 4547.63135
4458.0 0.0002243 4207.77490 4480.64941
4448.0 0.0002248 4200.81348 4431.23145
4282.0 0.0002335 4193.85156 4391.60547
4353.0 0.0002297 4186.89160 4358.52686
4310.0 0.0002320 4179.93311 4330.26660
4194.0 0.0002384 4172.97705 4305.70313
4223.0 0.0002368 4166.02295 4284.03516
4088.0 0.0002446 4159.07227 4264.66699
4087.0 0.0002447 4152.12646 4247.14990
4205.0 0.0002378 4145.18408 4231.13672
4109.0 0.0002434 4138.24707 4216.36084
4098.0 0.0002440 4131.31543 4202.60889
4078.0 0.0002452 4124.39063 4189.71533
4122.0 0.0002426 4117.47217 4177.54346
4093.0 0.0002443 4110.56055 4165.98486
4123.0 0.0002425 4103.65723 4154.95117
3984.0 0.0002510 4096.76318 4144.37012
4099.0 0.0002440 4089.87695 4134.17920
4085.0 0.0002448 4083.00024 4124.32910
3989.0 0.0002507 4076.13379 4114.77783
3965.0 0.0002522 4069.27808 4105.48975
4054.0 0.0002467 4062.43359 4096.43506
3961.0 0.0002525 4055.60059 4087.58789
4014.0 0.0002491 4048.77954 4078.92578
3979.0 0.0002513 4041.97119 4070.43018
3937.0 0.0002540 4035.17676 4062.08643
4064.0 0.0002461 4028.39502 4053.87842
3888.0 0.0002572 4021.62793 4045.79492
3885.0 0.0002574 4014.87524 4037.82520
3933.0 0.0002543 4008.13843 4029.96069
3978.0 0.0002514 4001.41675 4022.19238
4009.0 0.0002494 3994.71118 4014.51343
3946.0 0.0002534 3988.02222 4006.91821
3996.0 0.0002503 3981.35132 3999.40137
3895.0 0.0002567 3974.69678 3991.95679
3883.0 0.0002575 3968.06055 3968.06030
3939.0 0.0002539 3961.44263 3961.44263
3921.0 0.0002550 3954.84448 3954.84448
3853.0 0.0002595 3948.26538 3948.26538
3919.0 0.0002552 3941.70581 3941.70557
3888.0 0.0002572 3935.16626 3935.16626
3873.0 0.0002582 3928.64844 3928.64844
3846.0 0.0002600 3922.15088 3922.15088
3868.0 0.0002585 3915.67480 3915.67456
3880.0 0.0002577 3909.22119 3909.22095
3790.0 0.0002639 3902.78931 3902.78931
3902.0 0.0002563 3896.38110 3896.38110
3860.0 0.0002591 3889.99536 3889.99512
3735.0 0.0002677 3883.63306 3883.63306
3812.0 0.0002623 3877.29517 3877.29492
3783.0 0.0002643 3870.98193 3870.98169
3834.0 0.0002608 3864.69238 3864.69238
3912.0 0.0002556 3858.42822 3858.42798
3844.0 0.0002601 3852.18921 3852.18921
3933.0 0.0002543 3845.97681 3845.97681
3809.0 0.0002625 3839.79004 3839.79004
3825.0 0.0002614 3833.62939 3833.62939
3808.0 0.0002626 3827.49561 3827.49561
3859.0 0.0002591 3821.38940 3821.38940
3817.0 0.0002620 3815.31030 3815.31006
3756.0 0.0002662 3809.25879 3809.25879
3694.0 0.0002707 3803.23535 3803.23535
3798.0 0.0002633 3797.24097 3797.24072
3757.0 0.0002662 3791.27417 3791.27417
3849.0 0.0002598 3785.33667 3785.33643
3791.0 0.0002638 3779.42822 3779.42798
3704.0 0.0002700 3773.55005 3773.54980
3811.0 0.0002624 3767.70117 3767.70093
3632.0 0.0002753 3761.88184 3761.88184
3681.0 0.0002717 3756.09302 3756.09302
3784.0 0.0002643 3750.33472 3750.33447
3656.0 0.0002735 3744.60767 3744.60767
3729.0 0.0002682 3738.91162 3738.91138
3694.0 0.0002707 3733.24609 3733.24609
3746.0 0.0002670 3727.61230 3727.61206
3736.0 0.0002677 3722.01074 3722.01074
3683.0 0.0002715 3716.44043 3716.44043
3753.0 0.0002665 3710.90259 3710.90259
3855.0 0.0002594 3705.39673 3705.39673
3722.0 0.0002687 3699.92407 3699.92383
3711.0 0.0002695 3694.48340 3694.48315
3743.0 0.0002672 3689.07544 3689.07520
3691.0 0.0002709 3683.70093 3683.70068
3677.0 0.0002720 3678.35962 3678.35938
3691.0 0.0002709 3673.05151 3673.05151
3659.0 0.0002733 3667.77661 3667.77661
3665.0 0.0002729 3662.53564 3662.53540
3615.0 0.0002766 3657.32886 3657.32861
3704.0 0.0002700 3652.15527 3652.15527
3670.0 0.0002725 3647.01611 3647.01611
3621.0 0.0002762 3641.91089 3641.91089
3745.0 0.0002670 3636.84058 3636.84058
3669.0 0.0002726 3631.80396 3631.80396
3642.0 0.0002746 3626.80200 3626.80176
3582.0 0.0002792 3621.83472 3621.83472
3565.0 0.0002805 3616.90186 3616.90186
3689.0 0.0002711 3612.00439 3612.00415
3592.0 0.0002784 3607.14111 3607.14087
3672.0 0.0002723 3602.31274 3602.31250
3605.0 0.0002774 3597.51953 3597.51953
3674.0 0.0002722 3592.76147 3592.76123
3577.0 0.0002796 3588.03833 3588.03833
3598.0 0.0002779 3583.35010 3583.35010
3611.0 0.0002769 3578.69702 3578.69702
3571.0 0.0002800 3574.07959 3574.07959
3591.0 0.0002785 3569.49683 3569.49683
3621.0 0.0002762 3564.94971 3566.49756
3505.0 0.0002853 3560.43750 3562.04150
3570.0 0.0002801 3555.96094 3557.62427
3517.0 0.0002843 3551.51929 3555.03516
3544.0 0.0002822 3547.11279 3550.75903
3611.0 0.0002769 3542.74170 3546.52588
3644.0 0.0002744 3538.40601 3542.33594
3507.0 0.0002851 3534.10522 3538.18945
3517.0 0.0002843 3529.83960 3534.08716
3593.0 0.0002783 3525.60889 3530.03052
3583.0 0.0002791 3521.41382 3526.02002
3574.0 0.0002798 3517.25342 3522.05566
3575.0 0.0002797 3513.12842 3518.13989
3551.0 0.0002816 3509.03784 3514.27246
3439.0 0.0002908 3504.98218 3510.45508
3578.0 0.0002795 3500.96191 3506.68970
3502.0 0.0002856 3496.97583 3502.97681
3574.0 0.0002798 3493.02466 3499.31909
3554.0 0.0002814 3489.10791 3495.71729
3641.0 0.0002746 3485.22607 3492.17505
3566.0 0.0002804 3481.37817 3488.69360
3484.0 0.0002870 3477.56445 3485.27588
3552.0 0.0002815 3473.78540 3481.92627
3488.0 0.0002867 3470.04004 3478.64746
3557.0 0.0002811 3466.32910 3475.44336
3505.0 0.0002853 3462.65161 3472.31958
3564.0 0.0002806 3459.00781 3469.28149
3485.0 0.0002869 3455.39795 3466.33618
3448.0 0.0002900 3451.82129 3463.49048
3460.0 0.0002890 3448.27808 3460.75415
3460.0 0.0002890 3444.76807 3458.13745
3434.0 0.0002912 3441.29126 3455.65356
3412.0 0.0002931 3437.84717 3453.31714
3385.0 0.0002954 3434.43555 3451.14697
3557.0 0.0002811 3431.05688 3449.16479
3528.0 0.0002834 3427.71094 3447.39795
3551.0 0.0002816 3424.39648 3445.87915
3412.0 0.0002931 3421.11426 3444.64917
3461.0 0.0002889 3417.86401 3443.75977
3369.0 0.0002968 3414.64575 3443.27588
3421.0 0.0002923 3411.45898 3443.28076
3461.0 0.0002889 3408.30322 3443.88013
3418.0 0.0002926 3405.17847 3445.21533
3400.0 0.0002941 3402.08496 3447.47559
3426.0 0.0002919 3399.02246 3450.92725
3458.0 0.0002892 3395.98999 3455.98999
3476.0 0.0002877 3392.98804 3463.47290
3494.0 0.0002862 3390.01611 3475.27686
3525.0 0.0002837 3387.07446 3496.20044
3672.0 0.0002723 3384.16187 3537.57568
3694.0 0.0002707 3381.27905 3622.44922
3819.0 0.0002618 3378.42554 3788.87085
4203.0 0.0002379 3375.60132 4084.32495
4655.0 0.0002148 3372.80518 4545.86963
5283.0 0.0001893 3370.03760 5170.98779
5978.0 0.0001673 3367.29834 5893.58203
6500.0 0.0001538 3364.58789 6579.69238
7141.0 0.0001400 3361.90454 7081.94873
7300.0 0.0001370 3359.24878 7347.42139
7296.0 0.0001371 3356.62036 7384.69727
7119.0 0.0001405 3354.01929 7146.59521
6561.0 0.0001524 3351.44458 6593.80420
5830.0 0.0001715 3348.89673 5836.56104
5091.0 0.0001964 3346.37476 5067.64160
4380.0 0.0002283 3343.87891 4429.43213
4006.0 0.0002496 3341.40894 3978.85303
3669.0 0.0002726 3338.96436 3702.73169
3456.0 0.0002894 3336.54492 3551.99316
3487.0 0.0002868 3334.15039 3475.02246
3486.0 0.0002869 3331.78076 3435.04712
3409.0 0.0002933 3329.43530 3411.74902
3296.0 0.0003034 3327.11377 3395.84448
3365.0 0.0002972 3324.81592 3383.58960
3461.0 0.0002889 3322.54199 3373.50562
3448.0 0.0002900 3320.29150 3364.92749
3413.0 0.0002930 3318.06348 3357.48267
3368.0 0.0002969 3315.85791 3350.92261
3266.0 0.0003062 3313.67529 3345.06738
3322.0 0.0003010 3311.51440 3339.85669
3390.0 0.0002950 3309.37549 3335.03857
3400.0 0.0002941 3307.25781 3330.60596
3402.0 0.0002939 3305.16138 3326.49585
3454.0 0.0002895 3303.08594 3322.65771
3504.0 0.0002854 3301.03076 3319.05103
3447.0 0.0002901 3298.99609 3315.64404
3494.0 0.0002862 3296.98169 3312.40991
3487.0 0.0002868 3294.98682 3309.32666
3377.0 0.0002961 3293.01123 3306.37476
3431.0 0.0002915 3291.05444 3303.54077
3377.0 0.0002961 3289.11670 3300.81104
3272.0 0.0003056 3287.19751 3298.17432
3370.0 0.0002967 3285.29663 3295.62183
3277.0 0.0003052 3283.41309 3293.14526
3188.0 0.0003137 3281.54736 3290.73828
3257.0 0.0003070 3279.69897 3288.39478
3229.0 0.0003097 3277.86719 3286.10840
3251.0 0.0003076 3276.05249 3283.87622
3328.0 0.0003005 3274.25366 3281.69360
3245.0 0.0003082 3272.47119 3279.55688
3215.0 0.0003110 3270.70410 3277.46338
3222.0 0.0003104 3268.95239 3275.40967
3310.0 0.0003021 3267.21606 3273.39429
3210.0 0.0003115 3265.49414 3271.41406
3201.0 0.0003124 3263.78687 3269.46777
3247.0 0.0003080 3262.09351 3267.55298
3216.0 0.0003109 3260.41406 3265.66919
3164.0 0.0003161 3258.74854 3263.81445
3263.0 0.0003065 3257.09570 3261.98706
3194.0 0.0003131 3255.45630 3260.18701
3265.0 0.0003063 3253.82910 3258.41260
3242.0 0.0003085 3252.21436 3256.66382
3187.0 0.0003138 3250.61133 3254.93945
3223.0 0.0003103 3249.02002 3253.23901
3211.0 0.0003114 3247.44043 3250.02222
3149.0 0.0003176 3245.87158 3248.42285
3249.0 0.0003078 3244.31372 3246.84595
3222.0 0.0003104 3242.76611 3245.29077
3250.0 0.0003077 3241.22852 3241.95264
3209.0 0.0003116 3239.70117 3240.50879
3244.0 0.0003083 3238.18311 3239.08960
3234.0 0.0003092 3236.67456 3237.69849
3226.0 0.0003100 3235.17456 3236.34082
3174.0 0.0003151 3233.68335 3235.02271
3200.0 0.0003125 3232.20068 3233.75488
3228.0 0.0003098 3230.72607 3232.55493
3218.0 0.0003108 3229.25928 3231.46118
3144.0 0.0003181 3227.79980 3230.57056
3079.0 0.0003248 3226.34766 3230.13599
3100.0 0.0003226 3224.90210 3230.74194
3128.0 0.0003197 3223.46338 3233.52490
3240.0 0.0003086 3222.03101 3240.21948
3254.0 0.0003073 3220.60449 3252.65625
3331.0 0.0003002 3219.18408 3271.50562
3167.0 0.0003158 3217.76880 3294.67944
3278.0 0.0003051 3216.35889 3316.37158
3294.0 0.0003036 3214.95386 3327.89746
3247.0 0.0003080 3213.55347 3322.63477
3230.0 0.0003096 3212.15771 3302.70801
3341.0 0.0002993 3210.76563 3276.59717
3217.0 0.0003108 3209.37769 3252.02783
3202.0 0.0003123 3207.99316 3233.13257
3405.0 0.0002937 3206.61182 3220.60352
3427.0 0.0002918 3205.23389 3213.06201
3755.0 0.0002663 3203.85840 3208.60547
3862.0 0.0002589 3202.48560 3205.74170
4023.0 0.0002486 3201.11475 3203.59912
3972.0 0.0002518 3199.74609 3201.76685
3806.0 0.0002627 3198.37939 3200.07813
3688.0 0.0002711 3197.01392 3198.46729
3465.0 0.0002886 3195.64990 3196.90845
3294.0 0.0003036 3194.28662 3195.38672
3302.0 0.0003028 3192.92407 3193.89355
3283.0 0.0003046 3191.56226 3192.42310
3135.0 0.0003190 3190.20068 3190.96973
3043.0 0.0003286 3188.83911 3189.53027
3087.0 0.0003239 3187.47729 3188.10181
3090.0 0.0003236 3186.11523 3186.68213
3162.0 0.0003163 3184.75220 3188.66309
3068.0 0.0003259 3183.38843 3187.37891
3054.0 0.0003274 3182.02393 3186.10620
3067.0 0.0003261 3180.65796 3184.84375
3088.0 0.0003238 3179.29004 3183.59082
3118.0 0.0003207 3177.92065 3182.34839
2977.0 0.0003359 3176.54907 3181.11597
3027.0 0.0003304 3175.17554 3179.89380
3116.0 0.0003209 3173.79980 3178.68237
3093.0 0.0003233 3172.42114 3177.48145
3141.0 0.0003184 3171.03979 3176.29224
2988.0 0.0003347 3169.65527 3175.11523
3080.0 0.0003247 3168.26807 3173.95190
3204.0 0.0003121 3166.87695 3172.80200
3063.0 0.0003265 3165.48291 3171.66846
3094.0 0.0003232 3164.08447 3170.55078
3151.0 0.0003174 3162.68262 3169.45264
2991.0 0.0003343 3161.27637 3168.37476
3129.0 0.0003196 3159.86572 3167.31958
3026.0 0.0003305 3158.45117 3166.28979
3106.0 0.0003220 3157.03174 3165.28906
3058.0 0.0003270 3155.60718 3164.31934
3009.0 0.0003323 3154.17773 3163.38574
3110.0 0.0003215 3152.74316 3162.49268
3048.0 0.0003281 3151.30347 3161.64551
3053.0 0.0003275 3149.85864 3160.85132
3055.0 0.0003273 3148.40771 3160.11597
3026.0 0.0003305 3146.95117 3159.44873
3040.0 0.0003289 3145.48901 3158.86035
3039.0 0.0003291 3144.02026 3158.36206
3038.0 0.0003292 3142.54590 3157.96899
3065.0 0.0003263 3141.06494 3157.69751
3091.0 0.0003235 3139.57764 3157.56934
3008.0 0.0003324 3138.08374 3157.60913
3131.0 0.0003194 3136.58325 3157.84766
3108.0 0.0003218 3135.07568 3158.24561
3002.0 0.0003331 3133.56152 3159.00708
2999.0 0.0003334 3132.04028 3160.11108
3055.0 0.0003273 3130.51172 3161.63184
2989.0 0.0003346 3128.97583 3163.66479
3033.0 0.0003297 3127.43237 3166.33301
3021.0 0.0003310 3125.88184 3169.79907
3047.0 0.0003282 3124.32373 3174.27881
3062.0 0.0003266 3122.75757 3180.06763
3090.0 0.0003236 3121.18384 3187.59717
3008.0 0.0003324 3119.60229 3197.58960
3192.0 0.0003133 3118.01270 3211.54053
3225.0 0.0003101 3116.41528 3233.15625
3194.0 0.0003131 3114.80933 3271.90820
3276.0 0.0003053 3113.19556 3349.89331
3480.0 0.0002874 3111.57324 3510.69141
3878.0 0.0002579 3109.94238 3822.46313
4288.0 0.0002332 3108.30371 4360.74609
5004.0 0.0001998 3106.65601 5161.01270
6094.0 0.0001641 3105.00024 6154.41797
7097.0 0.0001409 3103.33545 7123.20459
7677.0 0.0001303 3101.66211 7719.59277
7439.0 0.0001344 3099.97998 7643.41602
6729.0 0.0001486 3098.28931 6936.04346
5649.0 0.0001770 3096.58984 5933.15674
4682.0 0.0002136 3094.88135 4963.37842
4109.0 0.0002434 3093.16382 4212.41309
3629.0 0.0002756 3091.43774 3722.68481
3315.0 0.0003017 3089.70239 3445.24121
3270.0 0.0003058 3087.95850 3303.11499
3172.0 0.0003153 3086.20508 3232.67432
3141.0 0.0003184 3084.44312 3195.39697
3346.0 0.0002989 3082.67163 3172.52197
3336.0 0.0002998 3080.89111 3156.22339
3361.0 0.0002975 3079.10181 3143.45825
3648.0 0.0002741 3077.30298 3132.96387
3793.0 0.0002636 3075.49561 3124.10400
3785.0 0.0002642 3073.67871 3116.48193
3811.0 0.0002624 3071.85254 3109.82153
3630.0 0.0002755 3070.01758 3103.91968
3369.0 0.0002968 3068.17334 3098.62305
3344.0 0.0002990 3066.32007 3093.81567
3152.0 0.0003173 3064.45752 3089.40576
3122.0 0.0003203 3062.58618 3085.32300
3067.0 0.0003261 3060.70557 3081.51099
2980.0 0.0003356 3058.81567 3077.92456
2990.0 0.0003344 3056.91724 3074.52759
2975.0 0.0003361 3055.00928 3071.29028
2971.0 0.0003366 3053.09277 3068.18872
3094.0 0.0003232 3051.16699 3065.20215
3109.0 0.0003216 3049.23242 3062.31421
3148.0 0.0003177 3047.28906 3059.51123
3260.0 0.0003067 3045.33643 3056.78101
3200.0 0.0003125 3043.37549 3054.11401
3122.0 0.0003203 3041.40527 3051.50073
3060.0 0.0003268 3039.42651 3048.93506
3081.0 0.0003246 3037.43921 3046.41040
3129.0 0.0003196 3035.44336 3043.92114
3148.0 0.0003177 3033.43872 3041.46289
3202.0 0.0003123 3031.42554 3039.03149
3266.0 0.0003062 3029.40405 3036.62354
3296.0 0.0003034 3027.37402 3034.23560
3452.0 0.0002897 3025.33545 3031.86523
3315.0 0.0003017 3023.28906 3029.51001
3187.0 0.0003138 3021.23413 3027.16821
3217.0 0.0003108 3019.17114 3024.83765
3020.0 0.0003311 3017.10010 3022.51636
2990.0 0.0003344 3015.02075 3020.20337
2983.0 0.0003352 3012.93408 3017.89722
2929.0 0.0003414 3010.83911 3015.59692
2917.0 0.0003428 3008.73657 3013.30151
2926.0 0.0003418 3006.62622 3011.00977
2777.0 0.000360 3004.50830 3008.72095
3019.0 0.0003312 3002.38306 3006.43457
2935.0 0.0003407 3000.25024 3004.14966
2884.0 0.0003467 2998.11011 3001.86597
2838.0 0.000352 2995.96289 2999.58252
2901.0 0.0003447 2993.80859 2997.29956
2836.0 0.000353 2991.64697 2991.64697
2910.0 0.0003436 2989.47852 2989.47827
2917.0 0.0003428 2987.30322 2987.30322
2944.0 0.0003397 2985.12134 2985.12109
2923.0 0.0003421 2982.93286 2982.93286
2996.0 0.0003338 2980.73755 2980.73755
2908.0 0.0003439 2978.53589 2978.53589
2971.0 0.0003366 2976.32837 2976.32813
3028.0 0.0003303 2974.11426 2974.11426
3102.0 0.0003224 2971.89429 2971.89429
2926.0 0.0003418 2969.66821 2969.66821
2970.0 0.0003367 2967.43652 2967.43652
2960.0 0.0003378 2965.19897 2965.19897
2972.0 0.0003365 2962.95557 2962.95557
3036.0 0.0003294 2960.70728 2960.70703
3023.0 0.0003308 2958.45337 2958.45337
3125.0 0.0003200 2956.19434 2956.19409
2959.0 0.0003380 2953.92993 2953.92969
2940.0 0.0003401 2951.66064 2951.66040
2949.0 0.0003391 2949.38672 2949.38647
2999.0 0.0003334 2947.10815 2947.10791
3053.0 0.0003275 2944.82471 2944.82471
2884.0 0.0003467 2942.53687 2942.53687
2976.0 0.0003360 2940.24463 3008.95337
3104.0 0.0003222 2937.94873 3009.13452
3124.0 0.0003201 2935.64844 3009.44800
3147.0 0.0003178 2933.34448 3009.90405
3330.0 0.0003003 2931.03638 3010.51416
3289.0 0.0003040 2928.72510 3011.29028
3281.0 0.0003048 2926.41016 3012.24585
3278.0 0.0003051 2924.09180 3013.39673
3164.0 0.0003161 2921.77051 3014.75830
3035.0 0.0003295 2919.44629 3016.34961
3052.0 0.0003277 2917.11865 3018.18970
2863.0 0.0003493 2914.78857 3020.30176
2953.0 0.0003386 2912.45581 3022.70972
2897.0 0.0003452 2910.12085 3025.44214
2901.0 0.0003447 2907.78345 3028.52905
2835.0 0.000353 2905.44385 3032.00439
2865.0 0.0003490 2903.10229 3035.90771
2971.0 0.0003366 2900.75879 3040.28223
2774.0 0.000360 2898.41357 3045.17651
2920.0 0.0003425 2896.06714 3050.64648
2889.0 0.0003461 2893.71899 3056.75513
2995.0 0.0003339 2891.36963 3063.57397
2876.0 0.0003477 2889.01929 3071.18555
2960.0 0.0003378 2886.66797 3079.68311
3000.0 0.0003333 2884.31567 3089.17627
2931.0 0.0003412 2881.96313 3099.78979
3031.0 0.0003299 2879.61011 3111.66968
3019.0 0.0003312 2877.25659 3124.98535
2887.0 0.0003464 2874.90283 3139.93677
2993.0 0.0003341 2872.54883 3156.75903
3050.0 0.0003279 2870.19556 3175.73071
2886.0 0.0003465 2867.84253 3197.18335
3012.0 0.0003320 2865.48975 3221.51538
3175.0 0.0003150 2863.13745 3249.20776
3010.0 0.0003322 2860.78638 3280.84546
3255.0 0.0003072 2858.43579 3317.14551
3317.0 0.0003015 2856.08667 3358.99414
3221.0 0.0003105 2853.73853 3407.49585
3188.0 0.0003137 2851.39209 3464.04346
3273.0 0.0003055 2849.04688 3530.40771
3351.0 0.0002984 2846.70337 3608.86865
3449.0 0.0002899 2844.36206 3702.40112
3599.0 0.0002779 2842.02246 3814.94214
3938.0 0.0002539 2839.68530 3951.81836
4012.0 0.0002493 2837.35034 4120.55322
4240.0 0.0002358 2835.01782 4332.88721
4660.0 0.0002146 2832.68799 4610.86475
5096.0 0.0001962 2830.36108 5005.11377
5899.0 0.0001695 2828.03711 5642.84473
7288.0 0.0001372 2825.71606 6829.01270
9611.0 0.0001040 2823.39844 9200.14648
13824.0 0.0000723 2821.08423 13841.09766
21555.0 0.0000464 2818.77368 22141.92188
33702.0 0.0000297 2816.46680 35153.89844
50321.0 0.0000199 2814.16357 52496.83984
70471.0 0.0000142 2811.86475 71325.82813
87510.0 0.0000114 2809.56982 86021.82813
91827.0 0.0000109 2807.27930 89954.03906
82016.0 0.0000122 2804.99341 80911.75781
64169.0 0.0000156 2802.71191 63673.75781
44655.0 0.0000224 2800.43530 44920.39844
29785.0 0.0000336 2798.16357 29170.83398
18908.0 0.0000529 2795.89673 18159.78711
12737.0 0.0000785 2793.63550 11532.71191
8974.0 0.0001114 2791.37939 7984.00146
6935.0 0.0001442 2789.12891 6203.08057
5756.0 0.0001737 2786.88379 5293.65234
5166.0 0.0001936 2784.64478 4775.88916
4580.0 0.0002183 2782.41162 4434.62109
4087.0 0.0002447 2780.18433 4183.07178
3960.0 0.0002525 2777.96338 3986.05469
3799.0 0.0002632 2775.74854 3827.03662
3558.0 0.0002811 2773.54077 3696.42334
3529.0 0.0002834 2771.33911 3587.74316
3492.0 0.0002864 2769.14404 3496.31104
3380.0 0.0002959 2766.95630 3418.62866
3275.0 0.0003053 2764.77539 3352.03467
3246.0 0.0003081 2762.60181 3294.47876
3250.0 0.0003077 2760.43530 3244.35864
3139.0 0.0003186 2758.27612 3200.41235
3096.0 0.0003230 2756.12476 3161.63184
3089.0 0.0003237 2753.98096 3127.20581
2980.0 0.0003356 2751.84497 3096.47656
3144.0 0.0003181 2749.71655 3068.90552
2895.0 0.0003454 2747.59668 3044.04810
2890.0 0.0003460 2745.48462 3021.53516
2996.0 0.0003338 2743.38110 3001.05884
2941.0 0.0003400 2741.28589 2982.35986
2903.0 0.0003445 2739.19897 2965.21924
2809.0 0.000356 2737.12109 2949.45020
2879.0 0.0003473 2735.05151 2934.89380
2790.0 0.000358 2732.99097 2921.41333
2811.0 0.000356 2730.93970 2908.89136
2833.0 0.000353 2728.89722 2897.22534
2848.0 0.000351 2726.86401 2886.32715
2744.0 0.000364 2724.83984 2876.11890
2789.0 0.000359 2722.82520 2866.53296
2860.0 0.0003497 2720.82056 2857.51025
2780.0 0.000360 2718.82495 2848.99805
2887.0 0.0003464 2716.83960 2840.94971
2740.0 0.000365 2714.86377 2833.32446
2718.0 0.000368 2712.89795 2826.08594
2778.0 0.000360 2710.94189 2819.20068
2660.0 0.000376 2708.99585 2812.64063
2748.0 0.000364 2707.06055 2806.37915
2743.0 0.000365 2705.13501 2800.39282
2739.0 0.000365 2703.22021 2794.66040
2697.0 0.000371 2701.31616 2789.16406
2744.0 0.000364 2699.42212 2783.88477
2698.0 0.000371 2697.53906 2778.80811
2753.0 0.000363 2695.66650 2773.91968
2761.0 0.000362 2693.80493 2769.20703
2725.0 0.000367 2691.95410 2764.65771
2731.0 0.000366 2690.11426 2760.26172
2633.0 0.000380 2688.28589 2688.28564
2747.0 0.000364 2686.46851 2686.46826
2762.0 0.000362 2684.66211 2684.66187
2685.0 0.000372 2682.86719 2682.86694
2716.0 0.000368 2681.08325 2681.08325
2719.0 0.000368 2679.31104 2679.31104
2674.0 0.000374 2677.55029 2677.55005
2647.0 0.000378 2675.80103 2675.80103
2587.0 0.000387 2674.06348 2674.06323
2634.0 0.000380 2672.33740 2672.33740
2776.0 0.000360 2670.62378 2670.62354
2706.0 0.000370 2668.92114 2668.92114
2595.0 0.000385 2667.23071 2667.23047
2728.0 0.000367 2665.55225 2665.55200
2827.0 0.000354 2663.88525 2663.88525
2912.0 0.0003434 2662.23071 2662.75684
3022.0 0.0003309 2660.58789 2661.13306
3235.0 0.0003091 2658.95776 2659.52271
3264.0 0.0003064 2657.33960 2657.92554
3310.0 0.0003021 2655.73340 2656.34180
3167.0 0.0003158 2654.13965 2654.77148
3200.0 0.0003125 2652.55811 2653.21460
2948.0 0.0003392 2650.98877 2651.67163
2864.0 0.0003492 2649.43164 2650.14282
2820.0 0.000355 2647.88745 2648.62817
2706.0 0.000370 2646.35522 2647.12769
2706.0 0.000370 2644.83569 2645.64209
2751.0 0.000364 2643.32886 2644.17090
2687.0 0.000372 2641.83398 2642.71484
2730.0 0.000366 2640.35181 2641.27393
2698.0 0.000371 2638.88257 2639.84839
2614.0 0.000383 2637.42554 2638.43872
2665.0 0.000375 2635.98120 2637.04517
2535.0 0.000394 2634.54932 2635.66846
2647.0 0.000378 2633.13037 2634.30859
2549.0 0.000392 2631.72412 2632.96631
2685.0 0.000372 2630.33032 2631.64185
2587.0 0.000387 2628.94946 2630.33594
2660.0 0.000376 2627.58105 2629.04932
2588.0 0.000386 2626.22534 2627.78296
2607.0 0.000384 2624.88232 2626.53784
2619.0 0.000382 2623.55200 2625.31470
2539.0 0.000394 2622.23438 2624.11499
2642.0 0.000379 2620.92969 2622.94043
2651.0 0.000377 2619.63770 2621.79248
2599.0 0.000385 2618.35815 2620.67285
2631.0 0.000380 2617.09131 2619.58423
2623.0 0.000381 2615.83740 2618.53003
2604.0 0.000384 2614.59595 2617.51294
2669.0 0.000375 2613.36719 2616.53784
2604.0 0.000384 2612.15112 2615.60962
2631.0 0.000380 2610.94800 2614.73511
2608.0 0.000383 2609.75732 2613.92163
2641.0 0.000379 2608.57886 2613.17969
2610.0 0.000383 2607.41357 2612.52197
2572.0 0.000389 2606.26050 2611.96460
2565.0 0.000390 2605.12012 2611.52905
2653.0 0.000377 2603.99219 2611.24292
2614.0 0.000383 2602.87671 2611.14404
2565.0 0.000390 2601.77368 2611.28442
2518.0 0.000397 2600.68335 2611.74268
2578.0 0.000388 2599.60547 2612.65649
2657.0 0.000376 2598.53979 2614.32153
2550.0 0.000392 2597.48633 2617.45972
2669.0 0.000375 2596.44556 2623.80957
2659.0 0.000376 2595.41675 2637.11011
2759.0 0.000362 2594.40015 2664.06006
2840.0 0.000352 2593.39575 2713.97412
2828.0 0.000354 2592.40381 2795.39600
2923.0 0.0003421 2591.42383 2909.28760
3098.0 0.0003228 2590.45581 3041.38428
3190.0 0.0003135 2589.50000 3157.77881
3225.0 0.0003101 2588.55615 3210.69507
3121.0 0.0003204 2587.62402 3170.72046
3008.0 0.0003324 2586.70361 3059.68311
2936.0 0.0003406 2585.79541 2925.41577
2734.0 0.000366 2584.89893 2805.07153
2690.0 0.000372 2584.01416 2716.05347
2614.0 0.000383 2583.14087 2659.46143
2627.0 0.000381 2582.27930 2627.47534
2590.0 0.000386 2581.42920 2610.56616
2690.0 0.000372 2580.59058 2601.50732
2681.0 0.000373 2579.76343 2596.11523
2756.0 0.000363 2578.94751 2592.39258
2878.0 0.0003475 2578.14307 2589.50024
2813.0 0.000355 2577.35010 2587.09619
2959.0 0.0003380 2576.56787 2585.02612
2865.0 0.0003490 2575.79688 2583.20459
2806.0 0.000356 2575.03662 2581.57617
2883.0 0.0003469 2574.28760 2580.10156
2784.0 0.000359 2573.54932 2578.75098
2686.0 0.000372 2572.82178 2577.50220
2653.0 0.000377 2572.10522 2576.33862
2623.0 0.000381 2571.39917 2575.24609
2527.0 0.000396 2570.70361 2574.21411
2614.0 0.000383 2570.01880 2573.23511
2559.0 0.000391 2569.34424 2572.30176
2492.0 0.000401 2568.67993 2571.40845
2527.0 0.000396 2568.02563 2570.55054
2598.0 0.000385 2567.38184 2569.72510
2612.0 0.000383 2566.74805 2568.92847
2541.0 0.000394 2566.12451 2568.15820
2546.0 0.000393 2565.51050 2567.41211
2482.0 0.000403 2564.90649 2566.68823
2535.0 0.000394 2564.31226 2565.98511
2481.0 0.000403 2563.72729 2565.30103
2595.0 0.000385 2563.15234 2564.63550
2466.0 0.000406 2562.58667 2563.98657
2426.0 0.000412 2562.03027 2563.35400
2562.0 0.000390 2561.48340 2562.73682
2492.0 0.000401 2560.94556 2562.13428
2491.0 0.000401 2560.41675 2561.54541
2598.0 0.000385 2559.89722 2560.97046
2499.0 0.000400 2559.38623 2560.40796
2428.0 0.000412 2558.88428 2559.85815
2546.0 0.000393 2558.39087 2559.32007
2601.0 0.000384 2557.90601 2558.79346
2504.0 0.000399 2557.42969 2558.27832
2534.0 0.000395 2556.96191 2557.77417
2496.0 0.000401 2556.50244 2557.28052
2445.0 0.000409 2556.05103 2556.79712
2529.0 0.000395 2555.60791 2556.32397
2584.0 0.000387 2555.17261 2555.86035
2504.0 0.000399 2554.74512 2555.40649
2464.0 0.000406 2554.32544 2554.96143
2528.0 0.000396 2553.91357 2554.52588
2530.0 0.000395 2553.50928 2554.09912
2447.0 0.000409 2553.11255 2553.68115
2555.0 0.000391 2552.72290 2559.58350
2452.0 0.000408 2552.34058 2558.87891
2589.0 0.000386 2551.96558 2558.74243
2506.0 0.000399 2551.59741 2558.62622
2525.0 0.000396 2551.23633 2558.53125
2523.0 0.000396 2550.88208 2558.45850
2536.0 0.000394 2550.53442 2558.40918
2519.0 0.000397 2550.19336 2558.38403
2528.0 0.000396 2549.85889 2558.38501
2499.0 0.000400 2549.53076 2558.41333
2569.0 0.000389 2549.20874 2558.47070
2518.0 0.000397 2548.89307 2575.03296
2544.0 0.000393 2548.58325 2575.74731
2572.0 0.000389 2548.27954 2576.52954
2525.0 0.000396 2547.98169 2577.38501
2488.0 0.000402 2547.68945 2578.31885
2544.0 0.000393 2547.40283 2579.33765
2441.0 0.000410 2547.12158 2580.44824
2551.0 0.000392 2546.84595 2581.65845
2483.0 0.000403 2546.57520 2582.97656
2476.0 0.000404 2546.30981 2584.41333
2489.0 0.000402 2546.04932 2585.97827
2471.0 0.000405 2545.79419 2587.68530
2580.0 0.000388 2545.54346 2589.54761
2484.0 0.000403 2545.29736 2591.58154
2528.0 0.000396 2545.05591 2593.80518
2468.0 0.000405 2544.81909 2596.23975
2617.0 0.000382 2544.58643 2598.90845
2517.0 0.000397 2544.35791 2601.83984
2538.0 0.000394 2544.13354 2605.06567
2492.0 0.000401 2543.91333 2608.62329
2557.0 0.000391 2543.69678 2612.55713
2501.0 0.000400 2543.48438 2616.91797
2623.0 0.000381 2543.27539 2621.76758
2525.0 0.000396 2543.06982 2627.17871
2571.0 0.000389 2542.86792 2633.23926
2505.0 0.000399 2542.66919 2640.05518
2609.0 0.000383 2542.47363 2647.75562
2619.0 0.000382 2542.28125 2656.50024
2596.0 0.000385 2542.09180 2666.48755
2537.0 0.000394 2541.90527 2677.96680
2620.0 0.000382 2541.72144 2691.25513
2710.0 0.000369 2541.54004 2706.76221
2641.0 0.000379 2541.36157 2725.02612
2699.0 0.000371 2541.18506 2746.77661
2726.0 0.000367 2541.01123 2773.07251
2701.0 0.000370 2540.83936 2805.68164
2687.0 0.000372 2540.66968 2848.18481
2863.0 0.0003493 2540.50195 2908.90161
3033.0 0.0003297 2540.33618 3007.30396
3240.0 0.0003086 2540.17212 3184.58154
3700.0 0.0002703 2540.00952 3513.98413
4305.0 0.0002323 2539.84863 4097.39063
5246.0 0.0001906 2539.68896 5029.74219
6468.0 0.0001546 2539.53076 6326.88428
7771.0 0.0001287 2539.37378 7842.73193
9123.0 0.0001096 2539.21777 9216.27441
9746.0 0.0001026 2539.06274 9922.37500
9411.0 0.0001063 2538.90894 9621.99609
8462.0 0.0001182 2538.75537 8562.79492
7308.0 0.0001368 2538.60278 7337.02637
6474.0 0.0001545 2538.45068 6486.75928
6541.0 0.0001529 2538.29907 6419.85352
7379.0 0.0001355 2538.14795 7423.04834
9668.0 0.0001034 2537.99707 9624.74609
12904.0 0.0000775 2537.84619 12872.66406
16518.0 0.0000605 2537.69531 16581.20898
19748.0 0.0000506 2537.54443 19620.81836
20629.0 0.0000485 2537.39355 20606.11133
18819.0 0.0000531 2537.24243 18947.97656
14559.0 0.0000687 2537.09082 15534.60352
10783.0 0.0000927 2536.93872 11727.39258
8080.0 0.0001238 2536.78638 8461.87500
6039.0 0.0001656 2536.63306 6119.32471
4759.0 0.0002101 2536.47925 4663.79199
3833.0 0.0002609 2536.32446 3854.52051
3492.0 0.0002864 2536.16870 3431.42578
3280.0 0.0003049 2536.01196 3207.08545
3021.0 0.0003310 2535.85425 3076.11963
2842.0 0.000352 2535.69531 2988.90332
2858.0 0.0003499 2535.53491 2924.46045
2901.0 0.0003447 2535.37305 2873.96875
2801.0 0.000357 2535.20996 2833.21753
2897.0 0.0003452 2535.04517 2799.76929
2815.0 0.000355 2534.87891 2771.98657
2881.0 0.0003471 2534.71045 2748.68628
2846.0 0.000351 2534.54053 2728.98511
2747.0 0.000364 2534.36865 2712.21021
2660.0 0.000376 2534.19482 2697.84375
2721.0 0.000368 2534.01880 2685.48267
2748.0 0.000364 2533.84082 2674.80981
2636.0 0.000379 2533.66016 2665.57422
2596.0 0.000385 2533.47754 2657.57715
2655.0 0.000377 2533.29248 2650.65894
2535.0 0.000394 2533.10474 2644.69385
2534.0 0.000395 2532.91455 2639.58179
2548.0 0.000392 2532.72168 2635.24683
2550.0 0.000392 2532.52612 2631.62939
2629.0 0.000380 2532.32788 2628.68970
2505.0 0.000399 2532.12671 2626.40283
2598.0 0.000385 2531.92236 2624.75977
2532.0 0.000395 2531.71533 2623.76733
2566.0 0.000390 2531.50513 2623.44897
2624.0 0.000381 2531.29175 2623.84985
2662.0 0.000376 2531.07495 2625.03589
2570.0 0.000389 2530.85498 2627.10278
2657.0 0.000376 2530.63184 2630.18359
2566.0 0.000390 2530.40503 2634.45825
2658.0 0.000376 2530.17505 2640.17114
2630.0 0.000380 2529.94116 2647.65942
2623.0 0.000381 2529.70361 2657.39233
2653.0 0.000377 2529.46265 2670.07910
2603.0 0.000384 2529.21777 2686.93970
2662.0 0.000376 2528.96948 2712.37915
2754.0 0.000363 2528.71680 2742.36694
2810.0 0.000356 2528.46045 2805.97046
2969.0 0.0003368 2528.20020 2926.61011
3033.0 0.0003297 2527.93579 3158.58301
3597.0 0.0002780 2527.66724 3578.16650
4256.0 0.0002350 2527.39478 4258.30420
5226.0 0.0001914 2527.11792 5215.38037
6439.0 0.0001553 2526.83716 6346.05957
7588.0 0.0001318 2526.55176 7383.07910
8345.0 0.0001198 2526.26221 7921.68164
8132.0 0.0001230 2525.96826 7669.98975
6755.0 0.0001480 2525.66968 6755.31592
5590.0 0.0001789 2525.36694 5618.20459
4649.0 0.0002151 2525.05957 4572.87744
3851.0 0.0002597 2524.74756 3782.16187
3296.0 0.0003034 2524.43091 3268.48877
3010.0 0.0003322 2524.10962 2973.10181
2902.0 0.0003446 2523.78394 2816.34277
2770.0 0.000361 2523.45337 2734.32642
2690.0 0.000372 2523.11792 2688.33276
2751.0 0.000364 2522.77783 2659.08252
2733.0 0.000366 2522.43286 2638.16577
2596.0 0.000385 2522.08301 2622.07275
2628.0 0.000381 2521.72827 2609.21167
2663.0 0.000376 2521.36865 2598.72119
2639.0 0.000379 2521.00391 2590.04443
2671.0 0.000374 2520.63452 2582.79028
2671.0 0.000374 2520.26001 2576.66772
2605.0 0.000384 2519.88013 2571.45898
2614.0 0.000383 2519.49561 2566.99756
2611.0 0.000383 2519.10571 2563.15405
2610.0 0.000383 2518.71094 2559.82813
2658.0 0.000376 2518.31104 2556.94092
2568.0 0.000389 2517.90576 2554.42993
2606.0 0.000384 2517.49561 2552.24658
2561.0 0.000390 2517.07983 2550.35278
2648.0 0.000378 2516.65918 2548.71777
2652.0 0.000377 2516.23340 2547.31958
2623.0 0.000381 2515.80200 2546.14038
2638.0 0.000379 2515.36572 2545.17017
2603.0 0.000384 2514.92383 2544.40210
2675.0 0.000374 2514.47705 2543.83594
2706.0 0.000370 2514.02466 2543.47485
2648.0 0.000378 2513.56714 2543.32886
2705.0 0.000370 2513.10449 2543.41504
2702.0 0.000370 2512.63599 2543.75659
2578.0 0.000388 2512.16260 2544.39038
2713.0 0.000369 2511.68384 2545.37183
2665.0 0.000375 2511.19971 2546.79688
2648.0 0.000378 2510.71021 2548.85913
2610.0 0.000383 2510.21533 2551.95752
2637.0 0.000379 2509.71533 2556.87354
2623.0 0.000381 2509.20972 2564.92236
2682.0 0.000373 2508.69897 2577.86035
2594.0 0.000386 2508.18286 2597.27686
2745.0 0.000364 2507.66138 2623.45337
2710.0 0.000369 2507.13477 2654.13403
2735.0 0.000366 2506.60254 2683.84863
2724.0 0.000367 2506.06519 2705.31055
2757.0 0.000363 2505.52246 2716.59790
2889.0 0.0003461 2504.97461 2729.28638
2710.0 0.000369 2504.42139 2767.26440
2962.0 0.0003376 2503.86255 2864.31152
3089.0 0.0003237 2503.29883 3062.13086
3385.0 0.0002954 2502.72974 3398.66040
3875.0 0.0002581 2502.15552 3882.74585
4414.0 0.0002266 2501.57617 4457.92969
5091.0 0.0001964 2500.99146 4999.89404
5283.0 0.0001893 2500.40161 5294.62646
5049.0 0.0001981 2499.80664 5182.56885
4635.0 0.0002157 2499.20654 4727.53418
4037.0 0.0002477 2498.60107 4139.24854
3625.0 0.0002759 2497.99072 3592.34790
3332.0 0.0003001 2497.37524 3174.40356
3040.0 0.0003289 2496.75488 2899.87280
2935.0 0.0003407 2496.12915 2740.07227
2710.0 0.000369 2495.49878 2654.15674
2597.0 0.000385 2494.86304 2608.61182
2623.0 0.000381 2494.22266 2582.75610
2569.0 0.000389 2493.57715 2566.12573
2469.0 0.000405 2492.92676 2554.09351
2545.0 0.000393 2492.27148 2544.71021
2624.0 0.000381 2491.61157 2537.09277
2489.0 0.000402 2490.94678 2530.76270
2424.0 0.000413 2490.27710 2525.41528
2449.0 0.000408 2489.60278 2520.83447
2589.0 0.000386 2488.92358 2516.86060
2513.0 0.000398 2488.23975 2513.37402
2522.0 0.000397 2487.55127 2510.28125
2596.0 0.000385 2486.85815 2507.51147
2482.0 0.000403 2486.16064 2505.00781
2410.0 0.000415 2485.45850 2502.72534
2530.0 0.000395 2484.75171 2500.62866
2542.0 0.000393 2484.04077 2498.68799
2434.0 0.000411 2483.32544 2496.88013
2475.0 0.000404 2482.60547 2495.18555
2521.0 0.000397 2481.88135 2493.58740
2507.0 0.000399 2481.15259 2492.07275
2515.0 0.000398 2480.41992 2490.79224
2414.0 0.000414 2479.68311 2489.41699
2453.0 0.000408 2478.94189 2488.09668
2447.0 0.000409 2478.19678 2486.82446
2477.0 0.000404 2477.44727 2485.59424
2433.0 0.000411 2476.69409 2484.40112
2578.0 0.000388 2475.93677 2483.23999
2468.0 0.000405 2475.17554 2482.12280
2398.0 0.000417 2474.41040 2481.01685
2481.0 0.000403 2473.64136 2479.93408
2496.0 0.000401 2472.86841 2479.17676
2502.0 0.000400 2472.09229 2478.14136
2538.0 0.000394 2471.31201 2477.12183
2455.0 0.000407 2470.52808 2476.11792
2523.0 0.000396 2469.74097 2475.12646
2498.0 0.000400 2468.95020 2474.14746
2454.0 0.000407 2468.15552 2473.17993
2488.0 0.000402 2467.35791 2472.22192
2468.0 0.000405 2466.55664 2471.27319
2473.0 0.000404 2465.75220 2470.33301
2431.0 0.000411 2464.94458 2469.40039
2377.0 0.000421 2464.13354 2468.47485
2398.0 0.000417 2463.31958 2467.55615
2391.0 0.000418 2462.50220 2466.64307
2363.0 0.000423 2461.68213 2465.73682
2437.0 0.000410 2460.85889 2464.83545
2408.0 0.000415 2460.03296 2463.93921
2387.0 0.000419 2459.20386 2463.04883
2405.0 0.000416 2458.37231 2462.16333
2419.0 0.000413 2457.53784 2461.28345
2469.0 0.000405 2456.70068 2460.40747
2458.0 0.000407 2455.86060 2459.53711
2439.0 0.000410 2455.01831 2458.67236
2337.0 0.000428 2454.17358 2457.81226
2411.0 0.000415 2453.32617 2456.95850
2380.0 0.000420 2452.47632 2456.11060
2462.0 0.000406 2451.62451 2455.26904
2395.0 0.000418 2450.77026 2454.43433
2341.0 0.000427 2449.91382 2453.60718
2412.0 0.000415 2449.05518 2452.78857
2438.0 0.000410 2448.19434 2450.08887
2437.0 0.000410 2447.33179 2449.34229
2431.0 0.000411 2446.46704 2448.60498
2383.0 0.000420 2445.60034 2447.87866
2434.0 0.000411 2444.73218 2447.16504
2431.0 0.000411 2443.86206 2446.46655
2432.0 0.000411 2442.99048 2445.78516
2354.0 0.000425 2442.11694 2445.12476
2352.0 0.000425 2441.24194 2444.48853
2439.0 0.000410 2440.36548 2443.88135
2461.0 0.000406 2439.48730 2443.30859
2529.0 0.000395 2438.60815 2442.77734
2397.0 0.000417 2437.72754 2442.29639
2387.0 0.000419 2436.84570 2442.23999
2457.0 0.000407 2435.96265 2441.90674
2411.0 0.000415 2435.07861 2441.66797
2357.0 0.000424 2434.19336 2441.54883
2492.0 0.000401 2433.30713 2441.58521
2457.0 0.000407 2432.41992 2441.83325
2431.0 0.000411 2431.53198 2442.40112
2396.0 0.000417 2430.64307 2444.88745
2475.0 0.000404 2429.75391 2447.14868
2410.0 0.000415 2428.86353 2451.65601
2401.0 0.000416 2427.97290 2460.49805
2364.0 0.000423 2427.08179 2476.72656
2509.0 0.000399 2426.18994 2503.52808
2555.0 0.000391 2425.29785 2542.26416
2506.0 0.000399 2424.40527 2589.92554
2633.0 0.000380 2423.51245 2637.01465
2624.0 0.000381 2422.61938 2667.50488
2584.0 0.000387 2421.72656 2667.19287
2572.0 0.000389 2420.83350 2639.62695
2541.0 0.000394 2419.94019 2604.11108
2539.0 0.000394 2419.04712 2580.43506
2563.0 0.000390 2418.15405 2582.59473
2608.0 0.000383 2417.26123 2617.33032
2622.0 0.000381 2416.36865 2682.23071
2656.0 0.000377 2415.47632 2763.91235
2747.0 0.000364 2414.58447 2837.60962
2850.0 0.000351 2413.69312 2870.39526
2740.0 0.000365 2412.80200 2840.77734
2695.0 0.000371 2411.91162 2762.55933
2631.0 0.000380 2411.02197 2668.47876
2440.0 0.000410 2410.13281 2583.65454
2494.0 0.000401 2409.24438 2519.74268
2418.0 0.000414 2408.35669 2477.83228
2413.0 0.000414 2407.47021 2453.11230
2435.0 0.000411 2406.58447 2439.35815
2390.0 0.000418 2405.69971 2431.60791
2386.0 0.000419 2404.81592 2426.83496
2411.0 0.000415 2403.93335 2423.50928
2427.0 0.000412 2403.05200 2420.94800
2263.0 0.000442 2402.17188 2418.85864
2370.0 0.000422 2401.29297 2417.10498
2473.0 0.000404 2400.41528 2415.61255
2449.0 0.000408 2399.53931 2414.33447
2389.0 0.000419 2398.66479 2413.23975
2448.0 0.000408 2397.79175 2412.30713
2439.0 0.000410 2396.91992 2411.52368
2390.0 0.000418 2396.05005 2410.88086
2357.0 0.000424 2395.18188 2410.37866
2450.0 0.000408 2394.31543 2410.01758
2473.0 0.000404 2393.45093 2409.80591
2290.0 0.000437 2392.58838 2409.75537
2424.0 0.000413 2391.72754 2409.88379
2390.0 0.000418 2390.86865 2410.21436
2442.0 0.000410 2390.01196 2410.78052
2309.0 0.000433 2389.15723 2411.62305
2356.0 0.000424 2388.30469 2412.79834
2446.0 0.000409 2387.45410 2414.38184
2432.0 0.000411 2386.60620 2416.47949
2449.0 0.000408 2385.76050 2419.25659
2440.0 0.000410 2384.91699 2423.02856
2420.0 0.000413 2384.07593 2428.39282
2388.0 0.000419 2383.23730 2436.74072
2526.0 0.000396 2382.40112 2450.87134
2578.0 0.000388 2381.56763 2475.70215
2591.0 0.000386 2380.73657 2518.16553
2698.0 0.000371 2379.90820 2585.20679
2883.0 0.0003469 2379.08276 2679.58716
3015.0 0.0003317 2378.26001 2795.02026
3137.0 0.0003188 2377.43994 2913.11182
3175.0 0.0003150 2376.62280 3006.40991
3252.0 0.0003075 2375.80835 3061.81323
3261.0 0.0003067 2374.99707 3113.16504
3351.0 0.0002984 2374.18848 3222.94409
3545.0 0.0002821 2373.38306 3433.78247
3909.0 0.0002558 2372.58081 3738.32910
4442.0 0.0002251 2371.78174 4064.09717
4697.0 0.0002129 2370.98535 4275.44434
4488.0 0.0002228 2370.19263 4240.86133
4174.0 0.0002396 2369.40283 3964.67334
3779.0 0.0002646 2368.61646 3575.44507
3316.0 0.0003016 2367.83325 3196.68750
2981.0 0.0003355 2367.05371 2895.87256
2856.0 0.0003501 2366.27759 2690.46021
2677.0 0.000374 2365.50464 2566.10571
2524.0 0.000396 2364.73511 2496.75610
2555.0 0.000391 2363.96924 2458.94702
2559.0 0.000391 2363.20679 2437.02222
2445.0 0.000409 2362.44800 2423.00195
2397.0 0.000417 2361.69263 2412.86963
2401.0 0.000416 2360.94116 2404.95557
2437.0 0.000410 2360.19312 2398.50024
2355.0 0.000425 2359.44897 2393.10352
2521.0 0.000397 2358.70874 2388.51440
2376.0 0.000421 2357.97192 2384.54248
2372.0 0.000422 2357.23901 2381.08813
2390.0 0.000418 2356.51001 2377.73071
2326.0 0.000430 2355.78491 2375.02148
2357.0 0.000424 2355.06348 2372.58350
2446.0 0.000409 2354.34619 2370.37231
2373.0 0.000421 2353.63257 2368.35034
2320.0 0.000431 2352.92334 2366.48950
2315.0 0.000432 2352.21777 2364.76538
2354.0 0.000425 2351.51636 2363.15894
2400.0 0.000417 2350.81885 2361.65405
2295.0 0.000436 2350.12573 2360.23853
2318.0 0.000431 2349.43628 2358.90088
2318.0 0.000431 2348.75122 2357.63208
2376.0 0.000421 2348.07031 2356.42480
2356.0 0.000424 2347.39355 2355.27246
2324.0 0.000430 2346.72095 2354.16968
2338.0 0.000428 2346.05249 2353.11279
2355.0 0.000425 2345.38818 2352.09790
2307.0 0.000433 2344.72827 2351.12231
2303.0 0.000434 2344.07227 2350.18359
2478.0 0.000404 2343.42090 2349.28174
2323.0 0.000430 2342.77368 2348.41528
2248.0 0.000445 2342.13086 2347.58667
2407.0 0.000415 2341.49219 2346.79932
2438.0 0.000410 2340.85791 2346.06372
2363.0 0.000423 2340.22827 2345.40625
2404.0 0.000416 2339.60254 2344.88721
2321.0 0.000431 2338.98145 2344.63110
2286.0 0.000437 2338.36450 2344.84985
2338.0 0.000428 2337.75195 2345.82666
2268.0 0.000441 2337.14404 2347.80981
2335.0 0.000428 2336.54053 2350.82007
2284.0 0.000438 2335.94116 2354.42505
2380.0 0.000420 2335.34644 2357.57178
2393.0 0.000418 2334.75610 2358.69238
2236.0 0.000447 2334.16992 2356.76782
2364.0 0.000423 2333.58838 2352.50537
2373.0 0.000421 2333.01147 2347.48462
2335.0 0.000428 2332.43872 2342.89282
2373.0 0.000421 2331.87061 2339.27905
2318.0 0.000431 2331.30688 2336.69727
2348.0 0.000426 2330.74756 2334.92700
2275.0 0.000440 2330.19287 2333.67896
2307.0 0.000433 2329.64233 2332.72192
2299.0 0.000435 2329.09644 2331.91309
2348.0 0.000426 2328.55469 2330.82104
2361.0 0.000424 2328.01782 2330.14063
2243.0 0.000446 2327.48511 2329.48755
2279.0 0.000439 2326.95703 2328.85547
2317.0 0.000432 2326.43335 2328.24023
2304.0 0.000434 2325.91382 2327.63940
2288.0 0.000437 2325.39917 2327.05127
2196.0 0.000455 2324.88867 2325.11646
2411.0 0.000415 2324.38257 2324.58789
2381.0 0.000420 2323.88086 2324.06641
2349.0 0.000426 2323.38354 2323.55225
2375.0 0.000421 2322.89087 2323.04492
2260.0 0.000442 2322.40234 2322.54346
2286.0 0.000437 2321.91821 2322.05933
2234.0 0.000448 2321.43823 2321.56982
2257.0 0.000443 2320.96289 2321.08618
2353.0 0.000425 2320.49170 2320.60718
2303.0 0.000434 2320.02490 2320.13379
2265.0 0.000442 2319.56250 2319.66528
2324.0 0.000430 2319.10449 2319.20166
2212.0 0.000452 2318.65039 2318.94775
2374.0 0.000421 2318.20068 2318.50000
2318.0 0.000431 2317.75537 2318.05688
2353.0 0.000425 2317.31421 2317.61865
2311.0 0.000433 2316.87720 2317.18579
2340.0 0.000427 2316.44434 2316.75732
2254.0 0.000444 2316.01587 2316.33350
2317.0 0.000432 2315.59131 2315.91504
2284.0 0.000438 2315.17114 2315.50122
2391.0 0.000418 2314.75488 2315.09180
2244.0 0.000446 2314.34277 2314.68750
2252.0 0.000444 2313.93481 2314.28735
2259.0 0.000443 2313.53076 2313.89209
2302.0 0.000434 2313.13062 2313.50195
2332.0 0.000429 2312.73486 2313.11646
2276.0 0.000439 2312.34277 2312.73584
2301.0 0.000435 2311.95483 2312.36011
2278.0 0.000439 2311.57056 2311.98877
2292.0 0.000436 2311.19043 2311.62256
2385.0 0.000419 2310.81421 2311.26099
2224.0 0.000450 2310.44165 2310.90454
2361.0 0.000424 2310.07300 2310.55249
2291.0 0.000436 2309.70801 2310.20630
2242.0 0.000446 2309.34692 2309.86475
2276.0 0.000439 2308.98975 2309.52881
2239.0 0.000447 2308.63599 2309.19775
2231.0 0.000448 2308.28613 2308.87183
2326.0 0.000430 2307.93970 2308.55200
2275.0 0.000440 2307.59717 2308.23730
2314.0 0.000432 2307.25781 2307.92871
2319.0 0.000431 2306.92236 2307.62622
2312.0 0.000433 2306.59033 2307.32959
2314.0 0.000432 2306.26172 2307.03979
2253.0 0.000444 2305.93677 2306.75635
2320.0 0.000431 2305.61499 2306.48047
2251.0 0.000444 2305.29688 2306.21216
2235.0 0.000447 2304.98193 2305.95166
2265.0 0.000442 2304.67017 2305.69971
2210.0 0.000452 2304.36206 2305.44092
2314.0 0.000432 2304.05688 2305.20850
2267.0 0.000441 2303.75488 2304.98730
2261.0 0.000442 2303.45630 2304.77759
2190.0 0.000457 2303.16089 2304.58105
2352.0 0.000425 2302.86841 2304.39941
2310.0 0.000433 2302.57910 2304.23438
2317.0 0.000432 2302.29272 2304.08813
2221.0 0.000450 2302.00928 2303.96313
2342.0 0.000427 2301.72876 2303.86377
2377.0 0.000421 2301.45142 2303.79370
2302.0 0.000434 2301.17676 2303.75830
2171.0 0.000461 2300.90479 2303.76489
2374.0 0.000421 2300.63574 2303.82324
2289.0 0.000437 2300.36963 2303.94629
2295.0 0.000436 2300.10596 2304.15747
2255.0 0.000443 2299.84521 2304.49683
2231.0 0.000448 2299.58691 2305.04126
2287.0 0.000437 2299.33130 2305.92505
2311.0 0.000433 2299.07813 2307.35693
2314.0 0.000432 2298.82739 2309.59863
2338.0 0.000428 2298.57935 2312.90161
2320.0 0.000431 2298.33350 2317.43945
2328.0 0.000430 2298.09009 2323.33154
2313.0 0.000432 2297.84888 2330.85767
2303.0 0.000434 2297.61011 2341.04395
2318.0 0.000431 2297.37354 2356.69897
2372.0 0.000422 2297.13940 2382.09351
2306.0 0.000434 2296.90723 2420.09692
2508.0 0.000399 2296.67700 2468.85327
2674.0 0.000374 2296.44897 2519.24634
2681.0 0.000373 2296.22290 2553.96875
2556.0 0.000391 2295.99902 2554.71484
2539.0 0.000394 2295.77686 2520.30469
2416.0 0.000414 2295.55664 2467.98633
2371.0 0.000422 2295.33813 2415.49023
2496.0 0.000401 2295.12158 2372.82153
2310.0 0.000433 2294.90698 2342.99512
2233.0 0.000448 2294.69360 2324.49268
2353.0 0.000425 2294.48218 2313.93042
2253.0 0.000444 2294.27222 2308.06421
2261.0 0.000442 2294.06396 2304.65332
2306.0 0.000434 2293.85718 2302.44946
2248.0 0.000445 2293.65161 2300.85303
2233.0 0.000448 2293.44775 2299.59912
2306.0 0.000434 2293.24536 2298.56665
2293.0 0.000436 2293.04395 2297.69263
2309.0 0.000433 2292.84399 2296.93921
2314.0 0.000432 2292.64551 2296.27930
2348.0 0.000426 2292.44800 2295.69360
2309.0 0.000433 2292.25146 2295.16772
2361.0 0.000424 2292.05615 2294.69043
2352.0 0.000425 2291.86182 2294.25269
2353.0 0.000425 2291.66870 2298.53198
2370.0 0.000422 2291.47656 2298.29346
2413.0 0.000414 2291.28516 2298.08447
2412.0 0.000415 2291.09448 2297.90210
2300.0 0.000435 2290.90479 2297.74316
2338.0 0.000428 2290.71582 2297.60645
2336.0 0.000428 2290.52759 2297.49048
2298.0 0.000435 2290.34009 2297.39380
2294.0 0.000436 2290.15308 2297.51758
2315.0 0.000432 2289.96680 2297.46338
2260.0 0.000442 2289.78101 2297.42700
2293.0 0.000436 2289.59546 2297.40796
2277.0 0.000439 2289.41064 2297.40723
2318.0 0.000431 2289.22607 2297.42480
2263.0 0.000442 2289.04199 2297.46021
2278.0 0.000439 2288.85815 2297.51489
2327.0 0.000430 2288.67432 2297.58887
2332.0 0.000429 2288.49097 2297.68335
2275.0 0.000440 2288.30786 2297.79932
2252.0 0.000444 2288.12451 2297.93823
2346.0 0.000426 2287.94141 2298.10034
2340.0 0.000427 2287.75854 2298.28833
2290.0 0.000437 2287.57544 2298.50391
2363.0 0.000423 2287.39233 2298.74878
2305.0 0.000434 2287.20898 2299.02466
2331.0 0.000429 2287.02539 2299.33496
2287.0 0.000437 2286.84204 2299.68213
2313.0 0.000432 2286.65796 2300.06982
2298.0 0.000435 2286.47388 2300.50098
2281.0 0.000438 2286.28931 2300.98071
2326.0 0.000430 2286.10449 2301.51318
2306.0 0.000434 2285.91895 2302.10400
2251.0 0.000444 2285.73340 2302.75879
2359.0 0.000424 2285.54688 2303.48511
2262.0 0.000442 2285.36011 2304.29077
2302.0 0.000434 2285.17261 2305.18530
2296.0 0.000436 2284.98462 2306.17822
2335.0 0.000428 2284.79565 2307.28296
2221.0 0.000450 2284.60620 2308.51294
2368.0 0.000422 2284.41602 2309.88550
2343.0 0.000427 2284.22485 2311.41919
2395.0 0.000418 2284.03271 2313.12573
2391.0 0.000418 2283.84009 2315.05566
2297.0 0.000435 2283.64624 2317.22949
2278.0 0.000439 2283.45142 2319.68604
2338.0 0.000428 2283.25586 2322.47095
2336.0 0.000428 2283.05884 2325.64136
2352.0 0.000425 2282.86084 2329.26538
2367.0 0.000422 2282.66187 2333.22363
2339.0 0.000428 2282.46167 2338.03711
2328.0 0.000430 2282.26025 2343.62866
2341.0 0.000427 2282.05762 2350.16479
2253.0 0.000444 2281.85376 2357.86206
2320.0 0.000431 2281.64844 2366.99976
2349.0 0.000426 2281.44165 2377.94629
2477.0 0.000404 2281.23364 2391.19751
2374.0 0.000421 2281.02417 2407.44678
2482.0 0.000403 2280.81323 2427.74854
2498.0 0.000400 2280.60083 2453.94775
2527.0 0.000396 2280.38672 2489.83228
2590.0 0.000386 2280.17114 2543.84888
2629.0 0.000380 2279.95386 2634.33472
2927.0 0.0003416 2279.73511 2796.84155
3039.0 0.0003291 2279.51465 3089.13062
3639.0 0.0002748 2279.29224 3584.13037
4342.0 0.0002303 2279.06836 4340.93066
5533.0 0.0001807 2278.84253 5354.86865
6884.0 0.0001453 2278.61499 6501.58252
7916.0 0.0001263 2278.38550 7491.33203
8221.0 0.0001216 2278.15430 7907.35352
7698.0 0.0001299 2277.92114 7514.58887
6658.0 0.0001502 2277.68579 6542.24414
5366.0 0.0001864 2277.44873 5410.89111
4355.0 0.0002296 2277.20972 4417.43018
3598.0 0.0002779 2276.96851 3691.48291
3344.0 0.0002990 2276.72534 3238.31812
2990.0 0.0003344 2276.47998 2992.36572
2846.0 0.000351 2276.23267 2865.86572
2786.0 0.000359 2275.98315 2782.65112
2699.0 0.000371 2275.73145 2701.74805
2667.0 0.000375 2275.47729 2618.75049
2500.0 0.000400 2275.22144 2542.61890
2456.0 0.000407 2274.96313 2480.21899
2490.0 0.000402 2274.70239 2433.56079
2368.0 0.000422 2274.43945 2400.84448
2340.0 0.000427 2274.17407 2378.46191
2284.0 0.000438 2273.90674 2362.82373
2274.0 0.000440 2273.63672 2351.28491
2384.0 0.000419 2273.36426 2342.23315
2326.0 0.000430 2273.08960 2334.79028
2361.0 0.000424 2272.81226 2328.48657
2272.0 0.000440 2272.53271 2323.05347
2344.0 0.000427 2272.25049 2318.31665
2292.0 0.000436 2271.96582 2314.15039
2386.0 0.000419 2271.67896 2310.45801
2232.0 0.000448 2271.38916 2307.16382
2216.0 0.000451 2271.09692 2304.20605
2384.0 0.000419 2270.80225 2301.53564
2336.0 0.000428 2270.50464 2299.11108
2286.0 0.000437 2270.20483 2296.89868
2277.0 0.000439 2269.90210 2294.87036
2401.0 0.000416 2269.59692 2293.00195
2455.0 0.000407 2269.28906 2291.27441
2442.0 0.000410 2268.97852 2289.66968
2454.0 0.000407 2268.66528 2288.17358
2417.0 0.000414 2268.34937 2286.77393
2322.0 0.000431 2268.03052 2285.45972
2275.0 0.000440 2267.70923 2284.22095
2326.0 0.000430 2267.38501 2283.05103
2232.0 0.000448 2267.05811 2281.94141
2323.0 0.000430 2266.72852 2280.88623
2131.0 0.000469 2266.39624 2279.88062
2219.0 0.000451 2266.06079 2278.91870
2230.0 0.000448 2265.72290 2277.99731
2269.0 0.000441 2265.38232 2277.11157
2224.0 0.000450 2265.03857 2276.25854
2222.0 0.000450 2264.69214 2275.43530
2202.0 0.000454 2264.34277 2274.63916
2310.0 0.000433 2263.99072 2273.86768
2322.0 0.000431 2263.63574 2273.11792
2334.0 0.000428 2263.27808 2272.38892
2211.0 0.000452 2262.91748 2271.67847
2245.0 0.000445 2262.55396 2270.98486
2280.0 0.000439 2262.18750 2270.30688
2249.0 0.000445 2261.81836 2269.64258
2282.0 0.000438 2261.44629 2268.99194
2285.0 0.000438 2261.07129 2268.35254
2224.0 0.000450 2260.69360 2267.72388
2169.0 0.000461 2260.31274 2267.10522
2194.0 0.000456 2259.92896 2266.49561
2199.0 0.000455 2259.54272 2265.89404
2255.0 0.000443 2259.15332 2265.30029
2253.0 0.000444 2258.76099 2264.71338
2229.0 0.000449 2258.36597 2264.13257
2252.0 0.000444 2257.96802 2263.55713
2178.0 0.000459 2257.56714 2262.98730
2180.0 0.000459 2257.16333 2262.42212
2259.0 0.000443 2256.75659 2261.86084
2233.0 0.000448 2256.34717 2256.61719
2202.0 0.000454 2255.93481 2256.19604
2145.0 0.000466 2255.51978 2255.97437
2221.0 0.000450 2255.10156 2255.55444
2204.0 0.000454 2254.68066 2255.13232
2128.0 0.000470 2254.25684 2254.70776
2298.0 0.000435 2253.83032 2254.28101
2282.0 0.000438 2253.40088 2253.85229
2149.0 0.000465 2252.96851 2253.60376
2277.0 0.000439 2252.53369 2252.97144
2255.0 0.000443 2252.09570 2252.54761
2327.0 0.000430 2251.65503 2252.12109
2279.0 0.000439 2251.21167 2251.69287
2199.0 0.000455 2250.76514 2251.26245
2198.0 0.000455 2250.31641 2250.83032
2259.0 0.000443 2249.86450 2250.39600
2213.0 0.000452 2249.40991 2249.95996
2315.0 0.000432 2248.95264 2249.52222
2263.0 0.000442 2248.49268 2249.08276
2221.0 0.000450 2248.03003 2248.64185
2267.0 0.000441 2247.56470 2248.19946
2218.0 0.000451 2247.09668 2247.75537
2261.0 0.000442 2246.62598 2247.31030
2381.0 0.000420 2246.15234 2246.86401
2283.0 0.000438 2245.67627 2246.41675
2303.0 0.000434 2245.19751 2245.96851
2341.0 0.000427 2244.71631 2245.51978
2248.0 0.000445 2244.23242 2245.07056
2287.0 0.000437 2243.74609 2244.62085
2296.0 0.000436 2243.25708 2244.17139
2247.0 0.000445 2242.76563 2243.72217
2315.0 0.000432 2242.27148 2243.27295
2265.0 0.000442 2241.77515 2242.82495
2278.0 0.000439 2241.27588 2242.37793
2340.0 0.000427 2240.77441 2241.93262
2429.0 0.000412 2240.27051 2241.48877
2520.0 0.000397 2239.76416 2241.04761
2512.0 0.000398 2239.25537 2240.60962
2591.0 0.000386 2238.74414 2240.17505
2601.0 0.000384 2238.23071 2239.74487
2519.0 0.000397 2237.71484 2239.31982
2391.0 0.000418 2237.19678 2238.90137
2355.0 0.000425 2236.67627 2238.48975
2206.0 0.000453 2236.15356 2238.08691
2255.0 0.000443 2235.62842 2237.69360
2297.0 0.000435 2235.10132 2237.31299
2255.0 0.000443 2234.57202 2236.94580
2218.0 0.000451 2234.04028 2236.59546
2256.0 0.000443 2233.50659 2236.26440
2257.0 0.000443 2232.97095 2235.95679
2149.0 0.000465 2232.43286 2235.67651
2190.0 0.000457 2231.89282 2235.42920
2222.0 0.000450 2231.35083 2235.22168
2234.0 0.000448 2230.80664 2235.06226
2171.0 0.000461 2230.26074 2240.08838
2206.0 0.000453 2229.71289 2240.21191
2165.0 0.000462 2229.16284 2240.43213
2190.0 0.000457 2228.61108 2240.77319
2068.0 0.000484 2228.05713 2241.26636
2180.0 0.000459 2227.50171 2241.95850
2186.0 0.000457 2226.94434 2242.92383
2142.0 0.000467 2226.38501 2244.30273
2233.0 0.000448 2225.82422 2246.39038
2185.0 0.000458 2225.26147 2249.81470
2208.0 0.000453 2224.69727 2255.80518
2234.0 0.000448 2224.13110 2266.43237
2228.0 0.000449 2223.56348 2284.50098
2285.0 0.000438 2222.99414 2312.70605
2276.0 0.000439 2222.42334 2351.98096
2357.0 0.000424 2221.85083 2399.48071
2472.0 0.000405 2221.27710 2446.72656
2512.0 0.000398 2220.70166 2479.50806
2400.0 0.000417 2220.12476 2486.72778
2435.0 0.000411 2219.54663 2474.74976
2424.0 0.000413 2218.96704 2461.18750
2417.0 0.000414 2218.38599 2457.85669
2446.0 0.000409 2217.80371 2464.63574
2392.0 0.000418 2217.21997 2469.85254
2446.0 0.000409 2216.63525 2457.53174
2258.0 0.000443 2216.04932 2423.62549
2380.0 0.000420 2215.46216 2378.98975
2292.0 0.000436 2214.87378 2335.78247
2251.0 0.000444 2214.28442 2300.82471
2229.0 0.000449 2213.69385 2276.09204
2297.0 0.000435 2213.10229 2260.40698
2235.0 0.000447 2212.50977 2251.22925
2219.0 0.000451 2211.91602 2246.06958
2273.0 0.000440 2211.32178 2243.15039
2206.0 0.000453 2210.72656 2241.44214
2314.0 0.000432 2210.13013 2240.43188
2312.0 0.000433 2209.53320 2239.88599
2255.0 0.000443 2208.93530 2239.69946
2286.0 0.000437 2208.33691 2239.82324
2132.0 0.000469 2207.73755 2240.23511
2189.0 0.000457 2207.13745 2240.92773
2382.0 0.000420 2206.53687 2241.90552
2189.0 0.000457 2205.93579 2243.18115
2137.0 0.000468 2205.33398 2244.77832
2260.0 0.000442 2204.73169 2246.72925
2260.0 0.000442 2204.12891 2249.07715
2229.0 0.000449 2203.52539 2251.87744
2166.0 0.000462 2202.92188 2255.20093
2269.0 0.000441 2202.31787 2259.13647
2378.0 0.000421 2201.71338 2263.79639
2238.0 0.000447 2201.10889 2269.32422
2272.0 0.000440 2200.50391 2275.90210
2221.0 0.000450 2199.89868 2283.76440
2308.0 0.000433 2199.29321 2293.21753
2273.0 0.000440 2198.68774 2304.66724
2302.0 0.000434 2198.08203 2318.65918
2366.0 0.000423 2197.47607 2335.96509
2288.0 0.000437 2196.87036 2357.76929
2332.0 0.000429 2196.26465 2386.16846
2434.0 0.000411 2195.65894 2425.43726
2435.0 0.000411 2195.05322 2484.87817
2525.0 0.000396 2194.44751 2583.99463
2727.0 0.000367 2193.84204 2759.16504
2933.0 0.0003409 2193.23706 3067.15649
3508.0 0.0002851 2192.63184 3576.49194
4339.0 0.0002305 2192.02710 4338.70703
5407.0 0.0001849 2191.42285 5341.82178
6562.0 0.0001524 2190.81885 6457.86377
7567.0 0.0001322 2190.21509 7396.42432
7936.0 0.0001260 2189.61157 7749.36914
7281.0 0.0001373 2189.00879 7311.85498
6354.0 0.0001574 2188.40625 6332.47949
4953.0 0.0002019 2187.80444 5216.60938
4135.0 0.0002418 2187.20313 4235.35986
3347.0 0.0002988 2186.60254 3501.15063
2972.0 0.0003365 2186.00244 3016.26709
2817.0 0.000355 2185.40308 2725.19946
2482.0 0.000403 2184.80444 2559.70874
2442.0 0.000410 2184.20654 2465.18799
2409.0 0.000415 2183.60938 2407.44189
2325.0 0.000430 2183.01318 2368.43408
2333.0 0.000429 2182.41772 2339.63428
2332.0 0.000429 2181.82324 2317.11475
2335.0 0.000428 2181.22974 2320.83618
2290.0 0.000437 2180.63696 2306.50000
2310.0 0.000433 2180.04541 2294.65771
2297.0 0.000435 2179.45483 2284.78247
2268.0 0.000441 2178.86523 2276.28247
2243.0 0.000446 2178.27710 2269.26685
2267.0 0.000441 2177.68970 2263.30176
2202.0 0.000454 2177.10376 2258.20972
2223.0 0.000450 2176.51904 2264.00244
2350.0 0.000426 2175.93530 2260.56812
2231.0 0.000448 2175.35303 2257.49976
2186.0 0.000457 2174.77222 2255.09985
2224.0 0.000450 2174.19263 2253.12378
2209.0 0.000453 2173.61450 2251.52612
2205.0 0.000454 2173.03784 2250.27173
2243.0 0.000446 2172.46240 2249.33105
2222.0 0.000450 2171.88867 2248.68237
2246.0 0.000445 2171.31665 2248.30762
2233.0 0.000448 2170.74585 2248.19336
2237.0 0.000447 2170.17676 2248.33032
2302.0 0.000434 2169.60938 2248.71289
2183.0 0.000458 2169.04370 2249.33765
2287.0 0.000437 2168.47949 2250.20410
2283.0 0.000438 2167.91724 2251.31567
2204.0 0.000454 2167.35669 2252.67700
2165.0 0.000462 2166.79810 2254.29517
2286.0 0.000437 2166.24121 2256.18140
2183.0 0.000458 2165.68604 2258.34766
2307.0 0.000433 2165.13306 2260.81104
2178.0 0.000459 2164.58179 2263.59033
2286.0 0.000437 2164.03247 2266.70874
2212.0 0.000452 2163.48511 2270.19165
2290.0 0.000437 2162.93970 2274.07031
2212.0 0.000452 2162.39673 2278.38086
2270.0 0.000441 2161.85547 2283.16406
2262.0 0.000442 2161.31641 2288.46851
2246.0 0.000445 2160.77954 2294.34937
2364.0 0.000423 2160.24487 2300.87183
2278.0 0.000439 2159.71216 2308.10962
2261.0 0.000442 2159.18188 2316.15161
2274.0 0.000440 2158.65381 2325.09961
2298.0 0.000435 2158.12793 2335.07422
2395.0 0.000418 2157.60449 2346.21899
2378.0 0.000421 2157.08325 2358.72217
2397.0 0.000417 2156.56445 2372.74609
2401.0 0.000416 2156.04810 2388.55371
2365.0 0.000423 2155.53394 2406.43701
2449.0 0.000408 2155.02222 2426.75488
2480.0 0.000403 2154.51318 2449.94556
2545.0 0.000393 2154.00659 2476.57837
2416.0 0.000414 2153.50244 2507.28003
2556.0 0.000391 2153.00098 2542.93311
2594.0 0.000386 2152.50195 2584.63013
2566.0 0.000390 2152.00537 2633.78491
2599.0 0.000385 2151.51147 2692.24829
2714.0 0.000368 2151.02026 2757.39819
2821.0 0.000354 2150.53174 2843.07813
2862.0 0.0003494 2150.04565 2949.32617
3052.0 0.0003277 2149.56274 3085.38110
3261.0 0.0003067 2149.08228 3269.73657
3495.0 0.0002861 2148.60425 3541.86401
3889.0 0.0002571 2148.12939 3983.07349
4519.0 0.0002213 2147.65723 4742.81104
5776.0 0.0001731 2147.18774 6051.47217
7931.0 0.0001261 2146.72119 8184.54785
11254.0 0.0000889 2146.25757 11348.09570
15515.0 0.0000645 2145.79663 15495.56934
20627.0 0.0000485 2145.33862 20119.51953
24674.0 0.0000405 2144.88354 24061.59961
26164.0 0.0000382 2144.43140 25696.17969
24125.0 0.0000415 2143.98218 24253.43164
20198.0 0.0000495 2143.53589 20850.35547
16681.0 0.0000599 2143.09253 17263.46094
14236.0 0.0000702 2142.65210 14689.61328
13418.0 0.0000745 2142.21484 13560.67188
13919.0 0.0000718 2141.78052 13662.76074
14829.0 0.0000674 2141.34912 14245.18652
14563.0 0.0000687 2140.92090 14268.57520
13455.0 0.0000743 2140.49585 13098.85938
10898.0 0.0000918 2140.07373 11038.47168
8336.0 0.0001200 2139.65454 8776.82715
6493.0 0.0001540 2139.23853 6796.42090
5198.0 0.0001924 2138.82568 5298.34082
4290.0 0.0002331 2138.41626 4285.85156
3546.0 0.0002820 2138.00952 3655.29663
3264.0 0.0003064 2137.60620 3277.45557
3025.0 0.0003306 2137.20605 3046.88916
2808.0 0.000356 2136.80884 2895.98950
2811.0 0.000356 2136.41504 2788.03052
2870.0 0.0003484 2136.02417 2704.97632
2653.0 0.000377 2135.63672 2638.11719
2575.0 0.000388 2135.25244 2582.89063
2479.0 0.000403 2134.87158 2536.54834
2427.0 0.000412 2134.49365 2497.21558
2424.0 0.000413 2134.11914 2463.51978
2445.0 0.000409 2133.74756 2434.41797
2375.0 0.000421 2133.37964 2409.10376
2407.0 0.000415 2133.01465 2386.94238
2347.0 0.000426 2132.65308 2367.43018
2316.0 0.000432 2132.29468 2350.16553
2274.0 0.000440 2131.93970 2334.82056
2289.0 0.000437 2131.58789 2321.13330
2291.0 0.000436 2131.23950 2308.89111
2240.0 0.000446 2130.89429 2297.93115
2338.0 0.000428 2130.55249 2288.14453
2326.0 0.000430 2130.21387 2279.48975
2283.0 0.000438 2129.87842 2272.01416
2276.0 0.000439 2129.54639 2265.85352
2286.0 0.000437 2129.21777 2261.18848
2217.0 0.000451 2128.89258 2258.12598
2208.0 0.000453 2128.57031 2256.54321
2263.0 0.000442 2128.25171 2255.91455
2259.0 0.000443 2127.93604 2255.18359
2288.0 0.000437 2127.62402 2253.10034
2320.0 0.000431 2127.31519 2249.53418
2256.0 0.000443 2127.00952 2245.83496
2283.0 0.000438 2126.70752 2243.25586
2202.0 0.000454 2126.40845 2241.85400
2339.0 0.000428 2126.11279 2240.32495
2198.0 0.000455 2125.82056 2236.68604
2237.0 0.000447 2125.53149 2230.26636
2216.0 0.000451 2125.24585 2222.40747
2230.0 0.000448 2124.96338 2214.77100
2242.0 0.000446 2124.68433 2208.31909
2292.0 0.000436 2124.40845 2203.36792
2247.0 0.000445 2124.13574 2199.81323
2173.0 0.000460 2123.86646 2197.35376
2359.0 0.000424 2123.60034 2195.67725
2273.0 0.000440 2123.33765 2194.54932
2362.0 0.000423 2123.07813 2193.83691
2347.0 0.000426 2122.82178 2193.47949
2361.0 0.000424 2122.56885 2193.46094
2305.0 0.000434 2122.31909 2193.79199
2345.0 0.000426 2122.07251 2194.49780
2379.0 0.000420 2121.82910 2195.61670
2284.0 0.000438 2121.58911 2197.20166
2302.0 0.000434 2121.35205 2199.31958
2356.0 0.000424 2121.11841 2202.05933
2282.0 0.000438 2120.88770 2183.69238
2166.0 0.000462 2120.66040 2188.66821
2285.0 0.000438 2120.43604 2194.69458
2407.0 0.000415 2120.21509 2202.02783
2345.0 0.000426 2119.99731 2211.01538
2453.0 0.000408 2119.78223 2222.14526
2512.0 0.000398 2119.57080 2236.16064
2500.0 0.000400 2119.36206 2254.35913
2424.0 0.000413 2119.15674 2269.18042
2450.0 0.000408 2118.95410 2306.66113
2622.0 0.000381 2118.75488 2367.58032
2631.0 0.000380 2118.55859 2472.51221
2761.0 0.000362 2118.36548 2653.27295
3008.0 0.0003324 2118.17505 2948.29907
3602.0 0.0002776 2117.98779 3387.36523
4271.0 0.0002341 2117.80371 3966.58032
4932.0 0.0002028 2117.62231 4618.95117
5627.0 0.0001777 2117.44409 5185.13232
5686.0 0.0001759 2117.26880 5429.82373
5389.0 0.0001856 2117.09644 5219.06836
4647.0 0.0002152 2116.92700 4686.00488
3856.0 0.0002593 2116.76025 4071.01587
3548.0 0.0002818 2116.59668 3540.99683
3092.0 0.0003234 2116.43579 3164.59546
2977.0 0.0003359 2116.27783 2938.63477
2885.0 0.0003466 2116.12256 2814.59595
2827.0 0.000354 2115.97021 2727.66968
2678.0 0.000373 2115.82056 2634.24170
2532.0 0.000395 2115.67383 2531.43188
2445.0 0.000409 2115.52979 2433.79126
2344.0 0.000427 2115.38843 2352.32349
2247.0 0.000445 2115.24976 2290.93237
2175.0 0.000460 2115.11401 2248.17529
2251.0 0.000444 2114.98071 2219.76440
2196.0 0.000455 2114.85010 2200.95581
2227.0 0.000449 2114.72217 2187.99341
2258.0 0.000443 2114.59668 2178.46191
2171.0 0.000461 2114.47388 2171.00659
2178.0 0.000459 2114.35376 2164.91650
2171.0 0.000461 2114.23608 2159.81079
2155.0 0.000464 2114.12109 2155.46094
2247.0 0.000445 2114.00830 2151.71704
2203.0 0.000454 2113.89819 2148.46680
2163.0 0.000462 2113.79028 2145.62549
2144.0 0.000466 2113.68506 2143.10645
2182.0 0.000458 2113.58228 2140.89624
2117.0 0.000472 2113.48169 2138.93237
2173.0 0.000460 2113.38354 2137.17896
2123.0 0.000471 2113.28784 2135.60840
2070.0 0.000483 2113.19434 2134.19531
2036.0 0.000491 2113.10303 2132.89453
2171.0 0.000461 2113.01392 2131.74268
2132.0 0.000469 2112.92725 2130.69922
2140.0 0.000467 2112.84277 2129.75244
2163.0 0.000462 2112.76050 2128.89111
2093.0 0.000478 2112.68018 2128.10742
2083.0 0.000480 2112.60229 2127.39380
2060.0 0.000485 2112.52612 2126.74463
2161.0 0.000463 2112.45239 2126.15381
2139.0 0.000468 2112.38037 2125.61743
2085.0 0.000480 2112.31079 2125.13062
2105.0 0.000475 2112.24292 2124.69067
2138.0 0.000468 2112.17725 2124.29590
2028.0 0.000493 2112.11328 2123.94214
2120.0 0.000472 2112.05127 2123.62939
2148.0 0.000466 2111.99121 2123.35400
2102.0 0.000476 2111.93311 2123.11743
2051.0 0.000488 2111.87671 2122.91699
2160.0 0.000463 2111.82202 2122.75391
2109.0 0.000474 2111.76929 2122.62793
2129.0 0.000470 2111.71826 2122.53955
2071.0 0.000483 2111.66919 2122.48999
2071.0 0.000483 2111.62158 2122.48022
2140.0 0.000467 2111.57544 2122.51294
2113.0 0.000473 2111.53125 2122.59058
2159.0 0.000463 2111.48853 2122.71680
2084.0 0.000480 2111.44751 2122.89600
2118.0 0.000472 2111.40796 2123.13354
2091.0 0.000478 2111.36987 2123.43555
2043.0 0.000489 2111.33325 2123.81128
2054.0 0.000487 2111.29834 2124.26953
2142.0 0.000467 2111.26465 2124.82471
2022.0 0.000495 2111.23242 2125.49194
2137.0 0.000468 2111.20166 2126.29297
2094.0 0.000478 2111.17212 2127.25586
2105.0 0.000475 2111.14404 2128.42114
2047.0 0.000489 2111.11719 2129.84863
2105.0 0.000475 2111.09155 2131.62427
2150.0 0.000465 2111.06714 2133.86230
2056.0 0.000486 2111.04395 2136.70264
2107.0 0.000475 2111.02197 2140.28711
2081.0 0.000481 2111.00098 2144.75244
2109.0 0.000474 2110.98120 2150.24609
2104.0 0.000475 2110.96265 2157.04980
2107.0 0.000475 2110.94507 2166.40674
2114.0 0.000473 2110.92847 2180.03735
2252.0 0.000444 2110.91284 2203.15723
2253.0 0.000444 2110.89819 2243.28833
2196.0 0.000455 2110.88452 2309.69312
2286.0 0.000437 2110.87183 2410.27124
2575.0 0.000388 2110.85986 2546.11304
2744.0 0.000364 2110.84863 2702.49878
2830.0 0.000353 2110.83838 2850.74829
2884.0 0.0003467 2110.82910 2934.15088
2843.0 0.000352 2110.82031 2912.34814
2720.0 0.000368 2110.81226 2807.06006
2600.0 0.000385 2110.80493 2675.56494
2480.0 0.000403 2110.79834 2559.20605
2510.0 0.000398 2110.79224 2471.99438
2418.0 0.000414 2110.78711 2409.20386
2427.0 0.000412 2110.78223 2355.84473
2390.0 0.000418 2110.77783 2307.10522
2208.0 0.000453 2110.77417 2262.74023
2213.0 0.000452 2110.77100 2224.74951
2179.0 0.000459 2110.76807 2194.81616
2143.0 0.000467 2110.76587 2173.00098
2154.0 0.000464 2110.76367 2158.04883
2110.0 0.000474 2110.76221 2148.16089
2058.0 0.000486 2110.76099 2141.63330
2141.0 0.000467 2110.76001 2137.17676
2100.0 0.000476 2110.75952 2133.96118
2009.0 0.000498 2110.75903 2131.50806
2086.0 0.000479 2110.75879 2129.55615
2124.0 0.000471 2110.75903 2127.96191
2122.0 0.000471 2110.75903 2126.63940
2090.0 0.000478 2110.75952 2125.53198
2079.0 0.000481 2110.76001 2124.59985
2055.0 0.000487 2110.76050 2123.81299
2086.0 0.000479 2110.76123 2123.14697
2034.0 0.000492 2110.76172 2122.58398
2131.0 0.000469 2110.76245 2122.10840
2055.0 0.000487 2110.76318 2121.70947
2116.0 0.000473 2110.76367 2121.37671
2127.0 0.000470 2110.76416 2121.10376
2145.0 0.000466 2110.76465 2120.88379
2086.0 0.000479 2110.76489 2120.71118
2099.0 0.000476 2110.76489 2120.58325
2172.0 0.000460 2110.76489 2120.49536
2172.0 0.000460 2110.76465 2120.44629
2075.0 0.000482 2110.76392 2120.43286
2132.0 0.000469 2110.76318 2120.45532
1998.0 0.000501 2110.76221 2120.51147
1963.0 0.000509 2110.76074 2120.60181
1989.0 0.000503 2110.75903 2120.72681
2047.0 0.000489 2110.75684 2120.88574
2096.0 0.000477 2110.75439 2121.08032
2074.0 0.000482 2110.75146 2121.31152
2088.0 0.000479 2110.74780 2121.58203
2138.0 0.000468 2110.74414 2121.89355
2031.0 0.000492 2110.73975 2122.25000
2087.0 0.000479 2110.73486 2122.65430
2136.0 0.000468 2110.72949 2123.11182
2028.0 0.000493 2110.72339 2123.62793
2061.0 0.000485 2110.71680 2124.20923
2141.0 0.000467 2110.70972 2124.86401
2173.0 0.000460 2110.70190 2125.60156
2098.0 0.000477 2110.69336 2126.43433
2118.0 0.000472 2110.68433 2127.37671
2133.0 0.000469 2110.67432 2128.44678
2010.0 0.000498 2110.66382 2129.66748
2165.0 0.000462 2110.65234 2131.06543
2106.0 0.000475 2110.64038 2132.67725
2076.0 0.000482 2110.62720 2134.54834
2115.0 0.000473 2110.61353 2136.73926
2104.0 0.000475 2110.59888 2139.33105
2092.0 0.000478 2110.58350 2142.44385
2151.0 0.000465 2110.56738 2146.27246
2068.0 0.000484 2110.55005 2151.18384
2126.0 0.000470 2110.53174 2157.92041
2116.0 0.000473 2110.51270 2167.97339
2169.0 0.000461 2110.49268 2184.07178
2148.0 0.000466 2110.47168 2210.49854
2244.0 0.000446 2110.44971 2252.63623
2333.0 0.000429 2110.42676 2315.14160
2395.0 0.000418 2110.40259 2398.73096
2494.0 0.000401 2110.37744 2496.13696
2612.0 0.000383 2110.35132 2587.63940
2606.0 0.000384 2110.32397 2640.03394
2626.0 0.000381 2110.29541 2627.62280
2596.0 0.000385 2110.26587 2561.77197
2443.0 0.000409 2110.23535 2477.15381
2348.0 0.000426 2110.20337 2401.18530
2341.0 0.000427 2110.17041 2347.83887
2311.0 0.000433 2110.13623 2322.58960
2367.0 0.000422 2110.10083 2328.32715
2358.0 0.000424 2110.06396 2371.18677
2481.0 0.000403 2110.02612 2464.05933
2636.0 0.000379 2109.98706 2628.39453
2896.0 0.0003453 2109.94653 2883.15210
3228.0 0.0003098 2109.90479 3232.86401
3771.0 0.0002652 2109.86182 3648.75757
4212.0 0.0002374 2109.81738 4048.26904
4473.0 0.0002236 2109.77173 4285.70654
4374.0 0.0002286 2109.72485 4233.22559
3888.0 0.0002572 2109.67651 3921.01270
3489.0 0.0002866 2109.62671 3499.89160
3057.0 0.0003271 2109.57544 3096.43262
2685.0 0.000372 2109.52295 2772.88892
2507.0 0.000399 2109.46899 2544.16162
2506.0 0.000399 2109.41382 2397.56152
2402.0 0.000416 2109.35693 2309.59448
2265.0 0.000442 2109.29883 2257.85596
2265.0 0.000442 2109.23901 2226.33130
2246.0 0.000445 2109.17798 2205.56323
2164.0 0.000462 2109.11523 2190.65723
2224.0 0.000450 2109.05127 2179.24365
2255.0 0.000443 2108.98560 2170.14966
2240.0 0.000446 2108.91870 2162.73364
2110.0 0.000474 2108.85010 2156.59253
2145.0 0.000466 2108.77979 2151.44702
2177.0 0.000459 2108.70825 2147.09253
2111.0 0.000474 2108.63501 2143.37451
2176.0 0.000460 2108.56030 2140.17407
2130.0 0.000469 2108.48413 2137.39917
2128.0 0.000470 2108.40625 2134.97681
2106.0 0.000475 2108.32690 2132.84961
2148.0 0.000466 2108.24585 2130.97095
2138.0 0.000468 2108.16333 2129.35205
1987.0 0.000503 2108.07935 2127.86719
2076.0 0.000482 2107.99365 2126.53662
2072.0 0.000483 2107.90625 2125.34082
2250.0 0.000444 2107.81738 2124.26270
2202.0 0.000454 2107.72681 2123.28735
2143.0 0.000467 2107.63477 2122.40283
2071.0 0.000483 2107.54102 2121.59888
2119.0 0.000472 2107.44580 2120.86694
2065.0 0.000484 2107.34888 2120.20532
2078.0 0.000481 2107.25024 2119.59741
2087.0 0.000479 2107.15015 2119.04175
2099.0 0.000476 2107.04834 2118.53564
2028.0 0.000493 2106.94482 2118.07568
2111.0 0.000474 2106.83984 2117.68164
2052.0 0.000487 2106.73315 2117.30542
2077.0 0.000481 2106.62476 2116.96704
2138.0 0.000468 2106.51465 2116.66772
2046.0 0.000489 2106.40308 2116.40479
2083.0 0.000480 2106.28979 2116.17969
2109.0 0.000474 2106.17505 2115.99243
2123.0 0.000471 2106.05835 2115.84497
2099.0 0.000476 2105.94019 2115.73877
2114.0 0.000473 2105.82031 2115.67773
2142.0 0.000467 2105.69897 2115.66650
2105.0 0.000475 2105.57593 2115.71045
2160.0 0.000463 2105.45142 2115.81763
2062.0 0.000485 2105.32495 2115.99951
2035.0 0.000491 2105.19702 2116.26855
2143.0 0.000467 2105.06763 2116.64526
2169.0 0.000461 2104.93628 2117.15820
2124.0 0.000471 2104.80347 2117.85303
2067.0 0.000484 2104.66919 2118.81689
2100.0 0.000476 2104.53320 2120.22241
2189.0 0.000457 2104.39551 2122.41455
2219.0 0.000451 2104.25635 2126.02466
2087.0 0.000479 2104.11548 2132.05127
2114.0 0.000473 2103.97314 2141.77222
2203.0 0.000454 2103.82910 2156.34229
2184.0 0.000458 2103.68359 2176.06714
2170.0 0.000461 2103.53638 2199.44800
2216.0 0.000451 2103.38770 2222.06689
2284.0 0.000438 2103.23755 2236.12817
2207.0 0.000453 2103.08569 2234.35767
2336.0 0.000428 2102.93213 2219.20947
2306.0 0.000434 2102.77734 2198.58008
2339.0 0.000428 2102.62085 2179.50757
2265.0 0.000442 2102.46289 2165.69702
2298.0 0.000435 2102.30347 2158.65454
2329.0 0.000429 2102.14258 2159.40454
2336.0 0.000428 2101.97998 2168.60840
2329.0 0.000429 2101.81592 2189.35596
2339.0 0.000428 2101.65039 2225.96094
2377.0 0.000421 2101.48364 2282.84375
2476.0 0.000404 2101.31519 2361.65796
2459.0 0.000407 2101.14526 2457.30225
2579.0 0.000388 2100.97412 2553.02661
2670.0 0.000375 2100.80127 2618.87451
2716.0 0.000368 2100.62720 2625.96802
2591.0 0.000386 2100.45166 2576.80493
2460.0 0.000407 2100.27466 2490.55664
2477.0 0.000404 2100.09619 2393.89624
2378.0 0.000421 2099.91650 2307.54541
2230.0 0.000448 2099.73535 2240.92432
2112.0 0.000473 2099.55298 2194.67407
2186.0 0.000457 2099.36914 2164.97070
2233.0 0.000448 2099.18408 2146.77515
2088.0 0.000479 2098.99756 2135.71289
2072.0 0.000483 2098.80981 2128.74365
2112.0 0.000473 2098.62061 2124.06079
2163.0 0.000462 2098.43042 2120.70459
2093.0 0.000478 2098.23877 2118.20044
2204.0 0.000454 2098.04590 2116.32422
2143.0 0.000467 2097.85181 2114.99316
2173.0 0.000460 2097.65649 2114.23926
2104.0 0.000475 2097.45996 2114.23779
2133.0 0.000469 2097.26221 2115.35181
2084.0 0.000480 2097.06323 2118.13281
2222.0 0.000450 2096.86328 2123.20361
2226.0 0.000449 2096.66211 2130.96533
2074.0 0.000482 2096.45972 2141.16992
2166.0 0.000462 2096.25635 2152.38721
2189.0 0.000457 2096.05176 2161.45215
2139.0 0.000468 2095.84595 2164.07324
2111.0 0.000474 2095.63916 2158.51001
2144.0 0.000466 2095.43140 2147.78149
2127.0 0.000470 2095.22266 2136.17456
2107.0 0.000475 2095.01270 2126.40552
2089.0 0.000479 2094.80176 2119.58618
2172.0 0.000460 2094.58984 2115.77368
2042.0 0.000490 2094.37695 2114.43433
2133.0 0.000469 2094.16333 2114.78662
2086.0 0.000479 2093.94849 2116.05298
2140.0 0.000467 2093.73291 2117.84570
2168.0 0.000461 2093.51611 2120.38184
2235.0 0.000447 2093.29883 2123.85718
2185.0 0.000458 2093.08032 2127.67847
2196.0 0.000455 2092.86108 2130.16675
2122.0 0.000471 2092.64111 2129.31616
2078.0 0.000481 2092.42017 2124.87891
2149.0 0.000465 2092.19873 2118.65015
2111.0 0.000474 2091.97607 2112.47876
2066.0 0.000484 2091.75293 2107.35425
2079.0 0.000481 2091.52905 2103.57861
2036.0 0.000491 2091.30444 2101.03662
2104.0 0.000475 2091.07910 2099.42651
2055.0 0.000487 2090.85278 2098.43066
2124.0 0.000471 2090.62622 2097.80786
2143.0 0.000467 2090.39868 2097.40723
2044.0 0.000489 2090.17065 2097.15088
2101.0 0.000476 2089.94214 2097.00269
2067.0 0.000484 2089.71289 2096.94775
2128.0 0.000470 2089.48291 2096.98462
2082.0 0.000480 2089.25269 2097.11792
2106.0 0.000475 2089.02173 2097.35767
2102.0 0.000476 2088.79028 2097.71851
2052.0 0.000487 2088.55835 2098.22388
2124.0 0.000471 2088.32593 2098.90332
2046.0 0.000489 2088.09302 2099.79980
2168.0 0.000461 2087.85962 2110.20361
2049.0 0.000488 2087.62598 2111.97217
2063.0 0.000485 2087.39185 2114.27856
2072.0 0.000483 2087.15747 2117.42993
2092.0 0.000478 2086.92236 2122.04785
2092.0 0.000478 2086.68726 2129.35913
2130.0 0.000469 2086.45166 2141.44727
2152.0 0.000465 2086.21582 2161.79956
2175.0 0.000460 2085.97974 2194.30469
2175.0 0.000460 2085.74341 2242.19507
2399.0 0.000417 2085.50684 2305.57031
2375.0 0.000421 2085.27002 2378.34351
2499.0 0.000400 2085.03296 2444.58179
2455.0 0.000407 2084.79565 2478.36499
2442.0 0.000410 2084.55835 2460.89136
2395.0 0.000418 2084.32080 2418.07935
2237.0 0.000447 2084.08325 2345.71338
2275.0 0.000440 2083.84546 2278.75708
2226.0 0.000449 2083.60767 2226.14648
2115.0 0.000473 2083.36987 2189.46240
2191.0 0.000456 2083.13184 2166.21021
2169.0 0.000461 2082.89380 2152.13770
2100.0 0.000476 2082.65601 2144.25391
2097.0 0.000477 2082.41821 2139.57031
2128.0 0.000470 2082.18018 2136.84009
2142.0 0.000467 2081.94238 2135.15332
2100.0 0.000476 2081.70459 2134.12549
2024.0 0.000494 2081.46704 2133.56250
2125.0 0.000471 2081.22949 2133.35864
2182.0 0.000458 2080.99219 2133.44824
2146.0 0.000466 2080.75488 2133.78589
2139.0 0.000468 2080.51782 2134.34058
2079.0 0.000481 2080.28101 2135.09155
2098.0 0.000477 2080.04443 2136.02197
2133.0 0.000469 2079.80786 2137.12329
2135.0 0.000468 2079.57178 2138.38989
2197.0 0.000455 2079.33594 2139.81812
2089.0 0.000479 2079.10034 2141.40942
2163.0 0.000462 2078.86499 2143.16626
2141.0 0.000467 2078.63013 2145.09375
2128.0 0.000470 2078.39551 2147.19873
2105.0 0.000475 2078.16138 2149.49048
2130.0 0.000469 2077.92749 2151.98047
2157.0 0.000464 2077.69409 2154.68237
2202.0 0.000454 2077.46118 2157.61108
2108.0 0.000474 2077.22852 2160.78467
2143.0 0.000467 2076.99658 2164.22461
2183.0 0.000458 2076.76489 2167.90601
2116.0 0.000473 2076.53369 2171.95410
2279.0 0.000439 2076.30298 2176.42017
2207.0 0.000453 2076.07300 2181.20361
2246.0 0.000445 2075.84351 2186.41333
2226.0 0.000449 2075.61450 2192.09619
2262.0 0.000442 2075.38623 2198.30835
2285.0 0.000438 2075.15845 2205.13159
2367.0 0.000422 2074.93140 2212.60327
2322.0 0.000431 2074.70483 2220.82300
2294.0 0.000436 2074.47900 2229.90552
2314.0 0.000432 2074.25391 2239.96484
2321.0 0.000431 2074.02930 2251.14453
2319.0 0.000431 2073.80566 2263.61768
2353.0 0.000425 2073.58252 2277.59058
2360.0 0.000424 2073.36035 2293.29150
2309.0 0.000433 2073.13867 2311.07788
2325.0 0.000430 2072.91797 2331.30542
2395.0 0.000418 2072.69800 2354.45142
2316.0 0.000432 2072.47876 2381.11499
2444.0 0.000409 2072.26025 2412.06299
2403.0 0.000416 2072.04297 2448.28589
2429.0 0.000412 2071.82617 2491.09473
2442.0 0.000410 2071.61035 2542.27979
2677.0 0.000374 2071.39526 2604.45190
2726.0 0.000367 2071.18140 2681.84106
2721.0 0.000368 2070.96826 2782.19067
2961.0 0.0003377 2070.75586 2920.80591
3304.0 0.0003027 2070.54468 3127.80542
3734.0 0.0002678 2070.33423 3457.87329
4292.0 0.0002330 2070.12476 3997.33301
5269.0 0.0001898 2069.91650 4857.62939
6474.0 0.0001545 2069.70898 6143.81982
8109.0 0.0001233 2069.50269 7892.28027
10015.0 0.0000999 2069.29736 9992.19824
11925.0 0.0000839 2069.09277 12080.48828
13041.0 0.0000767 2068.88940 13473.29395
13189.0 0.0000758 2068.68726 13481.14258
11897.0 0.0000841 2068.48608 12141.71387
9988.0 0.0001001 2068.28589 10177.21387
8043.0 0.0001243 2068.08691 8262.37402
6554.0 0.0001526 2067.88892 6758.30029
5831.0 0.0001715 2067.69214 5801.53516
5378.0 0.0001859 2067.49658 5420.61377
5498.0 0.0001819 2067.30176 5630.95850
6243.0 0.0001602 2067.10840 6493.35107
7855.0 0.0001273 2066.91626 8108.52979
10108.0 0.0000989 2066.72510 10539.83496
13677.0 0.0000731 2066.53516 13683.75781
17618.0 0.0000568 2066.34644 17104.18945
20353.0 0.0000491 2066.15894 19856.42578
20676.0 0.0000484 2065.97266 20668.30273
19005.0 0.0000526 2065.78760 19036.23438
15602.0 0.0000641 2065.60376 15850.04980
11980.0 0.0000835 2065.42114 12347.12500
9156.0 0.0001092 2065.23975 9287.65332
6899.0 0.0001449 2065.05957 6962.01123
5318.0 0.0001880 2064.88062 5368.63037
4233.0 0.0002362 2064.70313 4357.86230
3660.0 0.0002732 2064.52661 3742.77930
3358.0 0.0002978 2064.35156 3366.44263
3059.0 0.0003269 2064.17773 3123.80176
2926.0 0.0003418 2064.00537 2954.79199
2792.0 0.000358 2063.83423 2828.38135
2655.0 0.000377 2063.66431 2729.04321
2623.0 0.000381 2063.49561 2648.60791
2570.0 0.000389 2063.32837 2582.26343
2481.0 0.000403 2063.16260 2526.83057
2516.0 0.000397 2062.99805 2480.03711
2423.0 0.000413 2062.83472 2440.19092
2349.0 0.000426 2062.67285 2406.00269
2404.0 0.000416 2062.51221 2376.47925
2320.0 0.000431 2062.35303 2350.84668
2293.0 0.000436 2062.19531 2328.50586
2327.0 0.000430 2062.03882 2309.00391
2270.0 0.000441 2061.88379 2292.03125
2291.0 0.000436 2061.72998 2277.44727
2288.0 0.000437 2061.57764 2265.33057
2304.0 0.000434 2061.42651 2256.02490
2217.0 0.000451 2061.27686 2250.10913
2295.0 0.000436 2061.12866 2248.20801
2289.0 0.000437 2060.98193 2250.61353
2244.0 0.000446 2060.83643 2256.75220
2316.0 0.000432 2060.69238 2264.49829
2270.0 0.000441 2060.54956 2269.51123
2268.0 0.000441 2060.40820 2266.64233
2304.0 0.000434 2060.26831 2254.94678
2202.0 0.000454 2060.12988 2238.86938
2359.0 0.000424 2059.99268 2223.04126
2294.0 0.000436 2059.85693 2209.30811
2184.0 0.000458 2059.72266 2197.15747
2240.0 0.000446 2059.58960 2185.58325
2160.0 0.000463 2059.45801 2174.67505
2182.0 0.000458 2059.32788 2165.08350
2164.0 0.000462 2059.19922 2157.14331
2135.0 0.000468 2059.07178 2150.84717
2235.0 0.000447 2058.94580 2146.01074
2157.0 0.000464 2058.82129 2142.37451
2073.0 0.000482 2058.69800 2139.68896
2080.0 0.000481 2058.57617 2137.76465
2257.0 0.000443 2058.45581 2136.50073
2074.0 0.000482 2058.33667 2135.87866
2157.0 0.000464 2058.21899 2135.95752
2091.0 0.000478 2058.10254 2136.88843
2108.0 0.000474 2057.98779 2138.98730
2164.0 0.000462 2057.87402 2142.89697
2123.0 0.000471 2057.76196 2149.90991
2126.0 0.000470 2057.65112 2162.43018
2214.0 0.000452 2057.54150 2184.38281
2252.0 0.000444 2057.43335 2221.09839
2288.0 0.000437 2057.32666 2278.07251
2391.0 0.000418 2057.22119 2358.31592
2424.0 0.000413 2057.11694 2458.56152
2512.0 0.000398 2057.01416 2564.31055
2628.0 0.000381 2056.91284 2644.78003
2603.0 0.000384 2056.81250 2661.38672
2558.0 0.000391 2056.71387 2603.55371
2431.0 0.000411 2056.61621 2502.06079
2439.0 0.000410 2056.52002 2400.62500
2346.0 0.000426 2056.42505 2307.92529
2161.0 0.000463 2056.33154 2228.80664
2153.0 0.000464 2056.23901 2181.23193
2097.0 0.000477 2056.14819 2150.99023
2129.0 0.000470 2056.05835 2132.42700
2075.0 0.000482 2055.96973 2120.89429
2116.0 0.000473 2055.88232 2113.31396
2152.0 0.000465 2055.79639 2107.93506
2108.0 0.000474 2055.71167 2103.84937
2010.0 0.000498 2055.62793 2100.60010
2089.0 0.000479 2055.54565 2097.94458
2033.0 0.000492 2055.46460 2095.73755
2061.0 0.000485 2055.38452 2093.88306
2038.0 0.000491 2055.30591 2092.31323
2109.0 0.000474 2055.22827 2090.97559
2146.0 0.000466 2055.15186 2074.37476
2068.0 0.000484 2055.07666 2073.75879
2035.0 0.000491 2055.00244 2073.26953
2159.0 0.000463 2054.92969 2072.89014
2205.0 0.000454 2054.85791 2072.60571
2139.0 0.000468 2054.78711 2072.40576
2110.0 0.000474 2054.71753 2072.28101
1990.0 0.000503 2054.64917 2072.22534
2078.0 0.000481 2054.58179 2072.23267
2114.0 0.000473 2054.51538 2072.29858
2123.0 0.000471 2054.45020 2072.42139
2070.0 0.000483 2054.38599 2072.59766
2015.0 0.000496 2054.32300 2072.82666
2156.0 0.000464 2054.26099 2073.31152
2045.0 0.000489 2054.19971 2073.64819
1994.0 0.000502 2054.13989 2074.03662
1990.0 0.000503 2054.08057 2074.47827
2026.0 0.000494 2054.02271 2074.97437
2055.0 0.000487 2053.96558 2075.52661
2045.0 0.000489 2053.90942 2076.13672
2124.0 0.000471 2053.85425 2076.80933
2031.0 0.000492 2053.80005 2077.54663
1996.0 0.000501 2053.74658 2078.35376
2131.0 0.000469 2053.69409 2079.23438
2119.0 0.000472 2053.64258 2080.19531
2100.0 0.000476 2053.59204 2081.24194
2092.0 0.000478 2053.54224 2082.38208
2095.0 0.000477 2053.49316 2083.62500
2071.0 0.000483 2053.44507 2084.97803
2083.0 0.000480 2053.39771 2086.45264
2034.0 0.000492 2053.35132 2088.06177
2136.0 0.000468 2053.30566 2089.81909
2023.0 0.000494 2053.26074 2091.74121
2011.0 0.000497 2053.21655 2093.84668
2066.0 0.000484 2053.17310 2096.08984
2096.0 0.000477 2053.13037 2098.63232
2098.0 0.000477 2053.08862 2101.43433
2122.0 0.000471 2053.04736 2104.52954
2086.0 0.000479 2053.00684 2107.95850
2048.0 0.000488 2052.96704 2111.74951
2104.0 0.000475 2052.92773 2115.99634
2116.0 0.000473 2052.88916 2120.74609
2110.0 0.000474 2052.85132 2126.07959
2075.0 0.000482 2052.81396 2132.09229
2126.0 0.000470 2052.77734 2138.90234
2184.0 0.000458 2052.74121 2146.65356
2168.0 0.000461 2052.70557 2155.52319
2167.0 0.000461 2052.67065 2165.73267
2230.0 0.000448 2052.63623 2177.55908
2209.0 0.000453 2052.60229 2191.35596
2168.0 0.000461 2052.56885 2207.57642
2221.0 0.000450 2052.53589 2226.81226
2272.0 0.000440 2052.50342 2249.84595
2247.0 0.000445 2052.47144 2277.75317
2355.0 0.000425 2052.43970 2312.09668
2277.0 0.000439 2052.40869 2355.38086
2335.0 0.000428 2052.37793 2412.10596
2505.0 0.000399 2052.34766 2491.00806
2603.0 0.000384 2052.31763 2609.09692
2746.0 0.000364 2052.28784 2797.25513
2937.0 0.0003405 2052.25879 3104.87061
3506.0 0.0002852 2052.22974 3597.42651
4279.0 0.0002337 2052.20117 4340.91016
5480.0 0.0001825 2052.17285 5369.21729
6858.0 0.0001458 2052.14478 6637.46484
8236.0 0.0001214 2052.11694 7961.85693
9334.0 0.0001071 2052.08936 8954.20508
9361.0 0.0001068 2052.06226 9142.21875
8566.0 0.0001167 2052.03516 8412.87988
7046.0 0.0001419 2052.00806 7159.54883
5701.0 0.0001754 2051.98145 5837.48779
4512.0 0.0002216 2051.95483 4705.34619
3767.0 0.0002655 2051.92847 3853.15894
3271.0 0.0003057 2051.90234 3271.03882
2969.0 0.0003368 2051.87622 2900.73389
2782.0 0.000359 2051.85010 2673.72998
2578.0 0.000388 2051.82422 2533.55933
2462.0 0.000406 2051.79810 2442.56226
2426.0 0.000412 2051.77222 2379.08960
2408.0 0.000415 2051.74658 2331.81396
2296.0 0.000436 2051.72070 2294.97339
2306.0 0.000434 2051.69482 2265.48901
2246.0 0.000445 2051.66919 2241.54199
2234.0 0.000448 2051.64331 2221.94189
2227.0 0.000449 2051.61743 2205.87134
2221.0 0.000450 2051.59155 2192.77832
2158.0 0.000463 2051.56543 2182.36157
2168.0 0.000461 2051.53931 2174.62256
2122.0 0.000471 2051.51318 2169.98950
2188.0 0.000457 2051.48682 2169.47241
2184.0 0.000458 2051.46045 2174.70313
2196.0 0.000455 2051.43384 2187.65771
2092.0 0.000478 2051.40698 2209.89307
2256.0 0.000443 2051.37988 2241.31494
2295.0 0.000436 2051.35278 2278.50366
2307.0 0.000433 2051.32544 2312.52075
2343.0 0.000427 2051.29785 2328.63306
2314.0 0.000432 2051.27002 2315.92236
2233.0 0.000448 2051.24194 2279.92236
2257.0 0.000443 2051.21362 2235.66284
2192.0 0.000456 2051.18481 2194.40405
2171.0 0.000461 2051.15601 2161.20898
2195.0 0.000456 2051.12671 2137.05200
2111.0 0.000474 2051.09717 2120.68530
2179.0 0.000459 2051.06714 2110.01782
2107.0 0.000475 2051.03687 2103.05518
2091.0 0.000478 2051.00610 2098.32861
2075.0 0.000482 2050.97510 2094.92090
2095.0 0.000477 2050.94360 2092.31055
2072.0 0.000483 2050.91187 2090.18677
2102.0 0.000476 2050.87964 2088.33301
2108.0 0.000474 2050.84692 2086.61890
2178.0 0.000459 2050.81372 2085.03027
2147.0 0.000466 2050.78003 2083.60938
2043.0 0.000489 2050.74609 2082.38599
2082.0 0.000480 2050.71143 2081.36328
2021.0 0.000495 2050.67651 2080.53320
2085.0 0.000480 2050.64087 2079.87646
2105.0 0.000475 2050.60474 2079.37769
2059.0 0.000486 2050.56812 2079.02100
2137.0 0.000468 2050.53101 2078.79956
2110.0 0.000474 2050.49316 2078.70947
2005.0 0.000499 2050.45483 2078.75366
2008.0 0.000498 2050.41602 2078.93726
2067.0 0.000484 2050.37646 2079.26978
2110.0 0.000474 2050.33643 2079.76465
2087.0 0.000479 2050.29590 2080.66968
2039.0 0.000490 2050.25439 2081.55469
2085.0 0.000480 2050.21265 2082.67310
2012.0 0.000497 2050.16992 2084.06421
2041.0 0.000490 2050.12695 2085.77979
2073.0 0.000482 2050.08301 2087.88696
2181.0 0.000459 2050.03857 2090.48242
2118.0 0.000472 2049.99316 2093.71167
2096.0 0.000477 2049.94727 2097.80200
2152.0 0.000465 2049.90063 2103.13330
2160.0 0.000463 2049.85352 2110.22461
2031.0 0.000492 2049.80542 2119.85620
2106.0 0.000475 2049.75684 2132.99072
2153.0 0.000464 2049.70728 2150.74927
2161.0 0.000463 2049.65698 2174.48462
2302.0 0.000434 2049.60620 2206.03052
2235.0 0.000447 2049.55444 2248.17798
2260.0 0.000442 2049.50220 2305.90918
2355.0 0.000425 2049.44897 2389.35278
2471.0 0.000405 2049.39502 2512.80493
2725.0 0.000367 2049.34033 2686.23340
2910.0 0.0003436 2049.28491 2904.86499
3207.0 0.0003118 2049.22852 3138.17456
3376.0 0.0002962 2049.17139 3318.45410
3376.0 0.0002962 2049.11353 3352.56201
3208.0 0.0003117 2049.05493 3227.20825
3019.0 0.0003312 2048.99561 3002.48560
2781.0 0.000360 2048.93530 2761.56079
2439.0 0.000410 2048.87402 2552.97681
2342.0 0.000427 2048.81226 2394.22974
2220.0 0.000450 2048.74951 2284.44019
2207.0 0.000453 2048.68604 2213.72290
2106.0 0.000475 2048.62158 2169.81250
2174.0 0.000460 2048.55640 2142.44482
2131.0 0.000469 2048.49048 2124.58008
2121.0 0.000471 2048.42358 2112.08252
2119.0 0.000472 2048.35596 2102.74512
2172.0 0.000460 2048.28735 2095.43213
2097.0 0.000477 2048.21802 2089.82959
2070.0 0.000483 2048.14771 2084.98633
2129.0 0.000470 2048.07666 2080.95361
2088.0 0.000479 2048.00488 2077.56006
2091.0 0.000478 2047.93213 2074.67920
2097.0 0.000477 2047.85852 2072.21509
2124.0 0.000471 2047.78406 2070.09106
2096.0 0.000477 2047.70886 2068.24951
2068.0 0.000484 2047.63269 2066.64429
2022.0 0.000495 2047.55579 2065.23853
2082.0 0.000480 2047.47803 2064.00244
2097.0 0.000477 2047.39941 2062.91211
2049.0 0.000488 2047.31995 2061.94775
2032.0 0.000492 2047.23975 2061.09375
1968.0 0.000508 2047.15857 2060.33765
2085.0 0.000480 2047.07666 2059.46167
1972.0 0.000507 2046.99390 2058.87549
2022.0 0.000495 2046.91028 2058.36133
2085.0 0.000480 2046.82593 2057.91357
2042.0 0.000490 2046.74072 2057.52832
2087.0 0.000479 2046.65466 2057.20288
2058.0 0.000486 2046.56787 2056.93579
2009.0 0.000498 2046.48022 2056.76587
1991.0 0.000502 2046.39172 2056.61743
2004.0 0.000499 2046.30261 2056.53076
2031.0 0.000492 2046.21265 2056.51001
2026.0 0.000494 2046.12183 2056.56152
2114.0 0.000473 2046.03027 2056.69409
2078.0 0.000481 2045.93799 2056.91797
2127.0 0.000470 2045.84497 2057.24902
2085.0 0.000480 2045.75110 2057.70923
2094.0 0.000478 2045.65649 2058.32666
2054.0 0.000487 2045.56128 2059.14014
2133.0 0.000469 2045.46521 2060.20825
2135.0 0.000468 2045.36841 2061.62720
2102.0 0.000476 2045.27100 2063.57129
2143.0 0.000467 2045.17285 2068.08984
2148.0 0.000466 2045.07397 2072.41504
2072.0 0.000483 2044.97449 2079.33276
2176.0 0.000460 2044.87427 2090.53320
2177.0 0.000459 2044.77344 2108.16235
2097.0 0.000477 2044.67188 2134.24438
2178.0 0.000459 2044.56970 2169.61450
2335.0 0.000428 2044.46692 2212.39966
2289.0 0.000437 2044.36340 2255.87061
2312.0 0.000433 2044.25940 2286.54907
2274.0 0.000440 2044.15479 2289.43555
2207.0 0.000453 2044.04956 2263.15063
2226.0 0.000449 2043.94373 2221.80615
2191.0 0.000456 2043.83740 2179.97998
2118.0 0.000472 2043.73047 2145.52783
2098.0 0.000477 2043.62305 2120.94312
2114.0 0.000473 2043.51501 2105.50366
2119.0 0.000472 2043.40662 2096.72388
2164.0 0.000462 2043.29761 2091.51587
2115.0 0.000473 2043.18823 2087.57373
2080.0 0.000481 2043.07825 2084.38184
2098.0 0.000477 2042.96790 2082.47485
2163.0 0.000462 2042.85706 2082.20972
2062.0 0.000485 2042.74585 2083.29199
2132.0 0.000469 2042.63428 2084.60669
2097.0 0.000477 2042.52222 2084.43140
2108.0 0.000474 2042.40991 2081.70996
2076.0 0.000482 2042.29712 2077.31836
2008.0 0.000498 2042.18408 2072.66138
2084.0 0.000480 2042.07056 2068.70020
2057.0 0.000486 2041.95691 2065.82275
2079.0 0.000481 2041.84290 2064.06787
2097.0 0.000477 2041.72864 2063.30029
2115.0 0.000473 2041.61414 2062.12012
2130.0 0.000469 2041.49951 2062.85669
2040.0 0.000490 2041.38452 2064.21753
2118.0 0.000472 2041.26941 2066.28760
2146.0 0.000466 2041.15405 2069.34790
2063.0 0.000485 2041.03845 2074.00146
2116.0 0.000473 2040.92285 2081.37012
2040.0 0.000490 2040.80713 2093.27783
2074.0 0.000482 2040.69128 2112.22925
2154.0 0.000464 2040.57544 2140.92017
2175.0 0.000460 2040.45947 2181.15234
2153.0 0.000464 2040.34338 2232.16992
2220.0 0.000450 2040.22742 2288.32983
2320.0 0.000431 2040.11145 2336.12305
2239.0 0.000447 2039.99536 2355.75317
2240.0 0.000446 2039.87952 2337.04248
2244.0 0.000446 2039.76367 2292.19946
2229.0 0.000449 2039.64783 2241.67065
2172.0 0.000460 2039.53223 2198.99316
2123.0 0.000471 2039.41663 2169.60742
2169.0 0.000461 2039.30139 2153.46582
2200.0 0.000455 2039.18616 2146.72607
2160.0 0.000463 2039.07117 2142.94482
2128.0 0.000470 2038.95642 2135.84448
2134.0 0.000469 2038.84204 2123.76514
2121.0 0.000471 2038.72791 2109.51733
2129.0 0.000470 2038.61389 2096.17163
2077.0 0.000481 2038.50049 2085.34692
2033.0 0.000492 2038.38721 2077.32666
2099.0 0.000476 2038.27441 2071.88745
2113.0 0.000473 2038.16199 2068.45435
2124.0 0.000471 2038.04993 2066.42554
2123.0 0.000471 2037.93835 2065.32373
2030.0 0.000493 2037.82727 2064.83569
2066.0 0.000484 2037.71680 2064.78052
2075.0 0.000482 2037.60669 2065.23193
2110.0 0.000474 2037.49731 2065.82300
2051.0 0.000488 2037.38843 2066.70435
2091.0 0.000478 2037.28003 2067.88257
2113.0 0.000473 2037.17249 2069.38184
2076.0 0.000482 2037.06543 2071.47998
2127.0 0.000470 2036.95923 2073.79126
2135.0 0.000468 2036.85352 2076.67871
2080.0 0.000481 2036.74878 2080.36938
2073.0 0.000482 2036.64465 2085.22070
2105.0 0.000475 2036.54138 2091.73071
2127.0 0.000470 2036.43896 2100.47339
2063.0 0.000485 2036.33728 2111.93945
2140.0 0.000467 2036.23657 2126.26880
2169.0 0.000461 2036.13684 2142.88477
2174.0 0.000460 2036.03796 2159.97339
2175.0 0.000460 2035.93994 2174.47559
2171.0 0.000461 2035.84314 2184.46313
2159.0 0.000463 2035.74719 2192.20654
2222.0 0.000450 2035.65247 2202.86621
2150.0 0.000465 2035.55859 2222.14404
2189.0 0.000457 2035.46594 2256.99390
2201.0 0.000454 2035.37439 2317.75513
2387.0 0.000419 2035.28406 2419.74878
2488.0 0.000402 2035.19495 2582.61499
2755.0 0.000363 2035.10693 2825.40112
3105.0 0.0003221 2035.02026 3158.10498
3724.0 0.0002685 2034.93481 3566.47534
3934.0 0.0002542 2034.85071 3992.85938
4285.0 0.0002334 2034.76794 4314.59326
4297.0 0.0002327 2034.68665 4379.99707
4057.0 0.0002465 2034.60657 4150.49365
3652.0 0.0002738 2034.52808 3748.89258
3142.0 0.0003183 2034.45093 3321.49341
2849.0 0.000351 2034.37537 2951.90332
2565.0 0.000390 2034.30127 2669.51929
2457.0 0.000407 2034.22864 2472.53931
2263.0 0.000442 2034.15771 2344.00122
2284.0 0.000438 2034.08838 2263.08960
2232.0 0.000448 2034.02063 2211.98755
2148.0 0.000466 2033.95459 2178.29761
2108.0 0.000474 2033.89026 2154.64648
2225.0 0.000449 2033.82751 2137.34351
2083.0 0.000480 2033.76672 2123.51318
2058.0 0.000486 2033.70764 2112.36768
2143.0 0.000467 2033.65039 2103.21802
2100.0 0.000476 2033.59497 2095.60669
2020.0 0.000495 2033.54138 2089.21094
2101.0 0.000476 2033.48975 2083.78906
2097.0 0.000477 2033.44006 2079.15747
2124.0 0.000471 2033.39233 2075.17407
2036.0 0.000491 2033.34668 2071.72754
2134.0 0.000469 2033.30298 2068.72949
2184.0 0.000458 2033.26135 2066.10913
2003.0 0.000499 2033.22168 2063.80981
2079.0 0.000481 2033.18433 2061.78540
2099.0 0.000476 2033.14905 2059.99854
2051.0 0.000488 2033.11597 2058.41797
2105.0 0.000475 2033.08508 2057.01831
2094.0 0.000478 2033.05640 2055.77832
2059.0 0.000486 2033.03003 2054.68018
2161.0 0.000463 2033.00598 2053.70996
2125.0 0.000471 2032.98413 2052.85474
2043.0 0.000489 2032.96472 2052.10498
2052.0 0.000487 2032.94775 2051.45337
2048.0 0.000488 2032.93311 2050.89258
2046.0 0.000489 2032.92090 2050.41797
2048.0 0.000488 2032.91125 2050.02661
2076.0 0.000482 2032.90405 2049.71558
2030.0 0.000493 2032.89941 2049.48438
2053.0 0.000487 2032.89734 2049.33325
2086.0 0.000479 2032.89783 2049.26465
2063.0 0.000485 2032.90100 2049.28247
2115.0 0.000473 2032.90674 2049.39307
2049.0 0.000488 2032.91516 2049.60400
2046.0 0.000489 2032.92627 2049.92749
2095.0 0.000477 2032.94019 2050.37939
2070.0 0.000483 2032.95679 2050.98218
2030.0 0.000493 2032.97632 2051.76904
2084.0 0.000480 2032.99841 2052.79395
2110.0 0.000474 2033.02356 2056.20532
2142.0 0.000467 2033.05151 2058.10181
2090.0 0.000478 2033.08240 2060.78564
2128.0 0.000470 2033.11621 2064.71167
2134.0 0.000469 2033.15295 2070.49634
2009.0 0.000498 2033.19263 2078.82178
2096.0 0.000477 2033.23535 2089.97729
2071.0 0.000483 2033.28101 2104.41113
2155.0 0.000464 2033.32996 2120.87695
2159.0 0.000463 2033.38184 2136.69458
2127.0 0.000470 2033.43677 2147.85474
2098.0 0.000477 2033.49500 2152.71118
2216.0 0.000451 2033.55627 2155.44141
2154.0 0.000464 2033.62073 2162.96289
2209.0 0.000453 2033.68848 2180.67896
2267.0 0.000441 2033.75952 2211.28247
2294.0 0.000436 2033.83374 2254.27686
2301.0 0.000435 2033.91125 2304.53955
2389.0 0.000419 2033.99207 2351.09082
2297.0 0.000435 2034.07617 2382.99756
2409.0 0.000415 2034.16382 2401.68164
2503.0 0.000400 2034.25464 2417.46362
2393.0 0.000418 2034.34900 2432.93311
2463.0 0.000406 2034.44678 2435.93359
2369.0 0.000422 2034.54797 2409.90674
2367.0 0.000422 2034.65259 2355.10669
2272.0 0.000440 2034.76086 2288.74268
2256.0 0.000443 2034.87268 2226.56006
2133.0 0.000469 2034.98792 2175.96362
2172.0 0.000460 2035.10669 2138.53784
2116.0 0.000473 2035.22913 2112.81470
2048.0 0.000488 2035.35522 2096.04004
2023.0 0.000494 2035.48486 2085.36914
2060.0 0.000485 2035.61816 2078.53076
2076.0 0.000482 2035.75513 2073.96216
2130.0 0.000469 2035.89575 2070.84058
2040.0 0.000490 2036.04016 2068.63306
2086.0 0.000479 2036.18835 2067.07520
2043.0 0.000489 2036.34033 2066.02222
2009.0 0.000498 2036.49597 2065.38770
2041.0 0.000490 2036.65540 2065.12085
2118.0 0.000472 2036.81860 2065.19312
2046.0 0.000489 2036.98572 2065.59204
2088.0 0.000479 2037.15662 2066.32324
2049.0 0.000488 2037.33142 2067.40771
2014.0 0.000497 2037.51013 2068.88452
2056.0 0.000486 2037.69275 2070.81714
2118.0 0.000472 2037.87915 2073.30493
2007.0 0.000498 2038.06958 2074.81372
2012.0 0.000497 2038.26392 2079.05664
2023.0 0.000494 2038.46228 2084.82935
2045.0 0.000489 2038.66455 2093.12207
2145.0 0.000466 2038.87085 2105.68750
2194.0 0.000456 2039.08118 2125.32153
2196.0 0.000455 2039.29553 2155.83667
2215.0 0.000451 2039.51379 2201.38770
2241.0 0.000446 2039.73621 2264.93286
2342.0 0.000427 2039.96265 2345.82471
2432.0 0.000411 2040.19324 2436.21411
2482.0 0.000403 2040.42786 2516.04297
2442.0 0.000410 2040.66650 2553.64209
2486.0 0.000402 2040.90942 2528.51245
2396.0 0.000417 2041.15637 2455.47974
2338.0 0.000428 2041.40747 2366.62891
2184.0 0.000458 2041.66272 2284.68286
2172.0 0.000460 2041.92212 2219.38647
2124.0 0.000471 2042.18555 2172.42578
2125.0 0.000471 2042.45349 2141.29858
2092.0 0.000478 2042.72522 2121.91553
2116.0 0.000473 2043.00134 2110.32129
2118.0 0.000472 2043.28174 2103.52417
2115.0 0.000473 2043.56616 2099.61401
2041.0 0.000490 2043.85498 2097.50879
2174.0 0.000460 2044.14783 2096.64453
2156.0 0.000464 2044.44507 2096.73926
2082.0 0.000480 2044.74646 2097.65332
2064.0 0.000484 2045.05200 2099.32666
2049.0 0.000488 2045.36206 2101.74731
2084.0 0.000480 2045.67615 2104.94165
2204.0 0.000454 2045.99463 2108.97266
2135.0 0.000468 2046.31726 2113.94165
2160.0 0.000463 2046.64417 2119.99463
2115.0 0.000473 2046.97546 2127.33423
2249.0 0.000445 2047.31104 2136.23828
2174.0 0.000460 2047.65076 2147.08984
2147.0 0.000466 2047.99475 2160.43970
2125.0 0.000471 2048.34302 2177.13818
2064.0 0.000484 2048.69556 2198.62402
2222.0 0.000450 2049.05273 2227.52466
2253.0 0.000444 2049.41382 2268.73584
2342.0 0.000427 2049.77930 2330.98535
2339.0 0.000428 2050.14893 2428.36279
2522.0 0.000397 2050.52295 2580.49902
2759.0 0.000362 2050.90137 2809.54468
3066.0 0.0003262 2051.28394 3132.70264
3553.0 0.0002815 2051.67090 3549.95190
4046.0 0.0002472 2052.06201 4026.42529
4470.0 0.0002237 2052.45752 4465.99414
4489.0 0.0002228 2052.85718 4704.88037
4378.0 0.0002284 2053.26123 4614.52197
4131.0 0.0002421 2053.66943 4247.39648
3570.0 0.0002801 2054.08179 3772.06250
3128.0 0.0003197 2054.49878 3320.13330
2956.0 0.0003383 2054.91968 2951.64478
2594.0 0.000386 2055.34497 2680.28906
2426.0 0.000412 2055.77441 2495.15063
2344.0 0.000427 2056.20825 2375.20068
2329.0 0.000429 2056.64624 2298.98584
2182.0 0.000458 2057.08838 2249.62231
2196.0 0.000455 2057.53467 2216.11621
2154.0 0.000464 2057.98511 2191.92310
2283.0 0.000438 2058.44019 2173.51172
2224.0 0.000450 2058.89893 2158.97656
2172.0 0.000460 2059.36230 2147.23364
2226.0 0.000449 2059.82935 2137.60449
2089.0 0.000479 2060.30103 2129.62402
2156.0 0.000464 2060.77661 2122.78711
2222.0 0.000450 2061.25635 2117.17871
2197.0 0.000455 2061.74023 2112.43115
2158.0 0.000463 2062.22803 2108.39282
2183.0 0.000458 2062.72021 2104.94336
2194.0 0.000456 2063.21631 2101.98535
2209.0 0.000453 2063.71655 2099.21069
2219.0 0.000451 2064.22070 2097.02661
2172.0 0.000460 2064.72925 2095.14429
2172.0 0.000460 2065.24146 2093.52173
2148.0 0.000466 2065.75781 2092.12329
2175.0 0.000460 2066.27808 2090.92065
2106.0 0.000475 2066.80249 2089.88843
2079.0 0.000481 2067.33081 2089.00684
2088.0 0.000479 2067.86304 2090.20361
2103.0 0.000476 2068.39917 2089.61230
2105.0 0.000475 2068.93921 2089.12671
2135.0 0.000468 2069.48340 2088.73560
2150.0 0.000465 2070.03101 2088.42969
2073.0 0.000482 2070.58252 2088.20068
2080.0 0.000481 2071.13818 2088.04150
2135.0 0.000468 2071.69751 2087.94556
2205.0 0.000454 2072.26074 2087.90796
2115.0 0.000473 2072.82764 2087.92261
2058.0 0.000486 2073.39819 2087.98633
2132.0 0.000469 2073.97266 2088.09497
2129.0 0.000470 2074.55078 2088.24561
2130.0 0.000469 2075.13257 2088.70972
2091.0 0.000478 2075.71777 2088.93994
2139.0 0.000468 2076.30688 2089.20483
2042.0 0.000490 2076.89966 2089.50122
2108.0 0.000474 2077.49609 2089.82813
2060.0 0.000485 2078.09595 2090.18213
2096.0 0.000477 2078.69946 2090.56421
2055.0 0.000487 2079.30615 2090.97241
2102.0 0.000476 2079.91650 2091.40503
2098.0 0.000477 2080.53052 2091.86133
2092.0 0.000478 2081.14771 2092.34033
2157.0 0.000464 2081.76855 2092.84180
2055.0 0.000487 2082.39258 2093.36475
2063.0 0.000485 2083.02002 2093.90942
2136.0 0.000468 2083.65088 2094.47461
2116.0 0.000473 2084.28516 2094.68115
2109.0 0.000474 2084.92236 2095.29468
2057.0 0.000486 2085.56274 2095.92920
2133.0 0.000469 2086.20679 2096.58423
2108.0 0.000474 2086.85376 2097.25977
2119.0 0.000472 2087.50391 2097.95654
2121.0 0.000471 2088.15723 2098.67456
2019.0 0.000495 2088.81348 2099.41479
2036.0 0.000491 2089.47290 2100.17822
2114.0 0.000473 2090.13550 2100.96606
2131.0 0.000469 2090.80078 2101.77905
2099.0 0.000476 2091.46899 2102.61890
2150.0 0.000465 2092.14063 2103.48853
2166.0 0.000462 2092.81470 2104.38892
2150.0 0.000465 2093.49194 2105.32422
2130.0 0.000469 2094.17188 2106.29761
2170.0 0.000461 2094.85474 2107.31323
2152.0 0.000465 2095.54004 2108.37671
2185.0 0.000458 2096.22803 2109.49512
2082.0 0.000480 2096.91919 2110.67773
2057.0 0.000486 2097.61255 2111.93579
2137.0 0.000468 2098.30884 2113.28589
2091.0 0.000478 2099.00757 2114.75220
2130.0 0.000469 2099.70898 2116.37524
2091.0 0.000478 2100.41260 2118.22412
2073.0 0.000482 2101.11914 2120.42407
2174.0 0.000460 2101.82764 2123.18530
2044.0 0.000489 2102.53857 2126.83276
2128.0 0.000470 2103.25220 2131.79419
2131.0 0.000469 2103.96802 2138.52148
2145.0 0.000466 2104.68604 2147.32813
2132.0 0.000469 2105.40649 2158.13330
2171.0 0.000461 2106.12891 2171.63208
2221.0 0.000450 2106.85352 2182.58472
2166.0 0.000462 2107.58057 2189.28101
2098.0 0.000477 2108.30933 2190.10352
2179.0 0.000459 2109.04004 2187.40356
2168.0 0.000461 2109.77319 2185.20581
2202.0 0.000454 2110.50781 2184.21606
2105.0 0.000475 2111.24487 2189.61060
2112.0 0.000473 2111.98340 2198.56006
2187.0 0.000457 2112.72412 2208.40039
2199.0 0.000455 2113.46631 2214.60498
2123.0 0.000471 2114.21021 2213.52344
2184.0 0.000458 2114.95605 2206.13184
2169.0 0.000461 2115.70337 2196.48242
2121.0 0.000471 2116.45264 2187.82910
2243.0 0.000446 2117.20313 2181.68311
2120.0 0.000472 2117.95557 2178.42285
2187.0 0.000457 2118.70923 2177.84106
2172.0 0.000460 2119.46436 2179.50024
2164.0 0.000462 2120.22095 2182.96680
2173.0 0.000460 2120.97876 2187.94702
2252.0 0.000444 2121.73804 2194.32568
2169.0 0.000461 2122.49829 2202.15405
2168.0 0.000461 2123.26025 2211.63232
2141.0 0.000467 2124.02319 2223.11206
2237.0 0.000447 2124.78735 2237.14526
2313.0 0.000432 2125.55249 2256.05518
2259.0 0.000443 2126.31885 2278.55029
2345.0 0.000426 2127.08594 2308.84424
2327.0 0.000430 2127.85400 2352.04932
2393.0 0.000418 2128.62305 2416.90747
2450.0 0.000408 2129.39307 2516.82178
2587.0 0.000387 2130.16406 2669.36499
2814.0 0.000355 2130.93555 2892.84497
3123.0 0.0003202 2131.70776 3199.19141
3502.0 0.0002856 2132.48071 3582.92480
3950.0 0.0002532 2133.25415 4003.94409
4264.0 0.0002345 2134.02856 4363.91455
4320.0 0.0002315 2134.80322 4515.45459
4256.0 0.0002350 2135.57861 4375.67969
3911.0 0.0002557 2136.35400 4024.79565
3521.0 0.0002840 2137.13037 3610.83252
3116.0 0.0003209 2137.90674 3234.25732
2854.0 0.0003504 2138.68359 2937.36255
2685.0 0.000372 2139.46045 2727.98706
2575.0 0.000388 2140.23755 2596.87476
2572.0 0.000389 2141.01514 2528.37598
2546.0 0.000393 2141.79248 2506.75317
2606.0 0.000384 2142.57031 2518.01807
2621.0 0.000382 2143.34766 2548.47656
2653.0 0.000377 2144.12549 2580.19824
2600.0 0.000385 2144.90283 2589.88232
2672.0 0.000374 2145.68042 2562.12231
2503.0 0.000400 2146.45752 2504.80005
2446.0 0.000409 2147.23438 2438.09888
2449.0 0.000408 2148.01123 2376.73438
2377.0 0.000421 2148.78735 2326.98975
2238.0 0.000447 2149.56372 2289.92114
2316.0 0.000432 2150.33911 2263.92480
2204.0 0.000454 2151.11450 2246.35889
2220.0 0.000450 2151.88916 2234.67993
2247.0 0.000445 2152.66309 2226.67456
2209.0 0.000453 2153.43677 2221.04224
2185.0 0.000458 2154.20947 2216.94922
2131.0 0.000469 2154.98193 2213.92358
2175.0 0.000460 2155.75317 2211.69507
2211.0 0.000452 2156.52393 2210.10425
2173.0 0.000460 2157.29370 2209.04541
2253.0 0.000444 2158.06274 2208.44971
2220.0 0.000450 2158.83057 2208.26636
2246.0 0.000445 2159.59741 2208.46191
2220.0 0.000450 2160.36353 2209.19751
2312.0 0.000433 2161.12817 2210.10083
2167.0 0.000461 2161.89233 2211.35083
2236.0 0.000447 2162.65479 2212.95605
2192.0 0.000456 2163.41626 2214.93457
2214.0 0.000452 2164.17627 2217.31543
2184.0 0.000458 2164.93506 2220.13965
2215.0 0.000451 2165.69238 2223.46240
2262.0 0.000442 2166.44849 2227.35815
2209.0 0.000453 2167.20313 2231.92285
2211.0 0.000452 2167.95605 2237.28101
2333.0 0.000429 2168.70776 2243.59766
2271.0 0.000440 2169.45752 2251.09180
2294.0 0.000436 2170.20605 2260.06030
2255.0 0.000443 2170.95239 2270.92896
2282.0 0.000438 2171.69702 2284.35181
2228.0 0.000449 2172.44043 2301.42798
2313.0 0.000432 2173.18164 2324.12183
2430.0 0.000412 2173.92114 2355.98950
2446.0 0.000409 2174.65845 2403.14966
2517.0 0.000397 2175.39404 2477.06128
2651.0 0.000377 2176.12744 2586.82007
2806.0 0.000356 2176.85913 2748.44263
2974.0 0.0003362 2177.58838 2972.56616
3257.0 0.0003070 2178.31543 3258.67651
3506.0 0.0002852 2179.04053 3583.15918
3707.0 0.0002698 2179.76343 3881.18579
3739.0 0.0002675 2180.48389 4042.93262
3747.0 0.0002669 2181.20215 3983.26978
3632.0 0.0002753 2181.91821 3737.48486
3431.0 0.0002915 2182.63135 3418.28174
3234.0 0.0003092 2183.34253 3113.88428
2862.0 0.0003494 2184.05103 2864.60327
2831.0 0.000353 2184.75684 2679.83130
2549.0 0.000392 2185.46045 2553.02393
2502.0 0.000400 2186.16113 2470.99756
2427.0 0.000412 2186.85938 2419.99707
2446.0 0.000409 2187.55469 2388.92603
2387.0 0.000419 2188.24756 2370.47168
2375.0 0.000421 2188.93750 2360.23560
2473.0 0.000404 2189.62451 2356.00903
2427.0 0.000412 2190.30884 2356.94434
2420.0 0.000413 2190.99023 2363.18774
2501.0 0.000400 2191.66870 2375.94580
2470.0 0.000405 2192.34399 2397.97363
2455.0 0.000407 2193.01660 2434.37183
2649.0 0.000378 2193.68579 2493.34546
2652.0 0.000377 2194.35205 2586.19189
2884.0 0.0003467 2195.01514 2725.57422
2987.0 0.0003348 2195.67505 2921.43848
3307.0 0.0003024 2196.33179 3174.35693
3610.0 0.0002770 2196.98535 3465.11841
3814.0 0.0002622 2197.63550 3738.52661
3879.0 0.0002578 2198.28223 3897.05518
3928.0 0.0002546 2198.92578 3857.49536
3567.0 0.0002803 2199.56592 3642.10669
3366.0 0.0002971 2200.20264 3351.23682
3018.0 0.0003313 2200.83569 3068.64990
2914.0 0.0003432 2201.46533 2834.05518
2691.0 0.000372 2202.09155 2657.68384
2528.0 0.000396 2202.71411 2534.45044
2502.0 0.000400 2203.33325 2452.67603
2489.0 0.000402 2203.94849 2399.74951
2392.0 0.000418 2204.56030 2365.29810
2356.0 0.000424 2205.16797 2342.17432
2357.0 0.000424 2205.77222 2324.12476
2310.0 0.000433 2206.37280 2312.76611
2343.0 0.000427 2206.96924 2305.01563
2322.0 0.000431 2207.56201 2300.47534
2368.0 0.000422 2208.15088 2299.09155
2300.0 0.000435 2208.73608 2300.87671
2328.0 0.000430 2209.31714 2305.66113
2312.0 0.000433 2209.89429 2312.53198
2328.0 0.000430 2210.46729 2319.51611
2376.0 0.000421 2211.03638 2323.18848
2300.0 0.000435 2211.60156 2320.67236
2301.0 0.000435 2212.16235 2312.74194
2293.0 0.000436 2212.71948 2302.88232
2343.0 0.000427 2213.27222 2293.81104
2231.0 0.000448 2213.82080 2287.70947
2315.0 0.000432 2214.36523 2285.08252
2198.0 0.000455 2214.90552 2286.36914
2379.0 0.000420 2215.44141 2291.85938
2350.0 0.000426 2215.97290 2301.69897
2353.0 0.000425 2216.50049 2315.52563
2363.0 0.000423 2217.02368 2332.11548
2394.0 0.000418 2217.54248 2348.38257
2361.0 0.000424 2218.05688 2359.06665
2317.0 0.000432 2218.56689 2359.84814
2324.0 0.000430 2219.07251 2352.29688
2377.0 0.000421 2219.57373 2342.44946
2355.0 0.000425 2220.07056 2335.80444
2377.0 0.000421 2220.56274 2335.85425
2372.0 0.000422 2221.05054 2344.74341
2336.0 0.000428 2221.53369 2363.57422
2328.0 0.000430 2222.01270 2392.13989
2473.0 0.000404 2222.48682 2428.05981
2411.0 0.000415 2222.95654 2465.26489
2466.0 0.000406 2223.42139 2491.71826
2494.0 0.000401 2223.88184 2495.80347
2484.0 0.000403 2224.33765 2477.29370
2343.0 0.000427 2224.78882 2447.81445
2449.0 0.000408 2225.23535 2418.94971
2436.0 0.000411 2225.67725 2396.90552
2399.0 0.000417 2226.11450 2383.90259
2377.0 0.000421 2226.54688 2380.16943
2339.0 0.000428 2226.97461 2385.27466
2418.0 0.000414 2227.39746 2399.23267
2417.0 0.000414 2227.81567 2423.36865
2441.0 0.000410 2228.22925 2461.64136
2489.0 0.000402 2228.63794 2521.55957
2536.0 0.000394 2229.04199 2614.84399
2706.0 0.000370 2229.44092 2756.65747
2880.0 0.0003472 2229.83545 2962.40576
3082.0 0.0003245 2230.22485 3241.56201
3661.0 0.0002731 2230.60938 3588.01978
4060.0 0.0002463 2230.98926 3964.29590
4261.0 0.0002347 2231.36426 4280.21094
4355.0 0.0002296 2231.73438 4404.29541
4242.0 0.0002357 2232.09961 4267.58740
3983.0 0.0002511 2232.45996 3945.16968
3734.0 0.0002678 2232.81543 3568.12915
3180.0 0.0003145 2233.16602 3223.72021
2981.0 0.0003355 2233.51172 2947.34521
2772.0 0.000361 2233.85254 2743.99536
2601.0 0.000384 2234.18848 2602.06567
2582.0 0.000387 2234.51929 2509.13184
2379.0 0.000420 2234.84546 2448.25854
2427.0 0.000412 2235.16650 2407.59546
2347.0 0.000426 2235.48291 2379.19116
2309.0 0.000433 2235.79419 2358.27173
2244.0 0.000446 2236.10059 2342.19727
2386.0 0.000419 2236.40210 2329.35010
2282.0 0.000438 2236.69849 2318.89063
2446.0 0.000409 2236.99023 2310.25269
2318.0 0.000431 2237.27661 2303.03979
2201.0 0.000454 2237.55859 2296.96631
2367.0 0.000422 2237.83521 2291.81396
2276.0 0.000439 2238.10718 2287.41504
2255.0 0.000443 2238.37402 2283.63696
2245.0 0.000445 2238.63599 2280.37817
2238.0 0.000447 2238.89307 2277.55298
2317.0 0.000432 2239.14526 2275.09619
2338.0 0.000428 2239.39258 2272.95288
2281.0 0.000438 2239.63477 2271.07983
2249.0 0.000445 2239.87231 2269.43994
2223.0 0.000450 2240.10474 2268.00342
2245.0 0.000445 2240.33252 2266.74731
2290.0 0.000437 2240.55518 2265.64941
2183.0 0.000458 2240.77295 2264.69507
2175.0 0.000460 2240.98608 2263.86987
2281.0 0.000438 2241.19409 2261.71411
2276.0 0.000439 2241.39746 2261.14966
2281.0 0.000438 2241.59570 2260.98218
2264.0 0.000442 2241.78931 2260.63257
2247.0 0.000445 2241.97803 2260.38867
2211.0 0.000452 2242.16211 2260.25537
2310.0 0.000433 2242.34106 2260.24292
2273.0 0.000440 2242.51538 2260.37646
2270.0 0.000441 2242.68506 2260.69946
2158.0 0.000463 2242.84961 2261.29419
2287.0 0.000437 2243.00977 2262.30200
2263.0 0.000442 2243.16479 2263.94434
2271.0 0.000440 2243.31543 2266.52295
2363.0 0.000423 2243.46118 2270.38013
2212.0 0.000452 2243.60205 2275.79761
2298.0 0.000435 2243.73853 2282.82642
2219.0 0.000451 2243.87012 2291.02515
2239.0 0.000447 2243.99731 2299.02075
2241.0 0.000446 2244.11963 2304.25537
2371.0 0.000422 2244.23730 2304.31177
2360.0 0.000424 2244.35034 2299.49048
2110.0 0.000474 2244.45898 2292.47192
2297.0 0.000435 2244.56299 2285.91821
2330.0 0.000429 2244.66235 2281.18750
2293.0 0.000436 2244.75708 2278.86938
2232.0 0.000448 2244.84766 2279.09180
2324.0 0.000430 2244.93335 2281.66895
2289.0 0.000437 2245.01465 2286.10791
2311.0 0.000433 2245.09155 2291.43530
2229.0 0.000449 2245.16406 2295.95630
2342.0 0.000427 2245.23218 2297.72998
2335.0 0.000428 2245.29565 2296.27979
2269.0 0.000441 2245.35498 2293.19263
2239.0 0.000447 2245.40991 2290.48462
2349.0 0.000426 2245.46045 2289.44165
2273.0 0.000440 2245.50684 2291.09937
2292.0 0.000436 2245.54883 2296.13550
2240.0 0.000446 2245.58667 2305.44141
2311.0 0.000433 2245.62012 2320.18066
2307.0 0.000433 2245.64941 2341.84570
2355.0 0.000425 2245.67480 2371.79248
2368.0 0.000422 2245.69556 2409.97974
2387.0 0.000419 2245.71265 2453.13330
2455.0 0.000407 2245.72534 2492.41064
2507.0 0.000399 2245.73413 2513.30225
2457.0 0.000407 2245.73877 2504.89648
2452.0 0.000408 2245.73950 2471.93433
2490.0 0.000402 2245.73608 2429.99927
2329.0 0.000429 2245.72876 2391.04370
2352.0 0.000425 2245.71753 2360.76074
2328.0 0.000430 2245.70239 2340.54614
2388.0 0.000419 2245.68335 2329.33911
2328.0 0.000430 2245.66064 2324.47485
2318.0 0.000431 2245.63403 2322.05713
2232.0 0.000448 2245.60352 2317.98291
2233.0 0.000448 2245.56934 2310.43677
2291.0 0.000436 2245.53149 2300.77197
2323.0 0.000430 2245.48999 2291.17383
2275.0 0.000440 2245.44458 2282.94580
2255.0 0.000443 2245.39575 2276.52124
2239.0 0.000447 2245.34326 2271.85498
2231.0 0.000448 2245.28735 2268.79297
2259.0 0.000443 2245.22778 2266.80151
2293.0 0.000436 2245.16504 2265.72729
2227.0 0.000449 2245.09839 2265.42798
2219.0 0.000451 2245.02856 2263.99292
2249.0 0.000445 2244.95532 2265.43018
2268.0 0.000441 2244.87866 2268.05493
2324.0 0.000430 2244.79883 2272.19849
2265.0 0.000442 2244.71558 2278.16748
2287.0 0.000437 2244.62915 2286.09180
2308.0 0.000433 2244.53955 2295.65674
2290.0 0.000437 2244.44678 2305.81836
2190.0 0.000457 2244.35083 2314.20752
2316.0 0.000432 2244.25171 2319.66772
2234.0 0.000448 2244.14966 2323.14795
2337.0 0.000428 2244.04443 2326.04468
2327.0 0.000430 2243.93628 2327.62451
2322.0 0.000431 2243.82520 2325.18140
2291.0 0.000436 2243.71143 2317.30273
2246.0 0.000445 2243.59448 2306.02588
2202.0 0.000454 2243.47461 2294.51514
2262.0 0.000442 2243.35229 2284.70776
2328.0 0.000430 2243.22681 2277.26123
2189.0 0.000457 2243.09888 2272.14722
2316.0 0.000432 2242.96826 2269.06519
2274.0 0.000440 2242.83496 2267.56079
2300.0 0.000435 2242.69897 2267.32324
2358.0 0.000424 2242.56055 2268.12817
2266.0 0.000441 2242.41968 2269.96826
2302.0 0.000434 2242.27612 2273.06177
2291.0 0.000436 2242.13037 2277.95117
2350.0 0.000426 2241.98193 2285.61230
2315.0 0.000432 2241.83130 2297.55493
2413.0 0.000414 2241.67822 2315.77393
2320.0 0.000431 2241.52295 2342.41138
2429.0 0.000412 2241.36523 2379.05396
2558.0 0.000391 2241.20557 2425.57983
2487.0 0.000402 2241.04370 2478.24097
2601.0 0.000384 2240.87964 2526.67139
2574.0 0.000389 2240.71362 2553.21753
2463.0 0.000406 2240.54541 2543.89868
2606.0 0.000384 2240.37524 2503.77539
2586.0 0.000387 2240.20337 2450.84619
2518.0 0.000397 2240.02930 2399.68872
2349.0 0.000426 2239.85327 2357.07349
2303.0 0.000434 2239.67578 2324.67993
2332.0 0.000429 2239.49634 2301.62354
2263.0 0.000442 2239.31494 2285.91382
2275.0 0.000440 2239.13208 2275.40527
2222.0 0.000450 2238.94751 2268.29272
2303.0 0.000434 2238.76123 2263.29248
2208.0 0.000453 2238.57349 2259.59351
2274.0 0.000440 2238.38403 2256.72192
2261.0 0.000442 2238.19336 2254.40796
2242.0 0.000446 2238.00122 2252.64160
2229.0 0.000449 2237.80737 2250.98828
2232.0 0.000448 2237.61230 2249.61548
2225.0 0.000449 2237.41602 2248.42969
2224.0 0.000450 2237.21826 2247.39648
2251.0 0.000444 2237.01953 2246.48901
2174.0 0.000460 2236.81934 2245.68530
2325.0 0.000430 2236.61816 2244.96924
2251.0 0.000444 2236.41577 2244.32617
2229.0 0.000449 2236.21240 2243.74707
2223.0 0.000450 2236.00806 2243.22485
2187.0 0.000457 2235.80249 2242.75098
2245.0 0.000445 2235.59619 2242.32056
2256.0 0.000443 2235.38892 2241.90063
2219.0 0.000451 2235.18066 2241.54736
2274.0 0.000440 2234.97168 2241.22754
2207.0 0.000453 2234.76196 2240.94116
2321.0 0.000431 2234.55151 2240.68506
2285.0 0.000438 2234.34033 2240.46069
2234.0 0.000448 2234.12842 2241.34766
2267.0 0.000441 2233.91602 2241.20605
2156.0 0.000464 2233.70313 2241.09399
2251.0 0.000444 2233.48950 2241.02417
2256.0 0.000443 2233.27539 2240.99438
2317.0 0.000432 2233.06104 2241.01025
2190.0 0.000457 2232.84619 2241.07642
2316.0 0.000432 2232.63086 2241.34961
2258.0 0.000443 2232.41528 2241.31299
2198.0 0.000455 2232.19946 2241.59351
2191.0 0.000456 2231.98340 2241.97144
2281.0 0.000438 2231.76709 2242.46948
2313.0 0.000432 2231.55054 2243.11816
2289.0 0.000437 2231.33398 2243.96680
2303.0 0.000434 2231.11743 2245.09351
2272.0 0.000440 2230.90063 2246.62939
2245.0 0.000445 2230.68408 2248.80469
2267.0 0.000441 2230.46729 2251.99194
2274.0 0.000440 2230.25073 2256.70728
2246.0 0.000445 2230.03418 2263.75879
2336.0 0.000428 2229.81787 2273.88940
2264.0 0.000442 2229.60156 2287.69971
2261.0 0.000442 2229.38574 2305.21118
2269.0 0.000441 2229.17017 2325.19360
2365.0 0.000423 2228.95483 2344.09497
2288.0 0.000437 2228.73999 2355.71875
2394.0 0.000418 2228.52515 2354.96265
2295.0 0.000436 2228.31104 2343.54932
2319.0 0.000431 2228.09741 2328.35303
2364.0 0.000423 2227.88403 2315.49927
2298.0 0.000435 2227.67139 2308.52539
2351.0 0.000425 2227.45923 2309.18896
2276.0 0.000439 2227.24780 2318.11450
2308.0 0.000433 2227.03687 2334.83813
2374.0 0.000421 2226.82666 2357.30518
2495.0 0.000401 2226.61719 2380.65552
2428.0 0.000412 2226.40820 2396.27441
2389.0 0.000419 2226.20020 2395.44116
2345.0 0.000426 2225.99316 2377.84644
2359.0 0.000424 2225.78687 2351.59058
2294.0 0.000436 2225.58130 2324.96021
2317.0 0.000432 2225.37695 2302.38843
2234.0 0.000448 2225.17334 2285.33008
2251.0 0.000444 2224.97070 2273.90625
2276.0 0.000439 2224.76904 2267.40723
2218.0 0.000451 2224.56860 2264.96069
2230.0 0.000448 2224.36914 2265.67603
2242.0 0.000446 2224.17065 2268.58765
2318.0 0.000431 2223.97363 2272.36475
2238.0 0.000447 2223.77759 2275.07568
2203.0 0.000454 2223.58276 2274.84058
2267.0 0.000441 2223.38916 2271.16577
2257.0 0.000443 2223.19702 2265.11938
2225.0 0.000449 2223.00586 2258.33398
2221.0 0.000450 2222.81616 2252.07349
2215.0 0.000451 2222.62793 2246.93311
2243.0 0.000446 2222.44092 2243.01880
2331.0 0.000429 2222.25562 2240.18945
2307.0 0.000433 2222.07153 2238.21167
2282.0 0.000438 2221.88892 2236.85229
2238.0 0.000447 2221.70776 2235.92114
2196.0 0.000455 2221.52808 2235.28882
2167.0 0.000461 2221.35010 2239.61816
2266.0 0.000441 2221.17383 2239.47559
2223.0 0.000450 2220.99902 2239.22241
2167.0 0.000461 2220.82568 2239.46948
2271.0 0.000440 2220.65430 2239.94678
2182.0 0.000458 2220.48438 2240.68091
2216.0 0.000451 2220.31616 2241.67896
2247.0 0.000445 2220.14990 2242.89380
2200.0 0.000455 2219.98511 2244.17261
2200.0 0.000455 2219.82227 2245.21582
2130.0 0.000469 2219.66113 2245.70386
2243.0 0.000446 2219.50195 2245.61743
2241.0 0.000446 2219.34448 2245.26489
2191.0 0.000456 2219.18921 2246.98657
2234.0 0.000448 2219.03540 2246.97583
2260.0 0.000442 2218.88379 2247.28296
2250.0 0.000444 2218.73389 2247.92236
2228.0 0.000449 2218.58618 2248.88623
2224.0 0.000450 2218.44019 2250.16650
2166.0 0.000462 2218.29639 2251.76953
2235.0 0.000447 2218.15454 2253.72656
2235.0 0.000447 2218.01465 2256.10693
2259.0 0.000443 2217.87695 2259.03906
2231.0 0.000448 2217.74121 2262.75024
2286.0 0.000437 2217.60767 2267.64819
2285.0 0.000438 2217.47607 2274.33887
2300.0 0.000435 2217.34668 2283.78296
2291.0 0.000436 2217.21948 2297.21143
2342.0 0.000427 2217.09448 2315.96118
2310.0 0.000433 2216.97144 2341.07983
2408.0 0.000415 2216.85059 2372.67334
2493.0 0.000401 2216.73193 2408.77246
2405.0 0.000416 2216.61572 2443.49585
2591.0 0.000386 2216.50146 2466.23877
2448.0 0.000408 2216.38965 2467.54321
2506.0 0.000399 2216.28003 2449.13330
2421.0 0.000413 2216.17261 2421.99097
2415.0 0.000414 2216.06763 2396.01904
2472.0 0.000405 2215.96460 2376.27759
2411.0 0.000415 2215.86401 2364.49878
2386.0 0.000419 2215.76587 2360.85913
2382.0 0.000420 2215.66992 2365.11743
2433.0 0.000411 2215.57642 2377.48022
2382.0 0.000420 2215.48511 2399.41040
2495.0 0.000401 2215.39624 2434.30151
2568.0 0.000389 2215.30957 2488.04346
2617.0 0.000382 2215.22534 2568.87793
2779.0 0.000360 2215.14355 2686.23682
2786.0 0.000359 2215.06396 2848.14087
3002.0 0.0003331 2214.98706 3056.75757
3308.0 0.0003023 2214.91235 3301.05298
3671.0 0.0002724 2214.84009 3544.02539
3889.0 0.0002571 2214.77002 3713.42529
3792.0 0.0002637 2214.70264 3734.39404
3636.0 0.0002750 2214.63745 3604.53076
3505.0 0.0002853 2214.57471 3397.74927
3252.0 0.0003075 2214.51440 3188.84399
3202.0 0.0003123 2214.45654 3014.51489
2967.0 0.0003370 2214.40112 2879.27026
2866.0 0.0003489 2214.34814 2770.13013
2684.0 0.000373 2214.29761 2673.98706
2692.0 0.000371 2214.24927 2588.38379
2603.0 0.000384 2214.20361 2516.55225
2363.0 0.000423 2214.16016 2459.46704
2403.0 0.000416 2214.11938 2415.80127
2287.0 0.000437 2214.08081 2383.30078
2343.0 0.000427 2214.04492 2359.57959
2305.0 0.000434 2214.01123 2342.43066
2348.0 0.000426 2213.97998 2330.00391
2298.0 0.000435 2213.95117 2320.89111
2344.0 0.000427 2213.92480 2314.10669
2269.0 0.000441 2213.90088 2309.00635
2242.0 0.000446 2213.87915 2305.17773
2324.0 0.000430 2213.86011 2302.20557
2334.0 0.000428 2213.84326 2300.22656
2286.0 0.000437 2213.82886 2298.96460
2357.0 0.000424 2213.81689 2298.33545
2375.0 0.000421 2213.80737 2298.27930
2325.0 0.000430 2213.80005 2298.75439
2457.0 0.000407 2213.79517 2299.73413
2276.0 0.000439 2213.79272 2301.20361
2358.0 0.000424 2213.79272 2303.16016
2304.0 0.000434 2213.79492 2305.68115
2295.0 0.000436 2213.79956 2308.64258
2267.0 0.000441 2213.80640 2312.14111
2357.0 0.000424 2213.81567 2316.18677
2308.0 0.000433 2213.82715 2320.88086
2327.0 0.000430 2213.84082 2326.24585
2403.0 0.000416 2213.85693 2332.38062
2294.0 0.000436 2213.87549 2339.36816
2247.0 0.000445 2213.89624 2347.32227
2382.0 0.000420 2213.91895 2356.38232
2317.0 0.000432 2213.94434 2366.72168
2380.0 0.000420 2213.97168 2378.55029
2515.0 0.000398 2214.00122 2392.13208
2382.0 0.000420 2214.03320 2407.79395
2471.0 0.000405 2214.06738 2425.94678
2431.0 0.000411 2214.10352 2447.11206
2394.0 0.000418 2214.14185 2471.96289
2483.0 0.000403 2214.18237 2501.37915
2493.0 0.000401 2214.22510 2536.55176
2443.0 0.000409 2214.27002 2579.17188
2596.0 0.000385 2214.31689 2631.80688
2626.0 0.000381 2214.36597 2698.62671
2678.0 0.000373 2214.41699 2786.69409
2884.0 0.0003467 2214.47021 2907.94263
3046.0 0.0003283 2214.52563 3081.56201
3279.0 0.0003050 2214.58276 3335.75635
3758.0 0.0002661 2214.64209 3706.99536
4217.0 0.0002371 2214.70337 4234.63525
5044.0 0.0001983 2214.76660 4949.42334
5966.0 0.0001676 2214.83179 5854.10938
6898.0 0.0001450 2214.89868 6889.44678
7988.0 0.0001252 2214.96777 7877.92334
8617.0 0.0001160 2215.03882 8497.40234
8558.0 0.0001168 2215.11157 8453.31055
7837.0 0.0001276 2215.18628 7784.35010
7008.0 0.0001427 2215.26270 6819.46143
6036.0 0.0001657 2215.34106 5865.18994
5120.0 0.0001953 2215.42114 5082.08252
4497.0 0.0002224 2215.50317 4527.46436
4103.0 0.0002437 2215.58667 4207.53711
4047.0 0.0002471 2215.67212 4104.98682
4154.0 0.0002407 2215.75928 4191.11133
4491.0 0.0002227 2215.84790 4426.82324
4760.0 0.0002101 2215.93848 4750.40869
5197.0 0.0001924 2216.03052 5053.07275
5243.0 0.0001907 2216.12427 5180.13477
5113.0 0.0001956 2216.21948 5030.47705
4760.0 0.0002101 2216.31641 4651.86914
4195.0 0.0002384 2216.41479 4189.77734
3836.0 0.0002607 2216.51465 3753.24463
3281.0 0.0003048 2216.61597 3390.65503
3073.0 0.0003254 2216.71899 3112.44019
2899.0 0.0003449 2216.82324 2910.58252
2700.0 0.000370 2216.92896 2769.46802
2755.0 0.000363 2217.03613 2672.18872
2565.0 0.000390 2217.14478 2603.95508
2506.0 0.000399 2217.25464 2553.40845
2444.0 0.000409 2217.36597 2513.09766
2442.0 0.000410 2217.47827 2479.32861
2405.0 0.000416 2217.59204 2450.71191
2395.0 0.000418 2217.70703 2426.56934
2382.0 0.000420 2217.82324 2406.31250
2291.0 0.000436 2217.94067 2389.37622
2296.0 0.000436 2218.05908 2375.23755
2361.0 0.000424 2218.17896 2363.42163
2334.0 0.000428 2218.29980 2356.18945
2361.0 0.000424 2218.42163 2347.64722
2347.0 0.000426 2218.54443 2340.34106
2329.0 0.000429 2218.66846 2333.85254
2267.0 0.000441 2218.79346 2328.18237
2328.0 0.000430 2218.91919 2323.52539
2231.0 0.000448 2219.04614 2320.05640
2331.0 0.000429 2219.17383 2319.53418
2318.0 0.000431 2219.30249 2318.44946
2291.0 0.000436 2219.43188 2318.03613
2372.0 0.000422 2219.56226 2317.52295
2296.0 0.000436 2219.69336 2316.29736
2297.0 0.000435 2219.82520 2314.50244
2305.0 0.000434 2219.95776 2312.61743
2295.0 0.000436 2220.09106 2310.54199
2282.0 0.000438 2220.22510 2307.50000
2331.0 0.000429 2220.35962 2302.97681
2334.0 0.000428 2220.49487 2297.46924
2315.0 0.000432 2220.63086 2291.94580
2250.0 0.000444 2220.76709 2287.04150
2268.0 0.000441 2220.90405 2281.89307
2272.0 0.000440 2221.04150 2278.66724
2243.0 0.000446 2221.17944 2276.15088
2245.0 0.000445 2221.31763 2274.20142
2241.0 0.000446 2221.45654 2272.68115
2287.0 0.000437 2221.59546 2271.47974
2314.0 0.000432 2221.73511 2270.36572
2210.0 0.000452 2221.87476 2269.62744
2236.0 0.000447 2222.01489 2269.01709
2267.0 0.000441 2222.15503 2268.54590
2237.0 0.000447 2222.29565 2268.20386
2267.0 0.000441 2222.43652 2267.98608
2251.0 0.000444 2222.57739 2267.89185
2185.0 0.000458 2222.71851 2267.92432
2209.0 0.000453 2222.85962 2268.09009
2292.0 0.000436 2223.00098 2268.40381
2311.0 0.000433 2223.14209 2268.87842
2318.0 0.000431 2223.28345 2269.54565
2351.0 0.000425 2223.42480 2270.45435
2254.0 0.000444 2223.56592 2271.68726
2262.0 0.000442 2223.70728 2273.38403
2288.0 0.000437 2223.84839 2275.77368
2283.0 0.000438 2223.98926 2279.20313
2340.0 0.000427 2224.13013 2284.14331
2331.0 0.000429 2224.27075 2291.14063
2340.0 0.000427 2224.41113 2300.69678
2372.0 0.000422 2224.55127 2313.05029
2432.0 0.000411 2224.69116 2327.80151
2355.0 0.000425 2224.83057 2343.23218
2467.0 0.000405 2224.96997 2355.54053
2399.0 0.000417 2225.10889 2359.81348
2298.0 0.000435 2225.24731 2354.71191
2326.0 0.000430 2225.38525 2342.59570
2338.0 0.000428 2225.52295 2328.85034
2385.0 0.000419 2225.65991 2316.57178
2399.0 0.000417 2225.79663 2306.96191
2345.0 0.000426 2225.93262 2300.16650
2225.0 0.000449 2226.06812 2295.83789
2321.0 0.000431 2226.20313 2293.45581
2278.0 0.000439 2226.33740 2292.49829
2228.0 0.000449 2226.47095 2292.54883
2285.0 0.000438 2226.60400 2293.31470
2261.0 0.000442 2226.73633 2294.61646
2234.0 0.000448 2226.86768 2296.35474
2278.0 0.000439 2226.99854 2298.48242
2346.0 0.000426 2227.12866 2300.98218
2275.0 0.000440 2227.25781 2303.85693
2301.0 0.000435 2227.38623 2307.12354
2296.0 0.000436 2227.51367 2310.80957
2386.0 0.000419 2227.64014 2314.95435
2373.0 0.000421 2227.76587 2319.60596
2440.0 0.000410 2227.89063 2324.82910
2398.0 0.000417 2228.01440 2330.70142
2397.0 0.000417 2228.13696 2337.31812
2308.0 0.000433 2228.25879 2344.79712
2386.0 0.000419 2228.37939 2353.28613
2398.0 0.000417 2228.49927 2363.09912
2335.0 0.000428 2228.61768 2374.19971
2317.0 0.000432 2228.73511 2387.00732
2354.0 0.000425 2228.85132 2401.88867
2469.0 0.000405 2228.96655 2419.32544
2455.0 0.000407 2229.08032 2439.96387
2479.0 0.000403 2229.19312 2459.98657
2525.0 0.000396 2229.30444 2490.28589
2541.0 0.000394 2229.41479 2528.22095
2687.0 0.000372 2229.52368 2577.39795
2708.0 0.000369 2229.63135 2643.80493
2782.0 0.000359 2229.73755 2736.97241
2995.0 0.0003339 2229.84253 2870.86353
3253.0 0.0003074 2229.94604 3063.67261
3543.0 0.0002822 2230.04834 3335.52344
3821.0 0.0002617 2230.14893 3703.32617
4202.0 0.0002380 2230.24829 4171.84082
4573.0 0.0002187 2230.34619 4717.71289
5102.0 0.0001960 2230.44263 5259.43994
5458.0 0.0001832 2230.53760 5643.60645
5547.0 0.0001803 2230.63110 5697.29102
5432.0 0.0001841 2230.72290 5398.14258
4943.0 0.0002023 2230.81323 4898.85889
4603.0 0.0002172 2230.90186 4371.03809
4133.0 0.0002420 2230.98901 3911.61865
3583.0 0.0002791 2231.07471 3554.54980
3454.0 0.0002895 2231.15869 3301.03735
3069.0 0.0003258 2231.24097 3138.20850
3095.0 0.0003231 2231.32153 3049.77954
3004.0 0.0003329 2231.40063 3022.83130
3043.0 0.0003286 2231.47778 3051.86963
3076.0 0.0003251 2231.55347 3140.25146
3173.0 0.0003152 2231.62720 3299.46533
3349.0 0.0002986 2231.69946 3546.03979
3744.0 0.0002671 2231.76978 3896.02344
4197.0 0.0002383 2231.83838 4356.39844
4829.0 0.0002071 2231.90527 4910.32080
5315.0 0.0001881 2231.97021 5490.86475
5752.0 0.0001739 2232.03345 5957.92090
6091.0 0.0001642 2232.09473 6153.01660
6074.0 0.0001646 2232.15430 6053.31787
5738.0 0.0001743 2232.21216 5806.82422
5671.0 0.0001763 2232.26782 5577.26709
5515.0 0.0001813 2232.32178 5431.19092
5357.0 0.0001867 2232.37402 5327.03369
5023.0 0.0001991 2232.42432 5155.15039
4822.0 0.0002074 2232.47266 4840.10742
4390.0 0.0002278 2232.51904 4419.25049
3943.0 0.0002536 2232.56348 3984.91577
3718.0 0.0002690 2232.60596 3601.14331
3295.0 0.0003035 2232.64648 3291.13574
3069.0 0.0003258 2232.68530 3054.68652
2832.0 0.000353 2232.72192 2881.37183
2699.0 0.000371 2232.75659 2757.21143
2649.0 0.000378 2232.78931 2668.43701
2637.0 0.000379 2232.82007 2603.62598
2484.0 0.000403 2232.84888 2554.75391
2500.0 0.000400 2232.87573 2516.85449
2435.0 0.000411 2232.90039 2486.99365
2434.0 0.000411 2232.92310 2463.42212
2409.0 0.000415 2232.94409 2445.06934
2401.0 0.000416 2232.96265 2431.20850
2409.0 0.000415 2232.97949 2421.20850
2318.0 0.000431 2232.99414 2414.52124
2300.0 0.000435 2233.00684 2409.30029
2360.0 0.000424 2233.01733 2403.71216
2428.0 0.000412 2233.02588 2395.76245
2313.0 0.000432 2233.03247 2385.27124
2337.0 0.000428 2233.03711 2374.01147
2435.0 0.000411 2233.03955 2363.47900
2355.0 0.000425 2233.03979 2354.69531
2385.0 0.000419 2233.03833 2347.89600
2376.0 0.000421 2233.03467 2342.92822
2284.0 0.000438 2233.02881 2339.42188
2326.0 0.000430 2233.02124 2337.00903
2310.0 0.000433 2233.01123 2335.59106
2354.0 0.000425 2232.99951 2335.37598
2325.0 0.000430 2232.98560 2336.72461
2383.0 0.000420 2232.96948 2340.13379
2325.0 0.000430 2232.95166 2346.38110
2423.0 0.000413 2232.93164 2356.73413
2388.0 0.000419 2232.90967 2373.14478
2468.0 0.000405 2232.88550 2398.33105
2523.0 0.000396 2232.85938 2435.59790
2473.0 0.000404 2232.83130 2488.23584
2600.0 0.000385 2232.80103 2558.39136
2617.0 0.000382 2232.76880 2645.08374
2773.0 0.000361 2232.73462 2740.50659
2704.0 0.000370 2232.69849 2824.57227
2817.0 0.000355 2232.66040 2866.02856
2752.0 0.000363 2232.62012 2843.19775
2788.0 0.000359 2232.57813 2767.58691
2709.0 0.000369 2232.53394 2670.67090
2604.0 0.000384 2232.48779 2577.24243
2541.0 0.000394 2232.43970 2498.67188
2493.0 0.000401 2232.38965 2437.72021
2390.0 0.000418 2232.33765 2393.00854
2307.0 0.000433 2232.28394 2361.45337
2379.0 0.000420 2232.22803 2339.63843
2303.0 0.000434 2232.17041 2324.57520
2378.0 0.000421 2232.11060 2314.02661
2267.0 0.000441 2232.04907 2306.49976
2296.0 0.000436 2231.98560 2301.09814
2204.0 0.000454 2231.92041 2297.34351
2277.0 0.000439 2231.85327 2295.06079
2298.0 0.000435 2231.78418 2294.31274
2248.0 0.000445 2231.71338 2295.40186
2233.0 0.000448 2231.64063 2298.86743
2277.0 0.000439 2231.56616 2305.45874
2267.0 0.000441 2231.48999 2316.01099
2349.0 0.000426 2231.41187 2331.20679
2292.0 0.000436 2231.33203 2351.16138
2434.0 0.000411 2231.25024 2374.66138
2364.0 0.000423 2231.16699 2397.84253
2406.0 0.000416 2231.08203 2413.30078
2385.0 0.000419 2230.99512 2413.33545
2330.0 0.000429 2230.90674 2397.27124
2373.0 0.000421 2230.81665 2372.22168
2347.0 0.000426 2230.72461 2345.94751
2262.0 0.000442 2230.63135 2322.76685
2293.0 0.000436 2230.53613 2304.13770
2282.0 0.000438 2230.43945 2290.03149
2249.0 0.000445 2230.34106 2279.76147
2342.0 0.000427 2230.24121 2272.43091
2263.0 0.000442 2230.13989 2267.18701
2288.0 0.000437 2230.03687 2264.02588
2254.0 0.000444 2229.93237 2261.12402
2248.0 0.000445 2229.82617 2258.83423
2260.0 0.000442 2229.71875 2256.96436
2165.0 0.000462 2229.60986 2255.39893
2225.0 0.000449 2229.49927 2254.06348
2187.0 0.000457 2229.38745 2252.91138
2240.0 0.000446 2229.27417 2251.90894
2215.0 0.000451 2229.15967 2251.03223
2271.0 0.000440 2229.04346 2247.52539
2156.0 0.000464 2228.92627 2246.89648
2221.0 0.000450 2228.80762 2246.34985
2211.0 0.000452 2228.68750 2245.87695
2204.0 0.000454 2228.56641 2246.97827
2246.0 0.000445 2228.44385 2246.66724
2273.0 0.000440 2228.32031 2246.41992
2246.0 0.000445 2228.19531 2246.23779
2251.0 0.000444 2228.06909 2246.12207
2183.0 0.000458 2227.94189 2246.07715
2353.0 0.000425 2227.81348 2246.11035
2270.0 0.000441 2227.68384 2246.23071
2197.0 0.000455 2227.55322 2246.45654
2254.0 0.000444 2227.42163 2246.81323
2209.0 0.000453 2227.28882 2247.34570
2141.0 0.000467 2227.15503 2248.12549
2274.0 0.000440 2227.02026 2249.26050
2259.0 0.000443 2226.88452 2250.91309
2238.0 0.000447 2226.74780 2253.28662
2302.0 0.000434 2226.61035 2253.90283
2292.0 0.000436 2226.47168 2258.41797
2278.0 0.000439 2226.33228 2264.15161
2260.0 0.000442 2226.19214 2270.87842
2294.0 0.000436 2226.05127 2277.76587
2227.0 0.000449 2225.90942 2283.10156
2264.0 0.000442 2225.76685 2283.20654
2327.0 0.000430 2225.62354 2281.07349
2287.0 0.000437 2225.47925 2276.59399
2244.0 0.000446 2225.33472 2271.81958
2350.0 0.000426 2225.18921 2268.01758
2307.0 0.000433 2225.04321 2265.72046
2241.0 0.000446 2224.89673 2265.09131
2290.0 0.000437 2224.74927 2266.18237
2333.0 0.000429 2224.60156 2269.10376
2346.0 0.000426 2224.45337 2274.16992
2275.0 0.000440 2224.30444 2282.01831
2285.0 0.000438 2224.15527 2293.72070
2311.0 0.000433 2224.00562 2310.74023
2368.0 0.000422 2223.85547 2334.80420
2369.0 0.000422 2223.70483 2367.54663
2499.0 0.000400 2223.55396 2409.86914
2456.0 0.000407 2223.40283 2460.72266
2541.0 0.000394 2223.25122 2514.83594
2576.0 0.000388 2223.09961 2560.50000
2644.0 0.000378 2222.94751 2583.42212
2678.0 0.000373 2222.79517 2579.33960
2519.0 0.000397 2222.64282 2558.24854
2456.0 0.000407 2222.49023 2531.72241
2490.0 0.000402 2222.33740 2502.62866
2503.0 0.000400 2222.18457 2468.21460
2448.0 0.000408 2222.03149 2428.67896
2357.0 0.000424 2221.87866 2389.07886
2373.0 0.000421 2221.72559 2354.25098
2348.0 0.000426 2221.57251 2326.13159
2342.0 0.000427 2221.41968 2304.57422
2304.0 0.000434 2221.26660 2288.58960
2297.0 0.000435 2221.11377 2276.97095
2267.0 0.000441 2220.96094 2268.58643
2357.0 0.000424 2220.80835 2262.49805
2242.0 0.000446 2220.65601 2257.99561
2341.0 0.000427 2220.50391 2254.58423
2290.0 0.000437 2220.35181 2251.99707
2378.0 0.000421 2220.20020 2249.90747
2322.0 0.000431 2220.04883 2248.24048
2295.0 0.000436 2219.89746 2246.90796
2256.0 0.000443 2219.74683 2245.84961
2200.0 0.000455 2219.59644 2245.02197
2341.0 0.000427 2219.44629 2244.39258
2248.0 0.000445 2219.29663 2243.93799
2268.0 0.000441 2219.14746 2243.26758
2209.0 0.000453 2218.99878 2243.12476
2333.0 0.000429 2218.85059 2243.11646
2213.0 0.000452 2218.70313 2243.23682
2238.0 0.000447 2218.55591 2243.48267
2224.0 0.000450 2218.40942 2243.85352
2257.0 0.000443 2218.26343 2244.35156
2224.0 0.000450 2218.11841 2244.98096
2247.0 0.000445 2217.97363 2245.74829
2250.0 0.000444 2217.82983 2246.66211
2232.0 0.000448 2217.68677 2247.73584
2280.0 0.000439 2217.54419 2248.98315
2269.0 0.000441 2217.40259 2250.42529
2199.0 0.000455 2217.26172 2252.08350
2307.0 0.000433 2217.12158 2253.98706
2264.0 0.000442 2216.98242 2256.17456
2288.0 0.000437 2216.84424 2258.68311
2244.0 0.000446 2216.70679 2261.56982
2304.0 0.000434 2216.57031 2264.90112
2243.0 0.000446 2216.43481 2268.76123
2320.0 0.000431 2216.30005 2273.25830
2313.0 0.000432 2216.16650 2278.53149
2328.0 0.000430 2216.03394 2284.76880
2202.0 0.000454 2215.90234 2292.23682
2319.0 0.000431 2215.77197 2301.33252
2244.0 0.000446 2215.64258 2312.67920
2329.0 0.000429 2215.51440 2327.13770
2288.0 0.000437 2215.38721 2346.61328
2388.0 0.000419 2215.26147 2373.18652
2354.0 0.000425 2215.13647 2410.13501
2310.0 0.000433 2215.01318 2461.37646
2446.0 0.000409 2214.89087 2530.95215
2573.0 0.000389 2214.76978 2621.87915
2780.0 0.000360 2214.64990 2734.09277
2842.0 0.000352 2214.53149 2860.50415
2962.0 0.0003376 2214.41431 2980.70654
3125.0 0.0003200 2214.29834 3059.38623
3151.0 0.0003174 2214.18384 3066.49243
3043.0 0.0003286 2214.07080 3008.52710
3028.0 0.0003303 2213.95923 2923.23730
2878.0 0.0003475 2213.84888 2847.43164
2757.0 0.000363 2213.73999 2803.70264
2867.0 0.0003488 2213.63257 2804.59961
2807.0 0.000356 2213.52661 2857.97412
2976.0 0.0003360 2213.42212 2968.76880
3197.0 0.0003128 2213.31934 3137.83496
3390.0 0.0002950 2213.21802 3357.46167
3694.0 0.0002707 2213.11816 3601.43359
3634.0 0.0002752 2213.01978 3811.32959
3857.0 0.0002593 2212.92310 3902.99243
3761.0 0.0002659 2212.82813 3825.38281
3541.0 0.0002824 2212.73462 3614.28320
3350.0 0.0002985 2212.64282 3352.05273
3094.0 0.0003232 2212.55273 3101.38867
2916.0 0.0003429 2212.46411 2890.46582
2716.0 0.000368 2212.37744 2725.72388
2633.0 0.000380 2212.29224 2603.34912
2489.0 0.000402 2212.20874 2515.42627
2457.0 0.000407 2212.12695 2453.23779
2421.0 0.000413 2212.04712 2409.08203
2365.0 0.000423 2211.96899 2377.04126
2387.0 0.000419 2211.89233 2353.01318
2277.0 0.000439 2211.81787 2334.34985
2365.0 0.000423 2211.74487 2319.40723
2300.0 0.000435 2211.67383 2307.16211
2298.0 0.000435 2211.60474 2296.95825
2268.0 0.000441 2211.53711 2288.34766
2328.0 0.000430 2211.47168 2281.01245
2231.0 0.000448 2211.40796 2274.71265
2226.0 0.000449 2211.34595 2269.66992
2279.0 0.000439 2211.28589 2264.90210
2276.0 0.000439 2211.22778 2260.76172
2270.0 0.000441 2211.17163 2257.12280
2217.0 0.000451 2211.11719 2253.91113
2286.0 0.000437 2211.06470 2251.06616
2297.0 0.000435 2211.01416 2248.53809
2339.0 0.000428 2210.96558 2246.31616
2250.0 0.000444 2210.91895 2244.30713
2251.0 0.000444 2210.87427 2242.51318
2222.0 0.000450 2210.83130 2240.90942
2277.0 0.000439 2210.79053 2239.47778
2240.0 0.000446 2210.75171 2238.20215
2285.0 0.000438 2210.71460 2237.07031
2220.0 0.000450 2210.67969 2236.07056
2324.0 0.000430 2210.64673 2235.19629
2248.0 0.000445 2210.61548 2234.44043
2348.0 0.000426 2210.58643 2233.80029
2243.0 0.000446 2210.55933 2233.27441
2219.0 0.000451 2210.53442 2232.86426
2239.0 0.000447 2210.51123 2232.31421
2240.0 0.000446 2210.48999 2232.15356
2250.0 0.000444 2210.47095 2232.13086
2275.0 0.000440 2210.45386 2232.26465
2258.0 0.000443 2210.43848 2232.58008
2251.0 0.000444 2210.42554 2233.00269
2163.0 0.000462 2210.41431 2233.83862
2276.0 0.000439 2210.40503 2235.07446
2262.0 0.000442 2210.39795 2236.87549
2292.0 0.000436 2210.39258 2239.47485
2243.0 0.000446 2210.38940 2243.18164
2227.0 0.000449 2210.38818 2248.35425
2271.0 0.000440 2210.38892 2255.34692
2266.0 0.000441 2210.39185 2264.40308
2222.0 0.000450 2210.39648 2275.46045
2264.0 0.000442 2210.40308 2287.76733
2263.0 0.000442 2210.41187 2299.41162
2348.0 0.000426 2210.42236 2307.75977
2326.0 0.000430 2210.43506 2311.80176
2313.0 0.000432 2210.44971 2313.87158
2325.0 0.000430 2210.46631 2317.76294
2469.0 0.000405 2210.48462 2326.08008
2370.0 0.000422 2210.50513 2339.30298
2302.0 0.000434 2210.52734 2355.32300
2354.0 0.000425 2210.55176 2368.75732
2322.0 0.000431 2210.57788 2372.26807
2322.0 0.000431 2210.60620 2362.11914
2314.0 0.000432 2210.63599 2341.94824
2355.0 0.000425 2210.66797 2318.58984
2326.0 0.000430 2210.70190 2296.88770
2254.0 0.000444 2210.73755 2278.88184
2271.0 0.000440 2210.77515 2264.94067
2220.0 0.000450 2210.81445 2254.66724
2295.0 0.000436 2210.85571 2247.37671
2194.0 0.000456 2210.89893 2242.34668
2191.0 0.000456 2210.94385 2238.95605
2175.0 0.000460 2210.99072 2236.73169
2310.0 0.000433 2211.03931 2235.35010
2287.0 0.000437 2211.08960 2234.59082
2334.0 0.000428 2211.14185 2234.28540
2208.0 0.000453 2211.19580 2234.27637
2234.0 0.000448 2211.25122 2234.44727
2281.0 0.000438 2211.30884 2234.83911
2181.0 0.000459 2211.36792 2235.69116
2243.0 0.000446 2211.42871 2237.35400
2289.0 0.000437 2211.49146 2240.19409
2276.0 0.000439 2211.55566 2244.56714
2216.0 0.000451 2211.62158 2250.76318
2170.0 0.000461 2211.68896 2258.89136
2190.0 0.000457 2211.75830 2268.65039
2255.0 0.000443 2211.82910 2278.79761
2252.0 0.000444 2211.90161 2286.78052
2331.0 0.000429 2211.97559 2289.37964
2284.0 0.000438 2212.05103 2285.36328
2299.0 0.000435 2212.12842 2276.84912
2392.0 0.000418 2212.20703 2267.11963
2223.0 0.000450 2212.28711 2258.39771
2277.0 0.000439 2212.36890 2251.63672
2192.0 0.000456 2212.45215 2247.04761
2255.0 0.000443 2212.53662 2244.47534
2231.0 0.000448 2212.62280 2243.60571
2225.0 0.000449 2212.71021 2244.09351
2241.0 0.000446 2212.79932 2244.88794
2202.0 0.000454 2212.88965 2246.74634
2197.0 0.000455 2212.98120 2248.00830
2245.0 0.000445 2213.07422 2247.69458
2229.0 0.000449 2213.16870 2245.64697
2218.0 0.000451 2213.26416 2242.64722
2229.0 0.000449 2213.36108 2239.60620
2223.0 0.000450 2213.45923 2237.05664
2229.0 0.000449 2213.55859 2235.18237
2328.0 0.000430 2213.65918 2233.99341
2282.0 0.000438 2213.76123 2233.41943
2273.0 0.000440 2213.86401 2233.36719
2259.0 0.000443 2213.96826 2232.22998
2194.0 0.000456 2214.07349 2232.97021
2260.0 0.000442 2214.17993 2233.99854
2173.0 0.000460 2214.28735 2235.30811
2181.0 0.000459 2214.39575 2236.94263
2215.0 0.000451 2214.50513 2238.97290
2126.0 0.000470 2214.61572 2241.49170
2335.0 0.000428 2214.72729 2244.62573
2177.0 0.000459 2214.83960 2248.56299
2208.0 0.000453 2214.95313 2253.59717
2276.0 0.000439 2215.06738 2260.20264
2273.0 0.000440 2215.18262 2269.12354
2221.0 0.000450 2215.29858 2281.47729
2264.0 0.000442 2215.41528 2298.80664
2334.0 0.000428 2215.53320 2323.03760
2411.0 0.000415 2215.65137 2356.23877
2424.0 0.000413 2215.77075 2400.14453
2489.0 0.000402 2215.89063 2455.26147
2528.0 0.000396 2216.01123 2519.11865
2634.0 0.000380 2216.13257 2583.16040
2643.0 0.000378 2216.25464 2630.35669
2623.0 0.000381 2216.37720 2641.64795
2558.0 0.000391 2216.50024 2612.48291
2536.0 0.000394 2216.62402 2558.18579
2534.0 0.000395 2216.74829 2498.31494
2540.0 0.000394 2216.87329 2444.60938
2384.0 0.000419 2216.99854 2400.66870
2375.0 0.000421 2217.12427 2365.49438
2322.0 0.000431 2217.25049 2336.86279
2235.0 0.000447 2217.37695 2313.44727
2262.0 0.000442 2217.50415 2294.73291
2299.0 0.000435 2217.63135 2280.16699
2202.0 0.000454 2217.75903 2268.99268
2226.0 0.000449 2217.88721 2260.44775
2298.0 0.000435 2218.01538 2254.30249
2291.0 0.000436 2218.14380 2249.25073
2245.0 0.000445 2218.27271 2245.30981
2267.0 0.000441 2218.40161 2242.19067
2327.0 0.000430 2218.53076 2239.68237
2272.0 0.000440 2218.65991 2237.63184
2263.0 0.000442 2218.78931 2235.93091
2191.0 0.000456 2218.91870 2234.50415
2188.0 0.000457 2219.04810 2233.29688
2188.0 0.000457 2219.17773 2232.26831
2259.0 0.000443 2219.30713 2231.38794
2192.0 0.000456 2219.43677 2230.63086
2290.0 0.000437 2219.56616 2229.97852
2359.0 0.000424 2219.69556 2229.41406
2213.0 0.000452 2219.82471 2228.92651
2214.0 0.000452 2219.95386 2228.50415
2188.0 0.000457 2220.08301 2228.13892
2269.0 0.000441 2220.21167 2227.82324
2156.0 0.000464 2220.34009 2227.54980
2151.0 0.000465 2220.46851 2227.31519
2200.0 0.000455 2220.59668 2227.11328
2233.0 0.000448 2220.72437 2226.94141
2285.0 0.000438 2220.85181 2226.79614
2300.0 0.000435 2220.97900 2226.61548
2236.0 0.000447 2221.10547 2226.51563
2237.0 0.000447 2221.23193 2226.43555
2242.0 0.000446 2221.35791 2226.37158
2199.0 0.000455 2221.48340 2226.32397
2227.0 0.000449 2221.60815 2226.29028
2155.0 0.000464 2221.73267 2226.26953
2199.0 0.000455 2221.85669 2226.26025
2187.0 0.000457 2221.97998 2226.12671
2213.0 0.000452 2222.10303 2226.13989
2238.0 0.000447 2222.22510 2226.16333
2224.0 0.000450 2222.34668 2226.19482
2217.0 0.000451 2222.46777 2226.23364
2235.0 0.000447 2222.58789 2226.28027
2197.0 0.000455 2222.70752 2226.33423
2231.0 0.000448 2222.82642 2226.39380
2276.0 0.000439 2222.94434 2226.46021
2279.0 0.000439 2223.06177 2226.53345
2211.0 0.000452 2223.17847 2226.61230
2177.0 0.000459 2223.29395 2226.69653
2201.0 0.000454 2223.40894 2226.78662
2285.0 0.000438 2223.52295 2226.88184
2238.0 0.000447 2223.63599 2226.98389
2166.0 0.000462 2223.74829 2228.70361
2210.0 0.000452 2223.85962 2228.83887
2221.0 0.000450 2223.96997 2228.98438
2203.0 0.000454 2224.07935 2229.13818
2206.0 0.000453 2224.18774 2229.29956
2296.0 0.000436 2224.29517 2229.46973
2215.0 0.000451 2224.40137 2229.65039
2234.0 0.000448 2224.50684 2229.84229
2165.0 0.000462 2224.61084 2230.04663
2136.0 0.000468 2224.71411 2230.26709
2178.0 0.000459 2224.81592 2230.50488
2242.0 0.000446 2224.91699 2230.76538
2281.0 0.000438 2225.01660 2230.98804
2276.0 0.000439 2225.11523 2231.31079
2237.0 0.000447 2225.21240 2231.67847
2270.0 0.000441 2225.30859 2232.10986
2164.0 0.000462 2225.40356 2232.63135
2191.0 0.000456 2225.49731 2233.28589
2257.0 0.000443 2225.58960 2234.13379
2229.0 0.000449 2225.68066 2238.06201
2301.0 0.000435 2225.77051 2239.59302
2235.0 0.000447 2225.85913 2241.59131
2188.0 0.000457 2225.94653 2244.12500
2223.0 0.000450 2226.03223 2247.18408
2267.0 0.000441 2226.11670 2250.57690
2356.0 0.000424 2226.19995 2253.74707
2197.0 0.000455 2226.28174 2255.81372
2220.0 0.000450 2226.36206 2255.93970
2284.0 0.000438 2226.44116 2254.18799
2221.0 0.000450 2226.51855 2251.43799
2212.0 0.000452 2226.59473 2248.57617
2089.0 0.000479 2226.66943 2246.08911
2151.0 0.000465 2226.74268 2244.13989
2270.0 0.000441 2226.81445 2242.72681
2176.0 0.000460 2226.88477 2241.77393
2272.0 0.000440 2226.95337 2241.18701
2176.0 0.000460 2227.02075 2240.87207
2309.0 0.000433 2227.08643 2240.75439
2273.0 0.000440 2227.15063 2240.77686
2190.0 0.000457 2227.21338 2240.90259
2159.0 0.000463 2227.27466 2241.10840
2174.0 0.000460 2227.33423 2241.38257
2251.0 0.000444 2227.39209 2241.72046
2291.0 0.000436 2227.44873 2242.12207
2198.0 0.000455 2227.50366 2242.59131
2194.0 0.000456 2227.55688 2243.13428
2281.0 0.000438 2227.60864 2243.76270
2246.0 0.000445 2227.65894 2244.46265
2234.0 0.000448 2227.70752 2245.22974
2210.0 0.000452 2227.75439 2246.03125
2336.0 0.000428 2227.79980 2246.80713
2287.0 0.000437 2227.84351 2247.50757
2235.0 0.000447 2227.88574 2248.14307
2329.0 0.000429 2227.92627 2248.78345
2264.0 0.000442 2227.96509 2249.49976
2146.0 0.000466 2228.00244 2249.92944
2274.0 0.000440 2228.03809 2250.92358
2187.0 0.000457 2228.07202 2252.08765
2265.0 0.000442 2228.10449 2253.44214
2173.0 0.000460 2228.13525 2255.01758
2264.0 0.000442 2228.16455 2256.85938
2243.0 0.000446 2228.19214 2259.00659
2227.0 0.000449 2228.21802 2261.63184
2337.0 0.000428 2228.24219 2264.87061
2217.0 0.000451 2228.26489 2268.96265
2156.0 0.000464 2228.28589 2274.23145
2299.0 0.000435 2228.30542 2281.06909
2348.0 0.000426 2228.32324 2289.89795
2355.0 0.000425 2228.33936 2301.07886
2294.0 0.000436 2228.35400 2314.74414
2433.0 0.000411 2228.36694 2330.68286
2363.0 0.000423 2228.37842 2346.86523
2315.0 0.000432 2228.38818 2360.38379
2462.0 0.000406 2228.39648 2367.89551
2353.0 0.000425 2228.40308 2369.01465
2358.0 0.000424 2228.40820 2367.27148
2399.0 0.000417 2228.41162 2367.39380
2428.0 0.000412 2228.41357 2373.16235
2447.0 0.000409 2228.41382 2387.38452
2378.0 0.000421 2228.41260 2412.42212
2435.0 0.000411 2228.40991 2450.32153
2565.0 0.000390 2228.40576 2502.42334
2600.0 0.000385 2228.39990 2568.28101
2676.0 0.000374 2228.39258 2643.33350
2802.0 0.000357 2228.38379 2715.10132
2879.0 0.0003473 2228.37354 2761.77979
2828.0 0.000354 2228.36182 2762.76758
2736.0 0.000365 2228.34863 2717.48877
2609.0 0.000383 2228.33398 2645.92285
2612.0 0.000383 2228.31787 2569.93921
2414.0 0.000414 2228.30029 2502.15430
2449.0 0.000408 2228.28149 2447.02954
2348.0 0.000426 2228.26123 2404.74829
2393.0 0.000418 2228.23950 2373.65039
2296.0 0.000436 2228.21631 2351.46191
2289.0 0.000437 2228.19189 2335.93433
2330.0 0.000429 2228.16602 2325.65332
2298.0 0.000435 2228.13892 2318.21240
2303.0 0.000434 2228.11035 2313.08789
2283.0 0.000438 2228.08081 2309.62720
2287.0 0.000437 2228.04956 2307.41382
2313.0 0.000432 2228.01733 2306.19189
2271.0 0.000440 2227.98389 2305.79883
2267.0 0.000441 2227.94922 2306.13354
2321.0 0.000431 2227.91309 2307.13477
2313.0 0.000432 2227.87598 2308.76831
2376.0 0.000421 2227.83765 2311.02466
2285.0 0.000438 2227.79834 2313.91382
2344.0 0.000427 2227.75757 2317.46436
2317.0 0.000432 2227.71582 2321.72388
2360.0 0.000424 2227.67310 2326.76196
2334.0 0.000428 2227.62915 2332.67212
2318.0 0.000431 2227.58423 2339.57593
2455.0 0.000407 2227.53833 2347.63306
2429.0 0.000412 2227.49146 2357.04663
2376.0 0.000421 2227.44336 2368.08130
2300.0 0.000435 2227.39453 2381.08862
2397.0 0.000417 2227.34473 2396.54468
2419.0 0.000413 2227.29395 2415.12573
2350.0 0.000426 2227.24243 2437.83447
2499.0 0.000400 2227.18970 2466.20068
2521.0 0.000397 2227.13647 2502.58545
2525.0 0.000396 2227.08228 2550.56201
2720.0 0.000368 2227.02734 2615.27612
2775.0 0.000360 2226.97144 2703.61719
2809.0 0.000356 2226.91504 2823.93433
3048.0 0.0003281 2226.85791 2985.05615
3307.0 0.0003024 2226.79980 3194.26953
3576.0 0.0002796 2226.74121 3453.40430
3731.0 0.0002680 2226.68213 3750.98901
3964.0 0.0002523 2226.62207 4048.49170
4157.0 0.0002406 2226.56177 4270.31592
4304.0 0.0002323 2226.50073 4331.14258
4432.0 0.0002256 2226.43921 4207.36475
4079.0 0.0002452 2226.37695 3962.47681
3762.0 0.0002658 2226.31445 3684.97168
3644.0 0.0002744 2226.25146 3433.27002
3237.0 0.0003089 2226.18799 3231.82642
3015.0 0.0003317 2226.12427 3085.86670
2999.0 0.0003334 2226.06006 2992.61865
2895.0 0.0003454 2225.99536 2947.35718
2979.0 0.0003357 2225.93042 2946.82495
2826.0 0.000354 2225.86523 2991.33569
3009.0 0.0003323 2225.79980 3085.80127
3213.0 0.0003112 2225.73413 3239.52905
3379.0 0.0002959 2225.66821 3464.64111
3726.0 0.0002684 2225.60229 3772.82788
4259.0 0.0002348 2225.53589 4169.51611
4858.0 0.0002058 2225.46973 4642.54834
5295.0 0.0001889 2225.40332 5141.13818
5685.0 0.0001759 2225.33667 5552.57080
5782.0 0.0001730 2225.27026 5723.59424
5706.0 0.0001753 2225.20386 5569.69336
5357.0 0.0001867 2225.13721 5161.07520
4796.0 0.0002085 2225.07080 4649.61621
4291.0 0.0002330 2225.00439 4154.05859
3906.0 0.0002560 2224.93823 3729.97559
3525.0 0.0002837 2224.87231 3391.44263
3174.0 0.0003151 2224.80640 3132.92310
2914.0 0.0003432 2224.74072 2941.21655
2749.0 0.000364 2224.67529 2801.23340
2667.0 0.000375 2224.61011 2699.11328
2604.0 0.000384 2224.54517 2623.63354
2568.0 0.000389 2224.48047 2566.52173
2519.0 0.000397 2224.41650 2522.08911
2463.0 0.000406 2224.35254 2486.59375
2429.0 0.000412 2224.28931 2457.61230
2363.0 0.000423 2224.22632 2433.67041
2413.0 0.000414 2224.16382 2413.47778
2302.0 0.000434 2224.10181 2396.39185
2429.0 0.000412 2224.04053 2381.86694
2350.0 0.000426 2223.97949 2369.50269
2335.0 0.000428 2223.91919 2358.99438
2357.0 0.000424 2223.85962 2350.11035
2342.0 0.000427 2223.80078 2342.65796
2384.0 0.000419 2223.74243 2336.44580
2351.0 0.000425 2223.68481 2331.23340
2337.0 0.000428 2223.62793 2326.66504
2354.0 0.000425 2223.57178 2322.22925
2288.0 0.000437 2223.51660 2317.58423
2253.0 0.000444 2223.46216 2312.76831
2370.0 0.000422 2223.40869 2308.11255
2411.0 0.000415 2223.35596 2303.92188
2332.0 0.000429 2223.30420 2300.35327
2313.0 0.000432 2223.25317 2297.44971
2279.0 0.000439 2223.20337 2295.20508
2369.0 0.000422 2223.15454 2293.60229
2321.0 0.000431 2223.10669 2292.63623
2278.0 0.000439 2223.05981 2292.35449
2208.0 0.000453 2223.01416 2292.76074
2308.0 0.000433 2222.96948 2294.01123
2263.0 0.000442 2222.92603 2296.33032
2333.0 0.000429 2222.88379 2300.08057
2302.0 0.000434 2222.84253 2305.80859
2346.0 0.000426 2222.80273 2314.28003
2206.0 0.000453 2222.76392 2326.47241
2434.0 0.000411 2222.72656 2343.52734
2317.0 0.000432 2222.69043 2366.44995
2408.0 0.000415 2222.65552 2396.13843
2462.0 0.000406 2222.62207 2431.74731
2480.0 0.000403 2222.59009 2470.52051
2438.0 0.000410 2222.55933 2505.25684
2523.0 0.000396 2222.53003 2524.30518
2558.0 0.000391 2222.50220 2519.25610
2514.0 0.000398 2222.47559 2492.58838
2459.0 0.000407 2222.45068 2455.16748
2484.0 0.000403 2222.42725 2417.29199
2455.0 0.000407 2222.40527 2384.30542
2442.0 0.000410 2222.38501 2357.96094
2415.0 0.000414 2222.36621 2338.17505
2373.0 0.000421 2222.34888 2324.11768
2258.0 0.000443 2222.33325 2314.74585
2352.0 0.000425 2222.31934 2309.08301
2271.0 0.000440 2222.30713 2306.36426
2251.0 0.000444 2222.29639 2306.09399
2331.0 0.000429 2222.28735 2308.06714
2347.0 0.000426 2222.28003 2312.36621
2305.0 0.000434 2222.27466 2318.97852
2373.0 0.000421 2222.27075 2329.47144
2272.0 0.000440 2222.26880 2344.57617
2289.0 0.000437 2222.26855 2365.84204
2362.0 0.000423 2222.27002 2395.15112
2408.0 0.000415 2222.27344 2434.61792
2434.0 0.000411 2222.27881 2486.36475
2582.0 0.000387 2222.28564 2551.72583
2622.0 0.000381 2222.29468 2629.34790
2674.0 0.000374 2222.30542 2711.75928
2708.0 0.000369 2222.31812 2781.54395
2760.0 0.000362 2222.33276 2813.98755
2713.0 0.000369 2222.34912 2793.66626
2693.0 0.000371 2222.36768 2729.68188
2629.0 0.000380 2222.38794 2646.26514
2498.0 0.000400 2222.41016 2563.73608
2473.0 0.000404 2222.43457 2492.17236
2404.0 0.000416 2222.46094 2434.45190
2271.0 0.000440 2222.48901 2389.95215
2311.0 0.000433 2222.51929 2356.64990
2374.0 0.000421 2222.55151 2332.26367
2269.0 0.000441 2222.58594 2314.28564
2297.0 0.000435 2222.62207 2300.96411
2306.0 0.000434 2222.66064 2290.88989
2264.0 0.000442 2222.70093 2283.07422
2278.0 0.000439 2222.74341 2276.85303
2273.0 0.000440 2222.78784 2271.79639
2242.0 0.000446 2222.83423 2267.61743
2324.0 0.000430 2222.88281 2264.12549
2239.0 0.000447 2222.93359 2261.18628
2232.0 0.000448 2222.98633 2258.70581
2175.0 0.000460 2223.04126 2256.61401
2326.0 0.000430 2223.09814 2254.86279
2288.0 0.000437 2223.15698 2253.42383
2223.0 0.000450 2223.21802 2252.28003
2303.0 0.000434 2223.28125 2251.42676
2271.0 0.000440 2223.34668 2250.86621
2241.0 0.000446 2223.41406 2250.59644
2222.0 0.000450 2223.48340 2250.60083
2272.0 0.000440 2223.55493 2250.81445
2280.0 0.000439 2223.62866 2251.08423
2296.0 0.000436 2223.70435 2251.15234
2284.0 0.000438 2223.78198 2250.77002
2211.0 0.000452 2223.86206 2249.91162
2259.0 0.000443 2223.94385 2248.79565
2217.0 0.000451 2224.02808 2247.68359
2297.0 0.000435 2224.11401 2246.73486
2276.0 0.000439 2224.20239 2244.41235
2230.0 0.000448 2224.29248 2243.95435
2220.0 0.000450 2224.38477 2243.72534
2299.0 0.000435 2224.47925 2243.71118
2233.0 0.000448 2224.57568 2243.90063
2222.0 0.000450 2224.67407 2244.30566
2254.0 0.000444 2224.77466 2244.88940
2208.0 0.000453 2224.87720 2245.67554
2292.0 0.000436 2224.98169 2246.67725
2312.0 0.000433 2225.08813 2247.92139
2296.0 0.000436 2225.19653 2249.48511
2341.0 0.000427 2225.30713 2251.53052
2231.0 0.000448 2225.41943 2254.30005
2262.0 0.000442 2225.53394 2258.09229
2273.0 0.000440 2225.65039 2263.22876
2266.0 0.000441 2225.76880 2270.02344
2206.0 0.000453 2225.88892 2278.69629
2167.0 0.000461 2226.01099 2289.21167
2301.0 0.000435 2226.13501 2300.93066
2182.0 0.000458 2226.26099 2309.28027
2302.0 0.000434 2226.38867 2316.99292
2287.0 0.000437 2226.51831 2318.35645
2259.0 0.000443 2226.64990 2313.42749
2273.0 0.000440 2226.78296 2305.00781
2244.0 0.000446 2226.91821 2296.27637
2266.0 0.000441 2227.05493 2289.25464
2270.0 0.000441 2227.19360 2284.90454
2311.0 0.000433 2227.33398 2283.65820
2217.0 0.000451 2227.47583 2285.76294
2293.0 0.000436 2227.61963 2291.42334
2300.0 0.000435 2227.76514 2300.79321
2243.0 0.000446 2227.91235 2313.83984
2412.0 0.000415 2228.06104 2330.02417
2378.0 0.000421 2228.21143 2347.51001
2345.0 0.000426 2228.36328 2362.51880
2345.0 0.000426 2228.51685 2369.84839
2332.0 0.000429 2228.67188 2366.34375
2385.0 0.000419 2228.82861 2353.97412
2404.0 0.000416 2228.98682 2337.86719
2312.0 0.000433 2229.14624 2322.37451
2304.0 0.000434 2229.30737 2309.70898
2284.0 0.000438 2229.46997 2300.56128
2333.0 0.000429 2229.63379 2294.62451
2302.0 0.000434 2229.79907 2291.19189
2239.0 0.000447 2229.96558 2289.12451
2230.0 0.000448 2230.13354 2287.48560
2297.0 0.000435 2230.30273 2285.35352
2292.0 0.000436 2230.47339 2283.35718
2332.0 0.000429 2230.64502 2282.06470
2321.0 0.000431 2230.81812 2282.06665
2251.0 0.000444 2230.99219 2283.67651
2199.0 0.000455 2231.16748 2287.07739
2294.0 0.000436 2231.34399 2292.37036
2316.0 0.000432 2231.52148 2299.53198
2403.0 0.000416 2231.70020 2308.28516
2284.0 0.000438 2231.87988 2317.93896
2290.0 0.000437 2232.06055 2327.62427
2331.0 0.000429 2232.24219 2337.26514
2416.0 0.000414 2232.42480 2348.39160
2326.0 0.000430 2232.60815 2363.55640
2359.0 0.000424 2232.79248 2385.17822
2397.0 0.000417 2232.97778 2414.89624
2415.0 0.000414 2233.16382 2453.11084
2455.0 0.000407 2233.35059 2498.04150
2499.0 0.000400 2233.53833 2544.38525
2535.0 0.000394 2233.72656 2583.20532
2576.0 0.000388 2233.91553 2605.57568
2509.0 0.000399 2234.10522 2608.42700
2484.0 0.000403 2234.29565 2594.64307
2533.0 0.000395 2234.48633 2567.21777
2475.0 0.000404 2234.67798 2528.07495
2487.0 0.000402 2234.86987 2482.62207
2372.0 0.000422 2235.06226 2437.52002
2462.0 0.000406 2235.25513 2397.74902
2436.0 0.000411 2235.44849 2365.20020
2372.0 0.000422 2235.64209 2339.73877
2417.0 0.000414 2235.83618 2320.36011
2388.0 0.000419 2236.03052 2305.83960
2320.0 0.000431 2236.22510 2295.02393
2325.0 0.000430 2236.42017 2286.94800
2345.0 0.000426 2236.61523 2280.85913
2282.0 0.000438 2236.81055 2276.25659
2291.0 0.000436 2237.00586 2272.65723
2261.0 0.000442 2237.20142 2269.84741
2328.0 0.000430 2237.39697 2267.65112
2272.0 0.000440 2237.59253 2265.95117
2238.0 0.000447 2237.78809 2264.67017
2232.0 0.000448 2237.98364 2263.75610
2269.0 0.000441 2238.17920 2263.18018
2344.0 0.000427 2238.37451 2262.92529
2272.0 0.000440 2238.56982 2262.99121
2276.0 0.000439 2238.76489 2263.41260
2249.0 0.000445 2238.95996 2264.23364
2285.0 0.000438 2239.15454 2265.54565
2274.0 0.000440 2239.34888 2267.48975
2219.0 0.000451 2239.54272 2270.29004
2352.0 0.000425 2239.73633 2273.76318
2264.0 0.000442 2239.92969 2279.30786
2313.0 0.000432 2240.12256 2286.91040
2291.0 0.000436 2240.31494 2297.08203
2370.0 0.000422 2240.50684 2310.27588
2382.0 0.000420 2240.69849 2326.52612
2445.0 0.000409 2240.88916 2345.17285
2390.0 0.000418 2241.07935 2363.91162
2468.0 0.000405 2241.26904 2378.21338
2419.0 0.000413 2241.45801 2382.74878
2449.0 0.000408 2241.64624 2375.44116
2392.0 0.000418 2241.83374 2359.53345
2418.0 0.000414 2242.02051 2340.46924
2413.0 0.000414 2242.20654 2322.24341
2316.0 0.000432 2242.39160 2306.68188
2411.0 0.000415 2242.57593 2294.21606
2198.0 0.000455 2242.75952 2284.63135
2302.0 0.000434 2242.94189 2277.46484
2279.0 0.000439 2243.12354 2272.19946
2283.0 0.000438 2243.30420 2268.35913
2340.0 0.000427 2243.48364 2265.55127
2285.0 0.000438 2243.66235 2263.47998
2266.0 0.000441 2243.83984 2261.93506
2268.0 0.000441 2244.01611 2260.77466
2340.0 0.000427 2244.19141 2259.90723
2357.0 0.000424 2244.36548 2259.27100
2262.0 0.000442 2244.53833 2258.82764
2334.0 0.000428 2244.70996 2258.55103
2265.0 0.000442 2244.88062 2258.43042
2239.0 0.000447 2245.04980 2258.46265
2242.0 0.000446 2245.21777 2258.65015
2295.0 0.000436 2245.38428 2259.02612
2255.0 0.000443 2245.54956 2259.62085
2294.0 0.000436 2245.71338 2260.48853
2277.0 0.000439 2245.87573 2261.69775
2236.0 0.000447 2246.03687 2264.91699
2211.0 0.000452 2246.19653 2267.05518
2270.0 0.000441 2246.35474 2269.73169
2244.0 0.000446 2246.51123 2272.90332
2278.0 0.000439 2246.66650 2276.34058
2276.0 0.000439 2246.82007 2279.50098
2295.0 0.000436 2246.97217 2281.58032
2342.0 0.000427 2247.12256 2282.01050
2327.0 0.000430 2247.27148 2281.00513
2284.0 0.000438 2247.41870 2279.38818
2220.0 0.000450 2247.56445 2277.97021
2268.0 0.000441 2247.70850 2277.26831
2301.0 0.000435 2247.85059 2277.56982
2318.0 0.000431 2247.99121 2279.06812
2231.0 0.000448 2248.13013 2281.93506
2268.0 0.000441 2248.26733 2286.34546
2212.0 0.000452 2248.40283 2292.43896
2267.0 0.000441 2248.53662 2300.24146
2364.0 0.000423 2248.66846 2309.46069
2241.0 0.000446 2248.79858 2319.12378
2322.0 0.000431 2248.92700 2327.23828
2246.0 0.000445 2249.05371 2331.18677
2254.0 0.000444 2249.17847 2329.78027
2284.0 0.000438 2249.30127 2324.16284
2304.0 0.000434 2249.42236 2316.95581
2300.0 0.000435 2249.54175 2310.33179
2183.0 0.000458 2249.65894 2305.44214
2335.0 0.000428 2249.77441 2303.95898
2305.0 0.000434 2249.88818 2303.43359
2259.0 0.000443 2249.99976 2304.93823
2262.0 0.000442 2250.10986 2308.10327
2260.0 0.000442 2250.21777 2312.26172
2314.0 0.000432 2250.32373 2316.46924
2204.0 0.000454 2250.42798 2319.98047
2326.0 0.000430 2250.53027 2322.99316
2330.0 0.000429 2250.63062 2326.70776
2289.0 0.000437 2250.72925 2332.52222
2332.0 0.000429 2250.82568 2341.98120
2281.0 0.000438 2250.92041 2356.05103
2339.0 0.000428 2251.01294 2375.55200
2392.0 0.000418 2251.10376 2402.87720
2346.0 0.000426 2251.19287 2433.33325
2515.0 0.000398 2251.27979 2467.18799
2500.0 0.000400 2251.36475 2501.70972
2497.0 0.000400 2251.44800 2532.90259
2431.0 0.000411 2251.52930 2554.21558
2427.0 0.000412 2251.60864 2557.98267
2563.0 0.000390 2251.68628 2541.32275
2451.0 0.000408 2251.76196 2509.01587
2397.0 0.000417 2251.83569 2469.74121
2397.0 0.000417 2251.90771 2430.98608
2422.0 0.000413 2251.97778 2396.97461
2382.0 0.000420 2252.04590 2369.15869
2356.0 0.000424 2252.11230 2347.34058
2397.0 0.000417 2252.17700 2330.70459
2377.0 0.000421 2252.23975 2318.22437
2296.0 0.000436 2252.30078 2308.91919
2306.0 0.000434 2252.35986 2301.92896
2287.0 0.000437 2252.41724 2296.66235
2308.0 0.000433 2252.47290 2292.61792
2334.0 0.000428 2252.52686 2289.46387
2186.0 0.000457 2252.57910 2286.97559
2275.0 0.000440 2252.62964 2285.00220
2229.0 0.000449 2252.67847 2283.43848
2194.0 0.000456 2252.72559 2282.21997
2270.0 0.000441 2252.77124 2281.25830
2300.0 0.000435 2252.81519 2280.58984
2307.0 0.000433 2252.85742 2279.96484
2306.0 0.000434 2252.89819 2279.78320
2323.0 0.000430 2252.93726 2279.85425
2323.0 0.000430 2252.97485 2280.05933
2270.0 0.000441 2253.01099 2280.74878
2343.0 0.000427 2253.04541 2281.85400
2253.0 0.000444 2253.07861 2283.51050
2219.0 0.000451 2253.11035 2285.80737
2217.0 0.000451 2253.14063 2288.91406
2326.0 0.000430 2253.16943 2292.96021
2238.0 0.000447 2253.19702 2298.02979
2308.0 0.000433 2253.22314 2304.10791
2318.0 0.000431 2253.24805 2310.90601
2342.0 0.000427 2253.27173 2317.54028
2265.0 0.000442 2253.29419 2322.34863
2336.0 0.000428 2253.31519 2323.52539
2279.0 0.000439 2253.33521 2320.55103
2337.0 0.000428 2253.35400 2314.71606
2321.0 0.000431 2253.37183 2307.92847
2336.0 0.000428 2253.38843 2301.54248
2290.0 0.000437 2253.40405 2296.16113
2331.0 0.000429 2253.41870 2291.91870
2419.0 0.000413 2253.43213 2288.73193
2297.0 0.000435 2253.44482 2286.43701
2372.0 0.000422 2253.45654 2284.85327
2357.0 0.000424 2253.46753 2283.81641
2235.0 0.000447 2253.47754 2283.18945
2229.0 0.000449 2253.48657 2282.86865
2271.0 0.000440 2253.49512 2282.78052
2291.0 0.000436 2253.50293 2282.87476
2233.0 0.000448 2253.51001 2283.11938
2272.0 0.000440 2253.51636 2283.49512
2283.0 0.000438 2253.52222 2283.98828
2306.0 0.000434 2253.52759 2284.72339
2255.0 0.000443 2253.53223 2285.44238
2268.0 0.000441 2253.53662 2286.27393
2363.0 0.000423 2253.54028 2287.22510
2229.0 0.000449 2253.54370 2288.30615
2343.0 0.000427 2253.54688 2289.53125
2321.0 0.000431 2253.54956 2290.80200
2251.0 0.000444 2253.55200 2292.39697
2284.0 0.000438 2253.55420 2294.23755
2330.0 0.000429 2253.55640 2296.38940
2348.0 0.000426 2253.55835 2298.93872
2295.0 0.000436 2253.56006 2301.99365
2278.0 0.000439 2253.56177 2305.68286
2275.0 0.000440 2253.56348 2310.14917
2410.0 0.000415 2253.56543 2316.75854
2299.0 0.000435 2253.56714 2323.23413
2417.0 0.000414 2253.56934 2330.77979
2347.0 0.000426 2253.57153 2339.08398
2480.0 0.000403 2253.57373 2347.24634
2376.0 0.000421 2253.57642 2353.71362
2438.0 0.000410 2253.57935 2356.97485
2391.0 0.000418 2253.58276 2356.81641
2382.0 0.000420 2253.58643 2354.55396
2363.0 0.000423 2253.59058 2351.90063
2379.0 0.000420 2253.59521 2350.02075
2326.0 0.000430 2253.60034 2349.44482
2362.0 0.000423 2253.60620 2350.32544
2428.0 0.000412 2253.61255 2352.65186
2382.0 0.000420 2253.61938 2356.36426
2348.0 0.000426 2253.62720 2361.41138
2347.0 0.000426 2253.63574 2367.77856
2371.0 0.000422 2253.64526 2375.50635
2381.0 0.000420 2253.65527 2384.70410
2396.0 0.000417 2253.66650 2395.55762
2398.0 0.000417 2253.67847 2408.34692
2421.0 0.000413 2253.69165 2423.46875
2406.0 0.000416 2253.70557 2441.48584
2488.0 0.000402 2253.72070 2463.20703
2505.0 0.000399 2253.73706 2489.79150
2585.0 0.000387 2253.75464 2523.00635
2575.0 0.000388 2253.77319 2565.33765
2730.0 0.000366 2253.79321 2620.31055
2845.0 0.000351 2253.81445 2692.64526
2980.0 0.0003356 2253.83691 2788.26514
2914.0 0.0003432 2253.86084 2913.99951
3131.0 0.0003194 2253.88623 3076.79785
3380.0 0.0002959 2253.91333 3282.08691
3503.0 0.0002855 2253.94165 3530.27539
3712.0 0.0002694 2253.97168 3809.60596
3754.0 0.0002664 2254.00317 4084.77783
3850.0 0.0002597 2254.03638 4290.45459
4049.0 0.0002470 2254.07129 4353.87109
4072.0 0.0002456 2254.10767 4249.32275
4132.0 0.0002420 2254.14624 4022.64697
3967.0 0.0002521 2254.18628 3749.53540
3781.0 0.0002645 2254.22827 3486.67407
3485.0 0.0002869 2254.27222 3260.98267
3237.0 0.0003089 2254.31787 3079.57715
3104.0 0.0003222 2254.36548 2940.13062
2973.0 0.0003364 2254.41528 2836.70313
2807.0 0.000356 2254.46704 2762.51221
2706.0 0.000370 2254.52075 2711.27637
2585.0 0.000387 2254.57666 2677.84399
2634.0 0.000380 2254.63452 2658.44067
2690.0 0.000372 2254.69458 2650.64355
2565.0 0.000390 2254.75708 2653.38354
2542.0 0.000393 2254.82153 2666.71753
2707.0 0.000369 2254.88818 2691.88525
2634.0 0.000380 2254.95728 2731.29517
2686.0 0.000372 2255.02881 2788.51099
2782.0 0.000359 2255.10229 2868.10938
2921.0 0.0003423 2255.17847 2975.30469
3119.0 0.0003206 2255.25684 3115.14111
3182.0 0.0003143 2255.33765 3290.83374
3510.0 0.0002849 2255.42090 3500.20044
3672.0 0.0002723 2255.50659 3729.08472
3962.0 0.0002524 2255.59497 3942.43286
4177.0 0.0002394 2255.68579 4085.59180
4041.0 0.0002475 2255.77881 4112.59473
4082.0 0.0002450 2255.87476 4027.01147
3923.0 0.0002549 2255.97314 3880.20117
3773.0 0.0002650 2256.07397 3731.76563
3700.0 0.0002703 2256.17749 3622.41968
3614.0 0.0002767 2256.28369 3573.61426
3565.0 0.0002805 2256.39258 3595.90308
3751.0 0.0002666 2256.50391 3694.60962
3800.0 0.0002632 2256.61792 3871.19702
4130.0 0.0002421 2256.73486 4120.40332
4350.0 0.0002299 2256.85425 4421.93311
4809.0 0.0002079 2256.97632 4726.67773
4840.0 0.0002066 2257.10107 4949.54248
4899.0 0.0002041 2257.22876 4998.58887
4796.0 0.0002085 2257.35889 4841.94873
4494.0 0.0002225 2257.49194 4536.31445
4249.0 0.0002353 2257.62769 4174.71973
4011.0 0.0002493 2257.76611 3827.12231
3667.0 0.0002727 2257.90723 3526.74927
3368.0 0.0002969 2258.05103 3282.26392
3241.0 0.0003085 2258.19751 3090.52637
3065.0 0.0003263 2258.34692 2943.76123
2858.0 0.0003499 2258.49902 2832.87500
2698.0 0.000371 2258.65356 2748.93921
2777.0 0.000360 2258.81104 2683.99316
2634.0 0.000380 2258.97119 2631.81860
2564.0 0.000390 2259.13403 2588.48340
2508.0 0.000399 2259.29956 2551.97217
2444.0 0.000409 2259.46777 2521.19702
2533.0 0.000395 2259.63892 2495.33301
2479.0 0.000403 2259.81226 2473.63403
2476.0 0.000404 2259.98853 2455.44116
2430.0 0.000412 2260.16724 2440.19336
2388.0 0.000419 2260.34888 2427.40381
2475.0 0.000404 2260.53271 2416.64380
2349.0 0.000426 2260.71924 2407.50952
2410.0 0.000415 2260.90845 2399.59937
2322.0 0.000431 2261.10010 2392.78931
2324.0 0.000430 2261.29419 2386.99365
2409.0 0.000415 2261.49072 2382.30347
2394.0 0.000418 2261.68994 2378.81958
2457.0 0.000407 2261.89136 2376.59009
2353.0 0.000425 2262.09521 2375.57715
2325.0 0.000430 2262.30151 2375.57983
2459.0 0.000407 2262.51001 2376.09937
2361.0 0.000424 2262.72095 2376.24487
2361.0 0.000424 2262.93408 2374.98633
2313.0 0.000432 2263.14941 2371.85205
2359.0 0.000424 2263.36719 2367.31470
2422.0 0.000413 2263.58691 2362.35986
2397.0 0.000417 2263.80884 2357.78662
2469.0 0.000405 2264.03271 2354.00244
2336.0 0.000428 2264.25879 2351.13354
2323.0 0.000430 2264.48657 2349.16895
2335.0 0.000428 2264.71680 2348.04785
2365.0 0.000423 2264.94849 2347.69971
2306.0 0.000434 2265.18237 2348.06958
2333.0 0.000429 2265.41772 2349.12671
2298.0 0.000435 2265.65527 2350.87061
2302.0 0.000434 2265.89429 2353.87720
2314.0 0.000432 2266.13477 2357.17627
2310.0 0.000433 2266.37720 2361.44214
2345.0 0.000426 2266.62109 2366.89331
2340.0 0.000427 2266.86646 2373.83911
2455.0 0.000407 2267.11328 2382.68823
2399.0 0.000417 2267.36157 2393.94604
2428.0 0.000412 2267.61133 2408.19922
2367.0 0.000422 2267.86206 2426.06128
2403.0 0.000416 2268.11426 2448.05469
2514.0 0.000398 2268.36743 2474.35986
2481.0 0.000403 2268.62183 2504.29224
2495.0 0.000401 2268.87720 2535.53027
2489.0 0.000402 2269.13354 2563.79834
2550.0 0.000392 2269.39087 2584.68848
2640.0 0.000379 2269.64893 2597.58130
2517.0 0.000397 2269.90771 2607.34668
2484.0 0.000403 2270.16724 2621.54053
2563.0 0.000390 2270.42749 2647.14917
2557.0 0.000391 2270.68823 2689.81274
2708.0 0.000369 2270.94971 2754.39233
2753.0 0.000363 2271.21143 2845.97144
3050.0 0.0003279 2271.47339 2966.95020
3059.0 0.0003269 2271.73584 3119.26245
3435.0 0.0002911 2271.99829 3298.28394
3513.0 0.0002847 2272.26099 3486.90601
3569.0 0.0002802 2272.52368 3648.81152
3681.0 0.0002717 2272.78638 3733.79321
3735.0 0.0002677 2273.04907 3706.92676
3615.0 0.0002766 2273.31152 3578.59961
3484.0 0.0002870 2273.57373 3394.71289
3253.0 0.0003074 2273.83545 3201.35327
3067.0 0.0003261 2274.09692 3025.76270
2874.0 0.0003479 2274.35791 2878.23779
2801.0 0.000357 2274.61841 2759.79541
2664.0 0.000375 2274.87793 2667.28833
2607.0 0.000384 2275.13696 2596.25073
2550.0 0.000392 2275.39526 2542.11938
2489.0 0.000402 2275.65259 2500.82104
2417.0 0.000414 2275.90894 2469.01733
2422.0 0.000413 2276.16406 2444.14380
2432.0 0.000411 2276.41821 2424.32349
2441.0 0.000410 2276.67114 2408.23022
2367.0 0.000422 2276.92261 2394.94067
2383.0 0.000420 2277.17285 2383.81006
2281.0 0.000438 2277.42163 2374.38110
2344.0 0.000427 2277.66870 2366.32056
2360.0 0.000424 2277.91431 2359.37793
2382.0 0.000420 2278.15820 2353.35864
2387.0 0.000419 2278.40015 2348.11035
2398.0 0.000417 2278.64014 2343.51099
2361.0 0.000424 2278.87817 2339.46167
2450.0 0.000408 2279.11426 2335.88135
2310.0 0.000433 2279.34814 2332.70459
2294.0 0.000436 2279.57983 2329.87451
2227.0 0.000449 2279.80908 2327.34570
2362.0 0.000423 2280.03613 2325.07959
2279.0 0.000439 2280.26050 2323.04346
2372.0 0.000422 2280.48267 2321.20874
2293.0 0.000436 2280.70166 2319.55249
2262.0 0.000442 2280.91821 2318.05664
2299.0 0.000435 2281.13208 2316.69897
2307.0 0.000433 2281.34277 2315.46631
2338.0 0.000428 2281.55078 2314.34644
2316.0 0.000432 2281.75562 2311.71973
2296.0 0.000436 2281.95728 2310.81250
2281.0 0.000438 2282.15576 2309.98608
2433.0 0.000411 2282.35107 2309.23364
2326.0 0.000430 2282.54297 2308.54858
2378.0 0.000421 2282.73120 2307.92407
2307.0 0.000433 2282.91626 2307.35522
2302.0 0.000434 2283.09741 2306.83862
2298.0 0.000435 2283.27515 2306.36816
2341.0 0.000427 2283.44897 2305.94043
2394.0 0.000418 2283.61914 2305.55469
2355.0 0.000425 2283.78540 2305.22266
2319.0 0.000431 2283.94751 2304.90869
2318.0 0.000431 2284.10596 2304.62622
2265.0 0.000442 2284.26001 2304.37524
2302.0 0.000434 2284.41016 2304.15332
2304.0 0.000434 2284.55591 2303.95874
2198.0 0.000455 2284.69751 2303.79297
2302.0 0.000434 2284.83472 2303.65283
2281.0 0.000438 2284.96753 2303.54053
2288.0 0.000437 2285.09570 2303.45532
2342.0 0.000427 2285.21948 2303.39990
2292.0 0.000436 2285.33887 2303.37646
2212.0 0.000452 2285.45337 2303.39087
2318.0 0.000431 2285.56323 2303.45581
2325.0 0.000430 2285.66846 2303.56714
2288.0 0.000437 2285.76880 2303.74219
2354.0 0.000425 2285.86426 2302.74097
2342.0 0.000427 2285.95483 2303.09839
2309.0 0.000433 2286.04053 2303.55542
2331.0 0.000429 2286.12109 2304.10913
2276.0 0.000439 2286.19678 2304.73291
2301.0 0.000435 2286.26733 2305.47778
2235.0 0.000447 2286.33276 2305.96606
2262.0 0.000442 2286.39307 2306.25342
2292.0 0.000436 2286.44824 2306.15015
2283.0 0.000438 2286.49829 2305.81250
2290.0 0.000437 2286.54297 2305.38721
2327.0 0.000430 2286.58228 2304.98877
2400.0 0.000417 2286.61646 2304.67896
2295.0 0.000436 2286.64526 2302.38672
2376.0 0.000421 2286.66870 2302.30859
2324.0 0.000430 2286.68677 2302.32178
2291.0 0.000436 2286.69946 2302.41699
2307.0 0.000433 2286.70679 2302.58057
2298.0 0.000435 2286.70850 2302.80542
2301.0 0.000435 2286.70508 2303.08325
2276.0 0.000439 2286.69604 2303.41113
2315.0 0.000432 2286.68164 2303.78735
2271.0 0.000440 2286.66162 2304.22339
2260.0 0.000442 2286.63623 2304.69678
2327.0 0.000430 2286.60547 2305.22241
2354.0 0.000425 2286.56909 2305.78320
2332.0 0.000429 2286.52734 2306.42651
2287.0 0.000437 2286.48022 2307.13770
2355.0 0.000425 2286.42749 2307.92261
2380.0 0.000420 2286.36938 2308.82080
2343.0 0.000427 2286.30591 2309.78491
2346.0 0.000426 2286.23706 2310.85742
2290.0 0.000437 2286.16284 2312.05151
2288.0 0.000437 2286.08325 2313.38672
2350.0 0.000426 2285.99829 2314.88696
2253.0 0.000444 2285.90796 2316.57690
2318.0 0.000431 2285.81250 2318.49341
2327.0 0.000430 2285.71191 2320.67334
2366.0 0.000423 2285.60596 2323.17407
2340.0 0.000427 2285.49487 2326.05591
2384.0 0.000419 2285.37842 2329.38867
2365.0 0.000423 2285.25732 2333.25732
2326.0 0.000430 2285.13086 2337.75903
2386.0 0.000419 2284.99951 2343.01978
2355.0 0.000425 2284.86328 2349.17017
2313.0 0.000432 2284.72192 2356.39111
2357.0 0.000424 2284.57593 2364.86353
2374.0 0.000421 2284.42505 2374.77466
2411.0 0.000415 2284.26953 2386.54565
2458.0 0.000407 2284.10938 2400.90552
2413.0 0.000414 2283.94482 2419.08569
2491.0 0.000401 2283.77539 2442.68042
2392.0 0.000418 2283.60181 2473.47729
2507.0 0.000399 2283.42358 2513.86694
2539.0 0.000394 2283.24121 2564.38135
2580.0 0.000388 2283.05469 2626.48804
2656.0 0.000377 2282.86401 2699.17188
2746.0 0.000364 2282.66919 2777.25049
2851.0 0.000351 2282.47046 2848.69507
2919.0 0.0003426 2282.26782 2895.13110
3004.0 0.0003329 2282.06152 2900.55786
2946.0 0.0003394 2281.85156 2863.86011
2922.0 0.0003422 2281.63794 2799.86670
2794.0 0.000358 2281.42065 2727.46704
2684.0 0.000373 2281.20020 2659.82764
2567.0 0.000390 2280.97632 2603.08350
2526.0 0.000396 2280.74927 2558.92407
2579.0 0.000388 2280.51929 2527.00415
2529.0 0.000395 2280.28638 2506.33154
2506.0 0.000399 2280.05054 2495.95679
2477.0 0.000404 2279.81177 2495.31763
2428.0 0.000412 2279.57080 2504.40356
2419.0 0.000413 2279.32690 2523.79688
2493.0 0.000401 2279.08081 2554.45850
2557.0 0.000391 2278.83252 2598.00854
2552.0 0.000392 2278.58228 2655.47949
2672.0 0.000374 2278.32983 2726.85278
2801.0 0.000357 2278.07544 2809.00342
2944.0 0.0003397 2277.81934 2892.64795
2921.0 0.0003423 2277.56177 2960.09326
3050.0 0.0003279 2277.30273 2989.44263
2900.0 0.0003448 2277.04224 2968.13037
2928.0 0.0003415 2276.78076 2903.53833
2838.0 0.000352 2276.51807 2816.45020
2701.0 0.000370 2276.25439 2726.43091
2670.0 0.000375 2275.99023 2644.83179
2650.0 0.000377 2275.72510 2575.91895
2545.0 0.000393 2275.45972 2518.81738
2353.0 0.000425 2275.19409 2474.58057
2426.0 0.000412 2274.92798 2440.04810
2415.0 0.000414 2274.66211 2413.24512
2453.0 0.000408 2274.39624 2392.40063
2343.0 0.000427 2274.13062 2376.04517
2337.0 0.000428 2273.86548 2363.02979
2300.0 0.000435 2273.60107 2352.49390
2388.0 0.000419 2273.33716 2343.81787
2320.0 0.000431 2273.07422 2336.55591
2334.0 0.000428 2272.81226 2330.39551
2368.0 0.000422 2272.55176 2325.11157
2307.0 0.000433 2272.29224 2320.53516
2302.0 0.000434 2272.03442 2316.54175
2291.0 0.000436 2271.77832 2313.03516
2403.0 0.000416 2271.52393 2309.94360
2355.0 0.000425 2271.27173 2307.19702
2374.0 0.000421 2271.02148 2304.75146
2227.0 0.000449 2270.77368 2302.56641
2263.0 0.000442 2270.52808 2300.61060
2244.0 0.000446 2270.28540 2298.85742
2279.0 0.000439 2270.04541 2297.28687
2238.0 0.000447 2269.80835 2295.88257
2342.0 0.000427 2269.57422 2294.63403
2344.0 0.000427 2269.34351 2293.53247
2294.0 0.000436 2269.11621 2292.57373
2293.0 0.000436 2268.89258 2291.75659
2314.0 0.000432 2268.67236 2291.07813
2277.0 0.000439 2268.45630 2290.53540
2332.0 0.000429 2268.24414 2290.12061
2301.0 0.000435 2268.03613 2289.80396
2276.0 0.000439 2267.83252 2289.53589
2231.0 0.000448 2267.63330 2289.24536
2369.0 0.000422 2267.43872 2288.88403
2381.0 0.000420 2267.24878 2288.46216
2184.0 0.000458 2267.06396 2288.05298
2292.0 0.000436 2266.88403 2287.74316
2344.0 0.000427 2266.70947 2287.60156
2375.0 0.000421 2266.54028 2287.68042
2332.0 0.000429 2266.37646 2288.02539
2287.0 0.000437 2266.21802 2288.68359
2285.0 0.000438 2266.06567 2289.70459
2306.0 0.000434 2265.91895 2291.13940
2261.0 0.000442 2265.77832 2293.02637
2260.0 0.000442 2265.64380 2295.36157
2239.0 0.000447 2265.51563 2298.04126
2325.0 0.000430 2265.39380 2300.77808
2321.0 0.000431 2265.27832 2303.06250
2281.0 0.000438 2265.16968 2304.32837
2319.0 0.000431 2265.06738 2304.34180
2348.0 0.000426 2264.97217 2303.42236
2235.0 0.000447 2264.88379 2302.19824
2254.0 0.000444 2264.80249 2301.29175
2330.0 0.000429 2264.72827 2300.92334
2304.0 0.000434 2264.66138 2301.33423
2334.0 0.000428 2264.60181 2302.62549
2346.0 0.000426 2264.54956 2304.87598
2259.0 0.000443 2264.50464 2308.16528
2252.0 0.000444 2264.46753 2312.74585
2348.0 0.000426 2264.43799 2318.35278
2348.0 0.000426 2264.41626 2325.29565
2375.0 0.000421 2264.40210 2333.90356
2341.0 0.000427 2264.39600 2344.75513
2369.0 0.000422 2264.39771 2358.56763
2367.0 0.000422 2264.40723 2375.93457
2337.0 0.000428 2264.42505 2396.98706
2445.0 0.000409 2264.45068 2420.89136
2414.0 0.000414 2264.48462 2445.14111
2464.0 0.000406 2264.52661 2465.22095
2512.0 0.000398 2264.57666 2475.80200
2513.0 0.000398 2264.63501 2473.60864
2516.0 0.000397 2264.70166 2459.54028
2431.0 0.000411 2264.77637 2437.87646
2468.0 0.000405 2264.85938 2413.67529
2437.0 0.000410 2264.95068 2390.64038
2349.0 0.000426 2265.05029 2370.59033
2353.0 0.000425 2265.15796 2353.99292
2419.0 0.000413 2265.27393 2340.68066
2369.0 0.000422 2265.39819 2330.28735
2379.0 0.000420 2265.53052 2322.41162
2260.0 0.000442 2265.67114 2316.65503
2318.0 0.000431 2265.81982 2312.64258
2368.0 0.000422 2265.97681 2310.03516
2246.0 0.000445 2266.14160 2308.47803
2359.0 0.000424 2266.31470 2307.58252
2225.0 0.000449 2266.49561 2306.87036
2320.0 0.000431 2266.68408 2305.86377
2332.0 0.000429 2266.88086 2304.31274
2338.0 0.000428 2267.08521 2302.32935
2294.0 0.000436 2267.29712 2300.23657
2298.0 0.000435 2267.51685 2298.32520
2268.0 0.000441 2267.74390 2296.75830
2387.0 0.000419 2267.97827 2295.58936
2280.0 0.000439 2268.21997 2294.81348
2257.0 0.000443 2268.46924 2294.40918
2342.0 0.000427 2268.72510 2294.34912
2315.0 0.000432 2268.98828 2294.61304
2224.0 0.000450 2269.25806 2295.22876
2300.0 0.000435 2269.53442 2296.13818
2316.0 0.000432 2269.81763 2297.39990
2284.0 0.000438 2270.10693 2299.05542
2300.0 0.000435 2270.40283 2301.16309
2247.0 0.000445 2270.70459 2303.79028
2339.0 0.000428 2271.01221 2306.99731
2316.0 0.000432 2271.32568 2310.80737
2248.0 0.000445 2271.64502 2315.15845
2234.0 0.000448 2271.96948 2319.87622
2319.0 0.000431 2272.29907 2324.75244
2323.0 0.000430 2272.63379 2329.68091
2329.0 0.000429 2272.97339 2335.81592
2239.0 0.000447 2273.31763 2340.72144
2296.0 0.000436 2273.66602 2344.93433
2235.0 0.000447 2274.01904 2347.57471
2381.0 0.000420 2274.37573 2348.09668
2287.0 0.000437 2274.73608 2346.86499
2352.0 0.000425 2275.10034 2344.90747
2315.0 0.000432 2275.46753 2343.23975
2347.0 0.000426 2275.83789 2342.51001
2314.0 0.000432 2276.21094 2343.02881
2306.0 0.000434 2276.58667 2344.93066
2303.0 0.000434 2276.96460 2348.29150
2328.0 0.000430 2277.34473 2353.21167
2314.0 0.000432 2277.72632 2359.86230
2382.0 0.000420 2278.10962 2368.00317
2407.0 0.000415 2278.49414 2379.15771
2314.0 0.000432 2278.87939 2393.45142
2312.0 0.000433 2279.26563 2411.80640
2382.0 0.000420 2279.65186 2435.43750
2431.0 0.000411 2280.03833 2465.84863
2497.0 0.000400 2280.42456 2504.78833
2609.0 0.000383 2280.81030 2554.10571
2652.0 0.000377 2281.19507 2615.69995
2707.0 0.000369 2281.57886 2689.69702
2860.0 0.0003497 2281.96143 2774.61816
2822.0 0.000354 2282.34180 2863.74854
2939.0 0.0003403 2282.72046 2942.83765
3011.0 0.0003321 2283.09668 2991.50928
3091.0 0.0003235 2283.47021 2993.08008
2974.0 0.0003362 2283.84082 2947.59058
2971.0 0.0003366 2284.20801 2870.06396
2887.0 0.0003464 2284.57178 2781.52979
2682.0 0.000373 2284.93115 2696.64722
2652.0 0.000377 2285.28662 2622.46338
2625.0 0.000381 2285.63745 2560.91040
2618.0 0.000382 2285.98340 2510.75854
2490.0 0.000402 2286.32397 2471.65942
2438.0 0.000410 2286.65918 2441.11768
2451.0 0.000408 2286.98828 2417.35474
2274.0 0.000440 2287.31104 2398.82568
2348.0 0.000426 2287.62744 2384.26343
2398.0 0.000417 2287.93701 2372.68408
2378.0 0.000421 2288.23950 2363.34814
2376.0 0.000421 2288.53418 2355.71118
2422.0 0.000413 2288.82129 2349.38330
2326.0 0.000430 2289.10034 2344.08130
2301.0 0.000435 2289.37085 2339.59619
2351.0 0.000425 2289.63257 2335.77368
2426.0 0.000412 2289.88501 2332.49536
2360.0 0.000424 2290.12842 2329.66992
2325.0 0.000430 2290.36206 2327.22266
2351.0 0.000425 2290.58594 2325.09521
2306.0 0.000434 2290.79932 2323.23877
2361.0 0.000424 2291.00220 2321.61646
2404.0 0.000416 2291.19434 2320.19092
2304.0 0.000434 2291.37549 2318.94043
2284.0 0.000438 2291.54517 2317.83765
2400.0 0.000417 2291.70313 2316.86743
2265.0 0.000442 2291.84937 2316.01147
2280.0 0.000439 2291.98340 2315.25732
2269.0 0.000441 2292.10522 2314.59473
2274.0 0.000440 2292.21436 2314.01489
2250.0 0.000444 2292.31055 2313.51099
2262.0 0.000442 2292.39355 2313.07739
2325.0 0.000430 2292.46362 2312.71338
2286.0 0.000437 2292.51978 2312.41724
2303.0 0.000434 2292.56250 2312.19238
2349.0 0.000426 2292.59131 2312.04443
2379.0 0.000420 2292.60620 2311.97900
2306.0 0.000434 2292.60669 2312.00757
2237.0 0.000447 2292.59277 2312.14063
2277.0 0.000439 2292.56445 2312.38867
2262.0 0.000442 2292.52148 2312.75293
2297.0 0.000435 2292.46362 2313.21899
2337.0 0.000428 2292.39063 2313.73267
2255.0 0.000443 2292.30298 2314.19116
2369.0 0.000422 2292.19995 2314.44092
2284.0 0.000438 2292.08203 2314.36108
2361.0 0.000424 2291.94849 2313.94629
2281.0 0.000438 2291.79980 2313.31128
2303.0 0.000434 2291.63574 2312.61035
2334.0 0.000428 2291.45630 2311.95386
2311.0 0.000433 2291.26147 2311.39771
2293.0 0.000436 2291.05127 2310.96045
2232.0 0.000448 2290.82544 2310.63892
2403.0 0.000416 2290.58447 2310.42627
2312.0 0.000433 2290.32813 2310.31226
2303.0 0.000434 2290.05640 2310.28809
2335.0 0.000428 2289.76953 2310.34766
2290.0 0.000437 2289.46777 2310.48633
2348.0 0.000426 2289.15063 2310.68579
2405.0 0.000416 2288.81885 2310.98730
2286.0 0.000437 2288.47217 2311.37817
2345.0 0.000426 2288.11108 2311.86621
2279.0 0.000439 2287.73535 2312.46655
2376.0 0.000421 2287.34546 2313.19629
2273.0 0.000440 2286.94141 2314.07666
2329.0 0.000429 2286.52344 2315.13574
2289.0 0.000437 2286.09229 2316.41162
2283.0 0.000438 2285.64722 2317.95166
2353.0 0.000425 2285.18945 2319.81860
2352.0 0.000425 2284.71851 2322.09814
2316.0 0.000432 2284.23535 2324.89551
2293.0 0.000436 2283.73975 2328.39282
2439.0 0.000410 2283.23267 2332.73755
2313.0 0.000432 2282.71387 2338.19873
2371.0 0.000422 2282.18384 2345.08228
2381.0 0.000420 2281.64307 2353.75684
2332.0 0.000429 2281.09180 2364.63477
2418.0 0.000414 2280.53101 2378.12134
2385.0 0.000419 2279.96021 2394.36792
2412.0 0.000415 2279.38086 2413.53638
2397.0 0.000417 2278.79248 2434.67432
2519.0 0.000397 2278.19629 2456.44409
2466.0 0.000406 2277.59253 2477.18604
2461.0 0.000406 2276.98169 2496.22974
2522.0 0.000397 2276.36426 2513.80688
2527.0 0.000396 2275.74072 2529.35596
2446.0 0.000409 2275.11206 2539.89575
2562.0 0.000390 2274.47827 2540.76465
2607.0 0.000384 2273.84033 2529.05957
2554.0 0.000392 2273.19873 2506.43213
2486.0 0.000402 2272.55420 2477.99634
2502.0 0.000400 2271.90747 2448.91162
2442.0 0.000410 2271.25879 2422.40894
2425.0 0.000412 2270.60913 2399.81323
2397.0 0.000417 2269.95898 2381.29077
2327.0 0.000430 2269.30933 2366.47632
2449.0 0.000408 2268.66064 2354.80713
2384.0 0.000419 2268.01367 2345.74121
2344.0 0.000427 2267.36914 2338.75317
2349.0 0.000426 2266.72754 2333.40820
2292.0 0.000436 2266.09033 2329.36328
2397.0 0.000417 2265.45728 2326.35669
2326.0 0.000430 2264.83008 2324.19189
2351.0 0.000425 2264.20874 2322.73633
2364.0 0.000423 2263.59448 2321.90454
2337.0 0.000428 2262.98779 2321.63867
2268.0 0.000441 2262.38989 2321.90967
2341.0 0.000427 2261.80127 2322.70020
2380.0 0.000420 2261.22241 2323.99536
2355.0 0.000425 2260.65479 2325.76660
2347.0 0.000426 2260.09839 2327.97046
2305.0 0.000434 2259.55469 2330.46802
2335.0 0.000428 2259.02393 2333.71045
2353.0 0.000425 2258.50757 2336.62354
2260.0 0.000442 2258.00562 2339.87305
2385.0 0.000419 2257.51929 2343.69409
2491.0 0.000401 2257.04956 2348.34277
2315.0 0.000432 2256.59644 2354.05176
2341.0 0.000427 2256.16162 2361.04468
2319.0 0.000431 2255.74512 2369.55176
2380.0 0.000420 2255.34790 2379.82983
2352.0 0.000425 2254.97070 2392.15796
2463.0 0.000406 2254.61450 2406.82178
2371.0 0.000422 2254.27979 2424.05371
2392.0 0.000418 2253.96704 2443.94458
2379.0 0.000420 2253.67700 2466.40454
2419.0 0.000413 2253.41040 2491.36646
2593.0 0.000386 2253.16821 2519.39111
2516.0 0.000397 2252.95044 2552.26563
2573.0 0.000389 2252.75806 2592.96240
2626.0 0.000381 2252.59131 2645.05542
2694.0 0.000371 2252.45117 2712.21069
2691.0 0.000372 2252.33765 2797.90674
2858.0 0.0003499 2252.25171 2905.05713
2919.0 0.0003426 2252.19336 3035.01514
3106.0 0.0003220 2252.16333 3185.36450
3200.0 0.0003125 2252.16187 3346.03638
3288.0 0.0003041 2252.18945 3494.97778
3487.0 0.0002868 2252.24609 3598.79932
3534.0 0.0002830 2252.33252 3625.83911
3472.0 0.0002880 2252.44849 3567.11304
3447.0 0.0002901 2252.59448 3444.01636
3333.0 0.0003000 2252.77051 3290.21289
3142.0 0.0003183 2252.97681 3135.70386
3092.0 0.0003234 2253.21338 2997.05713
2884.0 0.0003467 2253.48022 2880.58716
2827.0 0.000354 2253.77734 2786.86548
2718.0 0.000368 2254.10449 2713.95093
2664.0 0.000375 2254.46167 2659.11914
2500.0 0.000400 2254.84888 2619.68481
2626.0 0.000381 2255.26538 2593.37036
2566.0 0.000390 2255.71143 2578.46313
2600.0 0.000385 2256.18604 2573.86035
2635.0 0.000380 2256.68945 2579.02319
2527.0 0.000396 2257.22070 2593.87915
2599.0 0.000385 2257.77930 2618.60840
2713.0 0.000369 2258.36475 2653.27808
2684.0 0.000373 2258.97656 2697.11206
2861.0 0.0003495 2259.61377 2747.49414
2815.0 0.000355 2260.27539 2799.12329
2924.0 0.0003420 2260.96094 2845.01538
3039.0 0.0003291 2261.66919 2880.43018
3044.0 0.0003285 2262.39941 2906.91626
3028.0 0.0003303 2263.15015 2931.36255
2937.0 0.0003405 2263.92065 2960.29053
3036.0 0.0003294 2264.70923 2994.28906
3116.0 0.0003209 2265.51489 3024.93994
2980.0 0.0003356 2266.33667 3038.82690
2957.0 0.0003382 2267.17261 3021.73633
2949.0 0.0003391 2268.02124 2970.64990
2844.0 0.000352 2268.88110 2895.36475
2845.0 0.000351 2269.75073 2810.89941
2805.0 0.000357 2270.62793 2729.26123
2703.0 0.000370 2271.51123 2656.83081
2652.0 0.000377 2272.39917 2595.65845
2588.0 0.000386 2273.28906 2545.44629
2499.0 0.000400 2274.17969 2504.91089
2446.0 0.000409 2275.06812 2472.48462
2417.0 0.000414 2275.95337 2446.63599
2429.0 0.000412 2276.83203 2426.00562
2477.0 0.000404 2277.70313 2409.44995
2476.0 0.000404 2278.56348 2396.04980
2430.0 0.000412 2279.41089 2385.08740
2328.0 0.000430 2280.24341 2376.01538
2414.0 0.000414 2281.05835 2368.42383
2354.0 0.000425 2281.85352 2362.00635
2253.0 0.000444 2282.62573 2356.53247
2397.0 0.000417 2283.37305 2351.82666
2425.0 0.000412 2284.09277 2347.75415
2323.0 0.000430 2284.78223 2344.85522
2344.0 0.000427 2285.43896 2341.75391
2300.0 0.000435 2286.06006 2339.02051
2265.0 0.000442 2286.64331 2336.59937
2296.0 0.000436 2287.18579 2334.43921
2252.0 0.000444 2287.68530 2332.49976
2320.0 0.000431 2288.13843 2330.74634
2324.0 0.000430 2288.54370 2329.14771
2297.0 0.000435 2288.89771 2327.67920
2361.0 0.000424 2289.19824 2326.31812
2268.0 0.000441 2289.44312 2325.04419
2359.0 0.000424 2289.62964 2323.84058
2318.0 0.000431 2289.75562 2322.69360
2353.0 0.000425 2289.81885 2321.58862
2368.0 0.000422 2289.81738 2320.51489
2350.0 0.000426 2289.74927 2319.46118
2334.0 0.000428 2289.61230 2318.41821
2276.0 0.000439 2289.40503 2317.37891
2418.0 0.000414 2289.12598 2316.33423
2295.0 0.000436 2288.77344 2315.28003
2322.0 0.000431 2288.34668 2314.20874
2286.0 0.000437 2287.84424 2313.11719
2276.0 0.000439 2287.26587 2312.00146
2283.0 0.000438 2286.61060 2310.85693
2306.0 0.000434 2285.87891 2309.68237
2340.0 0.000427 2285.06982 2308.47559
2296.0 0.000436 2284.18506 2307.23022
2293.0 0.000436 2283.22437 2305.95532
2181.0 0.000459 2282.18896 2304.64673
2279.0 0.000439 2281.08081 2303.30542
2363.0 0.000423 2279.90137 2301.93213
2331.0 0.000429 2278.65332 2300.53149
2208.0 0.000453 2277.33911 2299.10571
2272.0 0.000440 2275.96265 2297.66113
2366.0 0.000423 2274.52783 2296.20288
2313.0 0.000432 2273.03833 2294.73828
2294.0 0.000436 2271.50024 2293.27710
2276.0 0.000439 2269.91846 2291.83130
2285.0 0.000438 2268.30029 2290.41602
2332.0 0.000429 2266.65186 2289.04932
2325.0 0.000430 2264.98242 2287.75391
2346.0 . . .
loop_
_refln_index_h
_refln_index_k
_refln_index_l
_refln_observed_status
_refln_F_squared_meas
_refln_F_squared_calc
_refln_phase_calc
_refln_d_spacing
_gsas_i100_meas
1 1 0 o 2217.557 2303.352 180.00 6.99223 5.73
0 0 1 o 4571.709 5287.470 0.00 4.97271 2.36
2 0 0 o 1757.439 2130.474 0.00 4.94425 2.14
1 1 1 o 12829.427 12996.494 0.00 4.05241 21.03
2 0 1 o 2329.479 2184.166 180.00 3.50613 2.84
2 2 0 o 5992.409 5821.064 180.00 3.49611 3.25
2 1 1 o 287.473 55.798 0.00 3.30456 0.65
3 1 0 o 5273.456 5477.198 0.00 3.12702 5.07
2 2 1 o 125248.43 125327.11 180.00 2.86001 100.00
3 1 1 o 1059.143 469.273 180.00 2.64713 1.58
0 0 2 o 54463.28 55970.11 0.00 2.48636 7.96
4 0 0 o 69652.52 71567.58 0.00 2.47213 20.49
3 2 1 o 5582.004 5235.583 0.00 2.40154 6.80
3 3 0 o 13012.733 12661.299 180.00 2.33074 3.44
1 1 2 o 311.287 214.030 180.00 2.34266 0.19
2 0 2 o 290.167 556.231 0.00 2.22130 0.14
4 0 1 o 39.776 57.073 0.00 2.21367 0.02
4 2 0 o 706.877 1088.852 0.00 2.21114 0.33
2 1 2 o 791.887 607.958 0.00 2.16729 0.79
4 1 1 o 2684.867 2299.112 0.00 2.16020 2.67
3 3 1 o 47.283 102.186 180.00 2.11043 0.00
2 2 2 o -19.288 23.949 180.00 2.02621 0.00
4 2 1 o 239.314 375.001 180.00 2.02041 0.21
3 1 2 o 9369.857 8989.870 0.00 1.94614 7.33
5 1 0 o 513.614 614.349 180.00 1.93930 0.27
3 2 2 o 560.767 390.591 0.00 1.84206 0.41
4 3 1 o 468.464 357.080 180.00 1.83770 0.34
5 1 1 o 10628.317 10889.340 0.00 1.80676 6.94
4 0 2 o 93682.59 94110.62 0.00 1.75307 29.39
4 4 0 o 87473.88 87302.65 0.00 1.74806 13.68
4 1 2 o 47.983 41.512 180.00 1.72615 0.03
5 2 1 o 66.676 53.791 180.00 1.72256 0.04
3 3 2 o 16379.962 14493.804 180.00 1.70044 4.89
5 3 0 o 1586.905 1490.008 0.00 1.69586 0.51
0 0 3 o 90.052 171.275 0.00 1.65757 0.00
4 2 2 o 1441.250 1854.264 0.00 1.65228 0.81
4 4 1 o 634.192 741.032 0.00 1.64913 0.13
6 0 0 o 192.732 267.987 0.00 1.64808 0.03
1 1 3 o 2109.338 2413.372 0.00 1.61287 0.56
5 3 1 o 5255.510 5312.168 180.00 1.60509 2.89
2 0 3 o 913.104 616.346 180.00 1.57160 0.24
6 0 1 o 2626.775 2109.176 180.00 1.56440 0.67
6 2 0 o 662.758 512.557 0.00 1.56351 0.26
2 1 3 o 160.954 151.086 0.00 1.55212 0.09
4 3 2 o 25.219 19.482 0.00 1.54778 0.01
6 1 1 o 102.258 75.789 180.00 1.54519 0.06
5 1 2 o 1014.983 1132.831 0.00 1.52916 0.46
2 2 3 o 64831.82 64782.18 180.00 1.49776 15.38
6 2 1 o 53507.41 53804.95 180.00 1.49152 25.28
5 2 2 o 244.052 216.230 0.00 1.47709 0.12
5 4 1 o 68.586 57.907 180.00 1.47484 0.03
3 1 3 o 1479.278 1563.753 180.00 1.46454 0.76
4 4 2 o 46283.29 45967.57 0.00 1.43001 10.18
3 2 3 o 664.308 661.686 180.00 1.41860 0.32
6 3 1 o 4.586 3.464 180.00 1.41330 0.00
5 3 2 o 157.163 158.146 0.00 1.40101 0.08
5 5 0 o 9871.359 9867.210 0.00 1.39845 1.05
7 1 0 o 3932.695 3931.094 0.00 1.39845 0.81
4 0 3 o 2279.884 1901.695 0.00 1.37674 0.43
6 0 2 o 144.411 97.205 180.00 1.37370 0.03
6 4 0 o 199.528 143.486 0.00 1.37129 0.05
6 1 2 o 235.170 205.226 180.00 1.36064 0.11
4 1 3 o 878.087 965.247 180.00 1.36359 0.40
3 3 3 o 459.780 452.523 180.00 1.35080 0.08
7 1 1 o 0.585 0.650 0.00 1.34622 0.00
5 5 1 o 16827.633 17105.291 0.00 1.34622 3.39
4 2 3 o 284.454 249.320 180.00 1.32628 0.12
6 2 2 o 1011.168 958.385 180.00 1.32357 0.35
6 4 1 o 1178.037 1170.708 180.00 1.32195 0.47
5 4 2 o 1.375 1.419 180.00 1.31187 0.00
7 2 1 o 1542.994 1712.145 180.00 1.31029 0.67
7 3 0 o 20440.357 20400.797 180.00 1.29842 3.99
4 3 3 o 153.031 200.651 0.00 1.27038 0.06
6 3 2 o 158.451 248.791 0.00 1.26799 0.07
5 1 3 o 9072.869 9542.292 0.00 1.26002 3.42
7 3 1 o 1670.113 1561.710 180.00 1.25630 0.55
0 0 4 o 61110.80 61206.00 0.00 1.24318 2.84
8 0 0 o 30762.104 28572.322 0.00 1.23606 2.82
5 2 3 o 242.724 221.654 0.00 1.23041 0.10
6 5 1 o 390.046 353.168 0.00 1.22695 0.16
1 1 4 o 1547.452 1610.817 180.00 1.22398 0.32
7 1 2 o 9046.935 9168.887 0.00 1.21888 3.34
5 5 2 o -0.257 0.020 0.00 1.21888 0.00
2 0 4 o 275.958 392.282 0.00 1.20565 0.05
4 4 3 o 101.519 109.672 180.00 1.20280 0.05
6 4 2 o 5.392 10.204 0.00 1.20077 0.01
8 0 1 o 23.315 32.022 0.00 1.19956 0.01
8 2 0 o 1980.114 2290.989 0.00 1.19916 0.34
2 1 4 o 126.017 178.954 180.00 1.19679 0.05
7 2 2 o 112.652 168.222 180.00 1.19201 0.05
8 1 1 o 87.091 129.022 180.00 1.19083 0.03
7 4 1 o 72.532 107.454 0.00 1.19083 0.03
5 3 3 o 1675.526 1405.014 180.00 1.18539 0.60
2 2 4 o 1289.445 1261.714 180.00 1.17133 0.19
6 0 3 o 1489.473 1480.578 180.00 1.16871 0.26
8 2 1 o 89.537 126.353 0.00 1.16574 0.03
6 6 0 o 177.238 236.900 180.00 1.16537 0.01
6 1 3 o -0.912 25.396 180.00 1.16063 0.00
3 1 4 o 1048.099 963.400 0.00 1.15523 0.36
7 3 2 o 7600.006 7208.249 180.00 1.15094 2.55
7 5 0 o 2022.665 1900.695 0.00 1.14952 0.36
6 2 3 o 30161.902 30080.609 180.00 1.13737 10.36
6 6 1 o 25176.254 25212.357 180.00 1.13463 4.34
3 2 4 o 74.189 83.257 180.00 1.13228 0.03
5 4 3 o 13.350 15.591 0.00 1.12992 0.01
6 5 2 o 61.060 66.335 0.00 1.12824 0.02
8 3 1 o 79.490 83.959 180.00 1.12723 0.03
7 5 1 o 514.412 401.563 180.00 1.11998 0.19
4 0 4 o 34383.813 33728.129 0.00 1.11065 5.86
8 0 2 o 31704.359 32597.477 0.00 1.10683 5.47
8 4 0 o 20385.150 20686.846 0.00 1.10557 3.47
4 1 4 o 30.045 32.363 0.00 1.10371 0.01
6 3 3 o 144.263 167.710 0.00 1.10152 0.06
8 1 2 o 17.467 17.669 0.00 1.09996 0.01
7 4 2 o 1.637 1.656 0.00 1.09996 0.00
3 3 4 o 5985.198 6056.117 180.00 1.09690 1.02
9 1 0 o 1439.152 1720.216 0.00 1.09200 0.22
4 2 4 o 230.319 206.532 0.00 1.08365 0.08
8 2 2 o 1775.719 1567.643 0.00 1.08010 0.59
8 4 1 o 569.657 468.996 180.00 1.07922 0.27
5 5 3 o 8039.493 7922.434 0.00 1.06886 1.34
7 1 3 o 46.987 46.533 0.00 1.06886 0.01
9 1 1 o 8739.294 8605.124 0.00 1.06659 2.98
6 4 3 o 364.243 339.065 180.00 1.05659 0.12
6 6 2 o 1151.811 1117.438 0.00 1.05521 0.26
4 3 4 o 18.188 12.876 180.00 1.05251 0.01
7 2 3 o 291.002 313.404 0.00 1.05061 0.11
8 3 2 o 5.851 7.798 180.00 1.04926 0.00
7 6 1 o 25.028 36.448 0.00 1.04845 0.01
9 2 1 o 40.721 59.301 180.00 1.04845 0.02
5 1 4 o 9.837 10.299 0.00 1.04660 0.00
7 5 2 o 2079.126 2129.397 0.00 1.04340 0.75
9 3 0 o 232.979 253.876 0.00 1.04234 0.05
5 2 4 o 18.473 99.689 180.00 1.02944 0.01
8 5 1 o 7.965 6.913 0.00 1.02564 0.00
7 3 3 o 600.099 570.762 180.00 1.02216 0.17
9 3 1 o 2812.037 2765.161 180.00 1.02017 0.98
4 4 4 o 22149.594 21748.566 0.00 1.01310 3.86
8 4 2 o 19051.367 18589.664 0.00 1.01020 6.76
6 5 3 o 48.589 43.284 180.00 1.00616 0.02
5 3 4 o 1372.316 1283.102 0.00 1.00263 0.55
9 1 2 o 73.127 76.009 0.00 0.99982 0.01
7 7 0 o 11742.780 12711.641 180.00 0.99889 1.03
0 0 5 o 490.462 403.594 0.00 0.99454 0.02
6 0 4 o 4.999 0.196 0.00 0.99248 0.00
8 0 3 o 300.442 561.669 180.00 0.99089 0.10
10 0 0 o 2089.798 2108.934 180.00 0.98885 0.19
8 6 0 o 286.811 289.282 0.00 0.98885 0.05
6 1 4 o 86.558 89.791 0.00 0.98752 0.04
7 4 3 o 38.419 38.145 180.00 0.98595 0.02
8 1 3 o 124.474 123.587 0.00 0.98595 0.05
9 2 2 o 30.778 31.996 180.00 0.98483 0.01
7 6 2 o 128.462 133.545 0.00 0.98483 0.05
1 1 5 o 2286.705 2347.088 0.00 0.98463 0.43
9 4 1 o 829.995 789.950 0.00 0.98417 0.34
7 7 1 o 2464.252 1727.227 180.00 0.97933 0.42
2 0 5 o 241.008 218.850 180.00 0.97501 0.05
6 2 4 o 40.716 178.399 0.00 0.97307 0.08
8 2 3 o 89.054 138.909 0.00 0.97157 0.03
2 1 5 o 182.579 226.769 180.00 0.97031 0.08
10 0 1 o 2103.690 2422.467 180.00 0.96986 0.37
8 6 1 o -1.283 0.001 180.00 0.96986 0.00
10 2 0 o 366.854 436.016 0.00 0.96965 0.10
5 4 4 o 0.228 0.243 0.00 0.96839 0.00
8 5 2 o 5.203 6.188 180.00 0.96586 0.00
10 1 1 o 256.048 242.096 0.00 0.96523 0.11
9 3 2 o 0.811 0.137 180.00 0.96128 0.00
9 5 0 o 824.332 677.324 0.00 0.96046 0.12
2 2 5 o 22835.186 22477.914 180.00 0.95659 4.37
6 6 3 o 17003.975 17071.195 180.00 0.95334 3.33
10 2 1 o 14128.337 13985.042 180.00 0.95172 5.57
6 3 4 o 130.631 129.181 180.00 0.95034 0.06
8 3 3 o 17.580 18.419 0.00 0.94894 0.01
3 1 5 o 134.055 130.442 180.00 0.94776 0.06
7 5 3 o 666.814 747.435 180.00 0.94460 0.30
9 5 1 o 8005.895 8062.087 0.00 0.94303 3.10
3 2 5 o 17.216 20.736 0.00 0.93497 0.01
9 4 2 o 2.646 2.155 180.00 0.93098 0.00
10 3 1 o 38.485 34.662 0.00 0.93042 0.02
7 1 4 o 2518.323 2419.599 0.00 0.92913 1.04
5 5 4 o 1713.011 1649.351 0.00 0.92913 0.34
7 7 2 o 7525.238 7608.741 180.00 0.92689 1.53
4 0 5 o 31.458 21.758 0.00 0.92268 0.01
6 4 4 o 83.655 85.988 0.00 0.92103 0.04
8 4 3 o 4.584 3.225 0.00 0.91975 0.02
10 0 2 o 25.057 24.178 180.00 0.91885 0.00
8 6 2 o 723.027 672.307 0.00 0.91885 0.32
4 1 5 o 381.678 344.301 0.00 0.91868 0.19
10 4 0 o 52.033 46.795 180.00 0.91812 0.01
7 2 4 o 62.178 57.583 0.00 0.91706 0.03
8 7 1 o 95.405 167.374 0.00 0.91437 0.05
10 1 2 o 26.224 47.349 0.00 0.91491 0.01
3 3 5 o 6.058 6.619 180.00 0.91475 0.00
9 1 3 o 3905.479 3847.383 0.00 0.91190 1.71
4 2 5 o 14.279 19.750 180.00 0.90702 0.01
10 2 2 o 284.299 262.007 0.00 0.90338 0.20
10 4 1 o 1218.327 1132.367 180.00 0.90286 0.55
9 2 3 o 1.313 1.200 0.00 0.90049 0.00
7 6 3 o 25.415 23.217 0.00 0.90049 0.01
9 6 1 o 159.719 172.058 0.00 0.89912 0.09
7 3 4 o 6558.312 6810.264 180.00 0.89796 3.17
9 5 2 o 1879.572 1790.141 0.00 0.89593 0.83
11 1 0 o 6251.251 6055.848 0.00 0.89526 1.58
