#------------------------------------------------------------------------------
#$Date: 2021-06-14 12:17:17 +0300 (Mon, 14 Jun 2021) $
#$Revision: 266434 $
#$URL: file:///home/coder/svn-repositories/cod/cif/1/56/34/1563402.cif $
#------------------------------------------------------------------------------
#
# This file is available in the Crystallography Open Database (COD),
# http://www.crystallography.net/
#
# All data on this site have been placed in the public domain by the
# contributors.
#
data_1563402
loop_
_publ_author_name
'Forbes, Tori Z.'
'Nyman, May'
'Rodriguez, Mark A.'
'Navrotsky, Alexandra'
_publ_section_title
;
 The energetics of lanthanum tantalate materials
;
_journal_issue                   11
_journal_name_full               'Journal of Solid State Chemistry'
_journal_page_first              2516
_journal_page_last               2521
_journal_paper_doi               10.1016/j.jssc.2010.08.024
_journal_volume                  183
_journal_year                    2010
_chemical_formula_sum            'Nd2 O9 Ta2'
_chemical_formula_weight         794.37
_space_group_IT_number           14
_space_group_name_Hall           '-P 2yn'
_space_group_name_H-M_alt        'P 1 21/n 1'
_symmetry_cell_setting           monoclinic
_symmetry_space_group_name_H-M   'P 1 21/n 1'
_cell_angle_alpha                90.0
_cell_angle_beta                 90.7453(26)
_cell_angle_gamma                90.0
_cell_formula_units_Z            2
_cell_length_a                   13.9985(4)
_cell_length_b                   3.89392(14)
_cell_length_c                   6.63227(19)
_cell_volume                     361.49(2)
_computing_structure_refinement  GSAS
_diffrn_radiation_polarisn_ratio 0.5
_diffrn_radiation_probe          x-ray
_exptl_absorpt_correction_T_max  1.00000
_exptl_absorpt_correction_T_min  1.00000
_exptl_absorpt_process_details
;   GSAS Absorption/surface roughness correction: function number 3
 Surface roughness abs. correction (Suortti)
Terms =      0.0000         0.0000    
Correction is not refined.
;
_pd_calc_method                  'Rietveld Refinement'
_pd_meas_2theta_range_inc        0.02
_pd_meas_2theta_range_max        90.0
_pd_meas_2theta_range_min        5.0
_pd_meas_number_of_points        4251
_pd_proc_2theta_range_inc        0.02
_pd_proc_2theta_range_max        90.0
_pd_proc_2theta_range_min        5.0
_pd_proc_info_datetime           2010-04-06T22:08:07
_pd_proc_ls_background_function
;   GSAS Background function number 2 with  4 terms.
 Cosine Fourier series
      1:   -4.64014     2:    285.643     3:   -127.436     4:    56.7199    
;
_pd_proc_ls_prof_R_factor        0.0818
_pd_proc_ls_prof_wR_expected     0.0516
_pd_proc_ls_prof_wR_factor       0.1039
_pd_proc_number_of_points        4251
_refine_ls_goodness_of_fit_all   2.01
_refine_ls_matrix_type           full
_refine_ls_number_parameters     6
_refine_ls_number_restraints     0
_refine_ls_R_Fsqd_factor         0.07059
_refine_ls_shift/su_max          0.02
_refine_ls_shift/su_mean         0.01
_reflns_d_resolution_high        1.090
_reflns_d_resolution_low         6.999
_reflns_limit_h_max              14
_reflns_limit_h_min              0
_reflns_limit_k_max              4
_reflns_limit_k_min              0
_reflns_limit_l_max              6
_reflns_limit_l_min              -6
_reflns_number_total             600
_cod_data_source_file            JSSC-2010-183-2516.cif
_cod_data_source_block           Pr2Ta2O7_OH2
_cod_depositor_comments
;
The following automatic conversions were performed:

data item '_geom_angle_publ_flag' value 'N' was changed to 'n' in
accordance with the built-in table derived from the CIF Core
dictionary named 'cif_core.dic' version 2.4.5 last updated on
2014-11-21 (43 times).

data item '_geom_bond_publ_flag' value 'N' was changed to 'n' in
accordance with the built-in table derived from the CIF Core
dictionary named 'cif_core.dic' version 2.4.5 last updated on
2014-11-21 (38 times).

Automatic conversion script
Id: cif_fix_values 8369 2020-08-20 11:38:08Z andrius 
;
_cod_original_cell_volume        361.489(15)
_cod_original_sg_symbol_H-M      'P 21/n'
_cod_database_code               1563402
_gsas_exptl_extinct_corr_t_min   1.00000
_gsas_exptl_extinct_corr_t_max   1.00000
loop_
_symmetry_equiv_pos_site_id
_symmetry_equiv_pos_as_xyz
1 +x,+y,+z
2 -x+1/2,+y+1/2,-z+1/2
-1 -x,-y,-z
-2 +x+1/2,-y+1/2,+z+1/2
loop_
_atom_site_type_symbol
_atom_site_label
_atom_site_fract_x
_atom_site_fract_y
_atom_site_fract_z
_atom_site_occupancy
_atom_site_thermal_displace_type
_atom_site_U_iso_or_equiv
_atom_site_symmetry_multiplicity
Nd Nd1 0.29911 0.01224 0.50158 1.0 Uiso 0.00323 4
Ta Ta 0.53947 0.47962 0.72651 1.0 Uiso 0.00323 4
O- O1 0.5854 0.45231 0.43015 1.0 Uiso 0.00323 4
O- O2 0.54618 -0.00985 0.72892 1.0 Uiso 0.00323 4
O- O3 0.5 0.5 0.0 1.0 Uiso 0.00323 2
O- O4 0.20764 -0.05891 0.24607 1.0 Uiso 0.00323 4
O- OH5 0.18584 0.57124 0.63261 1.0 Uiso 0.00323 4
loop_
_atom_type_symbol
_atom_type_scat_dispersion_real
_atom_type_scat_dispersion_imag
_atom_type_scat_Cromer_Mann_a1
_atom_type_scat_Cromer_Mann_a2
_atom_type_scat_Cromer_Mann_a3
_atom_type_scat_Cromer_Mann_a4
_atom_type_scat_Cromer_Mann_b1
_atom_type_scat_Cromer_Mann_b2
_atom_type_scat_Cromer_Mann_b3
_atom_type_scat_Cromer_Mann_b4
_atom_type_scat_Cromer_Mann_c
_atom_type_scat_source
Nd+3 0.000 0.000 21.9610 2.52722 19.9339 0.19924 12.1200 14.1783 1.51031
30.8717 1.47588 International_Tables_Vol_C
Ta+5 0.000 0.000 29.1587 1.50711 18.8407 0.11674 12.8268 6.31524 5.38695
12.4244 1.78555 International_Tables_Vol_C
O-2 0.047 0.032 3.76936 15.0797 2.53342 6.30430 1.91579 40.3445 1.55094 0.31291
0.22789 International_Tables_Vol_C
O-1 0.047 0.032 4.19160 12.8573 1.63969 4.17236 1.52673 47.0179 -20.307 -0.0140
21.9412 International_Tables_Vol_C
Si 0.000 0.000 6.29150 2.43860 3.03530 32.3337 1.98910 0.67850 1.54100 81.6937
1.14070 International_Tables_Vol_C
loop_
_diffrn_radiation_wavelength
_diffrn_radiation_wavelength_wt
_diffrn_radiation_type
_diffrn_radiation_wavelength_id
1.540500 1.000 K\a~1~ 1
1.544300 0.500 K\a~2~ 2
loop_
_geom_angle_atom_site_label_1
_geom_angle_atom_site_label_2
_geom_angle_atom_site_label_3
_geom_angle
_geom_angle_site_symmetry_1
_geom_angle_site_symmetry_2
_geom_angle_site_symmetry_3
_geom_angle_publ_flag
O1 Nd1 O1 98.4844(26) -1_656 . -1_666 n
O1 Nd1 O2 64.3457(13) -1_656 . -1_656 n
O1 Nd1 O4 115.9207(16) -1_656 . 1_555 n
O1 Nd1 O4 132.2449(17) -1_656 . 2_555 n
O1 Nd1 OH5 81.3426(23) -1_656 . 1_545 n
O1 Nd1 OH5 80.7160(18) -1_656 . 2_546 n
O1 Nd1 O2 66.7986(13) -1_666 . -1_656 n
O1 Nd1 O4 126.3336(11) -1_666 . 1_555 n
O1 Nd1 O4 65.2735(22) -1_666 . 2_555 n
O1 Nd1 OH5 149.4799(10) -1_666 . 1_545 n
O1 Nd1 OH5 73.4025(15) -1_666 . 2_546 n
O2 Nd1 O4 91.5880(23) -1_656 . 1_555 n
O2 Nd1 O4 68.0601(16) -1_656 . 2_555 n
O2 Nd1 OH5 136.0545(13) -1_656 . 1_545 n
O2 Nd1 OH5 120.6172(21) -1_656 . 2_546 n
O4 Nd1 O4 61.0797(16) 1_555 . 2_555 n
O4 Nd1 OH5 79.0339(17) 1_555 . 1_545 n
O4 Nd1 OH5 147.7697(13) 1_555 . 2_546 n
O4 Nd1 OH5 135.4754(16) 2_555 . 1_545 n
O4 Nd1 OH5 129.1350(16) 2_555 . 2_546 n
OH5 Nd1 OH5 76.4897(18) 1_545 . 2_546 n
O1 Ta O1 78.3768(23) 1_555 . -1_666 n
O1 Ta O2 86.61990(20) 1_555 . 1_555 n
O1 Ta O2 92.49620(20) 1_555 . 1_565 n
O1 Ta O3 178.714 1_555 . 1_556 n
O1 Ta O2 100.13140(20) -1_666 . 1_555 n
O1 Ta O2 85.0860(5) -1_666 . 1_565 n
O1 Ta O3 102.8544(23) -1_666 . 1_556 n
O2 Ta O2 174.40250(30) 1_555 . 1_565 n
O2 Ta O3 92.77900(20) 1_555 . 1_556 n
O2 Ta O3 87.99230(20) 1_565 . 1_556 n
Nd1 O1 Nd1 98.4844(26) -1_656 . -1_666 n
Nd1 O1 Ta 94.2492(17) -1_656 . 1_555 n
Nd1 O1 Ta 138.1660(10) -1_656 . -1_666 n
Nd1 O1 Ta 89.6437(16) -1_666 . 1_555 n
Nd1 O1 Ta 119.8298(16) -1_666 . -1_666 n
Ta O1 Ta 101.6232(23) 1_555 . -1_666 n
Nd1 O2 Ta 91.74820(10) -1_656 . 1_545 n
Nd1 O2 Ta 92.23210(10) -1_656 . 1_555 n
Ta O2 Ta 174.40250(30) 1_545 . 1_555 n
Ta O3 Ta 180.0 1_554 . -1_666 n
Nd1 O4 Nd1 131.9965(11) 1_555 . 2_545 n
Nd1 OH5 Nd1 111.2687(17) 1_565 . 2_556 n
loop_
_geom_bond_atom_site_label_1
_geom_bond_atom_site_label_2
_geom_bond_distance
_geom_bond_site_symmetry_1
_geom_bond_site_symmetry_2
_geom_bond_publ_flag
Nd1 Nd1 3.89392(14) . 1_545 n
Nd1 Nd1 3.89392(14) . 1_565 n
Nd1 Ta 3.33946(8) . -1_656 n
Nd1 Ta 3.37621(8) . -1_666 n
Nd1 O1 2.46413(6) . -1_656 n
Nd1 O1 2.67337(6) . -1_666 n
Nd1 O2 2.66718(8) . -1_656 n
Nd1 O4 2.12872(6) . 1_555 n
Nd1 O4 2.76568(7) . 2_545 n
Nd1 O4 2.34336(5) . 2_555 n
Nd1 OH5 2.50079(6) . 1_545 n
Nd1 OH5 2.83601(7) . 1_555 n
Nd1 OH5 2.44331(7) . 2_546 n
Ta Nd1 3.33946(8) . -1_656 n
Ta Nd1 3.37621(8) . -1_666 n
Ta Ta 3.19170(10) . -1_666 n
Ta O1 2.07871(6) . 1_555 n
Ta O1 2.03910(6) . -1_666 n
Ta O2 1.90832(7) . 1_555 n
Ta O2 1.99025(7) . 1_565 n
Ta O3 1.90466(6) . 1_556 n
Ta O4 2.37623(6) . -2_555 n
O1 Nd1 2.46413(6) . -1_656 n
O1 Nd1 2.67337(6) . -1_666 n
O1 Ta 2.07871(6) . 1_555 n
O1 Ta 2.03910(6) . -1_666 n
O2 Nd1 2.66718(8) . -1_656 n
O2 Ta 1.99025(7) . 1_545 n
O2 Ta 1.90832(7) . 1_555 n
O3 Ta 1.90466(6) . 1_554 n
O3 Ta 1.90466(6) . -1_666 n
O4 Nd1 2.12872(6) . 1_555 n
O4 Nd1 2.34336(5) . 2_545 n
O4 Nd1 2.76568(7) . 2_555 n
O4 Ta 2.37623(6) . -2_454 n
OH5 Nd1 2.83601(7) . 1_555 n
OH5 Nd1 2.50079(6) . 1_565 n
OH5 Nd1 2.44331(7) . 2_556 n
loop_
_pd_meas_counts_total
_pd_proc_ls_weight
_pd_proc_intensity_bkg_calc
_pd_calc_intensity_total
673.0 . . .
669.0 . . .
685.0 . . .
649.0 . . .
658.0 . . .
686.0 . . .
639.0 . . .
671.0 . . .
633.0 . . .
672.0 . . .
655.0 . . .
656.0 . . .
656.0 . . .
617.0 . . .
634.0 . . .
670.0 . . .
599.0 . . .
617.0 . . .
601.0 . . .
633.0 . . .
624.0 . . .
565.0 . . .
574.0 . . .
634.0 . . .
527.0 . . .
650.0 . . .
586.0 . . .
576.0 . . .
516.0 . . .
590.0 . . .
575.0 . . .
515.0 . . .
559.0 . . .
573.0 . . .
539.0 . . .
573.0 . . .
501.0 . . .
548.0 . . .
540.0 . . .
584.0 . . .
535.0 . . .
507.0 . . .
502.0 . . .
479.0 . . .
498.0 . . .
501.0 . . .
499.0 . . .
477.0 . . .
466.0 . . .
475.0 . . .
482.0 . . .
504.0 . . .
468.0 . . .
487.0 . . .
497.0 . . .
486.0 . . .
471.0 . . .
432.0 . . .
468.0 . . .
477.0 . . .
494.0 . . .
462.0 . . .
482.0 . . .
462.0 . . .
488.0 . . .
433.0 . . .
468.0 . . .
422.0 . . .
444.0 . . .
419.0 . . .
429.0 . . .
430.0 . . .
423.0 . . .
419.0 . . .
405.0 . . .
416.0 . . .
437.0 . . .
428.0 . . .
394.0 . . .
413.0 . . .
411.0 . . .
399.0 . . .
425.0 . . .
439.0 . . .
388.0 . . .
413.0 . . .
453.0 . . .
386.0 . . .
424.0 . . .
410.0 . . .
412.0 . . .
406.0 . . .
371.0 . . .
403.0 . . .
370.0 . . .
416.0 . . .
347.0 . . .
406.0 . . .
391.0 . . .
322.0 . . .
406.0 . . .
356.0 . . .
342.0 . . .
381.0 . . .
341.0 . . .
379.0 . . .
342.0 . . .
338.0 . . .
362.0 . . .
319.0 . . .
315.0 . . .
351.0 . . .
353.0 . . .
337.0 . . .
378.0 . . .
340.0 . . .
377.0 . . .
369.0 . . .
356.0 . . .
283.0 . . .
297.0 . . .
310.0 . . .
324.0 . . .
316.0 . . .
298.0 . . .
310.0 . . .
341.0 . . .
323.0 . . .
346.0 . . .
375.0 . . .
325.0 . . .
328.0 . . .
335.0 . . .
293.0 . . .
301.0 . . .
340.0 . . .
278.0 . . .
311.0 . . .
312.0 . . .
318.0 . . .
299.0 . . .
273.0 . . .
299.0 . . .
291.0 . . .
325.0 . . .
290.0 . . .
306.0 . . .
264.0 . . .
295.0 . . .
277.0 . . .
285.0 . . .
345.0 . . .
278.0 . . .
288.0 . . .
298.0 . . .
303.0 . . .
295.0 . . .
311.0 . . .
256.0 . . .
287.0 . . .
285.0 . . .
262.0 . . .
255.0 . . .
259.0 . . .
293.0 . . .
271.0 . . .
275.0 . . .
261.0 . . .
306.0 . . .
252.0 . . .
296.0 . . .
281.0 . . .
284.0 . . .
278.0 . . .
293.0 . . .
267.0 . . .
278.0 . . .
283.0 . . .
260.0 . . .
266.0 . . .
276.0 . . .
277.0 . . .
273.0 . . .
279.0 . . .
296.0 . . .
272.0 . . .
253.0 . . .
251.0 . . .
280.0 . . .
262.0 . . .
297.0 . . .
240.0 . . .
268.0 . . .
254.0 . . .
267.0 . . .
260.0 . . .
270.0 . . .
245.0 . . .
260.0 . . .
233.0 . . .
280.0 . . .
275.0 . . .
239.0 . . .
271.0 . . .
245.0 . . .
234.0 . . .
252.0 . . .
290.0 . . .
292.0 . . .
238.0 . . .
243.0 . . .
273.0 . . .
248.0 . . .
276.0 . . .
238.0 . . .
261.0 . . .
239.0 . . .
262.0 . . .
242.0 . . .
262.0 . . .
235.0 . . .
261.0 . . .
259.0 . . .
261.0 . . .
239.0 . . .
245.0 . . .
264.0 . . .
259.0 . . .
229.0 . . .
244.0 . . .
264.0 . . .
261.0 . . .
244.0 . . .
261.0 . . .
254.0 . . .
247.0 . . .
243.0 . . .
274.0 . . .
246.0 . . .
267.0 . . .
251.0 . . .
258.0 . . .
268.0 . . .
264.0 . . .
246.0 . . .
255.0 . . .
229.0 . . .
249.0 . . .
219.0 . . .
224.0 . . .
271.0 . . .
260.0 . . .
241.0 . . .
232.0 . . .
268.0 . . .
232.0 . . .
272.0 . . .
243.0 . . .
217.0 . . .
234.0 . . .
236.0 . . .
255.0 . . .
228.0 . . .
199.0 . . .
235.0 . . .
251.0 . . .
217.0 . . .
199.0 . . .
263.0 . . .
253.0 . . .
260.0 . . .
261.0 . . .
250.0 . . .
262.0 . . .
244.0 . . .
253.0 . . .
241.0 . . .
247.0 . . .
236.0 . . .
262.0 . . .
266.0 . . .
255.0 . . .
250.0 . . .
267.0 . . .
258.0 . . .
242.0 . . .
262.0 . . .
282.0 . . .
231.0 . . .
244.0 . . .
249.0 . . .
278.0 . . .
262.0 . . .
236.0 . . .
212.0 . . .
289.0 . . .
263.0 . . .
279.0 . . .
243.0 . . .
246.0 . . .
225.0 . . .
238.0 . . .
228.0 . . .
258.0 . . .
248.0 . . .
270.0 . . .
220.0 . . .
255.0 . . .
217.0 . . .
244.0 . . .
231.0 . . .
208.0 . . .
234.0 . . .
247.0 . . .
246.0 . . .
237.0 . . .
240.0 . . .
241.0 . . .
227.0 . . .
216.0 . . .
229.0 . . .
226.0 . . .
234.0 . . .
234.0 . . .
242.0 . . .
239.0 . . .
235.0 . . .
232.0 . . .
242.0 . . .
259.0 . . .
213.0 . . .
255.0 . . .
227.0 . . .
244.0 . . .
267.0 . . .
232.0 . . .
223.0 . . .
244.0 . . .
226.0 . . .
221.0 . . .
236.0 . . .
235.0 . . .
248.0 . . .
225.0 . . .
233.0 . . .
221.0 . . .
240.0 . . .
253.0 . . .
244.0 . . .
243.0 . . .
238.0 . . .
221.0 0.00452 204.21019 211.07956
232.0 0.00431 204.19067 211.37675
250.0 0.00400 204.17117 211.70059
252.0 0.00397 204.15161 212.05420
251.0 0.00398 204.13203 212.44144
242.0 0.00413 204.11244 212.86661
238.0 0.00420 204.09279 213.33479
223.0 0.00448 204.07315 213.85202
278.0 0.00360 204.05345 214.42529
270.0 0.00370 204.03372 215.06311
229.0 0.00437 204.01398 215.77545
245.0 0.00408 203.99417 216.57442
224.0 0.00446 203.97443 217.47481
234.0 0.00427 203.95457 218.49429
235.0 0.00426 203.93472 219.65504
226.0 0.00442 203.91483 220.98445
281.0 0.00356 203.89491 222.51678
258.0 0.00388 203.87500 224.29562
215.0 0.00465 203.85501 226.37662
237.0 0.00422 203.83504 228.83229
209.0 0.00478 203.81500 231.75783
239.0 0.00418 203.79497 235.28055
247.0 0.00405 203.77490 239.57336
241.0 0.00415 203.75481 244.87581
281.0 0.00356 203.73466 251.52769
285.0 0.00351 203.71451 260.02921
340.0 0.002941 203.69434 271.16376
297.0 0.003367 203.67413 286.28531
362.0 0.002762 203.65390 307.97192
425.0 0.002353 203.63362 341.27554
514.0 0.001946 203.61336 395.39124
624.0 0.001603 203.59302 484.49243
741.0 0.001350 203.57268 625.24927
865.0 0.001156 203.55231 826.92432
971.0 0.001030 203.53194 1063.57996
1123.0 0.000890 203.51147 1234.05701
1152.0 0.000868 203.49106 1229.79211
1013.0 0.000987 203.47055 1068.61572
799.0 0.001252 203.45006 843.38898
626.0 0.001597 203.42953 641.78546
477.0 0.002096 203.40898 497.07434
384.0 0.002604 203.38838 404.00378
333.0 0.003003 203.36781 346.93314
286.0 0.003497 203.34715 311.78064
269.0 0.00372 203.32649 289.07639
274.0 0.00365 203.30580 273.43204
250.0 0.00400 203.28510 262.03241
245.0 0.00408 203.26434 253.39824
254.0 0.00394 203.24355 246.68808
278.0 0.00360 203.22278 241.37450
246.0 0.00407 203.20197 237.10300
261.0 0.00383 203.18112 233.62520
216.0 0.00463 203.16023 230.76239
235.0 0.00426 203.13933 228.38356
230.0 0.00435 203.11839 226.39076
237.0 0.00422 203.09744 224.70987
245.0 0.00408 203.07648 223.28391
221.0 0.00452 203.05547 222.06850
213.0 0.00469 203.03442 221.02879
238.0 0.00420 203.01338 220.13713
249.0 0.00402 202.99228 219.37122
228.0 0.00439 202.97116 218.71312
244.0 0.00410 202.95006 218.14833
227.0 0.00441 202.92886 217.66473
244.0 0.00410 202.90768 217.25259
265.0 0.00377 202.88646 216.90366
219.0 0.00457 202.86525 216.61127
216.0 0.00463 202.84395 216.36964
256.0 0.00391 202.82268 216.17419
215.0 0.00465 202.80135 216.02095
234.0 0.00427 202.78003 215.90669
237.0 0.00422 202.75864 215.82869
225.0 0.00444 202.73724 215.78474
247.0 0.00405 202.71582 215.77304
251.0 0.00398 202.69437 215.79210
260.0 0.00385 202.67288 215.84085
235.0 0.00426 202.65140 215.91849
216.0 0.00463 202.62988 216.02438
234.0 0.00427 202.60832 216.15823
234.0 0.00427 202.58673 216.31992
228.0 0.00439 202.56516 216.50958
275.0 0.00364 202.54352 216.72751
241.0 0.00415 202.52188 216.97426
250.0 0.00400 202.50017 217.25047
238.0 0.00420 202.47845 217.55721
237.0 0.00422 202.45671 217.89554
201.0 0.00498 202.43497 218.26691
235.0 0.00426 202.41319 218.67288
259.0 0.00386 202.39139 219.11530
242.0 0.00413 202.36955 219.59630
246.0 0.00407 202.34770 220.11839
245.0 0.00408 202.32582 220.68423
256.0 0.00391 202.30391 221.29701
258.0 0.00388 202.28198 221.96025
262.0 0.00382 202.26003 222.67787
236.0 0.00424 202.23802 223.45439
258.0 0.00388 202.21600 224.29485
252.0 0.00397 202.19398 225.20506
223.0 0.00448 202.17192 226.19135
250.0 0.00400 202.14981 227.26108
264.0 0.00379 202.12772 228.42262
299.0 0.003344 202.10558 229.68533
268.0 0.00373 202.08344 231.06004
270.0 0.00370 202.06125 232.55904
280.0 0.00357 202.03902 234.19647
275.0 0.00364 202.01680 235.98871
306.0 0.003268 201.99454 237.95450
309.0 0.003236 201.97223 240.11566
311.0 0.003215 201.94995 242.49773
307.0 0.003257 201.92761 245.13046
265.0 0.00377 201.90524 248.04890
309.0 0.003236 201.88286 251.29453
315.0 0.003175 201.86044 254.91661
293.0 0.003413 201.83800 258.97418
289.0 0.003460 201.81555 263.53827
311.0 0.003215 201.79306 268.69501
328.0 0.003049 201.77054 274.54968
322.0 0.003106 201.74802 281.23199
330.0 0.003030 201.72546 288.90305
295.0 0.003390 201.70288 297.76517
332.0 0.003012 201.68027 308.07480
302.0 0.003311 201.65764 320.16083
335.0 0.002985 201.63496 334.45044
331.0 0.003021 201.61229 351.50604
417.0 0.002398 201.58957 372.07941
446.0 0.002242 201.56686 397.19296
503.0 0.001988 201.54410 428.26566
564.0 0.001773 201.52132 467.32336
638.0 0.001567 201.49850 517.39429
704.0 0.001420 201.47568 583.35419
815.0 0.001227 201.45282 673.80597
1010.0 0.000990 201.42995 804.86298
1332.0 0.000751 201.40707 1006.15289
1611.0 0.000621 201.38412 1326.81482
2083.0 0.000480 201.36119 1835.08557
2781.0 0.000360 201.33820 2600.98096
3679.0 0.0002718 201.31519 3639.02881
4594.0 0.0002177 201.29221 4758.75391
5148.0 0.0001943 201.26913 5443.90869
5163.0 0.0001937 201.24608 5317.79785
4727.0 0.0002116 201.22296 4550.52832
3785.0 0.0002642 201.19984 3508.34424
2646.0 0.000378 201.17671 2558.90869
1901.0 0.000526 201.15353 1869.89417
1416.0 0.000706 201.13036 1428.87573
1107.0 0.000903 201.10713 1157.40747
1014.0 0.000986 201.08388 973.15063
763.0 0.001311 201.06064 828.30511
691.0 0.001447 201.03732 706.10834
595.0 0.001681 201.01402 604.80975
569.0 0.001757 200.99069 525.95227
471.0 0.002123 200.96735 466.92773
366.0 0.002732 200.94394 423.06155
345.0 0.002899 200.92055 389.99417
293.0 0.003413 200.89713 364.41370
333.0 0.003003 200.87367 344.05762
338.0 0.002959 200.85019 327.46094
283.0 0.00353 200.82669 313.67712
281.0 0.00356 200.80316 302.06995
288.0 0.003472 200.77962 292.18872
276.0 0.00362 200.75606 283.69986
249.0 0.00402 200.73244 276.34900
250.0 0.00400 200.70883 269.93854
241.0 0.00415 200.68520 264.31250
213.0 0.00469 200.66153 259.34625
250.0 0.00400 200.63786 254.93938
232.0 0.00431 200.61414 251.00981
267.0 0.00375 200.59039 247.49031
222.0 0.00450 200.56665 244.32512
233.0 0.00429 200.54285 241.46759
214.0 0.00467 200.51906 238.87862
247.0 0.00405 200.49521 236.52522
247.0 0.00405 200.47137 234.37926
225.0 0.00444 200.44748 232.41666
232.0 0.00431 200.42360 230.61688
221.0 0.00452 200.39966 228.96207
251.0 0.00398 200.37572 227.43681
243.0 0.00412 200.35175 226.02769
239.0 0.00418 200.32776 224.72301
229.0 0.00437 200.30374 223.51250
233.0 0.00429 200.27971 222.38707
225.0 0.00444 200.25566 221.33879
207.0 0.00483 200.23160 220.36058
213.0 0.00469 200.20747 219.44612
259.0 0.00386 200.18332 218.58984
204.0 0.00490 200.15921 217.78690
193.0 0.00518 200.13503 217.03265
245.0 0.00408 200.11081 216.32317
218.0 0.00459 200.08659 215.65483
219.0 0.00457 200.06235 215.02446
225.0 0.00444 200.03809 214.42903
209.0 0.00478 200.01382 213.86597
192.0 0.00521 199.98952 213.33282
233.0 0.00429 199.96518 212.82738
209.0 0.00478 199.94084 212.34773
211.0 0.00474 199.91644 211.89195
198.0 0.00505 199.89203 211.45850
210.0 0.00476 199.86760 211.04581
213.0 0.00469 199.84317 210.65247
211.0 0.00474 199.81870 210.27727
225.0 0.00444 199.79420 209.91895
183.0 0.00546 199.76971 209.57652
177.0 0.00565 199.74516 209.24892
203.0 0.00493 199.72060 208.93524
193.0 0.00518 199.69604 208.63469
190.0 0.00526 199.67143 208.34641
202.0 0.00495 199.64679 207.92661
199.0 0.00503 199.62215 207.59076
221.0 0.00452 199.59747 207.33769
233.0 0.00429 199.57280 207.09435
216.0 0.00463 199.54810 206.86009
223.0 0.00448 199.52338 206.63446
207.0 0.00483 199.49858 206.41692
208.0 0.00481 199.47383 206.20715
225.0 0.00444 199.44904 206.00470
191.0 0.00524 199.42419 205.80910
209.0 0.00478 199.39935 205.62010
213.0 0.00469 199.37451 205.43736
215.0 0.00465 199.34961 205.26050
213.0 0.00469 199.32469 205.08925
232.0 0.00431 199.29977 204.92337
229.0 0.00437 199.27481 204.76256
225.0 0.00444 199.24985 204.60661
213.0 0.00469 199.22484 204.45526
194.0 0.00515 199.19983 204.30832
194.0 0.00515 199.17477 204.16556
232.0 0.00431 199.14970 204.02678
221.0 0.00452 199.12463 203.89185
231.0 0.00433 199.09952 203.76057
182.0 0.00549 199.07439 203.63274
219.0 0.00457 199.04924 203.50830
191.0 0.00524 199.02408 203.38702
214.0 0.00467 198.99889 203.26878
179.0 0.00559 198.97368 203.15352
242.0 0.00413 198.94847 203.04102
179.0 0.00559 198.92319 202.93118
180.0 0.00556 198.89793 202.82396
225.0 0.00444 198.87262 202.71915
194.0 0.00515 198.84727 202.61673
229.0 0.00437 198.82198 202.51665
201.0 0.00498 198.79657 202.41866
211.0 0.00474 198.77122 202.32285
228.0 0.00439 198.74582 202.22899
202.0 0.00495 198.72038 202.13708
217.0 0.00461 198.69492 202.04701
237.0 0.00422 198.66946 201.95880
225.0 0.00444 198.64397 201.87225
215.0 0.00465 198.61847 201.78743
226.0 0.00442 198.59293 201.70416
201.0 0.00498 198.56737 201.62245
217.0 0.00461 198.54181 201.54222
198.0 0.00505 198.51622 201.46344
197.0 0.00508 198.49060 201.38602
223.0 0.00448 198.46497 201.30995
204.0 0.00490 198.43932 201.23515
220.0 0.00455 198.41365 201.16162
199.0 0.00503 198.38792 201.08922
205.0 0.00488 198.36223 201.01807
187.0 0.00535 198.33647 200.94795
209.0 0.00478 198.31070 200.87895
214.0 0.00467 198.28494 200.81102
204.0 0.00490 198.25914 200.74406
160.0 0.00625 198.23331 200.67810
185.0 0.00541 198.20747 200.61308
210.0 0.00476 198.18161 200.54897
220.0 0.00455 198.15573 200.48576
210.0 0.00476 198.12982 200.42339
187.0 0.00535 198.10393 200.36188
213.0 0.00469 198.07796 200.30110
188.0 0.00532 198.05200 200.24118
193.0 0.00518 198.02600 200.18196
201.0 0.00498 198.00003 200.12350
198.0 0.00505 197.97398 200.06572
215.0 0.00465 197.94794 200.00864
203.0 0.00493 197.92186 199.95219
201.0 0.00498 197.89580 199.89647
212.0 0.00472 197.86969 199.84131
205.0 0.00488 197.84352 199.78674
188.0 0.00532 197.81741 199.73283
196.0 0.00510 197.79124 199.67946
192.0 0.00521 197.76503 199.62662
202.0 0.00495 197.73885 199.57434
190.0 0.00526 197.71260 199.52257
192.0 0.00521 197.68639 199.47136
187.0 0.00535 197.66008 199.42056
225.0 0.00444 197.63382 199.37032
195.0 0.00513 197.60750 199.32051
215.0 0.00465 197.58119 199.27116
196.0 0.00510 197.55484 199.22226
198.0 0.00505 197.52849 199.17380
211.0 0.00474 197.50208 199.12570
190.0 0.00526 197.47569 199.07806
189.0 0.00529 197.44925 199.03079
198.0 0.00505 197.42284 198.98395
206.0 0.00485 197.39635 198.93741
198.0 0.00505 197.36986 198.89125
204.0 0.00490 197.34335 198.84546
174.0 0.00575 197.31682 198.80003
203.0 0.00493 197.29028 198.75493
195.0 0.00513 197.26376 198.71017
195.0 0.00513 197.23715 198.66570
221.0 0.00452 197.21056 198.62154
203.0 0.00493 197.18394 198.57771
207.0 0.00483 197.15730 198.53415
184.0 0.00543 197.13065 198.49089
202.0 0.00495 197.10396 198.44789
185.0 0.00541 197.07726 198.40517
195.0 0.00513 197.05055 198.36272
190.0 0.00526 197.02379 198.32053
203.0 0.00493 196.99706 198.27859
195.0 0.00513 196.97029 198.23691
193.0 0.00518 196.94351 198.19547
198.0 0.00505 196.91667 198.15421
190.0 0.00526 196.88985 198.11325
187.0 0.00535 196.86301 198.07248
162.0 0.00617 196.83615 198.03195
215.0 0.00465 196.80925 197.99159
193.0 0.00518 196.78233 197.95145
170.0 0.00588 196.75539 197.91150
205.0 0.00488 196.72849 197.87181
188.0 0.00532 196.70151 197.83224
206.0 0.00485 196.67451 197.79288
226.0 0.00442 196.64752 197.75970
184.0 0.00543 196.62051 197.72078
220.0 0.00455 196.59348 197.68201
182.0 0.00549 196.56642 197.64641
188.0 0.00532 196.53934 197.60799
207.0 0.00483 196.51224 197.56975
201.0 0.00498 196.48512 197.53166
189.0 0.00529 196.45802 197.49377
175.0 0.00571 196.43086 196.80763
191.0 0.00524 196.40370 196.77670
184.0 0.00543 196.37651 196.42352
180.0 0.00556 196.34930 196.39601
191.0 0.00524 196.32205 196.36845
192.0 0.00521 196.29485 196.34094
181.0 0.00552 196.26756 196.31337
192.0 0.00521 196.24030 196.76056
216.0 0.00463 196.21300 196.73743
185.0 0.00541 196.18571 196.70271
197.0 0.00508 196.15836 196.92809
227.0 0.00441 196.13101 196.90732
175.0 0.00571 196.10365 196.88663
194.0 0.00515 196.07626 196.86600
187.0 0.00535 196.04883 196.84540
191.0 0.00524 196.02141 196.82491
200.0 0.00500 195.99400 196.80449
182.0 0.00549 195.96655 196.78416
176.0 0.00568 195.93906 196.76385
180.0 0.00556 195.91154 196.74365
195.0 0.00513 195.88405 196.94043
214.0 0.00467 195.85654 196.92224
181.0 0.00552 195.82899 196.90414
198.0 0.00505 195.80142 196.99422
201.0 0.00498 195.77382 196.97723
164.0 0.00610 195.74623 196.96043
193.0 0.00518 195.71860 196.94371
200.0 0.00500 195.69096 196.92711
222.0 0.00450 195.66330 196.91064
180.0 0.00556 195.63564 196.89435
192.0 0.00521 195.60797 196.87817
214.0 0.00467 195.58028 196.86217
197.0 0.00508 195.55252 196.84625
182.0 0.00549 195.52480 196.83052
188.0 0.00532 195.49704 196.81496
174.0 0.00575 195.46925 196.79948
180.0 0.00556 195.44148 196.78424
201.0 0.00498 195.41365 196.76909
187.0 0.00535 195.38583 196.75415
193.0 0.00518 195.35799 196.73935
218.0 0.00459 195.33012 196.72473
195.0 0.00513 195.30225 196.71030
217.0 0.00461 195.27434 196.69600
196.0 0.00510 195.24641 196.68192
178.0 0.00562 195.21849 196.66803
188.0 0.00532 195.19057 196.65433
174.0 0.00575 195.16260 196.64081
182.0 0.00549 195.13463 196.62752
175.0 0.00571 195.10661 196.61440
177.0 0.00565 195.07857 196.60144
195.0 0.00513 195.05057 196.58879
182.0 0.00549 195.02254 196.57632
203.0 0.00493 194.99446 196.56404
183.0 0.00546 194.96637 196.55199
208.0 0.00481 194.93826 196.54019
207.0 0.00483 194.91014 196.52863
192.0 0.00521 194.88202 196.51733
208.0 0.00481 194.85387 196.50624
225.0 0.00444 194.82571 196.49542
184.0 0.00543 194.79753 196.48486
203.0 0.00493 194.76932 196.47453
177.0 0.00565 194.74110 196.46451
197.0 0.00508 194.71288 196.45474
189.0 0.00529 194.68466 196.44531
187.0 0.00535 194.65637 196.43611
170.0 0.00588 194.62808 196.42719
189.0 0.00529 194.59978 196.41861
207.0 0.00483 194.57146 196.41032
195.0 0.00513 194.54315 196.40239
174.0 0.00575 194.51480 196.39476
178.0 0.00562 194.48643 196.38745
168.0 0.00595 194.45805 196.38048
198.0 0.00505 194.42967 196.37387
217.0 0.00461 194.40126 196.36761
184.0 0.00543 194.37280 196.36171
189.0 0.00529 194.34435 196.35616
193.0 0.00518 194.31590 196.35101
184.0 0.00543 194.28745 196.34631
182.0 0.00549 194.25894 196.34195
205.0 0.00488 194.23045 196.33806
199.0 0.00503 194.20192 196.33453
202.0 0.00495 194.17337 196.33144
181.0 0.00552 194.14482 196.32883
176.0 0.00568 194.11624 196.32664
190.0 0.00526 194.08766 196.32492
195.0 0.00513 194.05908 196.32372
205.0 0.00488 194.03044 196.32295
209.0 0.00478 194.00182 196.32271
199.0 0.00503 193.97318 196.32300
169.0 0.00592 193.94449 196.32378
195.0 0.00513 193.91582 196.32515
188.0 0.00532 193.88715 196.32706
168.0 0.00595 193.85841 196.32953
172.0 0.00581 193.82970 196.33261
192.0 0.00521 193.80095 196.33626
204.0 0.00490 193.77219 196.34056
214.0 0.00467 193.74341 196.34547
217.0 0.00461 193.71463 196.35106
185.0 0.00541 193.68585 196.35733
197.0 0.00508 193.65700 196.36426
194.0 0.00515 193.62817 196.37189
213.0 0.00469 193.59933 196.38026
170.0 0.00588 193.57047 196.38937
198.0 0.00505 193.54160 196.39929
213.0 0.00469 193.51266 196.40991
191.0 0.00524 193.48378 196.42146
210.0 0.00476 193.45486 196.43379
181.0 0.00552 193.42590 196.78760
190.0 0.00526 193.39694 196.80455
184.0 0.00543 193.36797 196.82246
176.0 0.00568 193.33900 197.01079
176.0 0.00568 193.31001 197.03214
212.0 0.00472 193.28099 197.05450
163.0 0.00613 193.25195 197.07797
169.0 0.00592 193.22292 197.10254
198.0 0.00505 193.19385 197.12828
210.0 0.00476 193.16478 197.15524
190.0 0.00526 193.13571 197.18338
173.0 0.00578 193.10658 197.21275
213.0 0.00469 193.07747 197.24345
203.0 0.00493 193.04836 197.27550
214.0 0.00467 193.01920 197.30894
227.0 0.00441 192.99005 197.34377
192.0 0.00521 192.96086 197.38005
165.0 0.00606 192.93164 197.41785
197.0 0.00508 192.90248 197.45728
201.0 0.00498 192.87325 197.49826
175.0 0.00571 192.84401 197.54089
191.0 0.00524 192.81477 197.58527
195.0 0.00513 192.78551 197.63144
180.0 0.00556 192.75623 197.67944
179.0 0.00559 192.72694 197.72934
212.0 0.00472 192.69765 197.78122
180.0 0.00556 192.66829 197.83508
191.0 0.00524 192.63898 197.89107
214.0 0.00467 192.60963 197.94930
200.0 0.00500 192.58029 198.00972
201.0 0.00498 192.55092 198.07249
192.0 0.00521 192.52153 198.13770
185.0 0.00541 192.49211 198.25798
207.0 0.00483 192.46268 198.32866
195.0 0.00513 192.43324 198.40204
217.0 0.00461 192.40382 198.47829
183.0 0.00546 192.37436 198.55742
179.0 0.00559 192.34489 198.63957
189.0 0.00529 192.31541 198.72485
197.0 0.00508 192.28590 198.81334
177.0 0.00565 192.25641 198.90530
198.0 0.00505 192.22688 199.00072
221.0 0.00452 192.19733 199.09981
208.0 0.00481 192.16777 199.20268
198.0 0.00505 192.13818 199.30951
223.0 0.00448 192.10861 199.42053
201.0 0.00498 192.07903 199.55516
166.0 0.00602 192.04941 199.67505
228.0 0.00439 192.01981 199.79967
200.0 0.00500 191.99016 199.92912
184.0 0.00543 191.96051 200.07338
225.0 0.00444 191.93086 200.21336
242.0 0.00413 191.90118 200.35889
173.0 0.00578 191.87149 200.51019
186.0 0.00538 191.84180 200.79680
193.0 0.00518 191.81207 200.96164
211.0 0.00474 191.78235 201.13316
214.0 0.00467 191.75262 201.31169
189.0 0.00529 191.72289 201.49751
198.0 0.00505 191.69310 201.69098
229.0 0.00437 191.66331 201.89250
202.0 0.00495 191.63353 202.10249
222.0 0.00450 191.60374 202.32141
204.0 0.00490 191.57391 202.54962
219.0 0.00457 191.54407 202.78760
182.0 0.00549 191.51424 203.03972
197.0 0.00508 191.48436 203.29898
204.0 0.00490 191.45451 203.56976
185.0 0.00541 191.42462 203.85265
217.0 0.00461 191.39473 204.15015
198.0 0.00505 191.36481 204.46187
196.0 0.00510 191.33490 204.78539
208.0 0.00481 191.30496 205.12399
181.0 0.00552 191.27501 205.47990
210.0 0.00476 191.24506 205.85152
233.0 0.00429 191.21510 206.24123
209.0 0.00478 191.18510 206.65002
212.0 0.00472 191.15511 207.07913
201.0 0.00498 191.12509 207.52995
230.0 0.00435 191.09508 208.00385
225.0 0.00444 191.06505 208.50230
207.0 0.00483 191.03502 209.02710
223.0 0.00448 191.00497 209.57994
225.0 0.00444 190.97490 210.16281
261.0 0.00383 190.94481 210.77791
234.0 0.00427 190.91473 211.42760
231.0 0.00433 190.88461 212.11440
248.0 0.00403 190.85449 212.84109
298.0 0.003356 190.82436 213.61081
253.0 0.00395 190.79420 214.42706
242.0 0.00413 190.76408 215.29349
259.0 0.00386 190.73392 216.21425
252.0 0.00397 190.70372 217.19389
273.0 0.00366 190.67354 218.23766
287.0 0.003484 190.64334 219.35103
214.0 0.00467 190.61313 220.54047
215.0 0.00465 190.58292 221.81299
236.0 0.00424 190.55266 223.17648
235.0 0.00426 190.52242 224.64000
246.0 0.00407 190.49214 226.21349
233.0 0.00429 190.46188 227.90837
263.0 0.00380 190.43163 229.73767
256.0 0.00391 190.40132 231.71609
235.0 0.00426 190.37100 233.86069
236.0 0.00424 190.34070 236.19096
254.0 0.00394 190.31036 238.72952
237.0 0.00422 190.28001 241.50270
221.0 0.00452 190.24966 244.54143
290.0 0.003448 190.21928 247.88200
251.0 0.00398 190.18892 251.56790
267.0 0.00375 190.15857 255.65112
269.0 0.00372 190.12814 260.19498
259.0 0.00386 190.09773 265.27792
291.0 0.003436 190.06732 270.99973
299.0 0.003344 190.03690 277.49158
264.0 0.00379 190.00647 284.93277
304.0 0.003289 189.97601 293.57440
287.0 0.003484 189.94554 303.76730
358.0 0.002793 189.91507 315.98392
344.0 0.002907 189.88458 330.81552
385.0 0.002597 189.85410 348.91083
432.0 0.002315 189.82356 370.74551
455.0 0.002198 189.79306 395.99741
561.0 0.001783 189.76251 422.79218
595.0 0.001681 189.73196 449.04752
637.0 0.001570 189.70142 475.84250
634.0 0.001577 189.67088 506.44342
664.0 0.001506 189.64030 543.89355
635.0 0.001575 189.60971 592.63605
680.0 0.001471 189.57915 659.51721
818.0 0.001222 189.54851 753.98541
926.0 0.001080 189.51793 889.88336
1150.0 0.000870 189.48730 1087.46899
1487.0 0.000672 189.45665 1373.81714
1841.0 0.000543 189.42599 1779.60840
2306.0 0.000434 189.39536 2327.04883
2978.0 0.0003358 189.36467 2994.06885
3763.0 0.0002657 189.33398 3644.91968
4118.0 0.0002428 189.30331 4030.37280
4242.0 0.0002357 189.27264 4026.17700
4229.0 0.0002365 189.24190 3750.72217
3557.0 0.0002811 189.21120 3312.11279
3069.0 0.0003258 189.18045 2771.24072
2511.0 0.000398 189.14975 2246.32007
1960.0 0.000510 189.11897 1835.64612
1595.0 0.000627 189.08820 1568.32532
1460.0 0.000685 189.05746 1437.82788
1346.0 0.000743 189.02667 1431.13281
1467.0 0.000682 188.99588 1535.45764
1488.0 0.000672 188.96510 1726.92078
1692.0 0.000591 188.93430 1941.57471
1669.0 0.000599 188.90343 2067.62695
1713.0 0.000584 188.87263 2037.08521
1723.0 0.000580 188.84180 1891.01013
1549.0 0.000646 188.81096 1677.27576
1318.0 0.000759 188.78011 1417.12476
1142.0 0.000876 188.74921 1155.19202
875.0 0.001143 188.71834 933.79541
728.0 0.001374 188.68745 765.03229
616.0 0.001623 188.65657 642.32672
526.0 0.001901 188.62567 554.42810
409.0 0.002445 188.59474 491.09732
363.0 0.002755 188.56380 444.51776
379.0 0.002639 188.53291 409.24774
332.0 0.003012 188.50195 381.71594
281.0 0.00356 188.47098 359.64606
275.0 0.00364 188.44003 341.57941
330.0 0.003030 188.40904 326.54984
321.0 0.003115 188.37808 313.88766
293.0 0.003413 188.34708 303.10867
254.0 0.00394 188.31609 293.85141
225.0 0.00444 188.28508 285.83960
257.0 0.00389 188.25406 278.85901
241.0 0.00415 188.22304 273.11514
254.0 0.00394 188.19199 267.72830
241.0 0.00415 188.16095 262.96164
273.0 0.00366 188.12990 258.72726
191.0 0.00524 188.09885 255.13998
217.0 0.00461 188.06775 251.76839
253.0 0.00395 188.03668 248.74844
263.0 0.00380 188.00558 246.03882
240.0 0.00417 187.97449 243.62473
247.0 0.00405 187.94339 241.43724
248.0 0.00403 187.91225 239.47125
266.0 0.00376 187.88113 237.71559
251.0 0.00398 187.85001 236.45020
256.0 0.00391 187.81888 235.03683
233.0 0.00429 187.78773 233.77768
211.0 0.00474 187.75656 232.81903
250.0 0.00400 187.72539 231.83815
237.0 0.00422 187.69421 230.98351
235.0 0.00426 187.66302 230.24860
257.0 0.00389 187.63184 229.62837
240.0 0.00417 187.60065 229.11877
251.0 0.00398 187.56941 228.71681
229.0 0.00437 187.53821 228.42068
220.0 0.00455 187.50697 228.72684
205.0 0.00488 187.47575 228.64426
219.0 0.00457 187.44452 228.66771
213.0 0.00469 187.41325 228.79919
214.0 0.00467 187.38199 229.76614
193.0 0.00518 187.35072 230.13019
231.0 0.00433 187.31946 230.61554
196.0 0.00510 187.28818 231.22914
217.0 0.00461 187.25687 232.21727
218.0 0.00459 187.22557 233.11713
217.0 0.00461 187.19426 234.17697
239.0 0.00418 187.16295 235.41168
229.0 0.00437 187.13162 236.83914
230.0 0.00435 187.10028 238.48055
240.0 0.00417 187.06895 240.36115
249.0 0.00402 187.03760 242.51106
222.0 0.00450 187.00626 244.96654
221.0 0.00452 186.97491 247.77094
223.0 0.00448 186.94353 250.97667
225.0 0.00444 186.91214 254.64758
249.0 0.00402 186.88075 258.86157
257.0 0.00389 186.84937 263.71454
237.0 0.00422 186.81796 269.32565
216.0 0.00463 186.78656 275.84402
239.0 0.00418 186.75514 283.45776
262.0 0.00382 186.72371 292.40753
283.0 0.00353 186.69229 303.00418
311.0 0.003215 186.66084 315.65506
272.0 0.00368 186.62939 330.90274
300.0 0.003333 186.59795 349.48874
358.0 0.002793 186.56648 372.46069
398.0 0.002513 186.53502 401.36627
450.0 0.002222 186.50356 438.59760
457.0 0.002188 186.47206 487.95535
554.0 0.001805 186.44058 555.44635
583.0 0.001715 186.40909 650.16663
770.0 0.001299 186.37758 784.88715
911.0 0.001098 186.34607 975.66412
1217.0 0.000822 186.31456 1239.11609
1527.0 0.000655 186.28302 1583.31836
1843.0 0.000543 186.25150 1983.19739
2159.0 0.000463 186.21996 2343.32861
2450.0 0.000408 186.18843 2523.94531
2547.0 0.000393 186.15686 2484.12671
2397.0 0.000417 186.12529 2306.07568
2205.0 0.000454 186.09373 2043.56396
1803.0 0.000555 186.06216 1716.53394
1491.0 0.000671 186.03061 1381.98962
1177.0 0.000850 185.99901 1096.08716
951.0 0.001052 185.96742 876.76074
754.0 0.001326 185.93582 717.06555
647.0 0.001546 185.90422 603.14911
538.0 0.001859 185.87259 521.95660
474.0 0.002110 185.84099 463.28787
394.0 0.002538 185.80937 419.87744
353.0 0.002833 185.77773 386.85620
293.0 0.003413 185.74611 361.07477
282.0 0.00355 185.71445 340.50879
282.0 0.00355 185.68280 323.82880
292.0 0.003425 185.65114 310.12833
288.0 0.003472 185.61946 298.76385
246.0 0.00407 185.58781 289.26340
270.0 0.00370 185.55615 281.27240
243.0 0.00412 185.52444 274.52109
227.0 0.00441 185.49280 268.80103
223.0 0.00448 185.46107 263.94989
256.0 0.00391 185.42938 259.84113
240.0 0.00417 185.39771 256.37561
216.0 0.00463 185.36598 253.47568
221.0 0.00452 185.33426 251.08167
206.0 0.00485 185.30254 249.14845
216.0 0.00463 185.27083 247.64360
228.0 0.00439 185.23907 246.54584
237.0 0.00422 185.20732 245.84465
215.0 0.00465 185.17560 245.53963
237.0 0.00422 185.14383 245.64043
202.0 0.00495 185.11208 246.16733
194.0 0.00515 185.08034 247.15024
210.0 0.00476 185.04857 248.62923
233.0 0.00429 185.01678 250.66281
221.0 0.00452 184.98500 253.34290
224.0 0.00446 184.95323 256.79953
206.0 0.00485 184.92143 261.20306
253.0 0.00395 184.88962 266.78519
256.0 0.00391 184.85783 273.87329
221.0 0.00452 184.82603 282.94193
257.0 0.00389 184.79422 294.70612
259.0 0.00386 184.76241 310.28229
346.0 0.002890 184.73058 331.42548
337.0 0.002967 184.69876 360.81564
364.0 0.002747 184.66692 402.30408
405.0 0.002469 184.63507 460.94781
505.0 0.001980 184.60324 542.52478
564.0 0.001773 184.57140 651.69489
677.0 0.001477 184.53955 786.51660
759.0 0.001318 184.50768 926.80237
841.0 0.001189 184.47581 1027.70630
909.0 0.001100 184.44395 1051.98108
901.0 0.001110 184.41209 1011.96808
871.0 0.001148 184.38020 937.71002
786.0 0.001272 184.34833 837.75269
677.0 0.001477 184.31644 720.91534
653.0 0.001531 184.28455 608.79340
541.0 0.001848 184.25264 516.95148
441.0 0.002268 184.22075 448.48816
396.0 0.002525 184.18886 400.30234
369.0 0.002710 184.15694 368.12585
321.0 0.003115 184.12503 348.43591
335.0 0.002985 184.09309 338.90216
267.0 0.00375 184.06119 338.26999
299.0 0.003344 184.02925 345.87878
313.0 0.003195 183.99733 360.56900
295.0 0.003390 183.96538 378.54639
344.0 0.002907 183.93346 391.78989
340.0 0.002941 183.90149 392.78122
350.0 0.002857 183.86955 382.54611
358.0 0.002793 183.83759 366.49609
311.0 0.003215 183.80563 346.41483
296.0 0.003378 183.77368 323.30890
268.0 0.00373 183.74168 300.70737
287.0 0.003484 183.70973 281.65952
278.0 0.00360 183.67775 266.97775
266.0 0.00376 183.64578 256.16934
237.0 0.00422 183.61378 248.41893
239.0 0.00418 183.58180 242.99826
229.0 0.00437 183.54984 239.38022
211.0 0.00474 183.51782 237.25006
250.0 0.00400 183.48582 236.48071
216.0 0.00463 183.45381 237.09203
216.0 0.00463 183.42181 239.15884
240.0 0.00417 183.38980 242.67558
218.0 0.00459 183.35779 247.19008
242.0 0.00413 183.32576 251.46742
224.0 0.00446 183.29375 254.13547
240.0 0.00417 183.26172 255.19473
213.0 0.00469 183.22971 255.41835
216.0 0.00463 183.19768 254.45888
211.0 0.00474 183.16562 251.39690
233.0 0.00429 183.13359 246.62422
213.0 0.00469 183.10153 241.45233
227.0 0.00441 183.06950 236.51329
205.0 0.00488 183.03743 231.80933
211.0 0.00474 183.00539 227.53087
224.0 0.00446 182.97333 223.98390
247.0 0.00405 182.94127 221.25267
239.0 0.00418 182.90921 219.23393
252.0 0.00397 182.87715 217.77197
205.0 0.00488 182.84509 216.72621
203.0 0.00493 182.81302 215.98705
213.0 0.00469 182.78093 215.47568
219.0 0.00457 182.74884 215.13702
230.0 0.00435 182.71677 214.93457
252.0 0.00397 182.68469 214.84351
226.0 0.00442 182.65259 214.84758
217.0 0.00461 182.62051 214.93593
231.0 0.00433 182.58839 215.10112
234.0 0.00427 182.55632 215.33849
230.0 0.00435 182.52423 215.64528
230.0 0.00435 182.49211 216.02008
225.0 0.00444 182.46001 216.46320
245.0 0.00408 182.42789 216.97603
238.0 0.00420 182.39580 217.56097
231.0 0.00433 182.36368 218.22182
242.0 0.00413 182.33156 218.96359
250.0 0.00400 182.29945 219.79256
255.0 0.00392 182.26733 220.71069
236.0 0.00424 182.23521 221.73972
267.0 0.00375 182.20306 222.88547
242.0 0.00413 182.17094 224.15955
296.0 0.003378 182.13881 225.58559
268.0 0.00373 182.10669 227.18236
301.0 0.003322 182.07455 228.97665
300.0 0.003333 182.04242 231.00180
304.0 0.003289 182.01027 233.29948
336.0 0.002976 181.97813 235.92258
345.0 0.002899 181.94598 238.93872
358.0 0.002793 181.91383 242.43533
321.0 0.003115 181.88168 246.52771
327.0 0.003058 181.84953 251.36952
358.0 0.002793 181.81738 257.16971
351.0 0.002849 181.78522 263.72107
376.0 0.002660 181.75308 272.43228
322.0 0.003106 181.72090 283.40045
363.0 0.002755 181.68875 297.28268
374.0 0.002674 181.65659 316.04102
408.0 0.002451 181.62442 342.14087
422.0 0.002370 181.59225 381.48929
470.0 0.002128 181.56009 447.57040
499.0 0.002004 181.52792 567.28888
672.0 0.001488 181.49574 780.54700
804.0 0.001244 181.46356 1120.41467
1222.0 0.000818 181.43141 1555.04651
1872.0 0.000534 181.39922 1872.27112
2087.0 0.000479 181.36703 1830.11719
1966.0 0.000509 181.33484 1621.43347
1598.0 0.000626 181.30269 1465.59473
1479.0 0.000676 181.27049 1284.73669
1305.0 0.000766 181.23831 1010.05371
1028.0 0.000973 181.20613 750.96094
756.0 0.001323 181.17395 569.38428
589.0 0.001698 181.14175 459.25015
513.0 0.001949 181.10956 397.00342
414.0 0.002415 181.07738 361.59116
431.0 0.002320 181.04517 340.02222
404.0 0.002475 181.01299 325.94168
419.0 0.002387 180.98077 316.44086
346.0 0.002890 180.94859 310.07697
406.0 0.002463 180.91638 306.00095
337.0 0.002967 180.88419 303.68924
382.0 0.002618 180.85199 302.79150
350.0 0.002857 180.81978 303.46460
333.0 0.003003 180.78760 304.77527
331.0 0.003021 180.75537 307.01361
324.0 0.003086 180.72318 310.12372
322.0 0.003106 180.69098 314.27774
317.0 0.003155 180.65877 319.09512
331.0 0.003021 180.62657 324.80069
348.0 0.002874 180.59438 331.45166
348.0 0.002874 180.56216 339.13199
335.0 0.002985 180.52992 347.95474
360.0 0.002778 180.49774 358.06723
368.0 0.002717 180.46552 369.65863
385.0 0.002597 180.43330 382.96884
399.0 0.002506 180.40111 398.30429
419.0 0.002387 180.36890 416.05698
425.0 0.002353 180.33665 436.73419
421.0 0.002375 180.30447 461.00217
435.0 0.002299 180.27225 489.77942
560.0 0.001786 180.24005 524.25543
558.0 0.001792 180.20782 566.23169
607.0 0.001647 180.17563 618.34528
719.0 0.001391 180.14340 684.58826
821.0 0.001218 180.11119 770.89331
936.0 0.001068 180.07896 885.87622
1121.0 0.000892 180.04674 1041.23608
1332.0 0.000751 180.01454 1251.55701
1638.0 0.000611 179.98232 1532.45947
1956.0 0.000511 179.95010 1894.31311
2359.0 0.000424 179.91789 2324.96606
2808.0 0.000356 179.88567 2758.68408
3135.0 0.0003190 179.85347 3070.65918
3435.0 0.0002911 179.82126 3173.44214
3384.0 0.0002955 179.78903 3115.47437
3321.0 0.0003011 179.75681 2990.46191
3156.0 0.0003169 179.72458 2826.73633
2947.0 0.0003393 179.69238 2635.38257
2738.0 0.000365 179.66016 2471.87549
2619.0 0.000382 179.62796 2397.32373
2695.0 0.000371 179.59572 2439.25610
2815.0 0.000355 179.56352 2597.76465
3162.0 0.0003163 179.53130 2846.46924
3531.0 0.0002832 179.49907 3108.47021
3992.0 0.0002505 179.46687 3268.99536
4060.0 0.0002463 179.43468 3278.07275
3932.0 0.0002543 179.40247 3199.57104
3665.0 0.0002729 179.37025 3105.07251
3535.0 0.0002829 179.33804 3012.16357
3393.0 0.0002947 179.30582 2945.08008
3280.0 0.0003049 179.27361 2968.89575
3106.0 0.0003220 179.24139 3147.32910
3471.0 0.0002881 179.20920 3513.11279
3655.0 0.0002736 179.17697 4055.67480
4173.0 0.0002396 179.14478 4692.94238
4730.0 0.0002114 179.11258 5270.79443
5067.0 0.0001974 179.08035 5683.26025
5428.0 0.0001842 179.04817 5972.24512
5624.0 0.0001778 179.01595 6171.31738
5767.0 0.0001734 178.98376 6154.22754
5635.0 0.0001775 178.95155 5802.07666
5106.0 0.0001958 178.91934 5213.94482
4531.0 0.0002207 178.88716 4569.87842
4061.0 0.0002462 178.85497 3933.27075
3328.0 0.0003005 178.82274 3298.34521
2601.0 0.000384 178.79057 2698.29248
2182.0 0.000458 178.75836 2184.70776
1743.0 0.000574 178.72618 1777.38477
1383.0 0.000723 178.69398 1466.78418
1088.0 0.000919 178.66177 1233.14856
952.0 0.001050 178.62961 1057.13220
804.0 0.001244 178.59740 923.04187
720.0 0.001389 178.56520 818.77704
653.0 0.001531 178.53305 736.58954
537.0 0.001862 178.50084 670.26508
507.0 0.001972 178.46866 615.59357
441.0 0.002268 178.43649 570.11816
387.0 0.002584 178.40430 531.69373
407.0 0.002457 178.37212 498.88660
348.0 0.002874 178.33995 470.62540
369.0 0.002710 178.30779 446.08948
336.0 0.002976 178.27560 424.63919
321.0 0.003115 178.24341 405.76801
358.0 0.002793 178.21126 389.07071
309.0 0.003236 178.17908 374.21915
321.0 0.003115 178.14691 360.94543
298.0 0.003356 178.11476 349.02954
287.0 0.003484 178.08260 338.28842
283.0 0.00353 178.05043 328.56946
265.0 0.00377 178.01826 319.74432
273.0 0.00366 177.98611 311.70444
267.0 0.00375 177.95396 304.35751
273.0 0.00366 177.92178 297.63037
251.0 0.00398 177.88963 291.44336
222.0 0.00450 177.85751 285.74362
276.0 0.00362 177.82533 280.48032
254.0 0.00394 177.79321 275.60922
291.0 0.003436 177.76103 271.09433
252.0 0.00397 177.72891 266.89590
262.0 0.00382 177.69678 262.99103
257.0 0.00389 177.66466 259.34482
251.0 0.00398 177.63252 255.93814
238.0 0.00420 177.60039 252.74992
235.0 0.00426 177.56824 249.76151
226.0 0.00442 177.53612 246.95847
209.0 0.00478 177.50400 244.41072
230.0 0.00435 177.47186 241.92944
238.0 0.00420 177.43974 239.59094
242.0 0.00413 177.40764 237.38441
219.0 0.00457 177.37553 235.29988
229.0 0.00437 177.34341 233.37274
227.0 0.00441 177.31128 231.50655
225.0 0.00444 177.27919 229.73784
253.0 0.00395 177.24709 228.05997
198.0 0.00505 177.21500 226.46677
185.0 0.00541 177.18289 224.95247
217.0 0.00461 177.15079 223.51202
251.0 0.00398 177.11870 222.14066
220.0 0.00455 177.08661 220.83411
272.0 0.00368 177.05452 219.58823
226.0 0.00442 177.02245 218.39928
190.0 0.00526 176.99036 217.26398
231.0 0.00433 176.95827 216.17908
224.0 0.00446 176.92621 215.14171
213.0 0.00469 176.89415 214.16415
192.0 0.00521 176.86206 213.21399
205.0 0.00488 176.82999 212.30374
197.0 0.00508 176.79796 211.43138
202.0 0.00495 176.76588 210.59479
214.0 0.00467 176.73383 209.79953
187.0 0.00535 176.70178 209.02904
205.0 0.00488 176.66972 208.29033
198.0 0.00505 176.63766 207.57941
209.0 0.00478 176.60562 206.89598
188.0 0.00532 176.57359 206.23886
231.0 0.00433 176.54155 205.60670
210.0 0.00476 176.50954 204.99908
168.0 0.00595 176.47749 204.41345
179.0 0.00559 176.44548 203.84956
199.0 0.00503 176.41345 203.30641
205.0 0.00488 176.38142 202.78300
213.0 0.00469 176.34943 202.27878
231.0 0.00433 176.31740 201.79257
198.0 0.00505 176.28540 201.32387
193.0 0.00518 176.25342 200.87189
202.0 0.00495 176.22141 200.43597
208.0 0.00481 176.18941 200.01556
206.0 0.00485 176.15739 199.60982
222.0 0.00450 176.12541 199.21849
200.0 0.00500 176.09343 198.84097
176.0 0.00568 176.06146 198.47670
204.0 0.00490 176.02948 198.12521
205.0 0.00488 175.99751 197.78618
194.0 0.00515 175.96552 197.45908
236.0 0.00424 175.93358 197.14371
193.0 0.00518 175.90160 196.78685
210.0 0.00476 175.86967 196.49399
209.0 0.00478 175.83772 196.21172
170.0 0.00588 175.80576 195.93973
212.0 0.00472 175.77382 195.67786
199.0 0.00503 175.74187 195.42569
205.0 0.00488 175.70993 195.18315
177.0 0.00565 175.67799 194.95001
195.0 0.00513 175.64609 194.72600
191.0 0.00524 175.61417 194.51102
200.0 0.00500 175.58224 194.30486
189.0 0.00529 175.55034 194.10748
232.0 0.00431 175.51842 193.91864
200.0 0.00500 175.48651 193.71893
176.0 0.00568 175.45461 193.54726
190.0 0.00526 175.42271 193.38387
173.0 0.00578 175.39084 193.22900
183.0 0.00546 175.35895 192.98189
195.0 0.00513 175.32707 192.85498
166.0 0.00602 175.29518 192.72612
201.0 0.00498 175.26331 192.60593
192.0 0.00521 175.23145 192.49443
190.0 0.00526 175.19958 192.39174
180.0 0.00556 175.16774 192.30359
188.0 0.00532 175.13588 192.21960
191.0 0.00524 175.10405 192.14558
197.0 0.00508 175.07219 192.08171
220.0 0.00455 175.04033 192.02869
182.0 0.00549 175.00851 191.98726
186.0 0.00538 174.97668 191.95815
182.0 0.00549 174.94487 191.94246
195.0 0.00513 174.91306 191.94142
208.0 0.00481 174.88123 191.95653
160.0 0.00625 174.84943 191.98625
194.0 0.00515 174.81761 192.04045
208.0 0.00481 174.78583 192.11850
187.0 0.00535 174.75404 192.22289
193.0 0.00518 174.72226 192.35997
182.0 0.00549 174.69046 192.53970
201.0 0.00498 174.65869 192.76799
218.0 0.00459 174.62692 193.05371
203.0 0.00493 174.59515 193.41089
208.0 0.00481 174.56339 193.84952
206.0 0.00485 174.53165 194.38295
183.0 0.00546 174.49989 195.03725
180.0 0.00556 174.46814 195.86885
207.0 0.00483 174.43640 196.96657
194.0 0.00515 174.40468 198.44292
200.0 0.00500 174.37297 200.43333
204.0 0.00490 174.34122 203.09579
203.0 0.00493 174.30952 206.58044
187.0 0.00535 174.27780 210.92351
180.0 0.00556 174.24609 215.81326
227.0 0.00441 174.21442 220.29713
199.0 0.00503 174.18271 222.98546
175.0 0.00571 174.15103 223.22484
225.0 0.00444 174.11935 221.76089
217.0 0.00461 174.08768 219.58897
228.0 0.00439 174.05600 216.90031
240.0 0.00417 174.02434 213.53864
213.0 0.00469 173.99268 209.80411
213.0 0.00469 173.96104 206.29288
242.0 0.00413 173.92938 203.38048
221.0 0.00452 173.89775 201.13831
241.0 0.00415 173.86612 199.48392
208.0 0.00481 173.83449 198.29613
232.0 0.00431 173.80287 197.46222
212.0 0.00472 173.77126 196.89136
210.0 0.00476 173.73964 196.51509
215.0 0.00465 173.70805 196.28427
190.0 0.00526 173.67645 196.16447
213.0 0.00469 173.64487 196.17007
235.0 0.00426 173.61330 196.20981
211.0 0.00474 173.58170 196.31036
198.0 0.00505 173.55014 196.46394
202.0 0.00495 173.51857 196.66525
188.0 0.00532 173.48703 196.92949
204.0 0.00490 173.45547 197.21657
205.0 0.00488 173.42392 197.54361
197.0 0.00508 173.39238 197.90985
225.0 0.00444 173.36084 198.31506
225.0 0.00444 173.32935 198.75955
211.0 0.00474 173.29781 199.24400
206.0 0.00485 173.26631 199.76982
225.0 0.00444 173.23480 200.33827
208.0 0.00481 173.20331 200.95151
200.0 0.00500 173.17181 201.61191
210.0 0.00476 173.14034 202.32214
236.0 0.00424 173.10886 203.08536
211.0 0.00474 173.07738 203.90526
211.0 0.00474 173.04593 204.78578
214.0 0.00467 173.01447 205.73166
238.0 0.00420 172.98302 206.74802
208.0 0.00481 172.95157 207.84073
206.0 0.00485 172.92014 209.01633
255.0 0.00392 172.88872 210.28220
203.0 0.00493 172.85728 211.64662
238.0 0.00420 172.82588 213.11922
233.0 0.00429 172.79446 214.71042
221.0 0.00452 172.76308 216.43246
198.0 0.00505 172.73170 218.29959
226.0 0.00442 172.70030 220.32637
242.0 0.00413 172.66893 222.53122
262.0 0.00382 172.63754 224.93486
238.0 0.00420 172.60620 227.56102
236.0 0.00424 172.57483 230.43752
263.0 0.00380 172.54347 233.59592
253.0 0.00395 172.51213 237.07362
244.0 0.00410 172.48080 240.91473
267.0 0.00375 172.44948 245.17101
293.0 0.003413 172.41818 249.90414
318.0 0.003145 172.38687 255.19527
342.0 0.002924 172.35555 261.11777
312.0 0.003205 172.32425 267.78696
332.0 0.003012 172.29297 275.33475
327.0 0.003058 172.26169 283.92468
336.0 0.002976 172.23042 293.76605
320.0 0.003125 172.19916 305.11389
378.0 0.002646 172.16791 318.31158
388.0 0.002577 172.13666 333.80423
360.0 0.002778 172.10541 352.17828
401.0 0.002494 172.07417 374.20709
407.0 0.002457 172.04297 400.90579
433.0 0.002309 172.01173 433.63046
474.0 0.002110 171.98051 474.01123
544.0 0.001838 171.94933 524.16614
611.0 0.001637 171.91812 586.40222
723.0 0.001383 171.88693 662.86664
845.0 0.001183 171.85577 755.74829
956.0 0.001046 171.82460 869.59375
1101.0 0.000908 171.79343 1014.50684
1339.0 0.000747 171.76228 1204.75146
1516.0 0.000660 171.73114 1453.33887
1826.0 0.000548 171.70001 1765.61438
2229.0 0.000449 171.66890 2127.65991
2717.0 0.000368 171.63774 2485.75562
3080.0 0.0003247 171.60664 2742.17114
3307.0 0.0003024 171.57553 2817.89673
3230.0 0.0003096 171.54443 2733.75293
3029.0 0.0003301 171.51335 2573.46265
2728.0 0.000367 171.48228 2381.27344
2571.0 0.000389 171.45120 2146.46460
2242.0 0.000446 171.42014 1864.04187
1919.0 0.000521 171.38911 1568.86377
1561.0 0.000641 171.35805 1302.42078
1275.0 0.000784 171.32701 1085.22974
995.0 0.001005 171.29599 918.32123
850.0 0.001176 171.26498 794.91748
683.0 0.001464 171.23396 706.78937
630.0 0.001587 171.20297 646.66162
594.0 0.001684 171.17197 608.25647
450.0 0.002222 171.14099 585.31415
497.0 0.002012 171.11002 569.74121
438.0 0.002283 171.07904 553.42761
392.0 0.002551 171.04810 530.95105
399.0 0.002506 171.01714 504.08899
370.0 0.002703 170.98619 476.79398
380.0 0.002632 170.95526 450.33759
357.0 0.002801 170.92436 423.03027
317.0 0.003155 170.89342 394.79541
289.0 0.003460 170.86252 367.80243
268.0 0.00373 170.83163 344.11029
261.0 0.00383 170.80074 324.42117
256.0 0.00391 170.76987 307.97430
237.0 0.00422 170.73901 295.15982
269.0 0.00372 170.70815 284.84396
255.0 0.00392 170.67731 276.48499
279.0 0.00358 170.64647 268.92725
270.0 0.00370 170.61565 263.29941
245.0 0.00408 170.58481 258.62738
205.0 0.00488 170.55400 254.73495
218.0 0.00459 170.52321 251.18562
201.0 0.00498 170.49240 248.50482
222.0 0.00450 170.46161 246.31389
248.0 0.00403 170.43086 244.56273
243.0 0.00412 170.40007 243.21535
208.0 0.00481 170.36932 242.24742
204.0 0.00490 170.33858 241.64381
241.0 0.00415 170.30785 241.39755
200.0 0.00500 170.27711 241.50786
232.0 0.00431 170.24640 241.97733
235.0 0.00426 170.21568 242.80423
211.0 0.00474 170.18498 243.97127
230.0 0.00435 170.15431 245.44223
206.0 0.00485 170.12361 247.19182
236.0 0.00424 170.09296 249.25446
232.0 0.00431 170.06229 251.71452
224.0 0.00446 170.03163 254.65302
224.0 0.00446 170.00099 258.12833
255.0 0.00392 169.97038 262.20923
241.0 0.00415 169.93976 267.00443
263.0 0.00380 169.90913 272.65649
265.0 0.00377 169.87854 279.32925
283.0 0.00353 169.84795 287.21338
247.0 0.00405 169.81737 296.54605
271.0 0.00369 169.78680 307.63406
301.0 0.003322 169.75624 320.88547
313.0 0.003195 169.72569 336.85632
368.0 0.002717 169.69514 356.32083
378.0 0.002646 169.66461 380.37277
402.0 0.002488 169.63411 410.56445
422.0 0.002370 169.60359 449.07126
527.0 0.001898 169.57309 498.86139
617.0 0.001621 169.54262 563.82263
708.0 0.001412 169.51212 648.75873
792.0 0.001263 169.48167 759.03729
1022.0 0.000978 169.45117 899.28290
1151.0 0.000869 169.42075 1069.75891
1322.0 0.000756 169.39032 1259.07605
1450.0 0.000690 169.35989 1437.39490
1647.0 0.000607 169.32947 1567.06323
1647.0 0.000607 169.29906 1637.07959
1791.0 0.000558 169.26866 1676.53455
1780.0 0.000562 169.23828 1718.78601
1819.0 0.000550 169.20790 1765.93982
1836.0 0.000545 169.17754 1790.42139
1836.0 0.000545 169.14719 1760.62244
1696.0 0.000590 169.11684 1666.68494
1529.0 0.000654 169.08652 1531.01013
1347.0 0.000742 169.05618 1388.45081
1196.0 0.000836 169.02589 1255.48010
1089.0 0.000918 168.99556 1125.74915
1009.0 0.000991 168.96527 991.15002
810.0 0.001235 168.93501 857.32629
770.0 0.001299 168.90474 736.37219
632.0 0.001582 168.87450 635.33588
587.0 0.001704 168.84424 554.71033
483.0 0.002070 168.81401 491.70172
406.0 0.002463 168.78378 442.75986
399.0 0.002506 168.75357 404.64694
359.0 0.002786 168.72337 374.72885
324.0 0.003086 168.69316 350.97491
270.0 0.00370 168.66299 331.87134
283.0 0.00353 168.63283 316.31491
290.0 0.003448 168.60266 303.51144
241.0 0.00415 168.57251 292.89035
255.0 0.00392 168.54239 284.03781
240.0 0.00417 168.51225 276.65085
244.0 0.00410 168.48212 270.50443
236.0 0.00424 168.45204 265.43170
223.0 0.00448 168.42195 261.31000
212.0 0.00472 168.39186 258.05362
215.0 0.00465 168.36180 255.60907
259.0 0.00386 168.33174 253.95438
270.0 0.00370 168.30168 253.10056
233.0 0.00429 168.27165 253.09560
219.0 0.00457 168.24162 254.02965
232.0 0.00431 168.21162 256.04065
244.0 0.00410 168.18161 259.31708
249.0 0.00402 168.15164 264.09409
240.0 0.00417 168.12167 270.62723
261.0 0.00383 168.09169 279.10840
267.0 0.00375 168.06172 289.46634
240.0 0.00417 168.03178 301.07867
290.0 0.003448 168.00186 312.80197
284.0 0.00352 167.97194 323.94556
295.0 0.003390 167.94203 335.46118
324.0 0.003086 167.91212 349.50186
346.0 0.002890 167.88225 367.91840
333.0 0.003003 167.85237 391.67853
416.0 0.002404 167.82253 421.54837
410.0 0.002439 167.79268 459.14426
453.0 0.002208 167.76283 507.36145
518.0 0.001931 167.73300 569.35974
571.0 0.001751 167.70320 645.64154
643.0 0.001555 167.67339 729.63635
697.0 0.001435 167.64360 804.18195
814.0 0.001229 167.61382 846.64966
863.0 0.001159 167.58406 846.80139
792.0 0.001263 167.55431 816.78033
721.0 0.001387 167.52455 775.44940
704.0 0.001420 167.49483 729.70428
645.0 0.001550 167.46512 675.20819
596.0 0.001678 167.43539 610.06689
491.0 0.002037 167.40572 541.31042
466.0 0.002146 167.37604 478.22580
421.0 0.002375 167.34637 425.93271
393.0 0.002545 167.31671 385.32608
318.0 0.003145 167.28706 355.29611
297.0 0.003367 167.25743 334.27161
266.0 0.00376 167.22781 320.86438
304.0 0.003289 167.19820 314.02209
292.0 0.003425 167.16861 312.91632
265.0 0.00377 167.13902 316.56943
287.0 0.003484 167.10945 323.15854
278.0 0.00360 167.07990 329.38254
267.0 0.00375 167.05037 331.30405
279.0 0.00358 167.02083 327.24866
253.0 0.00395 166.99129 319.19638
261.0 0.00383 166.96178 310.07452
247.0 0.00405 166.93228 300.81296
258.0 0.00388 166.90280 290.53351
222.0 0.00450 166.87334 278.69931
248.0 0.00403 166.84389 266.10925
226.0 0.00442 166.81444 253.98622
216.0 0.00463 166.78500 243.17360
214.0 0.00467 166.75560 234.04060
201.0 0.00498 166.72618 226.53688
192.0 0.00521 166.69678 220.32797
185.0 0.00541 166.66740 215.04390
164.0 0.00610 166.63803 210.47717
190.0 0.00526 166.60867 206.56378
200.0 0.00500 166.57932 203.26048
162.0 0.00617 166.55000 200.49446
192.0 0.00521 166.52068 198.17670
186.0 0.00538 166.49136 196.22186
174.0 0.00575 166.46208 194.55769
177.0 0.00565 166.43280 193.12860
175.0 0.00571 166.40355 191.89496
178.0 0.00562 166.37428 190.82765
192.0 0.00521 166.34506 189.90323
156.0 0.00641 166.31583 189.11099
209.0 0.00478 166.28662 188.42117
195.0 0.00513 166.25742 187.83418
177.0 0.00565 166.22821 187.34555
176.0 0.00568 166.19905 186.95341
168.0 0.00595 166.16989 186.65736
182.0 0.00549 166.14076 186.62480
171.0 0.00585 166.11160 186.53249
196.0 0.00510 166.08249 186.55357
181.0 0.00552 166.05336 186.70227
169.0 0.00592 166.02428 186.99937
197.0 0.00508 165.99521 187.47513
186.0 0.00538 165.96613 188.25322
209.0 0.00478 165.93707 189.23672
212.0 0.00472 165.90805 190.59419
207.0 0.00483 165.87901 192.44894
191.0 0.00524 165.84999 194.96565
221.0 0.00452 165.82100 198.35448
214.0 0.00467 165.79202 202.86507
205.0 0.00488 165.76303 208.75737
198.0 0.00505 165.73407 216.21059
224.0 0.00446 165.70512 225.09712
206.0 0.00485 165.67619 234.56805
250.0 0.00400 165.64728 242.71928
226.0 0.00442 165.61836 247.22414
250.0 0.00400 165.58948 247.20007
266.0 0.00376 165.56059 244.04538
244.0 0.00410 165.53172 239.73924
254.0 0.00394 165.50288 234.99472
241.0 0.00415 165.47404 229.32813
233.0 0.00429 165.44524 222.43068
219.0 0.00457 165.41641 214.94238
206.0 0.00485 165.38763 207.85307
198.0 0.00505 165.35884 201.78648
214.0 0.00467 165.33006 196.88441
215.0 0.00465 165.30132 193.03844
175.0 0.00571 165.27258 190.05806
164.0 0.00610 165.24385 187.76146
175.0 0.00571 165.21513 185.98801
168.0 0.00595 165.18645 184.61264
166.0 0.00602 165.15776 183.54080
178.0 0.00562 165.12910 182.70282
181.0 0.00552 165.10045 182.04884
188.0 0.00532 165.07179 181.54333
144.0 0.00694 165.04317 181.16130
184.0 0.00543 165.01456 180.88538
154.0 0.00649 164.98596 180.70326
145.0 0.00690 164.95738 180.60707
163.0 0.00613 164.92880 180.59138
185.0 0.00541 164.90025 180.65390
171.0 0.00585 164.87172 180.79417
175.0 0.00571 164.84319 181.11069
150.0 0.00667 164.81467 181.41446
189.0 0.00529 164.78616 181.80757
160.0 0.00625 164.75768 182.29848
178.0 0.00562 164.72920 182.89816
171.0 0.00585 164.70074 183.62112
196.0 0.00510 164.67233 184.53378
174.0 0.00575 164.64388 185.56339
191.0 0.00524 164.61548 186.78784
191.0 0.00524 164.58705 188.24524
192.0 0.00521 164.55869 189.98553
187.0 0.00535 164.53032 192.07414
209.0 0.00478 164.50195 194.59984
217.0 0.00461 164.47365 197.68442
198.0 0.00505 164.44531 201.49733
223.0 0.00448 164.41701 206.27576
244.0 0.00410 164.38869 212.34836
243.0 0.00412 164.36041 220.16028
219.0 0.00457 164.33214 230.29460
272.0 0.00368 164.30389 243.47871
276.0 0.00362 164.27565 260.55359
283.0 0.00353 164.24744 282.34882
325.0 0.003077 164.21922 309.31699
372.0 0.002688 164.19104 340.68652
384.0 0.002604 164.16286 373.05569
431.0 0.002320 164.13470 399.64871
465.0 0.002151 164.10654 413.12509
466.0 0.002146 164.07841 411.69293
436.0 0.002294 164.05029 400.66937
445.0 0.002247 164.02219 386.42059
424.0 0.002358 163.99411 370.91431
368.0 0.002717 163.96603 352.47366
365.0 0.002740 163.93797 329.78018
318.0 0.003145 163.90991 304.90070
289.0 0.003460 163.88190 281.13770
256.0 0.00391 163.85388 260.61920
239.0 0.00418 163.82587 243.90236
234.0 0.00427 163.79790 230.75201
217.0 0.00461 163.76994 220.46754
202.0 0.00495 163.74199 212.46017
199.0 0.00503 163.71404 206.21461
196.0 0.00510 163.68611 201.31305
186.0 0.00538 163.65820 197.42142
199.0 0.00503 163.63033 194.30209
187.0 0.00535 163.60245 191.77864
175.0 0.00571 163.57458 189.72371
170.0 0.00588 163.54674 188.04605
192.0 0.00521 163.51892 186.68021
164.0 0.00610 163.49109 185.69341
157.0 0.00637 163.46329 184.82568
178.0 0.00562 163.43550 184.16838
190.0 0.00526 163.40773 183.85641
188.0 0.00532 163.37997 183.59390
190.0 0.00526 163.35225 183.53407
186.0 0.00538 163.32452 183.75249
192.0 0.00521 163.29681 184.16980
166.0 0.00602 163.26912 184.88165
171.0 0.00585 163.24146 186.06343
202.0 0.00495 163.21379 187.65808
173.0 0.00578 163.18614 189.87167
188.0 0.00532 163.15849 192.84583
189.0 0.00529 163.13087 196.75352
181.0 0.00552 163.10330 201.68758
213.0 0.00469 163.07573 207.54688
227.0 0.00441 163.04814 213.38925
245.0 0.00408 163.02060 218.80310
230.0 0.00435 162.99306 221.93619
224.0 0.00446 162.96555 222.17012
221.0 0.00452 162.93803 220.11792
212.0 0.00472 162.91054 217.47382
221.0 0.00452 162.88306 214.65773
231.0 0.00433 162.85562 211.43605
224.0 0.00446 162.82817 207.45921
204.0 0.00490 162.80074 202.92879
197.0 0.00508 162.77333 198.46179
183.0 0.00546 162.74594 194.57372
205.0 0.00488 162.71855 191.48058
195.0 0.00513 162.69121 189.18658
199.0 0.00503 162.66385 187.60854
196.0 0.00510 162.63654 186.64522
179.0 0.00559 162.60922 186.17357
139.0 0.00719 162.58194 186.13841
182.0 0.00549 162.55464 186.43477
195.0 0.00513 162.52737 186.79926
190.0 0.00526 162.50014 187.15176
199.0 0.00503 162.47289 187.46935
172.0 0.00581 162.44568 187.87645
199.0 0.00503 162.41847 188.46327
171.0 0.00585 162.39130 189.26648
191.0 0.00524 162.36412 190.30582
219.0 0.00457 162.33698 191.55577
191.0 0.00524 162.30986 193.13353
189.0 0.00529 162.28273 195.16972
202.0 0.00495 162.25563 197.80618
203.0 0.00493 162.22852 201.20557
197.0 0.00508 162.20146 205.56567
181.0 0.00552 162.17439 211.16820
203.0 0.00493 162.14735 218.39218
228.0 0.00439 162.12035 227.73970
215.0 0.00465 162.09334 239.84679
248.0 0.00403 162.06635 255.47142
255.0 0.00392 162.03937 275.41095
287.0 0.003484 162.01241 300.27554
275.0 0.00364 161.98547 329.90015
357.0 0.002801 161.95854 362.24719
366.0 0.002732 161.93166 392.26712
386.0 0.002591 161.90477 412.80936
431.0 0.002320 161.87790 419.33759
397.0 0.002519 161.85103 414.29752
399.0 0.002506 161.82419 404.00089
403.0 0.002481 161.79736 393.11533
343.0 0.002915 161.77057 381.62643
364.0 0.002747 161.74376 367.29279
343.0 0.002915 161.71700 349.38635
355.0 0.002817 161.69023 329.49405
309.0 0.003236 161.66348 309.33542
266.0 0.00376 161.63676 290.20367
261.0 0.00383 161.61009 273.08051
246.0 0.00407 161.58339 258.58646
222.0 0.00450 161.55669 246.60909
205.0 0.00488 161.53004 236.40762
229.0 0.00437 161.50342 227.21556
225.0 0.00444 161.47678 218.76231
193.0 0.00518 161.45018 211.19843
200.0 0.00500 161.42361 204.69891
197.0 0.00508 161.39702 199.27751
170.0 0.00588 161.37047 194.83849
179.0 0.00559 161.34392 191.18961
183.0 0.00546 161.31740 188.19551
160.0 0.00625 161.29091 185.72403
180.0 0.00556 161.26442 183.67033
134.0 0.00746 161.23795 181.95164
180.0 0.00556 161.21149 180.55116
170.0 0.00588 161.18504 179.32578
155.0 0.00645 161.15863 178.28189
163.0 0.00613 161.13225 177.38332
157.0 0.00637 161.10583 176.59264
166.0 0.00602 161.07948 175.87665
156.0 0.00641 161.05313 175.23502
171.0 0.00585 161.02681 174.62885
194.0 0.00515 161.00047 174.08401
155.0 0.00645 160.97415 173.60243
167.0 0.00599 160.94791 173.17851
166.0 0.00602 160.92163 172.80664
196.0 0.00510 160.89536 172.48886
178.0 0.00562 160.86916 172.23454
177.0 0.00565 160.84293 172.05304
171.0 0.00585 160.81673 171.94907
175.0 0.00571 160.79057 171.91678
160.0 0.00625 160.76439 171.93108
181.0 0.00552 160.73825 171.93924
185.0 0.00541 160.71211 171.87381
160.0 0.00625 160.68600 171.69574
173.0 0.00578 160.65993 171.42804
173.0 0.00578 160.63387 171.12762
162.0 0.00617 160.60780 170.83116
212.0 0.00472 160.58174 170.53578
160.0 0.00625 160.55573 170.22020
154.0 0.00649 160.52972 169.87982
168.0 0.00595 160.50374 169.53502
155.0 0.00645 160.47777 169.21135
175.0 0.00571 160.45181 168.92410
165.0 0.00606 160.42587 168.67780
196.0 0.00510 160.39995 168.46616
158.0 0.00633 160.37405 168.28549
181.0 0.00552 160.34818 167.98160
194.0 0.00515 160.32231 167.84813
140.0 0.00714 160.29646 167.73685
172.0 0.00581 160.27063 167.63469
189.0 0.00529 160.24481 167.46918
208.0 0.00481 160.21904 167.38818
200.0 0.00500 160.19325 167.19087
147.0 0.00680 160.16748 167.12621
179.0 0.00559 160.14174 167.07069
172.0 0.00581 160.11603 167.01843
191.0 0.00524 160.09030 166.97151
173.0 0.00578 160.06464 166.86845
157.0 0.00637 160.03896 166.83136
174.0 0.00575 160.01334 166.79849
173.0 0.00578 159.98767 166.76959
173.0 0.00578 159.96207 166.74452
147.0 0.00680 159.93648 166.72314
173.0 0.00578 159.91089 166.70517
182.0 0.00549 159.88530 166.69099
202.0 0.00495 159.85976 166.67969
189.0 0.00529 159.83424 166.67137
159.0 0.00629 159.80872 166.66615
169.0 0.00592 159.78326 166.66414
178.0 0.00562 159.75778 166.66478
154.0 0.00649 159.73232 166.66843
162.0 0.00617 159.70686 166.67490
169.0 0.00592 159.68146 166.68411
178.0 0.00562 159.65605 166.69629
189.0 0.00529 159.63068 166.71115
181.0 0.00552 159.60530 166.72890
192.0 0.00521 159.57997 166.75037
188.0 0.00532 159.55463 166.89406
163.0 0.00613 159.52931 166.92137
186.0 0.00538 159.50401 166.95142
184.0 0.00543 159.47876 166.98454
181.0 0.00552 159.45349 167.02051
187.0 0.00535 159.42824 167.05946
204.0 0.00490 159.40302 167.16187
190.0 0.00526 159.37784 167.20753
169.0 0.00592 159.35265 167.26823
159.0 0.00629 159.32748 167.32037
197.0 0.00508 159.30234 167.37582
187.0 0.00535 159.27721 167.43471
198.0 0.00505 159.25209 167.49706
188.0 0.00532 159.22699 167.55699
190.0 0.00526 159.20192 167.62679
173.0 0.00578 159.17686 167.70650
184.0 0.00543 159.15184 167.78418
197.0 0.00508 159.12682 167.86617
210.0 0.00476 159.10181 167.94951
197.0 0.00508 159.07683 168.04037
209.0 0.00478 159.05188 168.13205
174.0 0.00575 159.02690 168.23334
167.0 0.00599 159.00198 168.33949
187.0 0.00535 158.97708 168.45123
201.0 0.00498 158.95218 168.56685
208.0 0.00481 158.92732 168.69096
193.0 0.00518 158.90247 168.73280
159.0 0.00629 158.87762 168.87166
185.0 0.00541 158.85281 169.01875
182.0 0.00549 158.82800 169.17404
180.0 0.00556 158.80324 169.33904
164.0 0.00610 158.77847 169.47021
160.0 0.00625 158.75374 169.65778
172.0 0.00581 158.72900 169.85861
203.0 0.00493 158.70430 170.07491
167.0 0.00599 158.67961 170.30923
198.0 0.00505 158.65494 170.56519
166.0 0.00602 158.63029 170.84734
203.0 0.00493 158.60567 171.16174
179.0 0.00559 158.58107 171.51628
175.0 0.00571 158.55644 171.92076
166.0 0.00602 158.53189 172.38689
182.0 0.00549 158.50732 172.92770
163.0 0.00613 158.48280 173.55504
187.0 0.00535 158.45828 174.27397
179.0 0.00559 158.43378 175.05490
182.0 0.00549 158.40930 175.87529
175.0 0.00571 158.38483 176.62091
173.0 0.00578 158.36038 177.18315
161.0 0.00621 158.33594 177.52383
181.0 0.00552 158.31155 177.70239
160.0 0.00625 158.28716 177.84039
170.0 0.00588 158.26280 177.98929
195.0 0.00513 158.23845 178.14331
160.0 0.00625 158.21410 178.31453
144.0 0.00694 158.18980 178.39581
175.0 0.00571 158.16551 178.47411
191.0 0.00524 158.14125 178.59853
170.0 0.00588 158.11696 178.80290
180.0 0.00556 158.09274 179.09877
162.0 0.00617 158.06854 179.48856
198.0 0.00505 158.04434 179.98714
172.0 0.00581 158.02014 180.54279
203.0 0.00493 157.99599 181.17702
163.0 0.00613 157.97185 181.88849
186.0 0.00538 157.94771 182.67738
178.0 0.00562 157.92363 183.54517
195.0 0.00513 157.89955 184.49446
189.0 0.00529 157.87546 185.52188
185.0 0.00541 157.85143 186.62680
184.0 0.00543 157.82741 187.80814
182.0 0.00549 157.80339 189.07283
197.0 0.00508 157.77939 190.43726
198.0 0.00505 157.75542 191.92131
227.0 0.00441 157.73148 193.54318
202.0 0.00495 157.70753 195.31874
182.0 0.00549 157.68361 197.26295
211.0 0.00474 157.65974 199.39870
212.0 0.00472 157.63586 201.75560
214.0 0.00467 157.61200 204.36856
219.0 0.00457 157.58817 207.27719
197.0 0.00508 157.56435 210.52669
252.0 0.00397 157.54054 214.21481
230.0 0.00435 157.51678 218.31609
224.0 0.00446 157.49303 222.95274
250.0 0.00400 157.46930 228.22029
253.0 0.00395 157.44556 234.23717
265.0 0.00377 157.42184 241.15204
269.0 0.00372 157.39816 249.15396
255.0 0.00392 157.37451 258.50928
262.0 0.00382 157.35086 269.49481
283.0 0.00353 157.32724 282.56006
314.0 0.003185 157.30365 298.27957
302.0 0.003311 157.28008 317.42874
373.0 0.002681 157.25648 341.03375
412.0 0.002427 157.23294 370.48145
402.0 0.002488 157.20941 407.57874
457.0 0.002188 157.18590 454.37482
505.0 0.001980 157.16240 513.49048
634.0 0.001577 157.13895 587.64166
761.0 0.001314 157.11549 679.06226
890.0 0.001124 157.09207 787.88226
1064.0 0.000940 157.06865 909.05634
1181.0 0.000847 157.04527 1028.46631
1354.0 0.000739 157.02188 1122.53320
1463.0 0.000684 156.99852 1168.84082
1403.0 0.000713 156.97520 1163.14136
1341.0 0.000746 156.95189 1122.92236
1235.0 0.000810 156.92859 1070.98865
1204.0 0.000831 156.90532 1018.58459
1210.0 0.000826 156.88206 962.35645
1146.0 0.000873 156.85884 893.60748
951.0 0.001052 156.83562 810.36133
895.0 0.001117 156.81242 720.32233
737.0 0.001357 156.78923 633.96350
654.0 0.001529 156.76608 558.13586
544.0 0.001838 156.74294 495.11398
466.0 0.002146 156.71983 444.35962
415.0 0.002410 156.69673 404.21567
411.0 0.002433 156.67366 372.84055
365.0 0.002740 156.65059 348.59045
347.0 0.002882 156.62755 330.13303
337.0 0.002967 156.60454 316.45084
303.0 0.003300 156.58151 306.79532
282.0 0.00355 156.55855 300.60614
280.0 0.00357 156.53560 297.37817
313.0 0.003195 156.51263 296.44901
315.0 0.003175 156.48973 296.73807
276.0 0.00362 156.46683 296.67667
281.0 0.00356 156.44394 294.73108
301.0 0.003322 156.42108 290.39178
277.0 0.00361 156.39825 284.47916
314.0 0.003185 156.37541 278.26999
281.0 0.00356 156.35260 272.46255
229.0 0.00437 156.32983 266.91556
255.0 0.00392 156.30707 261.01862
238.0 0.00420 156.28433 254.53929
244.0 0.00410 156.26160 247.81862
233.0 0.00429 156.23889 241.44890
240.0 0.00417 156.21620 235.86043
215.0 0.00465 156.19353 231.21286
220.0 0.00455 156.17090 227.49370
215.0 0.00465 156.14828 224.57820
232.0 0.00431 156.12567 222.35780
210.0 0.00476 156.10309 220.72224
217.0 0.00461 156.08054 219.57959
216.0 0.00463 156.05798 218.85725
217.0 0.00461 156.03545 218.46254
247.0 0.00405 156.01294 218.49840
197.0 0.00508 155.99045 218.76585
201.0 0.00498 155.96802 219.31551
245.0 0.00408 155.94554 220.13950
196.0 0.00510 155.92311 221.21904
206.0 0.00485 155.90071 222.59857
256.0 0.00391 155.87833 224.27249
215.0 0.00465 155.85596 226.29396
233.0 0.00429 155.83362 228.62352
204.0 0.00490 155.81129 231.32968
238.0 0.00420 155.78899 234.45732
203.0 0.00493 155.76669 238.06340
246.0 0.00407 155.74443 242.21866
230.0 0.00435 155.72220 247.01317
236.0 0.00424 155.69995 252.56105
255.0 0.00392 155.67773 259.00906
270.0 0.00370 155.65556 266.54898
265.0 0.00377 155.63339 275.43137
277.0 0.00361 155.61127 285.99210
269.0 0.00372 155.58913 298.67990
296.0 0.003378 155.56702 314.09125
336.0 0.002976 155.54492 333.00949
374.0 0.002674 155.52286 356.44476
396.0 0.002525 155.50082 385.66089
432.0 0.002315 155.47879 422.17279
439.0 0.002278 155.45679 467.67731
505.0 0.001980 155.43480 523.78680
568.0 0.001761 155.41286 591.37921
605.0 0.001653 155.39088 669.17804
729.0 0.001372 155.36897 751.47559
741.0 0.001350 155.34708 826.40326
801.0 0.001248 155.32518 878.09326
801.0 0.001248 155.30331 896.30469
824.0 0.001214 155.28148 884.56262
807.0 0.001239 155.25964 856.85815
759.0 0.001318 155.23784 825.98840
710.0 0.001408 155.21606 795.94629
722.0 0.001385 155.19431 762.79163
684.0 0.001462 155.17256 721.18256
693.0 0.001443 155.15085 671.15521
576.0 0.001736 155.12912 618.27368
541.0 0.001848 155.10744 569.04034
502.0 0.001992 155.08575 527.49023
503.0 0.001988 155.06413 494.95117
423.0 0.002364 155.04251 471.15802
442.0 0.002262 155.02090 455.24478
416.0 0.002404 154.99933 446.28952
414.0 0.002415 154.97777 443.55048
431.0 0.002320 154.95624 446.55499
412.0 0.002427 154.93472 455.13474
433.0 0.002309 154.91319 469.44125
428.0 0.002336 154.89172 489.96115
483.0 0.002070 154.87025 517.52454
507.0 0.001972 154.84885 553.31268
528.0 0.001894 154.82739 598.89764
576.0 0.001736 154.80602 656.38416
700.0 0.001429 154.78464 728.65179
743.0 0.001346 154.76324 819.45703
813.0 0.001230 154.74194 933.07153
914.0 0.001094 154.72061 1073.19775
1035.0 0.000966 154.69931 1240.79907
1127.0 0.000887 154.67805 1430.82251
1335.0 0.000749 154.65680 1630.27283
1379.0 0.000725 154.63554 1822.13281
1465.0 0.000683 154.61433 1991.39294
1719.0 0.000582 154.59314 2114.13013
1924.0 0.000520 154.57196 2143.40308
2338.0 0.000428 154.55080 2065.78931
2212.0 0.000452 154.52968 1944.31750
1930.0 0.000518 154.50856 1840.29041
1649.0 0.000606 154.48746 1772.14575
1548.0 0.000646 154.46638 1730.84668
1771.0 0.000565 154.44534 1688.65967
1720.0 0.000581 154.42430 1627.07190
1791.0 0.000558 154.40329 1570.11267
1634.0 0.000612 154.38229 1552.26453
1579.0 0.000633 154.36133 1586.19556
1561.0 0.000641 154.34038 1665.45996
1723.0 0.000580 154.31944 1771.43188
1805.0 0.000554 154.29852 1879.23767
1775.0 0.000563 154.27765 1966.39966
1951.0 0.000513 154.25677 2018.52551
1868.0 0.000535 154.23592 2027.09985
1932.0 0.000518 154.21510 1989.95374
1897.0 0.000527 154.19429 1914.85486
1771.0 0.000565 154.17351 1815.91357
1687.0 0.000593 154.15273 1704.85620
1530.0 0.000654 154.13200 1587.26892
1434.0 0.000697 154.11127 1463.34424
1278.0 0.000782 154.09056 1331.59155
1098.0 0.000911 154.06989 1194.47424
929.0 0.001076 154.04922 1060.01624
862.0 0.001160 154.02858 937.03387
782.0 0.001279 154.00797 830.88733
700.0 0.001429 153.98734 742.81366
593.0 0.001686 153.96675 671.31720
517.0 0.001934 153.94620 613.67004
521.0 0.001919 153.92567 566.98474
458.0 0.002183 153.90515 528.91559
431.0 0.002320 153.88466 497.92944
444.0 0.002252 153.86417 473.12216
441.0 0.002268 153.84370 453.87399
454.0 0.002203 153.82327 439.65958
378.0 0.002646 153.80286 430.04749
442.0 0.002262 153.78247 424.81125
434.0 0.002304 153.76207 424.03229
437.0 0.002288 153.74171 428.11484
461.0 0.002169 153.72139 437.66550
476.0 0.002101 153.70108 453.30173
567.0 0.001764 153.68079 475.55585
551.0 0.001815 153.66049 504.21094
587.0 0.001704 153.64026 537.59247
710.0 0.001408 153.62003 571.49701
696.0 0.001437 153.59981 599.08008
722.0 0.001385 153.57962 613.54230
740.0 0.001351 153.55943 612.67041
697.0 0.001435 153.53929 600.70532
740.0 0.001351 153.51917 584.68781
617.0 0.001621 153.49905 569.41986
615.0 0.001626 153.47897 555.43701
633.0 0.001580 153.45891 540.33636
608.0 0.001645 153.43886 521.99030
573.0 0.001745 153.41882 500.97607
521.0 0.001919 153.39882 480.03867
535.0 0.001869 153.37885 461.92892
519.0 0.001927 153.35887 448.16064
500.0 0.002000 153.33893 439.30035
489.0 0.002045 153.31902 435.73672
449.0 0.002227 153.29912 438.06079
465.0 0.002151 153.27924 447.01529
437.0 0.002288 153.25935 463.39856
495.0 0.002020 153.23953 488.08954
547.0 0.001828 153.21968 522.20715
593.0 0.001686 153.19991 567.17169
613.0 0.001631 153.18011 624.42853
652.0 0.001534 153.16035 694.55536
758.0 0.001319 153.14061 775.60339
781.0 0.001280 153.12091 860.79724
885.0 0.001130 153.10121 937.05438
961.0 0.001041 153.08154 987.97742
1000.0 0.001000 153.06189 1003.15662
949.0 0.001054 153.04227 986.31287
911.0 0.001098 153.02264 952.02820
872.0 0.001147 153.00305 914.37042
873.0 0.001145 152.98349 878.88159
866.0 0.001155 152.96391 842.33575
782.0 0.001279 152.94438 798.41766
761.0 0.001314 152.92488 744.82855
688.0 0.001453 152.90540 685.70813
670.0 0.001493 152.88594 628.10187
626.0 0.001597 152.86649 577.71509
563.0 0.001776 152.84706 537.51886
563.0 0.001776 152.82765 508.35010
560.0 0.001786 152.80827 489.83096
517.0 0.001934 152.78891 480.91556
477.0 0.002096 152.76956 480.01605
519.0 0.001927 152.75023 484.94290
534.0 0.001873 152.73094 493.12527
539.0 0.001855 152.71165 502.54318
513.0 0.001949 152.69238 512.80035
550.0 0.001818 152.67313 524.76563
528.0 0.001894 152.65392 538.53790
527.0 0.001898 152.63474 551.49603
543.0 0.001842 152.61555 558.38971
569.0 0.001757 152.59637 554.31641
558.0 0.001792 152.57726 538.59174
521.0 0.001919 152.55812 515.33142
491.0 0.002037 152.53903 490.03275
458.0 0.002183 152.51997 465.99753
447.0 0.002237 152.50092 443.29553
401.0 0.002494 152.48187 420.09497
407.0 0.002457 152.46288 395.02356
390.0 0.002564 152.44386 368.60623
387.0 0.002584 152.42490 342.67920
314.0 0.003185 152.40594 318.95972
312.0 0.003205 152.38701 298.32803
294.0 0.003401 152.36809 280.90872
281.0 0.00356 152.34921 266.41388
273.0 0.00366 152.33034 254.41064
256.0 0.00391 152.31149 244.45821
272.0 0.00368 152.29266 236.16568
244.0 0.00410 152.27388 229.20645
219.0 0.00457 152.25510 223.31432
243.0 0.00412 152.23634 218.27945
213.0 0.00469 152.21758 213.93713
233.0 0.00429 152.19887 210.15858
231.0 0.00433 152.18016 206.84552
241.0 0.00415 152.16147 203.91707
203.0 0.00493 152.14281 201.31358
213.0 0.00469 152.12418 199.02327
230.0 0.00435 152.10556 196.93361
200.0 0.00500 152.08696 195.04982
197.0 0.00508 152.06837 193.34581
202.0 0.00495 152.04982 191.80026
179.0 0.00559 152.03130 190.39603
208.0 0.00481 152.01277 189.11688
217.0 0.00461 151.99426 187.95082
208.0 0.00481 151.97581 186.90607
221.0 0.00452 151.95735 185.93669
197.0 0.00508 151.93892 185.05406
180.0 0.00556 151.92050 184.25197
208.0 0.00481 151.90211 183.52573
177.0 0.00565 151.88373 182.87140
169.0 0.00592 151.86539 182.28616
182.0 0.00549 151.84706 181.76831
172.0 0.00581 151.82875 181.31696
194.0 0.00515 151.81047 180.93250
180.0 0.00556 151.79221 180.61620
198.0 0.00505 151.77397 180.37114
207.0 0.00483 151.75571 180.20137
203.0 0.00493 151.73750 180.11374
199.0 0.00503 151.71933 180.11722
180.0 0.00556 151.70117 180.22440
205.0 0.00488 151.68303 180.45607
200.0 0.00500 151.66490 180.82507
195.0 0.00513 151.64680 181.36433
180.0 0.00556 151.62874 182.11034
180.0 0.00556 151.61067 183.10878
187.0 0.00535 151.59264 184.41449
196.0 0.00510 151.57462 186.08966
205.0 0.00488 151.55659 188.20732
193.0 0.00518 151.53862 190.79018
193.0 0.00518 151.52068 193.84294
181.0 0.00552 151.50273 197.29277
193.0 0.00518 151.48483 201.00546
189.0 0.00529 151.46692 204.85709
216.0 0.00463 151.44904 208.77521
179.0 0.00559 151.43120 212.69449
193.0 0.00518 151.41336 216.10207
172.0 0.00581 151.39555 218.46884
204.0 0.00490 151.37776 219.17307
174.0 0.00575 151.35999 218.28647
174.0 0.00575 151.34224 216.39563
192.0 0.00521 151.32451 214.22461
179.0 0.00559 151.30681 212.21762
230.0 0.00435 151.28911 210.42525
166.0 0.00602 151.27144 208.51114
173.0 0.00578 151.25378 206.27400
208.0 0.00481 151.23616 203.62082
167.0 0.00599 151.21858 200.71492
187.0 0.00535 151.20097 197.76933
224.0 0.00446 151.18341 194.99435
199.0 0.00503 151.16588 192.56476
198.0 0.00505 151.14835 190.57724
205.0 0.00488 151.13084 189.08522
210.0 0.00476 151.11334 187.90091
204.0 0.00490 151.09590 186.97990
202.0 0.00495 151.07846 186.26027
194.0 0.00515 151.06104 185.74852
197.0 0.00508 151.04364 185.49545
201.0 0.00498 151.02626 185.55801
199.0 0.00503 151.00891 186.00850
208.0 0.00481 150.99158 186.82864
177.0 0.00565 150.97426 188.07651
222.0 0.00450 150.95694 189.77879
221.0 0.00452 150.93968 191.94846
205.0 0.00488 150.92241 194.57289
229.0 0.00437 150.90517 197.62193
215.0 0.00465 150.88797 201.09935
247.0 0.00405 150.87077 205.11868
234.0 0.00427 150.85361 209.92001
245.0 0.00408 150.83646 215.78229
306.0 0.003268 150.81932 222.88158
268.0 0.00373 150.80220 231.12819
347.0 0.002882 150.78511 239.98535
310.0 0.003226 150.76804 248.33527
344.0 0.002907 150.75102 254.62856
331.0 0.003021 150.73396 257.55780
324.0 0.003086 150.71696 256.93304
374.0 0.002674 150.70000 253.84683
319.0 0.003135 150.68300 249.85681
314.0 0.003185 150.66606 246.02261
306.0 0.003268 150.64912 242.50922
338.0 0.002959 150.63222 238.80031
305.0 0.003279 150.61533 234.29245
259.0 0.00386 150.59846 228.88902
255.0 0.00392 150.58162 223.01749
267.0 0.00375 150.56482 217.32558
245.0 0.00408 150.54800 212.26352
259.0 0.00386 150.53120 207.98489
208.0 0.00481 150.51447 204.45122
249.0 0.00402 150.49771 201.57326
219.0 0.00457 150.48099 199.28873
240.0 0.00417 150.46428 197.55992
207.0 0.00483 150.44760 196.36905
233.0 0.00429 150.43094 195.60051
228.0 0.00439 150.41431 195.19946
191.0 0.00524 150.39767 195.09534
206.0 0.00485 150.38109 195.25354
232.0 0.00431 150.36450 195.67805
221.0 0.00452 150.34795 196.39610
218.0 0.00459 150.33141 197.43803
218.0 0.00459 150.31488 198.83253
216.0 0.00463 150.29839 200.61606
187.0 0.00535 150.28192 202.81190
203.0 0.00493 150.26546 205.48778
204.0 0.00490 150.24902 208.68884
247.0 0.00405 150.23262 212.51762
223.0 0.00448 150.21622 217.09691
262.0 0.00382 150.19983 222.58943
257.0 0.00389 150.18349 229.20900
228.0 0.00439 150.16716 237.23268
250.0 0.00400 150.15085 247.01335
300.0 0.003333 150.13455 258.99765
289.0 0.003460 150.11827 273.71069
304.0 0.003289 150.10202 291.77551
358.0 0.002793 150.08578 313.86032
345.0 0.002899 150.06958 340.56064
365.0 0.002740 150.05339 372.13339
379.0 0.002639 150.03719 407.97894
382.0 0.002618 150.02106 445.87207
433.0 0.002309 150.00493 481.35992
421.0 0.002375 149.98883 508.42044
442.0 0.002262 149.97272 522.23920
467.0 0.002141 149.95663 522.49933
451.0 0.002217 149.94060 513.62537
494.0 0.002024 149.92456 501.43628
457.0 0.002188 149.90855 489.56970
428.0 0.002336 149.89256 478.17328
427.0 0.002342 149.87659 464.92844
418.0 0.002392 149.86066 447.48264
378.0 0.002646 149.84473 425.63272
415.0 0.002410 149.82881 401.51157
347.0 0.002882 149.81293 377.98026
338.0 0.002959 149.79707 357.11896
344.0 0.002907 149.78120 339.83823
309.0 0.003236 149.76538 326.26447
324.0 0.003086 149.74959 316.24927
322.0 0.003106 149.73378 309.66003
302.0 0.003311 149.71802 306.44174
297.0 0.003367 149.70227 306.59113
316.0 0.003165 149.68654 310.16226
317.0 0.003155 149.67084 317.27145
328.0 0.003049 149.65515 328.11832
352.0 0.002841 149.63948 343.03745
347.0 0.002882 149.62384 362.35818
400.0 0.002500 149.60820 386.50159
443.0 0.002257 149.59261 415.36145
418.0 0.002392 149.57703 447.94556
436.0 0.002294 149.56145 481.45663
487.0 0.002053 149.54591 511.36136
471.0 0.002123 149.53038 532.72980
486.0 0.002058 149.51486 543.18671
502.0 0.001992 149.49939 544.86877
534.0 0.001873 149.48393 543.02997
519.0 0.001927 149.46849 542.81055
529.0 0.001890 149.45305 546.98993
516.0 0.001938 149.43764 555.65173
504.0 0.001984 149.42227 567.37097
516.0 0.001938 149.40691 581.17261
550.0 0.001818 149.39156 597.48981
643.0 0.001555 149.37624 617.15283
636.0 0.001572 149.36092 639.09406
665.0 0.001504 149.34563 658.88947
651.0 0.001536 149.33037 669.84393
715.0 0.001399 149.31512 666.85162
675.0 0.001481 149.29990 650.05164
620.0 0.001613 149.28468 625.08209
596.0 0.001678 149.26950 598.29291
594.0 0.001684 149.25433 573.50897
557.0 0.001795 149.23918 550.70142
552.0 0.001812 149.22404 527.12256
502.0 0.001992 149.20897 499.80856
496.0 0.002016 149.19388 468.25153
434.0 0.002304 149.17882 434.35681
410.0 0.002439 149.16374 401.06348
374.0 0.002674 149.14873 370.64670
334.0 0.002994 149.13370 344.21210
297.0 0.003367 149.11873 321.96152
295.0 0.003390 149.10376 303.60367
279.0 0.00358 149.08884 288.65161
228.0 0.00439 149.07390 276.58777
273.0 0.00366 149.05898 266.93872
261.0 0.00383 149.04408 259.30399
223.0 0.00448 149.02922 253.36240
234.0 0.00427 149.01437 248.87137
247.0 0.00405 148.99956 245.64056
238.0 0.00420 148.98473 243.55466
244.0 0.00410 148.96994 242.54567
214.0 0.00467 148.95517 242.59598
258.0 0.00388 148.94043 243.72923
242.0 0.00413 148.92569 246.01698
255.0 0.00392 148.91098 249.56851
248.0 0.00403 148.89629 254.52734
270.0 0.00370 148.88162 261.04797
293.0 0.003413 148.86697 269.29944
272.0 0.00368 148.85233 279.45114
307.0 0.003257 148.83772 291.67416
299.0 0.003344 148.82314 306.07684
315.0 0.003175 148.80855 322.49341
366.0 0.002732 148.79401 340.14120
375.0 0.002667 148.77946 357.36243
369.0 0.002710 148.76494 371.90204
378.0 0.002646 148.75046 382.00430
408.0 0.002451 148.73598 387.70923
401.0 0.002494 148.72153 391.02972
394.0 0.002538 148.70708 394.76022
442.0 0.002262 148.69266 401.10080
501.0 0.001996 148.67827 411.04495
479.0 0.002088 148.66388 424.58252
517.0 0.001934 148.64954 441.43625
510.0 0.001961 148.63519 461.84573
567.0 0.001764 148.62088 486.66895
603.0 0.001658 148.60658 516.47858
670.0 0.001493 148.59229 550.15656
704.0 0.001420 148.57802 583.79077
747.0 0.001339 148.56380 610.85071
779.0 0.001284 148.54956 624.54346
725.0 0.001379 148.53537 622.19818
708.0 0.001412 148.52118 606.73773
738.0 0.001355 148.50702 584.78412
676.0 0.001479 148.49287 562.28998
654.0 0.001529 148.47874 541.79089
654.0 0.001529 148.46463 522.11920
597.0 0.001675 148.45053 500.34146
541.0 0.001848 148.43646 473.93945
513.0 0.001949 148.42244 443.15320
470.0 0.002128 148.40840 410.45459
465.0 0.002151 148.39438 378.77905
408.0 0.002451 148.38040 350.16684
367.0 0.002725 148.36642 325.50473
339.0 0.002950 148.35246 304.86334
346.0 0.002890 148.33855 287.90057
278.0 0.00360 148.32463 274.15851
274.0 0.00365 148.31075 263.12021
250.0 0.00400 148.29686 254.35320
260.0 0.00385 148.28300 247.50098
267.0 0.00375 148.26917 242.26758
212.0 0.00472 148.25534 238.38698
198.0 0.00505 148.24155 235.59473
243.0 0.00412 148.22777 233.60388
251.0 0.00398 148.21400 232.10825
233.0 0.00429 148.20027 230.84421
217.0 0.00461 148.18654 229.64001
231.0 0.00433 148.17284 228.39969
250.0 0.00400 148.15916 227.08025
195.0 0.00513 148.14549 225.68460
197.0 0.00508 148.13185 224.27229
198.0 0.00505 148.11821 222.81764
238.0 0.00420 148.10460 221.59602
231.0 0.00433 148.09103 220.59567
229.0 0.00437 148.07745 219.80746
236.0 0.00424 148.06389 219.22702
218.0 0.00459 148.05037 218.88640
209.0 0.00478 148.03683 218.82805
199.0 0.00503 148.02335 219.07047
205.0 0.00488 148.00989 219.86751
207.0 0.00483 147.99643 221.23628
191.0 0.00524 147.98299 223.23622
218.0 0.00459 147.96956 225.92795
197.0 0.00508 147.95618 229.35683
251.0 0.00398 147.94278 233.57954
219.0 0.00457 147.92941 238.66280
217.0 0.00461 147.91608 244.68079
250.0 0.00400 147.90276 251.72203
212.0 0.00472 147.88943 259.81155
202.0 0.00495 147.87616 269.43524
262.0 0.00382 147.86288 280.90125
241.0 0.00415 147.84962 294.63766
286.0 0.003497 147.83640 311.62744
275.0 0.00364 147.82320 332.49057
326.0 0.003067 147.81000 357.99847
347.0 0.002882 147.79681 389.12167
363.0 0.002755 147.78366 426.58517
385.0 0.002597 147.77054 470.74289
433.0 0.002309 147.75742 521.21710
419.0 0.002387 147.74431 575.50787
515.0 0.001942 147.73123 628.35602
551.0 0.001815 147.71819 671.82373
601.0 0.001664 147.70511 697.93817
575.0 0.001739 147.69209 703.16827
574.0 0.001742 147.67909 690.91455
559.0 0.001789 147.66609 669.14935
574.0 0.001742 147.65314 645.49023
537.0 0.001862 147.64018 623.75159
491.0 0.002037 147.62724 603.31830
499.0 0.002004 147.61433 580.77405
467.0 0.002141 147.60143 552.84613
448.0 0.002232 147.58855 518.98322
435.0 0.002299 147.57568 481.62228
377.0 0.002653 147.56284 444.34860
377.0 0.002653 147.55002 410.01306
309.0 0.003236 147.53722 380.08090
304.0 0.003289 147.52443 354.90445
295.0 0.003390 147.51166 334.23032
302.0 0.003311 147.49892 317.57614
275.0 0.00364 147.48618 304.41922
280.0 0.00357 147.47346 294.26761
258.0 0.00388 147.46077 286.68237
258.0 0.00388 147.44809 281.23328
250.0 0.00400 147.43542 277.70966
274.0 0.00365 147.42279 275.83026
241.0 0.00415 147.41017 275.46655
258.0 0.00388 147.39758 276.61136
273.0 0.00366 147.38498 279.37677
234.0 0.00427 147.37241 283.98679
254.0 0.00394 147.35988 290.75995
306.0 0.003268 147.34734 300.26096
269.0 0.00372 147.33482 313.24612
286.0 0.003497 147.32233 330.90250
310.0 0.003226 147.30984 354.96286
365.0 0.002740 147.29739 387.77176
375.0 0.002667 147.28496 432.17484
386.0 0.002591 147.27251 490.94144
490.0 0.002041 147.26012 565.06152
534.0 0.001873 147.24773 649.35010
669.0 0.001495 147.23537 726.34473
914.0 0.001094 147.22301 771.80060
1067.0 0.000937 147.21068 780.59314
1065.0 0.000939 147.19836 773.13678
836.0 0.001196 147.18605 769.28107
776.0 0.001289 147.17378 775.67120
730.0 0.001370 147.16153 790.95740
763.0 0.001311 147.14928 809.71503
811.0 0.001233 147.13707 822.35663
911.0 0.001098 147.12485 821.58264
955.0 0.001047 147.11266 812.63153
878.0 0.001139 147.10048 805.27991
820.0 0.001220 147.08833 802.02374
739.0 0.001353 147.07620 797.66095
789.0 0.001267 147.06407 784.99768
754.0 0.001326 147.05197 760.01532
654.0 0.001529 147.03990 724.40814
622.0 0.001608 147.02782 683.70551
601.0 0.001664 147.01579 643.87463
550.0 0.001818 147.00374 608.41675
538.0 0.001859 146.99174 577.50366
537.0 0.001862 146.97975 548.76001
538.0 0.001859 146.96777 519.09540
477.0 0.002096 146.95580 486.77271
434.0 0.002304 146.94386 452.35349
412.0 0.002427 146.93193 417.92673
397.0 0.002519 146.92001 385.64600
348.0 0.002874 146.90814 356.84918
358.0 0.002793 146.89627 332.05219
355.0 0.002817 146.88443 311.13858
323.0 0.003096 146.87257 293.76526
288.0 0.003472 146.86075 279.38797
301.0 0.003322 146.84895 267.58322
271.0 0.00369 146.83717 257.88980
254.0 0.00394 146.82539 249.98842
239.0 0.00418 146.81364 243.48566
264.0 0.00379 146.80190 238.00473
255.0 0.00392 146.79021 233.20418
204.0 0.00490 146.77850 228.83336
222.0 0.00450 146.76682 224.78697
252.0 0.00397 146.75516 221.10191
207.0 0.00483 146.74350 217.86850
233.0 0.00429 146.73189 215.15215
212.0 0.00472 146.72026 212.95758
218.0 0.00459 146.70868 211.23695
203.0 0.00493 146.69707 209.92941
218.0 0.00459 146.68552 209.01343
224.0 0.00446 146.67398 208.53888
190.0 0.00526 146.66246 208.60837
234.0 0.00427 146.65094 209.33928
226.0 0.00442 146.63945 210.80583
226.0 0.00442 146.62798 213.01244
232.0 0.00431 146.61652 215.83018
207.0 0.00483 146.60506 218.93210
217.0 0.00461 146.59364 221.76103
222.0 0.00450 146.58224 223.63321
253.0 0.00395 146.57085 224.02759
211.0 0.00474 146.55946 222.89392
232.0 0.00431 146.54811 220.68634
246.0 0.00407 146.53677 218.06033
235.0 0.00426 146.52545 215.52907
209.0 0.00478 146.51416 213.27664
214.0 0.00467 146.50287 211.17235
226.0 0.00442 146.49159 208.92096
206.0 0.00485 146.48033 206.28992
207.0 0.00483 146.46909 203.27805
218.0 0.00459 146.45787 200.10544
221.0 0.00452 146.44666 197.06735
192.0 0.00521 146.43547 194.39854
220.0 0.00455 146.42430 192.22858
222.0 0.00450 146.41313 190.59872
210.0 0.00476 146.40199 189.49184
232.0 0.00431 146.39087 188.84848
220.0 0.00455 146.37978 188.56934
201.0 0.00498 146.36870 188.51726
185.0 0.00541 146.35760 188.53775
196.0 0.00510 146.34656 188.50818
197.0 0.00508 146.33549 188.38344
191.0 0.00524 146.32449 188.18781
226.0 0.00442 146.31348 187.95682
187.0 0.00535 146.30251 187.69209
220.0 0.00455 146.29153 187.36642
211.0 0.00474 146.28055 186.95688
196.0 0.00510 146.26962 186.46275
191.0 0.00524 146.25871 185.90616
198.0 0.00505 146.24779 185.32437
181.0 0.00552 146.23688 184.75648
178.0 0.00562 146.22603 184.23006
216.0 0.00463 146.21516 183.75787
196.0 0.00510 146.20432 183.35454
199.0 0.00503 146.19348 183.04443
223.0 0.00448 146.18266 182.86592
228.0 0.00439 146.17188 182.88934
235.0 0.00426 146.16110 183.06267
210.0 0.00476 146.15033 183.43454
245.0 0.00408 146.13959 184.01396
258.0 0.00388 146.12888 184.81490
234.0 0.00427 146.11816 185.85686
236.0 0.00424 146.10745 187.16295
255.0 0.00392 146.09679 188.75853
253.0 0.00395 146.08611 190.67075
285.0 0.00351 146.07544 192.91931
290.0 0.003448 146.06482 195.53340
258.0 0.00388 146.05418 198.46121
266.0 0.00376 146.04359 201.67133
292.0 0.003425 146.03302 205.08752
300.0 0.003333 146.02245 208.65506
267.0 0.00375 146.01187 212.40846
287.0 0.003484 146.00134 216.51248
281.0 0.00356 145.99083 221.23235
258.0 0.00388 145.98030 226.86945
286.0 0.003497 145.96982 233.70979
297.0 0.003367 145.95935 242.01625
313.0 0.003195 145.94888 252.04237
311.0 0.003215 145.93846 264.06238
353.0 0.002833 145.92801 278.37936
372.0 0.002688 145.91760 295.28787
342.0 0.002924 145.90720 314.90738
372.0 0.002688 145.89682 336.94705
387.0 0.002584 145.88646 360.37137
402.0 0.002488 145.87610 383.13586
384.0 0.002604 145.86577 402.27930
442.0 0.002262 145.85544 414.76547
464.0 0.002155 145.84514 418.97015
459.0 0.002179 145.83485 415.73483
484.0 0.002066 145.82458 407.87335
429.0 0.002331 145.81433 398.54626
411.0 0.002433 145.80409 389.82010
430.0 0.002326 145.79385 382.14545
394.0 0.002538 145.78365 374.62601
364.0 0.002747 145.77345 365.81561
376.0 0.002660 145.76328 354.76923
373.0 0.002681 145.75308 341.66977
307.0 0.003257 145.74294 327.67661
327.0 0.003058 145.73282 314.19772
298.0 0.003356 145.72270 302.30804
327.0 0.003058 145.71260 292.58078
289.0 0.003460 145.70251 285.19821
331.0 0.003021 145.69243 280.13074
321.0 0.003115 145.68237 277.25870
269.0 0.00372 145.67233 276.47043
269.0 0.00372 145.66229 277.66168
270.0 0.00370 145.65228 280.81836
330.0 0.003030 145.64229 285.98361
320.0 0.003125 145.63229 293.27692
346.0 0.002890 145.62233 302.89838
352.0 0.002841 145.61237 315.13092
340.0 0.002941 145.60243 330.32983
381.0 0.002625 145.59250 348.90985
408.0 0.002451 145.58261 371.29678
408.0 0.002451 145.57271 397.82874
455.0 0.002198 145.56282 428.68170
446.0 0.002242 145.55296 463.86667
547.0 0.001828 145.54312 503.39514
572.0 0.001748 145.53326 547.63672
634.0 0.001577 145.52344 597.48462
634.0 0.001577 145.51363 653.88495
725.0 0.001379 145.50386 716.68250
807.0 0.001239 145.49408 783.24725
833.0 0.001200 145.48430 847.55585
859.0 0.001164 145.47456 900.85980
952.0 0.001050 145.46483 934.34753
926.0 0.001080 145.45512 943.33203
979.0 0.001021 145.44542 929.82574
900.0 0.001111 145.43573 901.40009
912.0 0.001096 145.42603 867.14685
891.0 0.001122 145.41638 833.63300
852.0 0.001174 145.40674 802.95624
747.0 0.001339 145.39711 773.15173
764.0 0.001309 145.38748 740.37598
659.0 0.001517 145.37788 701.57819
688.0 0.001453 145.36829 656.42572
630.0 0.001587 145.35872 607.30878
591.0 0.001692 145.34917 557.88995
543.0 0.001842 145.33961 511.47144
525.0 0.001905 145.33008 470.14383
511.0 0.001957 145.32056 434.67392
452.0 0.002212 145.31105 404.84323
390.0 0.002564 145.30156 379.81793
381.0 0.002625 145.29210 358.49500
362.0 0.002762 145.28262 339.84204
385.0 0.002597 145.27319 323.17319
298.0 0.003356 145.26373 308.22223
321.0 0.003115 145.25432 294.98486
319.0 0.003135 145.24492 283.49203
295.0 0.003390 145.23552 273.66342
261.0 0.00383 145.22617 265.28036
255.0 0.00392 145.21677 258.03644
251.0 0.00398 145.20743 251.63898
268.0 0.00373 145.19809 245.91562
225.0 0.00444 145.18877 240.83318
272.0 0.00368 145.17947 236.46902
251.0 0.00398 145.17017 232.89995
199.0 0.00503 145.16090 230.13567
234.0 0.00427 145.15161 228.07800
234.0 0.00427 145.14235 226.50343
237.0 0.00422 145.13313 225.07886
230.0 0.00435 145.12390 223.44234
216.0 0.00463 145.11470 221.34785
187.0 0.00535 145.10547 218.78780
199.0 0.00503 145.09630 215.96407
213.0 0.00469 145.08714 213.16071
196.0 0.00510 145.07796 210.58728
213.0 0.00469 145.06882 208.30905
211.0 0.00474 145.05969 206.25250
224.0 0.00446 145.05055 204.26260
205.0 0.00488 145.04146 202.19830
180.0 0.00556 145.03238 200.01402
195.0 0.00513 145.02330 197.77611
201.0 0.00498 145.01422 195.60858
210.0 0.00476 145.00517 193.62694
213.0 0.00469 144.99614 191.90269
184.0 0.00543 144.98712 190.46536
187.0 0.00535 144.97809 189.26503
187.0 0.00535 144.96909 188.40114
221.0 0.00452 144.96013 187.78120
185.0 0.00541 144.95114 187.40076
181.0 0.00552 144.94217 187.24702
192.0 0.00521 144.93323 187.31180
201.0 0.00498 144.92430 187.58904
169.0 0.00592 144.91537 188.06181
224.0 0.00446 144.90646 188.78412
212.0 0.00472 144.89757 189.74295
199.0 0.00503 144.88869 190.95479
230.0 0.00435 144.87981 192.44945
180.0 0.00556 144.87097 194.23061
232.0 0.00431 144.86211 196.33571
189.0 0.00529 144.85329 198.80803
199.0 0.00503 144.84447 201.70741
209.0 0.00478 144.83566 205.12535
195.0 0.00513 144.82686 209.18488
242.0 0.00413 144.81807 214.03775
229.0 0.00437 144.80930 219.85995
255.0 0.00392 144.80055 226.84865
262.0 0.00382 144.79182 235.22269
267.0 0.00375 144.78308 245.20441
269.0 0.00372 144.77435 257.00821
317.0 0.003155 144.76566 270.76834
328.0 0.003049 144.75697 286.42691
310.0 0.003226 144.74829 303.55200
373.0 0.002681 144.73961 321.14526
359.0 0.002786 144.73097 337.60376
348.0 0.002874 144.72231 351.03690
429.0 0.002331 144.71370 360.25259
433.0 0.002309 144.70508 365.26611
416.0 0.002404 144.69646 367.52194
382.0 0.002618 144.68785 369.05890
399.0 0.002506 144.67929 371.50604
413.0 0.002421 144.67072 375.42554
380.0 0.002632 144.66216 380.10379
405.0 0.002469 144.65359 383.89920
391.0 0.002558 144.64508 384.84393
374.0 0.002674 144.63655 381.76425
382.0 0.002618 144.62804 374.96423
385.0 0.002597 144.61954 366.04880
361.0 0.002770 144.61105 356.99500
372.0 0.002688 144.60258 349.54727
370.0 0.002703 144.59410 344.40640
369.0 0.002710 144.58566 341.43549
334.0 0.002994 144.57724 339.75101
268.0 0.00373 144.56880 338.03851
348.0 0.002874 144.56038 334.99088
306.0 0.003268 144.55197 329.75665
322.0 0.003106 144.54359 322.37762
296.0 0.003378 144.53523 313.57227
280.0 0.00357 144.52684 304.47348
306.0 0.003268 144.51849 296.09604
332.0 0.003012 144.51015 289.00073
278.0 0.00360 144.50182 283.20145
275.0 0.00364 144.49348 278.26141
282.0 0.00355 144.48518 273.52634
283.0 0.00353 144.47687 268.45273
269.0 0.00372 144.46858 262.87878
303.0 0.003300 144.46033 257.05710
270.0 0.00370 144.45206 251.44998
264.0 0.00379 144.44379 246.48859
226.0 0.00442 144.43555 242.46109
244.0 0.00410 144.42732 239.41734
225.0 0.00444 144.41910 237.35034
249.0 0.00402 144.41089 236.19199
264.0 0.00379 144.40271 235.83704
241.0 0.00415 144.39452 236.27737
262.0 0.00382 144.38632 237.57314
257.0 0.00389 144.37817 239.74460
279.0 0.00358 144.37001 242.92236
253.0 0.00395 144.36189 247.22107
253.0 0.00395 144.35374 252.78310
273.0 0.00366 144.34563 259.79431
286.0 0.003497 144.33751 268.45782
303.0 0.003300 144.32942 279.07144
356.0 0.002809 144.32133 291.99084
385.0 0.002597 144.31326 307.58969
350.0 0.002857 144.30518 326.36978
443.0 0.002257 144.29713 348.84442
420.0 0.002381 144.28908 375.55780
489.0 0.002045 144.28105 406.97311
514.0 0.001946 144.27303 443.39627
577.0 0.001733 144.26501 484.77426
615.0 0.001626 144.25702 530.37756
701.0 0.001427 144.24904 578.25830
734.0 0.001362 144.24104 625.15381
845.0 0.001183 144.23308 666.61224
774.0 0.001292 144.22511 698.37341
870.0 0.001149 144.21715 717.62695
823.0 0.001215 144.20923 723.90155
818.0 0.001222 144.20129 718.84930
787.0 0.001271 144.19337 705.38953
770.0 0.001299 144.18549 686.74438
753.0 0.001328 144.17758 665.46710
698.0 0.001433 144.16968 642.94855
670.0 0.001493 144.16180 619.03625
633.0 0.001580 144.15393 592.91168
658.0 0.001520 144.14609 563.89783
583.0 0.001715 144.13824 532.02789
533.0 0.001876 144.13040 498.03525
520.0 0.001923 144.12257 463.11374
473.0 0.002114 144.11476 428.78622
414.0 0.002415 144.10695 396.39417
367.0 0.002725 144.09915 366.94284
345.0 0.002899 144.09137 340.93988
283.0 0.00353 144.08359 318.45456
308.0 0.003247 144.07582 299.26801
291.0 0.003436 144.06807 283.02060
297.0 0.003367 144.06032 269.31186
266.0 0.00376 144.05258 257.76099
238.0 0.00420 144.04485 248.03247
242.0 0.00413 144.03712 239.84343
229.0 0.00437 144.02942 232.96387
232.0 0.00431 144.02173 227.20952
200.0 0.00500 144.01404 222.43626
207.0 0.00483 144.00636 218.53500
202.0 0.00495 143.99867 215.42592
214.0 0.00467 143.99101 213.05594
198.0 0.00505 143.98337 211.39592
200.0 0.00500 143.97572 210.43446
212.0 0.00472 143.96808 210.13992
222.0 0.00450 143.96046 210.50386
233.0 0.00429 143.95287 211.47273
185.0 0.00541 143.94525 212.92372
214.0 0.00467 143.93765 214.63153
223.0 0.00448 143.93007 216.26100
201.0 0.00498 143.92250 217.43515
248.0 0.00403 143.91492 217.85899
227.0 0.00441 143.90735 217.46689
216.0 0.00463 143.89981 216.42233
206.0 0.00485 143.89227 214.96257
207.0 0.00483 143.88475 213.30408
173.0 0.00578 143.87721 211.55287
212.0 0.00472 143.86971 209.72655
193.0 0.00518 143.86220 207.78201
211.0 0.00474 143.85471 205.65331
203.0 0.00493 143.84721 203.30234
207.0 0.00483 143.83972 200.76973
218.0 0.00459 143.83226 198.15173
184.0 0.00543 143.82480 195.55904
214.0 0.00467 143.81735 193.07030
194.0 0.00515 143.80989 190.73601
201.0 0.00498 143.80244 188.59856
170.0 0.00588 143.79504 186.69957
186.0 0.00538 143.78761 185.07185
165.0 0.00606 143.78020 183.73218
183.0 0.00546 143.77281 182.68204
198.0 0.00505 143.76541 181.91052
171.0 0.00585 143.75803 181.40454
172.0 0.00581 143.75066 181.15120
164.0 0.00610 143.74329 181.14087
190.0 0.00526 143.73592 181.37602
168.0 0.00595 143.72856 181.84409
196.0 0.00510 143.72122 182.55772
195.0 0.00513 143.71390 183.52623
184.0 0.00543 143.70656 184.76012
194.0 0.00515 143.69925 186.26648
200.0 0.00500 143.69194 188.04018
204.0 0.00490 143.68463 190.08327
183.0 0.00546 143.67734 192.28923
185.0 0.00541 143.67004 194.61542
206.0 0.00485 143.66278 197.00555
209.0 0.00478 143.65550 199.46635
199.0 0.00503 143.64822 202.08308
215.0 0.00465 143.64099 205.02686
195.0 0.00513 143.63373 208.49750
199.0 0.00503 143.62650 212.68437
226.0 0.00442 143.61926 217.74310
210.0 0.00476 143.61203 223.79041
225.0 0.00444 143.60483 230.91612
250.0 0.00400 143.59761 239.12320
257.0 0.00389 143.59041 248.37907
256.0 0.00391 143.58322 258.48785
264.0 0.00379 143.57603 268.99115
312.0 0.003205 143.56885 279.10440
300.0 0.003333 143.56168 287.79477
309.0 0.003236 143.55450 294.10031
288.0 0.003472 143.54736 297.55847
309.0 0.003236 143.54019 298.45871
282.0 0.00355 143.53307 297.71588
292.0 0.003425 143.52594 296.45547
318.0 0.003145 143.51880 295.57901
303.0 0.003300 143.51167 295.53354
316.0 0.003165 143.50456 296.27328
295.0 0.003390 143.49745 297.44858
358.0 0.002793 143.49037 298.68768
328.0 0.003049 143.48328 299.88403
319.0 0.003135 143.47618 301.25568
308.0 0.003247 143.46910 303.59091
337.0 0.002967 143.46202 307.56155
311.0 0.003215 143.45497 313.91260
345.0 0.002899 143.44791 323.27893
312.0 0.003205 143.44086 336.20242
381.0 0.002625 143.43381 353.15460
366.0 0.002732 143.42676 374.54565
438.0 0.002283 143.41974 400.60403
426.0 0.002347 143.41272 431.33160
422.0 0.002370 143.40570 465.95462
535.0 0.001869 143.39868 502.65976
546.0 0.001832 143.39169 538.25519
573.0 0.001745 143.38467 568.37720
610.0 0.001639 143.37770 588.58942
566.0 0.001767 143.37071 596.23090
554.0 0.001805 143.36372 591.71686
577.0 0.001733 143.35675 578.33075
542.0 0.001845 143.34979 560.59027
494.0 0.002024 143.34283 542.37494
489.0 0.002045 143.33588 525.77014
525.0 0.001905 143.32893 510.80862
467.0 0.002141 143.32199 495.93051
455.0 0.002198 143.31505 478.97525
431.0 0.002320 143.30811 458.39438
427.0 0.002342 143.30119 434.03943
387.0 0.002584 143.29428 407.15076
354.0 0.002825 143.28737 379.60098
364.0 0.002747 143.28046 353.11734
320.0 0.003125 143.27356 328.85406
318.0 0.003145 143.26666 307.35913
280.0 0.00357 143.25977 288.73318
272.0 0.00368 143.25288 272.81473
253.0 0.00395 143.24602 259.32297
272.0 0.00368 143.23914 247.94077
254.0 0.00394 143.23228 238.36197
213.0 0.00469 143.22543 230.30753
230.0 0.00435 143.21858 223.53914
210.0 0.00476 143.21173 217.85710
203.0 0.00493 143.20486 213.10030
175.0 0.00571 143.19806 209.13113
202.0 0.00495 143.19119 205.81837
208.0 0.00481 143.18439 202.97931
195.0 0.00513 143.17757 200.53398
172.0 0.00581 143.17075 198.27731
172.0 0.00581 143.16394 196.07495
182.0 0.00549 143.15712 193.86185
170.0 0.00588 143.15031 191.65039
178.0 0.00562 143.14352 189.51094
187.0 0.00535 143.13673 187.50993
169.0 0.00592 143.12994 185.68509
175.0 0.00571 143.12317 184.08322
178.0 0.00562 143.11639 182.59943
180.0 0.00556 143.10962 181.28896
179.0 0.00559 143.10286 180.02716
189.0 0.00529 143.09610 178.75995
177.0 0.00565 143.08934 177.48557
179.0 0.00559 143.08260 176.14296
154.0 0.00649 143.07584 174.77350
174.0 0.00575 143.06911 173.37955
172.0 0.00581 143.06236 172.06068
168.0 0.00595 143.05563 170.82788
170.0 0.00588 143.04890 169.70479
167.0 0.00599 143.04218 168.69939
142.0 0.00704 143.03546 167.80171
149.0 0.00671 143.02873 166.98929
160.0 0.00625 143.02203 166.23589
172.0 0.00581 143.01534 165.52130
150.0 0.00667 143.00862 164.84909
166.0 0.00602 143.00192 164.19681
159.0 0.00629 142.99524 163.58684
162.0 0.00617 142.98856 163.02873
151.0 0.00662 142.98187 162.52745
160.0 0.00625 142.97519 162.08479
178.0 0.00562 142.96849 161.69962
173.0 0.00578 142.96182 161.36761
157.0 0.00637 142.95518 161.09851
149.0 0.00671 142.94850 160.86876
153.0 0.00654 142.94183 160.68610
166.0 0.00602 142.93520 160.54892
146.0 0.00685 142.92853 160.45717
167.0 0.00599 142.92189 160.41112
174.0 0.00575 142.91524 160.41022
164.0 0.00610 142.90860 160.45773
168.0 0.00595 142.90198 160.55432
139.0 0.00719 142.89534 160.70039
167.0 0.00599 142.88870 160.89397
166.0 0.00602 142.88208 161.12926
149.0 0.00671 142.87544 161.39256
172.0 0.00581 142.86882 161.66382
156.0 0.00641 142.86223 161.91788
147.0 0.00680 142.85561 162.13251
147.0 0.00680 142.84900 162.29996
177.0 0.00565 142.84239 162.42323
162.0 0.00617 142.83580 162.54134
171.0 0.00585 142.82918 162.67545
155.0 0.00645 142.82259 162.84746
148.0 0.00676 142.81601 163.06895
155.0 0.00645 142.80940 163.34250
164.0 0.00610 142.80283 163.65688
165.0 0.00606 142.79623 164.00523
159.0 0.00629 142.78966 164.38103
170.0 0.00588 142.78308 164.79614
153.0 0.00654 142.77649 165.26140
162.0 0.00617 142.76991 165.79445
159.0 0.00629 142.76337 166.41112
179.0 0.00559 142.75681 167.12448
176.0 0.00568 142.75023 167.94350
147.0 0.00680 142.74367 168.87372
187.0 0.00535 142.73712 169.92049
174.0 0.00575 142.73056 171.09335
176.0 0.00568 142.72400 172.40364
162.0 0.00617 142.71747 173.87299
158.0 0.00633 142.71089 175.52449
196.0 0.00510 142.70436 177.38492
159.0 0.00629 142.69781 179.47244
209.0 0.00478 142.69127 181.80138
188.0 0.00532 142.68474 184.38304
188.0 0.00532 142.67819 187.23711
191.0 0.00524 142.67165 190.40849
181.0 0.00552 142.66512 193.98363
186.0 0.00538 142.65858 198.06094
216.0 0.00463 142.65207 202.79503
227.0 0.00441 142.64555 208.34866
236.0 0.00424 142.63902 214.90024
224.0 0.00446 142.63249 222.64096
227.0 0.00441 142.62598 231.77721
258.0 0.00388 142.61946 242.54344
252.0 0.00397 142.61295 255.14632
274.0 0.00365 142.60643 269.81128
286.0 0.003497 142.59990 286.68164
302.0 0.003311 142.59341 305.73032
307.0 0.003257 142.58690 326.60269
319.0 0.003135 142.58038 348.39929
364.0 0.002747 142.57388 369.53256
361.0 0.002770 142.56738 387.78366
388.0 0.002577 142.56088 400.81403
360.0 0.002778 142.55437 407.08286
405.0 0.002469 142.54785 406.61606
425.0 0.002353 142.54137 401.03189
370.0 0.002703 142.53488 392.73093
381.0 0.002625 142.52837 383.93091
368.0 0.002717 142.52188 375.93756
342.0 0.002924 142.51538 369.00058
339.0 0.002950 142.50890 362.44681
350.0 0.002857 142.50241 355.10284
303.0 0.003300 142.49591 345.91577
291.0 0.003436 142.48943 334.40936
354.0 0.002825 142.48293 320.99689
310.0 0.003226 142.47644 306.64337
302.0 0.003311 142.46996 292.41342
265.0 0.00377 142.46349 279.08057
242.0 0.00413 142.45697 267.03964
282.0 0.00355 142.45050 256.33609
242.0 0.00413 142.44402 246.79495
235.0 0.00426 142.43753 238.18925
216.0 0.00463 142.43106 230.33630
235.0 0.00426 142.42458 223.15152
203.0 0.00493 142.41809 216.64682
208.0 0.00481 142.41161 210.82677
184.0 0.00543 142.40512 205.66896
180.0 0.00556 142.39867 201.20575
186.0 0.00538 142.39218 197.31444
200.0 0.00500 142.38568 193.86842
194.0 0.00515 142.37921 190.74226
171.0 0.00585 142.37274 187.83096
175.0 0.00571 142.36626 185.07777
182.0 0.00549 142.35977 182.47461
173.0 0.00578 142.35329 180.02615
184.0 0.00543 142.34680 177.79730
171.0 0.00585 142.34033 175.78711
167.0 0.00599 142.33386 173.99791
176.0 0.00568 142.32738 172.41998
191.0 0.00524 142.32091 171.03835
181.0 0.00552 142.31444 169.83173
146.0 0.00685 142.30794 168.78998
161.0 0.00621 142.30148 167.88094
170.0 0.00588 142.29498 167.09669
156.0 0.00641 142.28851 166.42442
168.0 0.00595 142.28203 165.85297
172.0 0.00581 142.27553 165.37373
175.0 0.00571 142.26907 164.98421
194.0 0.00515 142.26259 164.67062
159.0 0.00629 142.25610 164.43066
184.0 0.00543 142.24963 164.26198
141.0 0.00709 142.24315 164.16090
165.0 0.00606 142.23665 164.12206
175.0 0.00571 142.23016 164.14317
176.0 0.00568 142.22368 164.20741
161.0 0.00621 142.21719 164.30663
185.0 0.00541 142.21071 164.42865
156.0 0.00641 142.20422 164.56529
172.0 0.00581 142.19774 164.71571
156.0 0.00641 142.19124 164.89363
174.0 0.00575 142.18474 165.10265
157.0 0.00637 142.17825 165.35950
174.0 0.00575 142.17175 165.67630
173.0 0.00578 142.16527 166.05965
194.0 0.00515 142.15875 166.51079
175.0 0.00571 142.15228 167.03038
158.0 0.00633 142.14577 167.61932
177.0 0.00565 142.13927 168.27954
183.0 0.00546 142.13277 169.02084
183.0 0.00546 142.12627 169.85699
185.0 0.00541 142.11977 170.80527
198.0 0.00505 142.11325 171.88641
183.0 0.00546 142.10674 173.11870
173.0 0.00578 142.10023 174.52448
196.0 0.00510 142.09372 176.12949
203.0 0.00493 142.08720 177.96257
190.0 0.00526 142.08069 180.05618
167.0 0.00599 142.07417 182.44946
194.0 0.00515 142.06766 185.18689
202.0 0.00495 142.06113 188.31717
223.0 0.00448 142.05461 191.89288
213.0 0.00469 142.04810 195.96487
202.0 0.00495 142.04156 200.57445
204.0 0.00490 142.03503 205.74275
221.0 0.00452 142.02850 211.45375
232.0 0.00431 142.02197 217.65788
244.0 0.00410 142.01543 224.27928
236.0 0.00424 142.00890 231.25793
227.0 0.00441 142.00235 238.62849
275.0 0.00364 141.99582 246.56607
273.0 0.00366 141.98927 255.39633
298.0 0.003356 141.98273 265.54211
290.0 0.003448 141.97618 277.43649
313.0 0.003195 141.96962 291.43304
319.0 0.003135 141.96306 307.74225
387.0 0.002584 141.95651 326.26556
317.0 0.003155 141.94994 346.57642
403.0 0.002481 141.94337 367.72406
417.0 0.002398 141.93680 388.10275
407.0 0.002457 141.93024 405.62939
409.0 0.002445 141.92369 418.15707
443.0 0.002257 141.91710 424.25928
391.0 0.002558 141.91052 423.92038
375.0 0.002667 141.90395 418.61621
430.0 0.002326 141.89734 410.68454
423.0 0.002364 141.89076 402.43616
368.0 0.002717 141.88419 395.50989
422.0 0.002370 141.87756 390.58566
394.0 0.002538 141.87097 387.50711
377.0 0.002653 141.86438 385.53656
388.0 0.002577 141.85777 383.77130
387.0 0.002584 141.85118 381.59143
344.0 0.002907 141.84456 378.67535
336.0 0.002976 141.83794 374.42236
385.0 0.002597 141.83133 367.22977
344.0 0.002907 141.82471 355.10709
337.0 0.002967 141.81808 337.96744
335.0 0.002985 141.81145 318.43909
327.0 0.003058 141.80481 299.82407
307.0 0.003257 141.79817 284.14285
278.0 0.00360 141.79153 272.09937
253.0 0.00395 141.78490 263.60400
231.0 0.00433 141.77823 258.04486
250.0 0.00400 141.77158 254.21700
254.0 0.00394 141.76494 250.32672
256.0 0.00391 141.75827 244.66574
257.0 0.00389 141.75159 237.21118
268.0 0.00373 141.74492 228.99881
226.0 0.00442 141.73827 221.29701
200.0 0.00500 141.73157 214.77214
201.0 0.00498 141.72490 209.58429
213.0 0.00469 141.71822 205.62543
230.0 0.00435 141.71152 202.72282
166.0 0.00602 141.70482 200.75507
200.0 0.00500 141.69814 199.56763
204.0 0.00490 141.69142 199.19598
189.0 0.00529 141.68472 199.55222
179.0 0.00559 141.67801 200.62520
207.0 0.00483 141.67128 202.42557
231.0 0.00433 141.66455 204.98180
217.0 0.00461 141.65784 208.33362
204.0 0.00490 141.65109 212.52507
225.0 0.00444 141.64435 217.59056
234.0 0.00427 141.63760 223.48186
232.0 0.00431 141.63086 230.09152
230.0 0.00435 141.62411 237.12590
265.0 0.00377 141.61734 244.11055
246.0 0.00407 141.61060 250.43236
251.0 0.00398 141.60382 255.50092
294.0 0.003401 141.59705 258.98111
250.0 0.00400 141.59026 260.95679
279.0 0.00358 141.58348 261.88901
269.0 0.00372 141.57669 262.38455
285.0 0.00351 141.56989 262.92191
242.0 0.00413 141.56310 263.67212
293.0 0.003413 141.55630 264.44873
256.0 0.00391 141.54948 264.77573
258.0 0.00388 141.54265 264.05423
277.0 0.00361 141.53583 261.80249
274.0 0.00365 141.52899 257.87720
283.0 0.00353 141.52217 252.54955
243.0 0.00412 141.51532 246.37953
243.0 0.00412 141.50848 239.98085
231.0 0.00433 141.50163 233.82217
217.0 0.00461 141.49477 228.14206
202.0 0.00495 141.48788 222.96213
221.0 0.00452 141.48102 218.15762
198.0 0.00505 141.47417 213.55348
250.0 0.00400 141.46727 209.01448
205.0 0.00488 141.46039 204.50357
217.0 0.00461 141.45348 200.08528
201.0 0.00498 141.44658 195.87775
188.0 0.00532 141.43968 191.99730
214.0 0.00467 141.43275 188.52278
196.0 0.00510 141.42583 185.48915
170.0 0.00588 141.41890 182.89590
183.0 0.00546 141.41197 180.72214
187.0 0.00535 141.40503 178.93764
182.0 0.00549 141.39807 177.51076
184.0 0.00543 141.39111 176.41310
182.0 0.00549 141.38416 175.59856
174.0 0.00575 141.37721 175.09465
192.0 0.00521 141.37022 174.86488
177.0 0.00565 141.36324 174.90051
179.0 0.00559 141.35625 175.19138
163.0 0.00613 141.34926 175.72565
199.0 0.00503 141.34224 176.48509
170.0 0.00588 141.33524 177.44661
175.0 0.00571 141.32822 178.57431
199.0 0.00503 141.32120 179.86339
194.0 0.00515 141.31416 181.33246
193.0 0.00518 141.30711 182.98653
184.0 0.00543 141.30006 184.83775
155.0 0.00645 141.29301 186.86157
210.0 0.00476 141.28595 188.96640
213.0 0.00469 141.27887 190.98372
154.0 0.00649 141.27179 192.69051
191.0 0.00524 141.26472 193.86739
186.0 0.00538 141.25763 194.41167
212.0 0.00472 141.25052 194.34245
209.0 0.00478 141.24342 193.86067
203.0 0.00493 141.23630 193.20258
217.0 0.00461 141.22917 192.60056
180.0 0.00556 141.22205 192.21471
174.0 0.00575 141.21489 192.11278
200.0 0.00500 141.20776 192.27760
183.0 0.00546 141.20059 192.63745
187.0 0.00535 141.19342 193.10951
199.0 0.00503 141.18626 193.65611
213.0 0.00469 141.17909 194.32475
202.0 0.00495 141.17188 195.22226
208.0 0.00481 141.16470 196.50261
175.0 0.00571 141.15750 198.32127
175.0 0.00571 141.15028 200.81279
213.0 0.00469 141.14305 204.07552
215.0 0.00465 141.13582 208.16422
196.0 0.00510 141.12857 213.07034
210.0 0.00476 141.12134 218.69446
221.0 0.00452 141.11406 224.79793
233.0 0.00429 141.10681 230.97165
210.0 0.00476 141.09953 236.64688
207.0 0.00483 141.09224 241.19852
233.0 0.00429 141.08496 244.14232
246.0 0.00407 141.07764 245.33965
217.0 0.00461 141.07033 245.07071
223.0 0.00448 141.06302 243.91428
235.0 0.00426 141.05568 242.51115
222.0 0.00450 141.04836 241.34732
212.0 0.00472 141.04100 240.63249
220.0 0.00455 141.03363 240.26785
215.0 0.00465 141.02628 239.89053
217.0 0.00461 141.01891 238.99448
228.0 0.00439 141.01151 237.11774
203.0 0.00493 141.00412 234.03398
207.0 0.00483 140.99670 229.85014
208.0 0.00481 140.98929 224.93103
213.0 0.00469 140.98189 219.74188
173.0 0.00578 140.97444 214.68739
208.0 0.00481 140.96700 209.99652
211.0 0.00474 140.95953 205.84116
208.0 0.00481 140.95209 202.13425
204.0 0.00490 140.94461 198.83946
193.0 0.00518 140.93713 195.79950
167.0 0.00599 140.92964 192.89407
224.0 0.00446 140.92213 190.14032
162.0 0.00617 140.91461 187.52055
179.0 0.00559 140.90709 185.08098
173.0 0.00578 140.89958 182.85234
223.0 0.00448 140.89203 180.89597
161.0 0.00621 140.88445 179.18886
168.0 0.00595 140.87691 177.75760
177.0 0.00565 140.86934 176.55853
179.0 0.00559 140.86174 175.59755
186.0 0.00538 140.85417 174.84225
162.0 0.00617 140.84654 174.27304
201.0 0.00498 140.83893 173.87296
158.0 0.00633 140.83131 173.62764
157.0 0.00637 140.82365 173.52766
189.0 0.00529 140.81601 173.55965
175.0 0.00571 140.80835 173.72620
174.0 0.00575 140.80069 174.00676
194.0 0.00515 140.79300 174.40906
200.0 0.00500 140.78531 174.93137
172.0 0.00581 140.77760 175.57732
175.0 0.00571 140.76990 176.35199
179.0 0.00559 140.76216 177.26216
172.0 0.00581 140.75443 178.31812
181.0 0.00552 140.74669 179.53256
202.0 0.00495 140.73892 180.92229
183.0 0.00546 140.73114 182.50749
188.0 0.00532 140.72336 184.31325
189.0 0.00529 140.71556 186.37047
184.0 0.00543 140.70778 188.71884
200.0 0.00500 140.69995 191.39392
208.0 0.00481 140.69212 194.45193
209.0 0.00478 140.68428 197.95135
216.0 0.00463 140.67644 201.96100
227.0 0.00441 140.66856 206.55708
248.0 0.00403 140.66071 211.81999
211.0 0.00474 140.65280 217.82306
220.0 0.00455 140.64491 224.63939
251.0 0.00398 140.63699 232.28912
219.0 0.00457 140.62906 240.72350
245.0 0.00408 140.62114 249.77199
264.0 0.00379 140.61317 259.10178
255.0 0.00392 140.60522 268.19586
306.0 0.003268 140.59727 276.42007
282.0 0.00355 140.58928 283.18640
287.0 0.003484 140.58127 288.18460
289.0 0.003460 140.57326 291.51581
311.0 0.003215 140.56523 293.67642
314.0 0.003185 140.55719 295.36630
329.0 0.003040 140.54916 297.26627
340.0 0.002941 140.54109 299.89749
343.0 0.002915 140.53304 303.56238
359.0 0.002786 140.52495 308.35425
326.0 0.003067 140.51686 314.20175
349.0 0.002865 140.50874 320.95517
318.0 0.003145 140.50061 328.49515
405.0 0.002469 140.49248 336.82300
369.0 0.002710 140.48433 346.05347
385.0 0.002597 140.47617 356.29510
405.0 0.002469 140.46799 367.46692
417.0 0.002398 140.45981 379.15262
408.0 0.002451 140.45160 390.56500
449.0 0.002227 140.44339 400.70297
460.0 0.002174 140.43515 408.65176
447.0 0.002237 140.42690 414.02835
474.0 0.002110 140.41866 417.18143
440.0 0.002273 140.41039 419.11343
423.0 0.002364 140.40210 421.13657
459.0 0.002179 140.39380 424.47528
427.0 0.002342 140.38550 429.99658
442.0 0.002262 140.37718 438.08743
468.0 0.002137 140.36884 448.66562
454.0 0.002203 140.36049 461.27530
457.0 0.002188 140.35213 475.27890
502.0 0.001992 140.34375 490.09009
528.0 0.001894 140.33536 505.30585
541.0 0.001848 140.32695 520.70416
545.0 0.001835 140.31853 536.07056
546.0 0.001832 140.31007 551.07025
545.0 0.001835 140.30165 565.30695
560.0 0.001786 140.29317 578.51477
522.0 0.001916 140.28470 590.65155
530.0 0.001887 140.27620 601.75793
591.0 0.001692 140.26770 611.69000
550.0 0.001818 140.25916 620.03137
533.0 0.001876 140.25066 626.30487
575.0 0.001739 140.24210 630.32111
596.0 0.001678 140.23354 632.33795
591.0 0.001692 140.22496 632.83386
627.0 0.001595 140.21635 632.13733
613.0 0.001631 140.20775 630.14423
548.0 0.001825 140.19913 626.35284
635.0 0.001575 140.19048 620.12799
585.0 0.001709 140.18184 611.04211
526.0 0.001901 140.17317 599.11365
558.0 0.001792 140.16447 584.85797
519.0 0.001927 140.15579 569.17383
525.0 0.001905 140.14706 553.13379
481.0 0.002079 140.13832 537.71393
499.0 0.002004 140.12959 523.50970
472.0 0.002119 140.12082 510.49664
469.0 0.002132 140.11206 498.02496
443.0 0.002257 140.10327 485.03735
450.0 0.002222 140.09445 470.54141
423.0 0.002364 140.08565 454.06998
421.0 0.002375 140.07680 435.89612
437.0 0.002288 140.06793 416.87930
342.0 0.002924 140.05910 398.08429
295.0 0.003390 140.05020 380.41428
358.0 0.002793 140.04129 364.41116
315.0 0.003175 140.03236 350.21848
321.0 0.003115 140.02345 337.64255
272.0 0.00368 140.01450 326.26599
299.0 0.003344 140.00555 315.60028
292.0 0.003425 139.99655 305.23947
295.0 0.003390 139.98756 294.98672
241.0 0.00415 139.97855 284.87582
229.0 0.00437 139.96951 275.09604
229.0 0.00437 139.96048 265.88638
228.0 0.00439 139.95140 257.42148
225.0 0.00444 139.94232 249.81699
205.0 0.00488 139.93324 243.10780
231.0 0.00433 139.92413 237.27496
177.0 0.00565 139.91501 232.26913
234.0 0.00427 139.90587 228.02754
177.0 0.00565 139.89670 224.48802
212.0 0.00472 139.88753 221.59674
191.0 0.00524 139.87833 219.31337
203.0 0.00493 139.86911 217.60832
198.0 0.00505 139.85989 216.45956
188.0 0.00532 139.85063 215.82634
183.0 0.00546 139.84135 215.66380
205.0 0.00488 139.83211 215.89967
221.0 0.00452 139.82280 216.41946
220.0 0.00455 139.81349 217.09116
198.0 0.00505 139.80417 217.77844
225.0 0.00444 139.79482 218.37920
210.0 0.00476 139.78545 218.86705
176.0 0.00568 139.77608 219.27356
191.0 0.00524 139.76665 219.69841
170.0 0.00588 139.75725 220.22841
210.0 0.00476 139.74780 220.89470
216.0 0.00463 139.73836 221.65184
210.0 0.00476 139.72888 222.39491
195.0 0.00513 139.71941 222.99506
205.0 0.00488 139.70988 223.31522
201.0 0.00498 139.70036 223.44913
209.0 0.00478 139.69083 223.39525
204.0 0.00490 139.68126 223.29164
214.0 0.00467 139.67169 223.26375
190.0 0.00526 139.66206 223.41367
226.0 0.00442 139.65247 223.79086
209.0 0.00478 139.64284 224.37776
214.0 0.00467 139.63318 225.12115
228.0 0.00439 139.62352 225.94429
195.0 0.00513 139.61382 226.91211
218.0 0.00459 139.60411 228.06227
220.0 0.00455 139.59439 229.55524
219.0 0.00457 139.58466 231.55629
236.0 0.00424 139.57489 234.23668
230.0 0.00435 139.56512 237.76056
236.0 0.00424 139.55531 242.24240
221.0 0.00452 139.54550 247.76779
233.0 0.00429 139.53568 254.36948
260.0 0.00385 139.52582 262.05765
282.0 0.00355 139.51593 270.76111
260.0 0.00385 139.50603 280.38129
284.0 0.00352 139.49612 290.75687
279.0 0.00358 139.48619 301.69809
309.0 0.003236 139.47626 313.04520
347.0 0.002882 139.46626 324.64758
338.0 0.002959 139.45628 336.36298
344.0 0.002907 139.44627 347.88806
330.0 0.003030 139.43623 358.62946
318.0 0.003145 139.42621 367.69980
319.0 0.003135 139.41612 374.09222
352.0 0.002841 139.40605 377.02078
371.0 0.002695 139.39594 376.27847
340.0 0.002941 139.38582 372.32736
316.0 0.003165 139.37566 366.11136
340.0 0.002941 139.36549 358.75604
303.0 0.003300 139.35532 351.22723
332.0 0.003012 139.34512 344.19482
320.0 0.003125 139.33488 337.93341
293.0 0.003413 139.32465 332.31747
293.0 0.003413 139.31438 326.93298
297.0 0.003367 139.30408 321.23608
292.0 0.003425 139.29379 314.78082
293.0 0.003413 139.28346 307.40936
270.0 0.00370 139.27310 299.30978
278.0 0.00360 139.26276 290.92059
276.0 0.00362 139.25237 282.76733
229.0 0.00437 139.24196 275.31924
304.0 0.003289 139.23154 268.91953
216.0 0.00463 139.22108 263.77313
252.0 0.00397 139.21062 259.96939
213.0 0.00469 139.20013 257.51074
231.0 0.00433 139.18962 256.34018
237.0 0.00422 139.17909 256.36295
267.0 0.00375 139.16853 257.46310
235.0 0.00426 139.15796 259.51071
250.0 0.00400 139.14737 262.35941
300.0 0.003333 139.13675 265.82254
251.0 0.00398 139.12611 269.64935
252.0 0.00397 139.11546 273.52295
264.0 0.00379 139.10478 277.10666
271.0 0.00369 139.09409 280.13742
281.0 0.00356 139.08337 282.51443
278.0 0.00360 139.07263 284.33246
244.0 0.00410 139.06186 285.83286
294.0 0.003401 139.05109 287.31619
281.0 0.00356 139.04025 289.05518
263.0 0.00380 139.02945 291.22067
281.0 0.00356 139.01860 293.81674
275.0 0.00364 139.00772 296.63007
261.0 0.00383 138.99683 299.22778
276.0 0.00362 138.98592 301.03973
263.0 0.00380 138.97498 301.53030
243.0 0.00412 138.96402 300.39908
251.0 0.00398 138.95305 297.71286
276.0 0.00362 138.94203 293.89151
240.0 0.00417 138.93102 289.56717
255.0 0.00392 138.91997 285.40842
290.0 0.003448 138.90891 281.99219
255.0 0.00392 138.89783 279.73917
214.0 0.00467 138.88669 278.90823
235.0 0.00426 138.87556 279.61972
266.0 0.00376 138.86440 281.90683
262.0 0.00382 138.85323 285.79074
273.0 0.00366 138.84201 291.24878
268.0 0.00373 138.83080 298.23004
276.0 0.00362 138.81955 306.29773
287.0 0.003484 138.80829 314.14822
334.0 0.002994 138.79698 319.35242
358.0 0.002793 138.78566 319.24817
382.0 0.002618 138.77432 312.97241
432.0 0.002315 138.76295 302.40979
345.0 0.002899 138.75159 290.70956
304.0 0.003289 138.74017 280.37524
260.0 0.00385 138.72873 272.68726
248.0 0.00403 138.71729 268.03516
243.0 0.00412 138.70580 266.31461
251.0 0.00398 138.69429 267.07397
264.0 0.00379 138.68277 269.38559
255.0 0.00392 138.67122 271.81027
275.0 0.00364 138.65965 272.75409
307.0 0.003257 138.64807 271.45624
336.0 0.002976 138.63644 268.57117
275.0 0.00364 138.62480 265.54874
296.0 0.003378 138.61313 263.63800
290.0 0.003448 138.60143 263.50748
274.0 0.00365 138.58972 265.36734
289.0 0.003460 138.57799 269.18640
287.0 0.003484 138.56622 274.82190
253.0 0.00395 138.55444 282.07178
301.0 0.003322 138.54262 290.67609
314.0 0.003185 138.53079 300.29114
337.0 0.002967 138.51895 310.43390
309.0 0.003236 138.50705 320.42612
339.0 0.002950 138.49515 329.38989
331.0 0.003021 138.48322 336.36121
300.0 0.003333 138.47125 340.53116
352.0 0.002841 138.45927 341.53268
314.0 0.003185 138.44728 339.59952
328.0 0.003049 138.43524 335.48187
342.0 0.002924 138.42320 330.18463
312.0 0.003205 138.41110 324.67529
303.0 0.003300 138.39900 319.64154
283.0 0.00353 138.38689 315.42426
309.0 0.003236 138.37474 312.13342
320.0 0.003125 138.36255 309.47653
323.0 0.003096 138.35036 307.02029
296.0 0.003378 138.33813 304.30481
297.0 0.003367 138.32587 301.01447
269.0 0.00372 138.31361 297.08597
250.0 0.00400 138.30128 292.69312
274.0 0.00365 138.28897 288.12500
270.0 0.00370 138.27661 283.59427
296.0 0.003378 138.26422 279.20612
289.0 0.003460 138.25183 274.82574
280.0 0.00357 138.23940 270.23386
264.0 0.00379 138.22693 265.22205
225.0 0.00444 138.21446 259.73993
220.0 0.00455 138.20195 253.91809
217.0 0.00461 138.18944 248.02443
207.0 0.00483 138.17688 242.37451
218.0 0.00459 138.16428 237.19844
215.0 0.00465 138.15167 232.65273
213.0 0.00469 138.13904 228.75018
232.0 0.00431 138.12637 225.39337
184.0 0.00543 138.11368 222.39818
212.0 0.00472 138.10098 219.54420
193.0 0.00518 138.08823 216.64084
180.0 0.00556 138.07549 213.55702
178.0 0.00562 138.06268 210.28766
187.0 0.00535 138.04985 206.90802
192.0 0.00521 138.03702 203.52621
166.0 0.00602 138.02414 200.24330
197.0 0.00508 138.01125 197.11630
182.0 0.00549 137.99832 194.16431
197.0 0.00508 137.98535 191.38454
171.0 0.00585 137.97240 188.76291
183.0 0.00546 137.95937 186.31108
167.0 0.00599 137.94633 184.05093
163.0 0.00613 137.93329 181.99681
161.0 0.00621 137.92020 180.16776
159.0 0.00629 137.90709 178.56105
165.0 0.00606 137.89395 177.16974
152.0 0.00658 137.88077 175.96164
174.0 0.00575 137.86758 174.90593
154.0 0.00649 137.85437 173.96533
173.0 0.00578 137.84111 173.10661
168.0 0.00595 137.82784 172.30881
185.0 0.00541 137.81454 171.56601
155.0 0.00645 137.80119 170.88684
167.0 0.00599 137.78784 170.28551
164.0 0.00610 137.77446 169.78087
172.0 0.00581 137.76105 169.38370
165.0 0.00606 137.74759 169.10429
158.0 0.00633 137.73413 168.94139
146.0 0.00685 137.72064 168.89368
164.0 0.00610 137.70711 168.95035
157.0 0.00637 137.69356 169.10027
172.0 0.00581 137.67998 169.32993
158.0 0.00633 137.66637 169.62994
162.0 0.00617 137.65273 169.99040
170.0 0.00588 137.63907 170.41365
159.0 0.00629 137.62535 170.91051
140.0 0.00714 137.61165 171.49524
172.0 0.00581 137.59790 172.17827
176.0 0.00568 137.58412 172.97118
159.0 0.00629 137.57030 173.88091
178.0 0.00562 137.55647 174.91318
185.0 0.00541 137.54262 176.07310
193.0 0.00518 137.52872 177.36526
139.0 0.00719 137.51480 178.79221
170.0 0.00588 137.50082 180.35266
155.0 0.00645 137.48686 182.03331
190.0 0.00526 137.47287 183.80484
166.0 0.00602 137.45882 185.61510
168.0 0.00595 137.44475 187.39275
184.0 0.00543 137.43066 189.06084
199.0 0.00503 137.41653 190.56288
179.0 0.00559 137.40239 191.88609
199.0 0.00503 137.38820 193.07199
192.0 0.00521 137.37399 194.20615
163.0 0.00613 137.35976 195.38835
199.0 0.00503 137.34547 196.71947
208.0 0.00481 137.33118 198.28340
188.0 0.00532 137.31685 200.14514
215.0 0.00465 137.30247 202.35001
197.0 0.00508 137.28810 204.92865
203.0 0.00493 137.27368 207.90303
210.0 0.00476 137.25922 211.29552
230.0 0.00435 137.24475 215.14110
217.0 0.00461 137.23024 219.49315
228.0 0.00439 137.21571 224.41733
240.0 0.00417 137.20114 229.97185
236.0 0.00424 137.18654 236.18213
251.0 0.00398 137.17191 243.01114
283.0 0.00353 137.15727 250.34157
257.0 0.00389 137.14256 257.97034
259.0 0.00386 137.12784 265.63907
271.0 0.00369 137.11311 273.09241
262.0 0.00382 137.09831 280.15381
290.0 0.003448 137.08351 286.77563
320.0 0.003125 137.06866 293.01996
294.0 0.003401 137.05379 298.97781
302.0 0.003311 137.03889 304.67374
292.0 0.003425 137.02396 310.01559
268.0 0.00373 137.00900 314.83386
309.0 0.003236 136.99400 318.98083
307.0 0.003257 136.97896 322.43259
306.0 0.003268 136.96391 325.32764
332.0 0.003012 136.94884 327.93445
340.0 0.002941 136.93370 330.57877
330.0 0.003030 136.91856 333.58487
340.0 0.002941 136.90338 337.25629
363.0 0.002755 136.88817 341.77316
347.0 0.002882 136.87292 347.27286
397.0 0.002519 136.85765 353.75253
380.0 0.002632 136.84235 361.08185
401.0 0.002494 136.82701 369.01935
372.0 0.002688 136.81165 377.25027
412.0 0.002427 136.79625 385.42853
374.0 0.002674 136.78081 393.20129
408.0 0.002451 136.76534 400.20633
406.0 0.002463 136.74985 406.04883
421.0 0.002375 136.73434 410.28607
428.0 0.002336 136.71877 412.48114
403.0 0.002481 136.70317 412.32370
399.0 0.002506 136.68755 409.76868
372.0 0.002688 136.67189 405.05347
405.0 0.002469 136.65620 398.67496
398.0 0.002513 136.64049 391.21646
372.0 0.002688 136.62473 383.22345
405.0 0.002469 136.60895 375.12286
344.0 0.002907 136.59312 367.18698
381.0 0.002625 136.57729 359.52390
364.0 0.002747 136.56140 352.08575
348.0 0.002874 136.54547 344.70941
324.0 0.003086 136.52954 337.17731
337.0 0.002967 136.51357 329.28088
309.0 0.003236 136.49754 321.04547
301.0 0.003322 136.48151 312.53580
309.0 0.003236 136.46544 303.97235
294.0 0.003401 136.44931 295.63858
320.0 0.003125 136.43318 287.82474
270.0 0.00370 136.41701 280.79895
287.0 0.003484 136.40079 274.77112
270.0 0.00370 136.38455 269.89362
261.0 0.00383 136.36826 266.24744
248.0 0.00403 136.35196 263.81796
246.0 0.00407 136.33562 262.57172
279.0 0.00358 136.31923 262.34317
256.0 0.00391 136.30284 262.90848
270.0 0.00370 136.28639 263.97659
229.0 0.00437 136.26991 265.21964
268.0 0.00373 136.25340 266.32785
272.0 0.00368 136.23686 267.07190
268.0 0.00373 136.22029 267.33893
258.0 0.00388 136.20367 267.13651
238.0 0.00420 136.18703 266.53668
284.0 0.00352 136.17035 265.62109
264.0 0.00379 136.15366 264.45081
267.0 0.00375 136.13689 263.07391
267.0 0.00375 136.12012 261.54797
267.0 0.00375 136.10330 259.93460
246.0 0.00407 136.08644 258.30838
230.0 0.00435 136.06956 256.71771
233.0 0.00429 136.05264 255.17856
282.0 0.00355 136.03569 253.68903
228.0 0.00439 136.01872 252.19919
236.0 0.00424 136.00169 250.67323
238.0 0.00420 135.98463 249.03656
239.0 0.00418 135.96756 247.18816
230.0 0.00435 135.95041 245.02475
266.0 0.00376 135.93327 242.48424
240.0 0.00417 135.91608 239.58191
254.0 0.00394 135.89883 236.41795
264.0 0.00379 135.88158 233.14745
207.0 0.00483 135.86427 229.94023
203.0 0.00493 135.84694 226.94420
229.0 0.00437 135.82957 224.25629
213.0 0.00469 135.81216 221.93121
204.0 0.00490 135.79472 219.98001
241.0 0.00415 135.77727 218.38342
209.0 0.00478 135.75975 217.11446
220.0 0.00455 135.74220 216.12404
210.0 0.00476 135.72462 215.40231
222.0 0.00450 135.70699 214.94678
204.0 0.00490 135.68935 214.81807
212.0 0.00472 135.67166 215.06105
223.0 0.00448 135.65393 215.74370
234.0 0.00427 135.63618 216.93143
231.0 0.00433 135.61839 218.68999
230.0 0.00435 135.60056 221.07635
211.0 0.00474 135.58269 224.15681
225.0 0.00444 135.56479 227.95145
235.0 0.00426 135.54684 232.49806
294.0 0.003401 135.52888 237.82666
258.0 0.00388 135.51085 243.93129
248.0 0.00403 135.49281 250.79863
275.0 0.00364 135.47473 258.41180
281.0 0.00356 135.45660 266.74573
263.0 0.00380 135.43846 275.77008
299.0 0.003344 135.42026 285.40231
307.0 0.003257 135.40202 295.45789
316.0 0.003165 135.38377 305.59531
315.0 0.003175 135.36546 315.30017
335.0 0.002985 135.34712 323.94983
348.0 0.002874 135.32875 330.90909
336.0 0.002976 135.31035 335.67935
345.0 0.002899 135.29189 338.00244
329.0 0.003040 135.27341 337.87091
341.0 0.002933 135.25487 335.54156
328.0 0.003049 135.23631 331.45959
341.0 0.002933 135.21773 326.19263
324.0 0.003086 135.19908 320.32901
292.0 0.003425 135.18040 314.36160
317.0 0.003155 135.16170 308.59647
312.0 0.003205 135.14294 303.11349
311.0 0.003215 135.12419 297.79596
313.0 0.003195 135.10535 292.41394
299.0 0.003344 135.08649 286.72287
289.0 0.003460 135.06760 280.54736
270.0 0.00370 135.04866 273.82135
258.0 0.00388 135.02968 266.59250
287.0 0.003484 135.01068 259.00784
288.0 0.003472 134.99162 251.28542
260.0 0.00385 134.97255 243.67500
258.0 0.00388 134.95341 236.41907
242.0 0.00413 134.93425 229.71146
221.0 0.00452 134.91507 223.68260
228.0 0.00439 134.89583 218.39346
249.0 0.00402 134.87654 213.84453
233.0 0.00429 134.85724 209.98959
213.0 0.00469 134.83789 206.74199
239.0 0.00418 134.81848 203.98596
202.0 0.00495 134.79907 201.58385
235.0 0.00426 134.77959 199.41017
206.0 0.00485 134.76009 197.34784
218.0 0.00459 134.74054 195.32375
220.0 0.00455 134.72096 193.31374
199.0 0.00503 134.70134 191.34015
201.0 0.00498 134.68169 189.45357
198.0 0.00505 134.66197 187.70888
211.0 0.00474 134.64224 186.14696
220.0 0.00455 134.62247 184.78180
201.0 0.00498 134.60265 183.59315
210.0 0.00476 134.58281 182.54007
206.0 0.00485 134.56288 181.55734
199.0 0.00503 134.54295 180.58266
220.0 0.00455 134.52299 179.56888
199.0 0.00503 134.50298 178.49428
184.0 0.00543 134.48294 177.36891
204.0 0.00490 134.46283 176.22858
185.0 0.00541 134.44270 175.12288
193.0 0.00518 134.42255 174.10124
178.0 0.00562 134.40231 173.20496
191.0 0.00524 134.38208 172.46034
187.0 0.00535 134.36179 171.87807
174.0 0.00575 134.34146 171.45490
192.0 0.00521 134.32108 171.16930
164.0 0.00610 134.30069 171.03349
185.0 0.00541 134.28023 171.02687
178.0 0.00562 134.25974 171.15013
220.0 0.00455 134.23921 171.41489
178.0 0.00562 134.21864 171.84222
166.0 0.00602 134.19804 172.46220
184.0 0.00543 134.17738 173.30934
204.0 0.00490 134.15669 174.42023
156.0 0.00641 134.13597 175.83258
189.0 0.00529 134.11520 177.57498
179.0 0.00559 134.09439 179.70592
211.0 0.00474 134.07355 182.25404
209.0 0.00478 134.05263 185.25839
189.0 0.00529 134.03171 188.75809
207.0 0.00483 134.01076 192.78836
202.0 0.00495 133.98970 197.37473
204.0 0.00490 133.96867 202.52618
194.0 0.00515 133.94757 208.20062
212.0 0.00472 133.92644 214.30273
219.0 0.00457 133.90526 220.64014
219.0 0.00457 133.88403 226.90453
247.0 0.00405 133.86278 232.68286
239.0 0.00418 133.84148 237.49380
217.0 0.00461 133.82013 240.88133
232.0 0.00431 133.79874 242.55020
241.0 0.00415 133.77733 242.45406
223.0 0.00448 133.75584 240.81844
220.0 0.00455 133.73434 238.07117
210.0 0.00476 133.71280 234.71774
198.0 0.00505 133.69121 231.22185
249.0 0.00402 133.66957 227.92401
208.0 0.00481 133.64790 225.00291
199.0 0.00503 133.62617 222.48166
182.0 0.00549 133.60443 220.24152
183.0 0.00546 133.58261 218.05844
191.0 0.00524 133.56078 215.67496
195.0 0.00513 133.53889 212.86108
217.0 0.00461 133.51695 209.48381
218.0 0.00459 133.49500 205.54288
210.0 0.00476 133.47299 201.16013
180.0 0.00556 133.45093 196.52722
175.0 0.00571 133.42885 191.85316
168.0 0.00595 133.40671 187.31590
173.0 0.00578 133.38451 183.04128
185.0 0.00541 133.36230 179.10458
154.0 0.00649 133.34003 175.54720
191.0 0.00524 133.31772 172.35008
155.0 0.00645 133.29536 169.50682
170.0 0.00588 133.27298 166.98943
145.0 0.00690 133.25053 164.76909
157.0 0.00637 133.22806 162.81436
165.0 0.00606 133.20552 161.09039
161.0 0.00621 133.18298 159.57375
148.0 0.00676 133.16035 158.24055
155.0 0.00645 133.13770 157.06853
185.0 0.00541 133.11502 156.03790
132.0 0.00758 133.09227 155.12946
140.0 0.00714 133.06949 154.32579
159.0 0.00629 133.04669 153.61079
161.0 0.00621 133.02380 152.97105
137.0 0.00730 133.00089 152.39560
168.0 0.00595 132.97794 151.87756
150.0 0.00667 132.95493 151.41797
151.0 0.00662 132.93190 151.00208
161.0 0.00621 132.90883 150.63258
160.0 0.00625 132.88568 150.30577
162.0 0.00617 132.86250 150.01913
147.0 0.00680 132.83929 149.76617
143.0 0.00699 132.81602 149.54205
139.0 0.00719 132.79272 149.34067
159.0 0.00629 132.76938 149.15498
179.0 0.00559 132.74597 148.97531
140.0 0.00714 132.72255 148.79825
127.0 0.00787 132.69907 148.60094
171.0 0.00585 132.67552 148.38124
132.0 0.00758 132.65198 148.13968
170.0 0.00588 132.62834 147.88058
178.0 0.00562 132.60469 147.61234
149.0 0.00671 132.58098 147.34489
166.0 0.00602 132.55724 147.08769
168.0 0.00595 132.53345 146.84740
147.0 0.00680 132.50961 146.62901
149.0 0.00671 132.48572 146.43390
143.0 0.00699 132.46181 146.26125
137.0 0.00730 132.43784 146.10770
166.0 0.00602 132.41380 145.96878
152.0 0.00658 132.38976 145.83911
143.0 0.00699 132.36563 145.71509
143.0 0.00699 132.34148 145.59544
148.0 0.00676 132.31729 145.48497
137.0 0.00730 132.29305 145.37943
154.0 0.00649 132.26877 145.29515
132.0 0.00758 132.24443 145.21602
155.0 0.00645 132.22005 145.15425
144.0 0.00694 132.19563 145.11359
144.0 0.00694 132.17116 145.09642
129.0 0.00775 132.14664 145.10545
166.0 0.00602 132.12207 145.14317
133.0 0.00752 132.09747 145.21120
152.0 0.00658 132.07281 145.31133
164.0 0.00610 132.04813 145.44511
165.0 0.00606 132.02336 145.61423
162.0 0.00617 131.99858 145.81989
155.0 0.00645 131.97375 146.06970
146.0 0.00685 131.94885 146.35284
149.0 0.00671 131.92393 146.67670
137.0 0.00730 131.89897 147.04282
163.0 0.00613 131.87393 147.45212
169.0 0.00592 131.84889 147.90492
147.0 0.00680 131.82376 148.40602
147.0 0.00680 131.79860 148.94308
175.0 0.00571 131.77339 149.52005
176.0 0.00568 131.74814 150.13739
179.0 0.00559 131.72284 150.79630
157.0 0.00637 131.69751 151.50182
151.0 0.00662 131.67210 152.25826
159.0 0.00629 131.64667 153.06906
162.0 0.00617 131.62117 153.93524
178.0 0.00562 131.59564 154.85237
167.0 0.00599 131.57007 155.81505
176.0 0.00568 131.54445 156.83073
189.0 0.00529 131.51877 157.87706
164.0 0.00610 131.49306 158.96713
194.0 0.00515 131.46727 160.11945
170.0 0.00588 131.44145 161.35577
184.0 0.00543 131.41562 162.70317
166.0 0.00602 131.38968 164.19098
171.0 0.00585 131.36372 165.84827
166.0 0.00602 131.33772 167.70128
173.0 0.00578 131.31168 169.77065
195.0 0.00513 131.28557 172.06635
171.0 0.00585 131.25943 174.58365
185.0 0.00541 131.23323 177.29352
173.0 0.00578 131.20700 180.13742
185.0 0.00541 131.18069 183.02695
179.0 0.00559 131.15436 185.84277
205.0 0.00488 131.12798 188.45589
188.0 0.00532 131.10153 190.73163
181.0 0.00552 131.07506 192.66031
185.0 0.00541 131.04854 194.21227
197.0 0.00508 131.02194 195.51407
179.0 0.00559 130.99533 196.71506
230.0 0.00435 130.96866 198.00635
210.0 0.00476 130.94191 199.50545
206.0 0.00485 130.91516 201.40689
197.0 0.00508 130.88832 203.74033
181.0 0.00552 130.86145 206.48700
230.0 0.00435 130.83455 209.54172
208.0 0.00481 130.80757 212.69975
196.0 0.00510 130.78056 215.71387
217.0 0.00461 130.75351 218.22684
195.0 0.00513 130.72638 219.99110
215.0 0.00465 130.69922 220.74547
248.0 0.00403 130.67201 220.35744
224.0 0.00446 130.64474 218.95833
217.0 0.00461 130.61745 216.71367
230.0 0.00435 130.59010 213.90816
200.0 0.00500 130.56268 210.84474
237.0 0.00422 130.53522 207.78917
219.0 0.00457 130.50774 204.93477
219.0 0.00457 130.48016 202.39644
208.0 0.00481 130.45258 200.16182
198.0 0.00505 130.42490 198.23808
224.0 0.00446 130.39720 196.49481
199.0 0.00503 130.36946 194.79990
190.0 0.00526 130.34164 193.03625
176.0 0.00568 130.31380 191.09816
224.0 0.00446 130.28587 188.95665
164.0 0.00610 130.25793 186.67313
170.0 0.00588 130.22993 184.31715
198.0 0.00505 130.20187 181.98808
199.0 0.00503 130.17378 179.78030
185.0 0.00541 130.14565 177.77400
161.0 0.00621 130.11743 176.01306
188.0 0.00532 130.08919 174.51155
189.0 0.00529 130.06090 173.25299
184.0 0.00543 130.03253 172.19324
191.0 0.00524 130.00414 171.26729
174.0 0.00575 129.97569 170.39780
173.0 0.00578 129.94719 169.51199
174.0 0.00575 129.91864 168.55524
195.0 0.00513 129.89005 167.51024
165.0 0.00606 129.86136 166.37939
170.0 0.00588 129.83267 165.20715
136.0 0.00735 129.80394 164.04681
167.0 0.00599 129.77510 162.94939
185.0 0.00541 129.74625 161.95410
164.0 0.00610 129.71733 161.08308
160.0 0.00625 129.68839 160.33971
166.0 0.00602 129.65938 159.70998
163.0 0.00613 129.63029 159.16731
177.0 0.00565 129.60121 158.67584
182.0 0.00549 129.57202 158.20036
172.0 0.00581 129.54280 157.71329
162.0 0.00617 129.51355 157.20013
159.0 0.00629 129.48422 156.66754
162.0 0.00617 129.45486 156.13254
138.0 0.00725 129.42545 155.62047
155.0 0.00645 129.39595 155.15715
163.0 0.00613 129.36644 154.76372
128.0 0.00781 129.33688 154.45297
162.0 0.00617 129.30724 154.22868
135.0 0.00741 129.27759 154.08340
160.0 0.00625 129.24785 154.01332
172.0 0.00581 129.21806 153.99896
163.0 0.00613 129.18823 154.02179
150.0 0.00667 129.15834 154.06952
165.0 0.00606 129.12840 154.13148
159.0 0.00629 129.09842 154.20604
147.0 0.00680 129.06839 154.29947
157.0 0.00637 129.03827 154.42351
170.0 0.00588 129.00815 154.59254
155.0 0.00645 128.97792 154.82675
152.0 0.00658 128.94768 155.13475
176.0 0.00568 128.91739 155.53375
152.0 0.00658 128.88701 156.03027
158.0 0.00633 128.85661 156.62959
158.0 0.00633 128.82613 157.33330
139.0 0.00719 128.79564 158.14127
172.0 0.00581 128.76508 159.05290
174.0 0.00575 128.73444 160.06834
179.0 0.00559 128.70378 161.19019
181.0 0.00552 128.67305 162.42197
201.0 0.00498 128.64226 163.77130
149.0 0.00671 128.61143 165.24678
167.0 0.00599 128.58057 166.86296
177.0 0.00565 128.54961 168.64034
170.0 0.00588 128.51863 170.60107
182.0 0.00549 128.48758 172.79509
193.0 0.00518 128.45648 175.25583
159.0 0.00629 128.42535 178.02135
185.0 0.00541 128.39413 181.12048
189.0 0.00529 128.36287 184.56450
198.0 0.00505 128.33157 188.33742
194.0 0.00515 128.30020 192.35890
191.0 0.00524 128.26878 196.58513
228.0 0.00439 128.23732 200.84190
189.0 0.00529 128.20576 204.94283
199.0 0.00503 128.17419 208.68469
195.0 0.00513 128.14258 211.90219
183.0 0.00546 128.11087 214.49400
220.0 0.00455 128.07915 216.46817
213.0 0.00469 128.04733 217.93811
234.0 0.00427 128.01549 219.09219
199.0 0.00503 127.98360 220.14107
190.0 0.00526 127.95162 221.25352
226.0 0.00442 127.91962 222.57309
209.0 0.00478 127.88757 224.11282
229.0 0.00437 127.85542 225.80533
228.0 0.00439 127.82326 227.49951
225.0 0.00444 127.79104 228.98763
229.0 0.00437 127.75873 230.05200
220.0 0.00455 127.72642 230.51913
226.0 0.00442 127.69403 230.30582
222.0 0.00450 127.66156 229.44031
223.0 0.00448 127.62907 228.04588
222.0 0.00450 127.59652 226.30356
201.0 0.00498 127.56389 224.39836
251.0 0.00398 127.53124 222.48822
236.0 0.00424 127.49852 220.67642
231.0 0.00433 127.46574 219.01848
232.0 0.00431 127.43291 217.52977
194.0 0.00515 127.40000 216.20201
206.0 0.00485 127.36707 215.01614
207.0 0.00483 127.33408 213.94653
217.0 0.00461 127.30101 213.00856
210.0 0.00476 127.26791 212.21458
203.0 0.00493 127.23472 211.60899
206.0 0.00485 127.20152 211.25665
199.0 0.00503 127.16824 211.22314
187.0 0.00535 127.13490 211.55530
227.0 0.00441 127.10152 212.27370
231.0 0.00433 127.06808 213.36256
215.0 0.00465 127.03458 214.77234
220.0 0.00455 127.00103 216.42558
231.0 0.00433 126.96743 218.21509
217.0 0.00461 126.93375 220.08580
224.0 0.00446 126.90004 221.96581
219.0 0.00457 126.86626 223.85254
246.0 0.00407 126.83242 225.82133
205.0 0.00488 126.79854 228.02596
267.0 0.00375 126.76460 230.69041
226.0 0.00442 126.73058 234.08846
222.0 0.00450 126.69653 238.51787
250.0 0.00400 126.66243 244.27669
237.0 0.00422 126.62823 251.64185
244.0 0.00410 126.59402 260.82834
261.0 0.00383 126.55971 271.94809
249.0 0.00402 126.52539 284.85217
276.0 0.00362 126.49099 298.94952
286.0 0.003497 126.45652 312.98224
316.0 0.003165 126.42202 324.98895
356.0 0.002809 126.38742 332.82227
375.0 0.002667 126.35281 335.19156
435.0 0.002299 126.31814 332.45514
405.0 0.002469 126.28339 326.33090
367.0 0.002725 126.24860 318.87131
371.0 0.002695 126.21375 311.68167
307.0 0.003257 126.17884 305.75015
296.0 0.003378 126.14387 301.60315
295.0 0.003390 126.10886 299.49185
260.0 0.00385 126.07375 299.47266
303.0 0.003300 126.03862 301.38297
277.0 0.00361 126.00343 304.74725
295.0 0.003390 125.96818 308.68945
330.0 0.003030 125.93288 311.99829
320.0 0.003125 125.89751 313.49918
366.0 0.002732 125.86206 312.59741
373.0 0.002681 125.82658 309.52673
364.0 0.002747 125.79106 305.05096
299.0 0.003344 125.75543 299.95587
312.0 0.003205 125.71979 294.75992
314.0 0.003185 125.68404 289.69720
298.0 0.003356 125.64828 284.81970
268.0 0.00373 125.61246 280.10315
283.0 0.00353 125.57655 275.51901
269.0 0.00372 125.54062 271.07367
264.0 0.00379 125.50459 266.81665
266.0 0.00376 125.46853 262.82974
294.0 0.003401 125.43241 259.20093
280.0 0.00357 125.39621 256.00815
249.0 0.00402 125.35999 253.30637
274.0 0.00365 125.32370 251.12991
266.0 0.00376 125.28732 249.49432
280.0 0.00357 125.25092 248.39836
261.0 0.00383 125.21444 247.82486
226.0 0.00442 125.17789 247.74150
252.0 0.00397 125.14131 248.10800
233.0 0.00429 125.10468 248.88490
267.0 0.00375 125.06795 250.04329
259.0 0.00386 125.03119 251.56776
260.0 0.00385 124.99436 253.44829
300.0 0.003333 124.95746 255.66377
245.0 0.00408 124.92052 258.16687
261.0 0.00383 124.88353 260.87573
285.0 0.00351 124.84644 263.68188
291.0 0.003436 124.80933 266.46790
279.0 0.00358 124.77213 269.12451
273.0 0.00366 124.73490 271.56152
266.0 0.00376 124.69760 273.70752
264.0 0.00379 124.66022 275.50659
274.0 0.00365 124.62282 276.92410
317.0 0.003155 124.58530 277.96552
304.0 0.003289 124.54778 278.69406
278.0 0.00360 124.51019 279.23636
277.0 0.00361 124.47252 279.76385
289.0 0.003460 124.43480 280.45139
276.0 0.00362 124.39704 281.43967
278.0 0.00360 124.35918 282.80023
274.0 0.00365 124.32129 284.52899
274.0 0.00365 124.28333 286.55310
303.0 0.003300 124.24529 288.74786
290.0 0.003448 124.20724 290.96280
357.0 0.002801 124.16910 293.03635
306.0 0.003268 124.13088 294.81464
334.0 0.002994 124.09264 296.16330
311.0 0.003215 124.05433 296.98602
291.0 0.003436 124.01593 297.24448
283.0 0.00353 123.97749 296.97446
296.0 0.003378 123.93901 296.29056
318.0 0.003145 123.90041 295.36444
283.0 0.00353 123.86181 294.38498
290.0 0.003448 123.82310 293.50623
282.0 0.00355 123.78437 292.80240
295.0 0.003390 123.74557 292.24420
292.0 0.003425 123.70669 291.70724
301.0 0.003322 123.66778 291.00717
306.0 0.003268 123.62876 289.95474
247.0 0.00405 123.58973 288.41214
276.0 0.00362 123.55062 286.33081
289.0 0.003460 123.51144 283.75647
249.0 0.00402 123.47221 280.81171
251.0 0.00398 123.43293 277.65967
285.0 0.00351 123.39355 274.47208
245.0 0.00408 123.35415 271.40308
257.0 0.00389 123.31468 268.57111
266.0 0.00376 123.27512 266.04971
249.0 0.00402 123.23553 263.86578
263.0 0.00380 123.19588 262.00742
292.0 0.003425 123.15614 260.43646
250.0 0.00400 123.11637 259.10333
265.0 0.00377 123.07654 257.96091
260.0 0.00385 123.03661 256.97321
260.0 0.00385 122.99664 256.11478
252.0 0.00397 122.95663 255.35847
226.0 0.00442 122.91650 254.65630
271.0 0.00369 122.87637 253.92094
232.0 0.00431 122.83613 253.02029
230.0 . . .
loop_
_refln_index_h
_refln_index_k
_refln_index_l
_pd_refln_wavelength_id
_pd_refln_phase_id
_refln_observed_status
_refln_F_squared_meas
_refln_F_squared_calc
_refln_phase_calc
_refln_d_spacing
_gsas_i100_meas
2 0 0 1 1 o 4819.406 4408.864 0.00 6.99866 19.38
2 0 0 2 1 o 4676.138 4408.864 0.00 6.99866 9.28
1 0 -1 1 1 o 38005.90 35621.20 0.00 6.02349 100.00
1 0 -1 2 1 o 37552.48 35621.20 0.00 6.02349 49.08
1 0 1 1 1 o 1113.981 1121.466 0.00 5.96316 3.31
1 0 1 2 1 o 1096.618 1121.466 0.00 5.96316 1.62
3 0 -1 1 1 o 1398.977 1131.367 0.00 3.83954 1.33
3 0 -1 2 1 o 1358.798 1131.367 0.00 3.83954 0.64
3 0 1 1 1 o 98317.78 94077.55 180.00 3.79282 90.45
3 0 1 2 1 o 98392.65 94077.55 180.00 3.79282 45.03
1 1 0 1 1 o 34643.805 37441.00 0.00 3.75147 33.85
1 1 0 2 1 o 34584.078 37441.00 0.00 3.75147 16.80
4 0 0 1 1 o 52123.26 54144.27 0.00 3.49933 53.55
4 0 0 2 1 o 53615.68 54144.27 0.00 3.49933 27.51
0 1 1 2 1 o 18499.775 20692.789 180.00 3.35787 9.18
2 1 0 1 1 o -0.709 0.871 0.00 3.40271 0.00
2 1 0 2 1 o -0.546 0.871 0.00 3.40271 0.00
0 0 2 1 1 o 3539.252 4224.083 180.00 3.31585 3.06
0 0 2 2 1 o 3685.807 4224.083 180.00 3.31585 1.60
0 1 1 1 1 o 17607.234 20692.789 180.00 3.35787 17.51
1 1 -1 1 1 o 722.131 888.792 0.00 3.27012 0.55
1 1 -1 2 1 o 706.739 888.792 0.00 3.27012 0.26
1 1 1 1 1 o 449.209 568.713 180.00 3.26036 0.36
1 1 1 2 1 o 498.394 568.713 180.00 3.26036 0.20
2 1 -1 1 1 o 94258.27 88785.85 0.00 3.03526 73.53
2 1 -1 2 1 o 95888.78 88785.85 0.00 3.03526 37.29
2 1 1 1 1 o 4059.880 3628.216 0.00 3.01970 4.02
2 1 1 2 1 o 4130.926 3628.216 0.00 3.01970 2.03
2 0 -2 1 1 o 108203.20 97806.49 180.00 3.01174 65.03
2 0 -2 2 1 o 106394.14 97806.49 180.00 3.01174 31.72
3 1 0 1 1 o 112681.09 116103.77 0.00 2.98957 87.31
3 1 0 2 1 o 111779.31 116103.77 0.00 2.98957 43.02
2 0 2 1 1 o 143207.50 148585.88 180.00 2.98158 82.71
2 0 2 2 1 o 143451.36 148585.88 180.00 2.98158 41.21
1 1 1 1 2 o 3752.215 3443.701 180.00 3.13552 30.87
1 1 1 2 2 o 4354.346 3443.701 180.00 3.13552 17.71
3 1 -1 1 1 o 23.727 22.392 0.00 2.73399 0.01
3 1 -1 2 1 o 22.145 22.392 0.00 2.73399 0.00
3 1 1 1 1 o 1374.525 1450.024 180.00 2.71697 0.88
3 1 1 2 1 o 1701.862 1450.024 180.00 2.71697 0.56
4 1 0 1 1 o 4381.748 3982.316 180.00 2.60276 2.94
4 1 0 2 1 o 4350.663 3982.316 180.00 2.60276 1.45
5 0 -1 1 1 o 194376.41 177207.95 0.00 2.59119 86.24
5 0 -1 2 1 o 195121.42 177207.95 0.00 2.59119 43.07
5 0 1 1 1 o 8793.280 10454.869 180.00 2.56715 3.99
5 0 1 2 1 o 8149.811 10454.869 180.00 2.56715 1.82
1 1 -2 1 1 o 61193.27 60701.18 180.00 2.48878 34.67
0 1 2 1 1 o 33.125 48.787 0.00 2.52455 0.03
1 1 -2 2 1 o 60478.46 60701.18 180.00 2.48878 17.00
0 1 2 2 1 o 35.277 48.787 0.00 2.52455 0.02
1 1 2 1 1 o 52625.57 53191.14 180.00 2.48018 28.29
1 1 2 2 1 o 51607.88 53191.14 180.00 2.48018 13.72
4 1 -1 1 1 o 3637.206 4073.518 0.00 2.43085 1.09
4 1 -1 2 1 o 3711.258 4073.518 0.00 2.43085 0.56
4 0 -2 1 1 o 2204.438 2594.018 180.00 2.42270 0.79
4 0 -2 2 1 o 2268.458 2594.018 180.00 2.42270 0.40
4 1 1 1 1 o 36023.60 39947.09 180.00 2.41491 17.71
4 1 1 2 1 o 36298.28 39947.09 180.00 2.41491 8.89
4 0 2 1 1 o 9418.965 11999.289 180.00 2.39143 2.42
4 0 2 2 1 o 9037.729 11999.289 180.00 2.39143 1.13
2 1 -2 1 1 o 428.335 594.053 0.00 2.38232 0.19
2 1 -2 2 1 o 393.470 594.053 0.00 2.38232 0.09
2 1 2 1 1 o -1.197 1.223 0.00 2.36730 0.00
2 1 2 2 1 o -0.604 1.223 0.00 2.36730 0.00
6 0 0 1 1 o 5214.695 5353.292 0.00 2.33289 2.24
6 0 0 2 1 o 5298.562 5353.292 0.00 2.33289 1.13
5 1 0 1 1 o 14894.976 13591.651 180.00 2.27301 8.87
5 1 0 2 1 o 14509.839 13591.651 180.00 2.27301 4.30
3 1 2 1 1 o 73.362 91.811 180.00 2.21122 0.13
3 1 2 2 1 o 84.628 91.811 180.00 2.21122 0.07
3 1 -2 1 1 o 2476.497 2400.712 0.00 2.22963 1.66
3 1 -2 2 1 o 2564.173 2400.712 0.00 2.22963 0.85
1 0 -3 1 1 o 22671.773 24399.029 180.00 2.18790 7.67
1 0 -3 2 1 o 22878.783 24399.029 180.00 2.18790 3.85
1 0 3 1 1 o 2816.429 3128.472 0.00 2.17914 1.17
1 0 3 2 1 o 2567.376 3128.472 0.00 2.17914 0.53
5 1 -1 1 1 o 30.654 45.989 0.00 2.15722 0.01
5 1 -1 2 1 o 44.259 45.989 0.00 2.15722 0.01
5 1 1 1 1 o 220.539 191.598 180.00 2.14329 0.09
5 1 1 2 1 o 230.038 191.598 180.00 2.14329 0.05
4 1 -2 1 1 o 468.968 435.914 0.00 2.05705 0.17
4 1 -2 2 1 o 410.841 435.914 0.00 2.05705 0.07
4 1 2 1 1 o 40.759 37.700 0.00 2.03781 0.01
4 1 2 2 1 o 42.406 37.700 0.00 2.03781 0.01
3 0 3 1 1 o 8222.437 8064.110 180.00 1.98772 2.28
3 0 -3 1 1 o 180836.84 156394.45 180.00 2.00783 43.75
3 0 3 2 1 o 7905.014 8064.110 180.00 1.98772 1.09
3 0 -3 2 1 o 182015.72 156394.45 180.00 2.00783 21.91
6 1 0 1 1 o 2.818 2.710 180.00 2.00122 0.00
6 1 0 2 1 o 2.778 2.710 180.00 2.00122 0.00
0 2 0 1 1 o 203241.94 215680.14 0.00 1.94696 23.89
0 2 0 2 1 o 203666.44 215680.14 0.00 1.94696 11.90
1 2 0 1 1 o 1967.114 2167.592 180.00 1.92840 0.46
1 2 0 2 1 o 1952.263 2167.592 180.00 1.92840 0.23
0 1 3 1 1 o 72576.73 79829.38 180.00 1.92239 27.87
6 1 -1 1 1 o 25975.982 28107.451 0.00 1.92183 8.21
7 0 -1 1 1 o 3542.992 3796.564 0.00 1.92140 0.69
6 0 -2 1 1 o 11518.889 12202.883 0.00 1.91977 2.25
0 1 3 2 1 o 77450.76 79829.38 180.00 1.92239 14.92
6 1 -1 2 1 o 27479.254 28107.451 0.00 1.92183 4.39
7 0 -1 2 1 o 3726.570 3796.564 0.00 1.92140 0.37
6 0 -2 2 1 o 12035.780 12202.883 0.00 1.91977 1.18
6 1 1 1 1 o 83766.08 85686.45 180.00 1.91000 28.83
7 0 1 1 1 o 159593.53 164068.28 180.00 1.90763 36.94
1 1 -3 1 1 o 22.840 23.262 180.00 1.90743 0.01
6 1 1 2 1 o 83187.40 85686.45 180.00 1.91000 14.21
7 0 1 2 1 o 158016.61 164068.28 180.00 1.90763 18.15
1 1 -3 2 1 o 22.682 23.262 180.00 1.90743 0.00
1 1 3 1 1 o 1964.034 2050.093 0.00 1.90162 0.71
1 1 3 2 1 o 1953.059 2050.093 0.00 1.90162 0.35
6 0 2 1 1 o 2566.310 2684.353 180.00 1.89641 0.47
6 0 2 2 1 o 2721.763 2684.353 180.00 1.89641 0.25
5 1 -2 1 1 o 44983.98 39541.55 180.00 1.88411 15.12
5 1 -2 2 1 o 45029.29 39541.55 180.00 1.88411 7.53
2 2 0 1 1 o 4471.063 4076.176 0.00 1.87573 0.93
2 2 0 2 1 o 4243.884 4076.176 0.00 1.87573 0.44
0 2 1 1 1 o 960.853 947.191 180.00 1.86812 0.17
5 1 2 1 1 o 98985.59 97789.01 180.00 1.86564 30.99
0 2 1 2 1 o 959.709 947.191 180.00 1.86812 0.08
5 1 2 2 1 o 100891.08 97789.01 180.00 1.86564 15.74
2 1 -3 1 1 o 1242.039 1184.699 180.00 1.85911 0.44
2 1 -3 2 1 o 1262.574 1184.699 180.00 1.85911 0.22
1 2 -1 1 1 o 21582.170 20421.416 0.00 1.85259 4.67
1 2 1 1 1 o 731.931 690.171 0.00 1.85081 0.19
2 1 3 1 1 o 28506.225 27195.082 0.00 1.84840 10.19
1 2 -1 2 1 o 21351.545 20421.416 0.00 1.85259 2.29
1 2 1 2 1 o 732.930 690.171 0.00 1.85081 0.10
2 1 3 2 1 o 29126.822 27195.082 0.00 1.84840 5.19
2 2 -1 1 1 o 1989.421 2077.421 0.00 1.80658 0.41
2 2 1 1 1 o 6500.163 7498.245 180.00 1.80328 1.32
2 2 -1 2 1 o 1790.867 2077.421 0.00 1.80658 0.18
2 2 1 2 1 o 6917.187 7498.245 180.00 1.80328 0.71
3 2 0 1 1 o 1436.251 1416.839 180.00 1.79680 0.30
3 2 0 2 1 o 1742.115 1416.839 180.00 1.79680 0.18
3 1 -3 1 1 o 1286.151 897.487 180.00 1.78456 0.41
2 2 0 1 2 o 4110.920 4477.954 180.00 1.92011 16.90
2 2 0 2 2 o 4465.280 4477.954 180.00 1.92011 9.08
3 1 -3 2 1 o 1385.514 897.487 180.00 1.78456 0.22
7 1 0 1 1 o 14852.575 9287.082 0.00 1.77879 5.52
7 1 0 2 1 o 14630.397 9287.082 0.00 1.77879 2.70
3 1 3 1 1 o 801.435 563.585 0.00 1.77040 0.24
3 1 3 2 1 o 753.444 563.585 0.00 1.77040 0.11
8 0 0 1 1 o 63646.00 65154.29 180.00 1.74966 13.69
5 0 -3 1 1 o 5468.391 5655.314 180.00 1.74598 0.79
8 0 0 2 1 o 62972.32 65154.29 180.00 1.74966 6.72
5 0 -3 2 1 o 5573.781 5655.314 180.00 1.74598 0.40
3 2 -1 1 1 o 1042.803 1051.750 0.00 1.73647 0.21
3 2 -1 2 1 o 1015.699 1051.750 0.00 1.73647 0.10
3 2 1 1 1 o 62141.98 64271.99 180.00 1.73208 11.92
3 2 1 2 1 o 62392.80 64271.99 180.00 1.73208 5.95
5 0 3 1 1 o 117161.10 117478.11 0.00 1.72402 17.43
7 1 -1 1 1 o 9.995 9.967 0.00 1.72305 0.00
6 1 -2 1 1 o 949.500 945.395 0.00 1.72188 0.23
5 0 3 2 1 o 117899.60 117478.11 0.00 1.72402 8.72
7 1 -1 2 1 o 9.960 9.967 0.00 1.72305 0.00
6 1 -2 2 1 o 938.025 945.395 0.00 1.72188 0.11
7 1 1 1 1 o 0.040 0.218 180.00 1.71310 0.00
7 1 1 2 1 o 0.204 0.218 180.00 1.71310 0.00
6 1 2 1 1 o 1061.212 1027.249 0.00 1.70496 0.26
4 2 0 1 1 o 35200.59 33038.586 0.00 1.70135 6.59
6 1 2 2 1 o 1098.924 1027.249 0.00 1.70496 0.13
4 2 0 2 1 o 37359.92 33038.586 0.00 1.70135 3.51
4 1 -3 1 1 o 87121.60 74773.11 180.00 1.69299 21.96
4 1 -3 2 1 o 86883.13 74773.11 180.00 1.69299 10.88
1 2 2 1 1 o 1171.293 1406.917 180.00 1.66569 0.23
1 2 -2 2 1 o 57.779 80.234 180.00 1.66829 0.01
1 2 2 2 1 o 1158.075 1406.917 180.00 1.66569 0.11
0 2 2 1 1 o 2347.668 2342.420 180.00 1.67894 0.45
4 1 3 1 1 o 2259.645 2299.246 0.00 1.67690 0.45
0 0 4 1 1 o 110095.73 130748.01 0.00 1.65793 19.25
0 2 2 2 1 o 2255.964 2342.420 180.00 1.67894 0.22
4 1 3 2 1 o 2198.096 2299.246 0.00 1.67690 0.22
0 0 4 2 1 o 111886.27 130748.01 0.00 1.65793 9.75
4 2 -1 1 1 o 711.599 813.136 0.00 1.65050 0.11
1 2 -2 1 1 o 62.676 80.234 180.00 1.66829 0.02
4 2 -1 2 1 o 724.108 813.136 0.00 1.65050 0.06
4 2 1 1 1 o 590.536 668.931 180.00 1.64548 0.10
4 2 1 2 1 o 604.822 668.931 180.00 1.64548 0.05
2 2 -2 1 1 o 72865.71 71410.00 180.00 1.63506 12.61
2 2 -2 2 1 o 72191.77 71410.00 180.00 1.63506 6.20
2 2 2 1 1 o 103897.02 103344.23 180.00 1.63018 17.71
2 2 2 2 1 o 104879.16 103344.23 180.00 1.63018 8.90
2 0 -4 1 1 o 2095.565 1855.021 180.00 1.61801 0.51
2 0 -4 2 1 o 2133.717 1855.021 180.00 1.61801 0.26
2 0 4 1 1 o 15751.574 13996.769 0.00 1.60859 2.39
2 0 4 2 1 o 16669.031 13996.769 0.00 1.60859 1.27
5 2 0 1 1 o 3185.709 2444.192 180.00 1.59840 0.53
8 1 0 1 1 o 1346.916 1005.072 180.00 1.59596 0.36
5 2 0 2 1 o 3316.736 2444.192 180.00 1.59840 0.28
5 1 -3 1 1 o 272.793 183.813 0.00 1.59316 0.07
8 1 0 2 1 o 1491.519 1005.072 180.00 1.59596 0.20
5 1 -3 2 1 o 335.631 183.813 0.00 1.59316 0.04
3 2 -2 1 1 o 4859.815 2888.915 0.00 1.58310 0.82
3 2 -2 2 1 o 4053.061 2888.915 0.00 1.58310 0.33
3 2 2 1 1 o 3199.026 2503.846 0.00 1.57647 0.55
5 1 3 1 1 o 7.586 6.646 0.00 1.57642 0.00
7 1 -2 1 1 o 61227.79 50050.63 0.00 1.57510 13.70
3 2 2 2 1 o 2938.065 2503.846 0.00 1.57647 0.25
5 1 3 2 1 o 7.234 6.646 0.00 1.57642 0.00
7 1 -2 2 1 o 57500.63 50050.63 0.00 1.57510 6.34
8 1 1 1 1 o 6705.989 6208.069 180.00 1.54748 1.40
5 2 1 2 1 o 4329.472 3932.972 180.00 1.55128 0.38
7 1 2 1 1 o 15491.516 14266.228 0.00 1.55998 3.70
8 1 1 2 1 o 6578.348 6208.069 180.00 1.54748 0.68
5 2 -1 1 1 o 129566.75 122905.98 0.00 1.55654 20.54
7 1 2 2 1 o 15135.993 14266.228 0.00 1.55998 1.80
8 1 -1 1 1 o 71706.08 68124.65 0.00 1.55586 16.36
8 0 -2 1 1 o 2703.500 2547.088 0.00 1.55582 0.37
8 0 2 1 1 o 8784.089 8529.659 180.00 1.53921 1.19
5 2 -1 2 1 o 130454.73 122905.98 0.00 1.55654 10.29
8 1 -1 2 1 o 72461.95 68124.65 0.00 1.55586 8.24
8 0 -2 2 1 o 2737.186 2547.088 0.00 1.55582 0.19
5 2 1 1 1 o 4244.859 3932.972 180.00 1.55128 0.75
8 0 2 2 1 o 9005.587 8529.659 180.00 1.53921 0.61
3 1 1 1 2 o 1932.434 1906.126 180.00 1.63747 10.75
3 1 1 2 2 o 1975.329 1906.126 180.00 1.63747 5.45
0 1 4 1 1 o 300.855 266.195 0.00 1.52542 0.07
0 1 4 2 1 o 302.438 266.195 0.00 1.52542 0.04
9 0 -1 1 1 o 49137.89 43845.86 0.00 1.51857 6.69
1 1 -4 1 1 o 9567.621 8630.634 0.00 1.51840 2.04
4 2 -2 1 1 o 606.388 534.387 180.00 1.51763 0.11
9 0 -1 2 1 o 47089.48 43845.86 0.00 1.51857 3.16
1 1 -4 2 1 o 9197.036 8630.634 0.00 1.51840 0.96
1 1 4 1 1 o 22300.979 20931.537 0.00 1.51449 4.78
4 2 -2 2 1 o 576.059 534.387 180.00 1.51763 0.05
1 1 4 2 1 o 21670.574 20931.537 0.00 1.51449 2.29
4 2 2 1 1 o 10013.583 9700.472 180.00 1.50985 1.33
9 0 1 1 1 o 20163.896 19498.963 180.00 1.50982 2.55
4 2 2 2 1 o 10318.174 9700.472 180.00 1.50985 0.69
9 0 1 2 1 o 20816.016 19498.963 180.00 1.50982 1.32
4 0 -4 1 1 o 4109.025 3798.455 0.00 1.50587 0.52
4 0 -4 2 1 o 4233.912 3798.455 0.00 1.50587 0.27
6 2 0 1 1 o 4063.915 3462.975 0.00 1.49479 0.64
2 1 -4 1 1 o 466.181 402.989 180.00 1.49415 0.10
7 0 -3 1 1 o 122505.38 106314.88 180.00 1.49262 12.52
6 1 -3 1 1 o 66608.02 58498.59 180.00 1.49189 12.06
6 2 0 2 1 o 3939.074 3462.975 0.00 1.49479 0.31
4 0 4 1 1 o 81767.77 72521.17 0.00 1.49079 9.37
2 1 -4 2 1 o 450.926 402.989 180.00 1.49415 0.05
7 0 -3 2 1 o 117642.32 106314.88 180.00 1.49262 5.94
6 1 -3 2 1 o 64008.61 58498.59 180.00 1.49189 5.72
4 0 4 2 1 o 78440.68 72521.17 0.00 1.49079 4.44
2 1 4 1 1 o 155.393 143.737 0.00 1.48673 0.04
2 1 4 2 1 o 147.438 143.737 0.00 1.48673 0.02
6 1 3 1 1 o 10578.141 10597.825 0.00 1.47541 1.60
7 0 3 1 1 o 5641.781 5696.116 0.00 1.47342 0.49
2 2 2 1 2 o 0.000 0.000 0.00 1.56776 0.00
6 1 3 2 1 o 10589.531 10597.825 0.00 1.47541 0.79
7 0 3 2 1 o 5739.880 5696.116 0.00 1.47342 0.25
2 2 2 2 2 o 0.000 0.000 0.00 1.56776 0.00
0 2 3 1 1 o 2904.581 2844.013 0.00 1.46107 0.41
6 2 -1 1 1 o 581.156 568.884 180.00 1.46082 0.09
3 1 4 1 1 o 94853.79 95749.07 0.00 1.44480 17.91
8 1 -2 1 1 o 636.576 643.207 0.00 1.44477 0.12
9 1 0 1 1 o 20008.869 20273.008 180.00 1.44432 3.91
5 2 -2 1 1 o 3679.464 3739.642 0.00 1.44405 0.49
0 2 3 2 1 o 2889.969 2844.013 0.00 1.46107 0.20
6 2 -1 2 1 o 579.801 568.884 180.00 1.46082 0.04
6 2 1 1 1 o 683.406 665.288 180.00 1.45560 0.10
3 1 4 2 1 o 92778.94 95749.07 0.00 1.44480 8.67
8 1 -2 2 1 o 621.766 643.207 0.00 1.44477 0.06
3 1 -4 1 1 o 19240.205 18681.279 0.00 1.45505 3.83
9 1 0 2 1 o 19658.463 20273.008 180.00 1.44432 1.90
5 2 -2 2 1 o 3618.929 3739.642 0.00 1.44405 0.24
1 2 -3 1 1 o 13358.609 12961.934 180.00 1.45446 1.88
6 2 1 2 1 o 694.101 665.288 180.00 1.45560 0.05
1 2 3 1 1 o 905.265 854.385 0.00 1.45188 0.17
3 1 -4 2 1 o 19536.371 18681.279 0.00 1.45505 1.94
1 2 -3 2 1 o 13525.829 12961.934 180.00 1.45446 0.95
5 2 2 1 1 o 523.075 552.167 0.00 1.43568 0.05
1 2 3 2 1 o 881.757 854.385 0.00 1.45188 0.08
2 2 -3 1 1 o 3053.998 3492.986 180.00 1.43270 0.43
5 2 2 2 1 o 498.718 552.167 0.00 1.43568 0.02
8 1 2 1 1 o 254.678 285.726 0.00 1.43143 0.04
2 2 -3 2 1 o 3126.575 3492.986 180.00 1.43270 0.22
8 1 2 2 1 o 259.790 285.726 0.00 1.43143 0.02
2 2 3 1 1 o 1258.431 1390.087 0.00 1.42778 0.15
2 2 3 2 1 o 1228.355 1390.087 0.00 1.42778 0.07
9 1 -1 1 1 o 675.709 732.849 180.00 1.41479 0.12
9 1 -1 2 1 o 679.131 732.849 180.00 1.41479 0.06
9 1 1 1 1 o 170.147 175.021 0.00 1.40770 0.04
4 1 -4 1 1 o 965.785 964.052 180.00 1.40450 0.16
9 1 1 2 1 o 175.669 175.021 0.00 1.40770 0.02
4 1 -4 2 1 o 964.118 964.052 180.00 1.40450 0.08
10 0 0 1 1 o 216.863 236.202 0.00 1.39973 0.16
3 2 -3 1 1 o 99863.08 102752.08 180.00 1.39773 12.99
10 0 0 2 1 o 194.594 236.202 0.00 1.39973 0.08
7 2 0 1 1 o 4284.367 4426.601 180.00 1.39495 0.55
3 2 -3 2 1 o 99426.41 102752.08 180.00 1.39773 6.42
7 1 -3 1 1 o 475.563 490.598 0.00 1.39373 0.07
4 1 4 1 1 o 415.210 427.935 180.00 1.39224 0.07
7 2 0 2 1 o 4289.654 4426.601 180.00 1.39495 0.28
3 2 3 1 1 o 4478.865 4686.139 180.00 1.39090 0.74
7 1 -3 2 1 o 471.716 490.598 0.00 1.39373 0.04
4 1 4 2 1 o 408.937 427.935 180.00 1.39224 0.03
3 2 3 2 1 o 4483.117 4686.139 180.00 1.39090 0.37
7 1 3 1 1 o 493.839 431.086 0.00 1.37807 0.08
6 2 -2 2 1 o 8282.636 7794.112 0.00 1.36700 0.52
7 2 1 1 1 o 116996.21 111972.44 180.00 1.36259 14.85
7 1 3 2 1 o 522.705 431.086 0.00 1.37807 0.04
6 0 -4 1 1 o 5013.782 4908.739 180.00 1.35979 0.38
7 2 1 2 1 o 114330.91 111972.44 180.00 1.36259 7.19
6 2 2 1 1 o 1258.842 1235.431 180.00 1.35848 0.14
6 0 -4 2 1 o 5028.477 4908.739 180.00 1.35979 0.19
6 2 2 2 1 o 1268.428 1235.431 180.00 1.35848 0.07
7 2 -1 1 1 o 3361.499 3045.732 0.00 1.36758 0.38
6 2 -2 1 1 o 8674.326 7794.112 0.00 1.36700 1.10
4 2 -3 1 1 o 888.272 863.883 0.00 1.35240 0.12
7 2 -1 2 1 o 3235.791 3045.732 0.00 1.36758 0.18
4 2 -3 2 1 o 893.225 863.883 0.00 1.35240 0.06
5 1 -4 1 1 o 29326.404 28135.189 180.00 1.34626 4.59
4 2 3 1 1 o 4182.227 4013.333 0.00 1.34416 0.50
6 0 4 1 1 o 31314.840 30050.166 0.00 1.34319 2.48
5 1 -4 2 1 o 29378.303 28135.189 180.00 1.34626 2.29
4 2 3 2 1 o 4190.418 4013.333 0.00 1.34416 0.25
6 0 4 2 1 o 31681.496 30050.166 0.00 1.34319 1.25
5 1 4 1 1 o 1321.772 1219.169 0.00 1.33279 0.29
9 1 -2 1 1 o 11728.528 11467.362 0.00 1.33005 1.63
5 1 4 2 1 o 1261.630 1219.169 0.00 1.33279 0.14
9 1 -2 2 1 o 11418.633 11467.362 0.00 1.33005 0.78
1 0 -5 1 1 o 42426.02 46082.82 0.00 1.32204 4.10
1 0 5 1 1 o 13187.068 14492.247 0.00 1.31882 1.23
1 0 -5 2 1 o 41826.94 46082.82 0.00 1.32204 2.00
9 1 2 1 1 o 52.627 76.113 180.00 1.31834 0.04
10 1 0 1 1 o 169.379 181.170 180.00 1.31721 0.03
1 0 5 2 1 o 13988.769 14492.247 0.00 1.31882 0.66
9 1 2 2 1 o 68.895 76.113 180.00 1.31834 0.02
10 1 0 2 1 o 179.832 181.170 180.00 1.31721 0.01
10 1 -1 2 1 o 1887.898 1906.754 180.00 1.29501 0.26
5 2 3 1 1 o 78911.41 81030.85 0.00 1.29073 8.81
7 2 -2 1 1 o 1185.502 1229.152 0.00 1.29000 0.12
8 2 0 1 1 o 44241.43 41602.79 180.00 1.30138 5.47
8 1 -3 1 1 o 209.687 158.774 0.00 1.30131 0.12
1 3 0 2 1 o 16138.605 16868.617 0.00 1.29243 0.61
10 1 1 1 1 o 70614.03 74376.18 180.00 1.28896 11.17
5 2 -3 1 1 o 3935.350 3655.289 180.00 1.29986 0.45
5 2 3 2 1 o 76152.32 81030.85 0.00 1.29073 4.20
7 2 -2 2 1 o 1156.262 1229.152 0.00 1.29000 0.06
8 2 0 2 1 o 45054.46 41602.79 180.00 1.30138 2.78
8 1 3 1 1 o 70091.93 74723.98 0.00 1.28674 8.85
8 1 -3 2 1 o 224.686 158.774 0.00 1.30131 0.06
10 1 1 2 1 o 69113.11 74376.18 180.00 1.28896 5.41
5 2 -3 2 1 o 3921.353 3655.289 180.00 1.29986 0.22
10 0 -2 1 1 o 116139.69 109530.11 0.00 1.29560 9.67
6 1 -4 1 1 o 22.502 23.633 180.00 1.28377 0.00
10 1 -1 1 1 o 2076.724 1906.754 180.00 1.29501 0.56
10 0 2 1 1 o 63182.63 69422.34 0.00 1.28358 5.16
8 1 3 2 1 o 68366.89 74723.98 0.00 1.28674 4.27
7 2 2 1 1 o 1147.609 1277.750 0.00 1.28165 0.11
1 3 0 1 1 o 16944.734 16868.617 0.00 1.29243 1.31
10 0 -2 2 1 o 110032.78 109530.11 0.00 1.29560 4.51
6 1 -4 2 1 o 21.955 23.633 180.00 1.28377 0.00
10 0 2 2 1 o 60144.71 69422.34 0.00 1.28358 2.42
3 0 -5 1 1 o 2897.624 3225.501 0.00 1.28018 0.18
9 0 -3 1 1 o 234.223 261.407 180.00 1.27985 0.01
8 2 -1 1 1 o 16.914 26.493 0.00 1.27936 0.01
7 2 2 2 1 o 1093.263 1277.750 0.00 1.28165 0.05
3 0 -5 2 1 o 2817.512 3225.501 0.00 1.28018 0.08
9 0 -3 2 1 o 228.925 261.407 180.00 1.27985 0.01
8 2 -1 2 1 o 15.726 26.493 0.00 1.27936 0.00
2 3 0 1 1 o 58.892 65.997 180.00 1.27621 0.00
8 2 1 1 1 o 359.144 424.048 0.00 1.27470 0.04
0 3 1 1 1 o 10271.705 12523.625 180.00 1.27381 0.97
4 0 0 1 2 o 3115.135 3061.437 180.00 1.35772 2.76
2 3 0 2 1 o 59.176 65.997 180.00 1.27621 0.00
8 2 1 2 1 o 360.679 424.048 0.00 1.27470 0.02
3 0 5 1 1 o 10563.317 12681.798 180.00 1.27145 0.97
4 0 0 2 2 o 3199.573 3061.437 180.00 1.35772 1.41
0 3 1 2 1 o 10446.636 12523.625 180.00 1.27381 0.49
6 1 4 1 1 o 105.306 120.330 180.00 1.26977 0.01
1 3 -1 1 1 o 5739.071 6479.513 0.00 1.26885 0.43
3 0 5 2 1 o 11092.868 12681.798 180.00 1.27145 0.51
1 3 1 1 1 o 1841.130 2056.014 180.00 1.26828 0.13
6 1 4 2 1 o 109.522 120.330 180.00 1.26977 0.01
1 3 -1 2 1 o 5940.633 6479.513 0.00 1.26885 0.22
1 3 1 2 1 o 1896.639 2056.014 180.00 1.26828 0.07
9 0 3 1 1 o 38126.51 41296.01 0.00 1.26427 2.42
0 2 4 1 1 o 84933.45 93708.27 0.00 1.26228 9.63
9 0 3 2 1 o 37514.98 41296.01 0.00 1.26427 1.18
0 2 4 2 1 o 84181.37 93708.27 0.00 1.26228 4.74
1 2 -4 1 1 o 2001.974 2211.783 180.00 1.25829 0.21
1 2 4 1 1 o 283.087 321.703 0.00 1.25606 0.04
0 1 5 1 1 o 1251.683 1528.353 180.00 1.25551 0.43
1 2 -4 2 1 o 2026.645 2211.783 180.00 1.25829 0.11
2 3 -1 1 1 o 39104.89 42804.01 0.00 1.25377 3.12
1 2 4 2 1 o 284.488 321.703 0.00 1.25606 0.02
11 0 -1 1 1 o 7039.046 7755.938 0.00 1.25271 0.60
2 3 1 1 1 o 2333.471 2677.239 0.00 1.25267 0.27
0 1 5 2 1 o 1237.117 1528.353 180.00 1.25551 0.21
1 1 -5 1 1 o 436.839 484.452 0.00 1.25186 0.06
2 3 -1 2 1 o 38129.29 42804.01 0.00 1.25377 1.51
3 3 0 1 1 o 48761.13 54750.11 0.00 1.25049 3.84
11 0 -1 2 1 o 6920.299 7755.938 0.00 1.25271 0.29
2 3 1 2 1 o 2278.923 2677.239 0.00 1.25267 0.13
1 1 5 1 1 o 1.595 1.708 180.00 1.24912 0.00
1 1 -5 2 1 o 437.945 484.452 0.00 1.25186 0.03
3 3 0 2 1 o 51334.40 54750.11 0.00 1.25049 2.04
11 0 1 1 1 o 5841.915 6044.448 180.00 1.24669 0.47
1 1 5 2 1 o 1.695 1.708 180.00 1.24912 0.00
2 2 -4 1 1 o 1222.096 1192.995 180.00 1.24439 0.24
11 0 1 2 1 o 6132.382 6044.448 180.00 1.24669 0.25
6 2 -3 1 1 o 40.257 38.860 180.00 1.24308 0.01
2 2 -4 2 1 o 1240.412 1192.995 180.00 1.24439 0.12
6 2 3 2 1 o 8.502 15.879 180.00 1.23350 0.00
2 1 5 2 1 o 20013.691 24083.795 0.00 1.23314 1.48
3 3 -1 1 1 o 260.520 297.722 0.00 1.22961 0.01
2 2 4 1 1 o 8533.126 8500.672 0.00 1.24009 0.88
6 2 -3 2 1 o 39.072 38.860 180.00 1.24308 0.00
10 1 -2 1 1 o 19.433 22.236 0.00 1.22933 0.00
3 3 1 1 1 o 5286.513 6388.100 180.00 1.22805 0.39
2 1 -5 1 1 o 69255.44 70886.79 0.00 1.23843 9.90
2 2 4 2 1 o 8168.694 8500.672 0.00 1.24009 0.41
3 3 -1 2 1 o 257.124 297.722 0.00 1.22961 0.01
10 1 -2 2 1 o 19.235 22.236 0.00 1.22933 0.00
3 3 1 2 1 o 5346.709 6388.100 180.00 1.22805 0.20
2 1 -5 2 1 o 66663.88 70886.79 0.00 1.23843 4.70
6 2 3 1 1 o 11.557 15.879 180.00 1.23350 0.00
2 1 5 1 1 o 21570.203 24083.795 0.00 1.23314 3.25
3 2 -4 1 1 o 1293.840 1520.592 180.00 1.22153 0.12
7 1 -4 1 1 o -76.505 15.480 0.00 1.21987 0.07
10 1 2 1 1 o 507.190 581.439 0.00 1.21905 0.06
3 2 -4 2 1 o 1340.741 1520.592 180.00 1.22153 0.06
4 3 0 1 1 o 11367.995 12606.988 180.00 1.21696 0.90
7 1 -4 2 1 o -46.847 15.480 0.00 1.21987 0.03
3 1 -5 1 1 o 5.849 7.002 0.00 1.21614 0.00
10 1 2 2 1 o 539.237 581.439 0.00 1.21905 0.03
9 1 -3 1 1 o 77.859 82.347 0.00 1.21586 0.01
3 2 4 1 1 o 12.059 13.745 180.00 1.21544 0.00
8 2 -2 1 1 o 1076.387 1162.578 0.00 1.21543 0.14
9 2 0 1 1 o 82.758 85.569 180.00 1.21516 0.01
4 3 0 2 1 o 12246.532 12606.988 180.00 1.21696 0.49
3 1 -5 2 1 o 6.744 7.002 0.00 1.21614 0.00
9 1 -3 2 1 o 81.395 82.347 0.00 1.21586 0.00
3 2 4 2 1 o 13.386 13.745 180.00 1.21544 0.00
8 2 -2 2 1 o 1144.166 1162.578 0.00 1.21543 0.07
9 2 0 2 1 o 84.922 85.569 180.00 1.21516 0.00
8 0 -4 1 1 o 60611.82 61405.29 180.00 1.21135 3.60
11 1 0 1 1 o 34200.031 34692.094 180.00 1.20954 4.71
0 3 2 1 1 o 5.772 5.822 180.00 1.20867 0.00
3 1 5 1 1 o 1192.139 1202.144 180.00 1.20865 0.16
8 0 -4 2 1 o 61080.86 61405.29 180.00 1.21135 1.81
8 2 2 1 1 o 6589.793 6564.950 180.00 1.20745 0.77
11 1 0 2 1 o 34908.250 34692.094 180.00 1.20954 2.41
7 1 4 1 1 o 29815.809 29644.727 0.00 1.20587 3.51
0 3 2 2 1 o 5.852 5.822 180.00 1.20867 0.00
3 1 5 2 1 o 1208.318 1202.144 180.00 1.20865 0.08
5 0 -5 1 1 o 99884.02 99679.72 0.00 1.20470 6.84
1 3 -2 1 1 o 29218.393 29163.328 180.00 1.20468 2.14
8 2 2 2 1 o 6576.499 6564.950 180.00 1.20745 0.38
1 3 2 1 1 o 35741.74 35722.50 180.00 1.20370 2.59
7 1 4 2 1 o 29659.260 29644.727 0.00 1.20587 1.74
9 1 3 1 1 o 321.427 321.330 180.00 1.20248 0.04
5 0 -5 2 1 o 99627.31 99679.72 0.00 1.20470 3.40
1 3 -2 2 1 o 29148.270 29163.328 180.00 1.20468 1.06
1 3 2 2 1 o 35654.00 35722.50 180.00 1.20370 1.28
9 1 3 2 1 o 319.102 321.330 180.00 1.20248 0.02
4 3 -1 1 1 o 6429.157 6492.722 0.00 1.19793 0.39
9 2 -1 1 1 o 30400.029 30790.529 0.00 1.19742 3.06
4 3 1 1 1 o 25328.201 25642.572 180.00 1.19601 1.85
8 0 4 1 1 o 6331.222 6430.991 180.00 1.19572 0.45
4 3 -1 2 1 o 6423.625 6492.722 0.00 1.19793 0.19
9 2 -1 2 1 o 30404.656 30790.529 0.00 1.19742 1.52
9 2 1 1 1 o 13632.959 13685.723 180.00 1.19311 1.29
4 3 1 2 1 o 25548.225 25642.572 180.00 1.19601 0.93
8 0 4 2 1 o 6419.102 6430.991 180.00 1.19572 0.23
5 0 5 1 1 o 2903.124 2905.535 0.00 1.19263 0.30
11 1 -1 1 1 o 69.022 69.010 180.00 1.19251 0.01
2 3 -2 1 1 o 3461.891 3451.623 0.00 1.19199 0.25
4 2 -4 1 1 o 2668.083 2644.517 0.00 1.19116 0.29
9 2 1 2 1 o 13907.131 13685.723 180.00 1.19311 0.66
2 3 2 1 1 o 285.585 280.672 0.00 1.19010 0.02
5 0 5 2 1 o 3011.306 2905.535 0.00 1.19263 0.16
11 1 -1 2 1 o 70.250 69.010 180.00 1.19251 0.00
2 3 -2 2 1 o 3555.754 3451.623 0.00 1.19199 0.13
4 2 -4 2 1 o 2768.797 2644.517 0.00 1.19116 0.15
11 1 1 1 1 o 734.709 700.974 0.00 1.18732 0.10
5 3 0 1 1 o 7523.909 6003.935 180.00 1.17756 0.72
2 3 2 2 1 o 294.254 280.672 0.00 1.19010 0.01
4 1 5 1 1 o 6277.743 5213.528 180.00 1.17715 0.80
4 1 -5 1 1 o 11951.157 11444.856 0.00 1.18640 1.29
7 2 -3 1 1 o 79074.16 75113.68 180.00 1.18457 7.61
7 2 3 1 1 o 4619.783 3775.238 0.00 1.17490 0.41
11 1 1 2 1 o 736.278 700.974 0.00 1.18732 0.05
5 3 0 2 1 o 7949.194 6003.935 180.00 1.17756 0.38
4 1 5 2 1 o 6489.014 5213.528 180.00 1.17715 0.41
4 2 4 1 1 o 53060.10 50298.67 0.00 1.18365 5.24
4 1 -5 2 1 o 11990.739 11444.856 0.00 1.18640 0.65
7 2 -3 2 1 o 81486.69 75113.68 180.00 1.18457 3.92
7 2 3 2 1 o 4462.597 3775.238 0.00 1.17490 0.19
3 3 -2 1 1 o 1067.216 761.693 0.00 1.17140 0.15
4 2 4 2 1 o 55558.22 50298.67 0.00 1.18365 2.75
3 3 2 1 1 o 532.908 486.169 180.00 1.16871 0.04
3 3 -2 2 1 o 894.056 761.693 0.00 1.17140 0.07
12 0 0 1 1 o 86560.84 86661.42 180.00 1.16644 6.85
3 3 1 1 2 o 1407.206 1358.724 0.00 1.24593 4.13
3 3 2 2 1 o 475.962 486.169 180.00 1.16871 0.02
3 3 1 2 2 o 1428.003 1358.724 0.00 1.24593 2.08
12 0 0 2 1 o 82687.96 86661.42 180.00 1.16644 3.23
5 3 -1 1 1 o 193.597 195.467 0.00 1.16052 0.01
5 3 1 1 1 o 1011.216 951.003 180.00 1.15833 0.07
5 3 -1 2 1 o 214.176 195.467 0.00 1.16052 0.01
8 1 -4 1 1 o 587.307 512.471 180.00 1.15667 0.06
5 3 1 2 1 o 1125.369 951.003 180.00 1.15833 0.04
5 2 -4 1 1 o 2226.054 1851.589 180.00 1.15500 0.20
8 1 -4 2 1 o 641.530 512.471 180.00 1.15667 0.04
5 2 -4 2 1 o 2192.682 1851.589 180.00 1.15500 0.10
5 1 -5 1 1 o 194.631 162.724 180.00 1.15088 0.02
5 1 -5 2 1 o 216.857 162.724 180.00 1.15088 0.01
5 2 4 1 1 o 1517.634 1123.075 180.00 1.14646 0.15
9 2 -2 1 1 o 3136.124 2367.735 0.00 1.14472 0.31
4 3 -2 1 1 o 2162.376 1707.803 0.00 1.14412 0.15
5 2 4 2 1 o 1410.660 1123.075 180.00 1.14646 0.07
8 1 4 1 1 o 1226.974 1011.059 180.00 1.14304 0.13
10 2 0 2 1 o 161.549 59.008 0.00 1.13651 0.06
9 2 -2 2 1 o 2712.026 2367.735 0.00 1.14472 0.13
4 3 -2 2 1 o 1889.236 1707.803 0.00 1.14412 0.06
11 1 -2 1 1 o 23907.682 21899.090 0.00 1.14085 2.68
4 3 2 1 1 o 187.938 173.033 0.00 1.14078 0.01
11 1 2 1 1 o 11008.389 9938.362 0.00 1.13180 1.21
5 1 5 1 1 o 238.356 222.075 180.00 1.14034 0.02
6 3 0 2 1 o 369.464 345.986 180.00 1.13424 0.01
8 1 4 2 1 o 1095.191 1011.059 180.00 1.14304 0.06
11 1 -2 2 1 o 23239.043 21899.090 0.00 1.14085 1.29
4 3 2 2 1 o 183.288 173.033 0.00 1.14078 0.01
11 1 2 2 1 o 10938.233 9938.362 0.00 1.13180 0.60
10 1 -3 1 1 o 35438.34 32985.281 180.00 1.13770 4.10
5 1 5 2 1 o 235.539 222.075 180.00 1.14034 0.01
9 2 2 1 1 o 5906.721 5484.801 0.00 1.13723 0.57
10 2 0 1 1 o 142.996 59.008 0.00 1.13651 0.11
8 2 -3 1 1 o 2967.677 2726.249 0.00 1.12625 0.27
10 1 -3 2 1 o 36249.76 32985.281 180.00 1.13770 2.10
9 2 2 2 1 o 6017.615 5484.801 0.00 1.13723 0.29
10 1 3 1 1 o 165.625 100.462 0.00 1.12552 0.08
6 3 0 1 1 o 365.139 345.986 180.00 1.13424 0.02
8 2 -3 2 1 o 3009.653 2726.249 0.00 1.12625 0.14
10 1 3 2 1 o 168.555 100.462 0.00 1.12552 0.04
10 2 -1 1 1 o 2942.557 2706.631 180.00 1.12215 0.29
10 2 -1 2 1 o 2730.796 2706.631 180.00 1.12215 0.13
0 3 3 1 1 o 39917.04 39632.30 180.00 1.11929 3.02
6 3 -1 1 1 o 13093.725 13039.061 0.00 1.11918 0.82
10 2 1 1 1 o 1720.585 1730.994 0.00 1.11821 0.17
12 1 0 1 1 o 29.865 30.134 0.00 1.11739 0.01
6 3 1 1 1 o 39441.65 39642.44 180.00 1.11683 2.74
8 2 3 1 1 o 117.074 117.706 0.00 1.11676 0.01
0 3 3 2 1 o 39469.94 39632.30 180.00 1.11929 1.49
6 3 -1 2 1 o 13000.676 13039.061 0.00 1.11918 0.40
1 3 -3 1 1 o 265.991 266.563 180.00 1.11631 0.01
10 2 1 2 1 o 1733.009 1730.994 0.00 1.11821 0.08
1 3 3 1 1 o 9578.749 9561.810 0.00 1.11515 0.69
6 2 -4 1 1 o 3137.179 3131.885 180.00 1.11481 0.25
12 1 0 2 1 o 30.202 30.134 0.00 1.11739 0.00
6 3 1 2 1 o 39702.80 39642.44 180.00 1.11683 1.38
8 2 3 2 1 o 117.915 117.706 0.00 1.11676 0.01
1 3 -3 2 1 o 267.121 266.563 180.00 1.11631 0.01
1 3 3 2 1 o 9656.338 9561.810 0.00 1.11515 0.35
6 2 -4 2 1 o 3164.995 3131.885 180.00 1.11481 0.13
7 0 -5 1 1 o 145.133 136.412 0.00 1.11198 0.04
5 3 -2 1 1 o 19371.947 19097.451 180.00 1.11158 1.53
6 1 -5 1 1 o 10485.026 10362.997 0.00 1.11129 1.00
7 0 -5 2 1 o 154.575 136.412 0.00 1.11198 0.02
11 0 -3 1 1 o 1308.426 1269.642 0.00 1.10908 0.08
5 3 -2 2 1 o 19788.242 19097.451 180.00 1.11158 0.78
6 1 -5 2 1 o 10716.252 10362.997 0.00 1.11129 0.51
5 3 2 1 1 o 50458.85 48086.98 180.00 1.10775 3.71
2 3 -3 1 1 o 650.356 609.360 180.00 1.10638 0.06
11 0 -3 2 1 o 1339.771 1269.642 0.00 1.10908 0.04
6 2 4 1 1 o 24123.104 22862.920 0.00 1.10561 2.13
0 0 6 1 1 o 71.199 13.108 0.00 1.10528 0.08
5 3 2 2 1 o 50952.54 48086.98 180.00 1.10775 1.87
12 0 -2 1 1 o 9864.062 9330.441 0.00 1.10485 0.62
2 3 3 1 1 o 13286.701 12503.149 0.00 1.10411 1.06
12 1 -1 1 1 o 17584.859 16534.920 0.00 1.10411 2.45
2 3 -3 2 1 o 655.018 609.360 180.00 1.10638 0.03
6 2 4 2 1 o 24112.010 22862.920 0.00 1.10561 1.06
0 0 6 2 1 o 68.111 13.108 0.00 1.10528 0.04
11 0 3 2 1 o 33025.184 33116.641 0.00 1.09667 0.91
2 0 -6 1 1 o 21591.498 21662.660 180.00 1.09395 1.58
12 0 -2 2 1 o 9812.589 9330.441 0.00 1.10485 0.31
1 2 -5 1 1 o 32215.197 32390.768 0.00 1.09373 3.03
0 2 5 2 1 o 768.502 774.148 180.00 1.09616 0.03
12 0 2 2 1 o 4433.764 4477.569 0.00 1.09589 0.14
2 3 3 2 1 o 13178.336 12503.149 0.00 1.10411 0.52
12 1 -1 2 1 o 17439.629 16534.920 0.00 1.10411 1.21
9 1 -4 2 1 o 35154.19 35533.94 180.00 1.09560 1.61
1 2 5 1 1 o 12184.907 12306.349 0.00 1.09190 1.14
6 1 5 1 1 o 25840.109 24802.885 180.00 1.09993 2.69
12 1 1 1 1 o 2868.234 2710.195 0.00 1.09961 0.50
2 0 -6 2 1 o 21468.074 21662.660 180.00 1.09395 0.79
1 2 -5 2 1 o 32133.162 32390.768 0.00 1.09373 1.50
7 0 5 1 1 o 79332.84 76508.88 180.00 1.09873 4.45
3 3 -3 1 1 o 3237.784 3267.121 180.00 1.09004 0.24
6 1 5 2 1 o 25529.793 24802.885 180.00 1.09993 1.32
12 1 1 2 1 o 2822.724 2710.195 0.00 1.09961 0.25
11 0 3 1 1 o 34047.348 33116.641 0.00 1.09667 1.90
0 2 5 1 1 o 791.522 774.148 180.00 1.09616 0.07
7 0 5 2 1 o 78366.80 76508.88 180.00 1.09873 2.19
12 0 2 1 1 o 4574.875 4477.569 0.00 1.09589 0.28
9 1 -4 1 1 o 36165.43 35533.94 180.00 1.09560 3.34
4 2 2 1 2 o 2387.540 2247.390 0.00 1.10857 5.76
4 2 2 2 2 o 2422.905 2247.390 0.00 1.10857 2.91
