#------------------------------------------------------------------------------
#$Date: 2021-06-21 12:02:00 +0300 (Mon, 21 Jun 2021) $
#$Revision: 266607 $
#$URL: file:///home/coder/svn-repositories/cod/cif/1/56/36/1563638.cif $
#------------------------------------------------------------------------------
#
# This file is available in the Crystallography Open Database (COD),
# http://www.crystallography.net/
#
# All data on this site have been placed in the public domain by the
# contributors.
#
data_1563638
loop_
_publ_author_name
'Zubkov, Vladimir G.'
'Tarakina, Nadezda V.'
'Leonidov, Ivan I.'
'Tyutyunnik, Alexander P.'
'Surat, Ludmila L.'
'Melkozerova, Marina A.'
'Zabolotskaya, Elena V.'
'Kellerman, Dina G.'
_publ_section_title
;
 Synthesis and crystal structure of Ln2M2+Ge4O12, Ln=rare-earth element or
 Y; M=Ca, Mn, Zn
;
_journal_issue                   5
_journal_name_full               'Journal of Solid State Chemistry'
_journal_page_first              1186
_journal_page_last               1193
_journal_paper_doi               10.1016/j.jssc.2010.03.027
_journal_volume                  183
_journal_year                    2010
_chemical_formula_sum            'Ca Ge4 O12 Y2'
_chemical_formula_weight         700.24
_space_group_IT_number           125
_space_group_name_Hall           '-P 4a 2b'
_space_group_name_H-M_alt        'P 4/n b m :2'
_symmetry_cell_setting           tetragonal
_symmetry_space_group_name_H-M   'P 4/n b m :2'
_cell_angle_alpha                90.0
_cell_angle_beta                 90.0
_cell_angle_gamma                90.0
_cell_formula_units_Z            2
_cell_length_a                   9.98756(9)
_cell_length_b                   9.98756
_cell_length_c                   5.06434(6)
_cell_volume                     505.175(8)
_computing_structure_refinement  GSAS
_diffrn_radiation_polarisn_ratio 0.8
_diffrn_radiation_probe          x-ray
_diffrn_radiation_wavelength     1.54056
_exptl_absorpt_correction_T_max  25.83779
_exptl_absorpt_correction_T_min  10.74402
_exptl_absorpt_process_details
;   GSAS Absorption/surface roughness correction: function number 4
 Flat plate transmission absorption correction
Terms =     -1.5321         0.0000    
Correction is refined.
;
_pd_calc_method                  'Rietveld Refinement'
_pd_instr_location               ' ?'
_pd_meas_2theta_range_inc        0.02
_pd_meas_2theta_range_max        85.08
_pd_meas_2theta_range_min        2.0
_pd_meas_number_of_points        4155
_pd_proc_2theta_range_inc        0.02
_pd_proc_2theta_range_max        85.06242
_pd_proc_2theta_range_min        1.98242
_pd_proc_info_datetime           2010-02-27T13:15:19
_pd_proc_info_excluded_regions   ' ?'
_pd_proc_ls_background_function
;   GSAS Background function number 1 with 26 terms.
 Shifted Chebyshev function of 1st kind
      1:    499.931     2:   -599.416     3:    338.324     4:   -117.842    
      5:    15.4799     6:   -2.91578     7:    12.4885     8:   -18.1539    
      9:    13.1585    10:   -7.35565    11:    2.15208    12:   -1.58965    
     13:    15.4182    14:   -9.71734    15:    3.87201    16:   0.792152    
     17:   -3.13867    18:    2.93429    19:    4.29616    20:   -7.62572    
     21:    4.02237    22:    2.07391    23:   -10.2521    24:    15.0391    
     25:   -12.6785    26:    2.88237    
;
_pd_proc_ls_peak_cutoff          0.00200
_pd_proc_ls_profile_function
;
 CW Profile function number 2 with  18 terms
 Profile coefficients for Simpson's rule integration of pseudovoigt function
 C.J. Howard (1982). J. Appl. Cryst.,15,615-620.
 P. Thompson, D.E. Cox & J.B. Hastings (1987). J. Appl. Cryst.,20,79-83.
 #1(GU)   =   36.752 #2(GV)   =  -20.468 #3(GW)   =   15.875
 #4(LX)   =    1.850 #5(LY)   =   11.845 #6(trns) =    0.000
 #7(asym) =   1.0000 #8(shft) =   0.0000 #9(GP)   =    0.000
 #10(stec)=     0.00 #11(ptec)=     0.00 #12(sfec)=     0.00
 #13(L11) =    0.000 #14(L22) =    0.000 #15(L33) =    0.000
 #16(L12) =    0.000 #17(L13) =    0.000 #18(L23) =    0.000
 Peak tails are ignored  where the intensity is below 0.0020 times the peak
   Aniso. broadening axis   0.0   0.0   1.0
;
_pd_proc_ls_prof_R_factor        0.0423
_pd_proc_ls_prof_wR_expected     0.0431
_pd_proc_ls_prof_wR_factor       0.0579
_pd_proc_number_of_points        4155
_pd_spec_mounting                ' ?'
_refine_ls_goodness_of_fit_all   1.35
_refine_ls_matrix_type           full
_refine_ls_number_parameters     60
_refine_ls_number_restraints     0
_refine_ls_R_Fsqd_factor         0.03506
_refine_ls_shift/su_max          0.01
_refine_ls_shift/su_mean         0.00
_reflns_d_resolution_high        1.141
_reflns_d_resolution_low         7.062
_reflns_limit_h_max              8
_reflns_limit_h_min              0
_reflns_limit_k_max              6
_reflns_limit_k_min              0
_reflns_limit_l_max              4
_reflns_limit_l_min              0
_reflns_number_total             106
_cod_data_source_file            Y2CAGe4O12.cif
_cod_data_source_block           Y2CA(VO3)4_publ
_cod_depositor_comments
;
The following automatic conversions were performed:

data item '_geom_angle_publ_flag' value 'N' was changed to 'n' in
accordance with the built-in table derived from the CIF Core
dictionary named 'cif_core.dic' version 2.4.5 last updated on
2014-11-21 (194 times).

data item '_geom_bond_publ_flag' value 'N' was changed to 'n' in
accordance with the built-in table derived from the CIF Core
dictionary named 'cif_core.dic' version 2.4.5 last updated on
2014-11-21 (68 times).

Automatic conversion script
Id: cif_fix_values 8369 2020-08-20 11:38:08Z andrius 
;
_cod_original_cell_volume        505.175(12)
_cod_original_sg_symbol_H-M      'P 4/n b m'
_cod_original_formula_sum        'Ca1.00 Ge4 O12 Y2.00'
_cod_database_code               1563638
_gsas_exptl_extinct_corr_t_min   1.00000
_gsas_exptl_extinct_corr_t_max   1.00000
loop_
_symmetry_equiv_pos_site_id
_symmetry_equiv_pos_as_xyz
1 +x,+y,+z
2 -y+1/2,+x,+z
3 -x+1/2,-y+1/2,+z
4 +y,-x+1/2,+z
5 -x,+y+1/2,+z
6 -y,-x,+z
7 +x+1/2,-y,+z
8 +y+1/2,+x+1/2,+z
-1 -x,-y,-z
-2 +y+1/2,-x,-z
-3 +x+1/2,+y+1/2,-z
-4 -y,+x+1/2,-z
-5 +x,-y+1/2,-z
-6 +y,+x,-z
-7 -x+1/2,+y,-z
-8 -y+1/2,-x+1/2,-z
loop_
_atom_site_aniso_label
_atom_site_aniso_U_11
_atom_site_aniso_U_12
_atom_site_aniso_U_13
_atom_site_aniso_U_22
_atom_site_aniso_U_23
_atom_site_aniso_U_33
CA1 0.029(4) -0.0032(11) 0.0034(18) 0.029(4) -0.0034(18) 0.024(4)
Y1 0.029(4) -0.0032(11) 0.0034(18) 0.029(4) -0.0034(18) 0.024(4)
Y2 0.0206(34) 0.0 0.0 0.0206(34) 0.0 0.023(4)
GE1 0.026(4) 0.0 0.0 0.022(4) -0.0034(16) 0.0254(35)
O1 0.022(5) -0.019(5) -0.0009(33) 0.022(5) 0.0009(33) 0.016(6)
O2 0.026(6) 0.0193(23) 0.003(4) 0.021(6) 0.008(4) 0.013(4)
loop_
_atom_site_type_symbol
_atom_site_label
_atom_site_fract_x
_atom_site_fract_y
_atom_site_fract_z
_atom_site_occupancy
_atom_site_thermal_displace_type
_atom_site_U_iso_or_equiv
_atom_site_symmetry_multiplicity
Ca CA1 0.0 0.0 0.5 0.5 Uani 0.0272 4
Y Y1 0.0 0.0 0.5 0.5 Uani 0.0272 4
Y Y2 0.25 0.25 0.5 1.0 Uani 0.02153 2
Ge GE1 0.52071(12) 0.25 0.0 1.0 Uani 0.02449 8
O O1 0.6286(5) 0.3714(5) 0.1491(12) 1.0 Uani 0.01977 8
O O2 0.1740(5) 0.0612(5) 0.2619(8) 1.0 Uani 0.01975 16
loop_
_atom_type_symbol
_atom_type_number_in_cell
_atom_type_scat_dispersion_real
_atom_type_scat_dispersion_imag
_atom_type_scat_Cromer_Mann_a1
_atom_type_scat_Cromer_Mann_a2
_atom_type_scat_Cromer_Mann_a3
_atom_type_scat_Cromer_Mann_a4
_atom_type_scat_Cromer_Mann_b1
_atom_type_scat_Cromer_Mann_b2
_atom_type_scat_Cromer_Mann_b3
_atom_type_scat_Cromer_Mann_b4
_atom_type_scat_Cromer_Mann_c
_atom_type_scat_source
Ca 2.0 0.000 0.000 8.62660 10.4421 7.38730 0.65990 1.58990 85.7484 1.02110
178.437 1.37510 International_Tables_Vol_C
Y 4.0 0.000 0.000 17.7760 1.40290 10.2946 12.8006 5.72629 0.12560 3.26588
104.354 1.91213 International_Tables_Vol_C
Ge 8.0 0.000 0.000 16.0816 2.85090 6.37470 0.25160 3.70680 11.4468 3.68300
54.7625 2.13130 International_Tables_Vol_C
O 24.0 0.000 0.000 3.04850 13.2771 2.28680 5.70110 1.54630 0.32390 0.86700
32.9089 0.25080 International_Tables_Vol_C
loop_
_geom_angle_atom_site_label_1
_geom_angle_atom_site_label_2
_geom_angle_atom_site_label_3
_geom_angle
_geom_angle_site_symmetry_1
_geom_angle_site_symmetry_2
_geom_angle_site_symmetry_3
_geom_angle_publ_flag
Y2 CA1 Y2 180.0 1_555 . 5_545 n
Y2 CA1 O1 90.0002 1_555 . 3_555 n
Y2 CA1 O1 89.9998 1_555 . -3_456 n
Y2 CA1 O2 41.03(12) 1_555 . 1_555 n
Y2 CA1 O2 138.97(12) 1_555 . 6_555 n
Y2 CA1 O2 138.97(12) 1_555 . -1_556 n
Y2 CA1 O2 41.03(12) 1_555 . -6_556 n
Y2 CA1 O1 89.9998 5_545 . 3_555 n
Y2 CA1 O1 90.0002 5_545 . -3_456 n
Y2 CA1 O2 138.97(12) 5_545 . 1_555 n
Y2 CA1 O2 41.03(12) 5_545 . 6_555 n
Y2 CA1 O2 41.03(12) 5_545 . -1_556 n
Y2 CA1 O2 138.97(12) 5_545 . -6_556 n
O1 CA1 O1 180.0 3_555 . -3_456 n
O1 CA1 O2 82.86(15) 3_555 . 1_555 n
O1 CA1 O2 82.86(15) 3_555 . 6_555 n
O1 CA1 O2 97.14(15) 3_555 . -1_556 n
O1 CA1 O2 97.14(15) 3_555 . -6_556 n
O1 CA1 O2 97.14(15) -3_446 . 1_555 n
O1 CA1 O2 97.14(15) -3_446 . 6_555 n
O1 CA1 O2 82.86(15) -3_446 . -1_556 n
O1 CA1 O2 82.86(15) -3_446 . -6_556 n
O2 CA1 O2 97.93(25) 1_555 . 6_555 n
O2 CA1 O2 180.0 1_555 . -1_556 n
O2 CA1 O2 82.07(25) 1_555 . -6_556 n
O2 CA1 O2 82.07(25) 6_555 . -1_556 n
O2 CA1 O2 180.0 6_555 . -6_556 n
O2 CA1 O2 97.93(25) -1_556 . -6_556 n
Y2 Y1 Y2 180.0 1_555 . 5_545 n
Y2 Y1 O1 90.0002 1_555 . 3_555 n
Y2 Y1 O1 89.9998 1_555 . -3_456 n
Y2 Y1 O2 41.03(12) 1_555 . 1_555 n
Y2 Y1 O2 138.97(12) 1_555 . 6_555 n
Y2 Y1 O2 138.97(12) 1_555 . -1_556 n
Y2 Y1 O2 41.03(12) 1_555 . -6_556 n
Y2 Y1 O1 89.9998 5_545 . 3_555 n
Y2 Y1 O1 90.0002 5_545 . -3_456 n
Y2 Y1 O2 138.97(12) 5_545 . 1_555 n
Y2 Y1 O2 41.03(12) 5_545 . 6_555 n
Y2 Y1 O2 41.03(12) 5_545 . -1_556 n
Y2 Y1 O2 138.97(12) 5_545 . -6_556 n
O1 Y1 O1 180.0 3_555 . -3_456 n
O1 Y1 O2 82.86(15) 3_555 . 1_555 n
O1 Y1 O2 82.86(15) 3_555 . 6_555 n
O1 Y1 O2 97.14(15) 3_555 . -1_556 n
O1 Y1 O2 97.14(15) 3_555 . -6_556 n
O1 Y1 O2 97.14(15) -3_446 . 1_555 n
O1 Y1 O2 97.14(15) -3_446 . 6_555 n
O1 Y1 O2 82.86(15) -3_446 . -1_556 n
O1 Y1 O2 82.86(15) -3_446 . -6_556 n
O2 Y1 O2 97.93(25) 1_555 . 6_555 n
O2 Y1 O2 180.0 1_555 . -1_556 n
O2 Y1 O2 82.07(25) 1_555 . -6_556 n
O2 Y1 O2 82.07(25) 6_555 . -1_556 n
O2 Y1 O2 180.0 6_555 . -6_556 n
O2 Y1 O2 97.93(25) -1_556 . -6_556 n
CA1 Y2 CA1 90.0 1_555 . 2_555 n
CA1 Y2 CA1 180.0 1_555 . 3_555 n
CA1 Y2 CA1 90.0 1_555 . 4_555 n
CA1 Y2 Y1 0.0 1_555 . 1_555 n
CA1 Y2 Y1 90.0 1_555 . 2_555 n
CA1 Y2 Y1 180.0 1_555 . 3_555 n
CA1 Y2 Y1 90.0 1_555 . 4_555 n
CA1 Y2 O2 37.69(12) 1_555 . 1_555 n
CA1 Y2 O2 109.69(10) 1_555 . 2_555 n
CA1 Y2 O2 142.31(12) 1_555 . 3_555 n
CA1 Y2 O2 70.31(10) 1_555 . 4_555 n
CA1 Y2 O2 109.69(10) 1_555 . -5_456 n
CA1 Y2 O2 37.69(12) 1_555 . -6_556 n
CA1 Y2 O2 70.31(10) 1_555 . -7_546 n
CA1 Y2 O2 142.31(12) 1_555 . -8_556 n
CA1 Y2 CA1 90.0 2_555 . 3_555 n
CA1 Y2 CA1 180.0 2_555 . 4_555 n
CA1 Y2 Y1 90.0 2_555 . 1_555 n
CA1 Y2 Y1 0.0 2_555 . 2_555 n
CA1 Y2 Y1 90.0 2_555 . 3_555 n
CA1 Y2 Y1 180.0 2_555 . 4_555 n
CA1 Y2 O2 70.31(10) 2_555 . 1_555 n
CA1 Y2 O2 37.69(12) 2_555 . 2_555 n
CA1 Y2 O2 109.69(10) 2_555 . 3_555 n
CA1 Y2 O2 142.31(12) 2_555 . 4_555 n
CA1 Y2 O2 142.31(12) 2_555 . -5_456 n
CA1 Y2 O2 109.69(10) 2_555 . -6_556 n
CA1 Y2 O2 37.69(12) 2_555 . -7_546 n
CA1 Y2 O2 70.31(10) 2_555 . -8_556 n
CA1 Y2 CA1 90.0 3_555 . 4_555 n
CA1 Y2 Y1 180.0 3_555 . 1_555 n
CA1 Y2 Y1 90.0 3_555 . 2_555 n
CA1 Y2 Y1 0.0 3_555 . 3_555 n
CA1 Y2 Y1 90.0 3_555 . 4_555 n
CA1 Y2 O2 142.31(12) 3_555 . 1_555 n
CA1 Y2 O2 70.31(10) 3_555 . 2_555 n
CA1 Y2 O2 37.69(12) 3_555 . 3_555 n
CA1 Y2 O2 109.69(10) 3_555 . 4_555 n
CA1 Y2 O2 70.31(10) 3_555 . -5_456 n
CA1 Y2 O2 142.31(12) 3_555 . -6_556 n
CA1 Y2 O2 109.69(10) 3_555 . -7_546 n
CA1 Y2 O2 37.69(12) 3_555 . -8_556 n
CA1 Y2 Y1 90.0 4_555 . 1_555 n
CA1 Y2 Y1 180.0 4_555 . 2_555 n
CA1 Y2 Y1 90.0 4_555 . 3_555 n
CA1 Y2 Y1 0.0 4_555 . 4_555 n
CA1 Y2 O2 109.69(10) 4_555 . 1_555 n
CA1 Y2 O2 142.31(12) 4_555 . 2_555 n
CA1 Y2 O2 70.31(10) 4_555 . 3_555 n
CA1 Y2 O2 37.69(12) 4_555 . 4_555 n
CA1 Y2 O2 37.69(12) 4_555 . -5_456 n
CA1 Y2 O2 70.31(10) 4_555 . -6_556 n
CA1 Y2 O2 142.31(12) 4_555 . -7_546 n
CA1 Y2 O2 109.69(10) 4_555 . -8_556 n
Y1 Y2 Y1 90.0 1_555 . 2_555 n
Y1 Y2 Y1 180.0 1_555 . 3_555 n
Y1 Y2 Y1 90.0 1_555 . 4_555 n
Y1 Y2 O2 37.69(12) 1_555 . 1_555 n
Y1 Y2 O2 109.69(10) 1_555 . 2_555 n
Y1 Y2 O2 142.31(12) 1_555 . 3_555 n
Y1 Y2 O2 70.31(10) 1_555 . 4_555 n
Y1 Y2 O2 109.69(10) 1_555 . -5_456 n
Y1 Y2 O2 37.69(12) 1_555 . -6_556 n
Y1 Y2 O2 70.31(10) 1_555 . -7_546 n
Y1 Y2 O2 142.31(12) 1_555 . -8_556 n
Y1 Y2 Y1 90.0 2_555 . 3_555 n
Y1 Y2 Y1 180.0 2_555 . 4_555 n
Y1 Y2 O2 70.31(10) 2_555 . 1_555 n
Y1 Y2 O2 37.69(12) 2_555 . 2_555 n
Y1 Y2 O2 109.69(10) 2_555 . 3_555 n
Y1 Y2 O2 142.31(12) 2_555 . 4_555 n
Y1 Y2 O2 142.31(12) 2_555 . -5_456 n
Y1 Y2 O2 109.69(10) 2_555 . -6_556 n
Y1 Y2 O2 37.69(12) 2_555 . -7_546 n
Y1 Y2 O2 70.31(10) 2_555 . -8_556 n
Y1 Y2 Y1 90.0 3_555 . 4_555 n
Y1 Y2 O2 142.31(12) 3_555 . 1_555 n
Y1 Y2 O2 70.31(10) 3_555 . 2_555 n
Y1 Y2 O2 37.69(12) 3_555 . 3_555 n
Y1 Y2 O2 109.69(10) 3_555 . 4_555 n
Y1 Y2 O2 70.31(10) 3_555 . -5_456 n
Y1 Y2 O2 142.31(12) 3_555 . -6_556 n
Y1 Y2 O2 109.69(10) 3_555 . -7_546 n
Y1 Y2 O2 37.69(12) 3_555 . -8_556 n
Y1 Y2 O2 109.69(10) 4_555 . 1_555 n
Y1 Y2 O2 142.31(12) 4_555 . 2_555 n
Y1 Y2 O2 70.31(10) 4_555 . 3_555 n
Y1 Y2 O2 37.69(12) 4_555 . 4_555 n
Y1 Y2 O2 37.69(12) 4_555 . -5_456 n
Y1 Y2 O2 70.31(10) 4_555 . -6_556 n
Y1 Y2 O2 142.31(12) 4_555 . -7_546 n
Y1 Y2 O2 109.69(10) 4_555 . -8_556 n
O2 Y2 O2 74.91(10) 1_555 . 2_555 n
O2 Y2 O2 118.65(22) 1_555 . 3_555 n
O2 Y2 O2 74.91(10) 1_555 . 4_555 n
O2 Y2 O2 142.52(21) 1_555 . -5_456 n
O2 Y2 O2 75.38(23) 1_555 . -6_556 n
O2 Y2 O2 74.16(19) 1_555 . -7_546 n
O2 Y2 O2 140.62(19) 1_555 . -8_556 n
O2 Y2 O2 74.91(10) 2_555 . 3_555 n
O2 Y2 O2 118.65(22) 2_555 . 4_555 n
O2 Y2 O2 140.62(19) 2_555 . -5_456 n
O2 Y2 O2 142.52(21) 2_555 . -6_556 n
O2 Y2 O2 75.38(23) 2_555 . -7_546 n
O2 Y2 O2 74.16(19) 2_555 . -8_556 n
O2 Y2 O2 74.91(10) 3_555 . 4_555 n
O2 Y2 O2 74.16(19) 3_555 . -5_456 n
O2 Y2 O2 140.62(19) 3_555 . -6_556 n
O2 Y2 O2 142.52(21) 3_555 . -7_546 n
O2 Y2 O2 75.38(23) 3_555 . -8_556 n
O2 Y2 O2 75.38(23) 4_555 . -5_456 n
O2 Y2 O2 74.16(19) 4_555 . -6_556 n
O2 Y2 O2 140.62(19) 4_555 . -7_546 n
O2 Y2 O2 142.52(21) 4_555 . -8_556 n
O2 Y2 O2 74.91(10) -5_456 . -6_556 n
O2 Y2 O2 118.65(22) -5_456 . -7_546 n
O2 Y2 O2 74.91(10) -5_456 . -8_556 n
O2 Y2 O2 74.91(10) -6_556 . -7_546 n
O2 Y2 O2 118.65(22) -6_556 . -8_556 n
O2 Y2 O2 74.91(10) -7_546 . -8_556 n
O1 GE1 O1 105.9(5) 1_555 . -4_555 n
O1 GE1 O2 104.96(22) 1_555 . 2_555 n
O1 GE1 O2 108.08(28) 1_555 . -8_555 n
O1 GE1 O2 108.08(28) -4_545 . 2_555 n
O1 GE1 O2 104.96(22) -4_545 . -8_555 n
O2 GE1 O2 123.69(34) 2_555 . -8_555 n
CA1 O1 Y1 0.0 3_555 . 3_555 n
CA1 O1 GE1 109.46(23) 3_555 . 1_555 n
CA1 O1 GE1 109.46(23) 3_555 . 6_665 n
Y1 O1 GE1 109.46(23) 3_555 . 1_555 n
Y1 O1 GE1 109.46(23) 3_555 . 6_665 n
GE1 O1 GE1 129.6(4) 1_555 . 6_665 n
CA1 O2 Y1 0.0 1_555 . 1_555 n
CA1 O2 Y2 101.28(17) 1_555 . 1_555 n
CA1 O2 GE1 129.35(29) 1_555 . 4_555 n
Y1 O2 Y2 101.28(17) 1_555 . 1_555 n
Y1 O2 GE1 129.35(29) 1_555 . 4_555 n
Y2 O2 GE1 128.75(28) 1_555 . 4_555 n
loop_
_geom_bond_atom_site_label_1
_geom_bond_atom_site_label_2
_geom_bond_distance
_geom_bond_site_symmetry_1
_geom_bond_site_symmetry_2
_geom_bond_publ_flag
CA1 Y2 3.531140(30) . 1_555 n
CA1 Y2 3.531140(30) . 5_545 n
CA1 GE1 3.56218(8) . 3_555 n
CA1 GE1 3.56218(8) . 3_556 n
CA1 GE1 3.56218(8) . 4_555 n
CA1 GE1 3.56218(8) . 4_556 n
CA1 GE1 3.56218(8) . 7_455 n
CA1 GE1 3.56218(8) . 7_456 n
CA1 GE1 3.56218(8) . 8_445 n
CA1 GE1 3.56218(8) . 8_446 n
CA1 O1 2.541(7) . 3_555 n
CA1 O1 2.541(7) . -3_446 n
CA1 O2 2.201(5) . 1_555 n
CA1 O2 2.201(5) . 6_555 n
CA1 O2 2.201(5) . -1_556 n
CA1 O2 2.201(5) . -6_556 n
Y1 Y2 3.531140(30) . 1_555 n
Y1 Y2 3.531140(30) . 5_545 n
Y1 GE1 3.56218(8) . 3_555 n
Y1 GE1 3.56218(8) . 3_556 n
Y1 GE1 3.56218(8) . 4_555 n
Y1 GE1 3.56218(8) . 4_556 n
Y1 GE1 3.56218(8) . 7_455 n
Y1 GE1 3.56218(8) . 7_456 n
Y1 GE1 3.56218(8) . 8_445 n
Y1 GE1 3.56218(8) . 8_446 n
Y1 O1 2.541(7) . 3_555 n
Y1 O1 2.541(7) . -3_446 n
Y1 O2 2.201(5) . 1_555 n
Y1 O2 2.201(5) . 6_555 n
Y1 O2 2.201(5) . -1_556 n
Y1 O2 2.201(5) . -6_556 n
Y2 CA1 3.531140(30) . 1_555 n
Y2 CA1 3.531140(30) . 2_555 n
Y2 CA1 3.531140(30) . 3_555 n
Y2 CA1 3.531140(30) . 4_555 n
Y2 Y1 3.531140(30) . 1_555 n
Y2 Y1 3.531140(30) . 2_555 n
Y2 Y1 3.531140(30) . 3_555 n
Y2 Y1 3.531140(30) . 4_555 n
Y2 O2 2.364(5) . 1_555 n
Y2 O2 2.364(5) . 2_555 n
Y2 O2 2.364(5) . 3_555 n
Y2 O2 2.364(5) . 4_555 n
Y2 O2 2.364(5) . -5_556 n
Y2 O2 2.364(5) . -6_556 n
Y2 O2 2.364(5) . -7_556 n
Y2 O2 2.364(5) . -8_556 n
GE1 CA1 3.56218(8) . 2_554 n
GE1 CA1 3.56218(8) . 2_555 n
GE1 CA1 3.56218(8) . 3_554 n
GE1 CA1 3.56218(8) . 3_555 n
GE1 Y1 3.56218(8) . 2_554 n
GE1 Y1 3.56218(8) . 2_555 n
GE1 Y1 3.56218(8) . 3_554 n
GE1 Y1 3.56218(8) . 3_555 n
GE1 O1 1.7893(26) . 1_555 n
GE1 O1 1.7893(26) . -4_645 n
GE1 O2 1.733(4) . 2_555 n
GE1 O2 1.733(4) . -8_555 n
O1 CA1 2.541(7) . 3_555 n
O1 Y1 2.541(7) . 3_555 n
O1 GE1 1.7893(26) . 1_555 n
O1 GE1 1.7893(26) . 6_665 n
O2 CA1 2.201(5) . 1_555 n
O2 Y1 2.201(5) . 1_555 n
O2 Y2 2.364(5) . 1_555 n
O2 GE1 1.733(4) . 4_555 n
loop_
_pd_meas_counts_total
_pd_proc_ls_weight
_pd_proc_intensity_bkg_calc
_pd_calc_intensity_total
1741.0 0.000574 1623.96765 1623.97046
1662.0 0.000602 1627.38867 1627.39099
1741.0 0.000574 1630.09766 1630.09949
1665.0 0.000601 1632.13538 1632.13696
1631.0 0.000613 1633.54211 1633.54333
1708.0 0.000585 1634.35559 1634.35657
1585.0 0.000631 1634.61255 1634.61328
1667.0 0.000600 1634.34827 1634.34875
1636.0 0.000611 1633.59631 1633.59656
1610.0 0.000621 1632.38928 1632.38940
1631.0 0.000613 1630.75806 1630.75793
1637.0 0.000611 1628.73254 1628.73230
1590.0 0.000629 1626.34106 1626.34058
1528.0 0.000654 1623.61108 1623.61047
1629.0 0.000614 1620.56848 1620.56775
1584.0 0.000631 1617.23853 1617.23779
1588.0 0.000630 1613.64490 1613.64404
1630.0 0.000613 1609.81030 1609.80945
1555.0 0.000643 1605.75696 1605.75598
1601.0 0.000625 1601.50513 1601.50403
1602.0 0.000624 1597.07483 1597.07385
1579.0 0.000633 1592.48499 1592.48389
1507.0 0.000664 1587.75354 1587.75244
1540.0 0.000649 1582.89734 1582.89624
1526.0 0.000655 1577.93286 1577.93176
1575.0 0.000635 1572.87561 1572.87451
1581.0 0.000633 1567.73987 1567.73877
1510.0 0.000662 1562.53992 1562.53882
1542.0 0.000649 1557.28845 1557.28735
1506.0 0.000664 1551.99829 1551.99719
1491.0 0.000671 1546.68066 1546.67969
1459.0 0.000685 1541.34705 1541.34619
1481.0 0.000675 1536.00769 1536.00684
1551.0 0.000645 1530.67249 1530.67163
1487.0 0.000672 1525.35071 1525.34985
1467.0 0.000682 1520.05078 1520.05005
1497.0 0.000668 1514.78113 1514.78040
1549.0 0.000646 1509.54883 1509.54822
1507.0 0.000664 1504.36133 1504.36072
1550.0 0.000645 1499.22498 1499.22449
1495.0 0.000669 1494.14612 1494.14551
1514.0 0.000661 1489.13025 1489.12976
1465.0 0.000683 1484.18237 1484.18188
1527.0 0.000655 1479.30750 1479.30713
1489.0 0.000672 1474.50989 1474.50964
1455.0 0.000687 1469.79382 1469.79358
1409.0 0.000710 1465.16272 1465.16248
1467.0 0.000682 1460.61975 1460.61963
1467.0 0.000682 1456.16809 1456.16797
1477.0 0.000677 1451.81018 1451.81006
1423.0 0.000703 1447.54846 1447.54846
1416.0 0.000706 1443.38477 1443.38489
1437.0 0.000696 1439.32117 1439.32129
1371.0 0.000729 1435.35876 1435.35889
1419.0 0.000705 1431.49902 1431.49915
1486.0 0.000673 1427.74268 1427.74292
1491.0 0.000671 1424.09070 1424.09094
1387.0 0.000721 1420.54346 1420.54370
1413.0 0.000708 1417.10120 1417.10156
1380.0 0.000725 1413.76428 1413.76465
1405.0 0.000712 1410.53235 1410.53271
1446.0 0.000692 1407.40540 1407.40576
1408.0 0.000710 1404.38257 1404.38306
1412.0 0.000708 1401.46362 1401.46411
1433.0 0.000698 1398.64783 1398.64832
1470.0 0.000680 1395.93408 1395.93469
1418.0 0.000705 1393.32166 1393.32227
1371.0 0.000729 1390.80908 1390.80969
1404.0 0.000712 1388.39539 1388.39600
1465.0 0.000683 1386.07898 1386.07959
1422.0 0.000703 1383.85840 1383.85901
1394.0 0.000717 1381.73230 1381.73291
1430.0 0.000699 1379.69873 1379.69946
1494.0 0.000669 1377.75623 1377.75684
1400.0 0.000714 1375.90271 1375.90344
1447.0 0.000691 1374.13660 1374.13721
1403.0 0.000713 1372.45557 1372.45630
1349.0 0.000741 1370.85803 1370.85876
1427.0 0.000701 1369.34155 1369.34229
1419.0 0.000705 1367.90430 1367.90491
1387.0 0.000721 1366.54395 1366.54468
1372.0 0.000729 1365.25842 1365.25916
1409.0 0.000710 1364.04553 1364.04614
1306.0 0.000766 1362.90295 1362.90356
1436.0 0.000696 1361.82837 1361.82898
1385.0 0.000722 1360.81958 1360.82019
1415.0 0.000707 1359.87427 1359.87488
1359.0 0.000736 1358.99023 1358.99084
1411.0 0.000709 1358.16504 1358.16553
1356.0 0.000737 1357.39636 1357.39685
1342.0 0.000745 1356.68176 1356.68225
1351.0 0.000740 1356.01917 1356.01965
1328.0 0.000753 1355.40588 1355.40649
1346.0 0.000743 1354.84009 1354.84058
1367.0 0.000732 1354.31909 1354.31958
1370.0 0.000730 1353.84070 1353.84119
1355.0 0.000738 1353.40283 1353.40320
1365.0 0.000733 1353.00293 1353.00330
1364.0 0.000733 1352.63892 1352.63928
1349.0 0.000741 1352.30859 1352.30884
1326.0 0.000754 1352.00964 1352.01001
1396.0 0.000716 1351.73999 1351.74023
1301.0 0.000769 1351.49744 1351.49768
1341.0 0.000746 1351.28003 1351.28015
1408.0 0.000710 1351.08533 1351.08557
1378.0 0.000726 1350.91174 1350.91199
1315.0 0.000760 1350.75696 1350.75708
1346.0 0.000743 1350.61902 1350.61914
1339.0 0.000747 1350.49609 1350.49622
1360.0 0.000735 1350.38611 1350.38623
1337.0 0.000748 1350.28748 1350.28748
1336.0 0.000749 1350.19800 1350.19800
1366.0 0.000732 1350.11609 1350.11609
1389.0 0.000720 1350.03992 1350.03979
1366.0 0.000732 1349.96790 1349.96777
1332.0 0.000751 1349.89807 1349.89795
1331.0 0.000751 1349.82910 1349.82898
1350.0 0.000741 1349.75940 1349.75916
1352.0 0.000740 1349.68713 1349.68701
1337.0 0.000748 1349.61108 1349.61084
1366.0 0.000732 1349.52966 1349.52942
1340.0 0.000746 1349.44153 1349.44128
1314.0 0.000761 1349.34521 1349.34485
1355.0 0.000738 1349.23938 1349.23901
1352.0 0.000740 1349.12280 1349.12244
1320.0 0.000758 1348.99426 1348.99390
1414.0 0.000707 1348.85254 1348.85217
1351.0 0.000740 1348.69653 1348.69604
1288.0 0.000776 1348.52502 1348.52454
1350.0 0.000741 1348.33704 1348.33643
1296.0 0.000772 1348.13147 1348.13098
1369.0 0.000730 1347.90735 1347.90674
1324.0 0.000755 1347.66382 1347.66321
1361.0 0.000735 1347.40002 1347.39941
1395.0 0.000717 1347.11487 1347.11426
1330.0 0.000752 1346.80786 1346.80725
1319.0 0.000758 1346.47803 1346.47742
1271.0 0.000787 1346.12488 1346.12415
1341.0 0.000746 1345.74731 1345.74658
1333.0 0.000750 1345.34509 1345.34436
1348.0 0.000742 1344.91748 1344.91663
1377.0 0.000726 1344.46375 1344.46301
1369.0 0.000730 1343.98364 1343.98291
1341.0 0.000746 1343.47656 1343.47571
1374.0 0.000728 1342.94202 1342.94128
1276.0 0.000784 1342.37964 1342.37878
1342.0 0.000745 1341.78906 1341.78821
1375.0 0.000727 1341.17004 1341.16919
1320.0 0.000758 1340.52209 1340.52112
1361.0 0.000735 1339.84509 1339.84424
1427.0 0.000701 1339.13867 1339.13770
1385.0 0.000722 1338.40283 1338.40198
1255.0 0.000797 1337.63733 1337.63635
1276.0 0.000784 1336.84192 1336.84094
1274.0 0.000785 1336.01660 1336.01563
1338.0 0.000747 1335.16125 1335.16028
1265.0 0.000791 1334.27600 1334.27502
1307.0 0.000765 1333.36060 1333.35962
1238.0 0.000808 1332.41541 1332.41443
1281.0 0.000781 1331.44006 1331.43909
1350.0 0.000741 1330.43494 1330.43396
1331.0 0.000751 1329.40002 1329.39905
1346.0 0.000743 1328.33545 1328.33447
1352.0 0.000740 1327.24146 1327.24036
1327.0 0.000754 1326.11804 1326.11707
1319.0 0.000758 1324.96570 1324.96472
1304.0 0.000767 1323.78442 1323.78333
1311.0 0.000763 1322.57458 1322.57349
1270.0 0.000787 1321.33630 1321.33533
1307.0 0.000765 1320.07007 1320.06897
1305.0 0.000766 1318.77612 1318.77515
1279.0 0.000782 1317.45471 1317.45374
1261.0 0.000793 1316.10645 1316.10547
1314.0 0.000761 1314.73132 1314.73035
1326.0 0.000754 1313.33008 1313.32910
1312.0 0.000762 1311.90295 1311.90198
1254.0 0.000797 1310.45044 1310.44946
1323.0 0.000756 1308.97278 1308.97180
1311.0 0.000763 1307.47070 1307.46973
1259.0 0.000794 1305.94470 1305.94373
1229.0 0.000814 1304.39490 1304.39392
1266.0 0.000790 1302.82227 1302.82129
1300.0 0.000769 1301.22681 1301.22583
1280.0 0.000781 1299.60950 1299.60852
1201.0 0.000833 1297.97058 1297.96960
1331.0 0.000751 1296.31079 1296.30981
1297.0 0.000771 1294.63049 1294.62952
1313.0 0.000762 1292.93030 1292.92932
1348.0 0.000742 1291.21094 1291.21008
1218.0 0.000821 1289.47278 1289.47192
1275.0 0.000784 1287.71667 1287.71570
1274.0 0.000785 1285.94287 1285.94202
1297.0 0.000771 1284.15222 1284.15137
1274.0 0.000785 1282.34521 1282.34448
1306.0 0.000766 1280.52258 1280.52173
1253.0 0.000798 1278.68494 1278.68408
1259.0 0.000794 1276.83264 1276.83179
1258.0 0.000795 1274.96667 1274.96582
1293.0 0.000773 1273.08728 1273.08655
1214.0 0.000824 1271.19556 1271.19482
1293.0 0.000773 1269.29175 1269.29102
1260.0 0.000794 1267.37659 1267.37585
1276.0 0.000784 1265.45081 1265.45007
1258.0 0.000795 1263.51489 1263.51416
1265.0 0.000791 1261.56970 1261.56897
1248.0 0.000801 1259.61560 1259.61499
1226.0 0.000816 1257.65344 1257.65283
1305.0 0.000766 1255.68372 1255.68311
1280.0 0.000781 1253.70728 1253.70654
1217.0 0.000822 1251.72437 1251.72375
1290.0 0.000775 1249.73584 1249.73523
1245.0 0.000803 1247.74243 1247.74194
1338.0 0.000747 1245.74463 1245.74414
1215.0 0.000823 1243.74304 1243.74255
1212.0 0.000825 1241.73828 1241.73779
1220.0 0.000820 1239.73108 1239.73059
1224.0 0.000817 1237.72192 1237.72144
1180.0 0.000847 1235.71143 1235.71094
1203.0 0.000831 1233.70020 1233.69971
1236.0 0.000809 1231.68884 1231.68835
1247.0 0.000802 1229.67798 1229.67749
1206.0 0.000829 1227.66797 1227.66760
1212.0 0.000825 1225.65979 1225.65942
1209.0 0.000827 1223.65356 1223.65320
1242.0 0.000805 1221.65015 1221.64978
1176.0 0.000850 1219.65002 1219.64978
1194.0 0.000838 1217.65369 1217.65332
1185.0 0.000844 1215.66187 1215.66150
1211.0 0.000826 1213.67468 1213.67444
1247.0 0.000802 1211.69312 1211.69287
1237.0 0.000808 1209.71741 1209.71704
1185.0 0.000844 1207.74805 1207.74780
1183.0 0.000845 1205.78564 1205.78540
1208.0 0.000828 1203.83069 1203.83044
1186.0 0.000843 1201.88367 1201.88342
1209.0 0.000827 1199.94482 1199.94458
1203.0 0.000831 1198.01501 1198.01477
1242.0 0.000805 1196.09424 1196.09399
1195.0 0.000837 1194.18323 1194.18298
1110.0 0.000901 1192.28247 1192.28235
1213.0 0.000824 1190.39221 1190.39209
1235.0 0.000810 1188.51294 1188.51282
1158.0 0.000864 1186.64502 1186.64490
1177.0 0.000850 1184.78894 1184.78870
1188.0 0.000842 1182.94482 1182.94470
1261.0 0.000793 1181.11340 1181.11328
1232.0 0.000812 1179.29480 1179.29468
1218.0 0.000821 1177.48926 1177.48926
1224.0 0.000817 1175.69751 1175.69739
1181.0 0.000847 1173.91956 1173.91943
1186.0 0.000843 1172.15588 1172.15576
1170.0 0.000855 1170.40662 1170.40649
1209.0 0.000827 1168.67224 1168.67224
1154.0 0.000867 1166.95288 1166.95288
1194.0 0.000838 1165.24902 1165.24902
1185.0 0.000844 1163.56079 1163.56067
1146.0 0.000873 1161.88831 1161.88831
1205.0 0.000830 1160.23218 1160.23218
1220.0 0.000820 1158.59229 1158.59229
1205.0 0.000830 1156.96899 1156.96899
1169.0 0.000855 1155.36243 1155.36243
1163.0 0.000860 1153.77307 1153.77307
1191.0 0.000840 1152.20068 1152.20068
1196.0 0.000836 1150.64575 1150.64575
1146.0 0.000873 1149.10840 1149.10840
1130.0 0.000885 1147.58875 1147.58875
1103.0 0.000907 1146.08691 1146.08691
1167.0 0.000857 1144.60303 1144.60303
1216.0 0.000822 1143.13733 1143.13733
1217.0 0.000822 1141.68982 1141.68982
1108.0 0.000903 1140.26050 1140.26050
1181.0 0.000847 1138.84973 1138.84985
1204.0 0.000831 1137.45740 1137.45752
1183.0 0.000845 1136.08374 1136.08386
1211.0 0.000826 1134.72876 1134.72876
1088.0 0.000919 1133.39246 1133.39246
1187.0 0.000842 1132.07471 1132.07483
1149.0 0.000870 1130.77600 1130.77600
1123.0 0.000890 1129.49597 1129.49597
1181.0 0.000847 1128.23474 1128.23474
1135.0 0.000881 1126.99231 1126.99243
1152.0 0.000868 1125.76880 1125.76880
1146.0 0.000873 1124.56409 1124.56409
1159.0 0.000863 1123.37817 1123.37817
1143.0 0.000875 1122.21094 1122.21106
1125.0 0.000889 1121.06250 1121.06250
1131.0 0.000884 1119.93274 1119.93274
1138.0 0.000879 1118.82153 1118.82166
1171.0 0.000854 1117.72888 1117.72888
1183.0 0.000845 1116.65491 1116.65491
1079.0 0.000927 1115.59912 1115.59912
1155.0 0.000866 1114.56165 1114.56165
1150.0 0.000870 1113.54248 1113.54248
1127.0 0.000887 1112.54126 1112.54126
1092.0 0.000916 1111.55823 1111.55823
1132.0 0.000883 1110.59290 1110.59290
1141.0 0.000876 1109.64551 1109.64539
1066.0 0.000938 1108.71558 1108.71545
1152.0 0.000868 1107.80310 1107.80310
1154.0 0.000867 1106.90796 1106.90784
1137.0 0.000880 1106.03003 1106.02991
1129.0 0.000886 1105.16895 1105.16895
1104.0 0.000906 1104.32471 1104.32471
1090.0 0.000917 1103.49731 1103.49719
1107.0 0.000903 1102.68616 1102.68604
1122.0 0.000891 1101.89136 1101.89124
1113.0 0.000898 1101.11255 1101.11243
1112.0 0.000899 1100.34961 1100.34949
1063.0 0.000941 1099.60254 1099.60229
1093.0 0.000915 1098.87073 1098.87048
1110.0 0.000901 1098.15417 1098.15405
1074.0 0.000931 1097.45264 1097.45251
1121.0 0.000892 1096.76599 1096.76575
1107.0 0.000903 1096.09375 1096.09351
1107.0 0.000903 1095.43591 1095.43567
1116.0 0.000896 1094.79199 1094.79175
1098.0 0.000911 1094.16211 1094.16187
1088.0 0.000919 1093.54565 1093.54541
1101.0 0.000908 1092.94250 1092.94226
1031.0 0.000970 1092.35242 1092.35217
1127.0 0.000887 1091.77502 1091.77478
1079.0 0.000927 1091.21033 1091.21008
1106.0 0.000904 1090.65784 1090.65747
1111.0 0.000900 1090.11731 1090.11694
1067.0 0.000937 1089.58838 1089.58801
1096.0 0.000912 1089.07092 1089.07056
1138.0 0.000879 1088.56470 1088.56433
1130.0 0.000885 1088.06921 1088.06885
1061.0 0.000943 1087.58435 1087.58398
1156.0 0.000865 1087.10974 1087.10938
1152.0 0.000868 1086.64502 1086.64465
1075.0 0.000930 1086.19006 1086.18970
1114.0 0.000898 1085.74451 1085.74402
1047.0 0.000955 1085.30798 1085.30762
1051.0 0.000951 1084.88025 1084.87976
1100.0 0.000909 1084.46094 1084.46057
1069.0 0.000935 1084.04993 1084.04944
1142.0 0.000876 1083.64673 1083.64624
1129.0 0.000886 1083.25098 1083.25049
1074.0 0.000931 1082.86255 1082.86206
1102.0 0.000907 1082.48108 1082.48047
1069.0 0.000935 1082.10620 1082.10559
1057.0 0.000946 1081.73767 1081.73706
1108.0 0.000903 1081.37512 1081.37451
1079.0 0.000927 1081.01831 1081.01770
1130.0 0.000885 1080.66675 1080.66614
1056.0 0.000947 1080.32043 1080.31982
1046.0 0.000956 1079.97876 1079.97815
1078.0 0.000928 1079.64160 1079.64087
1066.0 0.000938 1079.30859 1079.30786
1103.0 0.000907 1078.97925 1078.97864
1022.0 0.000978 1078.65356 1078.65295
1102.0 0.000907 1078.33105 1078.33032
1094.0 0.000914 1078.01147 1078.01074
1116.0 0.000896 1077.69446 1077.69373
1092.0 0.000916 1077.37964 1077.37891
1013.0 0.000987 1077.06689 1077.06616
1047.0 0.000955 1076.75574 1076.75500
1075.0 0.000930 1076.44604 1076.44531
1070.0 0.000935 1076.13733 1076.13660
1050.0 0.000952 1075.82947 1075.82861
1083.0 0.000923 1075.52197 1075.52112
1045.0 0.000957 1075.21472 1075.21387
993.0 0.001007 1074.90723 1074.90637
1057.0 0.000946 1074.59937 1074.59851
1113.0 0.000898 1074.29077 1074.28992
1112.0 0.000899 1073.98120 1073.98035
1036.0 0.000965 1073.67041 1073.66943
1069.0 0.000935 1073.35791 1073.35693
1067.0 0.000937 1073.04358 1073.04272
1032.0 0.000969 1072.72717 1072.72620
1104.0 0.000906 1072.40820 1072.40735
1030.0 0.000971 1072.08667 1072.08569
1046.0 0.000956 1071.76208 1071.76111
1075.0 0.000930 1071.43433 1071.43347
1051.0 0.000951 1071.10303 1071.10217
1005.0 0.000995 1070.76807 1070.76709
1003.0 0.000997 1070.42896 1070.42798
1011.0 0.000989 1070.08569 1070.08459
1026.0 0.000975 1069.73779 1069.73682
1031.0 0.000970 1069.38513 1069.38403
1045.0 0.000957 1069.02747 1069.02637
1041.0 0.000961 1068.66443 1068.66345
1067.0 0.000937 1068.29602 1068.29492
1062.0 0.000942 1067.92175 1067.92065
1026.0 0.000975 1067.54150 1067.54041
1064.0 0.000940 1067.15503 1067.15393
1016.0 0.000984 1066.76208 1066.76099
986.0 0.001014 1066.36255 1066.36145
1069.0 0.000935 1065.95605 1065.95496
1033.0 0.000968 1065.54260 1065.54150
1022.0 0.000978 1065.12170 1065.12061
1053.0 0.000950 1064.69336 1064.69226
1031.0 0.000970 1064.25720 1064.25610
1111.0 0.000900 1063.81323 1063.81201
1006.0 0.000994 1063.36108 1063.35999
1053.0 0.000950 1062.90063 1062.89954
1058.0 0.000945 1062.43176 1062.43066
1069.0 0.000935 1061.95422 1061.95300
1061.0 0.000943 1061.46777 1061.46667
1050.0 0.000952 1060.97229 1060.97119
1052.0 0.000951 1060.46765 1060.46643
1052.0 0.000951 1059.95361 1059.95251
1020.0 0.000980 1059.43005 1059.42896
1032.0 0.000969 1058.89697 1058.89575
1066.0 0.000938 1058.35388 1058.35266
1024.0 0.000977 1057.80090 1057.79968
1035.0 0.000966 1057.23779 1057.23657
1073.0 0.000932 1056.66443 1056.66321
1086.0 0.000921 1056.08069 1056.07947
1025.0 0.000976 1055.48633 1055.48511
1023.0 0.000978 1054.88147 1054.88025
1015.0 0.000985 1054.26575 1054.26453
1107.0 0.000903 1053.63928 1053.63806
1035.0 0.000966 1053.00159 1053.00037
1036.0 0.000965 1052.35291 1052.35168
1077.0 0.000929 1051.69312 1051.69189
1008.0 0.000992 1051.02185 1051.02063
1000.0 0.001000 1050.33936 1050.33813
975.0 0.001026 1049.64526 1049.64404
1018.0 0.000982 1048.93970 1048.93848
1051.0 0.000951 1048.22241 1048.22119
1003.0 0.000997 1047.49341 1047.49219
1012.0 0.000988 1046.75256 1046.75134
1057.0 0.000946 1046.00000 1045.99878
1021.0 0.000979 1045.23535 1045.23413
1010.0 0.000990 1044.45874 1044.45752
1059.0 0.000944 1043.67017 1043.66895
1044.0 0.000958 1042.86951 1042.86829
1067.0 0.000937 1042.05676 1042.05554
1025.0 0.000976 1041.23169 1041.23047
1053.0 0.000950 1040.39453 1040.39331
1024.0 0.000977 1039.54504 1039.54382
1056.0 0.000947 1038.68335 1038.68213
1083.0 0.000923 1037.80945 1037.80823
978.0 0.001022 1036.92310 1036.92188
1039.0 0.000962 1036.02454 1036.02332
1046.0 0.000956 1035.11365 1035.11243
1024.0 0.000977 1034.19031 1034.18909
1086.0 0.000921 1033.25476 1033.25354
1078.0 0.000928 1032.30688 1032.30566
1028.0 0.000973 1031.34668 1031.34546
1056.0 0.000947 1030.37402 1030.37292
1077.0 0.000929 1029.38928 1029.38806
989.0 0.001011 1028.39209 1028.39087
1044.0 0.000958 1027.38281 1027.38159
1059.0 0.000944 1026.36121 1026.35999
1010.0 0.000990 1025.32739 1025.32629
980.0 0.001020 1024.28149 1024.28027
1018.0 0.000982 1023.22345 1023.22229
1007.0 0.000993 1022.15332 1022.15210
1007.0 0.000993 1021.07111 1021.06995
977.0 0.001024 1019.97705 1019.97589
1032.0 0.000969 1018.87097 1018.86981
974.0 0.001027 1017.75311 1017.75195
1004.0 0.000996 1016.62335 1016.62219
964.0 0.001037 1015.48187 1015.48077
1028.0 0.000973 1014.32886 1014.32770
1046.0 0.000956 1013.16412 1013.16296
1003.0 0.000997 1011.98792 1011.98682
1004.0 0.000996 1010.80029 1010.79919
1015.0 0.000985 1009.60126 1009.60016
1033.0 0.000968 1008.39105 1008.38995
994.0 0.001006 1007.16962 1007.16852
1006.0 0.000994 1005.93713 1005.93610
1035.0 0.000966 1004.69360 1004.69250
1024.0 0.000977 1003.43933 1003.43823
978.0 0.001022 1002.17413 1002.17303
1017.0 0.000983 1000.89838 1000.89728
1019.0 0.000981 999.61194 999.61084
980.0 0.001020 998.31512 998.31409
985.0 0.001015 997.00787 997.00684
930.0 0.001075 995.69055 995.68951
998.0 0.001002 994.36298 994.36194
964.0 0.001037 993.02545 993.02448
1005.0 0.000995 991.67816 991.67712
927.0 0.001079 990.32104 990.32007
1000.0 0.001000 988.95447 988.95343
977.0 0.001024 987.57831 987.57727
1035.0 0.000966 986.19287 986.19183
966.0 0.001035 984.79822 984.79724
997.0 0.001003 983.39453 983.39355
995.0 0.001005 981.98199 981.98102
981.0 0.001019 980.56067 980.55969
987.0 0.001013 979.13068 979.12970
944.0 0.001059 977.69238 977.69141
976.0 0.001025 976.24561 976.24469
945.0 0.001058 974.79083 974.78992
971.0 0.001030 973.32794 973.32703
957.0 0.001045 971.85730 971.85638
926.0 0.001080 970.37891 970.37799
921.0 0.001086 968.89313 971.61243
991.0 0.001009 967.39984 970.27936
971.0 0.001030 965.89948 968.95380
936.0 0.001068 964.39203 967.63745
913.0 0.001095 962.87781 966.33276
966.0 0.001035 961.35681 965.04230
947.0 0.001056 959.82928 963.76910
939.0 0.001065 958.29553 962.51685
902.0 0.001109 956.75555 961.28955
939.0 0.001065 955.20959 960.09235
952.0 0.001050 953.65778 958.93085
969.0 0.001032 952.10040 957.81238
952.0 0.001050 950.53754 956.74554
965.0 0.001036 948.96942 955.74060
924.0 0.001082 947.39624 954.81049
925.0 0.001081 945.81805 953.97107
994.0 0.001006 944.23517 953.24255
916.0 0.001092 942.64783 952.65051
918.0 0.001089 941.05603 952.22736
931.0 0.001074 939.46021 952.01587
979.0 0.001021 937.86023 952.07233
995.0 0.001005 936.25659 952.47260
919.0 0.001088 934.64917 953.31970
959.0 0.001043 933.03851 954.75989
976.0 0.001025 931.42450 957.00958
986.0 0.001014 929.80756 960.43781
1003.0 0.000997 928.18762 965.82739
1077.0 0.000929 926.56512 975.18353
1054.0 0.000949 924.94006 993.76685
1246.0 0.000803 923.31274 1033.87915
1264.0 0.000791 921.68341 1119.00269
1355.0 0.000738 920.05206 1282.58533
1590.0 0.000629 918.41907 1552.36218
1848.0 0.000541 916.78455 1916.45569
2168.0 0.000461 915.14862 2289.67969
2545.0 0.000393 913.51160 2524.35083
2570.0 0.000389 911.87360 2481.25854
2409.0 0.000415 910.23492 2172.89966
1996.0 0.000501 908.59558 1769.12952
1567.0 0.000638 906.95581 1419.51416
1258.0 0.000795 905.31604 1183.59424
1099.0 0.000910 903.67609 1052.03687
1079.0 0.000927 902.03644 987.80585
972.0 0.001029 900.39703 957.47327
898.0 0.001114 898.75836 941.52789
969.0 0.001032 897.12030 931.36292
906.0 0.001104 895.48322 923.80212
934.0 0.001071 893.84723 917.70587
879.0 0.001138 892.21259 912.58710
879.0 0.001138 890.57935 908.17487
906.0 0.001104 888.94794 904.29187
907.0 0.001103 887.31818 900.81348
911.0 0.001098 885.69055 897.64996
912.0 0.001096 884.06512 894.73523
855.0 0.001170 882.44214 892.01959
870.0 0.001149 880.82172 889.46533
853.0 0.001172 879.20398 887.04346
904.0 0.001106 877.58917 884.73126
862.0 0.001160 875.97754 882.51099
893.0 0.001120 874.36914 880.36829
866.0 0.001155 872.76422 878.29181
899.0 0.001112 871.16290 876.27234
872.0 0.001147 869.56531 874.30212
878.0 0.001139 867.97186 872.37531
861.0 0.001161 866.38239 870.48633
836.0 0.001196 864.79730 868.63123
873.0 0.001145 863.21661 866.80634
877.0 0.001140 861.64063 865.00867
839.0 0.001192 860.06934 863.23553
862.0 0.001160 858.50311 861.48511
892.0 0.001121 856.94189 859.75525
883.0 0.001133 855.38605 855.38550
869.0 0.001151 853.83551 853.83496
857.0 0.001167 852.29065 852.29010
886.0 0.001129 850.75140 850.75092
872.0 0.001147 849.21814 849.21759
880.0 0.001136 847.69086 847.69037
913.0 0.001095 846.16980 846.16925
875.0 0.001143 844.65503 844.65454
848.0 0.001179 843.14673 843.14624
905.0 0.001105 841.64502 841.64447
885.0 0.001130 840.15015 840.14966
807.0 0.001239 838.66211 838.66156
815.0 0.001227 837.18115 837.18060
850.0 0.001176 835.70728 835.70673
857.0 0.001167 834.24066 834.24017
838.0 0.001193 832.78162 832.78107
856.0 0.001168 831.33002 831.32947
858.0 0.001166 829.88617 829.88568
870.0 0.001149 828.45007 828.44952
899.0 0.001112 827.02197 827.02148
813.0 0.001230 825.60187 825.60132
855.0 0.001170 824.19000 824.18945
887.0 0.001127 822.78632 822.78577
819.0 0.001221 821.39117 821.39063
833.0 0.001200 820.00439 820.00385
830.0 0.001205 818.62634 818.62579
824.0 0.001214 817.25696 817.25635
810.0 0.001235 815.89636 815.89581
802.0 0.001247 814.54480 814.54425
839.0 0.001192 813.20227 813.20166
793.0 0.001261 811.86884 811.86829
834.0 0.001199 810.54468 810.54413
872.0 0.001147 809.22980 809.22919
839.0 0.001192 807.92444 807.92383
800.0 0.001250 806.62848 806.62787
803.0 0.001245 805.34222 805.34161
791.0 0.001264 804.06555 804.06494
839.0 0.001192 802.79877 802.79816
779.0 0.001284 801.54175 801.54114
790.0 0.001266 800.29462 800.29401
838.0 0.001193 799.05762 799.05701
874.0 0.001144 797.83057 797.82996
834.0 0.001199 796.61383 796.61322
826.0 0.001211 795.40717 795.40656
827.0 0.001209 794.21088 794.21027
797.0 0.001255 793.02490 793.02423
810.0 0.001235 791.84937 791.84875
779.0 0.001284 790.68427 790.68359
766.0 0.001305 789.52972 789.52905
783.0 0.001277 788.38574 788.38507
763.0 0.001311 787.25244 787.25177
791.0 0.001264 786.12982 786.12915
810.0 0.001235 785.01788 785.01721
882.0 0.001134 783.91681 783.91614
811.0 0.001233 782.82648 782.82581
803.0 0.001245 781.74707 781.74634
800.0 0.001250 780.67859 780.67786
786.0 0.001272 779.62097 779.62024
716.0 0.001397 778.57446 778.57373
776.0 0.001289 777.53882 777.53809
810.0 0.001235 776.51434 776.51355
803.0 0.001245 775.50079 775.50006
794.0 0.001259 774.49847 774.49768
743.0 0.001346 773.50714 773.50635
801.0 0.001248 772.52692 772.52618
802.0 0.001247 771.55798 771.55719
757.0 0.001321 770.60010 770.59930
777.0 0.001287 769.65350 769.65271
770.0 0.001299 768.71796 768.71716
821.0 0.001218 767.79376 767.79291
785.0 0.001274 766.88062 766.87982
725.0 0.001379 765.97876 765.97791
792.0 0.001263 765.08807 765.08728
753.0 0.001328 764.20862 764.20776
736.0 0.001359 763.34039 763.33954
767.0 0.001304 762.48334 762.48242
733.0 0.001364 761.63745 761.63660
796.0 0.001256 760.80280 760.80188
795.0 0.001258 759.97925 759.97833
809.0 0.001236 759.16693 759.16602
790.0 0.001266 758.36566 758.36475
752.0 0.001330 757.57562 757.57465
773.0 0.001294 756.79657 756.79565
748.0 0.001337 756.02869 756.02777
773.0 0.001294 755.27179 755.27087
768.0 0.001302 754.52600 754.52502
757.0 0.001321 753.79114 753.79016
741.0 0.001350 753.06732 753.06635
732.0 0.001366 752.35437 752.35333
800.0 0.001250 751.65228 751.65131
718.0 0.001393 750.96118 750.96014
782.0 0.001279 750.28076 750.27979
778.0 0.001285 749.61127 749.61023
775.0 0.001290 748.95239 748.95135
754.0 0.001326 748.30426 748.30322
716.0 0.001397 747.66687 747.66577
716.0 0.001397 747.03992 747.03888
744.0 0.001344 746.42365 746.42261
732.0 0.001366 745.81781 745.81671
765.0 0.001307 745.22247 745.22137
778.0 0.001285 744.63745 744.63635
771.0 0.001297 744.06274 744.06165
732.0 0.001366 743.49841 743.49725
765.0 0.001307 742.94421 742.94305
761.0 0.001314 742.40021 742.39905
772.0 0.001295 741.86627 741.86505
727.0 0.001376 741.34235 741.34113
710.0 0.001408 740.82831 740.82715
700.0 0.001429 740.32422 740.32306
785.0 0.001274 739.82990 739.82867
749.0 0.001335 739.34534 739.34412
708.0 0.001412 738.87042 738.86920
720.0 0.001389 738.40503 738.40381
782.0 0.001279 737.94922 737.94800
741.0 0.001350 737.50281 737.50153
746.0 0.001340 737.06573 737.06451
764.0 0.001309 736.63794 736.63666
707.0 0.001414 736.21924 736.21796
702.0 0.001425 735.80975 735.80847
725.0 0.001379 735.40918 735.40784
781.0 0.001280 735.01758 735.01630
728.0 0.001374 734.63477 734.63342
720.0 0.001389 734.26068 734.25934
733.0 0.001364 733.89532 733.89392
746.0 0.001340 733.53839 733.53705
722.0 0.001385 733.19000 733.18866
736.0 0.001359 732.84998 732.84857
782.0 0.001279 732.51819 732.51678
721.0 0.001387 732.19452 732.19312
699.0 0.001431 731.87903 731.87762
736.0 0.001359 731.57141 731.56995
705.0 0.001418 731.27167 731.27026
738.0 0.001355 730.97968 730.97821
694.0 0.001441 730.69537 730.69391
718.0 0.001393 730.41858 730.41711
714.0 0.001401 730.14923 730.14777
703.0 0.001422 729.88733 729.88580
714.0 0.001401 729.63251 729.63104
669.0 0.001495 729.38495 729.38342
690.0 0.001449 729.14429 729.14276
701.0 0.001427 728.91052 728.90900
689.0 0.001451 728.68365 728.68207
724.0 0.001381 728.46338 728.46179
660.0 0.001515 728.24969 728.24817
710.0 0.001408 728.04242 728.04089
700.0 0.001429 727.84155 727.83997
705.0 0.001418 727.64685 727.64526
727.0 0.001376 727.45825 727.45667
748.0 0.001337 727.27570 727.27411
733.0 0.001364 727.09900 727.09735
681.0 0.001468 726.92798 726.92639
720.0 0.001389 726.76263 726.76099
728.0 0.001374 726.60278 726.60114
729.0 0.001372 726.44836 726.44672
734.0 0.001362 726.29926 726.29755
728.0 0.001374 726.15521 726.15356
708.0 0.001412 726.01624 726.01453
697.0 0.001435 725.88214 725.88049
693.0 0.001443 725.75287 725.75116
721.0 0.001387 725.62830 725.62659
699.0 0.001431 725.50818 725.50647
673.0 0.001486 725.39252 725.39081
696.0 0.001437 725.28113 725.27942
698.0 0.001433 725.17395 725.17218
740.0 0.001351 725.07086 725.06909
756.0 0.001323 724.97156 724.96985
734.0 0.001362 724.87616 724.87439
746.0 0.001340 724.78436 724.78265
687.0 0.001456 724.69617 724.69440
713.0 0.001403 724.61139 724.60962
667.0 0.001499 724.52991 724.52814
718.0 0.001393 724.45160 724.44977
671.0 0.001490 724.37628 724.37451
718.0 0.001393 724.30389 724.30212
717.0 0.001395 724.23444 724.23260
722.0 0.001385 724.16748 724.16571
778.0 0.001285 724.10315 724.10132
670.0 0.001493 724.04114 724.03931
701.0 0.001427 723.98151 725.81287
695.0 0.001439 723.92407 725.86353
693.0 0.001443 723.86865 725.92603
704.0 0.001420 723.81506 726.00159
639.0 0.001565 723.76337 726.09137
694.0 0.001441 723.71326 726.19702
670.0 0.001493 723.66479 726.32025
662.0 0.001511 723.61761 726.46338
675.0 0.001481 723.57184 726.62885
665.0 0.001504 723.52716 726.81982
703.0 0.001422 723.48352 727.04004
687.0 0.001456 723.44086 727.29413
655.0 0.001527 723.39893 728.35352
740.0 0.001351 723.35773 728.73773
687.0 0.001456 723.31702 729.18054
711.0 0.001406 723.27679 729.69305
709.0 0.001410 723.23688 730.28943
701.0 0.001427 723.19714 730.98688
667.0 0.001499 723.15747 731.80829
645.0 0.001550 723.11774 732.78320
695.0 0.001439 723.07776 733.95050
706.0 0.001416 723.03760 735.36218
727.0 0.001376 722.99701 737.08954
709.0 0.001410 722.95587 739.23175
753.0 0.001328 722.91406 741.93427
737.0 0.001357 722.87152 745.43372
712.0 0.001404 722.82806 750.20172
722.0 0.001385 722.78369 757.39716
764.0 0.001309 722.73816 770.05267
784.0 0.001276 722.69141 795.37469
859.0 0.001164 722.64325 847.30914
956.0 0.001046 722.59369 945.68842
1125.0 0.000889 722.54260 1106.42957
1241.0 0.000806 722.48981 1321.61731
1481.0 0.000675 722.43524 1538.86194
1567.0 0.000638 722.37872 1663.20288
1644.0 0.000608 722.32019 1615.59607
1445.0 0.000692 722.25964 1425.81970
1302.0 0.000768 722.19684 1199.28308
1047.0 0.000955 722.13165 1012.91650
880.0 0.001136 722.06403 892.72852
827.0 0.001209 721.99390 831.83606
840.0 0.001190 721.92120 813.97247
778.0 0.001285 721.84564 829.20093
896.0 0.001116 721.76721 875.97980
885.0 0.001130 721.68585 952.54718
988.0 0.001012 721.60150 1044.63940
1089.0 0.000918 721.51398 1118.37427
1113.0 0.000898 721.42316 1131.47632
1129.0 0.000886 721.32898 1071.69751
1003.0 0.000997 721.23138 975.02393
883.0 0.001133 721.13025 883.05701
817.0 0.001224 721.02551 816.13074
714.0 0.001401 720.91699 775.96039
714.0 0.001401 720.80463 754.96985
755.0 0.001325 720.68835 744.59357
697.0 0.001435 720.56805 739.12048
647.0 0.001546 720.44379 735.74121
676.0 0.001479 720.31525 733.32202
655.0 0.001527 720.18237 731.43591
715.0 0.001399 720.04517 729.90192
636.0 0.001572 719.90350 728.62262
688.0 0.001453 719.75739 727.53534
745.0 0.001342 719.60663 726.59570
714.0 0.001401 719.45117 725.77136
694.0 0.001441 719.29089 725.03845
739.0 0.001353 719.12573 724.37860
672.0 0.001488 718.95575 723.77789
739.0 0.001353 718.78070 723.22522
714.0 0.001401 718.60059 722.71185
713.0 0.001403 718.41522 722.23083
680.0 0.001471 718.22473 720.00250
687.0 0.001456 718.02887 719.66486
695.0 0.001439 717.82770 719.33820
718.0 0.001393 717.62097 719.01984
710.0 0.001408 717.40881 718.70789
735.0 0.001361 717.19098 718.40057
696.0 0.001437 716.96753 718.09650
675.0 0.001481 716.73840 717.79462
695.0 0.001439 716.50348 717.49365
737.0 0.001357 716.26270 717.19275
749.0 0.001335 716.01593 716.89124
707.0 0.001414 715.76324 716.58850
768.0 0.001302 715.50458 715.50269
717.0 0.001395 715.23981 715.23792
681.0 0.001468 714.96887 714.96698
717.0 0.001395 714.69177 714.68988
685.0 0.001460 714.40839 714.40649
657.0 0.001522 714.11871 714.11682
686.0 0.001458 713.82275 713.82086
682.0 0.001466 713.52026 713.51837
707.0 0.001414 713.21136 713.20947
749.0 0.001335 712.89600 712.89410
712.0 0.001404 712.57410 712.57227
717.0 0.001395 712.24554 712.24371
730.0 0.001370 711.91034 711.90851
730.0 0.001370 711.56854 711.56671
731.0 0.001368 711.21997 711.21814
769.0 0.001300 710.86469 710.86285
719.0 0.001391 710.50250 710.50067
698.0 0.001433 710.13361 710.13177
766.0 0.001305 709.75775 709.75592
747.0 0.001339 709.37500 709.37317
720.0 0.001389 708.98535 708.98358
752.0 0.001330 708.58875 708.58698
730.0 0.001370 708.18512 708.18329
768.0 0.001302 707.77441 707.77258
764.0 0.001309 707.35669 707.35486
754.0 0.001326 706.93188 706.93011
712.0 0.001404 706.50000 706.49823
741.0 0.001350 706.06091 706.05914
754.0 0.001326 705.61469 705.61292
741.0 0.001350 705.16125 705.15948
746.0 0.001340 704.70068 704.69891
691.0 0.001447 704.23291 704.23114
747.0 0.001339 703.75781 703.75610
749.0 0.001335 703.27551 703.27374
740.0 0.001351 702.78595 702.78424
731.0 0.001368 702.28906 702.28735
768.0 0.001302 701.78497 701.78326
734.0 0.001362 701.27350 701.27179
724.0 0.001381 700.75476 700.75305
721.0 0.001387 700.22864 700.22693
761.0 0.001314 699.69519 699.69348
723.0 0.001383 699.15448 699.15277
753.0 0.001328 698.60638 698.60474
714.0 0.001401 698.05090 698.04926
792.0 0.001263 697.48810 697.48639
747.0 0.001339 696.91791 696.91626
766.0 0.001305 696.34045 696.33881
766.0 0.001305 695.75562 695.75397
735.0 0.001361 695.16339 695.16174
814.0 0.001229 694.56378 694.56219
721.0 0.001387 693.95697 693.95532
740.0 0.001351 693.34271 693.34106
729.0 0.001372 692.72119 692.71960
738.0 0.001355 692.09229 692.09070
734.0 0.001362 691.45605 691.45447
750.0 0.001333 690.81262 690.81104
707.0 0.001414 690.16187 690.16028
736.0 0.001359 689.50385 689.50226
735.0 0.001361 688.83850 688.83691
725.0 0.001379 688.16602 688.16443
757.0 0.001321 687.48615 687.48462
726.0 0.001377 686.79919 686.79767
704.0 0.001420 686.10498 686.10345
723.0 0.001383 685.40369 685.40216
674.0 0.001484 684.69513 684.69360
703.0 0.001422 683.97943 683.97791
728.0 0.001374 683.25671 683.25519
764.0 0.001309 682.52692 682.52539
751.0 0.001332 681.78998 681.78851
724.0 0.001381 681.04602 681.04456
688.0 0.001453 680.29504 680.29358
701.0 0.001427 679.53717 679.53571
691.0 0.001447 678.77234 678.77087
679.0 0.001473 678.00049 677.99902
720.0 0.001389 677.22180 677.22034
701.0 0.001427 676.43634 676.43488
673.0 0.001486 675.64392 675.64246
685.0 0.001460 674.84479 674.84332
701.0 0.001427 674.03888 674.03741
746.0 0.001340 673.22620 673.22473
729.0 0.001372 672.40692 672.40552
718.0 0.001393 671.58093 671.57953
672.0 0.001488 670.74841 670.74701
682.0 0.001466 669.90924 669.90784
726.0 0.001377 669.06366 669.06226
715.0 0.001399 668.21149 668.21008
654.0 0.001529 667.35291 667.35150
705.0 0.001418 666.48792 666.48657
677.0 0.001477 665.61664 665.61530
654.0 0.001529 664.73901 664.73761
708.0 0.001412 663.85504 663.85370
651.0 0.001536 662.96490 662.96356
641.0 0.001560 662.06866 662.06732
656.0 0.001524 661.16632 661.16498
712.0 0.001404 660.25781 660.25641
661.0 0.001513 659.34326 659.34192
688.0 0.001453 658.42285 658.42151
658.0 0.001520 657.49640 657.49506
667.0 0.001499 656.56415 656.56281
671.0 0.001490 655.62604 655.62469
699.0 0.001431 654.68225 654.68091
718.0 0.001393 653.73267 653.73138
665.0 0.001504 652.77740 652.77612
630.0 0.001587 651.81665 651.81531
641.0 0.001560 650.85022 650.84894
698.0 0.001433 649.87848 649.87720
661.0 0.001513 648.90118 648.89990
648.0 0.001543 647.91852 647.91724
649.0 0.001541 646.93060 646.92932
660.0 0.001515 645.93744 645.93622
668.0 0.001497 644.93903 644.93781
683.0 0.001464 643.93549 651.34460
688.0 0.001453 642.92694 650.67395
644.0 0.001553 641.91339 650.02209
699.0 0.001431 640.89484 649.39093
671.0 0.001490 639.87134 648.78339
670.0 0.001493 638.84308 648.20227
680.0 0.001471 637.81012 647.65094
635.0 0.001575 636.77246 647.13293
673.0 0.001486 635.73010 646.65247
675.0 0.001481 634.68317 646.21436
702.0 0.001425 633.63190 645.82410
663.0 0.001508 632.57605 645.48761
609.0 0.001642 631.51587 645.21234
611.0 0.001637 630.45135 645.00635
613.0 0.001631 629.38275 644.87921
698.0 0.001433 628.30981 644.84210
651.0 0.001536 627.23285 644.90796
623.0 0.001605 626.15192 645.09216
651.0 0.001536 625.06689 645.41278
669.0 0.001495 623.97815 645.89148
633.0 0.001580 622.88550 646.55396
651.0 0.001536 621.78906 647.43127
677.0 0.001477 620.68903 648.56146
656.0 0.001524 619.58545 649.99066
618.0 0.001618 618.47821 651.77588
613.0 0.001631 617.36749 653.98822
663.0 0.001508 616.25342 656.71704
639.0 0.001565 615.13611 660.07623
661.0 0.001513 614.01550 664.21149
702.0 0.001425 612.89166 669.31317
658.0 0.001520 611.76471 675.63263
675.0 0.001481 610.63489 683.50714
748.0 0.001337 609.50195 693.39703
685.0 0.001460 608.36615 705.94696
665.0 0.001504 607.22754 722.09991
750.0 0.001333 606.08630 743.38617
879.0 0.001138 604.94226 772.81519
879.0 0.001138 603.79559 817.61304
1018.0 0.000982 602.64648 896.22723
1199.0 0.000834 601.49500 1051.46228
1558.0 0.000642 600.34106 1364.25366
2075.0 0.000482 599.18475 1946.84265
2865.0 0.0003490 598.02631 2886.08252
3794.0 0.0002636 596.86572 4133.80664
5104.0 0.0001959 595.70306 5389.31494
6003.0 0.0001666 594.53839 6088.47656
5746.0 0.0001740 593.37170 5769.35840
4747.0 0.0002107 592.20325 4644.35400
3405.0 0.0002937 591.03308 3330.02661
2283.0 0.000438 589.86108 2248.13452
1450.0 0.000690 588.68744 1531.24524
1165.0 0.000858 587.51227 1128.09753
907.0 0.001103 586.33575 924.18854
777.0 0.001287 585.15771 822.39612
736.0 0.001359 583.97827 766.29535
727.0 0.001376 582.79761 730.24640
689.0 0.001451 581.61584 704.14734
700.0 0.001429 580.43286 683.99829
648.0 0.001543 579.24890 667.91699
670.0 0.001493 578.06390 654.80231
632.0 0.001582 576.87811 643.91937
602.0 0.001661 575.69141 634.74817
645.0 0.001550 574.50397 626.91125
618.0 0.001618 573.31586 620.12909
627.0 0.001595 572.12726 614.19104
632.0 0.001582 570.93799 608.93597
573.0 0.001745 569.74823 604.23981
591.0 0.001692 568.55811 600.00482
617.0 0.001621 567.36774 596.15393
600.0 0.001667 566.17719 592.62549
599.0 0.001669 564.98633 589.36938
549.0 0.001821 563.79535 586.34509
588.0 0.001701 562.60437 583.51947
536.0 0.001866 561.41351 580.86499
603.0 0.001658 560.22272 578.35852
577.0 0.001733 559.03210 575.98096
588.0 0.001701 557.84167 573.71619
573.0 0.001745 556.65167 571.55066
559.0 0.001789 555.46198 569.47241
564.0 0.001773 554.27283 567.47168
531.0 0.001883 553.08411 565.53986
530.0 0.001887 551.89606 563.66968
515.0 0.001942 550.70862 561.85443
549.0 0.001821 549.52185 560.08875
509.0 0.001965 548.33600 558.36780
533.0 0.001876 547.15106 556.68738
544.0 0.001838 545.96686 555.04352
508.0 0.001969 544.78369 553.43304
526.0 0.001901 543.60162 551.85309
493.0 0.002028 542.42078 550.30115
547.0 0.001828 541.24103 548.77490
552.0 0.001812 540.06250 540.06146
478.0 0.002092 538.88531 538.88422
513.0 0.001949 537.70947 537.70837
489.0 0.002045 536.53528 536.53418
507.0 0.001972 535.36237 535.36133
503.0 0.001988 534.19110 534.19000
516.0 0.001938 533.02142 533.02032
568.0 0.001761 531.85358 531.85248
501.0 0.001996 530.68738 530.68634
515.0 0.001942 529.52301 529.52191
556.0 0.001799 528.36041 528.35931
490.0 0.002041 527.19995 527.19885
540.0 0.001852 526.04132 526.04022
520.0 0.001923 524.88483 524.88373
506.0 0.001976 523.73035 523.72925
533.0 0.001876 522.57819 522.57709
537.0 0.001862 521.42810 521.42700
542.0 0.001845 520.28033 520.27924
472.0 0.002119 519.13489 519.13379
495.0 0.002020 517.99194 517.99084
501.0 0.001996 516.85132 516.85022
484.0 0.002066 515.71320 515.71210
490.0 0.002041 514.57764 514.57654
447.0 0.002237 513.44482 513.44366
491.0 0.002037 512.31445 512.31335
505.0 0.001980 511.18686 511.18573
484.0 0.002066 510.06201 510.06088
509.0 0.001965 508.94000 508.93887
464.0 0.002155 507.82095 507.81979
448.0 0.002232 506.70468 506.70352
508.0 0.001969 505.59137 505.59021
477.0 0.002096 504.48105 504.47992
521.0 0.001919 503.37390 503.37277
527.0 0.001898 502.26978 502.26862
500.0 0.002000 501.16876 501.16763
475.0 0.002105 500.07098 500.06982
461.0 0.002169 498.97653 498.97537
509.0 0.001965 497.88522 497.88406
499.0 0.002004 496.79727 496.79611
489.0 0.002045 495.71268 495.71149
483.0 0.002070 494.63162 494.63043
469.0 0.002132 493.55392 493.55273
493.0 0.002028 492.47964 492.47845
446.0 0.002242 491.40897 491.40781
454.0 0.002203 490.34198 490.34079
470.0 0.002128 489.27847 489.27728
506.0 0.001976 488.21866 488.21747
494.0 0.002024 487.16248 487.16129
482.0 0.002075 486.11017 486.10898
465.0 0.002151 485.06155 485.06036
481.0 0.002079 484.01669 484.01550
453.0 0.002208 482.97574 482.97452
495.0 0.002020 481.93860 481.93738
490.0 0.002041 480.90552 480.90430
435.0 0.002299 479.87622 479.87500
442.0 0.002262 478.85095 478.84973
486.0 0.002058 477.82965 477.82843
465.0 0.002151 476.81250 476.81128
440.0 0.002273 475.79935 475.79813
454.0 0.002203 474.79025 474.78903
433.0 0.002309 473.78534 473.78412
431.0 0.002320 472.78464 472.78342
474.0 0.002110 471.78802 471.78680
507.0 0.001972 470.79568 470.79443
448.0 0.002232 469.80753 469.80627
459.0 0.002179 468.82379 468.82251
434.0 0.002304 467.84421 467.84293
493.0 0.002028 466.86896 466.86771
440.0 0.002273 465.89807 465.89679
477.0 0.002096 464.93158 464.93033
467.0 0.002141 463.96942 463.96817
444.0 0.002252 463.01172 463.01044
443.0 0.002257 462.05841 462.05713
474.0 0.002110 461.10965 461.10837
458.0 0.002183 460.16528 460.16400
437.0 0.002288 459.22540 459.22412
457.0 0.002188 458.29007 458.28876
462.0 0.002165 457.35919 457.35791
430.0 0.002326 456.43301 456.43170
473.0 0.002114 455.51132 455.51001
426.0 0.002347 454.59418 454.59286
417.0 0.002398 453.68164 454.27460
461.0 0.002169 452.77383 453.39362
463.0 0.002160 451.87051 452.51898
427.0 0.002342 450.97189 451.65106
451.0 0.002217 450.07788 450.79001
429.0 0.002331 449.18860 449.93616
466.0 0.002146 448.30396 449.08966
446.0 0.002242 447.42398 448.25073
438.0 0.002283 446.54874 447.41986
441.0 0.002268 445.67828 448.05020
424.0 0.002358 444.81241 447.30222
474.0 0.002110 443.95132 446.56812
434.0 0.002304 443.09491 445.84885
471.0 0.002123 442.24338 445.14557
463.0 0.002160 441.39648 444.45941
431.0 0.002320 440.55432 443.79190
438.0 0.002283 439.71695 443.14481
453.0 0.002208 438.88443 442.52005
442.0 0.002262 438.05655 441.91983
428.0 0.002336 437.23346 441.34680
439.0 0.002278 436.41516 440.80414
412.0 0.002427 435.60162 440.29550
406.0 0.002463 434.79297 439.82529
431.0 0.002320 433.98898 439.39865
416.0 0.002404 433.18976 439.02200
423.0 0.002364 432.39536 438.70297
430.0 0.002326 431.60577 438.45114
428.0 0.002336 430.82089 438.27814
436.0 0.002294 430.04080 438.19861
436.0 0.002294 429.26544 438.23123
426.0 0.002347 428.49496 438.39996
459.0 0.002179 427.72916 438.73578
423.0 0.002364 426.96811 439.27988
434.0 0.002304 426.21182 440.08801
441.0 0.002268 425.46033 441.23773
409.0 0.002445 424.71350 442.84476
462.0 0.002165 423.97147 445.10846
481.0 0.002079 423.23410 448.44836
504.0 0.001984 422.50156 453.87173
471.0 0.002123 421.77362 463.73581
493.0 0.002028 421.05042 482.77094
526.0 0.001901 420.33188 518.33917
579.0 0.001727 419.61810 578.01379
671.0 0.001490 418.90894 663.39111
727.0 0.001376 418.20444 761.76990
875.0 0.001143 417.50455 840.02051
888.0 0.001126 416.80936 856.44794
853.0 0.001172 416.11884 806.44519
773.0 0.001294 415.43283 735.48297
798.0 0.001253 414.75143 694.24561
770.0 0.001299 414.07462 718.11505
905.0 0.001105 413.40244 825.38098
1060.0 0.000943 412.73477 1009.84479
1288.0 0.000776 412.07162 1227.52075
1412.0 0.000708 411.41299 1386.69104
1477.0 0.000677 410.75891 1384.50439
1268.0 0.000789 410.10928 1217.10840
1041.0 0.000961 409.46411 984.84155
795.0 0.001258 408.82339 775.80603
630.0 0.001587 408.18719 626.49030
499.0 0.002004 407.55533 536.27899
482.0 0.002075 406.92789 487.73560
433.0 0.002309 406.30478 462.57175
457.0 0.002188 405.68610 448.63214
417.0 0.002398 405.07172 439.77026
451.0 0.002217 404.46164 433.37585
435.0 0.002299 403.85583 428.39682
411.0 0.002433 403.25439 424.36075
417.0 0.002398 402.65710 421.00684
406.0 0.002463 402.06409 418.16629
407.0 0.002457 401.47522 415.72083
452.0 0.002212 400.89059 413.58481
407.0 0.002457 400.31015 411.69473
387.0 0.002584 399.73376 410.00259
391.0 0.002558 399.16150 408.47195
427.0 0.002342 398.59332 407.07440
387.0 0.002584 398.02927 405.78775
385.0 0.002597 397.46921 404.59427
403.0 0.002481 396.91312 403.50339
376.0 0.002660 396.36102 402.45749
405.0 0.002469 395.81290 401.46988
401.0 0.002494 395.26868 400.53281
364.0 0.002747 394.72839 399.63995
391.0 0.002558 394.19189 398.78592
388.0 0.002577 393.65936 397.96634
386.0 0.002591 393.13058 397.17734
388.0 0.002577 392.60556 396.41559
410.0 0.002439 392.08435 395.67859
398.0 0.002513 391.56689 394.96390
415.0 0.002410 391.05307 394.26935
351.0 0.002849 390.54294 393.59335
385.0 0.002597 390.03641 392.33420
344.0 0.002907 389.53360 391.71634
408.0 0.002451 389.03430 391.11127
404.0 0.002475 388.53854 390.51816
409.0 0.002445 388.04630 389.93631
384.0 0.002604 387.55756 389.36496
401.0 0.002494 387.07230 388.80365
383.0 0.002611 386.59045 388.25177
398.0 0.002513 386.11197 387.70886
418.0 0.002392 385.63687 385.72171
390.0 0.002564 385.16516 385.25757
372.0 0.002688 384.69666 384.79770
356.0 0.002809 384.23145 384.34235
339.0 0.002950 383.76947 383.89172
389.0 0.002571 383.31073 383.44614
393.0 0.002545 382.85510 383.00583
378.0 0.002646 382.40262 382.57144
399.0 0.002506 381.95325 382.14346
399.0 0.002506 381.50699 381.72284
386.0 0.002591 381.06369 381.31067
347.0 0.002882 380.62344 380.90860
348.0 0.002874 380.18610 380.51883
372.0 0.002688 379.75177 380.14490
358.0 0.002793 379.32028 379.79251
383.0 0.002611 378.89163 379.47382
378.0 0.002646 378.46588 379.21793
391.0 0.002558 378.04291 379.09482
373.0 0.002681 377.62268 379.25241
396.0 0.002525 377.20514 379.93961
433.0 0.002309 376.79034 381.45163
429.0 0.002331 376.37817 383.94022
440.0 0.002273 375.96863 387.11795
421.0 0.002375 375.56171 389.96454
454.0 0.002203 375.15726 390.82190
466.0 0.002146 374.75537 388.79587
472.0 0.002119 374.35599 384.98956
463.0 0.002160 373.95898 381.04941
467.0 0.002141 373.56445 377.88403
406.0 0.002463 373.17224 375.69714
386.0 0.002591 372.78241 374.29816
382.0 0.002618 372.39487 373.38794
353.0 0.002833 372.00958 372.72995
372.0 0.002688 371.62653 372.18948
378.0 0.002646 371.24570 371.70477
382.0 0.002618 370.86700 371.25031
343.0 0.002915 370.49045 370.81558
384.0 0.002604 370.11597 370.39508
383.0 0.002611 369.74356 369.98566
358.0 0.002793 369.37320 369.58502
366.0 0.002732 369.00476 369.19165
368.0 0.002717 368.63831 368.80432
327.0 0.003058 368.27377 368.42218
361.0 0.002770 367.91107 368.04453
358.0 0.002793 367.55026 367.67087
373.0 0.002681 367.19122 367.30066
341.0 0.002933 366.83398 366.93375
393.0 0.002545 366.47852 366.56982
356.0 0.002809 366.12469 366.20859
394.0 0.002538 365.77255 365.84985
380.0 0.002632 365.42206 365.49347
428.0 0.002336 365.07318 365.13940
425.0 0.002353 364.72586 364.78738
466.0 0.002146 364.38004 364.43735
372.0 0.002688 364.03571 364.08920
400.0 0.002500 363.69290 363.74295
422.0 0.002370 363.35147 363.39838
403.0 0.002481 363.01144 363.05551
378.0 0.002646 362.67276 362.71423
349.0 0.002865 362.33545 362.37451
398.0 0.002513 361.99942 362.03629
395.0 0.002532 361.66461 363.83548
377.0 0.002653 361.33105 363.59747
383.0 0.002611 360.99872 363.36758
355.0 0.002817 360.66748 363.14642
336.0 0.002976 360.33740 362.93472
355.0 0.002817 360.00839 362.73318
362.0 0.002762 359.68051 362.54279
341.0 0.002933 359.35355 362.36444
322.0 0.003106 359.02768 362.17474
338.0 0.002959 358.70270 362.02521
342.0 0.002924 358.37869 361.89166
334.0 0.002994 358.05560 361.77588
355.0 0.002817 357.73334 361.67972
354.0 0.002825 357.41190 361.60565
325.0 0.003077 357.09128 361.55627
360.0 0.002778 356.77148 361.53479
330.0 0.003030 356.45239 361.54492
337.0 0.002967 356.13400 361.59088
334.0 0.002994 355.81631 361.67801
352.0 0.002841 355.49930 361.81238
338.0 0.002959 355.18286 362.00125
324.0 0.003086 354.86703 362.25366
343.0 0.002915 354.55173 362.58029
367.0 0.002725 354.23703 362.99448
359.0 0.002786 353.92279 363.51248
334.0 0.002994 353.60904 364.15457
365.0 0.002740 353.29572 364.94638
345.0 0.002899 352.98285 365.92038
370.0 0.002703 352.67035 367.11819
376.0 0.002660 352.35818 368.59415
339.0 0.002950 352.04639 370.41983
365.0 0.002740 351.73492 372.69131
358.0 0.002793 351.42371 375.53943
385.0 0.002597 351.11273 379.14752
391.0 0.002558 350.80200 383.78531
396.0 0.002525 350.49146 389.89566
429.0 0.002331 350.18109 398.35065
437.0 0.002288 349.87088 411.17532
469.0 0.002132 349.56076 433.22733
529.0 0.001890 349.25082 475.00064
645.0 0.001550 348.94089 554.97632
834.0 0.001199 348.63101 697.02423
1031.0 0.000970 348.32117 917.82135
1297.0 0.000771 348.01129 1204.76050
1558.0 0.000642 347.70145 1490.97705
1732.0 0.000577 347.39154 1647.73425
1584.0 0.000631 347.08151 1569.95959
1251.0 0.000799 346.77142 1311.76660
1054.0 0.000949 346.46124 1012.48914
825.0 0.001212 346.15088 763.41504
583.0 0.001715 345.84036 593.58533
535.0 0.001869 345.52966 493.77933
457.0 0.002188 345.21878 440.51547
384.0 0.002604 344.90768 412.56033
387.0 0.002584 344.59628 396.69293
342.0 0.002924 344.28464 386.42908
353.0 0.002833 343.97272 379.01511
338.0 0.002959 343.66049 373.30261
353.0 0.002833 343.34793 368.74609
311.0 0.003215 343.03500 365.03094
364.0 0.002747 342.72171 361.94894
349.0 0.002865 342.40808 359.35342
355.0 0.002817 342.09402 357.13745
359.0 0.002786 341.77951 355.22171
329.0 0.003040 341.46460 353.54654
335.0 0.002985 341.14923 352.06616
345.0 0.002899 340.83334 350.74503
307.0 0.003257 340.51703 349.55548
302.0 0.003311 340.20016 348.47534
323.0 0.003096 339.88281 347.48703
323.0 0.003096 339.56488 346.57626
338.0 0.002959 339.24643 345.73138
355.0 0.002817 338.92740 344.94287
355.0 0.002817 338.60779 344.20285
335.0 0.002985 338.28757 343.50461
377.0 0.002653 337.96674 342.84271
415.0 0.002410 337.64526 342.21249
413.0 0.002421 337.32321 341.61002
373.0 0.002681 337.00046 341.03183
347.0 0.002882 336.67700 340.47507
359.0 0.002786 336.35294 339.93732
340.0 0.002941 336.02817 339.41638
350.0 0.002857 335.70267 338.91034
343.0 0.002915 335.37650 338.41760
323.0 0.003096 335.04956 337.93680
347.0 0.002882 334.72189 337.46661
358.0 0.002793 334.39352 337.00598
349.0 0.002865 334.06433 336.55389
348.0 0.002874 333.73444 336.10950
327.0 0.003058 333.40372 335.67200
374.0 0.002674 333.07227 335.24081
364.0 0.002747 332.73999 332.73892
367.0 0.002725 332.40689 332.40582
311.0 0.003215 332.07303 332.07196
373.0 0.002681 331.73834 331.73727
348.0 0.002874 331.40280 331.40173
374.0 0.002674 331.06647 331.06540
319.0 0.003135 330.72925 330.72818
355.0 0.002817 330.39124 330.39017
354.0 0.002825 330.05234 330.05130
338.0 0.002959 329.71255 329.71152
342.0 0.002924 329.37195 329.37091
355.0 0.002817 329.03052 329.02945
331.0 0.003021 328.68814 328.68710
342.0 0.002924 328.34491 328.34387
353.0 0.002833 328.00079 327.99976
347.0 0.002882 327.65585 327.65482
344.0 0.002907 327.30994 327.30890
330.0 0.003030 326.96320 326.96216
351.0 0.002849 326.61551 326.61447
339.0 0.002950 326.26694 326.26590
341.0 0.002933 325.91751 325.91647
325.0 0.003077 325.56711 325.56610
339.0 0.002950 325.21585 325.21484
354.0 0.002825 324.86365 324.86264
382.0 0.002618 324.51062 324.50961
341.0 0.002933 324.15662 324.15561
331.0 0.003021 323.80173 323.80072
329.0 0.003040 323.44595 323.44495
317.0 0.003155 323.08926 323.08826
342.0 0.002924 322.73166 322.73065
359.0 0.002786 322.37314 322.37213
347.0 0.002882 322.01370 322.01273
319.0 0.003135 321.65341 321.65240
290.0 0.003448 321.29224 321.29123
305.0 0.003279 320.93008 320.92911
292.0 0.003425 320.56708 320.56610
301.0 0.003322 320.20322 320.20224
331.0 0.003021 319.83841 319.83743
308.0 0.003247 319.47275 319.47177
323.0 0.003096 319.10617 357.08304
328.0 0.003049 318.73877 358.42218
296.0 0.003378 318.37045 359.87796
306.0 0.003268 318.00125 361.46133
328.0 0.003049 317.63120 363.18472
350.0 0.002857 317.26025 365.06195
316.0 0.003165 316.88852 367.10873
383.0 0.002611 316.51593 369.34259
343.0 0.002915 316.14246 371.78348
371.0 0.002695 315.76816 374.45407
404.0 0.002475 315.39307 377.38028
445.0 0.002247 315.01706 380.59155
524.0 0.001908 314.64032 384.12192
551.0 0.001815 314.26270 388.01035
635.0 0.001575 313.88434 392.30222
726.0 0.001377 313.50516 397.05002
673.0 0.001486 313.12518 402.31512
669.0 0.001495 312.74442 408.16953
618.0 0.001618 312.36288 414.69815
562.0 0.001779 311.98056 422.00162
502.0 0.001992 311.59753 430.20010
459.0 0.002179 311.21371 439.43759
463.0 0.002160 310.82925 449.88843
438.0 0.002283 310.44394 461.76440
450.0 0.002222 310.05798 475.32574
424.0 0.002358 309.67130 490.89423
408.0 0.002451 309.28394 508.87161
462.0 0.002165 308.89584 529.76447
506.0 0.001976 308.50708 554.21857
512.0 0.001953 308.11768 583.06683
525.0 0.001905 307.72757 617.39764
551.0 0.001815 307.33691 658.65344
590.0 0.001695 306.94556 708.77698
643.0 0.001555 306.55359 770.43933
797.0 0.001255 306.16101 847.43848
901.0 0.001110 305.76788 945.57269
1023.0 0.000978 305.37411 1075.02917
1235.0 0.000810 304.97980 1257.26624
1538.0 0.000650 304.58490 1542.59094
2233.0 0.000448 304.18948 2045.21338
3134.0 0.0003191 303.79352 2989.12427
4689.0 0.0002133 303.39703 4721.11914
7369.0 0.0001357 303.00006 7610.78809
11395.0 0.0000878 302.60260 11787.42773
16755.0 0.0000597 302.20462 16762.18359
21622.0 0.0000462 301.80618 21044.18359
23314.0 0.0000429 301.40732 22359.21875
20792.0 0.0000481 301.00803 19764.72070
15553.0 0.0000643 300.60831 14984.92090
10215.0 0.0000979 300.20816 10171.68066
6343.0 0.0001577 299.80762 6430.37793
3888.0 0.0002572 299.40674 3983.30688
2604.0 0.000384 299.00543 2575.68140
1841.0 0.000543 298.60382 1822.81091
1525.0 0.000656 298.20184 1416.63550
1206.0 0.000829 297.79959 1176.51221
996.0 0.001004 297.39706 1016.19196
861.0 0.001161 296.99414 898.80066
804.0 0.001244 296.59103 808.27094
694.0 0.001441 296.18762 736.47217
602.0 0.001661 295.78403 678.48712
587.0 0.001704 295.38019 630.98651
519.0 0.001927 294.97614 591.59271
484.0 0.002066 294.57187 558.56232
470.0 0.002128 294.16748 530.59296
482.0 0.002075 293.76291 506.69672
424.0 0.002358 293.35822 486.11389
405.0 0.002469 292.95334 468.25296
411.0 0.002433 292.54846 452.64810
389.0 0.002571 292.14340 438.92841
369.0 0.002710 291.73831 426.79590
379.0 0.002639 291.33313 416.00906
333.0 0.003003 290.92798 406.37039
341.0 0.002933 290.52277 397.71716
325.0 0.003077 290.11755 389.91443
352.0 0.002841 289.71234 382.84961
318.0 0.003145 289.30722 376.42801
325.0 0.003077 288.90207 370.56952
319.0 0.003135 288.49701 365.20630
313.0 0.003195 288.09204 360.28033
299.0 0.003344 287.68719 355.74179
320.0 0.003125 287.28244 351.54776
303.0 0.003300 286.87784 347.66116
309.0 0.003236 286.47339 344.04968
333.0 0.003003 286.06909 340.68515
320.0 0.003125 285.66504 337.54306
305.0 0.003279 285.26117 334.60165
305.0 0.003279 284.85751 331.84192
305.0 0.003279 284.45413 329.24701
296.0 0.003378 284.05103 326.80200
287.0 0.003484 283.64813 324.49356
304.0 0.003289 283.24561 283.24457
285.0 0.00351 282.84335 282.84232
292.0 0.003425 282.44150 282.44046
297.0 0.003367 282.03995 282.03891
299.0 0.003344 281.63876 281.63773
261.0 0.00383 281.23801 281.23694
294.0 0.003401 280.83765 280.83661
277.0 0.00361 280.43768 280.43665
302.0 0.003311 280.03821 280.03714
281.0 0.00356 279.63916 279.63809
268.0 0.00373 279.24063 279.23959
273.0 0.00366 278.84259 278.84155
275.0 0.00364 278.44507 278.44400
300.0 0.003333 278.04807 278.04703
272.0 0.00368 277.65161 277.65054
296.0 0.003378 277.25577 277.25470
295.0 0.003390 276.86047 276.85938
291.0 0.003436 276.46588 276.46478
286.0 0.003497 276.07184 276.07074
294.0 0.003401 275.67844 275.67737
311.0 0.003215 275.28571 275.28461
357.0 0.002801 274.89365 274.89255
359.0 0.002786 274.50226 274.50119
321.0 0.003115 274.11163 274.11053
318.0 0.003145 273.72171 273.72061
303.0 0.003300 273.33264 273.33154
309.0 0.003236 272.94424 272.94315
307.0 0.003257 272.55664 272.55554
245.0 0.00408 272.16986 272.16873
304.0 0.003289 271.78387 271.78275
277.0 0.00361 271.39871 271.39758
267.0 0.00375 271.01440 271.01328
292.0 0.003425 270.63098 270.62988
261.0 0.00383 270.24854 270.24741
270.0 0.00370 269.86691 269.86578
284.0 0.00352 269.48621 269.48505
226.0 0.00442 269.10645 269.10532
254.0 0.00394 268.72763 268.99542
260.0 0.00385 268.34979 268.62964
269.0 0.00372 267.97296 268.26563
278.0 0.00360 267.59711 267.90353
266.0 0.00376 267.22229 267.54346
272.0 0.00368 266.84857 267.18555
276.0 0.00362 266.47586 266.82986
283.0 0.00353 266.10422 266.47653
285.0 0.00351 265.73361 266.12573
279.0 0.00358 265.36414 265.77765
272.0 0.00368 264.99579 265.43246
292.0 0.003425 264.62857 265.09042
297.0 0.003367 264.26251 264.75177
272.0 0.00368 263.89764 264.41684
324.0 0.003086 263.53394 264.08585
305.0 0.003279 263.17139 263.75919
302.0 0.003311 262.81003 263.43735
308.0 0.003247 262.44995 263.12085
299.0 0.003344 262.09106 262.81027
300.0 0.003333 261.73346 262.50632
274.0 0.00365 261.37711 262.20981
241.0 0.00415 261.02209 261.92184
245.0 0.00408 260.66830 261.64349
265.0 0.00377 260.31586 261.37631
262.0 0.00382 259.96469 261.12201
239.0 0.00418 259.61490 260.88287
263.0 0.00380 259.26642 260.66159
266.0 0.00376 258.91934 260.46164
256.0 0.00391 258.57358 260.28738
275.0 0.00364 258.22925 260.14444
266.0 0.00376 257.88638 260.04019
244.0 0.00410 257.54486 259.98425
270.0 0.00370 257.20477 259.98950
252.0 0.00397 256.86612 260.07376
243.0 0.00412 256.52893 260.26205
270.0 0.00370 256.19318 260.59204
273.0 0.00366 255.85892 261.12854
293.0 0.003413 255.52612 262.00363
246.0 0.00407 255.19492 263.51837
264.0 0.00379 254.86514 266.34647
275.0 0.00364 254.53690 271.81180
298.0 0.003356 254.21016 282.00720
315.0 0.003175 253.88501 299.29953
338.0 0.002959 253.56139 324.87976
356.0 0.002809 253.23932 356.54654
397.0 0.002519 252.91882 386.17230
375.0 0.002667 252.59999 399.47284
406.0 0.002463 252.28268 387.14117
341.0 0.002933 251.96698 357.41763
333.0 0.003003 251.65289 324.88171
279.0 0.00358 251.34042 298.13980
269.0 0.00372 251.02959 279.68848
252.0 0.00397 250.72038 268.47632
257.0 0.00389 250.41283 262.15137
298.0 0.003356 250.10695 258.57422
245.0 0.00408 249.80281 256.37015
254.0 0.00394 249.50026 254.83267
266.0 0.00376 249.19937 253.64540
278.0 0.00360 248.90022 252.67018
245.0 0.00408 248.60274 251.83983
244.0 0.00410 248.30696 251.11559
244.0 0.00410 248.01291 250.47188
245.0 0.00408 247.72058 249.89072
261.0 0.00383 247.43002 249.35889
237.0 0.00422 247.14116 248.86652
253.0 0.00395 246.85402 248.40620
243.0 0.00412 246.56863 247.97227
239.0 0.00418 246.28499 247.56030
207.0 0.00483 246.00310 247.16681
236.0 0.00424 245.72299 246.78905
244.0 0.00410 245.44464 246.42474
245.0 0.00408 245.16814 246.07224
223.0 0.00448 244.89333 245.72989
262.0 0.00382 244.62032 245.39659
234.0 0.00427 244.34909 245.07133
235.0 0.00426 244.07967 244.75330
228.0 0.00439 243.81204 244.44180
216.0 0.00463 243.54622 244.13623
242.0 0.00413 243.28218 243.83607
241.0 0.00415 243.01996 243.54092
245.0 0.00408 242.75960 243.25047
253.0 0.00395 242.50102 242.96434
277.0 0.00361 242.24425 242.68225
251.0 0.00398 241.98929 242.40399
267.0 0.00375 241.73616 242.12936
258.0 0.00388 241.48483 241.85817
238.0 0.00420 241.23538 241.59029
257.0 0.00389 240.98772 241.32553
241.0 0.00415 240.74196 241.06387
234.0 0.00427 240.49797 240.80508
233.0 0.00429 240.25581 242.96838
244.0 0.00410 240.01550 242.80267
253.0 0.00395 239.77701 242.37474
219.0 0.00457 239.54036 242.23563
244.0 0.00410 239.30556 242.10393
229.0 0.00437 239.07259 241.98009
231.0 0.00433 238.84149 241.86464
234.0 0.00427 238.61221 241.75803
228.0 0.00439 238.38474 241.66080
239.0 0.00418 238.15912 241.57370
227.0 0.00441 237.93533 241.49739
238.0 0.00420 237.71335 241.43265
215.0 0.00465 237.49326 241.38039
239.0 0.00418 237.27495 241.34152
240.0 0.00417 237.05847 241.31720
239.0 0.00418 236.84389 241.30869
213.0 0.00469 236.63107 241.31720
262.0 0.00382 236.42009 241.34442
251.0 0.00398 236.21092 241.39203
240.0 0.00417 236.00357 241.46204
217.0 0.00461 235.79805 241.55669
254.0 0.00394 235.59431 241.67853
240.0 0.00417 235.39241 241.83054
218.0 0.00459 235.19237 242.01611
232.0 0.00431 234.99406 242.23903
241.0 0.00415 234.79755 242.50383
249.0 0.00402 234.60284 249.02649
237.0 0.00422 234.40993 249.61688
241.0 0.00415 234.21880 250.28017
224.0 0.00446 234.02945 251.02580
221.0 0.00452 233.84187 251.86484
240.0 0.00417 233.65610 252.81046
244.0 0.00410 233.47205 253.87827
236.0 0.00424 233.28978 255.08714
238.0 0.00420 233.10927 256.45987
217.0 0.00461 232.93050 258.02420
244.0 0.00410 232.75346 259.81442
258.0 0.00388 232.57817 261.87299
251.0 0.00398 232.40462 264.25330
249.0 0.00402 232.23277 267.02304
261.0 0.00383 232.06268 270.26947
268.0 0.00373 231.89429 274.10590
281.0 0.00356 231.72758 278.68222
277.0 0.00361 231.56256 284.20016
299.0 0.003344 231.39928 290.93790
264.0 0.00379 231.23763 299.29648
276.0 0.00362 231.07768 309.91147
303.0 0.003300 230.91937 323.95694
346.0 0.002890 230.76277 343.95169
403.0 0.002481 230.60779 375.56134
463.0 0.002160 230.45445 430.61508
549.0 0.001821 230.30275 529.99799
782.0 0.001279 230.15266 702.29034
995.0 0.001005 230.00420 972.81213
1361.0 0.000735 229.85735 1341.74670
1644.0 0.000608 229.71207 1755.04260
1921.0 0.000521 229.56842 2075.59058
1934.0 0.000517 229.42633 2123.07788
1707.0 0.000586 229.28580 1864.75452
1301.0 0.000769 229.14682 1463.00293
1055.0 0.000948 229.00941 1077.95801
748.0 0.001337 228.87352 783.92499
553.0 0.001808 228.73918 592.27478
446.0 0.002242 228.60635 481.99326
407.0 0.002457 228.47502 423.90057
394.0 0.002538 228.34520 394.74030
351.0 0.002849 228.21687 380.67743
374.0 0.002674 228.09000 375.03174
403.0 0.002481 227.96460 375.07230
421.0 0.002375 227.84064 379.91083
426.0 0.002347 227.71814 389.54791
422.0 0.002370 227.59705 404.60764
514.0 0.001946 227.47737 426.51889
488.0 0.002049 227.35916 458.34860
510.0 0.001961 227.24229 507.07465
702.0 0.001425 227.12682 588.50848
785.0 0.001274 227.01270 735.04346
1001.0 0.000999 226.89996 1003.74615
1426.0 0.000701 226.78854 1463.35010
2177.0 0.000459 226.67847 2173.42334
2869.0 0.0003486 226.56972 3120.53271
3918.0 0.0002552 226.46230 4146.02051
4613.0 0.0002168 226.35612 4880.02002
4528.0 0.0002208 226.25124 4887.63037
3891.0 0.0002570 226.14766 4161.25537
2924.0 0.0003420 226.04532 3133.93677
2032.0 0.000492 225.94418 2180.96655
1419.0 0.000705 225.84433 1464.10132
975.0 0.001026 225.74567 998.40356
732.0 0.001366 225.64818 726.48224
603.0 0.001658 225.55194 575.89478
491.0 0.002037 225.45682 490.76852
452.0 0.002212 225.36290 438.25439
423.0 0.002364 225.27008 402.22894
392.0 0.002551 225.17844 375.47467
370.0 0.002703 225.08789 354.67877
367.0 0.002725 224.99843 338.09955
358.0 0.002793 224.91008 324.66397
307.0 0.003257 224.82283 313.63885
304.0 0.003289 224.73660 304.49741
283.0 0.00353 224.65143 296.85126
304.0 0.003289 224.56728 290.40924
271.0 0.00369 224.48416 284.95023
309.0 0.003236 224.40204 280.30444
270.0 0.00370 224.32089 276.34036
252.0 0.00397 224.24072 272.95560
261.0 0.00383 224.16154 270.07031
257.0 0.00389 224.08325 267.62231
275.0 0.00364 224.00592 265.56384
225.0 0.00444 223.92947 263.85892
261.0 0.00383 223.85396 262.48196
257.0 0.00389 223.77930 261.41647
261.0 0.00383 223.70549 260.65475
242.0 0.00413 223.63255 260.19785
240.0 0.00417 223.56046 257.72107
258.0 0.00388 223.48918 257.99643
268.0 0.00373 223.41870 258.63791
248.0 0.00403 223.34901 259.69543
249.0 0.00402 223.28009 261.23972
264.0 0.00379 223.21194 263.36942
263.0 0.00380 223.14452 266.22223
263.0 0.00380 223.07784 269.99368
300.0 0.003333 223.01184 274.97375
318.0 0.003145 222.94658 281.63834
299.0 0.003344 222.88197 290.89548
315.0 0.003175 222.81802 304.71411
327.0 0.003058 222.75471 327.44720
360.0 0.002778 222.69205 367.87088
429.0 0.002331 222.63000 440.79767
564.0 0.001773 222.56854 565.38116
780.0 0.001282 222.50769 756.93652
1003.0 0.000997 222.44739 1012.04468
1318.0 0.000759 222.38765 1289.10059
1591.0 0.000629 222.32843 1490.21277
1593.0 0.000628 222.26974 1497.85559
1340.0 0.000746 222.21158 1306.02820
1025.0 0.000976 222.15388 1029.36707
785.0 0.001274 222.09665 769.98260
563.0 0.001776 222.03987 572.86725
438.0 0.002283 221.98357 437.86548
372.0 0.002688 221.92769 361.56384
302.0 0.003311 221.87218 318.96472
302.0 0.003311 221.81711 294.82513
297.0 0.003367 221.76239 279.98459
267.0 0.00375 221.70805 269.85977
265.0 0.00377 221.65404 262.37183
263.0 0.00380 221.60036 256.56485
276.0 0.00362 221.54701 251.94066
268.0 0.00373 221.49396 248.19533
277.0 0.00361 221.44119 245.12248
258.0 0.00388 221.38869 242.57410
260.0 0.00385 221.33643 240.44116
231.0 0.00433 221.28442 238.64207
250.0 0.00400 221.23264 237.11487
276.0 0.00362 221.18105 235.81206
255.0 0.00392 221.12967 234.69701
231.0 0.00433 221.07845 233.74139
219.0 0.00457 221.02740 232.92336
244.0 0.00410 220.97650 232.22641
240.0 0.00417 220.92572 231.63872
251.0 0.00398 220.87508 231.15305
258.0 0.00388 220.82451 230.76816
230.0 0.00435 220.77403 230.49371
242.0 0.00413 220.72362 230.36185
254.0 0.00394 220.67328 230.44926
229.0 0.00437 220.62297 230.90338
243.0 0.00412 220.57268 231.94772
248.0 0.00403 220.52242 233.82349
243.0 0.00412 220.47214 236.64078
266.0 0.00376 220.42181 240.15767
245.0 0.00408 220.37151 243.51065
247.0 0.00405 220.32114 245.15636
246.0 0.00407 220.27068 244.02385
239.0 0.00418 220.22018 240.93651
238.0 0.00420 220.16957 237.49815
279.0 0.00358 220.11885 234.70198
275.0 0.00364 220.06802 232.87846
244.0 0.00410 220.01706 231.96967
261.0 0.00383 219.96596 231.75978
250.0 0.00400 219.91469 232.03864
260.0 0.00385 219.86324 232.67543
278.0 0.00360 219.81163 233.62343
267.0 0.00375 219.75980 234.89885
257.0 0.00389 219.70773 236.56506
277.0 0.00361 219.65546 238.73424
271.0 0.00369 219.60294 241.59834
268.0 0.00373 219.55016 245.52612
280.0 0.00357 219.49712 251.31104
262.0 0.00382 219.44382 260.68942
321.0 0.003115 219.39020 277.13403
311.0 0.003215 219.33627 304.74689
402.0 0.002488 219.28203 354.66968
442.0 0.002262 219.22746 431.35406
559.0 0.001789 219.17255 534.00696
717.0 0.001395 219.11726 647.19922
768.0 0.001302 219.06161 733.17273
763.0 0.001311 219.00560 743.53204
711.0 0.001406 218.94919 670.88208
584.0 0.001712 218.89236 559.45532
481.0 0.002079 218.83513 452.15747
363.0 0.002755 218.77747 368.95566
307.0 0.003257 218.71936 313.22223
324.0 0.003086 218.66080 279.71106
243.0 0.00412 218.60178 260.74274
251.0 0.00398 218.54230 249.93974
248.0 0.00403 218.48232 243.32022
229.0 0.00437 218.42184 238.82864
264.0 0.00379 218.36086 235.51379
244.0 0.00410 218.29936 232.93765
241.0 0.00415 218.23734 230.87556
230.0 0.00435 218.17477 229.19302
250.0 0.00400 218.11165 227.79958
250.0 0.00400 218.04797 226.63062
231.0 0.00433 217.98375 225.63853
228.0 0.00439 217.91893 224.78757
223.0 0.00448 217.85352 224.05045
218.0 0.00459 217.78751 223.40614
243.0 0.00412 217.72090 222.83820
247.0 0.00405 217.65367 222.33357
240.0 0.00417 217.58580 221.88187
248.0 0.00403 217.51732 221.47476
218.0 0.00459 217.44818 221.10539
277.0 0.00361 217.37839 220.76820
218.0 0.00459 217.30794 220.50684
229.0 0.00437 217.23682 220.22267
229.0 0.00437 217.16501 219.95912
199.0 0.00503 217.09253 219.71349
234.0 0.00427 217.01936 219.48352
225.0 0.00444 216.94548 219.24413
189.0 0.00529 216.87086 219.04065
227.0 0.00441 216.79555 218.84776
229.0 0.00437 216.71954 218.66426
194.0 0.00515 216.64276 218.48901
205.0 0.00488 216.56525 218.32117
225.0 0.00444 216.48698 218.15988
210.0 0.00476 216.40797 218.00449
201.0 0.00498 216.32820 217.85435
217.0 0.00461 216.24767 217.70895
196.0 0.00510 216.16632 217.56781
232.0 0.00431 216.08424 217.43057
215.0 0.00465 216.00136 217.29681
195.0 0.00513 215.91768 217.17741
226.0 0.00442 215.83321 217.05016
213.0 0.00469 215.74794 216.92560
244.0 0.00410 215.66185 216.80351
222.0 0.00450 215.57492 216.68376
199.0 0.00503 215.48720 216.66646
221.0 0.00452 215.39865 216.55460
210.0 0.00476 215.30930 216.44492
244.0 0.00410 215.21909 216.33739
222.0 0.00450 215.12802 216.23201
217.0 0.00461 215.03612 216.12883
244.0 0.00410 214.94339 215.28421
248.0 0.00403 214.84979 215.21126
201.0 0.00498 214.75533 215.13956
184.0 0.00543 214.66002 215.06940
228.0 0.00439 214.56386 215.00116
209.0 0.00478 214.46680 214.93521
231.0 0.00433 214.36888 214.87215
223.0 0.00448 214.27010 214.81261
192.0 0.00521 214.17044 214.75743
205.0 0.00488 214.06987 214.70757
222.0 0.00450 213.96846 214.66438
244.0 0.00410 213.86613 214.62946
230.0 0.00435 213.76294 214.60498
213.0 0.00469 213.65886 214.59373
221.0 0.00452 213.55386 214.59940
205.0 0.00488 213.44800 214.62718
187.0 0.00535 213.34123 214.68443
204.0 0.00490 213.23357 214.78271
232.0 0.00431 213.12500 214.94305
190.0 0.00526 213.01552 215.20889
199.0 0.00503 212.90515 215.67386
246.0 0.00407 212.79391 216.52631
196.0 0.00510 212.68175 218.09155
212.0 0.00472 212.56865 220.81549
227.0 0.00441 212.45467 225.34444
219.0 0.00457 212.33980 231.31795
241.0 0.00415 212.22400 238.28693
250.0 0.00400 212.10732 244.31973
225.0 0.00444 211.98970 246.39557
246.0 0.00407 211.87125 243.08173
230.0 0.00435 211.75183 236.49413
231.0 0.00433 211.63152 229.55096
216.0 0.00463 211.51031 223.86224
203.0 0.00493 211.38820 219.88408
210.0 0.00476 211.26517 217.42511
198.0 0.00505 211.14127 216.04623
188.0 0.00532 211.01645 215.33330
207.0 0.00483 210.89073 215.01492
221.0 0.00452 210.76414 214.96736
197.0 0.00508 210.63666 215.18011
183.0 0.00546 210.50827 215.72313
217.0 0.00461 210.37900 217.57646
207.0 0.00483 210.24883 219.17896
212.0 0.00472 210.11777 221.45947
204.0 0.00490 209.98582 224.45618
183.0 0.00546 209.85301 228.14995
198.0 0.00505 209.71935 232.73953
245.0 0.00408 209.58478 239.18527
236.0 0.00424 209.44936 248.68227
271.0 0.00369 209.31305 261.16074
284.0 0.00352 209.17586 274.07083
274.0 0.00365 209.03784 281.82196
305.0 0.003279 208.89896 279.07132
286.0 0.003497 208.75920 267.23990
233.0 0.00429 208.61865 252.45786
249.0 0.00402 208.47720 239.24919
200.0 0.00500 208.33492 229.39583
217.0 0.00461 208.19180 222.94382
202.0 0.00495 208.04785 219.10994
193.0 0.00518 207.90306 216.95375
212.0 0.00472 207.75745 215.74593
198.0 0.00505 207.61102 215.04749
190.0 0.00526 207.46379 214.63695
209.0 0.00478 207.31577 214.41502
195.0 0.00513 207.16692 214.34018
225.0 0.00444 207.01726 214.39731
206.0 0.00485 206.86682 214.58533
219.0 0.00457 206.71558 214.91368
216.0 0.00463 206.56357 215.40320
176.0 0.00568 206.41078 216.09052
208.0 0.00481 206.25722 217.04167
215.0 0.00465 206.10292 218.38849
220.0 0.00455 205.94783 220.41263
197.0 0.00508 205.79198 223.70354
237.0 0.00422 205.63541 229.36513
222.0 0.00450 205.47807 239.11552
269.0 0.00372 205.32002 254.98373
302.0 0.003311 205.16124 278.35492
319.0 0.003135 205.00172 308.40820
332.0 0.003012 204.84155 340.05197
367.0 0.002725 204.68063 362.08884
338.0 0.002959 204.51903 362.10449
341.0 0.002933 204.35670 340.67291
328.0 0.003049 204.19371 310.65143
270.0 0.00370 204.03004 282.96393
251.0 0.00398 203.86571 262.40170
226.0 0.00442 203.70070 249.82515
241.0 0.00415 203.53505 243.94960
242.0 0.00413 203.36877 243.18341
266.0 0.00376 203.20184 246.76001
298.0 0.003356 203.03430 255.53748
284.0 0.00352 202.86610 272.64023
304.0 0.003289 202.69731 303.77429
365.0 0.002740 202.52791 356.32822
404.0 0.002475 202.35789 436.26541
558.0 0.001792 202.18730 542.68463
698.0 0.001433 202.01619 660.50867
759.0 0.001318 201.84445 752.48218
766.0 0.001305 201.67215 768.88593
727.0 0.001376 201.49928 698.17120
561.0 0.001783 201.32590 583.08337
427.0 0.002342 201.15195 468.78516
346.0 0.002890 200.97749 377.56427
295.0 0.003390 200.80252 314.44785
272.0 0.00368 200.62708 275.14142
278.0 0.00360 200.45108 252.16946
216.0 0.00463 200.27461 238.80902
251.0 0.00398 200.09766 230.57072
232.0 0.00431 199.92023 224.88918
243.0 0.00412 199.74234 220.77780
240.0 0.00417 199.56401 217.56934
212.0 0.00472 199.38522 214.98033
219.0 0.00457 199.20602 212.84581
223.0 0.00448 199.02641 211.05717
207.0 0.00483 198.84637 209.53732
205.0 0.00488 198.66591 208.22968
207.0 0.00483 198.48508 207.09171
214.0 0.00467 198.30385 206.09090
196.0 0.00510 198.12225 205.20216
186.0 0.00538 197.94029 204.40593
203.0 0.00493 197.75798 203.68660
224.0 0.00446 197.57535 203.03180
227.0 0.00441 197.39236 202.43146
202.0 0.00495 197.20905 201.87747
224.0 0.00446 197.02544 201.36313
213.0 0.00469 196.84151 200.88292
228.0 0.00439 196.65727 200.43228
202.0 0.00495 196.47278 200.00737
225.0 0.00444 196.28802 199.60495
210.0 0.00476 196.10304 199.22237
189.0 0.00529 195.91777 198.85719
208.0 0.00481 195.73224 198.50755
210.0 0.00476 195.54649 198.17172
199.0 0.00503 195.36055 197.84834
198.0 0.00505 195.17438 197.53618
208.0 0.00481 194.98801 197.23419
207.0 0.00483 194.80147 196.94168
191.0 0.00524 194.61473 196.43069
191.0 0.00524 194.42789 196.16322
194.0 0.00515 194.24084 195.90385
202.0 0.00495 194.05367 195.65353
186.0 0.00538 193.86635 195.41493
194.0 0.00515 193.67891 195.19371
194.0 0.00515 193.49135 194.99953
190.0 0.00526 193.30371 194.84497
195.0 0.00513 193.11598 194.74089
205.0 0.00488 192.92821 194.68752
185.0 0.00541 192.74031 194.66231
178.0 0.00562 192.55237 194.60556
183.0 0.00546 192.36440 194.42889
211.0 0.00474 192.17638 194.09656
185.0 0.00541 191.98834 193.67403
177.0 0.00565 191.80028 193.24477
214.0 0.00467 191.61221 192.85390
209.0 0.00478 191.42419 192.51408
196.0 0.00510 191.23616 191.37817
171.0 0.00585 191.04817 191.14511
210.0 0.00476 190.86020 190.93106
220.0 0.00455 190.67230 190.72739
181.0 0.00552 190.48445 190.52916
175.0 0.00571 190.29668 190.33395
184.0 0.00543 190.10896 190.14059
201.0 0.00498 189.92137 189.94850
184.0 0.00543 189.73390 189.75742
184.0 0.00543 189.54652 189.56708
208.0 0.00481 189.35927 189.37737
173.0 0.00578 189.17215 189.18819
188.0 0.00532 188.98518 188.99947
195.0 0.00513 188.79836 188.81116
192.0 0.00521 188.61171 188.62323
184.0 0.00543 188.42525 188.43567
191.0 0.00524 188.23900 188.24846
178.0 0.00562 188.05290 188.06151
186.0 0.00538 187.86703 187.87489
170.0 0.00588 187.68138 187.68858
191.0 0.00524 187.49596 187.50615
201.0 0.00498 187.31078 187.32057
195.0 0.00513 187.12585 187.13530
194.0 0.00515 186.94118 186.95033
177.0 0.00565 186.75679 186.76572
180.0 0.00556 186.57266 186.58142
183.0 0.00546 186.38884 186.39743
162.0 0.00617 186.20529 186.21378
201.0 0.00498 186.02208 186.03049
199.0 0.00503 185.83916 185.84753
206.0 0.00485 185.65659 185.66495
170.0 0.00588 185.47437 185.48273
210.0 0.00476 185.29247 185.30090
189.0 0.00529 185.11096 185.11949
180.0 0.00556 184.92979 184.93843
184.0 0.00543 184.74901 184.75780
207.0 0.00483 184.56860 184.62692
201.0 0.00498 184.38861 184.44890
175.0 0.00571 184.20901 184.27144
179.0 0.00559 184.02983 184.09450
178.0 0.00562 183.85106 183.91812
170.0 0.00588 183.67276 183.74240
178.0 0.00562 183.49489 183.56726
194.0 0.00515 183.31744 183.39275
190.0 0.00526 183.14047 183.21892
178.0 0.00562 182.96396 183.04578
158.0 0.00633 182.78792 182.87335
185.0 0.00541 182.61238 182.70171
183.0 0.00546 182.43733 182.53084
169.0 0.00592 182.26280 182.36082
163.0 0.00613 182.08878 182.19168
174.0 0.00575 181.91524 182.02184
193.0 0.00518 181.74226 181.85464
178.0 0.00562 181.56981 181.68846
172.0 0.00581 181.39787 181.52339
178.0 0.00562 181.22652 181.35950
185.0 0.00541 181.05573 181.19691
173.0 0.00578 180.88548 181.03572
168.0 0.00595 180.71584 180.87607
174.0 0.00575 180.54677 180.71812
185.0 0.00541 180.37827 180.56203
176.0 0.00568 180.21037 180.40808
157.0 0.00637 180.04309 180.25656
180.0 0.00556 179.87640 180.10783
172.0 0.00581 179.71034 179.96243
177.0 0.00565 179.54492 179.82104
159.0 0.00629 179.38014 179.68472
175.0 0.00571 179.21599 179.55519
164.0 0.00610 179.05247 179.43588
163.0 0.00613 178.88962 179.33366
179.0 0.00559 178.72742 179.26138
156.0 0.00641 178.56589 179.23994
150.0 0.00667 178.40501 179.29674
169.0 0.00592 178.24483 179.45670
173.0 0.00578 178.08537 179.72523
180.0 0.00556 177.92656 180.06415
185.0 0.00541 177.76845 180.36107
180.0 0.00556 177.61105 180.43291
196.0 0.00510 177.45435 180.17639
158.0 0.00633 177.29836 179.70734
186.0 0.00538 177.14310 179.21463
163.0 0.00613 176.98856 178.81546
176.0 0.00568 176.83475 178.55717
152.0 0.00658 176.68170 178.45233
183.0 0.00546 176.52936 178.51265
154.0 0.00649 176.37778 178.78693
141.0 0.00709 176.22694 179.40250
175.0 0.00571 176.07686 180.59888
169.0 0.00592 175.92754 182.72003
187.0 0.00535 175.77896 186.11768
199.0 0.00503 175.63118 190.94305
201.0 0.00498 175.48419 196.84344
201.0 0.00498 175.33795 202.55727
199.0 0.00503 175.19250 205.71045
206.0 0.00485 175.04784 204.29836
182.0 0.00549 174.90393 199.14745
200.0 0.00500 174.76083 192.80161
187.0 0.00535 174.61855 187.07887
189.0 0.00529 174.47705 182.70181
187.0 0.00535 174.33638 179.71112
171.0 0.00585 174.19649 177.81451
176.0 0.00568 174.05742 176.64075
175.0 0.00571 173.91916 175.88661
184.0 0.00543 173.78171 175.35849
161.0 0.00621 173.64508 174.95172
169.0 0.00592 173.50928 174.61499
182.0 0.00549 173.37428 174.32343
174.0 0.00575 173.24011 174.06381
178.0 0.00562 173.10681 173.82819
180.0 0.00556 172.97430 173.61115
152.0 0.00658 172.84264 173.40884
168.0 0.00595 172.71179 173.21840
182.0 0.00549 172.58179 173.03769
186.0 0.00538 172.45264 172.86502
173.0 0.00578 172.32431 172.69907
154.0 0.00649 172.19682 172.53888
160.0 0.00625 172.07019 172.38362
165.0 0.00606 171.94440 174.83707
172.0 0.00581 171.81944 174.78419
167.0 0.00599 171.69534 174.73985
174.0 0.00575 171.57207 174.70406
182.0 0.00549 171.44966 174.67703
170.0 0.00588 171.32806 174.65891
159.0 0.00629 171.20735 174.65007
182.0 0.00549 171.08751 174.65089
164.0 0.00610 170.96848 174.66180
169.0 0.00592 170.85030 174.68343
170.0 0.00588 170.73297 174.71642
170.0 0.00588 170.61649 174.76154
195.0 0.00513 170.50085 174.81967
198.0 0.00505 170.38606 174.89174
161.0 0.00621 170.27213 174.97896
168.0 0.00595 170.15903 175.08249
180.0 0.00556 170.04680 175.20392
175.0 0.00571 169.93541 175.34117
184.0 0.00543 169.82484 175.50343
165.0 0.00606 169.71512 175.68912
168.0 0.00595 169.60626 175.90065
175.0 0.00571 169.49823 176.29527
182.0 0.00549 169.39104 176.57272
200.0 0.00500 169.28468 176.88586
183.0 0.00546 169.17917 177.23895
203.0 0.00493 169.07448 177.63684
205.0 0.00488 168.97064 178.08524
177.0 0.00565 168.86760 178.59077
200.0 0.00500 168.76541 179.16130
184.0 0.00543 168.66403 179.80603
179.0 0.00559 168.56349 180.53590
193.0 0.00518 168.46378 181.36397
174.0 0.00575 168.36487 182.30592
191.0 0.00524 168.26678 183.33061
199.0 0.00503 168.16949 184.56317
204.0 0.00490 168.07303 185.98000
204.0 0.00490 167.97737 187.61620
190.0 0.00526 167.88251 189.51570
188.0 0.00532 167.78844 191.73378
208.0 0.00481 167.69518 194.34106
198.0 0.00505 167.60272 197.42857
211.0 0.00474 167.51106 201.11525
217.0 0.00461 167.42015 205.55901
219.0 0.00457 167.33005 210.97464
257.0 0.00389 167.24071 217.66650
267.0 0.00375 167.15216 226.10188
254.0 0.00394 167.06438 237.09001
268.0 0.00373 166.97734 252.20779
274.0 0.00365 166.89108 274.67911
332.0 0.003012 166.80560 310.81097
360.0 0.002778 166.72086 371.54260
476.0 0.002101 166.63686 472.63434
655.0 0.001527 166.55360 631.27075
884.0 0.001131 166.47108 857.67780
1142.0 0.000876 166.38930 1142.22021
1434.0 0.000697 166.30824 1437.67114
1579.0 0.000633 166.22792 1642.81494
1581.0 0.000633 166.14832 1644.43762
1366.0 0.000732 166.06941 1441.36743
1119.0 0.000894 165.99121 1146.26611
813.0 0.001230 165.91373 861.18359
663.0 0.001508 165.83694 633.97455
505.0 0.001980 165.76085 474.62280
397.0 0.002519 165.68542 373.06754
343.0 0.002915 165.61069 312.15460
277.0 0.00361 165.53664 276.08612
251.0 0.00398 165.46326 253.88344
250.0 0.00400 165.39052 239.23997
275.0 0.00364 165.31844 229.00233
237.0 0.00422 165.24701 221.78036
240.0 0.00417 165.17622 217.14516
220.0 0.00455 165.10606 215.28534
206.0 0.00485 165.03656 216.82401
222.0 0.00450 164.96767 222.52797
232.0 0.00431 164.89940 232.77199
251.0 0.00398 164.83174 246.76262
235.0 0.00426 164.76468 261.48309
248.0 0.00403 164.69820 270.81012
278.0 0.00360 164.63231 268.31094
245.0 0.00408 164.56700 254.39778
208.0 0.00481 164.50230 235.71985
234.0 0.00427 164.43813 217.99850
204.0 0.00490 164.37454 203.83646
175.0 0.00571 164.31151 193.71490
182.0 0.00549 164.24901 187.00441
169.0 0.00592 164.18706 182.69591
160.0 0.00625 164.12564 179.87286
203.0 0.00493 164.06473 177.89925
185.0 0.00541 164.00433 176.40602
193.0 0.00518 163.94447 175.20154
167.0 0.00599 163.88507 174.18922
180.0 0.00556 163.82620 173.31747
171.0 0.00585 163.76779 172.55489
164.0 0.00610 163.70988 171.88011
181.0 0.00552 163.65242 171.27742
174.0 0.00575 163.59541 170.73488
180.0 0.00556 163.53888 170.24303
167.0 0.00599 163.48277 169.79449
176.0 0.00568 163.42711 169.38316
173.0 0.00578 163.37190 169.00421
157.0 0.00637 163.31708 168.65346
167.0 0.00599 163.26268 168.32761
182.0 0.00549 163.20866 168.02377
173.0 0.00578 163.15508 167.73956
165.0 0.00606 163.10184 167.47285
169.0 0.00592 163.04900 167.22191
189.0 0.00529 162.99652 166.98520
178.0 0.00562 162.94443 166.76134
161.0 0.00621 162.89265 166.54916
174.0 0.00575 162.84123 166.34764
171.0 0.00585 162.79015 166.15587
172.0 0.00581 162.73940 165.97301
172.0 0.00581 162.68895 165.79836
176.0 0.00568 162.63882 163.02563
164.0 0.00610 162.58899 162.95505
175.0 0.00571 162.53944 162.88640
147.0 0.00680 162.49020 162.81947
178.0 0.00562 162.44121 162.75414
164.0 0.00610 162.39250 162.69025
182.0 0.00549 162.34402 162.62769
173.0 0.00578 162.29581 162.56633
172.0 0.00581 162.24783 162.50613
159.0 0.00629 162.20006 162.44693
150.0 0.00667 162.15254 162.38873
164.0 0.00610 162.10521 162.33139
166.0 0.00602 162.05811 162.27489
182.0 0.00549 162.01117 162.21915
172.0 0.00581 161.96442 162.16409
168.0 0.00595 161.91786 162.10973
179.0 0.00559 161.87144 162.05597
156.0 0.00641 161.82520 162.00278
191.0 0.00524 161.77910 161.95012
182.0 0.00549 161.73312 161.89795
158.0 0.00633 161.68729 161.84622
140.0 0.00714 161.64159 161.64104
166.0 0.00602 161.59598 161.59543
164.0 0.00610 161.55049 161.54994
149.0 0.00671 161.50508 161.50455
167.0 0.00599 161.45976 161.45923
177.0 0.00565 161.41451 161.53604
155.0 0.00645 161.36932 161.49525
180.0 0.00556 161.32420 161.45480
169.0 0.00592 161.27913 161.41466
173.0 0.00578 161.23410 161.37482
151.0 0.00662 161.18909 161.33531
172.0 0.00581 161.14412 161.29617
179.0 0.00559 161.09914 161.25737
163.0 0.00613 161.05417 161.21896
187.0 0.00535 161.00922 161.18098
169.0 0.00592 160.96423 161.14343
165.0 0.00606 160.91922 161.10634
171.0 0.00585 160.87419 161.06976
177.0 0.00565 160.82912 161.03371
181.0 0.00552 160.78398 160.99825
172.0 0.00581 160.73878 161.03487
180.0 0.00556 160.69353 161.00331
151.0 0.00662 160.64821 160.97267
179.0 0.00559 160.60280 160.94307
170.0 0.00588 160.55730 160.91452
168.0 0.00595 160.51170 160.88722
181.0 0.00552 160.46597 160.86125
158.0 0.00633 160.42015 160.83681
163.0 0.00613 160.37419 160.81401
164.0 0.00610 160.32809 160.79314
169.0 0.00592 160.28188 160.77437
169.0 0.00592 160.23549 160.75801
153.0 0.00654 160.18895 160.74435
156.0 0.00641 160.14223 160.73380
165.0 0.00606 160.09535 160.72678
174.0 0.00575 160.04826 160.72382
185.0 0.00541 160.00101 160.72554
166.0 0.00602 159.95354 160.73271
164.0 0.00610 159.90587 160.74620
155.0 0.00645 159.85799 160.76714
185.0 0.00541 159.80988 160.79686
152.0 0.00658 159.76154 160.83698
170.0 0.00588 159.71295 160.88957
167.0 0.00599 159.66412 160.95721
165.0 0.00606 159.61505 161.04315
181.0 0.00552 159.56572 161.15157
172.0 0.00581 159.51610 161.28786
163.0 0.00613 159.46620 161.45929
168.0 0.00595 159.41603 161.67552
149.0 0.00671 159.36557 161.95027
180.0 0.00556 159.31480 162.30457
176.0 0.00568 159.26375 162.77460
160.0 0.00625 159.21237 163.42947
162.0 0.00617 159.16066 164.40674
160.0 0.00625 159.10864 165.96785
156.0 0.00641 159.05629 168.55608
167.0 0.00599 159.00359 172.80179
170.0 0.00588 158.95055 179.39594
190.0 0.00526 158.89714 188.78081
201.0 0.00498 158.84337 200.67020
222.0 0.00450 158.78925 213.37604
245.0 0.00408 158.73474 223.06685
213.0 0.00469 158.67987 224.87654
238.0 0.00420 158.62460 217.70688
220.0 0.00455 158.56895 205.68854
225.0 0.00444 158.51291 195.96620
202.0 0.00495 158.45645 185.91599
208.0 0.00481 158.39958 178.76898
200.0 0.00500 158.34230 174.36417
190.0 0.00526 158.28461 172.20633
203.0 0.00493 158.22649 171.87378
174.0 0.00575 158.16792 173.21289
164.0 0.00610 158.10893 176.30049
193.0 0.00518 158.04950 181.22202
185.0 0.00541 157.98961 187.73868
218.0 0.00459 157.92926 194.86108
217.0 0.00461 157.86845 200.39189
206.0 0.00485 157.80721 201.48907
195.0 0.00513 157.74547 197.38933
208.0 0.00481 157.68327 190.39731
174.0 0.00575 157.62059 183.17426
180.0 0.00556 157.55743 177.15633
168.0 0.00595 157.49379 172.78072
199.0 0.00503 157.42966 169.92584
138.0 0.00725 157.36504 168.22603
169.0 0.00592 157.29990 167.29041
161.0 0.00621 157.23425 166.81734
179.0 0.00559 157.16812 166.61778
167.0 0.00599 157.10146 166.58949
155.0 0.00645 157.03430 166.68262
155.0 0.00645 156.96661 166.87422
174.0 0.00575 156.89841 167.15437
162.0 0.00617 156.82968 167.51978
174.0 0.00575 156.76042 167.97128
152.0 0.00658 156.69061 168.51291
157.0 0.00637 156.62030 169.15155
177.0 0.00565 156.54942 169.89693
155.0 0.00645 156.47804 170.76204
172.0 0.00581 156.40610 171.76346
172.0 0.00581 156.33360 172.92200
174.0 0.00575 156.26056 174.26395
159.0 0.00629 156.18697 175.82219
161.0 0.00621 156.11282 177.63815
192.0 0.00521 156.03810 179.76431
182.0 0.00549 155.96286 182.26782
195.0 0.00513 155.88702 185.23524
190.0 0.00526 155.81065 188.77986
198.0 0.00505 155.73372 193.05209
185.0 0.00541 155.65620 198.25734
234.0 0.00427 155.57813 204.69073
207.0 0.00483 155.49948 212.81500
247.0 0.00405 155.42026 223.44415
253.0 0.00395 155.34048 238.14821
291.0 0.003436 155.26012 260.01529
343.0 0.002915 155.17920 294.76822
373.0 0.002681 155.09772 351.77725
434.0 0.002304 155.01564 443.82178
571.0 0.001751 154.93298 584.12384
809.0 0.001236 154.84978 779.91101
1075.0 0.000930 154.76598 1022.66467
1269.0 0.000788 154.68161 1274.94458
1465.0 0.000683 154.59665 1456.25159
1471.0 0.000680 154.51114 1472.95935
1277.0 0.000783 154.42505 1314.52539
985.0 0.001015 154.33836 1067.40466
769.0 0.001300 154.25113 818.85193
591.0 0.001692 154.16330 620.56628
424.0 0.002358 154.07491 470.79788
368.0 0.002717 153.98595 371.23386
321.0 0.003115 153.89641 309.13699
294.0 0.003401 153.80629 271.33722
235.0 0.00426 153.71561 247.79044
219.0 0.00457 153.62437 232.19228
207.0 0.00483 153.53258 221.08202
197.0 0.00508 153.44019 212.62199
186.0 0.00538 153.34724 206.04715
196.0 0.00510 153.25374 200.77953
197.0 0.00508 153.15967 196.50320
192.0 0.00521 153.06503 193.00122
202.0 0.00495 152.96985 190.11609
180.0 0.00556 152.87413 187.73001
173.0 0.00578 152.77785 185.75337
173.0 0.00578 152.68100 184.11723
179.0 0.00559 152.58362 182.76801
170.0 0.00588 152.48569 181.66383
176.0 0.00568 152.38721 184.13660
190.0 0.00526 152.28819 183.52950
170.0 0.00588 152.18866 183.09253
181.0 0.00552 152.08858 182.80992
166.0 0.00602 151.98798 182.66956
177.0 0.00565 151.88684 182.66237
173.0 0.00578 151.78519 182.78178
175.0 0.00571 151.68300 183.02348
180.0 0.00556 151.58031 183.38513
170.0 0.00588 151.47711 183.86615
165.0 0.00606 151.37340 184.46771
158.0 0.00633 151.26918 185.19261
162.0 0.00617 151.16449 186.04532
161.0 0.00621 151.05928 187.03194
187.0 0.00535 150.95358 188.16046
162.0 0.00617 150.84738 189.44077
178.0 0.00562 150.74072 190.88492
159.0 0.00629 150.63358 192.50742
200.0 0.00500 150.52596 194.32549
213.0 0.00469 150.41786 196.35959
181.0 0.00552 150.30934 198.63399
198.0 0.00505 150.20033 201.17729
167.0 0.00599 150.09088 204.02359
185.0 0.00541 149.98097 207.21327
186.0 0.00538 149.87064 210.80489
206.0 0.00485 149.75987 214.83600
198.0 0.00505 149.64867 219.38622
210.0 0.00476 149.53703 224.54007
229.0 0.00437 149.42502 230.40062
225.0 0.00444 149.31255 237.09450
236.0 0.00424 149.19969 244.77882
210.0 0.00476 149.08641 253.64993
220.0 0.00455 148.97276 263.95587
244.0 0.00410 148.85872 273.42386
283.0 0.00353 148.74429 287.73108
319.0 0.003135 148.62952 304.73129
311.0 0.003215 148.51434 325.14487
342.0 0.002924 148.39885 349.97690
365.0 0.002740 148.28297 380.74149
411.0 0.002433 148.16676 419.92297
435.0 0.002299 148.05020 472.15097
559.0 0.001789 147.93330 546.40424
688.0 0.001453 147.81609 659.67725
831.0 0.001203 147.69856 841.24109
1134.0 0.000882 147.58073 1134.46826
1551.0 0.000645 147.46262 1591.10486
2206.0 0.000453 147.34418 2253.63623
3182.0 0.0003143 147.22545 3125.41357
3996.0 0.0002503 147.10645 4128.20215
4893.0 0.0002044 146.98718 5043.46289
5216.0 0.0001917 146.86766 5504.78760
4954.0 0.0002019 146.74786 5249.85645
4183.0 0.0002391 146.62785 4434.44092
3185.0 0.0003140 146.50761 3435.69336
2317.0 0.000432 146.38712 2522.31348
1657.0 0.000604 146.26639 1807.32129
1203.0 0.000831 146.14546 1306.52808
977.0 0.001024 146.02434 985.93811
827.0 0.001209 145.90300 795.15027
672.0 0.001488 145.78148 689.14288
674.0 0.001484 145.65981 638.06549
650.0 0.001538 145.53795 628.57562
699.0 0.001431 145.41595 661.82483
754.0 0.001326 145.29378 750.74756
957.0 0.001045 145.17146 915.85309
1218.0 0.000821 145.04903 1177.19006
1620.0 0.000617 144.92647 1541.36328
2128.0 0.000470 144.80379 1984.69678
2431.0 0.000411 144.68102 2422.66479
2690.0 0.000372 144.55812 2699.56934
2604.0 0.000384 144.43520 2661.67627
2305.0 0.000434 144.31215 2326.23828
1815.0 0.000551 144.18906 1859.03687
1309.0 0.000764 144.06590 1405.24829
954.0 0.001048 143.94270 1034.55396
707.0 0.001414 143.81946 764.08051
534.0 0.001873 143.69620 582.57361
431.0 0.002320 143.57291 467.19345
349.0 0.002865 143.44965 394.93915
325.0 0.003077 143.32637 348.33420
303.0 0.003300 143.20309 316.32855
291.0 0.003436 143.07983 292.76566
289.0 0.003460 142.95663 274.43866
247.0 0.00405 142.83347 259.66949
241.0 0.00415 142.71036 247.51332
218.0 0.00459 142.58730 237.38438
208.0 0.00481 142.46432 229.04237
235.0 0.00426 142.34146 221.94595
197.0 0.00508 142.21867 216.07178
180.0 0.00556 142.09599 211.30608
217.0 0.00461 141.97343 207.53671
199.0 0.00503 141.85100 204.59248
182.0 0.00549 141.72870 202.16277
177.0 0.00565 141.60655 199.72932
173.0 0.00578 141.48456 196.75008
173.0 0.00578 141.36276 193.16054
156.0 0.00641 141.24113 189.39539
158.0 0.00633 141.11969 185.88445
186.0 0.00538 140.99844 182.84183
165.0 0.00606 140.87743 180.32631
174.0 0.00575 140.75664 178.32021
174.0 0.00575 140.63606 176.78526
140.0 0.00714 140.51575 175.69734
172.0 0.00581 140.39571 175.05301
188.0 0.00532 140.27591 174.84689
157.0 0.00637 140.15640 175.02722
159.0 0.00629 140.03717 175.43134
153.0 0.00654 139.91826 175.71179
160.0 0.00625 139.79964 175.40434
148.0 0.00676 139.68137 174.33521
160.0 0.00625 139.56340 172.83763
146.0 0.00685 139.44580 171.36255
186.0 0.00538 139.32855 170.18124
176.0 0.00568 139.21169 169.39842
172.0 0.00581 139.09518 169.02365
134.0 0.00746 138.97908 169.02330
160.0 0.00625 138.86334 169.35683
164.0 0.00610 138.74806 169.99988
169.0 0.00592 138.63318 170.95331
162.0 0.00617 138.51872 172.24419
174.0 0.00575 138.40474 166.89722
178.0 0.00562 138.29120 169.24139
177.0 0.00565 138.17812 172.15440
192.0 0.00521 138.06552 175.79210
176.0 0.00568 137.95340 180.38802
190.0 0.00526 137.84178 186.32680
227.0 0.00441 137.73067 194.30788
218.0 0.00459 137.62009 205.67126
218.0 0.00459 137.51007 222.94067
234.0 0.00427 137.40056 250.44319
309.0 0.003236 137.29160 294.70398
370.0 0.002703 137.18321 363.75394
493.0 0.002028 137.07539 464.77094
600.0 0.001667 136.96817 599.87244
802.0 0.001247 136.86154 760.07648
969.0 0.001032 136.75552 916.58362
1002.0 0.000998 136.65012 1015.24231
1011.0 0.000989 136.54535 1004.07452
845.0 0.001183 136.44121 889.72772
746.0 0.001340 136.33772 725.72150
529.0 0.001890 136.23489 568.85773
417.0 0.002398 136.13275 440.03647
330.0 0.003030 136.03128 345.60736
269.0 0.00372 135.93051 282.13614
242.0 0.00413 135.83043 242.06686
241.0 0.00415 135.73108 217.62032
214.0 0.00467 135.63245 202.85202
216.0 0.00463 135.53455 194.13084
217.0 0.00461 135.43738 189.75417
213.0 0.00469 135.34099 189.32494
219.0 0.00457 135.24535 193.14563
207.0 0.00483 135.15047 201.82701
218.0 0.00459 135.05638 214.80914
243.0 0.00412 134.96312 230.79268
242.0 0.00413 134.87064 245.86157
258.0 0.00388 134.77898 253.38701
265.0 0.00377 134.68813 248.11224
239.0 0.00418 134.59811 232.09563
218.0 0.00459 134.50894 212.07220
183.0 0.00546 134.42061 193.25648
199.0 0.00503 134.33316 177.99776
180.0 0.00556 134.24658 166.77151
187.0 0.00535 134.16090 159.05835
168.0 0.00595 134.07610 153.93994
193.0 0.00518 133.99219 150.54814
198.0 0.00505 133.90918 148.29860
194.0 0.00515 133.82709 146.56911
209.0 0.00478 133.74594 145.21252
190.0 0.00526 133.66573 144.09882
207.0 0.00483 133.58644 143.15762
180.0 0.00556 133.50815 142.34943
198.0 0.00505 133.43079 141.64357
155.0 0.00645 133.35440 141.02260
145.0 0.00690 133.27899 140.47227
140.0 0.00714 133.20457 139.98148
182.0 0.00549 133.13115 139.54149
163.0 0.00613 133.05873 139.14546
158.0 0.00633 132.98734 138.77856
145.0 0.00690 132.91696 138.45531
150.0 0.00667 132.84760 138.16257
164.0 0.00610 132.77930 137.89761
134.0 0.00746 132.71202 137.65822
149.0 0.00671 132.64580 137.44281
160.0 0.00625 132.58063 137.25031
134.0 0.00746 132.51654 137.08014
121.0 0.00826 132.45352 136.93251
131.0 0.00763 132.39160 136.80856
140.0 0.00714 132.33076 136.71130
153.0 0.00654 132.27103 136.64711
156.0 0.00641 132.21237 136.62865
148.0 0.00676 132.15488 136.67798
138.0 0.00725 132.09845 136.82866
142.0 0.00704 132.04318 137.12325
153.0 0.00654 131.98901 137.60181
157.0 0.00637 131.93600 138.28177
164.0 0.00610 131.88414 139.12781
145.0 0.00690 131.83344 140.00853
159.0 0.00629 131.78386 140.65709
131.0 0.00763 131.73546 140.77298
139.0 0.00719 131.68825 140.32249
131.0 0.00763 131.64220 139.58537
159.0 0.00629 131.59732 138.85799
155.0 0.00645 131.55363 138.30408
141.0 0.00709 131.51115 137.98273
140.0 0.00714 131.46986 137.89511
157.0 0.00637 131.42976 138.01753
134.0 0.00746 131.39090 137.09248
134.0 0.00746 131.35321 137.60789
144.0 0.00694 131.31676 138.30632
141.0 0.00709 131.28154 139.22971
130.0 0.00769 131.24754 140.46956
155.0 0.00645 131.21477 142.37384
145.0 0.00690 131.18324 144.95935
146.0 0.00685 131.15295 148.98839
168.0 0.00595 131.12392 155.38576
178.0 0.00562 131.09613 165.34468
185.0 0.00541 131.06960 180.04437
201.0 0.00498 131.04431 200.09909
260.0 0.00385 131.02029 224.74879
263.0 0.00380 130.99753 250.67653
281.0 0.00356 130.97606 270.71344
282.0 0.00355 130.95584 275.76550
265.0 0.00377 130.93690 263.08817
238.0 0.00420 130.91924 239.70918
220.0 0.00455 130.90286 214.54034
190.0 0.00526 130.88777 192.75050
180.0 0.00556 130.87396 176.71233
154.0 0.00649 130.86143 166.56259
192.0 0.00521 130.85020 161.78842
146.0 0.00685 130.84027 161.71996
182.0 0.00549 130.83162 165.79939
206.0 0.00485 130.82430 173.46738
176.0 0.00568 130.81824 183.74690
180.0 0.00556 130.81351 194.56862
195.0 0.00513 130.81007 202.16801
192.0 0.00521 130.80792 202.42834
189.0 0.00529 130.80710 194.84802
144.0 0.00694 130.80759 183.08852
170.0 0.00588 130.80937 171.00276
150.0 0.00667 130.81247 160.63063
178.0 0.00562 130.81688 152.60757
132.0 0.00758 130.82259 146.84897
144.0 0.00694 130.82962 142.94008
137.0 0.00730 130.83798 140.36340
123.0 0.00813 130.84763 138.65962
143.0 0.00699 130.85858 137.49858
135.0 0.00741 130.87085 136.67258
144.0 0.00694 130.88446 136.06021
132.0 0.00758 130.89934 136.51740
140.0 0.00714 130.91556 136.17941
131.0 0.00763 130.93307 135.92059
138.0 0.00725 130.95190 135.72488
138.0 0.00725 130.97205 135.58145
129.0 0.00775 130.99348 135.48279
140.0 0.00714 131.01624 135.42361
139.0 0.00719 131.04030 135.40038
134.0 0.00746 131.06566 135.41063
122.0 0.00820 131.09232 135.45325
131.0 0.00763 131.12029 135.52791
138.0 0.00725 131.14955 135.63524
151.0 0.00662 131.18010 135.77693
137.0 0.00730 131.21196 135.95569
157.0 0.00637 131.24509 136.17548
152.0 0.00658 131.27954 136.44191
144.0 0.00694 131.31525 136.76236
131.0 0.00763 131.35226 137.14706
160.0 0.00625 131.39053 137.60963
128.0 0.00781 131.43011 138.16237
144.0 0.00694 131.47095 138.84839
147.0 0.00680 131.51308 139.70753
119.0 0.00840 131.55646 140.82397
149.0 0.00671 131.60109 142.35504
133.0 0.00752 131.64700 144.58911
137.0 0.00730 131.69417 148.01401
170.0 0.00588 131.74260 153.35583
174.0 0.00575 131.79227 161.51605
186.0 0.00538 131.84319 173.33789
200.0 0.00500 131.89534 189.18211
238.0 0.00420 131.94873 208.31335
254.0 0.00394 132.00336 227.99419
258.0 0.00388 132.05920 242.59468
256.0 0.00391 132.11627 245.42075
228.0 0.00439 132.17458 234.98158
216.0 0.00463 132.23409 216.82237
211.0 0.00474 132.29480 197.47368
191.0 0.00524 132.35670 180.69946
162.0 0.00617 132.41982 167.85712
158.0 0.00633 132.48410 158.91327
148.0 0.00676 132.54959 153.14922
145.0 0.00690 132.61624 149.65213
142.0 0.00704 132.68408 147.41051
144.0 0.00694 132.75308 146.28232
142.0 0.00704 132.82324 145.70366
130.0 0.00769 132.89456 145.52629
150.0 0.00667 132.96701 145.57469
125.0 0.00800 133.04059 145.84393
141.0 0.00709 133.11534 146.31615
144.0 0.00694 133.19119 146.98917
163.0 0.00613 133.26817 147.87273
169.0 0.00592 133.34625 148.98730
167.0 0.00599 133.42546 150.36523
173.0 0.00578 133.50574 152.05304
143.0 0.00699 133.58713 154.11626
154.0 0.00649 133.66956 156.64786
178.0 0.00562 133.75310 159.68735
159.0 0.00629 133.83771 163.65895
205.0 0.00488 133.92337 168.85492
168.0 0.00595 134.01006 176.00720
171.0 0.00585 134.09781 186.46228
200.0 0.00500 134.18658 202.53076
217.0 0.00461 134.27640 227.74800
241.0 0.00415 134.36720 266.67996
295.0 0.003390 134.45903 323.93875
391.0 0.002558 134.55185 402.21680
523.0 0.001912 134.64566 499.38080
624.0 0.001603 134.74045 604.21167
682.0 0.001466 134.83623 691.10571
675.0 0.001481 134.93294 723.91858
637.0 0.001570 135.03062 684.61267
539.0 0.001855 135.12923 594.54993
466.0 0.002146 135.22876 489.72903
331.0 0.003021 135.32925 394.22513
323.0 0.003096 135.43063 318.13132
234.0 0.00427 135.53291 262.95081
227.0 0.00441 135.63611 225.69089
208.0 0.00481 135.74017 201.67163
207.0 0.00483 135.84511 186.39621
178.0 0.00562 135.95090 176.45236
170.0 0.00588 136.05753 169.74686
156.0 0.00641 136.16502 164.78621
180.0 0.00556 136.27335 160.98859
167.0 0.00599 136.38249 157.97992
157.0 0.00637 136.49243 155.54503
163.0 0.00613 136.60318 153.63669
174.0 0.00575 136.71472 151.98552
154.0 0.00649 136.82706 150.60933
148.0 0.00676 136.94012 149.45610
134.0 0.00746 137.05392 148.48589
138.0 0.00725 137.16850 147.66759
150.0 0.00667 137.28381 146.97672
178.0 0.00562 137.39983 146.39384
144.0 0.00694 137.51657 145.90361
141.0 0.00709 137.63399 145.49380
151.0 0.00662 137.75211 145.15483
131.0 0.00763 137.87090 144.87917
157.0 0.00637 137.99031 144.66113
141.0 0.00709 138.11041 144.49696
147.0 0.00680 138.23114 144.38437
151.0 0.00662 138.35251 144.32301
147.0 0.00680 138.47447 144.31502
136.0 0.00735 138.59705 144.19830
153.0 0.00654 138.72020 144.32660
153.0 0.00654 138.84395 144.55342
171.0 0.00585 138.96822 144.92938
161.0 0.00621 139.09306 145.54362
159.0 0.00629 139.21846 146.54492
158.0 0.00633 139.34438 148.09940
162.0 0.00617 139.47081 150.41306
145.0 0.00690 139.59772 153.61958
167.0 0.00599 139.72514 157.67775
159.0 0.00629 139.85304 162.20808
185.0 0.00541 139.98138 166.26794
172.0 0.00581 140.11017 168.36298
151.0 0.00662 140.23940 167.43120
154.0 0.00649 140.36906 164.02696
122.0 0.00820 140.49915 159.66223
148.0 0.00676 140.62961 155.51117
122.0 0.00820 140.76048 152.12540
138.0 0.00725 140.89169 149.66521
133.0 0.00752 141.02328 147.99870
139.0 0.00719 141.15518 146.96249
142.0 0.00704 141.28745 146.36086
155.0 0.00645 141.42003 146.03622
132.0 0.00758 141.55290 145.88208
142.0 0.00704 141.68608 145.83539
153.0 0.00654 141.81952 145.86215
143.0 0.00699 141.95326 145.94516
158.0 0.00633 142.08722 146.07602
153.0 0.00654 142.22141 146.25136
123.0 0.00813 142.35583 146.47079
166.0 0.00602 142.49046 146.73615
129.0 0.00775 142.62531 147.05173
149.0 0.00671 142.76033 147.42416
144.0 0.00694 142.89551 147.86345
155.0 0.00645 143.03087 148.38393
150.0 0.00667 143.16637 149.00745
156.0 0.00641 143.30199 148.84634
147.0 0.00680 143.43768 149.83426
152.0 0.00658 143.57352 151.13162
166.0 0.00602 143.70946 152.93326
169.0 0.00592 143.84546 155.55864
164.0 0.00610 143.98152 159.47498
161.0 0.00621 144.11763 165.26808
168.0 0.00595 144.25378 173.52777
181.0 0.00552 144.38995 184.63898
200.0 0.00500 144.52609 198.59465
199.0 0.00503 144.66228 213.95740
229.0 0.00437 144.79842 228.03848
251.0 0.00398 144.93454 237.12001
268.0 0.00373 145.07060 239.86148
247.0 0.00405 145.20662 238.53185
214.0 0.00467 145.34253 235.31813
213.0 0.00469 145.47838 229.67499
198.0 0.00505 145.61409 220.05273
213.0 0.00469 145.74973 207.18520
194.0 0.00515 145.88521 193.76968
172.0 0.00581 146.02058 181.94681
170.0 0.00588 146.15578 172.56984
161.0 0.00621 146.29082 165.67038
182.0 0.00549 146.42567 160.88638
143.0 0.00699 146.56033 157.71201
151.0 0.00662 146.69476 155.65465
147.0 0.00680 146.82898 154.32143
160.0 0.00625 146.96298 153.44308
139.0 0.00719 147.09671 152.85699
147.0 0.00680 147.23019 152.47661
150.0 0.00667 147.36340 152.26566
137.0 0.00730 147.49632 152.22107
133.0 0.00752 147.62895 152.36238
141.0 0.00709 147.76125 152.72015
142.0 0.00704 147.89322 153.31938
163.0 0.00613 148.02484 154.15598
157.0 0.00637 148.15613 155.16393
148.0 0.00676 148.28706 156.16797
147.0 0.00680 148.41760 156.85776
165.0 0.00606 148.54778 156.93684
137.0 0.00730 148.67751 156.42262
141.0 0.00709 148.80685 155.63388
149.0 0.00671 148.93573 154.89299
154.0 0.00649 149.06421 154.40117
145.0 0.00690 149.19221 154.27553
142.0 0.00704 149.31976 154.59746
131.0 0.00763 149.44682 155.39272
164.0 0.00610 149.57341 156.78572
171.0 0.00585 149.69948 158.72156
165.0 0.00606 149.82506 161.06660
163.0 0.00613 149.95009 163.46439
155.0 0.00645 150.07457 165.24315
173.0 0.00578 150.19853 165.64363
153.0 0.00654 150.32190 164.50787
170.0 0.00588 150.44472 162.46220
145.0 0.00690 150.56696 160.25706
156.0 0.00641 150.68858 158.34071
159.0 0.00629 150.80960 156.88754
134.0 0.00746 150.93001 155.91043
122.0 0.00820 151.04976 155.34001
149.0 0.00671 151.16888 155.07877
151.0 0.00662 151.28737 155.03702
157.0 0.00637 151.40518 155.15007
174.0 0.00575 151.52232 155.38057
130.0 0.00769 151.63876 155.71407
138.0 0.00725 151.75453 156.15468
172.0 0.00581 151.86957 161.81923
131.0 0.00763 151.98389 162.71869
175.0 0.00571 152.09747 163.89847
145.0 0.00690 152.21033 165.53151
144.0 0.00694 152.32243 167.90703
157.0 0.00637 152.43379 171.45522
177.0 0.00565 152.54437 176.72104
194.0 0.00515 152.65417 184.24994
191.0 0.00524 152.76317 194.36958
192.0 0.00521 152.87140 206.86884
244.0 0.00410 152.97878 220.52472
226.0 0.00442 153.08536 232.47380
261.0 0.00383 153.19110 238.39006
229.0 0.00437 153.29602 235.42326
225.0 0.00444 153.40009 225.33635
228.0 0.00439 153.50330 212.36038
184.0 0.00543 153.60564 200.08360
197.0 0.00508 153.70709 189.99023
179.0 0.00559 153.80768 182.50713
180.0 0.00556 153.90736 177.41565
167.0 0.00599 154.00615 174.11610
185.0 0.00541 154.10405 172.22800
152.0 0.00658 154.20100 171.19563
176.0 0.00568 154.29704 170.69447
162.0 0.00617 154.39214 170.52518
169.0 0.00592 154.48630 170.57582
177.0 0.00565 154.57950 170.78636
180.0 0.00556 154.67174 171.12457
182.0 0.00549 154.76303 171.57281
145.0 0.00690 154.85333 172.12103
162.0 0.00617 154.94267 172.76411
195.0 0.00513 155.03102 173.50003
157.0 0.00637 155.11836 174.32948
157.0 0.00637 155.20471 175.25526
202.0 0.00495 155.29004 184.65833
168.0 0.00595 155.37434 186.03938
182.0 0.00549 155.45764 187.54857
182.0 0.00549 155.53990 189.19763
180.0 0.00556 155.62114 191.00090
188.0 0.00532 155.70131 192.97546
212.0 0.00472 155.78046 195.14172
189.0 0.00529 155.85854 197.52400
180.0 0.00556 155.93556 200.14151
190.0 0.00526 156.01149 203.04828
180.0 0.00556 156.08640 206.27583
192.0 0.00521 156.16019 209.87390
194.0 0.00515 156.23293 213.90291
201.0 0.00498 156.30455 218.43633
222.0 0.00450 156.37511 223.56462
224.0 0.00446 156.44455 229.39966
204.0 0.00490 156.51289 236.08127
252.0 0.00397 156.58011 243.78584
232.0 0.00431 156.64624 252.73882
234.0 0.00427 156.71123 263.23300
313.0 0.003195 156.77513 275.65945
312.0 0.003205 156.83789 290.54242
280.0 0.00357 156.89951 308.75089
341.0 0.002933 156.96001 331.61060
354.0 0.002825 157.01936 361.49380
411.0 0.002433 157.07759 402.66333
463.0 0.002160 157.13464 462.60794
557.0 0.001795 157.19057 553.02411
731.0 0.001368 157.24536 690.79639
976.0 0.001025 157.29898 896.01697
1296.0 0.000772 157.35146 1187.12305
1734.0 0.000577 157.40276 1572.39966
2219.0 0.000451 157.45291 2037.75977
2611.0 0.000383 157.50188 2528.39868
2945.0 0.0003396 157.54970 2927.53027
3094.0 0.0003232 157.59634 3077.87329
2882.0 0.0003470 157.64182 2902.86377
2600.0 0.000385 157.68614 2492.65283
2133.0 0.000469 157.72925 2004.54150
1592.0 0.000628 157.77121 1549.27478
1233.0 0.000811 157.81197 1176.92773
972.0 0.001029 157.85158 898.91864
763.0 0.001311 157.88998 705.62427
621.0 0.001610 157.92722 578.51941
513.0 0.001949 157.96327 497.12015
475.0 0.002105 157.99814 445.43646
447.0 0.002237 158.03183 412.15909
461.0 0.002169 158.06433 390.21442
409.0 0.002445 158.09564 375.97034
455.0 0.002198 158.12578 367.21320
381.0 0.002625 158.15471 362.86868
440.0 0.002273 158.18248 362.41071
400.0 0.002500 158.20905 365.64325
436.0 0.002294 158.23444 372.61475
399.0 0.002506 158.25864 383.60397
419.0 0.002387 158.28168 399.16345
429.0 0.002331 158.30351 420.24673
488.0 0.002049 158.32417 448.50064
528.0 0.001894 158.34364 486.87155
586.0 0.001706 158.36195 540.72699
689.0 0.001451 158.37907 619.60822
776.0 0.001289 158.39503 739.35858
918.0 0.001089 158.40979 923.61847
1148.0 0.000871 158.42339 1202.84314
1596.0 0.000627 158.43581 1608.80786
2131.0 0.000469 158.44707 2163.58936
2973.0 0.0003364 158.45715 2863.08008
3780.0 0.0002646 158.46608 3652.96191
4515.0 0.0002215 158.47383 4393.90137
4965.0 0.0002014 158.48042 4849.49512
5013.0 0.0001995 158.48587 4806.87158
4468.0 0.0002238 158.49016 4287.77783
3714.0 0.0002693 158.49327 3523.58838
2771.0 0.000361 158.49527 2738.90405
2119.0 0.000472 158.49609 2057.55078
1532.0 0.000653 158.49580 1524.00427
1190.0 0.000840 158.49435 1136.96460
894.0 0.001119 158.49178 871.88165
723.0 0.001383 158.48805 696.56720
691.0 0.001447 158.48322 581.35376
536.0 0.001866 158.47725 503.78430
523.0 0.001912 158.47017 449.06854
451.0 0.002217 158.46194 408.38525
403.0 0.002481 158.45264 376.76889
363.0 0.002755 158.44221 351.45273
377.0 0.002653 158.43069 330.84558
369.0 0.002710 158.41806 313.99512
330.0 0.003030 158.40433 300.33640
338.0 0.002959 158.38953 289.57376
314.0 0.003185 158.37363 281.59869
292.0 0.003425 158.35667 276.39157
261.0 0.00383 158.33861 273.88531
300.0 0.003333 158.31950 273.78430
297.0 0.003367 158.29930 275.30881
287.0 0.003484 158.27809 276.85132
264.0 0.00379 158.25580 275.97632
284.0 0.00352 158.23247 270.80740
293.0 0.003413 158.20808 261.88803
270.0 0.00370 158.18268 251.51155
274.0 0.00365 158.15625 241.70822
239.0 0.00418 158.12878 233.58197
223.0 0.00448 158.10031 227.59033
236.0 0.00424 158.07083 223.88550
226.0 0.00442 158.04034 222.56909
240.0 0.00417 158.00887 218.81096
265.0 0.00377 157.97639 223.43513
282.0 0.00355 157.94293 231.97176
252.0 0.00397 157.90851 245.19701
282.0 0.00355 157.87311 263.53024
306.0 0.003268 157.83675 286.64059
329.0 0.003040 157.79945 312.78598
349.0 0.002865 157.76117 337.46402
350.0 0.002857 157.72198 352.65549
339.0 0.002950 157.68184 350.63760
321.0 0.003115 157.64079 331.49689
284.0 0.00352 157.59882 303.08469
251.0 0.00398 157.55592 273.53986
218.0 0.00459 157.51213 247.52254
190.0 0.00526 157.46747 226.79309
231.0 0.00433 157.42189 211.41626
200.0 0.00500 157.37546 200.57819
185.0 0.00541 157.32813 193.14592
198.0 0.00505 157.27997 188.04065
159.0 0.00629 157.23094 184.42311
170.0 0.00588 157.18106 181.72661
156.0 0.00641 157.13034 179.60521
176.0 0.00568 157.07883 177.86018
181.0 0.00552 157.02647 176.37857
150.0 0.00667 156.97330 175.09355
177.0 0.00565 156.91933 173.96227
159.0 0.00629 156.86456 172.95505
175.0 0.00571 156.80902 172.04993
156.0 0.00641 156.75270 171.22997
205.0 0.00488 156.69560 170.48189
162.0 0.00617 156.63777 169.79514
157.0 0.00637 156.57916 169.16104
171.0 0.00585 156.51984 168.57263
170.0 0.00588 156.45976 168.02412
181.0 0.00552 156.39897 167.51065
178.0 0.00562 156.33749 158.68935
167.0 0.00599 156.27528 158.46837
186.0 0.00538 156.21239 162.19316
162.0 0.00617 156.14882 162.11630
203.0 0.00493 156.08456 162.05597
189.0 0.00529 156.01965 162.01102
164.0 0.00610 155.95409 161.98058
173.0 0.00578 155.88786 161.96404
163.0 0.00613 155.82100 161.96083
175.0 0.00571 155.75354 161.97064
164.0 0.00610 155.68542 161.99326
186.0 0.00538 155.61671 162.02861
170.0 0.00588 155.54744 162.07675
144.0 0.00694 155.47755 162.13774
153.0 0.00654 155.40709 162.21190
165.0 0.00606 155.33606 162.29956
160.0 0.00625 155.26448 162.40121
155.0 0.00645 155.19234 162.51738
143.0 0.00699 155.11966 162.71948
168.0 0.00595 155.04646 162.86890
151.0 0.00662 154.97276 163.03539
159.0 0.00629 154.89853 163.21989
144.0 0.00694 154.82382 163.42365
159.0 0.00629 154.74860 163.64798
142.0 0.00704 154.67291 163.89442
157.0 0.00637 154.59676 164.16470
137.0 0.00730 154.52014 164.37898
138.0 0.00725 154.44307 164.70517
167.0 0.00599 154.36560 165.06165
135.0 0.00741 154.28767 165.45105
153.0 0.00654 154.20934 165.87654
163.0 0.00613 154.13058 166.34157
166.0 0.00602 154.05144 166.85011
156.0 0.00641 153.97191 167.40659
156.0 0.00641 153.89201 168.01611
161.0 0.00621 153.81172 168.68446
163.0 0.00613 153.73109 169.41826
175.0 0.00571 153.65013 170.22508
176.0 0.00568 153.56882 171.10530
181.0 0.00552 153.48718 172.08600
200.0 0.00500 153.40524 173.17020
176.0 0.00568 153.32297 174.37157
172.0 0.00581 153.24042 175.70592
185.0 0.00541 153.15756 176.88142
193.0 0.00518 153.07445 178.55016
182.0 0.00549 152.99109 180.41873
180.0 0.00556 152.90744 182.51842
161.0 0.00621 152.82356 184.88708
202.0 0.00495 152.73943 187.57039
216.0 0.00463 152.65509 190.62404
178.0 0.00562 152.57051 194.11641
195.0 0.00513 152.48575 198.13222
201.0 0.00498 152.40077 202.77739
216.0 0.00463 152.31564 208.18565
207.0 0.00483 152.23030 214.52843
211.0 0.00474 152.14481 222.03032
248.0 0.00403 152.05914 230.99637
236.0 0.00424 151.97334 241.86559
254.0 0.00394 151.88741 255.31996
280.0 0.00357 151.80132 272.50003
306.0 0.003268 151.71513 295.39441
297.0 0.003367 151.62881 327.44897
363.0 0.002755 151.54242 374.32852
408.0 0.002451 151.45592 444.56070
521.0 0.001919 151.36934 549.33118
672.0 0.001488 151.28267 701.10547
918.0 0.001089 151.19597 910.12341
1237.0 0.000808 151.10922 1179.11279
1581.0 0.000633 151.02237 1495.69165
1899.0 0.000527 150.93555 1820.81653
2153.0 0.000464 150.84865 2077.03174
2240.0 0.000446 150.76175 2166.39111
2182.0 0.000458 150.67482 2045.38049
1818.0 0.000550 150.58794 1771.74097
1448.0 0.000691 150.50105 1443.97278
1148.0 0.000871 150.41414 1133.32813
906.0 0.001104 150.32730 873.71704
659.0 0.001517 150.24045 674.52606
507.0 0.001972 150.15369 531.47571
404.0 0.002475 150.06693 433.78339
338.0 0.002959 149.98027 369.62415
293.0 0.003413 149.89365 327.47879
283.0 0.00353 149.80713 299.96600
299.0 0.003344 149.72070 281.99408
272.0 0.00368 149.63431 270.41620
275.0 0.00364 149.54807 263.13638
261.0 0.00383 149.46190 258.31583
252.0 0.00397 149.37589 253.83189
226.0 0.00442 149.28993 247.53763
241.0 0.00415 149.20418 238.58324
224.0 0.00446 149.11852 227.97664
220.0 0.00455 149.03304 217.31844
204.0 0.00490 148.94769 207.68199
239.0 0.00418 148.86249 199.51460
183.0 0.00546 148.77750 192.86821
195.0 0.00513 148.69264 187.58058
189.0 0.00529 148.60797 183.39510
205.0 0.00488 148.52350 180.04422
172.0 0.00581 148.43924 177.29976
180.0 0.00556 148.35518 174.99112
165.0 0.00606 148.27129 173.00157
173.0 0.00578 148.18767 171.25513
148.0 0.00676 148.10422 169.70215
159.0 0.00629 148.02104 168.30917
162.0 0.00617 147.93805 167.05199
170.0 0.00588 147.85536 165.91223
154.0 0.00649 147.77287 164.87515
147.0 0.00680 147.69067 163.92877
151.0 0.00662 147.60872 163.06323
154.0 0.00649 147.52702 162.27034
146.0 0.00685 147.44562 161.54382
157.0 0.00637 147.36446 160.87892
145.0 0.00690 147.28360 160.27284
149.0 0.00671 147.20302 159.72476
147.0 0.00680 147.12276 159.23584
170.0 0.00588 147.04277 158.80840
153.0 0.00654 146.96310 158.44447
162.0 0.00617 146.88374 158.24312
152.0 0.00658 146.80469 158.00093
153.0 0.00654 146.72598 157.79782
174.0 0.00575 146.64754 157.59953
156.0 0.00641 146.56949 157.35957
161.0 0.00621 146.49173 157.04933
162.0 0.00617 146.41434 156.68692
143.0 0.00699 146.33727 156.31712
147.0 0.00680 146.26054 155.97687
142.0 0.00704 146.18419 155.68575
163.0 0.00613 146.10815 155.45099
152.0 0.00658 146.03250 155.27332
147.0 0.00680 145.95720 155.15013
178.0 0.00562 145.88229 155.07845
169.0 0.00592 145.80772 155.05659
174.0 0.00575 145.73354 155.08568
156.0 0.00641 145.65974 155.17056
136.0 0.00735 145.58629 155.32152
170.0 0.00588 145.51326 155.55730
155.0 0.00645 145.44058 155.90964
147.0 0.00680 145.36832 156.43860
160.0 0.00625 145.29643 157.20268
153.0 0.00654 145.22496 158.31032
155.0 0.00645 145.15384 155.96121
150.0 0.00667 145.08318 158.19101
167.0 0.00599 145.01289 161.01591
134.0 0.00746 144.94299 164.36671
168.0 0.00595 144.87354 167.97052
181.0 0.00552 144.80444 171.24498
168.0 0.00595 144.73579 173.37936
198.0 0.00505 144.66754 173.89244
178.0 0.00562 144.59972 173.16692
168.0 0.00595 144.53230 172.11324
160.0 0.00625 144.46529 171.54893
147.0 0.00680 144.39873 172.05600
173.0 0.00578 144.33255 174.14040
164.0 0.00610 144.26682 178.42838
181.0 0.00552 144.20148 185.93378
193.0 0.00518 144.13660 197.75293
204.0 0.00490 144.07211 215.59882
245.0 0.00408 144.00807 241.03493
300.0 0.003333 143.94446 275.29596
338.0 0.002959 143.88126 318.01755
401.0 0.002494 143.81851 366.31204
453.0 0.002208 143.75613 412.89844
434.0 0.002304 143.69423 445.09860
474.0 0.002110 143.63274 449.78159
447.0 0.002237 143.57170 424.64465
366.0 0.002732 143.51103 380.68192
353.0 0.002833 143.45085 331.65533
326.0 0.003067 143.39108 286.51749
244.0 0.00410 143.33173 249.26607
194.0 0.00515 143.27280 220.79927
210.0 0.00476 143.21429 200.30029
187.0 0.00535 143.15622 186.15846
182.0 0.00549 143.09857 176.61574
166.0 0.00602 143.04134 170.15887
156.0 0.00641 142.98454 165.71358
153.0 0.00654 142.92815 162.46263
135.0 0.00741 142.87219 160.00079
145.0 0.00690 142.81664 158.06912
136.0 0.00735 142.76151 156.51755
173.0 0.00578 142.70680 155.25557
164.0 0.00610 142.65251 154.22537
159.0 0.00629 142.59860 153.38768
146.0 0.00685 142.54514 152.71556
152.0 0.00658 142.49210 152.19058
150.0 0.00667 142.43942 151.80154
129.0 0.00775 142.38719 151.54443
162.0 0.00617 142.33533 151.42329
159.0 0.00629 142.28387 151.45398
150.0 0.00667 142.23283 151.67165
159.0 0.00629 142.18219 152.14371
147.0 0.00680 142.13191 152.98929
142.0 0.00704 142.08206 154.41640
156.0 0.00641 142.03261 156.67503
163.0 0.00613 141.98352 160.13750
186.0 0.00538 141.93480 165.18335
186.0 0.00538 141.88647 172.10672
186.0 0.00538 141.83855 180.95441
202.0 0.00495 141.79097 191.29433
236.0 0.00424 141.74376 201.86246
235.0 0.00426 141.69695 210.21693
197.0 0.00508 141.65048 213.28436
197.0 0.00508 141.60440 209.59058
188.0 0.00532 141.55864 200.77641
205.0 0.00488 141.51328 189.92641
208.0 0.00481 141.46823 179.40894
194.0 0.00515 141.42357 170.42784
163.0 0.00613 141.37921 163.37570
170.0 0.00588 141.33524 158.18530
143.0 0.00699 141.29158 154.55420
148.0 0.00676 141.24826 152.10437
165.0 0.00606 141.20526 150.48813
176.0 0.00568 141.16260 149.44151
150.0 0.00667 141.12027 148.79427
147.0 0.00680 141.07825 148.45532
160.0 0.00625 141.03653 148.38744
152.0 0.00658 140.99513 148.58105
146.0 0.00685 140.95406 149.02950
154.0 0.00649 140.91328 149.70464
153.0 0.00654 140.87277 150.52809
160.0 0.00625 140.83260 151.33505
150.0 0.00667 140.79268 151.86983
141.0 0.00709 140.75307 151.91302
135.0 0.00741 140.71371 151.48573
157.0 0.00637 140.67465 151.73885
158.0 0.00633 140.63586 151.16565
131.0 0.00763 140.59734 150.84140
174.0 0.00575 140.55908 150.90604
138.0 0.00725 140.52107 151.49738
150.0 0.00667 140.48332 152.79601
132.0 0.00758 140.44582 155.02687
152.0 0.00658 140.40855 158.55968
157.0 0.00637 140.37154 163.70407
171.0 0.00585 140.33475 170.70969
194.0 0.00515 140.29820 179.58266
217.0 0.00461 140.26186 189.85818
191.0 0.00524 140.22575 200.25536
209.0 0.00478 140.18987 208.36397
212.0 0.00472 140.15419 211.23886
221.0 0.00452 140.11868 207.56488
205.0 0.00488 140.08342 199.00087
183.0 0.00546 140.04832 188.51967
167.0 0.00599 140.01344 178.38744
188.0 0.00532 139.97874 169.75610
176.0 0.00568 139.94420 163.01050
179.0 0.00559 139.90985 158.09732
169.0 0.00592 139.87567 154.74213
171.0 0.00585 139.84166 152.17247
160.0 0.00625 139.80777 150.96213
164.0 0.00610 139.77409 150.46851
159.0 0.00629 139.74055 150.60707
165.0 0.00606 139.70714 151.39372
154.0 0.00649 139.67387 152.90796
171.0 0.00585 139.64075 155.23795
158.0 0.00633 139.60776 158.41151
154.0 0.00649 139.57489 162.30859
174.0 0.00575 139.54213 166.53627
157.0 0.00637 139.50949 170.27327
157.0 0.00637 139.47697 172.31642
178.0 0.00562 139.44456 171.75734
160.0 0.00625 139.41223 168.83528
183.0 0.00546 139.38004 164.68719
156.0 0.00641 139.34790 160.40843
134.0 0.00746 139.31587 156.64191
166.0 0.00602 139.28391 153.65991
145.0 0.00690 139.25203 151.52922
146.0 0.00685 139.22021 150.16937
169.0 0.00592 139.18849 149.49327
147.0 0.00680 139.15680 149.40559
149.0 0.00671 139.12518 149.83299
146.0 0.00685 139.09363 150.71686
151.0 0.00662 139.06212 151.98634
162.0 0.00617 139.03064 153.51472
164.0 0.00610 138.99921 155.05800
153.0 0.00654 138.96782 156.21980
146.0 0.00685 138.93648 156.58946
163.0 0.00613 138.90512 156.07088
157.0 0.00637 138.87383 154.97902
146.0 0.00685 138.84253 153.74283
154.0 0.00649 138.81125 152.66013
166.0 0.00602 138.77997 151.87617
147.0 0.00680 138.74872 151.43774
167.0 0.00599 138.71745 151.33676
131.0 0.00763 138.68619 151.53891
152.0 0.00658 138.65494 151.90486
165.0 0.00606 138.62364 152.74881
143.0 0.00699 138.59235 153.66617
156.0 0.00641 138.56104 154.79834
161.0 0.00621 138.52972 156.16150
150.0 0.00667 138.49834 157.78723
190.0 0.00526 138.46696 159.72304
164.0 0.00610 138.43555 162.03600
176.0 0.00568 138.40410 164.82191
179.0 0.00559 138.37260 168.22404
202.0 0.00495 138.34106 172.47015
191.0 0.00524 138.30949 177.94038
191.0 0.00524 138.27785 185.27719
187.0 0.00535 138.24617 195.61456
206.0 0.00485 138.21443 210.43556
236.0 0.00424 138.18263 232.11934
269.0 0.00372 138.15079 263.53397
321.0 0.003115 138.11885 307.67990
345.0 0.002899 138.08687 366.86972
470.0 0.002128 138.05481 441.51630
570.0 0.001754 138.02269 528.40106
640.0 0.001563 137.99046 618.01965
717.0 0.001395 137.95819 691.81848
699.0 0.001431 137.92583 725.24005
745.0 0.001342 137.89340 703.74524
662.0 0.001511 137.86087 636.92462
576.0 0.001736 137.82826 548.85034
453.0 0.002208 137.79556 460.14691
374.0 0.002674 137.76277 382.19016
326.0 0.003067 137.72989 319.35440
281.0 0.00356 137.69691 271.87448
243.0 0.00412 137.66386 237.74872
185.0 0.00541 137.63069 214.04665
183.0 0.00546 137.59743 197.81830
162.0 0.00617 137.56407 186.61166
172.0 0.00581 137.53062 178.64259
171.0 0.00585 137.49707 172.73560
167.0 0.00599 137.46339 168.06822
155.0 0.00645 137.42964 164.41287
191.0 0.00524 137.39577 161.41133
164.0 0.00610 137.36180 158.90402
140.0 0.00714 137.32771 156.78464
145.0 0.00690 137.29353 154.97748
174.0 0.00575 137.25925 153.42618
157.0 0.00637 137.22484 152.08723
132.0 0.00758 137.19032 150.92659
180.0 0.00556 137.15572 149.91727
163.0 0.00613 137.12100 149.03783
148.0 0.00676 137.08618 148.27130
132.0 0.00758 137.05124 147.72807
135.0 0.00741 137.01622 147.15442
151.0 0.00662 136.98106 146.66481
117.0 0.00855 136.94583 146.25735
144.0 0.00694 136.91046 145.93568
147.0 0.00680 136.87500 145.71092
134.0 0.00746 136.83943 145.60271
156.0 0.00641 136.80379 145.63976
150.0 0.00667 136.76801 145.81363
136.0 0.00735 136.73215 146.24272
161.0 0.00621 136.69620 146.90190
155.0 0.00645 136.66013 147.77870
151.0 0.00662 136.62399 148.80443
156.0 0.00641 136.58772 149.81789
144.0 0.00694 136.55138 150.54892
152.0 0.00658 136.51495 150.72084
144.0 0.00694 136.47842 150.27589
132.0 0.00758 136.44182 149.43867
147.0 0.00680 136.40512 148.51598
157.0 0.00637 136.36836 147.72887
156.0 0.00641 136.33150 147.19714
160.0 0.00625 136.29456 146.97986
164.0 0.00610 136.25755 147.11252
135.0 0.00741 136.22047 147.63989
164.0 0.00610 136.18333 148.64885
158.0 0.00633 136.14610 150.28610
152.0 0.00658 136.10884 152.84406
166.0 0.00602 136.07150 156.67140
171.0 0.00585 136.03412 162.19926
185.0 0.00541 135.99664 169.83739
161.0 0.00621 135.95917 179.83211
172.0 0.00581 135.92162 192.06619
211.0 0.00474 135.88403 205.76514
207.0 0.00483 135.84639 219.06822
217.0 0.00461 135.80873 228.79016
208.0 0.00481 135.77106 231.52138
203.0 0.00493 135.73334 226.30771
225.0 0.00444 135.69559 215.67822
201.0 0.00498 135.65782 203.39482
203.0 0.00493 135.62006 192.29170
176.0 0.00568 135.58228 185.13986
159.0 0.00629 135.54448 180.20369
179.0 0.00559 135.50670 178.72304
173.0 0.00578 135.46892 180.29446
194.0 0.00515 135.43115 184.07332
175.0 0.00571 135.39336 188.66684
177.0 0.00565 135.35564 192.06595
193.0 0.00518 135.31792 192.21535
199.0 0.00503 135.28024 188.38628
217.0 0.00461 135.24257 181.71761
182.0 0.00549 135.20497 174.04086
171.0 0.00585 135.16742 166.71777
142.0 0.00704 135.12991 160.43872
146.0 0.00685 135.09247 155.43201
144.0 0.00694 135.05505 151.65706
155.0 0.00645 135.01775 148.93188
136.0 0.00735 134.98050 147.02214
135.0 0.00741 134.94334 144.79597
147.0 0.00680 134.90625 143.90456
147.0 0.00680 134.86929 143.28784
156.0 0.00641 134.83241 142.85994
147.0 0.00680 134.79564 142.56914
146.0 0.00685 134.75897 142.38629
137.0 0.00730 134.72243 142.29614
129.0 0.00775 134.68604 142.29216
130.0 0.00769 134.64975 142.37299
137.0 0.00730 134.61362 142.54106
119.0 0.00840 134.57762 142.80167
148.0 0.00676 134.54179 143.16298
135.0 0.00741 134.50612 143.63759
137.0 0.00730 134.47060 144.24683
144.0 0.00694 134.43527 145.03481
160.0 0.00625 134.40012 146.09395
152.0 0.00658 134.36516 147.58975
164.0 0.00610 134.33038 149.76794
157.0 0.00637 134.29582 152.94592
151.0 0.00662 134.26149 157.48293
185.0 0.00541 134.22736 163.71500
182.0 0.00549 134.19344 171.84810
164.0 0.00610 134.15977 181.80563
198.0 0.00505 134.12634 193.00362
194.0 0.00515 134.09317 204.01707
226.0 0.00442 134.06024 212.35020
195.0 0.00513 134.02757 215.16103
207.0 0.00483 133.99519 211.32149
197.0 0.00508 133.96310 202.51254
208.0 0.00481 133.93127 191.64676
208.0 0.00481 133.89977 181.00053
200.0 0.00500 133.86855 171.78671
199.0 0.00503 133.83765 164.45659
177.0 0.00565 133.80705 159.01277
148.0 0.00676 133.77679 155.21486
152.0 0.00658 133.74689 152.72218
163.0 0.00613 133.71730 151.19395
162.0 0.00617 133.68810 150.34663
165.0 0.00606 133.65921 149.97394
146.0 0.00685 133.63072 149.94183
151.0 0.00662 133.60260 150.17155
156.0 0.00641 133.57487 150.61089
174.0 0.00575 133.54752 151.26680
143.0 0.00699 133.52058 152.12701
155.0 0.00645 133.49405 153.20222
156.0 0.00641 133.46794 154.51277
141.0 0.00709 133.44223 156.08867
147.0 0.00680 133.41698 157.97092
144.0 0.00694 133.39217 160.21463
170.0 0.00588 133.36780 162.89407
170.0 0.00588 133.34389 166.11276
170.0 0.00588 133.32043 170.02194
186.0 0.00538 133.29747 174.85640
203.0 0.00493 133.27499 180.99785
201.0 0.00498 133.25299 189.12251
196.0 0.00510 133.23149 200.17210
209.0 0.00478 133.21049 215.78204
256.0 0.00391 133.19003 238.23273
266.0 0.00376 133.17006 270.46460
300.0 0.003333 133.15063 315.77234
367.0 0.002725 133.13174 377.13525
471.0 0.002123 133.11340 456.02557
526.0 0.001901 133.09561 551.51685
658.0 0.001520 133.07837 657.22864
731.0 0.001368 133.06172 758.76532
772.0 0.001295 133.04564 831.96844
806.0 0.001241 133.03012 851.04614
749.0 0.001335 133.01521 807.90228
698.0 0.001433 133.00092 719.95770
575.0 0.001739 132.98721 614.29156
475.0 0.002105 132.97411 511.37430
437.0 0.002288 132.96164 421.94705
360.0 0.002778 132.94980 349.91418
265.0 0.00377 132.93860 295.07565
270.0 0.00370 132.92802 255.29945
204.0 0.00490 132.91812 227.25067
211.0 0.00474 132.90886 207.73923
166.0 0.00602 132.90028 194.06857
189.0 0.00529 132.89235 184.23964
162.0 0.00617 132.88510 176.90285
181.0 0.00552 132.87856 171.20615
188.0 0.00532 132.87268 166.63092
161.0 0.00621 132.86751 162.86221
139.0 0.00719 132.86304 159.70216
148.0 0.00676 132.85928 157.01904
153.0 0.00654 132.85625 154.71950
165.0 0.00606 132.85391 152.73375
138.0 0.00725 132.85233 151.00787
134.0 0.00746 132.85147 149.49925
151.0 0.00662 132.85135 148.17361
151.0 0.00662 132.85197 148.02806
158.0 0.00633 132.85335 147.01544
154.0 0.00649 132.85548 146.11766
132.0 0.00758 132.85838 145.31926
147.0 0.00680 132.86206 144.60745
147.0 0.00680 132.86649 143.97137
141.0 0.00709 132.87170 143.40198
152.0 0.00658 132.87770 142.89098
148.0 0.00676 132.88448 142.43311
164.0 0.00610 132.89204 142.02216
132.0 0.00758 132.90042 141.65337
146.0 0.00685 132.90961 141.32263
136.0 0.00735 132.91957 141.02657
151.0 0.00662 132.93034 140.76205
152.0 0.00658 132.94196 140.52658
130.0 0.00769 132.95438 140.31796
163.0 0.00613 132.96761 140.13429
127.0 0.00787 132.98166 139.97398
135.0 0.00741 132.99655 139.83575
136.0 0.00735 133.01227 139.59567
134.0 0.00746 133.02882 139.50145
150.0 0.00667 133.04620 139.42662
136.0 0.00735 133.06442 139.37080
122.0 0.00820 133.08351 139.33380
147.0 0.00680 133.10342 139.31560
140.0 0.00714 133.12418 139.31654
136.0 0.00735 133.14578 139.33714
156.0 0.00641 133.16824 139.37827
144.0 0.00694 133.19156 139.44121
143.0 0.00699 133.21571 139.52766
135.0 0.00741 133.24075 139.64008
168.0 0.00595 133.26663 139.93507
137.0 0.00730 133.29338 140.11446
109.0 0.00917 133.32097 140.33517
141.0 0.00709 133.34944 140.60869
139.0 0.00719 133.37877 140.95355
133.0 0.00752 133.40895 141.39986
143.0 0.00699 133.43999 141.99443
136.0 0.00735 133.47189 142.80574
139.0 0.00719 133.50468 143.92526
149.0 0.00671 133.53830 145.46127
154.0 0.00649 133.57280 147.52234
153.0 0.00654 133.60815 150.18858
171.0 0.00585 133.64438 154.31519
157.0 0.00637 133.68146 158.11726
172.0 0.00581 133.71939 162.08638
152.0 0.00658 133.75818 165.57385
177.0 0.00565 133.79782 167.67935
199.0 0.00503 133.83833 167.73230
164.0 0.00610 133.87967 165.87001
171.0 0.00585 133.92188 162.91112
135.0 0.00741 133.96492 159.71899
151.0 0.00662 134.00883 156.85208
153.0 0.00654 134.05356 154.57947
146.0 0.00685 134.09912 152.98718
168.0 0.00595 134.14555 152.05876
151.0 0.00662 134.19279 151.72981
159.0 0.00629 134.24089 151.92828
154.0 0.00649 134.28978 152.60187
149.0 0.00671 134.33952 152.53110
148.0 0.00676 134.39006 154.15718
156.0 0.00641 134.44144 156.28247
168.0 0.00595 134.49359 158.93680
154.0 0.00649 134.54657 162.12062
161.0 0.00621 134.60036 165.76822
163.0 0.00613 134.65494 169.69684
158.0 0.00633 134.71031 173.57280
179.0 0.00559 134.76646 177.01765
207.0 0.00483 134.82341 179.93217
179.0 0.00559 134.88112 182.73674
165.0 0.00606 134.93958 186.22629
193.0 0.00518 134.99884 191.34029
194.0 0.00515 135.05882 199.16527
193.0 0.00518 135.11960 211.08374
239.0 0.00418 135.18106 228.89334
273.0 0.00366 135.24332 254.78830
297.0 0.003367 135.30627 291.12738
348.0 0.002874 135.36998 339.94650
423.0 0.002364 135.43436 402.21179
503.0 0.001988 135.49947 476.76990
543.0 0.001842 135.56529 558.77130
652.0 0.001534 135.63177 637.43365
681.0 0.001468 135.69897 694.96051
689.0 0.001451 135.76683 712.21704
694.0 0.001441 135.83539 682.32428
645.0 0.001550 135.90457 617.02026
519.0 0.001927 135.97441 536.23407
471.0 0.002123 136.04488 455.90182
398.0 0.002513 136.11600 384.85602
333.0 0.003003 136.18774 326.65558
323.0 0.003096 136.26009 281.67642
243.0 0.00412 136.33305 248.50545
249.0 0.00402 136.40660 224.89742
210.0 0.00476 136.48074 208.46085
190.0 0.00526 136.55544 197.08968
201.0 0.00498 136.63071 189.15506
184.0 0.00543 136.70654 183.51602
186.0 0.00538 136.78291 179.43279
185.0 0.00541 136.85982 176.45270
177.0 0.00565 136.93723 174.31075
199.0 0.00503 137.01518 172.86093
178.0 0.00562 137.09360 172.03716
143.0 0.00699 137.17253 171.83815
172.0 0.00581 137.25192 172.32808
181.0 0.00552 137.33177 173.64586
167.0 0.00599 137.41209 176.82178
172.0 0.00581 137.49284 180.61166
201.0 0.00498 137.57404 186.05705
190.0 0.00526 137.65562 193.54993
207.0 0.00483 137.73766 203.32790
206.0 0.00485 137.82004 215.39296
214.0 0.00467 137.90282 229.32542
243.0 0.00412 137.98595 244.00797
288.0 0.003472 138.06944 257.52762
283.0 0.00353 138.15331 267.11649
308.0 0.003247 138.23744 271.72006
262.0 0.00382 138.32195 273.12579
311.0 0.003215 138.40672 275.36349
301.0 0.003322 138.49181 282.72806
339.0 0.002950 138.57713 298.72546
368.0 0.002717 138.66273 325.85193
364.0 0.002747 138.74861 365.38544
428.0 0.002336 138.83470 416.88132
492.0 0.002033 138.92102 477.25363
530.0 0.001887 139.00752 539.27783
525.0 0.001905 139.09425 590.23584
534.0 0.001873 139.18114 614.21216
542.0 0.001845 139.26820 601.32642
497.0 0.002012 139.35539 556.12189
477.0 0.002096 139.44273 493.27200
428.0 0.002336 139.53021 426.93823
393.0 0.002545 139.61777 366.06131
297.0 0.003367 139.70546 314.69693
288.0 0.003472 139.79320 273.93317
277.0 0.00361 139.88103 243.10704
229.0 0.00437 139.96886 220.64334
208.0 0.00481 140.05679 204.65764
199.0 0.00503 140.14470 193.44304
213.0 0.00469 140.23260 185.39165
216.0 0.00463 140.32054 179.50497
183.0 0.00546 140.40842 175.05589
184.0 0.00543 140.49631 171.57912
173.0 0.00578 140.58409 168.78557
166.0 0.00602 140.67184 166.49583
172.0 0.00581 140.75949 164.59456
163.0 0.00613 140.84705 163.00395
166.0 0.00602 140.93452 161.66830
179.0 0.00559 141.02185 160.54594
163.0 0.00613 141.10904 159.60469
160.0 0.00625 141.19606 158.81914
180.0 0.00556 141.28296 158.14571
162.0 0.00617 141.36963 157.61604
183.0 0.00546 141.45613 157.19337
151.0 0.00662 141.54239 156.86761
155.0 0.00645 141.62842 156.63107
168.0 0.00595 141.71425 156.47801
161.0 0.00621 141.79977 156.40422
134.0 0.00746 141.88509 156.40726
158.0 0.00633 141.97006 156.48593
155.0 0.00645 142.05479 156.64050
165.0 0.00606 142.13914 157.97137
165.0 0.00606 142.22324 158.31120
156.0 0.00641 142.30695 158.73755
150.0 0.00667 142.39030 159.25705
195.0 0.00513 142.47331 159.87825
150.0 0.00667 142.55592 160.61234
164.0 0.00610 142.63817 160.45549
144.0 0.00694 142.71997 161.48483
180.0 0.00556 142.80138 162.69467
181.0 0.00552 142.88232 164.08372
177.0 0.00565 142.96283 165.70222
179.0 0.00559 143.04291 167.59718
166.0 0.00602 143.12245 169.83241
187.0 0.00535 143.20157 172.49959
174.0 0.00575 143.28015 175.73715
163.0 0.00613 143.35825 179.76352
166.0 0.00602 143.43578 184.92821
197.0 0.00508 143.51282 191.78261
191.0 0.00524 143.58928 201.16034
214.0 0.00467 143.66518 214.24030
216.0 0.00463 143.74052 232.54834
247.0 0.00405 143.81528 257.84229
276.0 0.00362 143.88945 291.84073
320.0 0.003125 143.96300 335.78183
385.0 0.002597 144.03595 389.80930
429.0 0.002331 144.10825 452.09784
477.0 0.002096 144.17993 517.52051
553.0 0.001808 144.25095 576.10956
551.0 0.001815 144.32129 613.66003
563.0 0.001776 144.39099 618.35260
572.0 0.001748 144.46001 590.15448
517.0 0.001934 144.52835 541.01740
501.0 0.001996 144.59595 485.47913
397.0 0.002519 144.66289 433.62241
384.0 0.002604 144.72906 390.08661
334.0 0.002994 144.79454 355.36301
313.0 0.003195 144.85928 327.21603
252.0 0.00397 144.92328 302.44379
260.0 0.00385 144.98653 279.56451
245.0 0.00408 145.04901 258.43381
230.0 0.00435 145.11073 239.75592
226.0 0.00442 145.17168 223.96191
201.0 0.00498 145.23186 211.06972
202.0 0.00495 145.29123 200.86870
189.0 0.00529 145.34981 192.98888
194.0 0.00515 145.40759 187.06461
195.0 0.00513 145.46455 182.72012
174.0 0.00575 145.52072 179.62598
166.0 0.00602 145.57607 177.52901
178.0 0.00562 145.63058 175.41574
179.0 0.00559 145.68427 174.94154
183.0 0.00546 145.73714 175.24516
167.0 0.00599 145.78914 176.39626
150.0 0.00667 145.84029 178.48936
170.0 0.00588 145.89063 181.59993
191.0 0.00524 145.94009 185.72963
178.0 0.00562 145.98872 190.73337
205.0 0.00488 146.03647 196.21390
203.0 0.00493 146.08339 201.38948
223.0 0.00448 146.12943 205.09724
198.0 0.00505 146.17459 206.25548
191.0 0.00524 146.21889 204.66348
180.0 0.00556 146.26233 201.19286
198.0 0.00505 146.30492 197.09299
197.0 0.00508 146.34660 193.33913
203.0 0.00493 146.38742 190.49886
189.0 0.00529 146.42737 188.85982
214.0 0.00467 146.46646 188.52216
189.0 0.00529 146.50467 189.55313
206.0 0.00485 146.54198 192.03737
210.0 0.00476 146.57846 196.25282
189.0 0.00529 146.61404 202.47154
240.0 0.00417 146.64877 211.50883
227.0 0.00441 146.68262 224.51242
245.0 0.00408 146.71562 243.06508
274.0 0.00365 146.74774 269.10236
286.0 0.003497 146.77902 304.66748
339.0 0.002950 146.80942 351.47797
368.0 0.002717 146.83897 410.30142
446.0 0.002242 146.86768 480.09735
508.0 0.001969 146.89554 556.73889
597.0 0.001675 146.92255 631.20221
663.0 0.001508 146.94872 688.50763
679.0 0.001473 146.97406 711.56348
654.0 0.001529 146.99857 691.83081
669.0 0.001495 147.02225 636.60052
558.0 0.001792 147.04510 562.70508
482.0 0.002075 147.06717 485.56195
386.0 0.002591 147.08842 414.69580
394.0 0.002538 147.10887 354.58859
294.0 0.003401 147.12852 306.45374
270.0 0.00370 147.14738 269.64819
266.0 0.00376 147.16548 242.49838
236.0 0.00424 147.18280 222.95337
221.0 0.00452 147.19934 209.03122
196.0 0.00510 147.21515 199.07562
185.0 0.00541 147.23021 191.84486
190.0 0.00526 147.24454 186.48744
198.0 0.00505 147.25810 182.46037
195.0 0.00513 147.27098 179.43590
196.0 0.00510 147.28313 177.21957
185.0 0.00541 147.29460 175.71248
169.0 0.00592 147.30534 174.76164
188.0 0.00532 147.31543 174.27419
196.0 0.00510 147.32486 174.07547
167.0 0.00599 147.33362 174.03258
180.0 0.00556 147.34172 173.53233
175.0 0.00571 147.34918 172.42848
168.0 0.00595 147.35603 170.70164
164.0 0.00610 147.36227 168.58931
167.0 0.00599 147.36789 166.39006
150.0 0.00667 147.37294 164.31844
170.0 0.00588 147.37741 161.62726
149.0 0.00671 147.38130 160.09242
146.0 0.00685 147.38464 158.83023
169.0 0.00592 147.38745 157.81197
168.0 0.00595 147.38974 156.99759
172.0 0.00581 147.39151 156.34566
164.0 0.00610 147.39276 155.81949
161.0 0.00621 147.39355 155.39040
167.0 0.00599 147.39386 154.90543
169.0 0.00592 147.39372 154.62097
159.0 0.00629 147.39313 154.39555
144.0 0.00694 147.39211 154.22937
172.0 0.00581 147.39067 154.12761
140.0 0.00714 147.38882 154.09956
146.0 0.00685 147.38660 154.15724
164.0 0.00610 147.38400 154.31383
154.0 0.00649 147.38104 154.58102
135.0 0.00741 147.37775 154.96585
171.0 0.00585 147.37411 155.46613
159.0 0.00629 147.37018 156.06213
157.0 0.00637 147.36594 156.70793
140.0 0.00714 147.36142 157.33665
162.0 0.00617 147.35663 157.90497
148.0 0.00676 147.35158 158.44760
166.0 0.00602 147.34630 159.06590
175.0 0.00571 147.34081 159.85059
184.0 0.00543 147.33510 160.81387
171.0 0.00585 147.32919 161.85182
187.0 0.00535 147.32312 162.72699
173.0 0.00578 147.31689 163.11748
159.0 0.00629 147.31050 162.79283
154.0 0.00649 147.30399 161.72144
151.0 0.00662 147.29736 160.32811
173.0 0.00578 147.29063 158.83960
151.0 0.00662 147.28381 157.46455
161.0 0.00621 147.27692 156.37160
152.0 0.00658 147.26997 155.48192
140.0 0.00714 147.26300 154.85532
157.0 0.00637 147.25600 154.47075
137.0 0.00730 147.24896 154.29865
158.0 0.00633 147.24194 154.31195
153.0 0.00654 147.23494 154.49593
162.0 0.00617 147.22797 154.85715
177.0 0.00565 147.22104 155.42880
169.0 0.00592 147.21417 156.27396
169.0 0.00592 147.20737 157.48686
151.0 0.00662 147.20067 159.19264
159.0 0.00629 147.19403 161.54193
162.0 0.00617 147.18753 164.69379
146.0 0.00685 147.18115 168.78177
171.0 0.00585 147.17491 173.85919
168.0 0.00595 147.16881 179.83356
166.0 0.00602 147.16287 186.42191
190.0 0.00526 147.15712 193.14508
198.0 0.00505 147.15154 198.17477
195.0 0.00513 147.14613 202.64189
184.0 0.00543 147.14096 204.13559
189.0 0.00529 147.13600 201.97911
194.0 0.00515 147.13126 196.75194
183.0 0.00546 147.12674 189.87486
187.0 0.00535 147.12250 182.70950
162.0 0.00617 147.11850 176.12820
174.0 0.00575 147.11476 170.60930
156.0 0.00641 147.11127 166.18263
148.0 0.00676 147.10808 162.86752
176.0 0.00568 147.10518 160.54306
182.0 0.00549 147.10257 159.05667
145.0 0.00690 147.10025 158.26248
139.0 0.00719 147.09825 158.04234
165.0 0.00606 147.09657 158.30978
182.0 0.00549 147.09520 159.00137
162.0 0.00617 147.09413 160.05948
167.0 0.00599 147.09341 161.40817
152.0 0.00658 147.09302 162.92220
163.0 0.00613 147.09297 164.39949
145.0 0.00690 147.09325 165.58685
157.0 0.00637 147.09386 166.31699
165.0 0.00606 147.09480 166.67764
148.0 0.00676 147.09612 167.00858
162.0 0.00617 147.09775 167.74162
172.0 0.00581 147.09973 169.28076
157.0 0.00637 147.10205 171.98109
200.0 0.00500 147.10474 176.15614
184.0 0.00543 147.10774 182.05937
172.0 0.00581 147.11108 189.82109
188.0 0.00532 147.11476 199.34476
236.0 0.00424 147.11877 210.20578
224.0 0.00446 147.12312 221.65758
241.0 0.00415 147.12776 232.73097
271.0 0.00369 147.13275 242.14659
263.0 0.00380 147.13803 248.05927
247.0 0.00405 147.14363 248.47917
264.0 0.00379 147.14951 242.68781
264.0 0.00379 147.15569 232.07997
227.0 0.00441 147.16216 219.14703
246.0 0.00407 147.16888 206.09637
223.0 0.00448 147.17586 194.26938
185.0 0.00541 147.18311 184.25180
197.0 0.00508 147.19058 176.19693
177.0 0.00565 147.19829 169.97949
181.0 0.00552 147.20619 165.33199
162.0 0.00617 147.21432 161.93422
188.0 0.00532 147.22263 159.47520
174.0 0.00575 147.23111 157.69011
165.0 0.00606 147.23973 156.44495
170.0 0.00588 147.24852 155.45375
151.0 0.00662 147.25742 154.68697
163.0 0.00613 147.26640 154.08078
149.0 0.00671 147.27548 153.59439
137.0 0.00730 147.28464 153.20204
167.0 0.00599 147.29384 152.88660
136.0 0.00735 147.30305 152.63684
168.0 0.00595 147.31227 152.44499
167.0 0.00599 147.32149 152.30597
128.0 0.00781 147.33066 152.21690
166.0 0.00602 147.33977 152.17665
137.0 0.00730 147.34879 152.18642
162.0 0.00617 147.35768 152.25012
159.0 0.00629 147.36646 152.37582
173.0 0.00578 147.37506 152.57755
171.0 0.00585 147.38345 152.87402
153.0 0.00654 147.39163 153.31279
151.0 0.00662 147.39958 153.94518
171.0 0.00585 147.40724 154.85101
162.0 0.00617 147.41458 156.13379
167.0 0.00599 147.42159 157.91512
139.0 0.00719 147.42824 160.32024
166.0 0.00602 147.43448 163.43671
174.0 0.00575 147.44031 167.34383
188.0 0.00532 147.44563 171.96719
176.0 0.00568 147.45047 177.07333
159.0 0.00629 147.45479 182.15100
181.0 0.00552 147.45853 186.33344
185.0 0.00541 147.46164 188.54802
187.0 0.00535 147.46414 188.06931
176.0 0.00568 147.46597 185.07239
184.0 0.00543 147.46707 180.48787
163.0 0.00613 147.46741 175.35927
176.0 0.00568 147.46698 170.42720
169.0 0.00592 147.46571 166.09244
199.0 0.00503 147.46358 162.51796
162.0 0.00617 147.46053 159.71970
147.0 0.00680 147.45654 157.62897
167.0 0.00599 147.45157 156.13519
167.0 0.00599 147.44557 155.11832
136.0 0.00735 147.43849 154.47150
148.0 0.00676 147.43031 154.11473
153.0 0.00654 147.42099 154.00070
162.0 0.00617 147.41046 154.11681
160.0 0.00625 147.39870 154.48444
158.0 0.00633 147.38567 155.74060
165.0 0.00606 147.37131 156.80997
162.0 0.00617 147.35559 158.36099
162.0 0.00617 147.33844 160.49037
163.0 0.00613 147.31987 163.19495
153.0 0.00654 147.29979 166.64240
154.0 0.00649 147.27820 170.66895
152.0 0.00658 147.25500 175.01920
171.0 0.00585 147.23019 179.18063
170.0 0.00588 147.20372 182.34773
152.0 0.00658 147.17552 183.63383
192.0 0.00521 147.14558 182.59030
157.0 0.00637 147.11385 179.55988
164.0 0.00610 147.08028 175.40099
181.0 0.00552 147.04482 170.95102
179.0 0.00559 147.00742 166.87297
180.0 0.00556 146.96809 163.23662
174.0 0.00575 146.92673 160.25273
157.0 0.00637 146.88333 157.91505
166.0 0.00602 146.83781 156.15393
149.0 0.00671 146.79021 154.86981
148.0 0.00676 146.74040 153.95747
161.0 0.00621 146.68840 153.32291
147.0 0.00680 146.63414 152.89084
140.0 0.00714 146.57758 152.59248
172.0 0.00581 146.51872 152.42247
152.0 0.00658 146.45746 152.34674
129.0 0.00775 146.39384 152.35954
137.0 0.00730 146.32774 152.46684
147.0 0.00680 146.25922 152.68631
149.0 0.00671 146.18816 153.04774
168.0 0.00595 146.11459 153.59314
136.0 0.00735 146.03844 154.37541
156.0 0.00641 145.95967 155.45364
163.0 0.00613 145.87831 156.88512
160.0 0.00625 145.79427 158.68735
168.0 0.00595 145.70755 160.92484
153.0 0.00654 145.61809 163.52728
148.0 0.00676 145.52594 166.35730
156.0 0.00641 145.43100 169.01129
175.0 0.00571 145.33330 171.38751
175.0 0.00571 145.23280 173.03893
165.0 0.00606 145.12946 173.94977
169.0 0.00592 145.02330 174.41472
163.0 0.00613 144.91426 174.82512
169.0 0.00592 144.80238 175.52197
181.0 0.00552 144.68759 176.80472
180.0 0.00556 144.56996 178.92419
180.0 0.00556 144.44940 181.98145
196.0 0.00510 144.32593 185.80673
201.0 0.00498 144.19957 192.68449
193.0 0.00518 144.07027 196.05591
207.0 0.00483 143.93806 197.51631
209.0 0.00478 143.80293 196.27730
194.0 0.00515 143.66493 192.49921
180.0 0.00556 143.52399 187.12871
161.0 0.00621 143.38017 181.23911
181.0 0.00552 143.23351 175.60011
170.0 0.00588 143.08391 170.63162
165.0 0.00606 142.93150 166.50546
164.0 0.00610 142.77621 163.23911
142.0 0.00704 142.61816 160.75935
160.0 0.00625 142.45728 158.94597
171.0 0.00585 142.29366 157.66455
137.0 0.00730 142.12726 156.78889
161.0 0.00621 141.95822 156.21422
166.0 0.00602 141.78651 155.86116
164.0 0.00610 141.61211 155.67424
169.0 0.00592 141.43518 155.61766
155.0 0.00645 141.25562 155.66980
166.0 0.00602 141.07365 155.81926
158.0 0.00633 140.88916 156.06119
168.0 0.00595 140.70233 156.39584
178.0 0.00562 140.51317 156.82684
161.0 0.00621 140.32166 157.36093
153.0 0.00654 140.12799 158.00832
172.0 0.00581 139.93211 158.78229
166.0 0.00602 139.73421 159.70055
167.0 0.00599 139.53424 160.78587
169.0 0.00592 139.33240 162.06837
166.0 0.00602 139.12865 164.78596
175.0 0.00571 138.92319 166.56522
162.0 0.00617 138.71605 168.78745
174.0 0.00575 138.50726 171.51797
181.0 0.00552 138.29704 174.95551
166.0 0.00602 138.08533 179.39398
189.0 0.00529 137.87242 185.27565
193.0 0.00518 137.65825 193.21704
195.0 0.00513 137.44307 204.02704
219.0 0.00457 137.22682 218.67920
217.0 0.00461 137.00983 238.22322
237.0 0.00422 136.79210 263.61960
308.0 0.003247 136.57368 295.49976
289.0 0.003460 136.35484 333.84229
371.0 0.002695 136.13559 377.51639
417.0 0.002398 135.91621 423.59964
479.0 0.002088 135.69669 466.54932
519.0 0.001927 135.47728 498.12100
506.0 0.001976 135.25812 509.87659
510.0 0.001961 135.03923 498.25150
501.0 0.001996 134.82094 467.33893
469.0 0.002132 134.60321 425.80215
455.0 0.002198 134.38643 381.87915
371.0 0.002695 134.17058 341.08850
317.0 0.003155 133.95595 306.39203
283.0 0.00353 133.74258 279.03546
252.0 0.00397 133.53081 259.17551
258.0 0.00388 133.32072 246.28725
233.0 0.00429 133.11243 239.37459
244.0 0.00410 132.90625 237.34499
231.0 0.00433 132.70224 238.73056
225.0 0.00444 132.50073 241.84242
247.0 0.00405 132.30179 244.67583
255.0 0.00392 132.10570 245.23038
242.0 0.00413 131.91257 242.34315
257.0 0.00389 131.72272 236.27711
249.0 0.00402 131.53627 228.38951
212.0 0.00472 131.35336 220.15277
241.0 0.00415 131.17436 212.61261
206.0 0.00485 130.99931 206.34485
211.0 0.00474 130.82858 201.59409
217.0 0.00461 130.66222 198.40024
210.0 0.00476 130.50060 196.68507
199.0 0.00503 130.34384 196.31290
221.0 0.00452 130.19212 197.13680
201.0 0.00498 130.04576 199.03241
197.0 0.00508 129.90485 201.91867
209.0 0.00478 129.76974 205.76917
188.0 0.00532 129.64053 210.61729
223.0 0.00448 129.51755 216.56300
228.0 0.00439 129.40086 223.78627
241.0 0.00415 129.29085 232.57732
235.0 0.00426 129.18762 243.39059
234.0 0.00427 129.09137 256.93304
276.0 0.00362 129.00237 274.29126
275.0 0.00364 128.92078 297.09052
317.0 0.003155 128.84686 327.65988
316.0 0.003165 128.78075 369.14703
405.0 0.002469 128.72267 425.50034
426.0 0.002347 128.67282 501.20035
558.0 0.001792 128.63139 600.82385
631.0 0.001585 128.59856 728.02734
831.0 0.001203 128.57449 884.46338
1031.0 0.000970 128.55940 1068.15955
1182.0 0.000846 128.55342 1271.18567
1447.0 0.000691 128.55672 1476.25720
1615.0 0.000619 128.56946 1653.72534
1715.0 0.000583 128.59177 1764.66809
1795.0 0.000557 128.62383 1777.11487
1717.0 0.000582 128.66573 1687.15637
1608.0 0.000622 128.71758 1522.18115
1438.0 0.000695 128.77954 1321.61755
1184.0 0.000845 128.85165 1117.75073
1003.0 0.000997 128.93410 930.42542
813.0 0.001230 129.02681 769.33527
662.0 0.001511 129.12997 637.55585
568.0 0.001761 129.24358 534.10437
505.0 0.001980 129.36766 455.66885
420.0 0.002381 129.50229 397.87433
365.0 0.002740 129.64738 356.21631
334.0 0.002994 129.80305 328.59985
333.0 0.003003 129.96913 308.00845
308.0 0.003247 130.14568 293.99741
290.0 0.003448 130.33252 285.06421
301.0 0.003322 130.52969 280.42032
309.0 0.003236 130.73695 279.88809
268.0 0.00373 130.95422 283.83188
276.0 0.00362 131.18143 293.11157
305.0 0.003279 131.41823 309.02527
338.0 0.002959 131.66460 333.19760
342.0 0.002924 131.92010 367.37061
372.0 0.002688 132.18466 413.07913
410.0 0.002439 132.45782 471.20291
502.0 0.001992 132.73933 541.37451
616.0 0.001623 133.02896 621.14069
692.0 0.001445 133.32607 704.71954
740.0 0.001351 133.63048 781.58905
812.0 0.001232 133.94153 836.59088
878.0 0.001139 134.25891 854.65717
848.0 0.001179 134.58188 829.65344
817.0 0.001224 134.91008 768.93707
740.0 0.001351 135.24268 687.89215
663.0 0.001508 135.57912 601.23779
509.0 0.001965 135.91881 518.89966
467.0 0.002141 136.26074 446.20404
385.0 0.002597 136.60440 385.30493
319.0 0.003135 136.94864 336.35999
324.0 0.003086 137.29282 298.32687
257.0 0.00389 137.63573 269.53171
220.0 0.00455 137.97659 248.09851
202.0 0.00495 138.31410 232.24883
238.0 0.00420 138.64723 220.47556
230.0 0.00435 138.97490 211.60573
223.0 0.00448 139.29561 204.78525
215.0 0.00465 139.60828 199.43013
202.0 0.00495 139.91124 195.13040
175.0 0.00571 140.20329 191.03543
175.0 0.00571 140.48265 188.15938
178.0 0.00562 140.74779 185.76102
182.0 0.00549 140.99713 183.72568
194.0 0.00515 141.22868 181.95009
186.0 0.00538 141.44078 180.35149
184.0 0.00543 141.63127 178.88878
174.0 0.00575 141.79828 177.56880
181.0 0.00552 141.93956 176.42444
188.0 0.00532 142.05296 177.34340
190.0 0.00526 142.13608 176.66792
174.0 0.00575 142.18654 176.21399
160.0 0.00625 142.20180 175.95697
173.0 0.00578 142.17921 175.84456
167.0 . . .
loop_
_refln_index_h
_refln_index_k
_refln_index_l
_refln_observed_status
_refln_F_squared_meas
_refln_F_squared_calc
_refln_phase_calc
_refln_d_spacing
_gsas_i100_meas
1 1 0 o 2784.323 2528.170 180.00 7.06227 7.21
0 0 1 o 5986.061 7116.427 0.00 5.06434 3.08
2 0 0 o 891.703 1208.830 0.00 4.99378 1.23
1 1 1 o 13378.254 13421.206 0.00 4.11554 22.87
2 0 1 o 1311.035 1262.372 180.00 3.55582 1.80
2 2 0 o 7936.307 7671.370 180.00 3.53114 4.37
2 1 1 o 266.739 27.884 0.00 3.34985 0.63
3 1 0 o 5805.560 5611.448 0.00 3.15835 5.91
2 2 1 o 116292.51 114992.81 180.00 2.89655 100.00
3 1 1 o 544.227 405.170 180.00 2.67990 0.89
0 0 2 o 50074.14 53717.10 0.00 2.53217 8.15
4 0 0 o 65890.27 68636.29 0.00 2.49689 21.30
3 2 1 o 4855.073 4574.342 0.00 2.43026 6.48
1 1 2 o 197.741 112.670 180.00 2.38359 0.14
3 3 0 o 10588.672 8856.522 180.00 2.35409 3.08
2 0 2 o 138.206 252.263 0.00 2.25842 0.10
4 0 1 o 142.275 207.223 0.00 2.23949 0.00
4 2 0 o 439.826 585.723 0.00 2.23329 0.26
2 1 2 o 617.160 654.549 0.00 2.20281 0.70
4 1 1 o 2607.134 2526.816 0.00 2.18523 2.90
3 3 1 o 24.098 29.394 180.00 2.13473 0.00
2 2 2 o 89.338 112.191 180.00 2.05777 0.00
4 2 1 o -28.556 130.580 180.00 2.04342 0.00
3 1 2 o 8811.990 8604.651 0.00 1.97562 8.02
5 1 0 o 985.598 832.693 180.00 1.95872 0.53
3 2 2 o 719.822 403.767 0.00 1.86897 0.62
4 3 1 o 311.491 234.563 180.00 1.85819 0.27
5 1 1 o 9224.799 9361.246 0.00 1.82684 7.15
4 0 2 o 73865.66 77499.05 0.00 1.77791 28.01
4 4 0 o 71969.48 73347.13 0.00 1.76557 13.57
4 1 2 o 35.447 51.637 180.00 1.75039 0.03
5 2 1 o 30.165 46.994 180.00 1.74153 0.02
3 3 2 o 14527.885 13715.769 180.00 1.72412 5.30
5 3 0 o 2017.229 1481.614 0.00 1.71285 0.78
0 0 3 o 910.648 585.456 0.00 1.68811 0.06
4 2 2 o 1243.262 1086.612 0.00 1.67493 0.94
4 4 1 o 1415.426 1451.590 0.00 1.66716 0.37
6 0 0 o 14.749 18.236 0.00 1.66459 0.01
1 1 3 o 2126.760 1912.477 0.00 1.64186 0.72
5 3 1 o 4913.630 5030.985 180.00 1.62256 3.39
2 0 3 o 325.744 410.828 180.00 1.59921 0.12
6 0 1 o 1203.448 1244.369 180.00 1.58136 0.40
6 2 0 o 69.121 103.938 0.00 1.57917 0.08
2 1 3 o 282.601 325.272 0.00 1.57910 0.20
4 3 2 o 3.912 52.249 0.00 1.56829 0.00
6 1 1 o 57.338 121.007 180.00 1.56191 0.04
5 1 2 o 734.892 804.704 0.00 1.54930 0.43
2 2 3 o 59435.89 57085.70 180.00 1.52302 18.70
6 2 1 o 49419.35 47404.59 180.00 1.50758 30.88
5 2 2 o 497.134 433.026 0.00 1.49624 0.33
5 4 1 o 58.735 49.979 180.00 1.49069 0.04
3 1 3 o 1644.579 1607.465 180.00 1.48879 1.11
4 4 2 o 44019.58 43564.96 0.00 1.44828 13.23
3 2 3 o 363.492 367.505 180.00 1.44152 0.24
6 3 1 o 9.444 9.968 180.00 1.42841 0.01
5 3 2 o 165.792 180.260 0.00 1.41875 0.11
7 1 0 o 3317.194 3248.453 0.00 1.41246 0.94
5 5 0 o 7870.924 7703.007 0.00 1.41246 1.15
4 0 3 o 2233.315 1952.739 0.00 1.39849 0.55
6 0 2 o 165.701 168.294 180.00 1.39096 0.04
6 4 0 o 9.426 7.430 0.00 1.38503 0.01
4 1 3 o 799.065 707.307 180.00 1.38497 0.51
6 1 2 o 320.692 308.197 180.00 1.37766 0.20
3 3 3 o 304.809 288.333 180.00 1.37185 0.07
7 1 1 o 12.703 11.676 180.00 1.36053 0.02
5 5 1 o 14608.794 14153.612 0.00 1.36053 4.18
4 2 3 o 70.267 66.176 180.00 1.34668 0.05
6 2 2 o 1315.757 1371.553 180.00 1.33995 0.60
6 4 1 o 535.609 544.572 180.00 1.33597 0.33
5 4 2 o 3.820 4.441 0.00 1.32805 0.00
7 2 1 o 948.505 853.256 180.00 1.32417 0.59
7 3 0 o 17445.773 18005.076 180.00 1.31143 5.00
4 3 3 o 329.345 304.711 0.00 1.28935 0.20
6 3 2 o 149.678 155.129 0.00 1.28344 0.10
5 1 3 o 7588.863 7410.020 0.00 1.27874 4.35
7 3 1 o 1350.281 1267.429 180.00 1.26956 0.68
0 0 4 o 48731.83 48319.62 0.00 1.26609 3.51
8 0 0 o 21728.428 23069.604 0.00 1.24845 3.08
5 2 3 o 303.662 324.253 0.00 1.24841 0.19
1 1 4 o 1556.994 1696.170 180.00 1.24622 0.50
6 5 1 o 459.899 471.012 0.00 1.23986 0.29
5 5 2 o 8.567 8.576 0.00 1.23353 0.00
7 1 2 o 7395.148 7460.001 0.00 1.23353 4.31
2 0 4 o 271.006 240.023 0.00 1.22726 0.09
4 4 3 o 20.477 10.772 180.00 1.22014 0.03
2 1 4 o 173.602 138.115 180.00 1.21809 0.11
6 4 2 o 2.790 2.633 180.00 1.21513 0.00
8 0 1 o 254.497 275.516 0.00 1.21216 0.04
8 2 0 o 1219.116 1375.693 0.00 1.21117 0.36
7 2 2 o 104.708 123.057 180.00 1.20624 0.07
8 1 1 o 31.800 28.471 180.00 1.20333 0.02
7 4 1 o 202.987 182.174 0.00 1.20333 0.13
5 3 3 o 1485.604 1230.625 180.00 1.20233 0.88
2 2 4 o 1472.483 1390.282 180.00 1.19179 0.34
6 0 3 o 776.871 901.753 180.00 1.18527 0.24
8 2 1 o 239.324 273.823 0.00 1.17795 0.11
6 6 0 o 180.330 191.737 180.00 1.17705 0.02
6 1 3 o 47.658 52.746 180.00 1.17701 0.03
3 1 4 o 637.586 638.357 0.00 1.17518 0.36
7 3 2 o 5443.608 5274.774 180.00 1.16452 3.11
7 5 0 o 1870.988 1782.016 0.00 1.16103 0.58
6 2 3 o 23194.807 23151.172 180.00 1.15323 14.01
3 2 4 o 0.784 0.738 180.00 1.15151 0.00
6 6 1 o 19321.055 19311.979 180.00 1.14649 5.91
5 4 3 o 16.411 16.143 0.00 1.14562 0.01
6 5 2 o 25.079 24.033 0.00 1.14147 0.02
