#------------------------------------------------------------------------------
#$Date: 2021-06-21 11:37:20 +0300 (Mon, 21 Jun 2021) $
#$Revision: 266603 $
#$URL: file:///home/coder/svn-repositories/cod/cif/1/56/36/1563632.cif $
#------------------------------------------------------------------------------
#
# This file is available in the Crystallography Open Database (COD),
# http://www.crystallography.net/
#
# All data on this site have been placed in the public domain by the
# contributors.
#
data_1563632
loop_
_publ_author_name
'Zubkov, Vladimir G.'
'Tarakina, Nadezda V.'
'Leonidov, Ivan I.'
'Tyutyunnik, Alexander P.'
'Surat, Ludmila L.'
'Melkozerova, Marina A.'
'Zabolotskaya, Elena V.'
'Kellerman, Dina G.'
_publ_section_title
;
 Synthesis and crystal structure of Ln2M2+Ge4O12, Ln=rare-earth element or
 Y; M=Ca, Mn, Zn
;
_journal_issue                   5
_journal_name_full               'Journal of Solid State Chemistry'
_journal_page_first              1186
_journal_page_last               1193
_journal_paper_doi               10.1016/j.jssc.2010.03.027
_journal_volume                  183
_journal_year                    2010
_chemical_formula_sum            'Ca Ge4 Lu2 O12'
_chemical_formula_weight         872.36
_space_group_IT_number           125
_space_group_name_Hall           '-P 4a 2b'
_space_group_name_H-M_alt        'P 4/n b m :2'
_symmetry_cell_setting           tetragonal
_symmetry_space_group_name_H-M   'P 4/n b m :2'
_cell_angle_alpha                90.0
_cell_angle_beta                 90.0
_cell_angle_gamma                90.0
_cell_formula_units_Z            2
_cell_length_a                   9.91399(4)
_cell_length_b                   9.91399
_cell_length_c                   5.030150(29)
_cell_volume                     494.399(3)
_computing_structure_refinement  GSAS
_diffrn_radiation_polarisn_ratio 0.8
_diffrn_radiation_probe          x-ray
_diffrn_radiation_wavelength     1.54056
_exptl_absorpt_correction_T_max  3.82345
_exptl_absorpt_correction_T_min  1.89400
_exptl_absorpt_process_details
;   GSAS Absorption/surface roughness correction: function number 4
 Flat plate transmission absorption correction
Terms =    -0.41206         0.0000    
Correction is refined.
;
_pd_calc_method                  'Rietveld Refinement'
_pd_instr_location               ' ?'
_pd_meas_2theta_range_inc        0.02
_pd_meas_2theta_range_max        119.98
_pd_meas_2theta_range_min        5.0
_pd_meas_number_of_points        5750
_pd_proc_2theta_range_inc        0.02
_pd_proc_2theta_range_max        119.93272
_pd_proc_2theta_range_min        4.95272
_pd_proc_info_datetime           2010-02-27T13:11:37
_pd_proc_info_excluded_regions   ' ?'
_pd_proc_ls_background_function
;   GSAS Background function number 1 with 36 terms.
 Shifted Chebyshev function of 1st kind
      1:    1074.99     2:   -1305.61     3:    763.417     4:   -331.740    
      5:    70.2568     6:    35.3862     7:   -53.9775     8:    36.2668    
      9:   -7.77271    10:   -14.7825    11:    21.1540    12:   -4.14830    
     13:    3.70024    14:   -4.27530    15:    1.16114    16:   -8.22534    
     17:    15.7303    18:   -12.7461    19:   -3.83716    20:    21.6909    
     21:   -34.0977    22:    35.6040    23:   -22.5072    24:   -2.52327    
     25:    20.5184    26:   -29.3347    27:    24.4249    28:   -13.5120    
     29:   -4.24615    30:    17.4868    31:   -22.5333    32:    13.9242    
     33:   -8.60394    34:   -4.06385    35:    7.40929    36:   -6.50938    
;
_pd_proc_ls_peak_cutoff          0.00100
_pd_proc_ls_pref_orient_corr
;   March-Dollase
 AXIS  1 Ratio=   0.99719  h= 0.000  k= 0.000  l= 1.000
 Prefered orientation correction range: Min=   0.99579, Max=   1.00847
;
_pd_proc_ls_profile_function
;
 CW Profile function number 2 with  18 terms
 Profile coefficients for Simpson's rule integration of pseudovoigt function
 C.J. Howard (1982). J. Appl. Cryst.,15,615-620.
 P. Thompson, D.E. Cox & J.B. Hastings (1987). J. Appl. Cryst.,20,79-83.
 #1(GU)   =   27.102 #2(GV)   =  -14.900 #3(GW)   =   17.550
 #4(LX)   =    1.023 #5(LY)   =    8.271 #6(trns) =    0.000
 #7(asym) =   2.0514 #8(shft) =   0.0000 #9(GP)   =    0.000
 #10(stec)=     0.00 #11(ptec)=     0.00 #12(sfec)=     0.00
 #13(L11) =    0.000 #14(L22) =    0.000 #15(L33) =    0.000
 #16(L12) =    0.000 #17(L13) =    0.000 #18(L23) =    0.000
 Peak tails are ignored  where the intensity is below 0.0010 times the peak
   Aniso. broadening axis   0.0   0.0   1.0
;
_pd_proc_ls_prof_R_factor        0.0385
_pd_proc_ls_prof_wR_expected     0.0265
_pd_proc_ls_prof_wR_factor       0.0566
_pd_proc_number_of_points        5750
_pd_spec_mounting                ' ?'
_refine_ls_goodness_of_fit_all   2.14
_refine_ls_matrix_type           full
_refine_ls_number_parameters     56
_refine_ls_number_restraints     0
_refine_ls_R_Fsqd_factor         0.02405
_refine_ls_shift/su_max          0.03
_refine_ls_shift/su_mean         0.00
_reflns_d_resolution_high        0.890
_reflns_d_resolution_low         7.010
_reflns_limit_h_max              11
_reflns_limit_h_min              0
_reflns_limit_k_max              8
_reflns_limit_k_min              0
_reflns_limit_l_max              5
_reflns_limit_l_min              0
_reflns_number_total             207
_cod_data_source_file            LU2CAGE4O12.cif
_cod_data_source_block           LU2CAGE4O12_publ
_cod_depositor_comments
;
The following automatic conversions were performed:

data item '_geom_angle_publ_flag' value 'N' was changed to 'n' in
accordance with the built-in table derived from the CIF Core
dictionary named 'cif_core.dic' version 2.4.5 last updated on
2014-11-21 (127 times).

data item '_geom_bond_publ_flag' value 'N' was changed to 'n' in
accordance with the built-in table derived from the CIF Core
dictionary named 'cif_core.dic' version 2.4.5 last updated on
2014-11-21 (56 times).

Automatic conversion script
Id: cif_fix_values 8369 2020-08-20 11:38:08Z andrius 
;
_cod_original_cell_volume        494.399(6)
_cod_original_sg_symbol_H-M      'P 4/n b m'
_cod_original_formula_sum        'Ca1.00 Ge4 Lu2.00 O12'
_cod_database_code               1563632
_gsas_exptl_extinct_corr_t_min   1.00000
_gsas_exptl_extinct_corr_t_max   1.00000
loop_
_symmetry_equiv_pos_site_id
_symmetry_equiv_pos_as_xyz
1 +x,+y,+z
2 -y+1/2,+x,+z
3 -x+1/2,-y+1/2,+z
4 +y,-x+1/2,+z
5 -x,+y+1/2,+z
6 -y,-x,+z
7 +x+1/2,-y,+z
8 +y+1/2,+x+1/2,+z
-1 -x,-y,-z
-2 +y+1/2,-x,-z
-3 +x+1/2,+y+1/2,-z
-4 -y,+x+1/2,-z
-5 +x,-y+1/2,-z
-6 +y,+x,-z
-7 -x+1/2,+y,-z
-8 -y+1/2,-x+1/2,-z
loop_
_atom_site_type_symbol
_atom_site_label
_atom_site_fract_x
_atom_site_fract_y
_atom_site_fract_z
_atom_site_occupancy
_atom_site_thermal_displace_type
_atom_site_U_iso_or_equiv
_atom_site_symmetry_multiplicity
Ca Ca 0.0 0.0 0.5 0.5 Uiso 0.0285(6) 4
Lu Lu1 0.0 0.0 0.5 0.5 Uiso 0.0285(6) 4
Lu Lu2 0.25 0.25 0.5 1.0 Uiso 0.0247(6) 2
Ge Ge 0.51942(9) 0.25 0.0 1.0 Uiso 0.0268(6) 8
O O1 0.6264(4) 0.3736(4) 0.1577(9) 1.0 Uiso 0.0224(15) 8
O O2 0.1734(4) 0.06470(34) 0.2576(7) 1.0 Uiso 0.0211(11) 16
loop_
_atom_type_symbol
_atom_type_number_in_cell
_atom_type_scat_dispersion_real
_atom_type_scat_dispersion_imag
_atom_type_scat_Cromer_Mann_a1
_atom_type_scat_Cromer_Mann_a2
_atom_type_scat_Cromer_Mann_a3
_atom_type_scat_Cromer_Mann_a4
_atom_type_scat_Cromer_Mann_b1
_atom_type_scat_Cromer_Mann_b2
_atom_type_scat_Cromer_Mann_b3
_atom_type_scat_Cromer_Mann_b4
_atom_type_scat_Cromer_Mann_c
_atom_type_scat_source
Ca 2.0 0.000 0.000 8.62660 10.4421 7.38730 0.65990 1.58990 85.7484 1.02110
178.437 1.37510 International_Tables_Vol_C
Lu 4.0 0.000 0.000 28.9476 1.90182 15.2208 9.98519 15.1000 0.26103 3.71601
84.3298 7.97628 International_Tables_Vol_C
Ge 8.0 0.000 0.000 16.0816 2.85090 6.37470 0.25160 3.70680 11.4468 3.68300
54.7625 2.13130 International_Tables_Vol_C
O 24.0 0.000 0.000 3.04850 13.2771 2.28680 5.70110 1.54630 0.32390 0.86700
32.9089 0.25080 International_Tables_Vol_C
loop_
_geom_angle_atom_site_label_1
_geom_angle_atom_site_label_2
_geom_angle_atom_site_label_3
_geom_angle
_geom_angle_site_symmetry_1
_geom_angle_site_symmetry_2
_geom_angle_site_symmetry_3
_geom_angle_publ_flag
Lu2 Ca Lu2 180.0 1_555 . 5_545 n
Lu2 Ca O1 90.0 1_555 . 3_555 n
Lu2 Ca O1 90.0 1_555 . -3_456 n
Lu2 Ca O2 40.74(9) 1_555 . 1_555 n
Lu2 Ca O2 139.26(9) 1_555 . 6_555 n
Lu2 Ca O2 139.26(9) 1_555 . -1_556 n
Lu2 Ca O2 40.74(9) 1_555 . -6_556 n
Lu2 Ca O1 90.0 5_545 . 3_555 n
Lu2 Ca O1 90.0 5_545 . -3_456 n
Lu2 Ca O2 139.26(9) 5_545 . 1_555 n
Lu2 Ca O2 40.74(9) 5_545 . 6_555 n
Lu2 Ca O2 40.74(9) 5_545 . -1_556 n
Lu2 Ca O2 139.26(9) 5_545 . -6_556 n
O1 Ca O1 180.0 3_555 . -3_456 n
O1 Ca O2 82.10(12) 3_555 . 1_555 n
O1 Ca O2 82.10(12) 3_555 . 6_555 n
O1 Ca O2 97.90(12) 3_555 . -1_556 n
O1 Ca O2 97.90(12) 3_555 . -6_556 n
O1 Ca O2 97.90(12) -3_446 . 1_555 n
O1 Ca O2 97.90(12) -3_446 . 6_555 n
O1 Ca O2 82.10(12) -3_446 . -1_556 n
O1 Ca O2 82.10(12) -3_446 . -6_556 n
O2 Ca O2 98.52(18) 1_555 . 6_555 n
O2 Ca O2 180.0 1_555 . -1_556 n
O2 Ca O2 81.48(18) 1_555 . -6_556 n
O2 Ca O2 81.48(18) 6_555 . -1_556 n
O2 Ca O2 180.0 6_555 . -6_556 n
O2 Ca O2 98.52(18) -1_556 . -6_556 n
O1 Lu1 O1 180.0 3_555 . -3_456 n
O1 Lu1 O2 82.10(12) 3_555 . 1_555 n
O1 Lu1 O2 82.10(12) 3_555 . 6_555 n
O1 Lu1 O2 97.90(12) 3_555 . -1_556 n
O1 Lu1 O2 97.90(12) 3_555 . -6_556 n
O1 Lu1 O2 97.90(12) -3_446 . 1_555 n
O1 Lu1 O2 97.90(12) -3_446 . 6_555 n
O1 Lu1 O2 82.10(12) -3_446 . -1_556 n
O1 Lu1 O2 82.10(12) -3_446 . -6_556 n
O2 Lu1 O2 98.52(18) 1_555 . 6_555 n
O2 Lu1 O2 180.0 1_555 . -1_556 n
O2 Lu1 O2 81.48(18) 1_555 . -6_556 n
O2 Lu1 O2 81.48(18) 6_555 . -1_556 n
O2 Lu1 O2 180.0 6_555 . -6_556 n
O2 Lu1 O2 98.52(18) -1_556 . -6_556 n
Ca Lu2 Ca 90.0 1_555 . 2_555 n
Ca Lu2 Ca 180.0 1_555 . 3_555 n
Ca Lu2 Ca 90.0 1_555 . 4_555 n
Ca Lu2 O2 38.07(9) 1_555 . 1_555 n
Ca Lu2 O2 109.08(8) 1_555 . 2_555 n
Ca Lu2 O2 141.93(9) 1_555 . 3_555 n
Ca Lu2 O2 70.92(8) 1_555 . 4_555 n
Ca Lu2 O2 109.08(8) 1_555 . -5_456 n
Ca Lu2 O2 38.07(9) 1_555 . -6_556 n
Ca Lu2 O2 70.92(8) 1_555 . -7_546 n
Ca Lu2 O2 141.93(9) 1_555 . -8_556 n
Ca Lu2 Ca 90.0 2_555 . 3_555 n
Ca Lu2 Ca 180.0 2_555 . 4_555 n
Ca Lu2 O2 70.92(8) 2_555 . 1_555 n
Ca Lu2 O2 38.07(9) 2_555 . 2_555 n
Ca Lu2 O2 109.08(8) 2_555 . 3_555 n
Ca Lu2 O2 141.93(9) 2_555 . 4_555 n
Ca Lu2 O2 141.93(9) 2_555 . -5_456 n
Ca Lu2 O2 109.08(8) 2_555 . -6_556 n
Ca Lu2 O2 38.07(9) 2_555 . -7_546 n
Ca Lu2 O2 70.92(8) 2_555 . -8_556 n
Ca Lu2 Ca 90.0 3_555 . 4_555 n
Ca Lu2 O2 141.93(9) 3_555 . 1_555 n
Ca Lu2 O2 70.92(8) 3_555 . 2_555 n
Ca Lu2 O2 38.07(9) 3_555 . 3_555 n
Ca Lu2 O2 109.08(8) 3_555 . 4_555 n
Ca Lu2 O2 70.92(8) 3_555 . -5_456 n
Ca Lu2 O2 141.93(9) 3_555 . -6_556 n
Ca Lu2 O2 109.08(8) 3_555 . -7_546 n
Ca Lu2 O2 38.07(9) 3_555 . -8_556 n
Ca Lu2 O2 109.08(8) 4_555 . 1_555 n
Ca Lu2 O2 141.93(9) 4_555 . 2_555 n
Ca Lu2 O2 70.92(8) 4_555 . 3_555 n
Ca Lu2 O2 38.07(9) 4_555 . 4_555 n
Ca Lu2 O2 38.07(9) 4_555 . -5_456 n
Ca Lu2 O2 70.92(8) 4_555 . -6_556 n
Ca Lu2 O2 141.93(9) 4_555 . -7_546 n
Ca Lu2 O2 109.08(8) 4_555 . -8_556 n
O2 Lu2 O2 74.13(8) 1_555 . 2_555 n
O2 Lu2 O2 116.95(17) 1_555 . 3_555 n
O2 Lu2 O2 74.13(8) 1_555 . 4_555 n
O2 Lu2 O2 142.00(17) 1_555 . -5_456 n
O2 Lu2 O2 76.14(18) 1_555 . -6_556 n
O2 Lu2 O2 76.04(16) 1_555 . -7_546 n
O2 Lu2 O2 141.85(16) 1_555 . -8_556 n
O2 Lu2 O2 74.13(8) 2_555 . 3_555 n
O2 Lu2 O2 116.95(17) 2_555 . 4_555 n
O2 Lu2 O2 141.85(16) 2_555 . -5_456 n
O2 Lu2 O2 142.00(17) 2_555 . -6_556 n
O2 Lu2 O2 76.14(18) 2_555 . -7_546 n
O2 Lu2 O2 76.04(16) 2_555 . -8_556 n
O2 Lu2 O2 74.13(8) 3_555 . 4_555 n
O2 Lu2 O2 76.04(16) 3_555 . -5_456 n
O2 Lu2 O2 141.85(16) 3_555 . -6_556 n
O2 Lu2 O2 142.00(17) 3_555 . -7_546 n
O2 Lu2 O2 76.14(18) 3_555 . -8_556 n
O2 Lu2 O2 76.14(18) 4_555 . -5_456 n
O2 Lu2 O2 76.04(16) 4_555 . -6_556 n
O2 Lu2 O2 141.85(16) 4_555 . -7_546 n
O2 Lu2 O2 142.00(17) 4_555 . -8_556 n
O2 Lu2 O2 74.13(8) -5_456 . -6_556 n
O2 Lu2 O2 116.95(17) -5_456 . -7_546 n
O2 Lu2 O2 74.13(8) -5_456 . -8_556 n
O2 Lu2 O2 74.13(8) -6_556 . -7_546 n
O2 Lu2 O2 116.95(17) -6_556 . -8_556 n
O2 Lu2 O2 74.13(8) -7_546 . -8_556 n
O1 Ge O1 107.96(33) 1_555 . -4_555 n
O1 Ge O2 104.71(18) 1_555 . 2_555 n
O1 Ge O2 108.49(23) 1_555 . -8_555 n
O1 Ge O2 108.49(23) -4_545 . 2_555 n
O1 Ge O2 104.71(18) -4_545 . -8_555 n
O2 Ge O2 121.91(25) 2_555 . -8_555 n
Ca O1 Lu1 0.0 3_555 . 3_555 n
Ca O1 Ge 110.64(16) 3_555 . 1_555 n
Ca O1 Ge 110.64(16) 3_555 . 6_665 n
Lu1 O1 Ge 110.64(16) 3_555 . 1_555 n
Lu1 O1 Ge 110.64(16) 3_555 . 6_665 n
Ge O1 Ge 127.24(27) 1_555 . 6_665 n
Ca O2 Lu1 0.0 1_555 . 1_555 n
Ca O2 Lu2 101.19(13) 1_555 . 1_555 n
Ca O2 Ge 128.39(20) 1_555 . 4_555 n
Lu1 O2 Lu2 101.19(13) 1_555 . 1_555 n
Lu1 O2 Ge 128.39(20) 1_555 . 4_555 n
Lu2 O2 Ge 129.27(21) 1_555 . 4_555 n
loop_
_geom_bond_atom_site_label_1
_geom_bond_atom_site_label_2
_geom_bond_distance
_geom_bond_site_symmetry_1
_geom_bond_site_symmetry_2
_geom_bond_publ_flag
Ca Lu2 3.505120(20) . 1_555 n
Ca Lu2 3.505120(20) . 5_545 n
Ca Ge 3.53633(5) . 3_555 n
Ca Ge 3.53633(5) . 3_556 n
Ca Ge 3.53633(5) . 4_555 n
Ca Ge 3.53633(5) . 4_556 n
Ca Ge 3.53633(5) . 7_455 n
Ca Ge 3.53633(5) . 7_456 n
Ca Ge 3.53633(5) . 8_445 n
Ca Ge 3.53633(5) . 8_446 n
Ca O1 2.471(5) . 3_555 n
Ca O1 2.471(5) . -3_446 n
Ca O2 2.203(4) . 1_555 n
Ca O2 2.203(4) . 6_555 n
Ca O2 2.203(4) . -1_556 n
Ca O2 2.203(4) . -6_556 n
Lu1 Lu2 3.505120(20) . 1_555 n
Lu1 Lu2 3.505120(20) . 5_545 n
Lu1 O1 2.471(5) . 3_555 n
Lu1 O1 2.471(5) . -3_446 n
Lu1 O2 2.203(4) . 1_555 n
Lu1 O2 2.203(4) . 6_555 n
Lu1 O2 2.203(4) . -1_556 n
Lu1 O2 2.203(4) . -6_556 n
Lu2 Ca 3.505120(20) . 1_555 n
Lu2 Ca 3.505120(20) . 2_555 n
Lu2 Ca 3.505120(20) . 3_555 n
Lu2 Ca 3.505120(20) . 4_555 n
Lu2 Lu1 3.505120(20) . 1_555 n
Lu2 Lu1 3.505120(20) . 2_555 n
Lu2 Lu1 3.505120(20) . 3_555 n
Lu2 Lu1 3.505120(20) . 4_555 n
Lu2 O2 2.332(4) . 1_555 n
Lu2 O2 2.332(4) . 2_555 n
Lu2 O2 2.332(4) . 3_555 n
Lu2 O2 2.332(4) . 4_555 n
Lu2 O2 2.332(4) . -5_556 n
Lu2 O2 2.332(4) . -6_556 n
Lu2 O2 2.332(4) . -7_556 n
Lu2 O2 2.332(4) . -8_556 n
Ge Ca 3.53633(5) . 2_554 n
Ge Ca 3.53633(5) . 2_555 n
Ge Ca 3.53633(5) . 3_554 n
Ge Ca 3.53633(5) . 3_555 n
Ge O1 1.8043(20) . 1_555 n
Ge O1 1.8043(20) . -4_645 n
Ge O2 1.7178(33) . 2_555 n
Ge O2 1.7178(33) . -8_555 n
O1 Ca 2.471(5) . 3_555 n
O1 Lu1 2.471(5) . 3_555 n
O1 Ge 1.8043(20) . 1_555 n
O1 Ge 1.8043(20) . 6_665 n
O2 Ca 2.203(4) . 1_555 n
O2 Lu1 2.203(4) . 1_555 n
O2 Lu2 2.332(4) . 1_555 n
O2 Ge 1.7178(33) . 4_555 n
loop_
_pd_meas_counts_total
_pd_proc_ls_weight
_pd_proc_intensity_bkg_calc
_pd_calc_intensity_total
3512.0 0.0002847 3422.29810 3422.30884
3414.0 0.0002929 3426.51978 3426.53027
3557.0 0.0002811 3430.30542 3430.31592
3495.0 0.0002861 3433.67065 3433.68091
3527.0 0.0002835 3436.63159 3436.64185
3380.0 0.0002959 3439.20337 3439.21362
3381.0 0.0002958 3441.40186 3441.41211
3395.0 0.0002946 3443.24219 3443.25220
3390.0 0.0002950 3444.73926 3444.74927
3524.0 0.0002838 3445.90796 3445.91797
3362.0 0.0002974 3446.76245 3446.77246
3298.0 0.0003032 3447.31763 3447.32764
3487.0 0.0002868 3447.58691 3447.59668
3437.0 0.0002910 3447.58398 3447.59375
3393.0 0.0002947 3447.32275 3447.33252
3331.0 0.0003002 3446.81543 3446.82520
3385.0 0.0002954 3446.07568 3446.08545
3365.0 0.0002972 3445.11523 3445.12500
3461.0 0.0002889 3443.94653 3443.95605
3449.0 0.0002899 3442.58130 3442.59082
3425.0 0.0002920 3441.03076 3441.04053
3508.0 0.0002851 3439.30640 3439.31592
3431.0 0.0002915 3437.41846 3437.42798
3456.0 0.0002894 3435.37793 3435.38745
3521.0 0.0002840 3433.19434 3433.20410
3285.0 0.0003044 3430.87769 3430.88721
3447.0 0.0002901 3428.43750 3428.44727
3481.0 0.0002873 3425.88232 3425.89209
3483.0 0.0002871 3423.22168 3423.23120
3488.0 0.0002867 3420.46313 3420.47290
3320.0 0.0003012 3417.61523 3417.62500
3450.0 0.0002899 3414.68530 3414.69507
3337.0 0.0002997 3411.68115 3411.69092
3504.0 0.0002854 3408.60962 3408.61938
3559.0 0.0002810 3405.47754 3405.48730
3398.0 0.0002943 3402.29150 3402.30127
3547.0 0.0002819 3399.05737 3399.06714
3420.0 0.0002924 3395.78101 3395.79077
3405.0 0.0002937 3392.46826 3392.47803
3484.0 0.0002870 3389.12402 3389.13379
3328.0 0.0003005 3385.75366 3385.76343
3303.0 0.0003028 3382.36157 3382.37134
3283.0 0.0003046 3378.95239 3378.96216
3432.0 0.0002914 3375.53027 3375.54004
3423.0 0.0002921 3372.09888 3372.10864
3271.0 0.0003057 3368.66235 3368.67236
3148.0 0.0003177 3365.22363 3365.23364
3352.0 0.0002983 3361.78638 3361.79639
3424.0 0.0002921 3358.35327 3358.36328
3508.0 0.0002851 3354.92700 3354.93701
3391.0 0.0002949 3351.51050 3351.52051
3309.0 0.0003022 3348.10571 3348.11572
3373.0 0.0002965 3344.71509 3344.72510
3421.0 0.0002923 3341.34009 3341.35010
3395.0 0.0002946 3337.98291 3337.99292
3320.0 0.0003012 3334.64502 3334.65503
3306.0 0.0003025 3331.32788 3331.33789
3306.0 0.0003025 3328.03271 3328.04272
3319.0 0.0003013 3324.76050 3324.77051
3345.0 0.0002990 3321.51245 3321.52246
3207.0 0.0003118 3318.28882 3318.29883
3281.0 0.0003048 3315.09082 3315.10059
3278.0 0.0003051 3311.91870 3311.92871
3395.0 0.0002946 3308.77295 3308.78296
3355.0 0.0002981 3305.65405 3305.66406
3276.0 0.0003053 3302.56177 3302.57178
3229.0 0.0003097 3299.49634 3299.50635
3293.0 0.0003037 3296.45825 3296.46826
3356.0 0.0002980 3293.44653 3293.45654
3428.0 0.0002917 3290.46191 3290.47168
3364.0 0.0002973 3287.50317 3287.51318
3322.0 0.0003010 3284.57056 3284.58057
3232.0 0.0003094 3281.66333 3281.67334
3267.0 0.0003061 3278.78101 3278.79102
3294.0 0.0003036 3275.92358 3275.93359
3289.0 0.0003040 3273.08984 3273.09985
3187.0 0.0003138 3270.27930 3270.28931
3342.0 0.0002992 3267.49146 3267.50122
3392.0 0.0002948 3264.72510 3264.73486
3345.0 0.0002990 3261.97998 3261.98999
3189.0 0.0003136 3259.25488 3259.26489
3195.0 0.0003130 3256.54932 3256.55908
3108.0 0.0003218 3253.86206 3253.87207
3272.0 0.0003056 3251.19263 3251.20264
3259.0 0.0003068 3248.53979 3248.54956
3160.0 0.0003165 3245.90259 3245.91235
3251.0 0.0003076 3243.28052 3243.29053
3244.0 0.0003083 3240.67212 3240.68213
3230.0 0.0003096 3238.07715 3238.08716
3261.0 0.0003067 3235.49390 3235.50391
3226.0 0.0003100 3232.92212 3232.93188
3200.0 0.0003125 3230.36060 3230.37036
3159.0 0.0003166 3227.80811 3227.81812
3250.0 0.0003077 3225.26440 3225.27441
3222.0 0.0003104 3222.72827 3222.73804
3187.0 0.0003138 3220.19897 3220.20874
3228.0 0.0003098 3217.67505 3217.68506
3168.0 0.0003157 3215.15649 3215.16626
3272.0 0.0003056 3212.64233 3212.65210
3284.0 0.0003045 3210.13135 3210.14111
3131.0 0.0003194 3207.62329 3207.63306
3192.0 0.0003133 3205.11670 3205.12671
3176.0 0.0003149 3202.61182 3202.62158
3313.0 0.0003018 3200.10742 3200.11719
3241.0 0.0003085 3197.60278 3197.61279
3156.0 0.0003169 3195.09790 3195.10767
3267.0 0.0003061 3192.59131 3192.60132
3228.0 0.0003098 3190.08350 3190.09326
3233.0 0.0003093 3187.57275 3187.58252
3228.0 0.0003098 3185.05957 3185.06934
3027.0 0.0003304 3182.54321 3182.55298
3031.0 0.0003299 3180.02319 3180.03296
3083.0 0.0003244 3177.49927 3177.50928
3261.0 0.0003067 3174.97119 3174.98096
3241.0 0.0003085 3172.43823 3172.44800
3100.0 0.0003226 3169.90063 3169.91040
3174.0 0.0003151 3167.35791 3167.36768
3196.0 0.0003129 3164.81030 3164.82007
3273.0 0.0003055 3162.25708 3162.26685
3255.0 0.0003072 3159.69849 3159.70825
3097.0 0.0003229 3157.13477 3157.14453
3171.0 0.0003154 3154.56494 3154.57471
3157.0 0.0003168 3151.99023 3152.00000
3114.0 0.0003211 3149.40967 3149.41943
3124.0 0.0003201 3146.82422 3146.83374
3110.0 0.0003215 3144.23315 3144.24292
3162.0 0.0003163 3141.63696 3141.64673
3098.0 0.0003228 3139.03638 3139.04590
3135.0 0.0003190 3136.43066 3136.44043
3262.0 0.0003066 3133.82104 3133.83081
3095.0 0.0003231 3131.20728 3131.21704
3087.0 0.0003239 3128.58984 3128.59961
3132.0 0.0003193 3125.96899 3125.97852
3190.0 0.0003135 3123.34497 3123.35474
3186.0 0.0003139 3120.71875 3120.72852
3083.0 0.0003244 3118.09033 3118.10010
3001.0 0.0003332 3115.46045 3115.47021
3121.0 0.0003204 3112.82935 3112.83911
3107.0 0.0003219 3110.19775 3110.20752
3094.0 0.0003232 3107.56641 3107.57593
3068.0 0.0003259 3104.93530 3104.94507
2977.0 0.0003359 3102.30566 3102.31543
3015.0 0.0003317 3099.67798 3099.68750
3104.0 0.0003222 3097.05249 3097.06226
3199.0 0.0003126 3094.43042 3094.44019
3058.0 0.0003270 3091.81226 3091.82202
3100.0 0.0003226 3089.19873 3089.20850
3066.0 0.0003262 3086.59033 3086.60010
3080.0 0.0003247 3083.98853 3083.99805
3050.0 0.0003279 3081.39307 3081.40283
3026.0 0.0003305 3078.80518 3078.81494
2953.0 0.0003386 3076.22607 3076.23584
3042.0 0.0003287 3073.65601 3073.66553
3087.0 0.0003239 3071.09595 3071.10547
3089.0 0.0003237 3068.54663 3068.55640
3005.0 0.0003328 3066.00903 3066.01855
3053.0 0.0003275 3063.48413 3063.49365
3022.0 0.0003309 3060.97217 3060.98193
3124.0 0.0003201 3058.47485 3058.48462
3053.0 0.0003275 3055.99219 3056.00171
3119.0 0.0003206 3053.52563 3053.53540
3037.0 0.0003293 3051.07568 3051.08545
3061.0 0.0003267 3048.64331 3048.65308
3075.0 0.0003252 3046.22949 3046.23926
3071.0 0.0003256 3043.83496 3043.84473
3005.0 0.0003328 3041.46069 3041.47021
3004.0 0.0003329 3039.10718 3039.11694
3076.0 0.0003251 3036.77563 3036.78516
3215.0 0.0003110 3034.46680 3034.47632
3009.0 0.0003323 3032.18140 3032.19092
2970.0 0.0003367 3029.92041 3029.92993
3154.0 0.0003171 3027.68433 3027.69385
3008.0 0.0003324 3025.47437 3025.48413
3004.0 0.0003329 3023.29102 3023.30078
3060.0 0.0003268 3021.13550 3021.14502
3009.0 0.0003323 3019.00781 3019.01758
2919.0 0.0003426 3016.90918 3016.91895
3020.0 0.0003311 3014.84082 3014.85034
3036.0 0.0003294 3012.80249 3012.81226
3003.0 0.0003330 3010.79565 3010.80542
2908.0 0.0003439 3008.82056 3008.83032
2954.0 0.0003385 3006.87817 3006.88794
2996.0 0.0003338 3004.96924 3004.97876
2971.0 0.0003366 3003.09399 3003.10352
3244.0 0.0003083 3001.25317 3001.26270
3007.0 0.0003326 2999.44775 2999.45728
2995.0 0.0003339 2997.67773 2997.68750
3001.0 0.0003332 2995.94458 2995.95410
3041.0 0.0003288 2994.24780 2994.25732
3071.0 0.0003256 2992.58838 2992.59790
3010.0 0.0003322 2990.96704 2990.97656
2993.0 0.0003341 2989.38403 2989.39355
3089.0 0.0003237 2987.83960 2987.84912
3102.0 0.0003224 2986.33447 2986.34399
3045.0 0.0003284 2984.86914 2984.87866
2949.0 0.0003391 2983.44336 2983.45288
2960.0 0.0003378 2982.05859 2982.06812
2970.0 0.0003367 2980.71411 2980.72363
3048.0 0.0003281 2979.41040 2979.41992
3066.0 0.0003262 2978.14844 2978.15796
2894.0 0.0003455 2976.92773 2976.93726
2982.0 0.0003353 2975.74902 2975.75854
2992.0 0.0003342 2974.61206 2974.62158
3040.0 0.0003289 2973.51709 2973.52661
3100.0 0.0003226 2972.46484 2972.47412
2940.0 0.0003401 2971.45459 2971.46411
3013.0 0.0003319 2970.48706 2970.49658
2960.0 0.0003378 2969.56201 2969.57129
2949.0 0.0003391 2968.67944 2968.68896
2997.0 0.0003337 2967.83960 2967.84912
2942.0 0.0003399 2967.04224 2967.05151
2862.0 0.0003494 2966.28735 2966.29688
2889.0 0.0003461 2965.57495 2965.58423
3008.0 0.0003324 2964.90503 2964.91431
3084.0 0.0003243 2964.27710 2964.28638
2916.0 0.0003429 2963.69116 2963.70044
2943.0 0.0003398 2963.14722 2963.15674
2922.0 0.0003422 2962.64502 2962.65430
2960.0 0.0003378 2962.18408 2962.19336
2996.0 0.0003338 2961.76416 2961.77368
3017.0 0.0003315 2961.38550 2961.39478
2921.0 0.0003423 2961.04688 2961.05615
2898.0 0.0003451 2960.74854 2960.75781
2877.0 0.0003476 2960.49023 2960.49951
3011.0 0.0003321 2960.27100 2960.28027
2897.0 0.0003452 2960.09106 2960.10034
2884.0 0.0003467 2959.94946 2959.95874
3004.0 0.0003329 2959.84570 2959.85498
2964.0 0.0003374 2959.77979 2959.78882
2973.0 0.0003364 2959.75049 2959.75977
2910.0 0.0003436 2959.75806 2959.76733
2960.0 0.0003378 2959.80103 2959.81030
2959.0 0.0003380 2959.87939 2959.88867
2956.0 0.0003383 2959.99268 2960.00171
3055.0 0.0003273 2960.13965 2960.14868
2873.0 0.0003481 2960.32007 2960.32935
2932.0 0.0003411 2960.53296 2960.54224
2944.0 0.0003397 2960.77808 2960.78711
2955.0 0.0003384 2961.05396 2961.06299
3023.0 0.0003308 2961.36035 2961.36963
2973.0 0.0003364 2961.69629 2961.70557
2867.0 0.0003488 2962.06128 2962.07031
2883.0 0.0003469 2962.45435 2962.46338
2987.0 0.0003348 2962.87427 2962.88330
2985.0 0.0003350 2963.32056 2963.32959
2987.0 0.0003348 2963.79248 2963.80151
2847.0 0.000351 2964.28857 2964.29761
3008.0 0.0003324 2964.80884 2964.81787
3071.0 0.0003256 2965.35156 2965.36060
2973.0 0.0003364 2965.91602 2965.92505
2933.0 0.0003409 2966.50122 2966.51025
2860.0 0.0003497 2967.10645 2967.11548
2976.0 0.0003360 2967.73047 2967.73950
3018.0 0.0003313 2968.37256 2968.38135
3026.0 0.0003305 2969.03125 2969.04028
2968.0 0.0003369 2969.70581 2969.71484
2866.0 0.0003489 2970.39526 2970.40430
2971.0 0.0003366 2971.09839 2971.10718
2906.0 0.0003441 2971.81421 2971.82300
3033.0 0.0003297 2972.54175 2972.55054
2999.0 0.0003334 2973.27954 2973.28857
2969.0 0.0003368 2974.02710 2974.03613
2933.0 0.0003409 2974.78296 2974.79175
2915.0 0.0003431 2975.54590 2975.55469
3002.0 0.0003331 2976.31519 2976.32397
2982.0 0.0003353 2977.08936 2977.09814
2976.0 0.0003360 2977.86743 2977.87622
2965.0 0.0003373 2978.64819 2978.65698
2978.0 0.0003358 2979.43091 2979.43970
3121.0 0.0003204 2980.21387 2980.22266
2936.0 0.0003406 2980.99609 2981.00488
2989.0 0.0003346 2981.77686 2981.78564
2977.0 0.0003359 2982.55444 2982.56299
3003.0 0.0003330 2983.32788 2983.33667
3080.0 0.0003247 2984.09619 2984.10498
3014.0 0.0003318 2984.85791 2984.86670
2985.0 0.0003350 2985.61255 2985.62109
2936.0 0.0003406 2986.35791 2986.36670
3036.0 0.0003294 2987.09399 2987.10254
3132.0 0.0003193 2987.81860 2987.82715
3036.0 0.0003294 2988.53101 2988.53979
2996.0 0.0003338 2989.23047 2989.23926
2934.0 0.0003408 2989.91528 2989.92407
3016.0 0.0003316 2990.58472 2990.59351
2976.0 0.0003360 2991.23730 2991.24585
2887.0 0.0003464 2991.87207 2991.88062
3027.0 0.0003304 2992.48779 2992.49634
2864.0 0.0003492 2993.08350 2993.09204
3051.0 0.0003278 2993.65796 2993.66650
3106.0 0.0003220 2994.20996 2994.21875
2980.0 0.0003356 2994.73901 2994.74756
3003.0 0.0003330 2995.24316 2995.25171
2974.0 0.0003362 2995.72192 2995.73047
3012.0 0.0003320 2996.17407 2996.18262
3047.0 0.0003282 2996.59839 2996.60693
3012.0 0.0003320 2996.99414 2997.00269
2990.0 0.0003344 2997.35986 2997.36841
3077.0 0.0003250 2997.69482 2997.70337
3036.0 0.0003294 2997.99805 2998.00659
3120.0 0.0003205 2998.26831 2998.27686
2948.0 0.0003392 2998.50488 2998.51318
3043.0 0.0003286 2998.70630 2998.71484
3037.0 0.0003293 2998.87231 2998.88062
2994.0 0.0003340 2999.00122 2999.00977
3086.0 0.0003240 2999.09253 2999.10107
2909.0 0.0003438 2999.14526 2999.15356
2894.0 0.0003455 2999.15820 2999.16675
2954.0 0.0003385 2999.13086 2999.13940
3044.0 0.0003285 2999.06226 2999.07056
3113.0 0.0003212 2998.95117 2998.95972
2975.0 0.0003361 2998.79736 2998.80566
2920.0 0.0003425 2998.59937 2998.60767
3039.0 0.0003291 2998.35693 2998.36523
3025.0 0.0003306 2998.06860 2998.07715
3056.0 0.0003272 2997.73438 2997.74292
3014.0 0.0003318 2997.35278 2997.36133
2983.0 0.0003352 2996.92358 2996.93213
2952.0 0.0003388 2996.44556 2996.45410
2953.0 0.0003386 2995.91846 2995.92676
2995.0 0.0003339 2995.34131 2995.34985
2919.0 0.0003426 2994.71362 2994.72192
2977.0 0.0003359 2994.03467 2994.04321
2985.0 0.0003350 2993.30371 2993.31201
2968.0 0.0003369 2992.52002 2992.52832
3010.0 0.0003322 2991.68335 2991.69189
2911.0 0.0003435 2990.79297 2990.80127
2957.0 0.0003382 2989.84839 2989.85669
2928.0 0.0003415 2988.84888 2988.85718
2961.0 0.0003377 2987.79395 2987.80225
3114.0 0.0003211 2986.68335 2986.69189
2994.0 0.0003340 2985.51636 2985.52466
2904.0 0.0003444 2984.29272 2984.30103
2882.0 0.0003470 2983.01172 2983.02002
2951.0 0.0003389 2981.67334 2981.68164
2961.0 0.0003377 2980.27661 2980.28516
2866.0 0.0003489 2978.82178 2978.83008
2943.0 0.0003398 2977.30811 2992.26978
2902.0 0.0003446 2975.73560 2991.37378
2973.0 0.0003364 2974.10376 2990.46558
3066.0 0.0003262 2972.41211 2989.54932
2876.0 0.0003477 2970.66040 2988.62939
2892.0 0.0003458 2968.84912 2987.71167
2916.0 0.0003429 2966.97705 2986.80176
2924.0 0.0003420 2965.04468 2985.90723
3038.0 0.0003292 2963.05151 2985.03540
2876.0 0.0003477 2960.99756 2984.19604
2918.0 0.0003427 2958.88257 2983.39893
2899.0 0.0003449 2956.70679 2982.65674
2951.0 0.0003389 2954.46948 2981.98267
2872.0 0.0003482 2952.17090 2981.39282
2831.0 0.000353 2949.81128 2980.90649
2948.0 0.0003392 2947.39014 2980.54468
2953.0 0.0003386 2944.90771 2980.33350
2965.0 0.0003373 2942.36450 2980.30298
3036.0 0.0003294 2939.75952 2980.48804
2953.0 0.0003386 2937.09375 2980.93188
2959.0 0.0003380 2934.36670 2981.68506
2984.0 0.0003351 2931.57861 2982.80884
2874.0 0.0003479 2928.72998 2984.37866
2963.0 0.0003375 2925.82056 2986.48462
2890.0 0.0003460 2922.85059 2989.24121
3019.0 0.0003312 2919.82031 2992.78882
2979.0 0.0003357 2916.73022 2997.30518
3027.0 0.0003304 2913.58008 3003.01782
3054.0 0.0003274 2910.37036 3010.21948
3033.0 0.0003297 2907.10132 3019.29321
2935.0 0.0003407 2903.77319 3030.75024
2994.0 0.0003340 2900.38647 3045.28394
3109.0 0.0003216 2896.94116 3063.87769
3389.0 0.0002951 2893.43799 3088.09180
3338.0 0.0002996 2889.87720 3121.07788
3562.0 0.0002807 2886.25879 3171.06909
3915.0 0.0002554 2882.58423 3261.05029
4350.0 0.0002299 2878.85278 3447.90234
5026.0 0.0001990 2875.06543 3844.61597
5519.0 0.0001812 2871.22266 4622.36377
6559.0 0.0001525 2867.32471 5975.04248
7939.0 0.0001260 2863.37256 8072.91943
10262.0 0.0000974 2859.36597 11025.20801
13736.0 0.0000728 2855.30640 14809.63574
17044.0 0.0000587 2851.19360 19181.44141
21664.0 0.0000462 2847.02881 23260.68945
24969.0 0.0000400 2842.81201 25220.32031
25040.0 0.0000399 2838.54419 23558.46680
20664.0 0.0000484 2834.22607 18927.40625
14490.0 0.0000690 2829.85767 13429.02148
9502.0 0.0001052 2825.44043 8852.87793
6052.0 0.0001652 2820.97437 5885.78516
4570.0 0.0002188 2816.46045 4315.04297
3792.0 0.0002637 2811.89966 3603.01074
3253.0 0.0003074 2807.29199 3301.94556
3193.0 0.0003132 2802.63892 3164.37036
3070.0 0.0003257 2797.94043 3086.55908
2965.0 0.0003373 2793.19824 3032.65332
2987.0 0.0003348 2788.41211 2991.04272
2899.0 0.0003449 2783.58350 2957.35840
2808.0 0.000356 2778.71289 2929.36548
2906.0 0.0003441 2773.80103 2905.63525
2790.0 0.000358 2768.84912 2885.16675
2834.0 0.000353 2763.85742 2867.23535
2732.0 0.000366 2758.82715 2851.30273
2743.0 0.000365 2753.75928 2836.96606
2668.0 0.000375 2748.65430 2823.91577
2817.0 0.000355 2743.51343 2811.91284
2865.0 0.0003490 2738.33716 2800.77051
2777.0 0.000360 2733.12646 2790.34009
2629.0 0.000380 2727.88281 2780.50415
2787.0 0.000359 2722.60620 2771.16577
2738.0 0.000365 2717.29834 2762.24902
2776.0 0.000360 2711.95947 2753.68799
2705.0 0.000370 2706.59131 2745.43213
2688.0 0.000372 2701.19360 2737.43652
2716.0 0.000368 2695.76855 2729.66528
2610.0 0.000383 2690.31665 2722.08740
2611.0 0.000383 2684.83862 2714.67749
2579.0 0.000388 2679.33569 2707.41357
2649.0 0.000378 2673.80859 2700.27686
2599.0 0.000385 2668.25830 2693.25146
2713.0 0.000369 2662.68628 2686.32422
2584.0 0.000387 2657.09277 2679.48315
2541.0 0.000394 2651.47974 2672.71826
2518.0 0.000397 2645.84692 2666.02026
2635.0 0.000380 2640.19653 2659.38330
2576.0 0.000388 2634.52881 2652.79907
2700.0 0.000370 2628.84521 2646.26343
2568.0 0.000389 2623.14600 2639.77051
2486.0 0.000402 2617.43262 2633.31641
2562.0 0.000390 2611.70679 2611.71533
2582.0 0.000387 2605.96851 2605.97681
2554.0 0.000392 2600.21924 2600.22778
2490.0 0.000402 2594.45996 2594.46826
2492.0 0.000401 2588.69165 2588.69995
2503.0 0.000400 2582.91528 2582.92358
2661.0 0.000376 2577.13184 2577.14038
2647.0 0.000378 2571.34229 2571.35083
2468.0 0.000405 2565.54834 2565.55664
2464.0 0.000406 2559.74976 2559.75806
2483.0 0.000403 2553.94873 2553.95728
2567.0 0.000390 2548.14551 2548.15381
2581.0 0.000387 2542.34155 2542.35010
2508.0 0.000399 2536.53735 2536.54590
2466.0 0.000406 2530.73486 2530.74316
2505.0 0.000399 2524.93384 2524.94214
2540.0 0.000394 2519.13623 2519.14453
2475.0 0.000404 2513.34253 2513.35083
2455.0 0.000407 2507.55396 2507.56226
2476.0 0.000404 2501.77148 2501.78003
2353.0 0.000425 2495.99609 2496.00464
2520.0 0.000397 2490.22852 2490.23706
2556.0 0.000391 2484.47046 2484.47876
2408.0 0.000415 2478.72192 2478.73022
2378.0 0.000421 2472.98438 2472.99268
2382.0 0.000420 2467.25879 2467.26733
2391.0 0.000418 2461.54614 2461.55444
2540.0 0.000394 2455.84741 2455.85596
2358.0 0.000424 2450.16309 2450.17139
2388.0 0.000419 2444.49487 2444.50317
2465.0 0.000406 2438.84277 2438.85132
2351.0 0.000425 2433.20874 2433.21729
2422.0 0.000413 2427.59277 2427.60107
2354.0 0.000425 2421.99634 2422.00464
2309.0 0.000433 2416.41992 2416.42847
2366.0 0.000423 2410.86499 2410.87329
2425.0 0.000412 2405.33179 2405.34033
2384.0 0.000419 2399.82178 2399.83008
2307.0 0.000433 2394.33496 2394.34351
2359.0 0.000424 2388.87354 2388.88184
2349.0 0.000426 2383.43677 2383.44531
2372.0 0.000422 2378.02686 2378.03540
2442.0 0.000410 2372.64380 2372.65234
2331.0 0.000429 2367.28906 2367.29736
2322.0 0.000431 2361.96265 2361.97095
2388.0 0.000419 2356.66602 2356.67456
2346.0 0.000426 2351.39941 2351.40771
2424.0 0.000413 2346.16431 2346.17261
2269.0 0.000441 2340.96069 2340.96924
2263.0 0.000442 2335.78979 2335.79810
2298.0 0.000435 2330.65234 2330.66064
2316.0 0.000432 2325.54907 2325.55737
2344.0 0.000427 2320.48047 2320.48877
2316.0 0.000432 2315.44751 2315.45581
2229.0 0.000449 2310.45068 2310.45898
2301.0 0.000435 2305.49072 2305.49902
2348.0 0.000426 2300.56860 2300.57690
2304.0 0.000434 2295.68457 2295.69287
2331.0 0.000429 2290.83960 2290.84790
2322.0 0.000431 2286.03369 2286.04199
2227.0 0.000449 2281.26855 2281.27686
2278.0 0.000439 2276.54370 2276.55200
2396.0 0.000417 2271.86060 2271.86890
2283.0 0.000438 2267.21899 2267.22729
2195.0 0.000456 2262.62012 2262.62842
2265.0 0.000442 2258.06445 2258.07275
2310.0 0.000433 2253.55225 2253.56055
2377.0 0.000421 2249.08423 2249.09253
2348.0 0.000426 2244.66089 2244.66919
2312.0 0.000433 2240.28271 2240.29077
2268.0 0.000441 2235.95044 2235.95874
2370.0 0.000422 2231.66382 2231.67212
2484.0 0.000403 2227.42456 2227.43262
2505.0 0.000399 2223.23169 2223.23999
2663.0 0.000376 2219.08643 2219.09448
2574.0 0.000389 2214.98950 2214.99756
2603.0 0.000384 2210.94043 2210.94849
2535.0 0.000394 2206.94043 2206.94873
2377.0 0.000421 2202.98926 2202.99756
2262.0 0.000442 2199.08789 2199.09619
2180.0 0.000459 2195.23608 2195.24438
2152.0 0.000465 2191.43457 2191.44287
2231.0 0.000448 2187.68359 2187.69189
2211.0 0.000452 2183.98340 2183.99146
2278.0 0.000439 2180.33447 2180.34253
2170.0 0.000461 2176.73657 2176.74487
2201.0 0.000454 2173.19043 2173.19849
2255.0 0.000443 2169.69653 2169.70459
2116.0 0.000473 2166.25439 2166.26245
2175.0 0.000460 2162.86475 2162.87305
2214.0 0.000452 2159.52759 2159.53589
2190.0 0.000457 2156.24341 2156.25171
2237.0 0.000447 2153.01196 2153.02026
2121.0 0.000471 2149.83374 2149.84204
2146.0 0.000466 2146.70898 2146.71704
2127.0 0.000470 2143.63745 2143.64551
2194.0 0.000456 2140.61963 2140.62769
2159.0 0.000463 2137.65527 2137.66333
2124.0 0.000471 2134.74463 2134.75269
2136.0 0.000468 2131.88794 2131.89600
2135.0 0.000468 2129.08496 2129.09326
2180.0 0.000459 2126.33643 2126.34448
2224.0 0.000450 2123.64160 2123.64966
2093.0 0.000478 2121.00049 2121.00854
2155.0 0.000464 2118.41382 2118.42188
2100.0 0.000476 2115.88110 2115.88916
2141.0 0.000467 2113.40259 2113.41064
2301.0 0.000435 2110.97778 2110.98584
2050.0 0.000488 2108.60718 2108.61523
2171.0 0.000461 2106.29028 2106.29834
2207.0 0.000453 2104.02734 2104.03540
2086.0 0.000479 2101.81812 2101.82617
2177.0 0.000459 2099.66235 2099.67041
2023.0 0.000494 2097.56055 2097.56860
2038.0 0.000491 2095.51196 2095.52002
2121.0 0.000471 2093.51660 2093.52466
2127.0 0.000470 2091.57471 2091.58252
2147.0 0.000466 2089.68530 2089.69336
2100.0 0.000476 2087.84937 2087.85742
2080.0 0.000481 2086.06567 2086.07349
2067.0 0.000484 2084.33447 2084.34253
2202.0 0.000454 2082.65552 2082.66357
2132.0 0.000469 2081.02881 2081.03662
2135.0 0.000468 2079.45361 2079.46143
2011.0 0.000497 2077.92993 2077.93799
2060.0 0.000485 2076.45752 2076.46558
2065.0 0.000484 2075.03662 2075.04443
2205.0 0.000454 2073.66626 2073.67407
2061.0 0.000485 2072.34595 2072.35400
2114.0 0.000473 2071.07617 2071.08398
2015.0 0.000496 2069.85620 2069.86401
2073.0 0.000482 2068.68555 2068.69336
2095.0 0.000477 2067.56421 2067.57202
2034.0 0.000492 2066.49170 2066.49951
2090.0 0.000478 2065.46777 2065.47559
2128.0 0.000470 2064.49170 2064.49951
2053.0 0.000487 2063.56348 2063.57129
2082.0 0.000480 2062.68237 2062.69043
2062.0 0.000485 2061.84863 2061.85669
2099.0 0.000476 2061.06152 2061.06934
1993.0 0.000502 2060.32007 2060.32788
2110.0 0.000474 2059.62451 2059.63232
2033.0 0.000492 2058.97437 2058.98218
2112.0 0.000473 2058.36890 2058.37671
2129.0 0.000470 2057.80786 2057.81592
2066.0 0.000484 2057.29077 2057.29858
1962.0 0.000510 2056.81714 2056.82495
2100.0 0.000476 2056.38623 2056.39404
2093.0 0.000478 2055.99805 2056.00586
1950.0 0.000513 2055.65186 2055.65967
2056.0 0.000486 2055.34692 2055.35474
2150.0 0.000465 2055.08301 2055.09082
2051.0 0.000488 2054.85938 2054.86719
1989.0 0.000503 2054.67578 2054.68359
1948.0 0.000513 2054.53174 2054.53955
2064.0 0.000484 2054.42627 2054.43408
1981.0 0.000505 2054.35938 2054.36719
2102.0 0.000476 2054.32983 2054.33765
2093.0 0.000478 2054.33765 2054.34546
1971.0 0.000507 2054.38208 2054.38989
1983.0 0.000504 2054.46240 2054.74146
1938.0 0.000516 2054.57837 2054.86963
2058.0 0.000486 2054.72900 2055.03369
1952.0 0.000512 2054.91406 2055.23267
1963.0 0.000509 2055.13257 2055.46655
1972.0 0.000507 2055.38403 2055.73462
2087.0 0.000479 2055.66821 2056.03638
2059.0 0.000486 2055.98389 2056.37109
2014.0 0.000497 2056.33105 2056.73901
1973.0 0.000507 2056.70874 2057.13916
2071.0 0.000483 2057.11621 2057.57080
2020.0 0.000495 2057.55322 2058.03418
2065.0 0.000484 2058.01880 2058.52856
1926.0 0.000519 2058.51245 2060.12061
1969.0 0.000508 2059.03345 2060.72534
1954.0 0.000512 2059.58105 2061.36304
1983.0 0.000504 2060.15479 2062.03467
1973.0 0.000507 2060.75391 2062.74072
2013.0 0.000497 2061.37793 2063.48096
2015.0 0.000496 2062.02612 2064.25610
2006.0 0.000499 2062.69751 2065.06763
1947.0 0.000514 2063.39160 2065.91577
2028.0 0.000493 2064.10815 2066.80249
1981.0 0.000505 2064.84595 2067.72974
2068.0 0.000484 2065.60425 2068.69922
1979.0 0.000505 2066.38306 2069.71484
1957.0 0.000511 2067.18091 2070.77979
2014.0 0.000497 2067.99756 2071.89966
1976.0 0.000506 2068.83228 2073.08057
1984.0 0.000504 2069.68433 2074.33179
1970.0 0.000508 2070.55298 2075.66406
2014.0 0.000497 2071.43774 2077.09253
1986.0 0.000504 2072.33765 2078.63916
2034.0 0.000492 2073.25220 2080.33398
2063.0 0.000485 2074.18066 2082.22974
2017.0 0.000496 2075.12231 2084.44043
1972.0 0.000507 2076.07642 2087.26050
2077.0 0.000481 2077.04272 2091.45703
2057.0 0.000486 2078.01978 2098.78613
2011.0 0.000497 2079.00757 2112.60254
2109.0 0.000474 2080.00513 2138.04712
2219.0 0.000451 2081.01172 2180.93555
2167.0 0.000461 2082.02686 2244.19897
2257.0 0.000443 2083.04956 2321.96460
2402.0 0.000416 2084.07935 2396.84741
2338.0 0.000428 2085.11548 2442.73169
2433.0 0.000411 2086.15747 2434.07910
2475.0 0.000404 2087.20459 2373.43994
2250.0 0.000444 2088.25562 2292.93433
2165.0 0.000462 2089.31055 2224.20117
2204.0 0.000454 2090.36841 2183.85229
2157.0 0.000464 2091.42871 2177.07910
2215.0 0.000451 2092.49072 2208.35229
2280.0 0.000439 2093.55371 2289.76050
2347.0 0.000426 2094.61694 2440.17432
2602.0 0.000384 2095.67993 2671.94385
3005.0 0.0003328 2096.74170 2966.48169
3299.0 0.0003031 2097.80200 3259.14233
3320.0 0.0003012 2098.86011 3449.32300
3446.0 0.0002902 2099.91528 3431.34888
3253.0 0.0003074 2100.96680 3197.87842
2937.0 0.0003405 2102.01416 2866.54663
2652.0 0.000377 2103.05664 2563.15698
2296.0 0.000436 2104.09351 2350.55371
2198.0 0.000455 2105.12451 2230.09229
2110.0 0.000474 2106.14868 2172.66406
2041.0 0.000490 2107.16553 2148.13623
2064.0 0.000484 2108.17432 2137.63330
2017.0 0.000496 2109.17480 2132.46899
2120.0 0.000472 2110.16602 2129.42505
1995.0 0.000501 2111.14722 2127.42554
2032.0 0.000492 2112.11841 2126.07446
2170.0 0.000461 2113.07837 2125.17944
2068.0 0.000484 2114.02661 2124.62109
2041.0 0.000490 2114.96313 2124.31714
2092.0 0.000478 2115.88672 2124.20728
2114.0 0.000473 2116.79712 2124.24756
2141.0 0.000467 2117.69360 2124.40503
2084.0 0.000480 2118.57568 2124.65332
2063.0 0.000485 2119.44287 2124.97339
2032.0 0.000492 2120.29443 2125.34912
2147.0 0.000466 2121.13037 2125.76831
2186.0 0.000457 2121.94922 2126.22046
2036.0 0.000491 2122.75122 2126.69800
2046.0 0.000489 2123.53540 2127.19385
2005.0 0.000499 2124.30151 2127.70215
2119.0 0.000472 2125.04907 2128.21851
2151.0 0.000465 2125.77759 2128.73877
2137.0 0.000468 2126.48633 2129.25952
2092.0 0.000478 2127.17480 2129.77734
2112.0 0.000473 2127.84253 2130.28979
2110.0 0.000474 2128.48926 2130.53247
2269.0 0.000441 2129.11450 2131.03955
2184.0 0.000458 2129.71777 2131.53418
2098.0 0.000477 2130.29834 2132.01514
2156.0 0.000464 2130.85596 2132.48145
2223.0 0.000450 2131.39014 2132.93115
2289.0 0.000437 2131.90063 2133.36377
2138.0 0.000468 2132.38672 2133.77783
2102.0 0.000476 2132.84814 2134.17212
2162.0 0.000463 2133.28442 2134.54639
2172.0 0.000460 2133.69507 2134.89917
2132.0 0.000469 2134.07983 2135.22998
2078.0 0.000481 2134.43848 2135.53809
2094.0 0.000478 2134.77051 2134.77808
2145.0 0.000466 2135.07520 2135.08276
2076.0 0.000482 2135.35229 2135.36011
2185.0 0.000458 2135.60181 2135.60938
2131.0 0.000469 2135.82300 2135.83081
2162.0 0.000463 2136.01611 2136.02368
2119.0 0.000472 2136.17993 2136.18750
2179.0 0.000459 2136.31470 2136.32227
2294.0 0.000436 2136.41992 2136.42749
2146.0 0.000466 2136.49512 2136.50269
2227.0 0.000449 2136.54053 2136.54810
2200.0 0.000455 2136.55518 2136.56274
2290.0 0.000437 2136.53931 2136.54688
2226.0 0.000449 2136.49219 2136.49976
2167.0 0.000461 2136.41382 2136.42163
2159.0 0.000463 2136.30420 2136.31177
2211.0 0.000452 2136.16235 2136.16992
2246.0 0.000445 2135.98853 2135.99609
2294.0 0.000436 2135.78247 2135.79004
2181.0 0.000459 2135.54370 2135.55127
2172.0 0.000460 2135.27222 2135.27979
2174.0 0.000460 2134.96753 2134.97510
2156.0 0.000464 2134.62988 2134.63745
2379.0 0.000420 2134.25830 2134.26611
2242.0 0.000446 2133.85352 2133.86108
2146.0 0.000466 2133.41479 2133.42236
2267.0 0.000441 2132.94189 2132.94946
2253.0 0.000444 2132.43481 2132.44238
2246.0 0.000445 2131.89331 2131.90088
2195.0 0.000456 2131.31763 2131.32520
2154.0 0.000464 2130.70679 2130.71436
2192.0 0.000456 2130.06128 2130.06885
2201.0 0.000454 2129.38110 2129.38867
2303.0 0.000434 2128.66553 2128.67310
2215.0 0.000451 2127.91504 2127.92261
2194.0 0.000456 2127.12891 2127.13647
2145.0 0.000466 2126.30737 2126.31494
2246.0 0.000445 2125.45044 2125.45801
2298.0 0.000435 2124.55786 2124.56543
2136.0 0.000468 2123.62964 2123.63721
2151.0 0.000465 2122.66553 2122.67310
2155.0 0.000464 2121.66577 2121.67334
2163.0 0.000462 2120.62988 2120.63745
2200.0 0.000455 2119.55811 2119.56567
2088.0 0.000479 2118.45068 2118.45825
2185.0 0.000458 2117.30688 2117.31445
2148.0 0.000466 2116.12720 2116.13477
2128.0 0.000470 2114.91138 2114.91895
2170.0 0.000461 2113.65942 2113.66699
2104.0 0.000475 2112.37158 2112.37915
2125.0 0.000471 2111.04736 2111.05493
2136.0 0.000468 2109.68750 2109.69507
2151.0 0.000465 2108.29126 2108.29883
2191.0 0.000456 2106.85913 2106.86670
2133.0 0.000469 2105.39087 2105.39844
2175.0 0.000460 2103.88672 2103.89429
2156.0 0.000464 2102.34668 2102.35425
2137.0 0.000468 2100.77100 2100.77856
2225.0 0.000449 2099.15918 2099.16675
2157.0 0.000464 2097.51172 2097.51904
2128.0 0.000470 2095.82837 2095.83594
2147.0 0.000466 2094.10986 2094.11743
2152.0 0.000465 2092.35571 2092.36304
2206.0 0.000453 2090.56616 2090.57373
2086.0 0.000479 2088.74121 2088.74854
2029.0 0.000493 2086.88086 2086.88843
2039.0 0.000490 2084.98584 2084.99341
2125.0 0.000471 2083.05566 2083.06323
2152.0 0.000465 2081.09082 2081.09839
2041.0 0.000490 2079.09106 2079.09863
2050.0 0.000488 2077.05713 2077.06470
2012.0 0.000497 2074.98828 2074.99585
2051.0 0.000488 2072.88525 2072.89282
2170.0 0.000461 2070.74854 2070.75586
2024.0 0.000494 2068.57764 2068.58521
2033.0 0.000492 2066.37280 2066.38037
2005.0 0.000499 2064.13428 2064.14185
2028.0 0.000493 2061.86255 2061.87012
2090.0 0.000478 2059.55786 2059.56519
2055.0 0.000487 2057.21997 2057.22729
1993.0 0.000502 2054.84888 2054.85645
1971.0 0.000507 2052.44531 2052.45264
2045.0 0.000489 2050.00952 2050.01709
2070.0 0.000483 2047.54138 2047.54883
2030.0 0.000493 2045.04102 2045.04846
2030.0 0.000493 2042.50928 2042.51672
1975.0 0.000506 2039.94568 2039.95313
2069.0 0.000483 2037.35120 2037.35864
2039.0 0.000490 2034.72522 2034.73267
1997.0 0.000501 2032.06848 2032.07593
1972.0 0.000507 2029.38135 2029.38879
1991.0 0.000502 2026.66406 2026.67151
2044.0 0.000489 2023.91638 2023.92395
2036.0 0.000491 2021.13892 2021.14636
1951.0 0.000513 2018.33203 2018.33948
2046.0 0.000489 2015.49609 2015.50354
1995.0 0.000501 2012.63110 2012.63855
1923.0 0.000520 2009.73718 2009.74463
2090.0 0.000478 2006.81482 2006.82227
1984.0 0.000504 2003.86487 2003.87219
1978.0 0.000506 2000.88647 2000.89392
2021.0 0.000495 1997.88098 2027.32422
2028.0 0.000493 1994.84790 2025.61377
2103.0 0.000476 1991.78845 2023.96790
2063.0 0.000485 1988.70190 2022.39490
2044.0 0.000489 1985.58911 2020.90454
1987.0 0.000503 1982.45032 2019.50830
2082.0 0.000480 1979.28625 2018.21887
2132.0 0.000469 1976.09656 2017.04980
2021.0 0.000495 1972.88184 2016.01672
2012.0 0.000497 1969.64233 2015.13782
1969.0 0.000508 1966.37854 2014.43372
2021.0 0.000495 1963.09106 2013.92786
2069.0 0.000483 1959.77966 2013.64648
2030.0 0.000493 1956.44482 2013.62036
1900.0 0.000526 1953.08704 2013.88525
2029.0 0.000493 1949.70691 2014.48279
2024.0 0.000494 1946.30420 2015.46057
2061.0 0.000485 1942.87952 2016.87537
1952.0 0.000512 1939.43323 2018.79346
1959.0 0.000510 1935.96619 2021.29480
1982.0 0.000505 1932.47778 2024.47241
2084.0 0.000480 1928.96875 2028.43994
2020.0 0.000495 1925.43994 2033.33484
2036.0 0.000491 1921.89136 2039.32312
1955.0 0.000512 1918.32324 2046.60986
2019.0 0.000495 1914.73584 2055.44873
2042.0 0.000490 1911.12988 2066.15723
2142.0 0.000467 1907.50598 2079.13721
2048.0 0.000488 1903.86377 2094.90015
2035.0 0.000491 1900.20410 2114.11108
2081.0 0.000481 1896.52710 2137.63989
2131.0 0.000469 1892.83374 2166.64673
2234.0 0.000448 1889.12354 2202.70264
2216.0 0.000451 1885.39734 2247.99683
2195.0 0.000456 1881.65552 2305.74438
2454.0 0.000407 1877.89832 2381.33374
2601.0 0.000384 1874.12671 2486.11475
3042.0 0.0003287 1870.34009 2649.26538
3475.0 0.0002878 1866.53931 2948.70972
4343.0 0.0002303 1862.72510 3572.72656
5759.0 0.0001736 1858.89746 4902.02734
8413.0 0.0001189 1855.05688 7541.39746
12154.0 0.0000823 1851.20337 12154.43848
17983.0 0.0000556 1847.33777 18962.23438
25537.0 0.0000392 1843.46094 27020.84961
33640.0 0.0000297 1839.57202 33982.23438
37946.0 0.0000264 1835.67236 36826.14844
35424.0 0.0000282 1831.76184 33651.15625
26948.0 0.0000371 1827.84155 26073.95703
17648.0 0.0000567 1823.91089 17644.98828
11003.0 0.0000909 1819.97083 10885.21875
6552.0 0.0001526 1816.02173 6574.62402
4534.0 0.0002206 1812.06409 4289.77783
3267.0 0.0003061 1808.09802 3228.62695
2692.0 0.000371 1804.12390 2753.60962
2467.0 0.000405 1800.14221 2517.71997
2252.0 0.000444 1796.15369 2375.17480
2280.0 0.000439 1792.15808 2274.10693
2124.0 0.000471 1788.15613 2196.40063
2117.0 0.000472 1784.14807 2134.39941
2004.0 0.000499 1780.13440 2083.83813
1972.0 0.000507 1776.11584 2041.89905
1999.0 0.000500 1772.09204 2006.58813
1892.0 0.000529 1768.06384 1976.45496
1873.0 0.000534 1764.03137 1950.42200
1951.0 0.000513 1759.99561 1927.67725
1941.0 0.000515 1755.95605 1907.59790
1938.0 0.000516 1751.91357 1889.70251
1838.0 0.000544 1747.86853 1873.61279
1770.0 0.000565 1743.82141 1859.02869
1776.0 0.000563 1739.77234 1845.70959
1803.0 0.000555 1735.72156 1833.46118
1807.0 0.000553 1731.66956 1822.12500
1724.0 0.000580 1727.61731 1811.57178
1657.0 0.000604 1723.56421 1801.69250
1728.0 0.000579 1719.51111 1792.39807
1749.0 0.000572 1715.45825 1783.61316
1819.0 0.000550 1711.40649 1775.27490
1643.0 0.000609 1707.35522 1767.32849
1688.0 0.000592 1703.30542 1759.72876
1660.0 0.000602 1699.25745 1752.43652
1678.0 0.000596 1695.21191 1745.41821
1771.0 0.000565 1691.16821 1738.64404
1717.0 0.000582 1687.12720 1732.08911
1639.0 0.000610 1683.08948 1725.73181
1631.0 0.000613 1679.05530 1719.55261
1643.0 0.000609 1675.02490 1713.53528
1665.0 0.000601 1670.99866 1707.66431
1615.0 0.000619 1666.97656 1701.92712
1608.0 0.000622 1662.95935 1696.31213
1619.0 0.000618 1658.94763 1690.80969
1664.0 0.000601 1654.94080 1685.41003
1765.0 0.000567 1650.94006 1650.94690
1590.0 0.000629 1646.94507 1646.95190
1586.0 0.000631 1642.95691 1642.96375
1548.0 0.000646 1638.97510 1638.98181
1630.0 0.000613 1635.00012 1635.00696
1706.0 0.000586 1631.03271 1631.03955
1599.0 0.000625 1627.07324 1627.08008
1609.0 0.000622 1623.12109 1623.12793
1674.0 0.000597 1619.17737 1619.18408
1545.0 0.000647 1615.24194 1615.24878
1650.0 0.000606 1611.31580 1611.32263
1601.0 0.000625 1607.39856 1607.40540
1585.0 0.000631 1603.49048 1603.49731
1619.0 0.000618 1599.59204 1599.59888
1613.0 0.000620 1595.70410 1595.71082
1601.0 0.000625 1591.82581 1591.83252
1542.0 0.000649 1587.95789 1587.96472
1525.0 0.000656 1584.10120 1584.10791
1507.0 0.000664 1580.25513 1580.26184
1594.0 0.000627 1576.42078 1576.42749
1556.0 0.000643 1572.59766 1572.60437
1543.0 0.000648 1568.78625 1568.79297
1575.0 0.000635 1564.98706 1564.99377
1513.0 0.000661 1561.20056 1561.20715
1560.0 0.000641 1557.42603 1557.43274
1634.0 0.000612 1553.66443 1553.67102
1517.0 0.000659 1549.91577 1549.92236
1436.0 0.000696 1546.18079 1546.18738
1494.0 0.000669 1542.45911 1542.46570
1494.0 0.000669 1538.75085 1538.75757
1517.0 0.000659 1535.05664 1535.06335
1465.0 0.000683 1531.37708 1531.38367
1526.0 0.000655 1527.71143 1527.71802
1438.0 0.000695 1524.06055 1524.06714
1531.0 0.000653 1520.42432 1520.43091
1550.0 0.000645 1516.80347 1516.81006
1540.0 0.000649 1513.19751 1513.20410
1474.0 0.000678 1509.60693 1509.61353
1498.0 0.000668 1506.03198 1506.03845
1481.0 0.000675 1502.47314 1502.47974
1506.0 0.000664 1498.93018 1498.93677
1446.0 0.000692 1495.40320 1495.40979
1451.0 0.000689 1491.89258 1491.89917
1435.0 0.000697 1488.39844 1488.40503
1473.0 0.000679 1484.92151 1484.92810
1535.0 0.000651 1481.46118 1481.46765
1433.0 0.000698 1478.01770 1478.02417
1499.0 0.000667 1474.59143 1474.59790
1481.0 0.000675 1471.18298 1471.18945
1493.0 0.000670 1467.79150 1467.79797
1580.0 0.000633 1464.41797 1464.42444
1393.0 0.000718 1461.06201 1461.06848
1404.0 0.000712 1457.72449 1457.73096
1431.0 0.000699 1454.40454 1454.41101
1434.0 0.000697 1451.10291 1451.10938
1496.0 0.000668 1447.81982 1447.82629
1408.0 0.000710 1444.55518 1444.56165
1412.0 0.000708 1441.30920 1441.31555
1389.0 0.000720 1438.08167 1438.08813
1475.0 0.000678 1434.87305 1434.87952
1428.0 0.000700 1431.68372 1431.69019
1336.0 0.000749 1428.51306 1428.51953
1417.0 0.000706 1425.36182 1425.36829
1467.0 0.000682 1422.22961 1422.23608
1442.0 0.000693 1419.11719 1419.12366
1471.0 0.000680 1416.02380 1416.03027
1338.0 0.000747 1412.95007 1412.95642
1383.0 0.000723 1409.89600 1409.90247
1419.0 0.000705 1406.86157 1406.86792
1390.0 0.000719 1403.84729 1403.85364
1422.0 0.000703 1400.85242 1400.85889
1388.0 0.000720 1397.87769 1397.88403
1426.0 0.000701 1394.92297 1394.92932
1413.0 0.000708 1391.98840 1391.99475
1363.0 0.000734 1389.07397 1389.08020
1494.0 0.000669 1386.17944 1386.18579
1376.0 0.000727 1383.30530 1383.31165
1410.0 0.000709 1380.45166 1380.45801
1315.0 0.000760 1377.61816 1377.62451
1382.0 0.000724 1374.80518 1374.81140
1473.0 0.000679 1372.01233 1372.01868
1379.0 0.000725 1369.24036 1369.24670
1421.0 0.000704 1366.48853 1367.65491
1404.0 0.000712 1363.75732 1364.97583
1355.0 0.000738 1361.04663 1362.32104
1391.0 0.000719 1358.35669 1359.69080
1362.0 0.000734 1355.68726 1357.08545
1376.0 0.000727 1353.03821 1354.50537
1363.0 0.000734 1350.40979 1351.95105
1395.0 0.000717 1347.80225 1349.42346
1414.0 0.000707 1345.21509 1346.92261
1284.0 0.000779 1342.64880 1344.44958
1314.0 0.000761 1340.10291 1342.16711
1360.0 0.000735 1337.57751 1339.75928
1343.0 0.000745 1335.07324 1337.38281
1311.0 0.000763 1332.58911 1335.03821
1349.0 0.000741 1330.12573 1332.72729
1310.0 0.000763 1327.68274 1330.45166
1364.0 0.000733 1325.26074 1328.21375
1366.0 0.000732 1322.85876 1326.01489
1355.0 0.000738 1320.47742 1323.85852
1289.0 0.000776 1318.11670 1321.74780
1328.0 0.000753 1315.77637 1319.68628
1336.0 0.000749 1313.45642 1317.67883
1364.0 0.000733 1311.15674 1315.73071
1365.0 0.000733 1308.87732 1313.84888
1374.0 0.000728 1306.61841 1312.04175
1285.0 0.000778 1304.37952 1310.31934
1268.0 0.000789 1302.16101 1308.69495
1326.0 0.000754 1299.96240 1307.18457
1382.0 0.000724 1297.78418 1305.80933
1251.0 0.000799 1295.62561 1304.59570
1321.0 0.000757 1293.48706 1303.57947
1293.0 0.000773 1291.36853 1302.80762
1275.0 0.000784 1289.26990 1302.34375
1320.0 0.000758 1287.19080 1302.27588
1304.0 0.000767 1285.13135 1302.73352
1274.0 0.000785 1283.09155 1303.92798
1308.0 0.000765 1281.07141 1306.29175
1308.0 0.000765 1279.07080 1310.91138
1334.0 0.000750 1277.08936 1320.68774
1308.0 0.000765 1275.12708 1342.70593
1422.0 0.000703 1273.18408 1391.42273
1582.0 0.000632 1271.26050 1489.68909
1821.0 0.000549 1269.35559 1661.60388
2038.0 0.000491 1267.46985 1912.62402
2283.0 0.000438 1265.60278 2203.06274
2578.0 0.000388 1263.75464 2440.02661
2681.0 0.000373 1261.92493 2511.20654
2617.0 0.000382 1260.11365 2366.03174
2303.0 0.000434 1258.32104 2084.93848
1796.0 0.000557 1256.54700 1795.44263
1557.0 0.000642 1254.79065 1578.33301
1438.0 0.000695 1253.05261 1455.53894
1434.0 0.000697 1251.33240 1410.70618
1425.0 0.000702 1249.63049 1413.30872
1418.0 0.000705 1247.94617 1432.39514
1453.0 0.000688 1246.27942 1441.83032
1444.0 0.000693 1244.63013 1425.56628
1347.0 0.000742 1242.99854 1386.72766
1396.0 0.000716 1241.38391 1341.59485
1303.0 0.000767 1239.78674 1303.36719
1269.0 0.000788 1238.20642 1277.00916
1166.0 0.000858 1236.64294 1261.24463
1272.0 0.000786 1235.09656 1252.34827
1345.0 0.000743 1233.56653 1247.01257
1265.0 0.000791 1232.05310 1243.28162
1155.0 0.000866 1230.55615 1240.26501
1179.0 0.000848 1229.07556 1237.61755
1228.0 0.000814 1227.61084 1235.20618
1194.0 0.000838 1226.16211 1233.05261
1175.0 0.000851 1224.72925 1230.95740
1226.0 0.000816 1223.31238 1228.97534
1153.0 0.000867 1221.91089 1227.08740
1212.0 0.000825 1220.52478 1225.27893
1200.0 0.000833 1219.15381 1223.53906
1225.0 0.000816 1217.79822 1221.85901
1168.0 0.000856 1216.45752 1220.23132
1191.0 0.000840 1215.13171 1218.65063
1212.0 0.000825 1213.82056 1217.11206
1216.0 0.000822 1212.52393 1215.61182
1128.0 0.000887 1211.24170 1214.14661
1168.0 0.000856 1209.97363 1212.71350
1111.0 0.000900 1208.71973 1211.31079
1190.0 0.000840 1207.47986 1209.93591
1189.0 0.000841 1206.25378 1208.58765
1229.0 0.000814 1205.04126 1207.26392
1160.0 0.000862 1203.84216 1205.96375
1186.0 0.000843 1202.65637 1204.68640
1207.0 0.000829 1201.48401 1203.43054
1176.0 0.000850 1200.32446 1202.19543
1110.0 0.000901 1199.17773 1200.98010
1150.0 0.000870 1198.04382 1199.78406
1129.0 0.000886 1196.92249 1197.41870
1142.0 0.000876 1195.81335 1196.31042
1139.0 0.000878 1194.71655 1195.21692
1146.0 0.000873 1193.63184 1194.13782
1176.0 0.000850 1192.55908 1193.07324
1157.0 0.000864 1191.49780 1192.02319
1195.0 0.000837 1190.44824 1190.98779
1198.0 0.000835 1189.41028 1189.96716
1090.0 0.000917 1188.38330 1188.96130
1127.0 0.000887 1187.36768 1187.97083
1139.0 0.000878 1186.36279 1186.83862
1184.0 0.000845 1185.36877 1185.88623
1184.0 0.000845 1184.38538 1184.95044
1151.0 0.000869 1183.41235 1184.03174
1181.0 0.000847 1182.44983 1183.13196
1112.0 0.000899 1181.49719 1182.25208
1157.0 0.000864 1180.55469 1181.39453
1158.0 0.000864 1179.62195 1180.56213
1170.0 0.000855 1178.69873 1179.75830
1081.0 0.000925 1177.78516 1178.98828
1069.0 0.000935 1176.88086 1178.25854
1174.0 0.000852 1175.98584 1177.57886
1238.0 0.000808 1175.09961 1176.96277
1195.0 0.000837 1174.22217 1176.43323
1184.0 0.000845 1173.35364 1176.03662
1222.0 0.000818 1172.49341 1175.88818
1187.0 0.000842 1171.64172 1176.29712
1322.0 0.000756 1170.79822 1178.01782
1201.0 0.000833 1169.96265 1182.59094
1254.0 0.000797 1169.13501 1192.44299
1147.0 0.000872 1168.31506 1210.10107
1200.0 0.000833 1167.50281 1236.06873
1255.0 0.000797 1166.69775 1266.04895
1323.0 0.000756 1165.90015 1290.05139
1263.0 0.000792 1165.10950 1296.10999
1291.0 0.000775 1164.32568 1279.37390
1225.0 0.000816 1163.54883 1248.77637
1222.0 0.000818 1162.77856 1217.45483
1164.0 0.000859 1162.01477 1193.28040
1119.0 0.000894 1161.25720 1177.98938
1144.0 0.000874 1160.50586 1169.60828
1142.0 0.000876 1159.76062 1165.27466
1143.0 0.000875 1159.02112 1162.86389
1123.0 0.000890 1158.28748 1161.25366
1138.0 0.000879 1157.55920 1159.97473
1138.0 0.000879 1156.83643 1158.85657
1104.0 0.000906 1156.11890 1157.83606
1205.0 0.000830 1155.40637 1156.88391
1124.0 0.000890 1154.69910 1155.98352
1168.0 0.000856 1153.99646 1155.12305
1101.0 0.000908 1153.29846 1154.29480
1138.0 0.000879 1152.60510 1153.49219
1131.0 0.000884 1151.91589 1152.71094
1114.0 0.000898 1151.23132 1151.94788
1075.0 0.000930 1150.55054 1151.19983
1112.0 0.000899 1149.87390 1150.46484
1058.0 0.000945 1149.20093 1149.74121
1159.0 0.000863 1148.53162 1149.02747
1154.0 0.000867 1147.86609 1148.32275
1128.0 0.000887 1147.20386 1147.62585
1105.0 0.000905 1146.54492 1154.15161
1134.0 0.000882 1145.88904 1153.72754
1251.0 0.000799 1145.23633 1153.32373
1249.0 0.000801 1144.58630 1152.94031
1398.0 0.000715 1143.93909 1152.57813
1588.0 0.000630 1143.29468 1152.23840
1767.0 0.000566 1142.65271 1151.92200
2028.0 0.000493 1142.01294 1151.62976
1904.0 0.000525 1141.37537 1151.36340
1845.0 0.000542 1140.73999 1151.12463
1605.0 0.000623 1140.10669 1150.91516
1396.0 0.000716 1139.47534 1150.73706
1315.0 0.000760 1138.84558 1150.59265
1191.0 0.000840 1138.21741 1150.48450
1124.0 0.000890 1137.59082 1150.41565
1089.0 0.000918 1136.96570 1150.38965
1162.0 0.000861 1136.34167 1150.40991
1174.0 0.000852 1135.71899 1150.48120
1131.0 0.000884 1135.09729 1150.60815
1127.0 0.000887 1134.47656 1150.66602
1103.0 0.000907 1133.85669 1150.92761
1164.0 0.000859 1133.23743 1151.26367
1169.0 0.000855 1132.61890 1151.68286
1072.0 0.000933 1132.00085 1152.19470
1106.0 0.000904 1131.38318 1152.81030
1143.0 0.000875 1130.76575 1153.54224
1107.0 0.000903 1130.14844 1154.40576
1186.0 0.000843 1129.53149 1155.41858
1098.0 0.000911 1128.91455 1156.60095
1067.0 0.000937 1128.29724 1157.97668
1111.0 0.000900 1127.67981 1159.57495
1129.0 0.000886 1127.06226 1161.43005
1159.0 0.000863 1126.44409 1163.58252
1134.0 0.000882 1125.82568 1166.08252
1164.0 0.000859 1125.20654 1168.98999
1148.0 0.000871 1124.58679 1172.37927
1140.0 0.000877 1123.96643 1176.34192
1207.0 0.000829 1123.34497 1180.99194
1145.0 0.000873 1122.72278 1186.47388
1164.0 0.000859 1122.09961 1192.97119
1146.0 0.000873 1121.47546 1200.72083
1205.0 0.000830 1120.84985 1210.03162
1199.0 0.000834 1120.22314 1221.31409
1172.0 0.000853 1119.59509 1235.12048
1238.0 0.000808 1118.96582 1252.21106
1233.0 0.000811 1118.33508 1273.67114
1328.0 0.000753 1117.70264 1301.18994
1424.0 0.000702 1117.06860 1337.91846
1496.0 0.000668 1116.43311 1391.24658
1545.0 0.000647 1115.79553 1480.71558
1878.0 0.000532 1115.15649 1655.83044
2316.0 0.000432 1114.51538 2023.95923
3264.0 0.0003064 1113.87244 2769.20850
4278.0 0.0002338 1113.22729 4113.80664
6384.0 0.0001566 1112.58020 6172.70752
8814.0 0.0001135 1111.93115 8724.65918
11473.0 0.0000872 1111.27966 11057.35449
12668.0 0.0000789 1110.62622 12144.93359
11408.0 0.0000877 1109.97021 11314.24219
8927.0 0.0001120 1109.31201 9028.10840
6193.0 0.0001615 1108.65125 6402.90186
4074.0 0.0002455 1107.98828 4242.73486
2708.0 0.000369 1107.32288 2819.79443
1997.0 0.000501 1106.65466 2034.05164
1639.0 0.000610 1105.98401 1651.64624
1466.0 0.000682 1105.31079 1472.91162
1319.0 0.000758 1104.63464 1382.08789
1343.0 0.000745 1103.95618 1327.30115
1240.0 0.000806 1103.27466 1288.89148
1223.0 0.000818 1102.59058 1259.66724
1176.0 0.000850 1101.90344 1236.56274
1147.0 0.000872 1101.21350 1217.89612
1210.0 0.000826 1100.52075 1202.56885
1190.0 0.000840 1099.82495 1189.80664
1099.0 0.000910 1099.12634 1179.04639
1098.0 0.000911 1098.42468 1169.87024
1218.0 0.000821 1097.71985 1161.96326
1140.0 0.000877 1097.01221 1155.08435
1050.0 0.000952 1096.30127 1149.04626
1081.0 0.000925 1095.58752 1143.70313
1036.0 0.000965 1094.87048 1138.93799
1108.0 0.000903 1094.15039 1134.65833
1126.0 0.000888 1093.42700 1130.78845
1025.0 0.000976 1092.70044 1127.26709
1044.0 0.000958 1091.97083 1124.04419
1082.0 0.000924 1091.23792 1121.07751
1107.0 0.000903 1090.50183 1118.33276
1143.0 0.000875 1089.76245 1115.78027
1106.0 0.000904 1089.01978 1113.39587
1174.0 0.000852 1088.27393 1111.15869
1263.0 0.000792 1087.52478 1109.05054
1402.0 0.000713 1086.77246 1107.05664
1638.0 0.000611 1086.01660 1105.16370
1738.0 0.000575 1085.25757 1103.36023
1800.0 0.000556 1084.49524 1101.63660
1764.0 0.000567 1083.72961 1099.98413
1590.0 0.000629 1082.96082 1098.39551
1420.0 0.000704 1082.18860 1096.86389
1235.0 0.000810 1081.41309 1095.38379
1120.0 0.000893 1080.63428 1093.94958
1077.0 0.000929 1079.85205 1092.55725
1040.0 0.000962 1079.06665 1091.20264
1083.0 0.000923 1078.27795 1089.88208
994.0 0.001006 1077.48608 1088.59253
1037.0 0.000964 1076.69067 1087.33093
1026.0 0.000975 1075.89209 1086.09473
970.0 0.001031 1075.09033 1084.88184
1063.0 0.000941 1074.28528 1083.68994
1024.0 0.000977 1073.47705 1082.51746
1070.0 0.000935 1072.66553 1081.36230
990.0 0.001010 1071.85071 1080.22327
1039.0 0.000962 1071.03284 1079.09875
1081.0 0.000925 1070.21167 1077.98779
1115.0 0.000897 1069.38757 1076.88892
1164.0 0.000859 1068.56006 1068.56604
1179.0 0.000848 1067.72961 1067.73560
1260.0 0.000794 1066.89587 1066.90186
1252.0 0.000799 1066.05908 1066.06519
1224.0 0.000817 1065.21936 1065.22534
1219.0 0.000820 1064.37646 1064.38245
1102.0 0.000907 1063.53076 1063.53674
1122.0 0.000891 1062.68188 1062.68787
1114.0 0.000898 1061.82996 1061.83594
1008.0 0.000992 1060.97522 1060.98120
1039.0 0.000962 1060.11755 1060.12354
985.0 0.001015 1059.25696 1059.26294
1039.0 0.000962 1058.39355 1058.39954
997.0 0.001003 1057.52734 1057.53333
983.0 0.001017 1056.65820 1056.66418
984.0 0.001016 1055.78625 1055.79224
1039.0 0.000962 1054.91187 1054.91772
1033.0 0.000968 1054.03467 1054.04053
1080.0 0.000926 1053.15466 1139.57947
976.0 0.001025 1052.27197 1141.83594
1028.0 0.000973 1051.38672 1144.26379
1009.0 0.000991 1050.49915 1146.87646
1029.0 0.000972 1049.60889 1149.68811
1013.0 0.000987 1048.71606 1152.71436
995.0 0.001005 1047.82080 1155.97278
1016.0 0.000984 1046.92310 1159.48242
990.0 0.001010 1046.02307 1163.26465
1058.0 0.000945 1045.12073 1167.34241
1056.0 0.000947 1044.21606 1171.74182
1107.0 0.000903 1043.30908 1176.49133
1024.0 0.000977 1042.40002 1181.62329
1078.0 0.000928 1041.48865 1187.17297
1118.0 0.000894 1040.57507 1193.18042
1188.0 0.000842 1039.65955 1199.69019
1138.0 0.000879 1038.74207 1206.75269
1190.0 0.000840 1037.82239 1214.42419
1158.0 0.000864 1036.90076 1222.76892
1145.0 0.000873 1035.97729 1231.85950
1209.0 0.000827 1035.05200 1241.77844
1113.0 0.000898 1034.12476 1252.62000
1118.0 0.000894 1033.19580 1264.49194
1174.0 0.000852 1032.26501 1277.51855
1205.0 0.000830 1031.33264 1291.84326
1218.0 0.000821 1030.39856 1307.63196
1274.0 0.000785 1029.46301 1325.07837
1397.0 0.000716 1028.52576 1344.40881
1502.0 0.000666 1027.58704 1365.88953
1609.0 0.000622 1026.64697 1389.83545
1750.0 0.000571 1025.70544 1416.62061
1724.0 0.000580 1024.76245 1446.69299
1604.0 0.000623 1023.81836 1480.59192
1568.0 0.000638 1022.87299 1518.97119
1516.0 0.000660 1021.92627 1562.62964
1486.0 0.000673 1020.97839 1612.55200
1520.0 0.000658 1020.02942 1669.96130
1459.0 0.000685 1019.07953 1736.39331
1604.0 0.000623 1018.12866 1813.79419
1620.0 0.000617 1017.17670 1904.66040
1885.0 0.000531 1016.22375 2012.23450
1868.0 0.000535 1015.27014 2140.78491
2072.0 0.000483 1014.31561 2296.01904
2111.0 0.000474 1013.36047 2485.70996
2457.0 0.000407 1012.40448 2720.74170
2746.0 0.000364 1011.44800 3017.28589
3083.0 0.0003244 1010.49078 3402.86353
3875.0 0.0002581 1009.53296 3935.86792
4992.0 0.0002003 1008.57483 4764.54443
6909.0 0.0001447 1007.61609 6273.44873
10202.0 0.0000980 1006.65710 9351.70508
15910.0 0.0000629 1005.69763 15675.76953
26264.0 0.0000381 1004.73792 27598.16211
43657.0 0.0000229 1003.77795 47052.17578
69985.0 0.0000143 1002.81793 73354.60938
101714.0 9.83e-6 1001.85773 100938.69531
120047.0 8.33e-6 1000.89734 119355.46875
122425.0 8.17e-6 999.93695 118470.42969
101228.0 9.88e-6 998.97668 98368.56250
72216.0 0.0000138 998.01636 70025.68750
44931.0 0.0000223 997.05634 44041.41797
24925.0 0.0000401 996.09625 25407.16602
14449.0 0.0000692 995.13660 14328.46387
8824.0 0.0001133 994.17706 8626.32227
6318.0 0.0001583 993.21790 5909.23877
4820.0 0.0002075 992.25909 4574.27051
3617.0 0.0002765 991.30072 3819.85986
3135.0 0.0003190 990.34290 3318.29956
2707.0 0.000369 989.38544 2947.83081
2537.0 0.000394 988.42859 2659.93384
2277.0 0.000439 987.47253 2430.41724
2051.0 0.000488 986.51697 2244.34448
1990.0 0.000503 985.56226 2091.42920
1873.0 0.000534 984.60815 1964.26196
1701.0 0.000588 983.65503 1857.38074
1648.0 0.000607 982.70264 1766.68848
1541.0 0.000649 981.75110 1689.06702
1480.0 0.000676 980.80066 1622.10950
1412.0 0.000708 979.85114 1563.93616
1433.0 0.000698 978.90283 1513.06238
1371.0 0.000729 977.95538 1468.30212
1363.0 0.000734 977.00916 1428.70105
1296.0 0.000772 976.06421 1393.48303
1252.0 0.000799 975.12036 1362.01196
1227.0 0.000815 974.17798 1333.76294
1225.0 0.000816 973.23676 1308.29944
1229.0 0.000814 972.29688 1285.25659
1153.0 0.000867 971.35858 1264.32715
1127.0 0.000887 970.42157 1245.25098
1143.0 0.000875 969.48615 1227.80676
1096.0 0.000912 968.55219 1211.80518
1129.0 0.000886 967.61993 1197.08374
1092.0 0.000916 966.68921 1183.50195
1053.0 0.000950 965.76007 1170.93811
1091.0 0.000917 964.83282 1159.28662
1090.0 0.000917 963.90710 1148.45483
1070.0 0.000935 962.98340 1138.36218
1041.0 0.000961 962.06134 1128.93701
1024.0 0.000977 961.14111 1120.11646
1073.0 0.000932 960.22296 1111.84558
1093.0 0.000915 959.30664 1104.07422
1015.0 0.000985 958.39233 1096.75916
1051.0 0.000951 957.47998 1089.86084
1014.0 0.000986 956.56964 1083.34436
1004.0 0.000996 955.66156 1077.17847
1035.0 0.000966 954.75543 1071.33484
1005.0 0.000995 953.85162 1065.78809
983.0 0.001017 952.94995 1060.51514
1006.0 0.000994 952.05042 1055.49536
1037.0 0.000964 951.15308 1050.70984
1035.0 0.000966 950.25806 1046.14160
953.0 0.001049 949.36548 1041.77527
952.0 0.001050 948.47510 1037.59656
1003.0 0.000997 947.58716 947.59241
950.0 0.001053 946.70184 946.70709
1020.0 0.000980 945.81873 945.82391
949.0 0.001054 944.93811 944.94330
893.0 0.001120 944.05994 944.06512
991.0 0.001009 943.18445 943.18964
983.0 0.001017 942.31140 942.31659
964.0 0.001037 941.44086 941.44604
965.0 0.001036 940.57312 940.57831
947.0 0.001056 939.70801 939.71313
974.0 0.001027 938.84540 938.85059
980.0 0.001020 937.98566 937.99078
964.0 0.001037 937.12848 937.13361
870.0 0.001149 936.27399 936.27911
949.0 0.001054 935.42230 935.42743
927.0 0.001079 934.57343 934.57855
1008.0 0.000992 933.72729 937.60199
950.0 0.001053 932.88397 936.89838
936.0 0.001068 932.04376 936.20569
925.0 0.001081 931.20605 935.52380
960.0 0.001042 930.37128 934.85382
933.0 0.001072 929.53955 934.19635
941.0 0.001063 928.71057 933.55206
904.0 0.001106 927.88452 932.92194
979.0 0.001021 927.06140 932.30688
945.0 0.001058 926.24139 931.70813
957.0 0.001045 925.42438 931.12653
962.0 0.001040 924.61023 930.56348
960.0 0.001042 923.79919 930.02045
961.0 0.001041 922.99103 929.49884
905.0 0.001105 922.18585 929.00043
966.0 0.001035 921.38379 928.52734
970.0 0.001031 920.58490 928.08179
938.0 0.001066 919.78888 927.66602
977.0 0.001024 918.99609 927.28308
927.0 0.001079 918.20642 926.93604
957.0 0.001045 917.41968 926.62842
1001.0 0.000999 916.63605 926.36426
926.0 0.001080 915.85565 926.14862
1005.0 0.000995 915.07825 925.98651
997.0 0.001003 914.30396 925.88422
1072.0 0.000933 913.53278 925.84906
1180.0 0.000847 912.76483 925.88953
1247.0 0.000802 912.00006 926.01514
1514.0 0.000661 911.23834 926.23730
1714.0 0.000583 910.47980 926.56970
1928.0 0.000519 909.72430 927.02832
1942.0 0.000515 908.97198 927.63239
1658.0 0.000603 908.22278 928.40491
1529.0 0.000654 907.47687 929.37396
1322.0 0.000756 906.73395 930.57318
1195.0 0.000837 905.99438 932.04462
1039.0 0.000962 905.25787 933.83978
967.0 0.001034 904.52441 936.02344
987.0 0.001013 903.79413 938.67743
1007.0 0.000993 903.06702 941.90619
937.0 0.001067 902.34302 945.84479
972.0 0.001029 901.62207 950.67017
1016.0 0.000984 900.90430 956.61786
945.0 0.001058 900.18994 964.00653
978.0 0.001022 899.47833 973.27698
1018.0 0.000982 898.76990 985.06989
1064.0 0.000940 898.06470 1000.42120
982.0 0.001018 897.36249 1021.37347
1074.0 0.000931 896.66333 1052.86304
1119.0 0.000894 895.96735 1107.64697
1332.0 0.000751 895.27435 1216.10657
1579.0 0.000633 894.58441 1438.64014
1968.0 0.000508 893.89764 1867.38232
2736.0 0.000365 893.21393 2593.71948
3674.0 0.0002722 892.53308 3629.31055
5024.0 0.0001990 891.85529 4807.93945
5920.0 0.0001689 891.18060 5741.46338
6061.0 0.0001650 890.50879 5958.64258
5311.0 0.0001883 889.83997 5309.16309
4094.0 0.0002443 889.17413 4168.89453
2962.0 0.0003376 888.51141 3021.48340
2078.0 0.000481 887.85138 2140.58301
1573.0 0.000636 887.19434 1584.00183
1268.0 0.000789 886.54022 1282.15283
1149.0 0.000870 885.88904 1133.48730
1023.0 0.000978 885.24060 1060.49792
1001.0 0.000999 884.59503 1020.52869
940.0 0.001064 883.95239 994.81097
930.0 0.001075 883.31256 976.10614
1014.0 0.000986 882.67554 961.59814
1007.0 0.000993 882.04126 949.97900
1021.0 0.000979 881.40967 940.48602
955.0 0.001047 880.78088 932.60706
924.0 0.001082 880.15472 925.97687
868.0 0.001152 879.53143 920.32770
908.0 0.001101 878.91064 915.45935
883.0 0.001133 878.29260 911.22015
867.0 0.001153 877.67731 907.49347
889.0 0.001125 877.06445 904.18817
866.0 0.001155 876.45422 901.23273
868.0 0.001152 875.84656 898.57013
835.0 0.001198 875.24139 896.15454
866.0 0.001155 874.63885 893.94885
880.0 0.001136 874.03870 891.92249
897.0 0.001115 873.44110 890.05060
838.0 0.001193 872.84589 888.31219
879.0 0.001138 872.25311 886.69006
845.0 0.001183 871.66278 885.16962
852.0 0.001174 871.07471 883.73828
868.0 0.001152 870.48901 882.38580
901.0 0.001110 869.90558 881.10297
904.0 0.001106 869.32452 879.88239
816.0 0.001225 868.74561 878.71710
851.0 0.001175 868.16907 877.60168
938.0 0.001066 867.59467 876.53088
958.0 0.001044 867.02240 875.50031
997.0 0.001003 866.45233 874.50623
1006.0 0.000994 865.88428 873.54529
1125.0 0.000889 865.31842 872.61450
1231.0 0.000812 864.75464 871.71118
1190.0 0.000840 864.19275 870.83307
1328.0 0.000753 863.63300 879.62610
1185.0 0.000844 863.07520 879.14343
1040.0 0.000962 862.51929 878.69965
943.0 0.001060 861.96527 878.29504
907.0 0.001103 861.41315 877.92969
913.0 0.001095 860.86292 877.60419
851.0 0.001175 860.31433 877.31927
861.0 0.001161 859.76770 877.07635
852.0 0.001174 859.22272 876.87671
813.0 0.001230 858.67963 876.72217
852.0 0.001174 858.13812 876.61481
777.0 0.001287 857.59821 876.55719
866.0 0.001155 857.06000 876.55237
850.0 0.001176 856.52332 872.80890
829.0 0.001206 855.98828 873.04913
860.0 0.001163 855.45465 873.34747
801.0 0.001248 854.92261 873.70959
821.0 0.001218 854.39209 874.14191
803.0 0.001245 853.86292 874.65149
805.0 0.001242 853.33514 875.24640
878.0 0.001139 852.80872 875.93604
824.0 0.001214 852.28369 876.73096
778.0 0.001285 851.75989 877.64313
811.0 0.001233 851.23730 878.68671
842.0 0.001188 850.71606 879.87781
773.0 0.001294 850.19598 881.23505
852.0 0.001174 849.67706 882.78021
790.0 0.001266 849.15936 906.91083
838.0 0.001193 848.64264 909.72357
923.0 0.001083 848.12701 912.86029
859.0 0.001164 847.61243 916.36646
834.0 0.001199 847.09875 920.29639
852.0 0.001174 846.58612 924.71497
853.0 0.001172 846.07440 929.70081
855.0 0.001170 845.56366 935.34918
828.0 0.001208 845.05371 941.77679
826.0 0.001211 844.54456 949.12817
804.0 0.001244 844.03632 957.58423
877.0 0.001140 843.52869 967.37274
936.0 0.001068 843.02191 978.78552
927.0 0.001079 842.51569 992.19940
891.0 0.001122 842.01031 1008.10992
906.0 0.001104 841.50549 1027.17700
967.0 0.001034 841.00122 1050.29797
1006.0 0.000994 840.49756 1078.73096
1043.0 0.000959 839.99445 1114.36047
1165.0 0.000858 839.49176 1160.45081
1152.0 0.000868 838.98956 1224.01404
1310.0 0.000763 838.48773 1322.60657
1645.0 0.000608 837.98639 1500.14612
2041.0 0.000490 837.48535 1853.36304
2814.0 0.000355 836.98480 2554.45654
4044.0 0.0002473 836.48450 3827.74756
5853.0 0.0001709 835.98438 5830.86035
8524.0 0.0001173 835.48450 8446.64258
11018.0 0.0000908 834.98486 11085.10547
11944.0 0.0000837 834.48541 12696.80469
11442.0 0.0000874 833.98608 12357.51465
9393.0 0.0001065 833.48688 10259.39844
6900.0 0.0001449 832.98779 7516.92773
4798.0 0.0002084 832.48871 5075.07910
3184.0 0.0003141 831.98962 3344.13306
2245.0 0.000445 831.49060 2316.57568
1740.0 0.000575 830.99139 1786.33557
1530.0 0.000654 830.49225 1535.68250
1404.0 0.000712 829.99298 1418.99573
1338.0 0.000747 829.49353 1362.68237
1302.0 0.000768 828.99408 1336.33948
1296.0 0.000772 828.49426 1328.98486
1374.0 0.000728 827.99432 1337.05347
1348.0 0.000742 827.49402 1359.92725
1378.0 0.000726 826.99359 1398.70007
1504.0 0.000665 826.49268 1456.21216
1629.0 0.000614 825.99164 1538.22449
1843.0 0.000543 825.49011 1657.55701
2097.0 0.000477 824.98816 1846.55737
2454.0 0.000407 824.48596 2187.77563
3340.0 0.0002994 823.98322 2869.87598
4800.0 0.0002083 823.47992 4250.59473
7390.0 0.0001353 822.97626 6824.17090
11693.0 0.0000855 822.47192 11025.44727
16859.0 0.0000593 821.96716 16776.46484
22749.0 0.0000440 821.46179 23002.91211
27052.0 0.0000370 820.95581 27484.46875
26986.0 0.0000371 820.44934 27815.52734
22941.0 0.0000436 819.94208 23721.84180
16429.0 0.0000609 819.43414 17506.29297
10543.0 0.0000948 818.92554 11574.97949
6662.0 0.0001501 818.41626 7149.70947
4290.0 0.0002331 817.90619 4398.50781
2911.0 0.0003435 817.39526 2913.54346
2153.0 0.000464 816.88367 2175.66748
1752.0 0.000571 816.37128 1805.03491
1595.0 0.000627 815.85797 1596.39514
1379.0 0.000725 815.34387 1459.68481
1356.0 0.000737 814.82880 1359.68042
1197.0 0.000835 814.31287 1282.23743
1163.0 0.000860 813.79602 1220.53943
1115.0 0.000897 813.27826 1170.51721
1078.0 0.000928 812.75946 1129.41003
1115.0 0.000897 812.23975 1095.23901
1012.0 0.000988 811.71912 1066.54871
1014.0 0.000986 811.19733 1042.24878
934.0 0.001071 810.67456 1021.51208
938.0 0.001066 810.15070 1003.70221
967.0 0.001034 809.62573 988.32532
863.0 0.001159 809.09973 974.99414
882.0 0.001134 808.57263 963.40344
865.0 0.001156 808.04443 953.31183
904.0 0.001106 807.51508 944.52832
929.0 0.001076 806.98450 936.90234
867.0 0.001153 806.45282 930.31830
846.0 0.001182 805.91986 924.68872
807.0 0.001239 805.38580 910.42700
864.0 0.001157 804.85034 906.87341
906.0 0.001104 804.31384 905.33368
832.0 0.001202 803.77600 903.48956
883.0 0.001133 803.23700 902.52954
855.0 0.001170 802.69672 902.52942
913.0 0.001095 802.15503 903.60736
880.0 0.001136 801.61212 905.93787
844.0 0.001185 801.06787 909.77191
869.0 0.001151 800.52228 915.47119
932.0 0.001073 799.97540 923.57550
937.0 0.001067 799.42712 934.97583
1052.0 0.000951 798.87756 951.44806
1029.0 0.000972 798.32672 977.24890
1141.0 0.000876 797.77441 1023.14502
1234.0 0.000810 797.22070 1114.12451
1449.0 0.000690 796.66559 1298.58386
1780.0 0.000562 796.10913 1648.45618
2365.0 0.000423 795.55121 2232.96460
3293.0 0.0003037 794.99200 3058.53345
4256.0 0.0002350 794.43127 3995.49902
5191.0 0.0001926 793.86920 4739.93115
5317.0 0.0001881 793.30566 4914.98193
4542.0 0.0002202 792.74060 4401.74805
3628.0 0.0002756 792.17413 3498.88745
2558.0 0.000391 791.60632 2585.05005
1803.0 0.000555 791.03693 1874.75891
1512.0 0.000661 790.46619 1394.80481
1137.0 0.000880 789.89392 1144.31677
1033.0 0.000968 789.32037 1016.27313
970.0 0.001031 788.74518 952.25787
949.0 0.001054 788.16858 917.11035
949.0 0.001054 787.59045 894.73688
870.0 0.001149 787.01093 878.70624
872.0 0.001147 786.42987 866.47015
842.0 0.001188 785.84735 856.85590
864.0 0.001157 785.26337 849.19495
858.0 0.001166 784.67798 843.04834
856.0 0.001168 784.09113 838.11017
835.0 0.001198 783.50281 834.16498
821.0 0.001218 782.91296 831.06183
885.0 0.001130 782.32166 828.69946
899.0 0.001112 781.72888 827.01666
836.0 0.001196 781.13464 825.98767
805.0 0.001242 780.53906 825.62152
864.0 0.001157 779.94189 825.96460
842.0 0.001188 779.34338 827.11017
863.0 0.001159 778.74341 829.21796
870.0 0.001149 778.14191 832.57086
855.0 0.001170 777.53906 837.74860
858.0 0.001166 776.93469 846.14886
904.0 0.001106 776.32898 861.31110
913.0 0.001095 775.72180 891.46185
974.0 0.001027 775.11322 952.60858
1083.0 0.000923 774.50336 1068.76611
1272.0 0.000786 773.89197 1263.57642
1567.0 0.000638 773.27917 1540.61414
1829.0 0.000547 772.66510 1858.80945
1960.0 0.000510 772.04950 2118.21924
1996.0 0.000501 771.43268 2190.17700
1841.0 0.000543 770.81445 2027.26379
1666.0 0.000600 770.19489 1725.54541
1383.0 0.000723 769.57391 1414.56958
1147.0 0.000872 768.95184 1170.05066
1008.0 0.000992 768.32831 1011.30591
932.0 0.001073 767.70337 923.00610
926.0 0.001080 767.07733 879.20355
857.0 0.001167 766.44983 858.71924
861.0 0.001161 765.82117 849.23505
880.0 0.001136 765.19122 845.10480
870.0 0.001149 764.56000 844.17889
893.0 0.001120 763.92773 845.79132
935.0 0.001070 763.29407 849.88513
878.0 0.001139 762.65924 856.76221
926.0 0.001080 762.02325 867.16461
950.0 0.001053 761.38599 882.80774
937.0 0.001067 760.74768 908.01489
1050.0 0.000952 760.10815 953.69843
1078.0 0.000928 759.46753 1044.53162
1259.0 0.000794 758.82587 1223.14185
1611.0 0.000621 758.18304 1561.27893
2200.0 0.000455 757.53912 2112.11963
2983.0 0.0003352 756.89410 2868.75537
3705.0 0.0002699 756.24811 3698.13867
4231.0 0.0002364 755.60095 4314.83398
4342.0 0.0002303 754.95294 4393.38428
3723.0 0.0002686 754.30389 3876.80151
2987.0 0.0003348 753.65375 3058.81494
2116.0 0.000473 753.00287 2261.47632
1540.0 0.000649 752.35095 1654.54358
1217.0 0.000822 751.69800 1268.68201
1074.0 0.000931 751.04425 1055.35669
948.0 0.001055 750.38959 946.96509
896.0 0.001116 749.73401 891.69348
841.0 0.001189 749.07764 860.41852
793.0 0.001261 748.42041 839.89899
801.0 0.001248 747.76257 824.81879
790.0 0.001266 747.10376 813.03027
794.0 0.001259 746.44421 803.51636
767.0 0.001304 745.78387 795.68121
789.0 0.001267 745.12292 789.12482
754.0 0.001326 744.46112 783.56067
771.0 0.001297 743.79877 778.77832
739.0 0.001353 743.13574 774.61987
745.0 0.001342 742.47211 770.96527
753.0 0.001328 741.80780 767.72168
739.0 0.001353 741.14288 764.81683
743.0 0.001346 740.47742 762.19354
753.0 0.001328 739.81146 759.80634
744.0 0.001344 739.14490 757.61823
758.0 0.001319 738.47791 755.59937
716.0 0.001397 737.81036 753.72546
806.0 0.001241 737.14240 752.08203
803.0 0.001245 736.47418 750.44452
811.0 0.001233 735.80536 748.90094
818.0 0.001222 735.13623 747.43958
865.0 0.001156 734.46667 744.88086
928.0 0.001078 733.79681 743.59497
956.0 0.001046 733.12671 742.36359
903.0 0.001107 732.45630 741.18036
845.0 0.001183 731.78558 740.04022
785.0 0.001274 731.11475 738.93860
783.0 0.001277 730.44360 737.87140
741.0 0.001350 729.77234 736.83533
709.0 0.001410 729.10083 735.82715
725.0 0.001379 728.42920 734.84448
668.0 0.001497 727.75751 733.88507
685.0 0.001460 727.08575 732.94672
725.0 0.001379 726.41382 732.02759
679.0 0.001473 725.74213 731.12646
665.0 0.001504 725.07025 732.11725
689.0 0.001451 724.39838 731.31482
713.0 0.001403 723.72662 730.53040
639.0 0.001565 723.05493 729.76312
695.0 0.001439 722.38330 729.01245
689.0 0.001451 721.71179 728.27814
715.0 0.001399 721.04041 727.75403
709.0 0.001410 720.36926 727.05872
651.0 0.001536 719.69849 726.38007
659.0 0.001517 719.02765 725.71783
657.0 0.001522 718.35724 725.07263
681.0 0.001468 717.68701 721.23981
688.0 0.001453 717.01721 720.74103
674.0 0.001484 716.34766 720.25574
674.0 0.001484 715.67853 719.78577
714.0 0.001401 715.00977 719.33264
718.0 0.001393 714.34149 718.89862
717.0 0.001395 713.67365 718.48584
694.0 0.001441 713.00623 718.09729
661.0 0.001513 712.33923 717.73639
708.0 0.001412 711.67291 717.40717
670.0 0.001493 711.00702 717.11456
672.0 0.001488 710.34180 716.86462
715.0 0.001399 709.67706 716.66504
641.0 0.001560 709.01318 716.52563
673.0 0.001486 708.34985 716.45844
661.0 0.001513 707.68713 716.48004
672.0 0.001488 707.02515 716.61383
665.0 0.001504 706.36389 716.89606
687.0 0.001456 705.70343 717.39685
716.0 0.001397 705.04376 718.27637
644.0 0.001553 704.38483 719.91785
744.0 0.001344 703.72693 723.15485
642.0 0.001558 703.06982 729.49011
705.0 0.001418 702.41357 740.97241
732.0 0.001366 701.75824 759.76398
721.0 0.001387 701.10388 784.55457
841.0 0.001189 700.45050 811.43829
820.0 0.001220 699.79803 831.33160
864.0 0.001157 699.14667 834.19647
810.0 0.001235 698.49634 818.91266
768.0 0.001302 697.84723 795.06421
756.0 0.001323 697.19910 772.64764
720.0 0.001389 696.55200 756.89746
719.0 0.001391 695.90619 748.87170
687.0 0.001456 695.26141 747.32727
748.0 0.001337 694.61798 750.60529
677.0 0.001477 693.97571 757.88586
780.0 0.001282 693.33466 770.01013
800.0 0.001250 692.69507 790.86346
859.0 0.001164 692.05658 830.35657
959.0 0.001043 691.41956 908.69122
1107.0 0.000903 690.78381 1058.13477
1346.0 0.000743 690.14935 1316.41724
1817.0 0.000550 689.51642 1696.28699
2280.0 0.000439 688.88483 2161.39233
2802.0 0.000357 688.25470 2592.19995
3098.0 0.0003228 687.62598 2802.71875
2827.0 0.000354 686.99896 2671.72021
2386.0 0.000419 686.37335 2290.88696
1899.0 0.000527 685.74921 1857.19995
1564.0 0.000639 685.12665 1504.55774
1358.0 0.000736 684.50568 1272.46765
1132.0 0.000883 683.88635 1132.55225
1052.0 0.000951 683.26855 1034.59900
981.0 0.001019 682.65247 950.40961
876.0 0.001142 682.03815 877.52307
849.0 0.001178 681.42548 819.96741
797.0 0.001255 680.81445 779.22205
722.0 0.001385 680.20520 753.01123
761.0 0.001314 679.59766 737.02515
716.0 0.001397 678.99188 727.15735
749.0 0.001335 678.38794 720.62201
768.0 0.001302 677.78583 715.91180
696.0 0.001437 677.18561 712.31757
736.0 0.001359 676.58716 709.51697
701.0 0.001427 675.99066 707.35358
673.0 0.001486 675.39600 705.74585
701.0 0.001427 674.80328 704.65619
630.0 0.001587 674.21246 704.08270
675.0 0.001481 673.62360 704.06384
734.0 0.001362 673.03674 704.70221
694.0 0.001441 672.45178 706.24774
687.0 0.001456 671.86902 709.33319
690.0 0.001449 671.28821 715.52686
716.0 0.001397 670.70941 728.28418
747.0 0.001339 670.13257 753.87451
804.0 0.001244 669.55792 800.90985
854.0 0.001171 668.98535 876.65393
983.0 0.001017 668.41486 979.86060
1096.0 0.000912 667.84662 1092.76025
1197.0 0.000835 667.28052 1177.25488
1144.0 0.000874 666.71649 1189.36768
1110.0 0.000901 666.15466 1121.30530
984.0 0.001016 665.59497 1012.47705
886.0 0.001129 665.03754 905.97418
840.0 0.001190 664.48230 825.09454
789.0 0.001267 663.92926 774.56219
715.0 0.001399 663.37860 748.66803
735.0 0.001361 662.83020 738.98901
734.0 0.001362 662.28400 739.35742
782.0 0.001279 661.74005 747.74115
832.0 0.001202 661.19849 767.25836
841.0 0.001189 660.65918 808.33624
951.0 0.001052 660.12219 891.46820
1072.0 0.000933 659.58759 1046.74670
1446.0 0.000692 659.05530 1299.96985
1829.0 0.000547 658.52545 1652.26331
2241.0 0.000446 657.99799 2049.35742
2545.0 0.000393 657.47284 2365.30078
2627.0 0.000381 656.95013 2441.04004
2350.0 0.000426 656.42987 2226.13867
1967.0 0.000508 655.91193 1845.39392
1450.0 0.000690 655.39642 1456.00427
1132.0 0.000883 654.88336 1145.98486
907.0 0.001103 654.37280 942.30579
909.0 0.001100 653.86475 825.24536
809.0 0.001236 653.35901 763.82971
730.0 0.001370 652.85590 732.04498
671.0 0.001490 652.35510 714.19055
689.0 0.001451 651.85693 702.48059
689.0 0.001451 651.36115 694.13092
731.0 0.001368 650.86804 687.63800
688.0 0.001453 650.37732 682.40497
668.0 0.001497 649.88916 678.09662
645.0 0.001550 649.40356 674.49286
698.0 0.001433 648.92041 671.43799
689.0 0.001451 648.43982 668.81799
671.0 0.001490 647.96179 666.54767
704.0 0.001420 647.48627 664.56262
643.0 0.001555 647.01337 662.81366
695.0 0.001439 646.54291 661.26288
782.0 0.001279 646.07513 659.88080
757.0 0.001321 645.60992 658.64441
726.0 0.001377 645.14728 657.53595
716.0 0.001397 644.68713 656.54187
732.0 0.001366 644.22955 655.65210
724.0 0.001381 643.77460 654.85938
660.0 0.001515 643.32220 654.15906
671.0 0.001490 642.87244 653.54944
661.0 0.001513 642.42517 653.03064
642.0 0.001558 641.98059 652.60608
706.0 0.001416 641.53857 652.28162
695.0 0.001439 641.09912 652.06689
677.0 0.001477 640.66223 651.97607
624.0 0.001603 640.22803 652.02893
685.0 0.001460 639.79626 652.25220
668.0 0.001497 639.36713 652.68372
688.0 0.001453 638.94067 652.90204
734.0 0.001362 638.51678 653.94507
739.0 0.001353 638.09546 655.43665
753.0 0.001328 637.67670 657.58112
781.0 0.001280 637.26056 660.82025
716.0 0.001397 636.84692 666.22229
743.0 0.001346 636.43591 676.30377
684.0 0.001462 636.02747 696.24927
695.0 0.001439 635.62158 734.69122
851.0 0.001175 635.21832 802.12115
921.0 0.001086 634.81763 905.10864
992.0 0.001008 634.41949 1037.09692
1103.0 0.000907 634.02393 1169.51416
1199.0 0.000834 633.63086 1250.71582
1158.0 0.000864 633.24036 1234.11694
1064.0 0.000940 632.85236 1129.28491
930.0 0.001075 632.46692 990.83667
777.0 0.001287 632.08405 864.84961
720.0 0.001389 631.70374 772.18011
666.0 0.001502 631.32593 712.46942
692.0 0.001445 630.95062 680.24969
672.0 0.001488 630.57782 663.42657
637.0 0.001570 630.20746 654.40851
673.0 0.001486 629.83966 648.99451
672.0 0.001488 629.47443 645.26312
606.0 0.001650 629.11151 642.42194
618.0 0.001618 628.75122 640.13690
682.0 0.001466 628.39325 639.42810
627.0 0.001595 628.03784 637.85931
643.0 0.001555 627.68488 636.51526
654.0 0.001529 627.33423 635.34729
653.0 0.001531 626.98615 634.31964
615.0 0.001626 626.64038 633.40497
683.0 0.001464 626.29712 632.58295
700.0 0.001429 625.95618 631.83728
672.0 0.001488 625.61774 631.15582
689.0 0.001451 625.28162 630.52856
714.0 0.001401 624.94781 629.94775
649.0 0.001541 624.61646 629.40710
664.0 0.001506 624.28735 628.90149
640.0 0.001563 623.96063 628.42688
630.0 0.001587 623.63623 627.97998
610.0 0.001639 623.31409 627.55792
610.0 0.001639 622.99438 627.15863
626.0 0.001597 622.67688 626.86572
628.0 0.001592 622.36163 626.50916
640.0 0.001563 622.04865 626.17108
594.0 0.001684 621.73792 625.85046
605.0 0.001653 621.42944 625.54669
666.0 0.001502 621.12317 625.25922
583.0 0.001715 620.81915 624.98773
649.0 0.001541 620.51733 624.73218
589.0 0.001698 620.21765 624.49231
629.0 0.001590 619.92010 624.26874
623.0 0.001605 619.62482 624.06152
588.0 0.001701 619.33154 623.87109
606.0 0.001650 619.04053 623.69824
612.0 0.001634 618.75146 623.54364
588.0 0.001701 618.46460 623.40845
630.0 0.001587 618.17975 623.29376
601.0 0.001664 617.89709 623.20123
561.0 0.001783 617.61633 623.13245
616.0 0.001623 617.33765 623.08923
590.0 0.001695 617.06104 623.07428
652.0 0.001534 616.78632 623.09027
608.0 0.001645 616.51367 623.14032
598.0 0.001672 616.24292 623.22845
577.0 0.001733 615.97418 623.35907
634.0 0.001577 615.70740 623.53760
623.0 0.001605 615.44244 623.77026
616.0 0.001623 615.17944 623.46802
523.0 0.001912 614.91827 623.85358
602.0 0.001661 614.65900 624.31982
593.0 0.001686 614.40155 624.87994
628.0 0.001592 614.14594 625.55011
629.0 0.001590 613.89215 626.35034
624.0 0.001603 613.64020 627.30518
619.0 0.001616 613.38995 628.44556
630.0 0.001587 613.14148 629.81036
621.0 0.001610 612.89471 631.44952
587.0 0.001704 612.64966 633.42773
622.0 0.001608 612.40637 635.82935
624.0 0.001603 612.16473 638.76685
615.0 0.001626 611.92468 642.39301
654.0 0.001529 611.68640 646.92169
629.0 0.001590 611.44971 652.67438
613.0 0.001631 611.21454 660.20776
623.0 0.001605 610.98108 670.68842
707.0 0.001414 610.74908 686.88159
744.0 0.001344 610.51862 715.27417
755.0 0.001325 610.28973 769.34155
881.0 0.001135 610.06238 871.99835
1063.0 0.000941 609.83643 1052.32043
1382.0 0.000724 609.61206 1331.32385
1860.0 0.000538 609.38910 1697.74426
2188.0 0.000457 609.16748 2082.70337
2412.0 0.000415 608.94733 2349.68921
2353.0 0.000425 608.72858 2354.44214
2108.0 0.000474 608.51117 2092.29614
1742.0 0.000574 608.29510 1706.84668
1310.0 0.000763 608.08038 1337.95776
992.0 0.001008 607.86700 1056.20715
838.0 0.001193 607.65485 873.84851
816.0 0.001225 607.44391 770.17004
740.0 0.001351 607.23431 715.93701
646.0 0.001548 607.02594 688.08435
684.0 0.001462 606.81873 673.35254
656.0 0.001524 606.61273 666.06732
676.0 0.001479 606.40784 665.00262
683.0 0.001464 606.20410 671.04474
667.0 0.001499 606.00153 685.26709
699.0 0.001431 605.80005 706.88947
757.0 0.001321 605.59961 731.32129
739.0 0.001353 605.40021 749.15082
760.0 0.001316 605.20184 749.52997
734.0 0.001362 605.00452 730.50604
704.0 0.001420 604.80823 701.57593
631.0 0.001585 604.61292 673.11511
667.0 0.001499 604.41852 650.69867
691.0 0.001447 604.22504 635.57776
652.0 0.001534 604.03253 626.43744
637.0 0.001570 603.84082 621.17297
597.0 0.001675 603.65002 618.03107
597.0 0.001675 603.46008 615.94122
606.0 0.001650 603.27100 614.37231
615.0 0.001626 603.08264 619.84406
566.0 0.001767 602.89520 618.95020
604.0 0.001656 602.70850 618.20215
574.0 0.001742 602.52240 617.57043
673.0 0.001486 602.33716 617.03491
575.0 0.001739 602.15247 616.58069
558.0 0.001792 601.96869 616.19672
592.0 0.001689 601.78546 615.87439
614.0 0.001629 601.60284 615.60699
589.0 0.001698 601.42084 615.38965
582.0 0.001718 601.23950 615.21838
599.0 0.001669 601.05865 615.09015
549.0 0.001821 600.87848 615.00293
567.0 0.001764 600.69879 614.95490
628.0 0.001592 600.51965 614.94519
604.0 0.001656 600.34094 614.97296
591.0 0.001692 600.16278 615.03839
570.0 0.001754 599.98505 615.14148
589.0 0.001698 599.80780 615.28302
570.0 0.001754 599.63098 615.46387
596.0 0.001678 599.45447 615.68518
569.0 0.001757 599.27838 615.94897
602.0 0.001661 599.10266 617.21436
605.0 0.001653 598.92725 617.59766
650.0 0.001538 598.75220 618.03186
614.0 0.001629 598.57745 618.52057
604.0 0.001656 598.40302 619.06763
615.0 0.001626 598.22882 619.67743
640.0 0.001563 598.05487 620.35535
631.0 0.001585 597.88110 621.10724
634.0 0.001577 597.70758 621.93982
638.0 0.001567 597.53424 622.86084
569.0 0.001757 597.36108 623.87909
607.0 0.001647 597.18811 625.00458
624.0 0.001603 597.01520 626.24896
609.0 0.001642 596.84247 627.62573
625.0 0.001600 596.66986 629.15002
662.0 0.001511 596.49719 630.83978
603.0 0.001658 596.32471 632.71588
614.0 0.001629 596.15228 634.80255
642.0 0.001558 595.97980 637.12817
636.0 0.001572 595.80731 638.53967
660.0 0.001515 595.63489 641.48346
650.0 0.001538 595.46240 644.78540
717.0 0.001395 595.28992 648.50250
681.0 0.001468 595.11737 652.70343
707.0 0.001414 594.94470 657.47137
750.0 0.001333 594.77191 662.90851
719.0 0.001391 594.59906 669.14111
733.0 0.001364 594.42609 676.32611
713.0 0.001403 594.25299 684.66138
686.0 0.001458 594.07965 694.39807
711.0 0.001406 593.90625 705.85968
759.0 0.001318 593.73260 719.46729
733.0 0.001364 593.55872 735.77753
746.0 0.001340 593.38464 755.53870
722.0 0.001385 593.21033 779.78430
790.0 0.001266 593.03571 810.02112
890.0 0.001124 592.86090 848.62885
979.0 0.001021 592.68573 900.60529
990.0 0.001010 592.51038 976.85138
1166.0 0.000858 592.33466 1103.20959
1445.0 0.000692 592.15863 1335.35339
1950.0 0.000513 591.98224 1774.35315
2794.0 0.000358 591.80542 2563.22534
4023.0 0.0002486 591.62830 3836.49219
5982.0 0.0001672 591.45081 5613.71240
8190.0 0.0001221 591.27295 7668.13330
9843.0 0.0001016 591.09467 9425.68262
10527.0 0.0000950 590.91595 10073.11523
9139.0 0.0001094 590.73682 9209.59473
7270.0 0.0001376 590.55719 7349.09424
5093.0 0.0001963 590.37714 5306.44434
3404.0 0.0002938 590.19666 3600.90088
2408.0 0.000415 590.01556 2411.42651
1715.0 0.000583 589.83411 1691.02271
1324.0 0.000755 589.65210 1297.19775
1071.0 0.000934 589.46954 1091.13977
1019.0 0.000981 589.28644 979.49139
1035.0 0.000966 589.10284 912.78345
867.0 0.001153 588.91864 868.87390
845.0 0.001183 588.73395 838.94342
846.0 0.001182 588.54865 820.26166
811.0 0.001233 588.36273 814.11292
837.0 0.001195 588.17621 826.68433
911.0 0.001098 587.98920 870.84094
1009.0 0.000991 587.80145 965.63080
1210.0 0.000826 587.61310 1129.50415
1354.0 0.000739 587.42419 1365.78943
1643.0 0.000609 587.23456 1644.49316
1831.0 0.000546 587.04425 1887.72229
1857.0 0.000539 586.85333 1981.92590
1740.0 0.000575 586.66168 1865.33704
1499.0 0.000667 586.46948 1604.21973
1265.0 0.000791 586.27649 1312.83728
1050.0 0.000952 586.08282 1066.24121
878.0 0.001139 585.88843 891.58295
786.0 0.001272 585.69336 783.63031
722.0 0.001385 585.49750 722.86902
718.0 0.001393 585.30103 689.64459
710.0 0.001408 585.10376 670.44543
670.0 0.001493 584.90576 657.96533
634.0 0.001577 584.70703 648.84698
642.0 0.001558 584.50745 641.65686
716.0 0.001397 584.30725 635.75079
591.0 0.001692 584.10626 630.78625
602.0 0.001661 583.90442 626.54675
626.0 0.001597 583.70184 622.88025
593.0 0.001686 583.49841 619.67444
620.0 0.001613 583.29425 616.84430
633.0 0.001580 583.08936 614.32428
628.0 0.001592 582.88361 612.06311
622.0 0.001608 582.67712 610.02020
610.0 0.001639 582.46967 608.16278
626.0 0.001597 582.26154 606.46454
547.0 0.001828 582.05255 604.90387
608.0 0.001645 581.84271 603.46265
550.0 0.001818 581.63208 602.12610
605.0 0.001653 581.42065 600.88153
595.0 0.001681 581.20831 599.71826
604.0 0.001656 580.99530 598.62738
553.0 0.001808 580.78131 597.60083
576.0 0.001736 580.56647 596.63196
589.0 0.001698 580.35083 595.71503
600.0 0.001667 580.13434 594.84485
622.0 0.001608 579.91699 594.01691
567.0 0.001764 579.69885 593.22754
568.0 0.001761 579.47986 592.47296
551.0 0.001815 579.25995 591.75031
568.0 0.001761 579.03925 591.05670
535.0 0.001869 578.81763 590.38977
553.0 0.001808 578.59521 589.74731
555.0 0.001802 578.37195 589.12738
585.0 0.001709 578.14777 588.52808
563.0 0.001776 577.92273 587.94800
601.0 0.001664 577.69690 587.38568
527.0 0.001898 577.47021 586.83960
568.0 0.001761 577.24268 586.30872
528.0 0.001894 577.01422 579.07086
589.0 0.001698 576.78497 578.75726
576.0 0.001736 576.55481 578.57928
554.0 0.001805 576.32379 578.27765
562.0 0.001779 576.09198 577.97955
559.0 0.001789 575.85931 577.68494
551.0 0.001815 575.62579 577.39325
585.0 0.001709 575.39142 577.10443
587.0 0.001704 575.15625 576.81805
638.0 0.001567 574.92010 576.53400
666.0 0.001502 574.68323 576.25220
701.0 0.001427 574.44550 575.97247
685.0 0.001460 574.20691 575.69446
716.0 0.001397 573.96753 575.41821
689.0 0.001451 573.72729 575.14362
640.0 0.001563 573.48627 574.87042
616.0 0.001623 573.24438 574.59851
634.0 0.001577 573.00165 574.32800
559.0 0.001789 572.75812 574.22668
533.0 0.001876 572.51379 573.96350
535.0 0.001869 572.26868 573.70172
559.0 0.001789 572.02277 573.44116
568.0 0.001761 571.77606 572.22644
556.0 0.001799 571.52850 571.99554
593.0 0.001686 571.28021 571.76489
602.0 0.001661 571.03107 571.53455
632.0 0.001582 570.78119 571.30450
632.0 0.001582 570.53058 571.07489
585.0 0.001709 570.27911 570.84589
563.0 0.001776 570.02692 570.61749
615.0 0.001626 569.77405 570.39001
594.0 0.001684 569.52032 570.16339
593.0 0.001686 569.26593 569.93805
552.0 0.001812 569.01068 569.71387
559.0 0.001789 568.75476 569.49127
542.0 0.001845 568.49811 569.27057
579.0 0.001727 568.24078 569.05182
531.0 0.001883 567.98267 568.83539
482.0 0.002075 567.72394 568.62170
545.0 0.001835 567.46442 568.41113
548.0 0.001825 567.20428 568.20410
546.0 0.001832 566.94336 568.00110
549.0 0.001821 566.68182 567.80286
532.0 0.001880 566.41956 567.60986
537.0 0.001862 566.15662 567.42328
549.0 0.001821 565.89307 567.24377
536.0 0.001866 565.62897 567.07275
544.0 0.001838 565.36414 566.91144
515.0 0.001942 565.09863 566.76154
534.0 0.001873 564.83252 566.62506
511.0 0.001957 564.56586 566.50452
599.0 0.001669 564.29852 566.40283
528.0 0.001894 564.03058 566.32385
581.0 0.001721 563.76202 566.27222
564.0 0.001773 563.49298 566.25403
532.0 0.001880 563.22339 566.27704
570.0 0.001754 562.95306 566.35095
543.0 0.001842 562.68231 566.48938
546.0 0.001832 562.41095 566.71027
520.0 0.001923 562.13910 567.03906
576.0 0.001736 561.86670 567.51514
542.0 0.001845 561.59375 568.20990
562.0 0.001779 561.32031 569.27594
550.0 0.001818 561.04639 577.23529
555.0 0.001802 560.77197 580.69617
565.0 0.001770 560.49701 587.12329
562.0 0.001779 560.22168 598.78229
585.0 0.001709 559.94586 618.22369
624.0 0.001603 559.66956 646.83801
674.0 0.001484 559.39282 682.74243
719.0 0.001391 559.11560 718.68683
696.0 0.001437 558.83801 741.47748
696.0 0.001437 558.56006 738.73889
676.0 0.001479 558.28168 712.33350
655.0 0.001527 558.00287 676.14880
600.0 0.001667 557.72369 642.35315
611.0 0.001637 557.44409 616.87531
587.0 0.001704 557.16418 600.75385
619.0 0.001616 556.88397 592.37878
618.0 0.001618 556.60339 589.67694
634.0 0.001577 556.32251 591.64429
732.0 0.001366 556.04126 599.01801
794.0 0.001259 555.75977 614.12994
912.0 0.001096 555.47791 639.79218
924.0 0.001082 555.19574 677.10626
1010.0 0.000990 554.91333 722.66705
1024.0 0.000977 554.63068 766.01306
957.0 0.001045 554.34784 789.72906
847.0 0.001181 554.06470 780.18152
824.0 0.001214 553.78137 743.18463
734.0 0.001362 553.49774 696.80408
631.0 0.001585 553.21393 655.02911
634.0 0.001577 552.92993 624.05658
579.0 0.001727 552.64575 604.32458
592.0 0.001689 552.36139 593.24524
584.0 0.001712 552.07690 587.61078
611.0 0.001637 551.79224 584.94775
524.0 0.001908 551.50745 583.79761
520.0 0.001923 551.22253 583.44806
554.0 0.001805 550.93750 583.59314
537.0 0.001862 550.65234 584.10760
573.0 0.001745 550.36707 584.93958
584.0 0.001712 550.08173 586.06848
608.0 0.001645 549.79626 587.49054
577.0 0.001733 549.51080 589.21417
569.0 0.001757 549.22534 591.25769
606.0 0.001650 548.93982 593.64923
550.0 0.001818 548.65417 596.42706
601.0 0.001664 548.36859 599.64111
574.0 0.001742 548.08301 603.35449
626.0 0.001597 547.79742 607.64642
605.0 0.001653 547.51184 612.61572
608.0 0.001645 547.22626 618.38678
619.0 0.001616 546.94080 625.11609
617.0 0.001621 546.65533 633.00232
650.0 0.001538 546.36993 642.30011
641.0 0.001560 546.08466 653.33936
716.0 0.001397 545.79938 666.55225
695.0 0.001439 545.51422 682.51447
692.0 0.001445 545.22919 702.00928
801.0 0.001248 544.94427 726.14734
787.0 0.001271 544.65948 756.64935
864.0 0.001157 544.37488 796.61890
865.0 0.001156 544.09039 852.64441
1032.0 0.000969 543.80609 939.78900
1201.0 0.000833 543.52191 1090.99841
1553.0 0.000644 543.23792 1369.32837
1979.0 0.000505 542.95410 1873.26550
2722.0 0.000367 542.67047 2716.65234
4095.0 0.0002442 542.38715 3968.68091
5824.0 0.0001717 542.10400 5562.97559
7575.0 0.0001320 541.82117 7203.80908
8248.0 0.0001212 541.53845 8323.38672
8306.0 0.0001204 541.25604 8329.66406
6956.0 0.0001438 540.97394 7215.09570
5339.0 0.0001873 540.69208 5571.88916
3801.0 0.0002631 540.41052 3973.61646
2641.0 0.000379 540.12921 2740.26025
1830.0 0.000546 539.84833 1894.64893
1426.0 0.000701 539.56769 1389.65112
1128.0 0.000887 539.28735 1111.07056
992.0 0.001008 539.00732 959.84534
802.0 0.001247 538.72772 872.91986
809.0 0.001236 538.44843 817.12885
772.0 0.001295 538.16956 777.40820
763.0 0.001311 537.89099 747.18475
659.0 0.001517 537.61285 723.36597
693.0 0.001443 537.33514 704.23663
646.0 0.001548 537.05780 688.68933
658.0 0.001520 536.78082 675.94312
641.0 0.001560 536.50433 665.42548
726.0 0.001377 536.22827 656.70673
627.0 0.001595 535.95264 649.46039
608.0 0.001645 535.67749 643.43524
676.0 0.001479 535.40271 638.43646
609.0 0.001642 535.12854 634.31146
698.0 0.001433 534.85474 630.93994
586.0 0.001706 534.58142 638.86273
606.0 0.001650 534.30865 637.05560
630.0 0.001587 534.03632 635.78717
618.0 0.001618 533.76459 635.01208
590.0 0.001695 533.49329 634.69562
575.0 0.001739 533.22253 634.81232
636.0 0.001572 532.95233 635.34436
622.0 0.001608 532.68268 636.28070
637.0 0.001570 532.41357 637.61694
621.0 0.001610 532.14496 639.35394
590.0 0.001695 531.87701 641.49847
638.0 0.001567 531.60956 644.06262
618.0 0.001618 531.34277 647.06433
671.0 0.001490 531.07648 650.52728
663.0 0.001508 530.81079 654.48163
686.0 0.001458 530.54578 658.96442
655.0 0.001527 530.28131 664.02045
679.0 0.001473 530.01746 669.70380
719.0 0.001391 529.75427 676.07849
742.0 0.001348 529.49170 683.22095
711.0 0.001406 529.22974 691.22162
672.0 0.001488 528.96838 700.18835
685.0 0.001460 528.70776 710.24933
697.0 0.001435 528.44775 721.55811
738.0 0.001355 528.18842 734.30646
690.0 0.001449 527.92969 748.70203
693.0 0.001443 527.67169 765.02252
659.0 0.001517 527.41431 783.59845
796.0 0.001256 527.15765 804.83710
826.0 0.001211 526.90167 829.24457
832.0 0.001202 526.64636 857.45569
845.0 0.001183 526.39185 890.27478
847.0 0.001181 526.13794 928.73132
953.0 0.001049 525.88477 974.16162
1000.0 0.001000 525.63226 1028.32178
1027.0 0.000974 525.38055 1093.56335
1102.0 0.000907 525.12952 1173.12793
1191.0 0.000840 524.87921 1271.76367
1412.0 0.000708 524.62958 1397.29810
1572.0 0.000636 524.38068 1564.99072
1806.0 0.000554 524.13263 1808.39575
2228.0 0.000449 523.88525 2202.82544
2903.0 0.0003445 523.63867 2902.61401
4105.0 0.0002436 523.39276 4176.57227
6541.0 0.0001529 523.14758 6394.80078
9948.0 0.0001005 522.90326 9899.13477
14914.0 0.0000671 522.65961 14776.66309
21097.0 0.0000474 522.41675 20507.04883
26267.0 0.0000381 522.17474 25703.17773
28699.0 0.0000348 521.93341 28204.99609
26102.0 0.0000383 521.69281 26566.55859
20830.0 0.0000480 521.45300 21769.27539
15384.0 0.0000650 521.21399 16020.50195
10370.0 0.0000964 520.97571 10916.69824
6839.0 0.0001462 520.73828 7136.53027
4627.0 0.0002161 520.50159 4703.80127
3314.0 0.0003018 520.26575 3304.35669
2700.0 0.000370 520.03058 2558.94434
2315.0 0.000432 519.79626 2176.09180
2055.0 0.000487 519.56268 1985.44397
1976.0 0.000506 519.32990 1911.49548
1943.0 0.000515 519.09796 1943.32849
2160.0 0.000463 518.86676 2124.14087
2508.0 0.000399 518.63641 2556.65747
3426.0 0.0002919 518.40674 3400.96021
4818.0 0.0002076 518.17792 4831.32422
7009.0 0.0001427 517.94995 6932.57373
9875.0 0.0001013 517.72272 9559.11816
12459.0 0.0000803 517.49628 12174.83496
14057.0 0.0000711 517.27057 13828.15039
13467.0 0.0000743 517.04572 13612.64160
11253.0 0.0000889 516.82166 11639.98340
8490.0 0.0001178 516.59839 8904.41406
5848.0 0.0001710 516.37592 6295.25684
3980.0 0.0002513 516.15424 4257.15137
2701.0 0.000370 515.93335 2880.41968
1928.0 0.000519 515.71320 2049.36328
1574.0 0.000635 515.49390 1581.86499
1351.0 0.000740 515.27533 1321.03918
1173.0 0.000853 515.05756 1165.89685
1082.0 0.000924 514.84058 1063.09338
1050.0 0.000952 514.62445 987.87604
946.0 0.001057 514.40900 929.23389
919.0 0.001088 514.19440 881.90527
833.0 0.001200 513.98053 842.95032
771.0 0.001297 513.76746 810.47705
763.0 0.001311 513.55518 783.17828
742.0 0.001348 513.34357 761.12854
702.0 0.001425 513.13281 741.73236
688.0 0.001453 512.92285 725.46198
672.0 0.001488 512.71368 711.84924
660.0 0.001515 512.50513 700.31445
644.0 0.001553 512.29742 690.06226
647.0 0.001546 512.09045 680.16034
614.0 0.001629 511.88425 670.09808
589.0 0.001698 511.67877 660.17957
618.0 0.001618 511.47406 650.98279
621.0 0.001610 511.27008 642.86340
653.0 0.001531 511.06686 635.92578
613.0 0.001631 510.86435 630.12616
586.0 0.001706 510.66257 625.40143
590.0 0.001695 510.46149 621.79193
618.0 0.001618 510.26114 619.51624
621.0 0.001610 510.06155 618.93903
648.0 0.001543 509.86264 620.38538
586.0 0.001706 509.66443 623.81476
569.0 0.001757 509.46698 628.44482
624.0 0.001603 509.27020 632.43311
624.0 0.001603 509.07410 633.16339
605.0 0.001653 508.87869 629.27948
602.0 0.001661 508.68396 622.34650
606.0 0.001650 508.48993 614.99359
523.0 0.001912 508.29657 608.98242
561.0 0.001783 508.10385 605.02844
624.0 0.001603 507.91187 603.13617
560.0 0.001786 507.72052 602.96844
578.0 0.001730 507.52979 604.15448
580.0 0.001724 507.33972 606.45557
601.0 0.001664 507.15033 587.15222
612.0 0.001634 506.96155 592.24298
577.0 0.001733 506.77338 598.58087
595.0 0.001681 506.58585 606.42950
596.0 0.001678 506.39893 616.16016
598.0 0.001672 506.21262 628.29401
678.0 0.001475 506.02692 643.60242
649.0 0.001541 505.84183 663.36505
645.0 0.001550 505.65735 690.06885
683.0 0.001464 505.47345 729.14813
764.0 0.001309 505.29010 792.74634
933.0 0.001072 505.10733 904.83722
1102.0 0.000907 504.92511 1107.38806
1503.0 0.000665 504.74350 1457.75208
2080.0 0.000481 504.56244 2010.34973
3013.0 0.0003319 504.38187 2779.08862
3932.0 0.0002543 504.20187 3689.74023
4691.0 0.0002132 504.02243 4534.94629
4927.0 0.0002030 503.84348 4979.54785
4681.0 0.0002136 503.66504 4773.26172
4005.0 0.0002497 503.48712 4038.69800
3044.0 0.0003285 503.30972 3109.83228
2054.0 0.000487 503.13281 2273.30176
1596.0 0.000627 502.95636 1638.32178
1146.0 0.000873 502.78043 1218.81433
898.0 0.001114 502.60495 970.54083
872.0 0.001147 502.42993 834.07446
761.0 0.001314 502.25534 761.02417
694.0 0.001441 502.08124 721.59595
693.0 0.001443 501.90759 701.50995
734.0 0.001362 501.73438 696.92975
765.0 0.001307 501.56155 711.47528
764.0 0.001309 501.38913 755.02728
863.0 0.001159 501.21713 841.60809
967.0 0.001034 501.04553 983.73975
1283.0 0.000779 500.87433 1180.90430
1528.0 0.000654 500.70355 1409.14001
1701.0 0.000588 500.53311 1608.99963
1749.0 0.000572 500.36304 1692.73035
1750.0 0.000571 500.19333 1608.68616
1588.0 0.000630 500.02399 1403.13330
1263.0 0.000792 499.85492 1164.34839
1081.0 0.000925 499.68622 953.68799
940.0 0.001064 499.51785 796.66785
798.0 0.001253 499.34982 693.69641
699.0 0.001431 499.18207 632.27045
694.0 0.001441 499.01465 597.30334
579.0 0.001727 498.84750 577.01245
564.0 0.001773 498.68063 564.22144
534.0 0.001873 498.51398 555.50946
545.0 0.001835 498.34763 548.67358
587.0 0.001704 498.18158 543.18848
531.0 0.001883 498.01575 538.66364
545.0 0.001835 497.85013 534.87250
521.0 0.001919 497.68475 531.65131
603.0 0.001658 497.51962 528.89240
703.0 0.001422 497.35468 526.51184
668.0 0.001497 497.18994 524.44659
791.0 0.001264 497.02539 522.64825
758.0 0.001319 496.86102 521.05182
800.0 0.001250 496.69681 519.68677
772.0 0.001295 496.53278 518.50348
694.0 0.001441 496.36890 517.48785
663.0 0.001508 496.20523 516.63171
654.0 0.001529 496.04163 515.93225
707.0 0.001414 495.87817 515.39368
726.0 0.001377 495.71484 515.02795
721.0 0.001387 495.55164 514.86017
647.0 0.001546 495.38852 514.94098
614.0 0.001629 495.22546 515.38037
603.0 0.001658 495.06256 516.42834
588.0 0.001701 494.89966 518.62714
584.0 0.001712 494.73691 523.02350
566.0 0.001767 494.57419 531.30713
528.0 0.001894 494.41153 545.59540
540.0 0.001852 494.24887 567.58118
614.0 0.001629 494.08624 597.06927
592.0 0.001689 493.92365 630.28210
601.0 0.001664 493.76108 658.39972
635.0 0.001575 493.59851 668.98608
604.0 0.001656 493.43600 655.71179
590.0 0.001695 493.27341 626.05762
545.0 0.001835 493.11084 592.45520
540.0 0.001852 492.94821 563.20624
490.0 0.002041 492.78552 541.65100
519.0 0.001927 492.62280 527.72089
537.0 0.001862 492.46005 519.62885
507.0 0.001972 492.29721 515.28510
475.0 0.002105 492.13437 509.34879
494.0 0.002024 491.97141 508.43152
505.0 0.001980 491.80835 508.22577
489.0 0.002045 491.64517 508.55780
482.0 0.002075 491.48190 509.41888
552.0 0.001812 491.31848 510.94199
551.0 0.001815 491.15500 514.57483
604.0 0.001656 490.99136 519.03583
551.0 0.001815 490.82761 527.10535
543.0 0.001842 490.66373 541.79315
607.0 0.001647 490.49966 567.30194
639.0 0.001565 490.33542 607.81195
686.0 0.001458 490.17102 664.88007
798.0 0.001253 490.00644 734.01794
865.0 0.001156 489.84171 801.26599
837.0 0.001195 489.67673 842.35138
866.0 0.001155 489.51157 835.52655
759.0 0.001318 489.34625 785.12787
678.0 0.001475 489.18066 716.31567
650.0 0.001538 489.01486 650.03943
586.0 0.001706 488.84882 599.45850
556.0 0.001799 488.68253 566.40076
522.0 0.001916 488.51602 549.19672
544.0 0.001838 488.34924 545.28998
558.0 0.001792 488.18219 553.67889
636.0 0.001572 488.01492 575.33954
603.0 0.001658 487.84732 611.62115
667.0 0.001499 487.67950 661.33386
705.0 0.001418 487.51135 717.53619
711.0 0.001406 487.34290 764.88165
780.0 0.001282 487.17416 782.14624
720.0 0.001389 487.00510 758.94000
709.0 0.001410 486.83572 708.27954
655.0 0.001527 486.66605 651.14288
566.0 0.001767 486.49603 601.25232
557.0 0.001795 486.32568 563.86908
548.0 0.001825 486.15500 538.74994
506.0 0.001976 485.98395 523.12781
509.0 0.001965 485.81253 513.77844
488.0 0.002049 485.64081 508.12802
477.0 0.002096 485.46869 504.54584
482.0 0.002075 485.29617 502.13480
487.0 0.002053 485.12332 500.42651
482.0 0.002075 484.95007 499.17175
451.0 0.002217 484.77646 501.71017
472.0 0.002119 484.60242 501.10638
463.0 0.002160 484.42795 500.69327
467.0 0.002141 484.25311 500.44244
501.0 0.001996 484.07788 500.33649
445.0 0.002247 483.90222 500.36581
441.0 0.002268 483.72614 500.52643
461.0 0.002169 483.54962 500.81927
465.0 0.002151 483.37265 501.24966
478.0 0.002092 483.19531 501.82776
503.0 0.001988 483.01746 502.56851
472.0 0.002119 482.83923 503.49310
492.0 0.002033 482.66052 504.62967
497.0 0.002012 482.48132 506.01556
513.0 0.001949 482.30170 507.69995
488.0 0.002049 482.12167 509.74789
477.0 0.002096 481.94110 512.10083
472.0 0.002119 481.76013 515.17084
493.0 0.002028 481.57861 518.97559
533.0 0.001876 481.39667 523.77380
513.0 0.001949 481.21417 530.02582
563.0 0.001776 481.03125 538.67389
525.0 0.001905 480.84781 551.76746
563.0 0.001776 480.66397 573.58203
595.0 0.001681 480.47955 612.02875
657.0 0.001522 480.29462 679.31311
796.0 0.001256 480.10922 789.90521
962.0 0.001040 479.92334 954.19421
1236.0 0.000809 479.73688 1168.42419
1403.0 0.000713 479.54999 1403.37085
1527.0 0.000655 479.36252 1594.93115
1589.0 0.000629 479.17462 1657.58289
1401.0 0.000714 478.98615 1554.98218
1294.0 0.000773 478.79715 1344.49597
1072.0 0.000933 478.60767 1110.87610
852.0 0.001174 478.41760 908.81616
709.0 0.001410 478.22705 759.77722
575.0 0.001739 478.03598 662.72467
586.0 0.001706 477.84436 605.33325
562.0 0.001779 477.65222 573.29382
506.0 0.001976 477.45959 555.48071
522.0 0.001916 477.26639 544.76868
477.0 0.002096 477.07263 538.24097
491.0 0.002037 476.87836 533.93909
540.0 0.001852 476.68356 531.17480
511.0 0.001957 476.48822 529.48560
533.0 0.001876 476.29233 528.73773
524.0 0.001908 476.09589 528.82941
517.0 0.001934 475.89896 529.71313
538.0 0.001859 475.70148 531.38409
542.0 0.001845 475.50339 533.87653
547.0 0.001828 475.30484 537.26440
568.0 0.001761 475.10571 541.66614
572.0 0.001748 474.90601 547.25439
567.0 0.001764 474.70578 554.27179
545.0 0.001835 474.50504 562.80139
581.0 0.001721 474.30380 573.84662
572.0 0.001748 474.10196 587.88989
596.0 0.001678 473.89960 606.23291
631.0 0.001585 473.69672 631.48999
667.0 0.001499 473.49323 669.30365
690.0 0.001449 473.28928 731.55859
795.0 0.001258 473.08475 840.67938
1035.0 0.000966 472.87970 1032.43884
1368.0 0.000731 472.67410 1351.65698
1829.0 0.000547 472.46802 1835.26001
2638.0 0.000379 472.26141 2482.99243
3490.0 0.0002865 472.05420 3222.73193
4163.0 0.0002402 471.84650 3877.93188
4423.0 0.0002261 471.63824 4182.65234
3967.0 0.0002521 471.42950 3966.22217
3342.0 0.0002992 471.22021 3352.23267
2548.0 0.000392 471.01041 2609.96851
1850.0 0.000541 470.80014 1936.75684
1407.0 0.000711 470.58929 1421.22974
1032.0 0.000969 470.37796 1073.86682
846.0 0.001182 470.16611 861.92328
682.0 0.001466 469.95370 740.27155
649.0 0.001541 469.74084 670.85065
651.0 0.001536 469.52750 628.91455
575.0 0.001739 469.31363 601.02606
569.0 0.001757 469.09930 580.88922
577.0 0.001733 468.88440 565.15210
518.0 0.001931 468.66907 552.52368
527.0 0.001898 468.45319 542.24451
482.0 0.002075 468.23688 533.65002
508.0 0.001969 468.02005 527.57184
487.0 0.002053 467.80280 521.47296
496.0 0.002016 467.58502 516.25507
560.0 0.001786 467.36682 511.75558
473.0 0.002114 467.14816 507.84827
471.0 0.002123 466.92899 504.43359
463.0 0.002160 466.70938 501.43304
484.0 0.002066 466.48932 498.78387
501.0 0.001996 466.26883 496.43573
517.0 0.001934 466.04785 494.34802
492.0 0.002033 465.82645 492.48843
451.0 0.002217 465.60461 490.83124
487.0 0.002053 465.38239 489.35645
508.0 0.001969 465.15973 488.04953
475.0 0.002105 464.93665 485.82886
454.0 0.002203 464.71307 484.86621
491.0 0.002037 464.48914 484.06555
498.0 0.002008 464.26480 483.45578
486.0 0.002058 464.04007 483.11185
493.0 0.002028 463.81494 483.20123
460.0 0.002174 463.58945 484.04794
464.0 0.002155 463.36353 486.17538
469.0 0.002132 463.13724 490.29294
463.0 0.002160 462.91058 496.88364
511.0 0.001957 462.68353 506.03589
507.0 0.001972 462.45615 516.76141
547.0 0.001828 462.22839 526.53705
521.0 0.001919 462.00031 531.39526
603.0 0.001658 461.77185 528.44373
539.0 0.001855 461.54309 519.13727
521.0 0.001919 461.31400 507.51553
450.0 0.002222 461.08456 496.73373
484.0 0.002066 460.85480 488.29172
476.0 0.002101 460.62473 482.46100
428.0 0.002336 460.39435 478.80594
445.0 0.002247 460.16364 476.65405
471.0 0.002123 459.93268 475.41092
460.0 0.002174 459.70148 474.67764
478.0 0.002092 459.46991 474.23325
466.0 0.002146 459.23807 473.97180
423.0 0.002364 459.00601 473.84753
479.0 0.002088 458.77365 473.84225
498.0 0.002008 458.54105 473.95068
487.0 0.002053 458.30823 474.17416
468.0 0.002137 458.07513 474.51920
433.0 0.002309 457.84186 474.99661
471.0 0.002123 457.60834 475.62183
471.0 0.002123 457.37457 476.41574
438.0 0.002283 457.14063 477.43710
454.0 0.002203 456.90643 478.65955
445.0 0.002247 456.67206 480.15985
490.0 0.002041 456.43750 481.99878
466.0 0.002146 456.20279 480.76144
498.0 0.002008 455.96783 483.65616
517.0 0.001934 455.73282 487.26251
523.0 0.001912 455.49759 491.88937
473.0 0.002114 455.26221 498.10822
475.0 0.002105 455.02667 506.97784
520.0 0.001923 454.79099 520.33728
528.0 0.001894 454.55524 541.05695
583.0 0.001715 454.31931 573.10559
653.0 0.001531 454.08331 621.40515
738.0 0.001355 453.84723 691.54834
840.0 0.001190 453.61099 788.97491
911.0 0.001098 453.37469 916.65942
1079.0 0.000927 453.13831 1073.71814
1251.0 0.000799 452.90182 1258.50208
1472.0 0.000679 452.66528 1462.19055
1648.0 0.000607 452.42871 1648.11438
1703.0 0.000587 452.19208 1745.60266
1578.0 0.000634 451.95544 1691.18396
1476.0 0.000678 451.71875 1499.90710
1144.0 0.000874 451.48199 1251.10181
994.0 0.001006 451.24527 1014.60315
796.0 0.001256 451.00848 825.82654
663.0 0.001508 450.77179 693.19653
560.0 0.001786 450.53500 608.95758
513.0 0.001949 450.29831 559.02032
517.0 0.001934 450.06158 530.05847
514.0 0.001946 449.82498 512.63269
466.0 0.002146 449.58835 501.23801
473.0 0.002114 449.35178 493.07257
466.0 0.002146 449.11523 486.80853
457.0 0.002188 448.87878 481.80914
465.0 0.002151 448.64243 477.73926
490.0 0.002041 448.40610 474.40164
474.0 0.002110 448.16989 471.66946
492.0 0.002033 447.93384 469.45120
486.0 0.002058 447.69781 467.66495
464.0 0.002155 447.46194 466.21487
450.0 0.002222 447.22617 464.97253
491.0 0.002037 446.99057 463.78101
483.0 0.002070 446.75507 462.54016
484.0 0.002066 446.51971 461.29770
467.0 0.002141 446.28452 460.18375
476.0 0.002101 446.04953 459.32504
466.0 0.002146 445.81467 458.85794
487.0 0.002053 445.58002 458.94113
503.0 0.001988 445.34555 460.04898
466.0 0.002146 445.11127 462.68304
498.0 0.002008 444.87717 467.50162
555.0 0.001802 444.64331 474.98029
566.0 0.001767 444.40970 484.96222
614.0 0.001629 444.17627 496.14374
610.0 0.001639 443.94315 515.16431
620.0 0.001613 443.71021 518.98761
591.0 0.001692 443.47751 514.67407
611.0 0.001637 443.24509 504.47748
551.0 0.001815 443.01294 492.54483
540.0 0.001852 442.78104 481.80338
496.0 0.002016 442.54947 473.55167
480.0 0.002083 442.31818 467.93619
496.0 0.002016 442.08722 464.46463
485.0 0.002062 441.85654 462.45438
493.0 0.002028 441.62613 461.32108
443.0 0.002257 441.39612 460.67749
429.0 0.002331 441.16638 460.30966
458.0 0.002183 440.93701 460.11475
478.0 0.002092 440.70795 460.04865
427.0 0.002342 440.47925 460.09662
431.0 0.002320 440.25098 460.26257
444.0 0.002252 440.02304 460.57297
450.0 0.002222 439.79547 461.09579
477.0 0.002096 439.56824 461.97632
418.0 0.002392 439.34146 463.48285
434.0 0.002304 439.11502 466.02960
455.0 0.002198 438.88901 470.11826
451.0 0.002217 438.66342 476.14536
468.0 0.002137 438.43823 484.08578
509.0 0.001965 438.21350 493.12064
497.0 0.002012 437.98917 501.27274
470.0 0.002128 437.76526 505.52765
476.0 0.002101 437.54184 503.81168
492.0 0.002033 437.31882 497.33896
460.0 0.002174 437.09628 488.98175
482.0 0.002075 436.87421 481.47171
439.0 0.002278 436.65262 475.75034
488.0 0.002049 436.43152 471.97388
495.0 0.002020 436.21085 469.97339
475.0 0.002105 435.99072 468.04813
482.0 0.002075 435.77106 468.05823
479.0 0.002088 435.55191 485.25143
428.0 0.002336 435.33322 486.41049
469.0 0.002132 435.11511 487.78369
413.0 0.002421 434.89749 489.33673
454.0 0.002203 434.68045 491.05859
476.0 0.002101 434.46393 492.94916
483.0 0.002070 434.24789 495.01370
457.0 0.002188 434.03238 497.26157
496.0 0.002016 433.81747 499.70508
530.0 0.001887 433.60312 502.35947
547.0 0.001828 433.38931 505.24304
541.0 0.001848 433.17603 508.37729
565.0 0.001770 432.96338 511.78763
527.0 0.001898 432.75128 515.50330
517.0 0.001934 432.53973 519.55804
518.0 0.001931 432.32883 523.99170
499.0 0.002004 432.11844 528.85004
556.0 0.001799 431.90869 534.18695
502.0 0.001992 431.69952 540.06555
544.0 0.001838 431.49097 546.55804
501.0 0.001996 431.28302 553.75610
560.0 0.001786 431.07571 561.76263
554.0 0.001805 430.86896 570.70276
556.0 0.001799 430.66287 580.72772
547.0 0.001828 430.45737 592.02087
588.0 0.001701 430.25253 604.87244
613.0 0.001631 430.04834 619.42987
619.0 0.001616 429.84476 636.10223
638.0 0.001567 429.64182 655.32300
635.0 0.001575 429.43951 677.64313
687.0 0.001456 429.23788 703.77081
698.0 0.001433 429.03687 734.62964
821.0 0.001218 428.83655 771.44830
739.0 0.001353 428.63681 815.92157
832.0 0.001202 428.43777 870.55939
879.0 0.001138 428.23941 939.54486
1019.0 0.000981 428.04172 1030.86035
1212.0 0.000825 427.84467 1161.04993
1424.0 0.000702 427.64838 1364.15344
1753.0 0.000570 427.45267 1704.48193
2325.0 0.000430 427.25766 2287.18872
3495.0 0.0002861 427.06335 3252.65503
5173.0 0.0001933 426.86966 4738.54932
7027.0 0.0001423 426.67670 6797.42432
9651.0 0.0001036 426.48441 9301.86816
11804.0 0.0000847 426.29282 11830.72070
13197.0 0.0000758 426.10193 13605.24121
13405.0 0.0000746 425.91171 13786.19727
11729.0 0.0000853 425.72220 12272.62402
9603.0 0.0001041 425.53339 9826.26270
7169.0 0.0001395 425.34525 7282.30664
5173.0 0.0001933 425.15778 5130.00146
3651.0 0.0002739 424.97107 3545.37866
2562.0 0.000390 424.78500 2500.50952
1996.0 0.000501 424.59970 1867.48181
1643.0 0.000609 424.41507 1502.42773
1416.0 0.000706 424.23111 1292.27844
1288.0 0.000776 424.04788 1165.63733
1178.0 0.000849 423.86536 1083.94653
1080.0 0.000926 423.68353 1028.41492
1029.0 0.000972 423.50238 990.21100
959.0 0.001043 423.32196 965.01691
989.0 0.001011 423.14221 950.54095
959.0 0.001043 422.96326 945.52032
981.0 0.001019 422.78494 949.34052
1010.0 0.000990 422.60733 961.89752
1005.0 0.000995 422.43045 983.55878
1071.0 0.000934 422.25424 1015.18835
1071.0 0.000934 422.07874 1058.23572
1176.0 0.000850 421.90393 1114.93311
1279.0 0.000782 421.72983 1188.73523
1336.0 0.000749 421.55649 1285.41870
1544.0 0.000648 421.38376 1415.83130
1748.0 0.000572 421.21176 1602.22253
1927.0 0.000519 421.04047 1890.93750
2429.0 0.000412 420.86987 2371.79126
3201.0 0.0003124 420.69995 3198.30615
4534.0 0.0002206 420.53073 4589.17578
6626.0 0.0001509 420.36218 6783.02588
9877.0 0.0001012 420.19440 9929.42188
14139.0 0.0000707 420.02722 13931.17285
18404.0 0.0000543 419.86075 18267.22266
22358.0 0.0000447 419.69498 21833.10547
22388.0 0.0000447 419.52988 23141.88086
20852.0 0.0000480 419.36545 21475.60938
17302.0 0.0000578 419.20169 17725.58008
13075.0 0.0000765 419.03860 13376.88770
9564.0 0.0001046 418.87622 9458.23438
6245.0 0.0001601 418.71451 6427.03516
4381.0 0.0002283 418.55341 4339.71875
3095.0 0.0003231 418.39301 3027.31982
2315.0 0.000432 418.23328 2248.81689
1897.0 0.000527 418.07416 1792.26978
1547.0 0.000646 417.91571 1512.77063
1371.0 0.000729 417.75797 1327.08875
1151.0 0.000869 417.60080 1192.82397
1102.0 0.000907 417.44434 1089.55823
1014.0 0.000986 417.28842 1007.18817
905.0 0.001105 417.13321 940.16779
904.0 0.001106 416.97861 885.07733
826.0 0.001211 416.82465 839.69666
812.0 0.001232 416.67130 802.66724
805.0 0.001242 416.51859 773.33887
726.0 0.001377 416.36646 751.57916
779.0 0.001284 416.21500 737.40472
748.0 0.001337 416.06406 730.40540
821.0 0.001218 415.91376 729.05756
782.0 0.001279 415.76407 730.00470
774.0 0.001292 415.61496 727.74371
843.0 0.001186 415.46643 716.95258
824.0 0.001214 415.31851 697.58392
804.0 0.001244 415.17111 674.81854
789.0 0.001267 415.02435 653.97540
779.0 0.001284 414.87811 638.31158
751.0 0.001332 414.73245 629.54810
711.0 0.001406 414.58734 629.01135
687.0 0.001456 414.44278 639.13049
751.0 0.001332 414.29877 665.22339
686.0 0.001458 414.15530 717.00061
821.0 0.001218 414.01236 808.53210
903.0 0.001107 413.86993 954.98065
1200.0 0.000833 413.72806 1165.18835
1483.0 0.000674 413.58667 1431.37451
1632.0 0.000613 413.44580 1718.12402
1883.0 0.000531 413.30545 1952.33618
1826.0 0.000548 413.16556 2035.80908
1780.0 0.000562 413.02621 1920.48926
1615.0 0.000619 412.88727 1664.86157
1285.0 0.000778 412.74887 1367.93799
1115.0 0.000897 412.61093 1098.96838
925.0 0.001081 412.47345 879.56201
898.0 0.001114 412.33643 733.57886
817.0 0.001224 412.19983 640.34637
724.0 0.001381 412.06369 583.89215
707.0 0.001414 411.92798 549.90826
699.0 0.001431 411.79272 528.44879
664.0 0.001506 411.65784 513.70850
659.0 0.001517 411.52344 502.68600
612.0 0.001634 411.38943 493.91876
535.0 0.001869 411.25583 486.67789
522.0 0.001916 411.12259 480.56052
501.0 0.001996 410.98972 482.36478
460.0 0.002174 410.85724 477.97983
460.0 0.002174 410.72516 474.16086
467.0 0.002141 410.59341 470.80762
450.0 0.002222 410.46204 467.84229
455.0 0.002198 410.33102 465.20370
440.0 0.002273 410.20035 462.84329
429.0 0.002331 410.06998 460.72183
416.0 0.002404 409.93994 458.80765
461.0 0.002169 409.81021 457.07477
426.0 0.002347 409.68082 455.50183
449.0 0.002227 409.55167 454.07108
425.0 0.002353 409.42285 452.76770
408.0 0.002451 409.29437 451.57928
446.0 0.002242 409.16611 450.49539
461.0 0.002169 409.03809 449.50708
456.0 0.002193 408.91037 448.69919
404.0 0.002475 408.78287 447.88309
421.0 0.002375 408.65564 447.14352
399.0 0.002506 408.52859 446.47592
449.0 0.002227 408.40182 445.87656
426.0 0.002347 408.27527 445.34219
403.0 0.002481 408.14890 444.87027
410.0 0.002439 408.02277 444.45874
367.0 0.002725 407.89679 444.10590
418.0 0.002392 407.77097 427.13455
443.0 0.002257 407.64536 427.28967
410.0 0.002439 407.51990 427.48737
406.0 0.002463 407.39462 427.72827
422.0 0.002370 407.26944 428.01315
420.0 0.002381 407.14447 428.34338
461.0 0.002169 407.01959 428.72049
397.0 0.002519 406.89487 429.14648
438.0 0.002283 406.77020 429.62354
417.0 0.002398 406.64563 430.15436
396.0 0.002525 406.52118 430.74210
464.0 0.002155 406.39685 431.39032
406.0 0.002463 406.27252 432.10312
402.0 0.002488 406.14832 432.88504
390.0 0.002564 406.02417 433.74133
441.0 0.002268 405.90005 434.67798
463.0 0.002160 405.77600 435.70160
433.0 0.002309 405.65195 436.81985
452.0 0.002212 405.52795 438.04132
408.0 0.002451 405.40390 439.37564
435.0 0.002299 405.27994 440.83414
466.0 0.002146 405.15591 442.42914
432.0 0.002315 405.03192 444.17523
417.0 0.002398 404.90784 446.08878
458.0 0.002183 404.78378 448.18875
451.0 0.002217 404.65967 450.49686
462.0 0.002165 404.53552 452.97281
405.0 0.002469 404.41135 455.78000
447.0 0.002237 404.28702 458.88153
440.0 0.002273 404.16269 462.31900
407.0 0.002457 404.03821 466.13895
486.0 0.002058 403.91370 470.39651
417.0 0.002398 403.78900 475.15695
455.0 0.002198 403.66431 480.49847
471.0 0.002123 403.53943 486.51474
470.0 0.002128 403.41443 493.31921
534.0 0.001873 403.28931 501.05035
506.0 0.001976 403.16400 509.87766
501.0 0.001996 403.03857 520.01141
508.0 0.001969 402.91293 531.70410
509.0 0.001965 402.78717 545.30713
513.0 0.001949 402.66119 561.23242
539.0 0.001855 402.53503 578.86853
620.0 0.001613 402.40869 601.27142
568.0 0.001761 402.28210 628.22339
662.0 0.001511 402.15536 661.10449
717.0 0.001395 402.02832 702.08154
734.0 0.001362 401.90112 755.01581
811.0 0.001233 401.77362 827.52258
882.0 0.001134 401.64590 935.04053
1070.0 0.000935 401.51791 1107.31653
1415.0 0.000707 401.38965 1396.04333
1773.0 0.000564 401.26117 1875.76721
2494.0 0.000401 401.13232 2634.79517
3598.0 0.0002779 401.00327 3741.34229
5400.0 0.0001852 400.87381 5192.87354
7400.0 0.0001351 400.74411 6855.72656
8893.0 0.0001124 400.61407 8401.19238
9460.0 0.0001057 400.48373 9300.86914
8987.0 0.0001113 400.35309 9112.27051
7979.0 0.0001253 400.22205 7937.37451
6271.0 0.0001595 400.09073 6302.98291
4588.0 0.0002180 399.95895 4684.23779
3131.0 0.0003194 399.82690 3339.39478
2259.0 0.000443 399.69440 2352.09277
1623.0 0.000616 399.56161 1695.41992
1209.0 0.000827 399.42834 1290.12488
983.0 0.001017 399.29477 1050.54187
906.0 0.001104 399.16077 909.78345
767.0 0.001304 399.02631 826.24493
754.0 0.001326 398.89151 775.02643
714.0 0.001401 398.75623 744.79095
689.0 0.001451 398.62057 728.02563
647.0 0.001546 398.48441 717.70056
710.0 0.001408 398.34787 705.38928
676.0 0.001479 398.21085 683.62939
644.0 0.001553 398.07339 651.78845
611.0 0.001637 397.93549 615.66364
590.0 0.001695 397.79703 581.21722
536.0 0.001866 397.65820 551.77472
491.0 0.002037 397.51880 528.37848
512.0 0.001953 397.37897 510.59634
474.0 0.002110 397.23862 497.26511
472.0 0.002119 397.09778 487.09943
481.0 0.002079 396.95648 479.04831
445.0 0.002247 396.81458 472.39639
456.0 0.002193 396.67221 466.70969
416.0 0.002404 396.52924 461.73709
437.0 0.002288 396.38583 457.32968
410.0 0.002439 396.24182 453.39056
451.0 0.002217 396.09732 449.85022
454.0 0.002203 395.95224 446.65445
398.0 0.002513 395.80661 443.75989
451.0 0.002217 395.66046 441.13040
415.0 0.002410 395.51367 438.73596
449.0 0.002227 395.36639 436.55145
427.0 0.002342 395.21851 434.55566
420.0 0.002381 395.07007 432.73077
417.0 0.002398 394.92099 431.06213
419.0 0.002387 394.77136 429.53833
419.0 0.002387 394.62109 428.15143
429.0 0.002331 394.47031 426.89883
420.0 0.002381 394.31891 425.78448
428.0 0.002336 394.16684 424.81961
419.0 0.002387 394.01422 424.02133
445.0 0.002247 393.86096 423.44873
389.0 0.002571 393.70712 423.01700
401.0 0.002494 393.55258 422.74258
417.0 0.002398 393.39752 422.55502
371.0 0.002695 393.24179 422.32980
413.0 0.002421 393.08542 421.93716
407.0 0.002457 392.92841 421.36304
378.0 0.002646 392.77072 420.73047
369.0 0.002710 392.61246 420.18112
405.0 0.002469 392.45352 419.80722
419.0 0.002387 392.29395 419.65536
439.0 0.002278 392.13370 419.74341
419.0 0.002387 391.97284 420.07703
427.0 0.002342 391.81137 420.66403
415.0 0.002410 391.64911 421.52505
468.0 0.002137 391.48630 422.70160
538.0 0.001859 391.32275 424.26416
513.0 0.001949 391.15860 426.33331
559.0 0.001789 390.99374 429.12909
538.0 0.001859 390.82828 433.08536
535.0 0.001869 390.66208 439.06567
556.0 0.001799 390.49527 448.69998
492.0 0.002033 390.32779 464.71021
558.0 0.001792 390.15955 491.00714
564.0 0.001773 389.99072 532.02832
623.0 0.001605 389.82114 591.07684
708.0 0.001412 389.65097 667.78210
849.0 0.001178 389.48007 755.11908
900.0 0.001111 389.30850 836.21753
974.0 0.001027 389.13632 884.20282
913.0 0.001095 388.96335 876.61145
879.0 0.001138 388.78979 818.40845
710.0 0.001408 388.61548 736.31860
667.0 0.001499 388.44055 654.89233
630.0 0.001587 388.26489 587.85474
540.0 0.001852 388.08865 540.19366
533.0 0.001876 387.91162 504.35580
458.0 0.002183 387.73401 492.50186
482.0 0.002075 387.55573 495.15903
544.0 0.001838 387.37665 513.59589
576.0 0.001736 387.19699 552.56146
616.0 0.001623 387.01660 619.69580
734.0 0.001362 386.83560 722.60181
852.0 0.001174 386.65393 863.98206
1076.0 0.000929 386.47156 1035.64185
1241.0 0.000806 386.28848 1211.89978
1370.0 0.000730 386.10483 1344.60156
1302.0 0.000768 385.92053 1376.96191
1284.0 0.000779 385.73547 1291.27307
1184.0 0.000845 385.54984 1129.28162
926.0 0.001080 385.36346 948.02100
833.0 0.001200 385.17654 785.31885
642.0 0.001558 384.98886 657.96167
577.0 0.001733 384.80063 568.09894
514.0 0.001946 384.61169 509.81854
513.0 0.001949 384.42212 473.96082
465.0 0.002151 384.23193 452.19925
446.0 0.002242 384.04105 438.54251
402.0 0.002488 383.84961 429.34824
378.0 0.002646 383.65744 422.69470
427.0 0.002342 383.46478 417.50525
406.0 0.002463 383.27136 413.31989
409.0 0.002445 383.07745 409.86435
413.0 0.002421 382.88290 406.96912
400.0 0.002500 382.68768 404.51852
393.0 0.002545 382.49191 402.42880
455.0 0.002198 382.29547 400.63739
409.0 0.002445 382.09851 399.09747
399.0 0.002506 381.90091 397.77426
410.0 0.002439 381.70276 396.64316
391.0 0.002558 381.50400 395.68954
417.0 0.002398 381.30469 394.91147
383.0 0.002611 381.10486 394.32660
380.0 0.002632 380.90436 393.98999
415.0 0.002410 380.70334 394.05170
395.0 0.002532 380.50174 394.67981
405.0 0.002469 380.29968 396.25436
397.0 0.002519 380.09695 399.22598
392.0 0.002551 379.89380 404.02078
400.0 0.002500 379.69009 410.81393
419.0 0.002387 379.48581 419.23788
399.0 0.002506 379.28107 428.05499
393.0 0.002545 379.07574 434.87973
442.0 0.002262 378.87000 436.75070
440.0 0.002273 378.66370 432.47632
446.0 0.002242 378.45694 423.98254
411.0 0.002433 378.24966 414.23901
404.0 0.002475 378.04196 405.31549
395.0 0.002532 377.83380 398.17633
391.0 0.002558 377.62512 393.01251
389.0 0.002571 377.41602 389.54840
388.0 0.002577 377.20642 387.32813
366.0 0.002732 376.99646 385.91473
370.0 0.002703 376.78598 384.98544
370.0 0.002703 376.57520 384.34314
369.0 0.002710 376.36386 383.88693
379.0 0.002639 376.15222 383.58005
382.0 0.002618 375.94022 383.42639
365.0 0.002740 375.72772 383.45663
373.0 0.002681 375.51492 383.71509
361.0 0.002770 375.30167 384.23853
372.0 0.002688 375.08813 385.02884
384.0 0.002604 374.87415 386.01999
377.0 0.002653 374.65991 387.04373
366.0 0.002732 374.44534 387.81909
393.0 0.002545 374.23038 388.08881
348.0 0.002874 374.01517 387.88669
378.0 0.002646 373.79959 387.53314
383.0 0.002611 373.58377 387.38174
387.0 0.002584 373.36758 390.02103
398.0 0.002513 373.15118 391.20633
404.0 0.002475 372.93445 393.63324
408.0 0.002451 372.71753 397.69162
411.0 0.002433 372.50040 405.45410
419.0 0.002387 372.28290 418.28497
457.0 0.002188 372.06525 438.09576
489.0 0.002045 371.84735 466.15524
485.0 0.002062 371.62927 501.96176
486.0 0.002058 371.41095 541.92865
560.0 0.001786 371.19254 577.99121
526.0 0.001901 370.97385 597.93518
577.0 0.001733 370.75507 592.42438
472.0 0.002119 370.53613 564.36047
483.0 0.002070 370.31696 525.44122
458.0 0.002183 370.09778 486.34561
439.0 0.002278 369.87836 453.19620
423.0 0.002364 369.65894 428.22656
404.0 0.002475 369.43930 411.10904
401.0 0.002494 369.21967 400.20724
378.0 0.002646 369.00000 393.59152
362.0 0.002762 368.78015 388.83630
380.0 0.002632 368.56033 386.51718
373.0 0.002681 368.34039 385.21292
379.0 0.002639 368.12051 384.71149
379.0 0.002639 367.90051 385.07269
382.0 0.002618 367.68063 386.55710
367.0 0.002725 367.46066 389.53854
370.0 0.002703 367.24078 394.35379
383.0 0.002611 367.02094 401.07657
413.0 0.002421 366.80109 409.24619
416.0 0.002404 366.58133 417.56412
437.0 0.002288 366.36160 423.68265
411.0 0.002433 366.14197 424.93701
401.0 0.002494 365.92239 420.59955
429.0 0.002331 365.70300 412.70523
424.0 0.002358 365.48364 403.95831
435.0 0.002299 365.26450 396.16495
400.0 0.002500 365.04547 390.16449
397.0 0.002519 364.82657 386.16367
392.0 0.002551 364.60788 383.97159
402.0 0.002488 364.38931 383.36890
426.0 0.002347 364.17102 384.21375
390.0 0.002564 363.95285 386.49457
408.0 0.002451 363.73499 390.23172
423.0 0.002364 363.51733 395.29288
440.0 0.002273 363.29984 401.17755
425.0 0.002353 363.08270 406.79260
366.0 0.002732 362.86575 410.40527
393.0 0.002545 362.64920 410.48151
390.0 0.002564 362.43280 407.17267
422.0 0.002370 362.21686 402.14502
425.0 0.002353 362.00113 397.05450
402.0 0.002488 361.78583 392.87723
428.0 0.002336 361.57089 390.00134
395.0 0.002532 361.35623 388.42847
385.0 0.002597 361.14203 387.95413
424.0 0.002358 360.92813 388.27411
448.0 0.002232 360.71472 389.25821
431.0 0.002320 360.50165 390.72238
424.0 0.002358 360.28909 392.73483
407.0 0.002457 360.07690 395.02985
448.0 0.002232 359.86523 397.76923
407.0 0.002457 359.65408 401.01541
417.0 0.002398 359.44327 404.85739
455.0 0.002198 359.23309 409.41422
397.0 0.002519 359.02335 414.84125
411.0 0.002433 358.81418 421.34540
431.0 0.002320 358.60550 429.20840
522.0 0.001916 358.39743 438.83884
412.0 0.002427 358.18991 450.88895
412.0 0.002427 357.98291 466.52353
500.0 0.002000 357.77661 487.98761
481.0 0.002079 357.57080 519.74219
593.0 0.001686 357.36569 569.60144
665.0 0.001504 357.16116 650.87164
819.0 0.001221 356.95737 782.28503
981.0 0.001019 356.75412 985.31451
1244.0 0.000804 356.55167 1276.92834
1634.0 0.000612 356.34988 1658.35864
2132.0 0.000469 356.14868 2101.66748
2557.0 0.000391 355.94833 2534.56689
2781.0 0.000360 355.74860 2832.73706
2678.0 0.000373 355.54971 2867.52612
2386.0 0.000419 355.35147 2620.99731
2081.0 0.000481 355.15408 2206.31226
1684.0 0.000594 354.95740 1756.56702
1300.0 0.000769 354.76160 1356.40991
957.0 0.001045 354.56659 1042.70959
778.0 0.001285 354.37234 819.76514
642.0 0.001558 354.17896 673.15912
595.0 0.001681 353.98639 581.64612
544.0 0.001838 353.79474 525.45190
475.0 0.002105 353.60391 490.02396
425.0 0.002353 353.41406 466.07486
434.0 0.002304 353.22504 448.92001
414.0 0.002415 353.03693 435.73410
415.0 0.002410 352.84973 425.18292
397.0 0.002519 352.66345 416.51733
393.0 0.002545 352.47821 409.28522
419.0 0.002387 352.29382 403.17957
386.0 0.002591 352.11047 397.97708
408.0 0.002451 351.92807 393.50867
363.0 0.002755 351.74673 389.64359
385.0 0.002597 351.56641 386.27960
367.0 0.002725 351.38702 383.33591
373.0 0.002681 351.20874 380.74857
358.0 0.002793 351.03146 378.46628
375.0 0.002667 350.85529 376.44870
348.0 0.002874 350.68018 374.66422
374.0 0.002674 350.50616 373.31805
339.0 0.002950 350.33316 371.94760
415.0 0.002410 350.16138 370.77847
362.0 0.002762 349.99069 369.83691
368.0 0.002717 349.82108 369.18466
383.0 0.002611 349.65271 368.92688
372.0 0.002688 349.48538 369.16324
406.0 0.002463 349.31931 370.12552
382.0 0.002618 349.15433 371.85208
413.0 0.002421 348.99066 374.27136
398.0 0.002513 348.82813 377.05429
377.0 0.002653 348.66678 379.50488
379.0 0.002639 348.50668 380.60397
369.0 0.002710 348.34778 379.60938
380.0 0.002632 348.19019 376.81302
393.0 0.002545 348.03384 373.21799
373.0 0.002681 347.87875 369.71063
373.0 0.002681 347.72488 366.78903
364.0 0.002747 347.57242 364.64194
362.0 0.002762 347.42117 363.25967
414.0 0.002415 347.27121 362.53555
341.0 0.002933 347.12265 362.35352
333.0 0.003003 346.97534 362.62811
358.0 0.002793 346.82944 363.47531
403.0 0.002481 346.68481 365.09955
388.0 0.002577 346.54163 367.98486
382.0 0.002618 346.39969 372.92560
406.0 0.002463 346.25925 380.99973
398.0 0.002513 346.12015 393.35446
427.0 0.002342 345.98242 410.75909
486.0 0.002058 345.84616 432.97180
462.0 0.002165 345.71124 458.00330
510.0 0.001961 345.57785 481.30057
515.0 0.001942 345.44577 495.66632
541.0 0.001848 345.31519 494.79959
521.0 0.001919 345.18610 479.37662
444.0 0.002252 345.05838 456.41119
495.0 0.002020 344.93222 433.09723
418.0 0.002392 344.80743 414.02695
407.0 0.002457 344.68423 401.56055
397.0 0.002519 344.56241 399.04660
456.0 0.002193 344.44217 401.56778
454.0 0.002203 344.32339 410.73697
438.0 0.002283 344.20621 424.96722
461.0 0.002169 344.09048 441.48380
496.0 0.002016 343.97629 455.76251
484.0 0.002066 343.86365 461.97137
509.0 0.001965 343.75250 456.53455
457.0 0.002188 343.64297 441.66663
442.0 0.002262 343.53494 422.85074
415.0 0.002410 343.42853 404.58765
395.0 0.002532 343.32364 389.29105
407.0 0.002457 343.22037 377.76596
391.0 0.002558 343.11865 369.78909
328.0 0.003049 343.01852 364.61563
359.0 0.002786 342.91998 361.38904
380.0 0.002632 342.82309 357.13269
370.0 0.002703 342.72775 355.91870
375.0 0.002667 342.63406 355.13605
363.0 0.002755 342.54193 354.62372
323.0 0.003096 342.45154 354.29962
349.0 0.002865 342.36267 354.12286
359.0 0.002786 342.27548 354.07327
353.0 0.002833 342.18988 354.14160
336.0 0.002976 342.10596 354.32568
358.0 0.002793 342.02368 354.62897
349.0 0.002865 341.94305 355.06055
348.0 0.002874 341.86407 355.63623
385.0 0.002597 341.78674 356.38046
345.0 0.002899 341.71109 357.33218
372.0 0.002688 341.63708 358.55704
344.0 0.002907 341.56479 360.17630
377.0 0.002653 341.49414 362.42303
362.0 0.002762 341.42517 365.74030
368.0 0.002717 341.35785 370.91440
346.0 0.002890 341.29227 379.19330
395.0 0.002532 341.22833 392.27618
439.0 0.002278 341.16608 412.02432
402.0 0.002488 341.10556 439.80334
456.0 0.002193 341.04672 475.51944
490.0 0.002041 340.98956 516.47974
565.0 0.001770 340.93408 556.09247
592.0 0.001689 340.88034 583.28271
542.0 0.001845 340.82825 586.79517
499.0 0.002004 340.77792 565.08997
517.0 0.001934 340.72928 528.05396
498.0 0.002008 340.68231 487.48895
451.0 0.002217 340.63705 451.06363
393.0 0.002545 340.59351 422.25943
375.0 0.002667 340.55167 401.67218
406.0 0.002463 340.51154 388.18860
371.0 0.002695 340.47308 379.99963
412.0 0.002427 340.43637 375.34048
395.0 0.002532 340.40140 372.86209
383.0 0.002611 340.36810 371.69342
369.0 0.002710 340.33649 371.32272
355.0 0.002817 340.30661 371.56024
377.0 0.002653 340.27844 372.21515
415.0 0.002410 340.25195 373.26413
409.0 0.002445 340.22717 374.69409
408.0 0.002451 340.20410 376.51422
394.0 0.002538 340.18277 378.75116
401.0 0.002494 340.16306 381.44803
415.0 0.002410 340.14511 384.66602
364.0 0.002747 340.12885 388.48752
388.0 0.002577 340.11426 393.02112
443.0 0.002257 340.10138 398.40942
440.0 0.002273 340.09018 404.84116
374.0 0.002674 340.08066 412.57187
434.0 0.002304 340.07285 421.96701
491.0 0.002037 340.06668 433.59515
422.0 0.002370 340.06226 448.43912
510.0 0.001961 340.05948 468.33493
485.0 0.002062 340.05832 496.78094
510.0 0.001961 340.05887 540.17010
623.0 0.001605 340.06110 609.17719
698.0 0.001433 340.06500 719.44556
847.0 0.001181 340.07056 890.05023
1079.0 0.000927 340.07776 1139.00208
1419.0 0.000705 340.08661 1474.13135
1838.0 0.000544 340.09708 1882.61926
2229.0 0.000449 340.10919 2318.32324
2657.0 0.000376 340.12299 2689.03247
2725.0 0.000367 340.13834 2867.25830
2521.0 0.000397 340.15536 2770.53882
2208.0 0.000453 340.17404 2445.47900
1875.0 0.000533 340.19427 2017.60486
1538.0 0.000650 340.21616 1593.75598
1147.0 0.000872 340.23965 1233.20581
955.0 0.001047 340.26471 957.53625
780.0 0.001282 340.29138 764.19531
625.0 0.001600 340.31961 637.27386
517.0 0.001934 340.34943 559.10657
557.0 0.001795 340.38083 509.11066
493.0 0.002028 340.41382 476.83603
432.0 0.002315 340.44833 454.70282
418.0 0.002392 340.48441 438.46463
436.0 0.002294 340.52206 425.87634
419.0 0.002387 340.56119 415.75058
408.0 0.002451 340.60190 407.41858
391.0 0.002558 340.64413 400.46252
379.0 0.002639 340.68784 394.59491
398.0 0.002513 340.73312 389.60437
372.0 0.002688 340.77982 385.32962
376.0 0.002660 340.82806 381.64487
372.0 0.002688 340.87778 378.45102
370.0 0.002703 340.92896 375.66864
415.0 0.002410 340.98163 373.23386
378.0 0.002646 341.03571 371.09485
384.0 0.002604 341.09131 369.20938
389.0 0.002571 341.14828 367.54208
343.0 0.002915 341.20676 366.06424
407.0 0.002457 341.26660 364.75140
347.0 0.002882 341.32785 363.58334
364.0 0.002747 341.39053 362.54285
379.0 0.002639 341.45459 361.61536
367.0 0.002725 341.52002 360.78851
364.0 0.002747 341.58682 360.05170
333.0 0.003003 341.65503 359.39603
334.0 0.002994 341.72458 358.81348
357.0 0.002801 341.79541 358.29742
389.0 0.002571 341.86765 357.84219
355.0 0.002817 341.94116 357.44269
381.0 0.002625 342.01599 357.09476
350.0 0.002857 342.09213 356.79471
358.0 0.002793 342.16959 356.54248
332.0 0.003012 342.24829 356.10553
344.0 0.002907 342.32825 355.93738
332.0 0.003012 342.40945 355.80713
373.0 0.002681 342.49191 355.71329
351.0 0.002849 342.57565 355.65482
313.0 0.003195 342.66052 355.63101
366.0 0.002732 342.74667 355.64166
326.0 0.003067 342.83398 355.68677
348.0 0.002874 342.92252 357.11298
363.0 0.002755 343.01218 357.25668
336.0 0.002976 343.10303 357.43884
360.0 0.002778 343.19498 357.66165
340.0 0.002941 343.28809 357.92838
370.0 0.002703 343.38235 358.24362
330.0 0.003030 343.47772 358.61407
368.0 0.002717 343.57419 359.05020
395.0 0.002532 343.67172 359.57050
376.0 0.002660 343.77032 360.20880
375.0 0.002667 343.87000 361.02771
391.0 0.002558 343.97067 362.13681
395.0 0.002532 344.07245 363.71036
406.0 0.002463 344.17517 365.98959
390.0 0.002564 344.27893 369.25055
389.0 0.002571 344.38370 373.72260
364.0 0.002747 344.48944 379.46164
403.0 0.002481 344.59613 386.19586
391.0 0.002558 344.70380 393.14624
424.0 0.002358 344.81235 398.87085
399.0 0.002506 344.92184 401.57297
400.0 0.002500 345.03226 400.38513
414.0 0.002415 345.14359 396.27969
407.0 0.002457 345.25577 391.07635
381.0 0.002625 345.36880 386.19873
360.0 0.002778 345.48273 382.41251
359.0 0.002786 345.59747 379.98911
394.0 0.002538 345.71304 378.88544
418.0 0.002392 345.82941 378.90027
355.0 0.002817 345.94653 379.80441
437.0 0.002288 346.06451 381.43134
331.0 0.003021 346.18323 383.72363
416.0 0.002404 346.30267 384.27737
433.0 0.002309 346.42285 388.30173
414.0 0.002415 346.54376 393.56805
433.0 0.002309 346.66534 400.43008
437.0 0.002288 346.78763 409.17734
411.0 0.002433 346.91061 419.88388
451.0 0.002217 347.03427 432.23300
461.0 0.002169 347.15857 445.31619
484.0 0.002066 347.28345 457.52878
463.0 0.002160 347.40897 467.19955
461.0 0.002169 347.53510 474.23898
483.0 0.002070 347.66180 480.81644
465.0 0.002151 347.78906 490.19943
421.0 0.002375 347.91684 506.12076
494.0 0.002024 348.04523 533.54767
574.0 0.001742 348.17404 580.05566
659.0 0.001517 348.30347 657.04163
722.0 0.001385 348.43335 779.81696
937.0 0.001067 348.56369 965.34821
1246.0 0.000803 348.69446 1226.85681
1630.0 0.000613 348.82571 1565.69373
2043.0 0.000489 348.95737 1961.55774
2279.0 0.000439 349.08945 2361.03442
2610.0 0.000383 349.22195 2668.71484
2559.0 0.000391 349.35474 2771.14526
2548.0 0.000392 349.48801 2620.89478
2242.0 0.000446 349.62155 2286.03052
1835.0 0.000545 349.75549 1881.53613
1421.0 0.000704 349.88968 1494.52649
1137.0 0.000880 350.02417 1170.73193
943.0 0.001060 350.15900 925.14722
698.0 0.001433 350.29404 753.11621
604.0 0.001656 350.42938 639.82477
532.0 0.001880 350.56491 568.05365
516.0 0.001938 350.70074 524.32550
492.0 0.002033 350.83670 495.08401
507.0 0.001972 350.97290 475.14401
474.0 0.002110 351.10922 460.73349
459.0 0.002179 351.24570 449.83130
407.0 0.002457 351.38242 441.35876
425.0 0.002353 351.51913 435.05960
406.0 0.002463 351.65607 429.87054
381.0 0.002625 351.79303 425.88861
456.0 0.002193 351.93011 422.94440
414.0 0.002415 352.06723 420.92154
424.0 0.002358 352.20441 419.74548
445.0 0.002247 352.34164 419.37778
416.0 0.002404 352.47882 419.81485
440.0 0.002273 352.61606 421.08936
445.0 0.002247 352.75327 423.27396
425.0 0.002353 352.89050 426.48752
448.0 0.002232 353.02762 430.90372
442.0 0.002262 353.16470 436.76944
410.0 0.002439 353.30170 444.45145
464.0 0.002155 353.43857 454.55331
451.0 0.002217 353.57538 468.16681
571.0 0.001751 353.71207 487.34271
550.0 0.001818 353.84860 515.85986
574.0 0.001742 353.98499 560.20056
617.0 0.001621 354.12125 630.13281
784.0 0.001276 354.25726 737.94891
975.0 0.001026 354.39313 895.73804
1123.0 0.000890 354.52872 1110.60803
1372.0 0.000729 354.66415 1378.39612
1660.0 0.000602 354.79929 1676.32190
1783.0 0.000561 354.93420 1954.54346
1922.0 0.000520 355.06882 2134.70996
1921.0 0.000521 355.20316 2143.37622
1734.0 0.000577 355.33722 1976.39941
1553.0 0.000644 355.47089 1703.12964
1404.0 0.000712 355.60434 1403.71765
1153.0 0.000867 355.73737 1130.89197
905.0 0.001105 355.87000 909.60425
843.0 0.001186 356.00235 745.46045
668.0 0.001497 356.13425 632.20142
574.0 0.001742 356.26581 558.11572
531.0 0.001883 356.39685 510.96765
464.0 0.002155 356.52759 480.79779
450.0 0.002222 356.65781 460.73413
457.0 0.002188 356.78751 446.57913
449.0 0.002227 356.91687 435.97858
461.0 0.002169 357.04562 427.66547
387.0 0.002584 357.17395 420.94876
434.0 0.002304 357.30173 415.42456
397.0 0.002519 357.42905 410.83298
412.0 0.002427 357.55573 406.99136
405.0 0.002469 357.68192 403.73715
410.0 0.002439 357.80753 401.02084
381.0 0.002625 357.93253 398.73349
410.0 0.002439 358.05698 398.65131
412.0 0.002427 358.18079 397.08090
404.0 0.002475 358.30402 395.78516
390.0 0.002564 358.42661 394.73166
441.0 0.002268 358.54855 393.89478
359.0 0.002786 358.66980 393.25400
362.0 0.002762 358.79047 392.79367
426.0 0.002347 358.91037 392.50165
387.0 0.002584 359.02960 392.36929
355.0 0.002817 359.14816 392.39087
365.0 0.002740 359.26593 392.56317
363.0 0.002755 359.38306 392.88589
399.0 0.002506 359.49939 393.36111
364.0 0.002747 359.61502 393.99350
419.0 0.002387 359.72986 394.79047
398.0 0.002513 359.84384 395.76236
412.0 0.002427 359.95718 396.92319
362.0 0.002762 360.06964 398.29034
365.0 0.002740 360.18134 399.85468
387.0 0.002584 360.29214 401.70700
433.0 0.002309 360.40219 403.84964
400.0 0.002500 360.51138 406.32458
457.0 0.002188 360.61972 409.19528
392.0 0.002551 360.72714 412.50519
377.0 0.002653 360.83374 416.34641
436.0 0.002294 360.93945 420.82217
448.0 0.002232 361.04428 426.06378
427.0 0.002342 361.14822 432.24335
410.0 0.002439 361.25122 439.59402
471.0 0.002123 361.35333 448.45392
455.0 0.002198 361.45447 459.35788
502.0 0.001992 361.55472 473.22888
547.0 0.001828 361.65396 491.74182
534.0 0.001873 361.75229 516.14191
539.0 0.001855 361.84964 555.24780
654.0 0.001529 361.94601 615.41888
749.0 0.001335 362.04141 707.99988
891.0 0.001122 362.13580 846.27386
1039.0 0.000962 362.22922 1042.19470
1256.0 0.000796 362.32159 1301.12158
1635.0 0.000612 362.41293 1615.20251
2007.0 0.000498 362.50330 1955.61670
2312.0 0.000433 362.59262 2264.60474
2322.0 0.000431 362.68091 2459.72949
2420.0 0.000413 362.76813 2477.34106
2279.0 0.000439 362.85431 2331.00464
2078.0 0.000481 362.93939 2096.30933
1819.0 0.000550 363.02344 1843.52856
1555.0 0.000643 363.10641 1605.58093
1307.0 0.000765 363.18829 1386.35168
1175.0 0.000851 363.26907 1184.36523
966.0 0.001035 363.34879 1004.98206
870.0 0.001149 363.42737 855.49677
732.0 0.001366 363.50485 737.52368
643.0 0.001555 363.58124 648.29761
624.0 0.001603 363.65646 583.21667
532.0 0.001880 363.73062 537.18317
555.0 0.001802 363.80359 505.30176
492.0 0.002033 363.87543 483.29364
439.0 0.002278 363.94614 467.88934
475.0 0.002105 364.01572 456.79355
466.0 0.002146 364.08414 448.54309
450.0 0.002222 364.15140 442.27277
457.0 0.002188 364.21750 437.50793
435.0 0.002299 364.28244 434.02859
399.0 0.002506 364.34616 431.80508
419.0 0.002387 364.40878 430.97842
468.0 0.002137 364.47015 431.86581
468.0 0.002137 364.53043 434.90451
448.0 0.002232 364.58945 440.55505
456.0 0.002193 364.64731 449.10724
476.0 0.002101 364.70395 460.42429
493.0 0.002028 364.75943 473.64639
517.0 0.001934 364.81366 486.83899
519.0 0.001927 364.86673 496.81979
507.0 0.001972 364.91861 500.21857
496.0 0.002016 364.96924 494.78305
497.0 0.002012 365.01871 485.76340
493.0 0.002028 365.06693 475.40811
491.0 0.002037 365.11392 466.40292
477.0 0.002096 365.15973 460.22107
504.0 0.001984 365.20432 457.46561
484.0 0.002066 365.24765 458.21027
468.0 0.002137 365.28979 462.42667
477.0 0.002096 365.33072 469.81290
450.0 0.002222 365.37042 480.79169
513.0 0.001949 365.40891 496.41211
527.0 0.001898 365.44614 519.07983
538.0 0.001859 365.48218 553.01947
597.0 0.001675 365.51697 605.63348
675.0 0.001481 365.55054 687.75903
783.0 0.001277 365.58286 813.18451
1005.0 0.000995 365.61398 996.10504
1238.0 0.000808 365.64389 1246.25208
1576.0 0.000635 365.67255 1562.20251
2027.0 0.000493 365.69998 1923.49023
2316.0 0.000432 365.72620 2281.20190
2713.0 0.000369 365.75122 2551.61401
2721.0 0.000368 365.77496 2638.76538
2582.0 0.000387 365.79749 2504.15259
2223.0 0.000450 365.81879 2205.34326
1801.0 0.000555 365.83893 1840.33081
1523.0 0.000657 365.85779 1485.46460
1152.0 0.000868 365.87546 1182.52051
961.0 0.001041 365.89191 947.00922
816.0 0.001225 365.90714 777.24780
649.0 0.001541 365.92117 662.00305
621.0 0.001610 365.93399 586.78296
520.0 0.001923 365.94559 538.31000
527.0 0.001898 365.95602 506.49725
433.0 0.002309 365.96521 484.68445
459.0 0.002179 365.97318 468.91965
510.0 0.001961 365.98001 457.03329
469.0 0.002132 365.98563 447.88269
434.0 0.002304 365.99005 440.85367
440.0 0.002273 365.99332 435.56525
448.0 0.002232 365.99533 431.69806
436.0 0.002294 365.99625 428.88654
408.0 0.002451 365.99594 426.67563
428.0 0.002336 365.99445 424.33087
408.0 0.002451 365.99182 421.81180
435.0 0.002299 365.98801 417.97696
424.0 0.002358 365.98306 413.72125
397.0 0.002519 365.97696 409.55099
408.0 0.002451 365.96973 405.81100
389.0 0.002571 365.96133 402.66479
429.0 0.002331 365.95178 400.14783
401.0 0.002494 365.94110 398.21597
388.0 0.002577 365.92929 396.78659
385.0 0.002597 365.91635 395.77261
372.0 0.002688 365.90234 395.10367
413.0 0.002421 365.88715 394.73581
398.0 0.002513 365.87091 394.65253
373.0 0.002681 365.85352 394.86426
383.0 0.002611 365.83508 395.41168
404.0 0.002475 365.81552 396.38049
409.0 0.002445 365.79489 397.93555
409.0 0.002445 365.77316 400.38513
405.0 0.002469 365.75037 404.27921
406.0 0.002463 365.72653 410.52686
419.0 0.002387 365.70163 420.42883
446.0 0.002242 365.67566 434.31671
425.0 0.002353 365.64865 457.07541
503.0 0.001988 365.62061 488.56464
500.0 0.002000 365.59155 528.93005
568.0 0.001761 365.56143 576.08649
593.0 0.001686 365.53036 624.56232
672.0 0.001488 365.49823 664.11121
691.0 0.001447 365.46515 682.83655
647.0 0.001546 365.43103 673.05005
600.0 0.001667 365.39594 639.74847
586.0 0.001706 365.35989 595.33228
569.0 0.001757 365.32285 550.57220
506.0 0.001976 365.28485 511.50485
449.0 0.002227 365.24591 480.15533
459.0 0.002179 365.20599 455.96579
423.0 0.002364 365.16519 437.43109
415.0 0.002410 365.12341 423.27225
398.0 0.002513 365.08075 412.56772
400.0 0.002500 365.03720 404.55609
411.0 0.002433 364.99268 398.61472
376.0 0.002660 364.94730 394.26987
374.0 0.002674 364.90103 391.18784
378.0 0.002646 364.85388 389.03159
402.0 0.002488 364.80588 387.60086
377.0 0.002653 364.75705 386.72665
361.0 0.002770 364.70734 386.29572
451.0 0.002217 364.65680 386.24966
403.0 0.002481 364.60541 386.58588
392.0 0.002551 364.55322 387.37610
380.0 0.002632 364.50021 388.80182
370.0 0.002703 364.44641 391.20258
423.0 0.002364 364.39178 395.12137
399.0 0.002506 364.33643 401.26038
376.0 0.002660 364.28030 410.69547
401.0 0.002494 364.22336 424.32474
452.0 0.002212 364.16574 442.85416
457.0 0.002188 364.10733 466.34753
506.0 0.001976 364.04822 493.72107
503.0 0.001988 363.98831 522.08081
500.0 0.002000 363.92776 546.41266
570.0 0.001754 363.86652 561.37463
537.0 0.001862 363.80457 565.10980
534.0 0.001873 363.74194 559.72699
539.0 0.001855 363.67865 547.37134
547.0 0.001828 363.61469 528.55890
456.0 0.002193 363.55008 504.58789
459.0 0.002179 363.48483 478.84525
433.0 0.002309 363.41895 454.86411
417.0 0.002398 363.35248 434.69699
402.0 0.002488 363.28537 419.01709
433.0 0.002309 363.21771 407.51843
414.0 0.002415 363.14944 399.59659
354.0 0.002825 363.08060 394.47336
381.0 0.002625 363.01117 391.43130
386.0 0.002591 362.94122 389.92621
397.0 0.002519 362.87073 387.78766
419.0 0.002387 362.79968 388.55536
373.0 0.002681 362.72815 390.30746
380.0 0.002632 362.65610 393.01617
387.0 0.002584 362.58353 396.59232
367.0 0.002725 362.51050 400.80237
385.0 0.002597 362.43698 405.18668
386.0 0.002591 362.36301 409.05707
412.0 0.002427 362.28857 411.82553
374.0 0.002674 362.21368 413.63074
392.0 0.002551 362.13837 415.50827
408.0 0.002451 362.06268 418.96817
392.0 0.002551 361.98657 425.77002
446.0 0.002242 361.91003 438.07571
440.0 0.002273 361.83313 458.63229
540.0 0.001852 361.75580 490.71228
524.0 0.001908 361.67819 537.62213
599.0 0.001669 361.60016 601.66425
655.0 0.001527 361.52185 682.58887
800.0 0.001250 361.44321 775.83081
870.0 0.001149 361.36420 871.07007
977.0 0.001024 361.28491 951.40247
1027.0 0.000974 361.20526 994.65399
1020.0 0.000980 361.12543 983.48016
947.0 0.001056 361.04526 920.75586
867.0 0.001153 360.96484 828.01758
753.0 0.001328 360.88416 728.51428
689.0 0.001451 360.80328 637.56927
601.0 0.001664 360.72214 562.57477
514.0 0.001946 360.64078 505.45584
476.0 0.002101 360.55920 464.67111
449.0 0.002227 360.47745 436.97791
457.0 0.002188 360.39551 418.66776
454.0 0.002203 360.31339 406.60034
394.0 0.002538 360.23111 398.43417
466.0 0.002146 360.14865 392.63458
433.0 0.002309 360.06607 388.65784
433.0 0.002309 359.98340 385.23648
385.0 0.002597 359.90051 382.44708
399.0 0.002506 359.81760 380.12073
378.0 0.002646 359.73453 378.15158
393.0 0.002545 359.65143 376.46814
353.0 0.002833 359.56818 375.01831
349.0 0.002865 359.48492 373.76279
393.0 0.002545 359.40161 372.67084
368.0 0.002717 359.31821 371.71866
377.0 0.002653 359.23483 370.88766
384.0 0.002604 359.15137 370.16330
349.0 0.002865 359.06793 369.53528
391.0 0.002558 358.98444 368.99637
368.0 0.002717 358.90100 368.29025
385.0 0.002597 358.81757 367.93143
329.0 0.003040 358.73416 367.67349
334.0 0.002994 358.65079 367.54379
382.0 0.002618 358.56744 367.59418
381.0 0.002625 358.48419 367.91074
386.0 0.002591 358.40097 368.61960
335.0 0.002985 358.31784 369.86273
388.0 0.002577 358.23480 371.84109
381.0 0.002625 358.15189 374.65591
367.0 0.002725 358.06900 378.30820
402.0 0.002488 357.98627 382.59644
384.0 0.002604 357.90369 387.01328
430.0 0.002326 357.82120 390.65115
407.0 0.002457 357.73892 392.34018
395.0 0.002532 357.65668 391.32971
397.0 0.002519 357.57471 387.97104
379.0 0.002639 357.49283 383.37573
393.0 0.002545 357.41116 378.59772
425.0 0.002353 357.32971 374.29483
349.0 0.002865 357.24841 370.77539
390.0 0.002564 357.16736 368.10638
387.0 0.002584 357.08649 366.20560
344.0 0.002907 357.00583 364.91766
391.0 0.002558 356.92542 364.07547
379.0 0.002639 356.84528 363.53781
395.0 0.002532 356.76532 363.20331
362.0 0.002762 356.68567 363.00916
392.0 0.002551 356.60629 362.92322
387.0 0.002584 356.52713 362.93646
367.0 0.002725 356.44833 363.06137
396.0 0.002525 356.36975 363.33521
368.0 0.002717 356.29147 363.83087
372.0 0.002688 356.21356 364.55496
358.0 0.002793 356.13589 367.20743
355.0 0.002817 356.05856 369.36697
380.0 0.002632 355.98157 372.55032
361.0 0.002770 355.90491 376.89029
354.0 0.002825 355.82861 382.60205
387.0 0.002584 355.75266 389.39178
404.0 0.002475 355.67700 396.62259
420.0 0.002381 355.60175 403.07373
397.0 0.002519 355.52686 406.99802
385.0 0.002597 355.45233 406.93054
385.0 0.002597 355.37823 402.91080
398.0 0.002513 355.30447 396.44461
351.0 0.002849 355.23114 389.26746
342.0 0.002924 355.15814 382.57364
375.0 0.002667 355.08563 376.97977
359.0 0.002786 355.01349 372.68704
342.0 0.002924 354.94180 369.91925
371.0 0.002695 354.87048 367.88858
371.0 0.002695 354.79965 366.62177
383.0 0.002611 354.72925 365.88464
359.0 0.002786 354.65927 365.49860
384.0 0.002604 354.58972 365.34467
382.0 0.002618 354.52063 365.33472
334.0 0.002994 354.45203 365.46548
336.0 0.002976 354.38382 365.70206
331.0 0.003021 354.31613 366.03931
374.0 0.002674 354.24890 366.47986
371.0 0.002695 354.18216 367.03314
358.0 0.002793 354.11594 367.71542
354.0 0.002825 354.05008 368.55334
373.0 0.002681 353.98480 369.58902
377.0 0.002653 353.92001 370.88651
380.0 0.002632 353.85568 372.54153
392.0 0.002551 353.79187 374.68808
336.0 0.002976 353.72858 377.46121
364.0 0.002747 353.66577 381.16345
406.0 0.002463 353.60349 386.00534
372.0 0.002688 353.54169 391.75687
394.0 0.002538 353.48044 399.75595
458.0 0.002183 353.41971 409.80356
425.0 0.002353 353.35950 422.28387
425.0 0.002353 353.29980 437.86349
459.0 0.002179 353.24060 457.83569
474.0 0.002110 353.18201 484.00781
536.0 0.001866 353.12390 517.93280
561.0 0.001783 353.06635 560.27173
639.0 0.001565 353.00934 610.60388
707.0 0.001414 352.95282 666.63068
686.0 0.001458 352.89691 722.16547
742.0 0.001348 352.84146 765.46997
771.0 0.001297 352.78662 787.99347
718.0 0.001393 352.73230 769.25464
760.0 0.001316 352.67853 721.46271
666.0 0.001502 352.62537 659.33154
648.0 0.001543 352.57269 596.05121
577.0 0.001733 352.52060 539.65533
512.0 0.001953 352.46899 493.81036
503.0 0.001988 352.41803 459.18219
465.0 0.002151 352.36752 434.59750
447.0 0.002237 352.31769 417.98160
424.0 0.002358 352.26834 407.11447
407.0 0.002457 352.21954 400.09689
382.0 0.002618 352.17133 395.52957
404.0 0.002475 352.12363 392.49152
364.0 0.002747 352.07651 390.42630
370.0 0.002703 352.02994 389.01572
382.0 0.002618 351.98392 390.13300
353.0 0.002833 351.93845 389.61224
394.0 0.002538 351.89355 389.41122
356.0 0.002809 351.84921 389.48969
405.0 0.002469 351.80539 389.82739
352.0 0.002841 351.76215 390.41211
418.0 0.002392 351.71939 391.23996
413.0 0.002421 351.67725 392.31430
374.0 0.002674 351.63562 393.64526
424.0 0.002358 351.59457 395.25009
391.0 0.002558 351.55402 397.15411
418.0 0.002392 351.51404 399.39166
388.0 0.002577 351.47461 401.98077
421.0 0.002375 351.43567 405.03351
400.0 0.002500 351.39731 408.59808
391.0 0.002558 351.35944 412.77365
433.0 0.002309 351.32214 417.69495
427.0 0.002342 351.28531 423.55582
427.0 0.002342 351.24905 430.65714
430.0 0.002326 351.21332 439.50058
418.0 0.002392 351.17807 450.95947
469.0 0.002132 351.14337 466.55353
463.0 0.002160 351.10916 488.83289
501.0 0.001996 351.07547 521.72955
559.0 0.001789 351.04227 570.81134
607.0 0.001647 351.00958 642.92914
714.0 0.001401 350.97742 745.08789
890.0 0.001124 350.94571 882.37000
1015.0 0.000985 350.91452 1055.10864
1269.0 0.000788 350.88382 1255.53931
1525.0 0.000656 350.85358 1463.72363
1750.0 0.000571 350.82385 1643.44263
1783.0 0.000561 350.79453 1745.71265
1772.0 0.000564 350.76575 1733.40442
1682.0 0.000595 350.73740 1612.45081
1443.0 0.000693 350.70953 1426.32617
1310.0 0.000763 350.68213 1222.48730
1060.0 0.000943 350.65512 1033.39417
830.0 0.001205 350.62860 876.21545
728.0 0.001374 350.60251 757.31610
665.0 0.001504 350.57684 676.17279
643.0 0.001555 350.55164 628.49335
561.0 0.001783 350.52682 608.81879
609.0 0.001642 350.50247 611.67908
627.0 0.001595 350.47852 632.06958
702.0 0.001425 350.45496 664.83441
741.0 0.001350 350.43179 703.51190
759.0 0.001318 350.40909 739.00116
770.0 0.001299 350.38672 759.76044
760.0 0.001316 350.36472 756.63605
748.0 0.001337 350.34314 729.84882
668.0 0.001497 350.32190 688.48462
647.0 0.001546 350.30106 643.13123
618.0 0.001618 350.28058 601.21753
579.0 0.001727 350.26041 566.69434
547.0 0.001828 350.24063 540.98993
512.0 0.001953 350.22119 523.87921
510.0 0.001961 350.20206 514.20587
518.0 0.001931 350.18326 510.48773
505.0 0.001980 350.16476 511.35165
546.0 0.001832 350.14664 515.76294
554.0 0.001805 350.12878 523.08453
530.0 0.001887 350.11124 533.03552
566.0 0.001767 350.09399 545.62006
615.0 0.001626 350.07697 561.07263
580.0 0.001724 350.06027 579.84424
611.0 0.001637 350.04388 602.65405
584.0 0.001712 350.02771 630.64221
650.0 0.001538 350.01178 665.70416
671.0 0.001490 349.99609 711.31531
758.0 0.001319 349.98071 772.80219
852.0 0.001174 349.96552 860.03308
955.0 0.001047 349.95053 988.39722
1056.0 0.000947 349.93579 1180.27332
1331.0 0.000751 349.92123 1464.67114
1736.0 0.000576 349.90689 1873.60242
2289.0 0.000437 349.89273 2434.56787
2976.0 0.0003360 349.87875 3159.24463
4068.0 0.0002458 349.86499 4032.36255
5038.0 0.0001985 349.85135 4985.01123
5971.0 0.0001675 349.83789 5890.19971
6940.0 0.0001441 349.82455 6545.91553
6974.0 0.0001434 349.81137 6739.56592
6601.0 0.0001515 349.79834 6396.62646
5902.0 0.0001694 349.78546 5647.27002
4980.0 0.0002008 349.77267 4713.65625
4146.0 0.0002412 349.75998 3778.50244
3160.0 0.0003165 349.74741 2949.99536
2353.0 0.000425 349.73486 2276.45581
1833.0 0.000546 349.72244 1765.43665
1390.0 0.000719 349.71014 1399.32019
1182.0 0.000846 349.69788 1148.46423
1040.0 0.000962 349.68564 981.38019
898.0 0.001114 349.67346 871.02692
824.0 0.001214 349.66135 797.30151
779.0 0.001284 349.64926 746.82257
760.0 0.001316 349.63718 711.42413
695.0 0.001439 349.62512 686.45038
668.0 0.001497 349.61304 669.40942
650.0 0.001538 349.60098 659.13428
666.0 0.001502 349.58893 655.40112
704.0 0.001420 349.57678 658.91876
683.0 0.001464 349.56467 671.63708
720.0 0.001389 349.55252 697.31824
706.0 0.001416 349.54025 742.23883
787.0 0.001271 349.52795 815.71210
938.0 0.001066 349.51559 929.91156
1044.0 0.000958 349.50320 1098.39734
1243.0 0.000805 349.49066 1332.96313
1577.0 0.000634 349.47803 1638.93225
2053.0 0.000487 349.46533 2009.37500
2509.0 0.000399 349.45248 2418.24683
2814.0 0.000355 349.43954 2812.06445
3135.0 0.0003190 349.42642 3105.97681
3171.0 0.0003154 349.41321 3206.98389
3119.0 0.0003206 349.39984 3075.07104
2948.0 0.0003392 349.38629 2758.96387
2383.0 0.000420 349.37256 2353.12622
2067.0 0.000484 349.35867 1939.22168
1637.0 0.000611 349.34464 1567.27979
1320.0 0.000758 349.33035 1260.84351
1045.0 0.000957 349.31589 1025.14172
846.0 0.001182 349.30121 853.79010
747.0 0.001339 349.28629 734.46985
655.0 0.001527 349.27118 653.48572
570.0 0.001754 349.25577 598.72906
593.0 0.001686 349.24017 563.52802
542.0 0.001845 349.22427 536.56030
516.0 0.001938 349.20813 516.42395
451.0 0.002217 349.19168 500.83463
473.0 0.002114 349.17499 487.19290
497.0 0.002012 349.15796 477.37836
476.0 0.002101 349.14069 469.56995
429.0 0.002331 349.12305 463.37393
496.0 0.002016 349.10513 458.38919
443.0 0.002257 349.08682 454.13379
490.0 0.002041 349.06824 450.03552
476.0 0.002101 349.04929 445.59454
448.0 0.002232 349.02997 440.66696
477.0 0.002096 349.01035 435.50940
460.0 0.002174 348.99030 430.50705
460.0 0.002174 348.96988 425.97086
465.0 0.002151 348.94907 423.73422
448.0 0.002232 348.92792 420.45364
453.0 0.002208 348.90628 417.79858
419.0 0.002387 348.88428 415.70087
438.0 0.002283 348.86185 414.06760
408.0 0.002451 348.83899 412.95093
456.0 0.002193 348.81570 411.95709
421.0 0.002375 348.79193 411.14685
432.0 0.002315 348.76776 410.48209
419.0 0.002387 348.74310 409.96741
379.0 0.002639 348.71799 409.62552
398.0 0.002513 348.69241 409.47733
418.0 0.002392 348.66632 409.53653
371.0 0.002695 348.63977 409.81140
390.0 0.002564 348.61270 410.30722
399.0 0.002506 348.58511 411.02866
379.0 0.002639 348.55704 411.98123
357.0 0.002801 348.52844 413.17404
393.0 0.002545 348.49930 414.62015
418.0 0.002392 348.46964 416.33844
395.0 0.002532 348.43942 418.35248
401.0 0.002494 348.40866 420.69385
418.0 0.002392 348.37738 423.40097
390.0 0.002564 348.34549 426.52203
420.0 0.002381 348.31305 430.11685
403.0 0.002481 348.28000 434.26135
424.0 0.002358 348.24643 439.05582
414.0 0.002415 348.21225 444.63855
451.0 0.002217 348.17743 451.21072
492.0 0.002033 348.14206 459.07663
407.0 0.002457 348.10605 468.70123
492.0 0.002033 348.06943 480.78024
439.0 0.002278 348.03220 496.30267
474.0 0.002110 347.99432 516.57074
479.0 0.002088 347.95584 543.13550
531.0 0.001883 347.91672 577.62903
626.0 0.001597 347.87695 621.52454
656.0 0.001524 347.83652 675.90918
719.0 0.001391 347.79547 735.16455
897.0 0.001115 347.75369 811.75128
964.0 0.001037 347.71130 898.94147
1040.0 0.000962 347.66824 997.60449
1235.0 0.000810 347.62445 1114.53638
1311.0 0.000763 347.58002 1266.35559
1541.0 0.000649 347.53494 1475.58032
1863.0 0.000537 347.48911 1760.82312
2180.0 0.000459 347.44260 2128.04297
2626.0 0.000381 347.39539 2563.67310
3019.0 0.0003312 347.34747 3027.06641
3406.0 0.0002936 347.29889 3442.28394
3569.0 0.0002802 347.24954 3702.65063
3512.0 0.0002847 347.19946 3715.63086
3453.0 0.0002896 347.14871 3472.01343
3024.0 0.0003307 347.09720 3053.32959
2693.0 0.000371 347.04498 2566.62280
2150.0 0.000465 346.99197 2092.84546
1734.0 0.000577 346.93832 1678.23730
1401.0 0.000714 346.88385 1342.49854
1191.0 0.000840 346.82867 1087.32068
1032.0 0.000969 346.77271 903.29071
796.0 0.001256 346.71603 775.77283
733.0 0.001364 346.65866 689.47681
634.0 0.001577 346.60040 631.27917
599.0 0.001669 346.54147 591.33478
584.0 0.001712 346.48175 562.97821
515.0 0.001942 346.42130 542.03503
557.0 0.001795 346.35999 526.02399
520.0 0.001923 346.29800 513.50220
467.0 0.002141 346.23523 503.61877
509.0 0.001965 346.17163 495.85599
499.0 0.002004 346.10733 489.85693
480.0 0.002083 346.04218 485.39404
496.0 0.002016 345.97629 482.30481
472.0 0.002119 345.90961 480.47961
493.0 0.002028 345.84213 479.85284
483.0 0.002070 345.77390 480.40900
474.0 0.002110 345.70483 482.13736
497.0 0.002012 345.63504 485.09595
502.0 0.001992 345.56442 489.37045
511.0 0.001957 345.49304 495.08600
490.0 0.002041 345.42084 502.41418
481.0 0.002079 345.34787 511.58514
517.0 0.001934 345.27411 522.91760
528.0 0.001894 345.19955 536.88159
546.0 0.001832 345.12418 554.23041
563.0 0.001776 345.04803 576.26245
591.0 0.001692 344.97113 603.23877
595.0 0.001681 344.89337 643.25531
633.0 0.001580 344.81485 700.56604
730.0 0.001370 344.73553 784.45483
851.0 0.001175 344.65543 907.24213
972.0 0.001029 344.57449 1083.30725
1251.0 0.000799 344.49283 1326.60046
1545.0 0.000647 344.41034 1646.54089
2002.0 0.000500 344.32712 2042.69409
2357.0 0.000424 344.24304 2498.50244
2927.0 0.0003416 344.15820 2973.55713
3359.0 0.0002977 344.07260 3395.51636
3585.0 0.0002789 343.98618 3664.53174
3590.0 0.0002786 343.89899 3695.24683
3392.0 0.0002948 343.81104 3480.61450
3098.0 0.0003228 343.72226 3098.82983
2613.0 0.000383 343.63278 2653.38989
2257.0 0.000443 343.54245 2224.93213
1883.0 0.000531 343.45142 1862.97107
1536.0 0.000651 343.35956 1593.78235
1383.0 0.000723 343.26694 1428.48926
1335.0 0.000749 343.17358 1368.87708
1452.0 0.000689 343.07944 1411.24756
1592.0 0.000628 342.98453 1548.08594
1749.0 0.000572 342.88889 1767.41003
2167.0 0.000461 342.79248 2049.72852
2414.0 0.000414 342.69531 2362.82104
2675.0 0.000374 342.59741 2655.61987
3005.0 0.0003328 342.49875 2860.47339
2908.0 0.0003439 342.39935 2920.06543
2752.0 0.000363 342.29919 2827.57886
2664.0 0.000375 342.19836 2628.67700
2400.0 0.000417 342.09671 2379.92505
2157.0 0.000464 341.99442 2116.66235
1813.0 0.000552 341.89139 1852.53357
1635.0 0.000612 341.78760 1595.32251
1375.0 0.000727 341.68314 1356.87598
1184.0 0.000845 341.57791 1149.08252
1042.0 0.000960 341.47205 977.40930
894.0 0.001119 341.36539 841.29700
689.0 0.001451 341.25815 736.60535
630.0 0.001587 341.15021 657.91711
592.0 0.001689 341.04150 599.71350
558.0 0.001792 340.93216 556.95752
513.0 0.001949 340.82208 525.39728
508.0 0.001969 340.71143 501.68930
478.0 0.002092 340.60001 483.37308
451.0 0.002217 340.48801 468.74231
456.0 0.002193 340.37534 456.67279
454.0 0.002203 340.26199 446.86395
432.0 0.002315 340.14804 438.05634
456.0 0.002193 340.03345 430.36459
428.0 0.002336 339.91818 423.58859
460.0 0.002174 339.80231 417.57971
443.0 0.002257 339.68582 412.22186
379.0 0.002639 339.56870 407.42090
412.0 0.002427 339.45102 403.09921
442.0 0.002262 339.33267 399.19116
439.0 0.002278 339.21381 395.64267
397.0 0.002519 339.09433 392.40756
411.0 0.002433 338.97418 389.44739
403.0 0.002481 338.85358 386.72955
401.0 0.002494 338.73233 384.22638
383.0 0.002611 338.61060 381.91422
343.0 0.002915 338.48819 379.77274
343.0 0.002915 338.36536 377.78448
339.0 0.002950 338.24197 375.93433
369.0 0.002710 338.11798 374.20853
350.0 0.002857 337.99356 372.59598
377.0 0.002653 337.86853 371.08612
355.0 0.002817 337.74304 369.47470
374.0 0.002674 337.61700 368.14786
397.0 0.002519 337.49054 366.89990
371.0 0.002695 337.36353 365.72449
357.0 0.002801 337.23608 364.61621
416.0 0.002404 337.10815 363.57056
361.0 0.002770 336.97974 362.58282
342.0 0.002924 336.85092 361.64984
379.0 0.002639 336.72159 360.76822
376.0 0.002660 336.59186 357.38916
391.0 0.002558 336.46167 356.64700
369.0 0.002710 336.33112 355.94913
355.0 0.002817 336.20010 355.29501
370.0 0.002703 336.06873 354.68527
331.0 0.003021 335.93692 354.12207
353.0 0.002833 335.80472 353.61115
316.0 0.003165 335.67215 353.76852
375.0 0.002667 335.53922 353.40948
345.0 0.002899 335.40591 353.15485
366.0 0.002732 335.27222 353.03934
350.0 0.002857 335.13828 353.10657
402.0 0.002488 335.00394 353.40414
306.0 0.003268 334.86923 353.97733
313.0 0.003195 334.73428 354.85806
339.0 0.002950 334.59897 356.05057
328.0 0.003049 334.46341 357.51120
363.0 0.002755 334.32751 359.11887
354.0 0.002825 334.19138 360.66611
342.0 0.002924 334.05490 361.92670
394.0 0.002538 333.91821 362.79532
323.0 0.003096 333.78131 363.31744
329.0 0.003040 333.64407 363.52957
381.0 0.002625 333.50668 363.30746
354.0 0.002825 333.36899 362.41299
346.0 0.002890 333.23114 360.73221
333.0 0.003003 333.09305 358.44461
358.0 0.002793 332.95480 355.90622
350.0 0.002857 332.81631 353.43469
374.0 0.002674 332.67767 351.22418
344.0 0.002907 332.53891 349.36206
313.0 0.003195 332.39990 347.86334
340.0 0.002941 332.26080 346.69916
300.0 0.003333 332.12155 345.81583
342.0 0.002924 331.98218 345.15250
328.0 0.003049 331.84265 344.64990
350.0 0.002857 331.70306 344.26624
329.0 0.003040 331.56339 343.96518
340.0 0.002941 331.42352 343.72427
361.0 0.002770 331.28366 344.72192
339.0 0.002950 331.14368 344.58627
363.0 0.002755 331.00369 344.48499
321.0 0.003115 330.86356 344.41580
368.0 0.002717 330.72348 344.37842
356.0 0.002809 330.58331 344.37280
340.0 0.002941 330.44315 344.40027
340.0 0.002941 330.30301 344.46243
381.0 0.002625 330.16275 344.56171
375.0 0.002667 330.02261 342.14612
379.0 0.002639 329.88239 342.37347
342.0 0.002924 329.74228 342.64838
360.0 0.002778 329.60211 342.97662
382.0 0.002618 329.46210 343.36533
333.0 0.003003 329.32205 343.82336
386.0 0.002591 329.18210 344.36197
345.0 0.002899 329.04227 344.99612
359.0 0.002786 328.90247 345.74622
352.0 0.002841 328.76279 346.64294
353.0 0.002833 328.62314 347.73318
356.0 0.002809 328.48370 349.09262
354.0 0.002825 328.34430 350.83981
339.0 0.002950 328.20508 353.15616
354.0 0.002825 328.06601 356.27985
363.0 0.002755 327.92703 360.59613
402.0 0.002488 327.78827 364.75885
328.0 0.003049 327.64966 372.65582
367.0 0.002725 327.51123 382.84360
411.0 0.002433 327.37296 395.42087
399.0 0.002506 327.23492 410.13055
436.0 0.002294 327.09705 425.74530
435.0 0.002299 326.95944 441.68723
482.0 0.002075 326.82202 455.31485
474.0 0.002110 326.68484 464.52200
511.0 0.001957 326.54794 468.98279
483.0 0.002070 326.41122 471.17371
473.0 0.002114 326.27484 475.35635
474.0 0.002110 326.13864 485.88895
494.0 0.002024 326.00281 506.19305
506.0 0.001976 325.86719 538.46918
551.0 0.001815 325.73190 583.20691
665.0 0.001504 325.59695 638.65247
688.0 0.001453 325.46225 700.05957
684.0 0.001462 325.32791 758.76355
759.0 0.001318 325.19388 802.08282
767.0 0.001304 325.06021 816.87506
780.0 0.001282 324.92685 797.39911
724.0 0.001381 324.79391 749.78363
724.0 0.001381 324.66132 686.94769
651.0 0.001536 324.52902 620.89880
585.0 0.001709 324.39722 559.58234
508.0 0.001969 324.26569 507.20792
436.0 0.002294 324.13464 465.29785
449.0 0.002227 324.00397 433.56815
450.0 0.002222 323.87372 410.65396
431.0 0.002320 323.74387 394.72421
400.0 0.002500 323.61444 383.94766
395.0 0.002532 323.48550 377.06262
417.0 0.002398 323.35696 372.32584
368.0 0.002717 323.22891 369.22464
368.0 0.002717 323.10126 367.25519
352.0 0.002841 322.97412 366.12048
364.0 0.002747 322.84744 365.65833
355.0 0.002817 322.72125 365.79028
406.0 0.002463 322.59552 366.49402
373.0 0.002681 322.47034 367.79144
358.0 0.002793 322.34564 369.75281
359.0 0.002786 322.22137 372.51746
352.0 0.002841 322.09775 376.33652
343.0 0.002915 321.97455 381.64249
436.0 0.002294 321.85190 389.15118
378.0 0.002646 321.72983 399.98132
376.0 0.002660 321.60828 415.77872
436.0 0.002294 321.48727 438.66946
448.0 0.002232 321.36682 471.23502
515.0 0.001942 321.24692 516.07062
532.0 0.001880 321.12756 575.17834
589.0 0.001698 321.00882 649.13220
732.0 0.001366 320.89066 736.15851
841.0 0.001189 320.77307 830.67322
929.0 0.001076 320.65604 922.22375
1022.0 0.000978 320.53967 994.46735
1046.0 0.000956 320.42386 1028.69055
1026.0 0.000975 320.30862 1013.89801
967.0 0.001034 320.19409 955.32379
923.0 0.001083 320.08011 870.17328
799.0 0.001252 319.96677 776.50159
714.0 0.001401 319.85400 687.10840
600.0 0.001667 319.74197 609.22614
550.0 0.001818 319.63049 545.94269
530.0 0.001887 319.51968 497.51031
437.0 0.002288 319.40955 462.39764
456.0 0.002193 319.30002 438.18744
401.0 0.002494 319.19119 422.29282
438.0 0.002283 319.08295 412.41980
427.0 0.002342 318.97546 406.81970
405.0 0.002469 318.86859 404.27722
373.0 0.002681 318.76239 404.07098
403.0 0.002481 318.65692 405.87433
418.0 0.002392 318.55206 409.68552
415.0 0.002410 318.44791 415.87863
450.0 0.002222 318.34445 425.22491
448.0 0.002232 318.24167 439.09958
439.0 0.002278 318.13956 459.67786
485.0 0.002062 318.03818 490.12097
529.0 0.001890 317.93750 534.55316
529.0 0.001890 317.83752 597.82990
691.0 0.001447 317.73822 684.76648
757.0 0.001321 317.63965 798.95160
894.0 0.001119 317.54178 941.17883
1120.0 0.000893 317.44461 1107.59644
1225.0 0.000816 317.34821 1287.46521
1432.0 0.000698 317.25247 1460.43274
1582.0 0.000632 317.15747 1595.30566
1594.0 0.000627 317.06317 1656.93042
1599.0 0.000625 316.96964 1625.22595
1415.0 0.000707 316.87683 1510.59143
1403.0 0.000713 316.78467 1345.54590
1149.0 0.000870 316.69336 1164.05481
1034.0 0.000967 316.60269 990.24475
900.0 0.001111 316.51279 837.81189
734.0 0.001362 316.42355 712.66333
610.0 0.001639 316.33517 615.35242
579.0 0.001727 316.24744 543.03400
511.0 0.001957 316.16043 491.13336
489.0 0.002045 316.07422 454.68228
461.0 0.002169 315.98868 429.72736
427.0 0.002342 315.90393 411.70367
370.0 0.002703 315.81985 398.57172
384.0 0.002604 315.73663 388.63312
434.0 0.002304 315.65405 380.81619
387.0 0.002584 315.57224 374.46655
404.0 0.002475 315.49118 369.18579
381.0 0.002625 315.41083 364.72513
386.0 0.002591 315.33121 360.92123
406.0 0.002463 315.25238 357.66116
400.0 0.002500 315.17426 354.86383
371.0 0.002695 315.09683 352.47144
414.0 0.002415 315.02020 350.44550
368.0 0.002717 314.94424 348.76691
384.0 0.002604 314.86908 347.43799
379.0 0.002639 314.79462 346.48285
352.0 0.002841 314.72089 345.94846
377.0 0.002653 314.64792 345.99771
395.0 0.002532 314.57562 346.50565
396.0 0.002525 314.50412 347.62653
379.0 0.002639 314.43329 349.37872
364.0 0.002747 314.36319 351.62878
366.0 0.002732 314.29388 354.38913
366.0 0.002732 314.22522 357.27014
404.0 0.002475 314.15729 359.78387
380.0 0.002632 314.09006 361.33127
372.0 0.002688 314.02359 361.48334
365.0 0.002740 313.95779 360.29974
360.0 0.002778 313.89270 358.29938
384.0 0.002604 313.82831 356.12753
390.0 0.002564 313.76471 354.31540
377.0 0.002653 313.70172 353.25195
337.0 0.002967 313.63943 353.25705
339.0 0.002950 313.57791 354.26700
361.0 0.002770 313.51700 357.57263
336.0 0.002976 313.45682 363.40219
367.0 0.002725 313.39734 372.60889
370.0 0.002703 313.33850 386.21045
383.0 0.002611 313.28036 405.25140
424.0 0.002358 313.22290 430.56714
423.0 0.002364 313.16614 462.41708
470.0 0.002128 313.10999 500.13794
495.0 0.002020 313.05453 541.63531
578.0 0.001730 312.99976 582.80042
567.0 0.001764 312.94562 617.07837
619.0 0.001616 312.89209 636.42542
563.0 0.001776 312.83926 634.99097
588.0 0.001701 312.78708 613.27966
592.0 0.001689 312.73550 577.76593
556.0 0.001799 312.68460 536.48877
467.0 0.002141 312.63431 495.73090
422.0 0.002370 312.58463 459.35947
401.0 0.002494 312.53558 429.32257
435.0 0.002299 312.48718 406.21960
396.0 0.002525 312.43933 389.75201
348.0 0.002874 312.39212 379.09805
334.0 0.002994 312.34555 373.22009
344.0 0.002907 312.29953 371.07217
367.0 0.002725 312.25409 371.68851
346.0 0.002890 312.20923 374.19189
362.0 0.002762 312.16501 377.84653
344.0 0.002907 312.12131 382.21436
370.0 0.002703 312.07822 387.20691
439.0 0.002278 312.03564 392.80014
411.0 0.002433 311.99371 398.59784
389.0 0.002571 311.95224 403.54822
371.0 0.002695 311.91135 406.02344
386.0 0.002591 311.87103 404.51254
440.0 0.002273 311.83121 398.67108
417.0 0.002398 311.79193 389.61078
380.0 0.002632 311.75320 379.07327
393.0 0.002545 311.71497 367.94531
352.0 0.002841 311.67722 358.38074
332.0 0.003012 311.64001 350.25076
341.0 0.002933 311.60330 343.70898
337.0 0.002967 311.56705 338.68985
344.0 0.002907 311.53134 334.99631
349.0 0.002865 311.49606 332.37442
321.0 0.003115 311.46127 330.57153
355.0 0.002817 311.42691 329.37314
354.0 0.002825 311.39310 328.61981
346.0 0.002890 311.35968 328.20886
335.0 0.002985 311.32672 328.08746
347.0 0.002882 311.29422 328.24026
348.0 0.002874 311.26212 328.67587
326.0 0.003067 311.23047 329.41348
338.0 0.002959 311.19922 330.46777
344.0 0.002907 311.16843 331.83536
351.0 0.002849 311.13800 333.47913
375.0 0.002667 311.10797 335.31113
327.0 0.003058 311.07834 337.17313
330.0 0.003030 311.04910 338.83188
316.0 0.003165 311.02023 340.04007
331.0 0.003021 310.99173 340.67883
343.0 0.002915 310.96362 340.86011
321.0 0.003115 310.93585 340.85931
334.0 0.002994 310.90842 340.97006
338.0 0.002959 310.88138 341.42899
298.0 0.003356 310.85464 342.42148
311.0 0.003215 310.82822 344.11819
313.0 0.003195 310.80215 346.72171
337.0 0.002967 310.77637 350.53052
338.0 0.002959 310.75089 356.02103
357.0 0.002801 310.72571 362.72681
351.0 0.002849 310.70087 374.09122
413.0 0.002421 310.67624 390.33301
417.0 0.002398 310.65192 413.16220
399.0 0.002506 310.62793 444.37476
464.0 0.002155 310.60413 485.49231
565.0 0.001770 310.58060 537.26471
618.0 0.001618 310.55734 599.07520
668.0 0.001497 310.53430 668.23761
823.0 0.001215 310.51147 739.11371
848.0 0.001179 310.48889 802.24548
971.0 0.001030 310.46655 844.90625
920.0 0.001087 310.44440 855.53668
916.0 0.001092 310.42242 830.95844
840.0 0.001190 310.40073 778.84943
764.0 0.001309 310.37915 712.22510
733.0 0.001364 310.35776 642.81586
624.0 0.001603 310.33658 578.56433
525.0 0.001905 310.31555 523.97949
496.0 0.002016 310.29468 481.07358
518.0 0.001931 310.27396 450.12341
455.0 0.002198 310.25339 430.25278
435.0 0.002299 310.23294 419.89713
407.0 0.002457 310.21265 417.13727
409.0 0.002445 310.19244 419.86505
444.0 0.002252 310.17239 425.76450
397.0 0.002519 310.15244 432.17441
449.0 0.002227 310.13257 436.12848
428.0 0.002336 310.11282 435.06247
432.0 0.002315 310.09314 428.05518
418.0 0.002392 310.07352 416.27606
446.0 0.002242 310.05402 402.41211
401.0 0.002494 310.03458 387.69366
421.0 0.002375 310.01517 373.95599
386.0 0.002591 309.99585 361.97403
381.0 0.002625 309.97656 352.05533
359.0 0.002786 309.95728 344.18561
351.0 0.002849 309.93802 338.12494
346.0 0.002890 309.91885 333.59418
370.0 0.002703 309.89966 330.22723
331.0 0.003021 309.88049 327.71252
351.0 0.002849 309.86133 327.19910
317.0 0.003155 309.84216 325.72226
366.0 0.002732 309.82297 324.53244
331.0 0.003021 309.80377 323.54681
305.0 0.003279 309.78458 322.71085
333.0 0.003003 309.76529 321.99020
300.0 0.003333 309.74600 321.36267
307.0 0.003257 309.72672 320.81305
317.0 0.003155 309.70734 320.33054
321.0 0.003115 309.68790 319.90753
338.0 0.002959 309.66840 319.53854
299.0 0.003344 309.64886 319.22070
295.0 0.003390 309.62924 318.95313
286.0 0.003497 309.60950 318.73883
332.0 0.003012 309.58972 318.58508
334.0 0.002994 309.56985 318.50507
313.0 0.003195 309.54987 318.22913
312.0 0.003205 309.52982 318.36966
313.0 0.003195 309.50961 318.66467
309.0 0.003236 309.48929 319.14868
302.0 0.003311 309.46887 319.85034
335.0 0.002985 309.44830 320.78238
304.0 0.003289 309.42761 321.93036
310.0 0.003226 309.40680 323.23840
319.0 0.003135 309.38586 324.59247
323.0 0.003096 309.36472 325.80249
313.0 0.003195 309.34344 326.61261
318.0 0.003145 309.32205 326.78519
321.0 0.003115 309.30048 326.24197
290.0 0.003448 309.27869 325.12262
305.0 0.003279 309.25677 323.66501
300.0 0.003333 309.23468 322.14609
306.0 0.003268 309.21237 320.71121
290.0 0.003448 309.18988 319.45346
332.0 0.003012 309.16724 318.41324
318.0 0.003145 309.14438 317.59360
276.0 0.00362 309.12128 316.97443
324.0 0.003086 309.09802 316.45490
309.0 0.003236 309.07452 316.13531
319.0 0.003135 309.05081 315.91281
320.0 0.003125 309.02689 315.75974
304.0 0.003289 309.00275 315.65527
293.0 0.003413 308.97839 315.58505
291.0 0.003436 308.95377 315.53964
302.0 0.003311 308.92892 315.51318
320.0 0.003125 308.90384 315.50198
308.0 0.003247 308.87851 315.50372
285.0 0.00351 308.85294 315.51682
296.0 0.003378 308.82712 318.15863
297.0 0.003367 308.80106 318.23233
320.0 0.003125 308.77469 318.31628
299.0 0.003344 308.74814 318.41049
313.0 0.003195 308.72128 318.51453
286.0 0.003497 308.69412 318.62851
291.0 0.003436 308.66675 318.75247
302.0 0.003311 308.63907 318.88641
311.0 0.003215 308.61108 319.03067
323.0 0.003096 308.58289 319.18530
308.0 0.003247 308.55438 319.35065
336.0 0.002976 308.52557 319.52722
280.0 0.00357 308.49649 319.71530
305.0 0.003279 308.46713 319.91550
319.0 0.003135 308.43747 320.11795
278.0 0.00360 308.40750 320.34802
288.0 0.003472 308.37726 320.58850
329.0 0.003040 308.34668 320.84381
286.0 0.003497 308.31583 321.11502
305.0 0.003279 308.28467 321.40308
340.0 0.002941 308.25320 321.70941
321.0 0.003115 308.22144 322.34219
301.0 0.003322 308.18933 322.69388
316.0 0.003165 308.15698 323.06891
311.0 0.003215 308.12430 323.46982
322.0 0.003106 308.09125 323.89984
327.0 0.003058 308.05792 324.36353
301.0 0.003322 308.02429 324.86758
329.0 0.003040 307.99033 325.42114
307.0 0.003257 307.95605 326.03763
321.0 0.003115 307.92148 326.73526
320.0 0.003125 307.88657 327.53772
344.0 0.002907 307.85132 328.47412
322.0 0.003106 307.81580 329.57593
290.0 0.003448 307.77991 330.87350
353.0 0.002833 307.74371 332.38879
323.0 0.003096 307.70718 334.12704
346.0 0.002890 307.67035 335.54526
312.0 0.003205 307.63318 337.63586
348.0 0.002874 307.59570 339.76205
319.0 0.003135 307.55792 341.76736
329.0 0.003040 307.51978 343.46262
319.0 0.003135 307.48132 344.69147
341.0 0.002933 307.44257 345.42822
322.0 0.003106 307.40344 345.80988
326.0 0.003067 307.36401 346.05667
348.0 0.002874 307.32428 346.37183
362.0 0.002762 307.28424 346.90070
281.0 0.00356 307.24387 347.73407
328.0 0.003049 307.20313 348.92358
360.0 0.002778 307.16214 350.49545
336.0 0.002976 307.12079 352.46112
377.0 0.002653 307.07913 354.82764
356.0 0.002809 307.03714 357.50827
342.0 0.002924 306.99490 360.72290
331.0 0.003021 306.95230 364.42300
408.0 0.002451 306.90936 368.65604
428.0 0.002336 306.86618 373.53735
385.0 0.002597 306.82263 379.22986
390.0 0.002564 306.77881 385.98474
367.0 0.002725 306.73462 394.18701
427.0 0.002342 306.69022 404.41434
375.0 0.002667 306.64548 417.50244
445.0 0.002247 306.60040 434.59814
437.0 0.002288 306.55508 457.17181
494.0 0.002024 306.50943 486.95639
512.0 0.001953 306.46350 525.78894
578.0 0.001730 306.41730 575.35388
604.0 0.001656 306.37076 636.85681
689.0 0.001451 306.32394 710.66406
830.0 0.001205 306.27689 795.93604
914.0 0.001094 306.22949 889.95264
972.0 0.001029 306.18185 987.74915
1070.0 0.000935 306.13394 1082.23547
1219.0 0.000820 306.08575 1167.17358
1253.0 0.000798 306.03726 1242.64307
1373.0 0.000728 305.98849 1317.70825
1461.0 0.000684 305.93951 1406.01208
1564.0 0.000639 305.89023 1518.32178
1673.0 0.000598 305.84070 1657.52307
1898.0 0.000527 305.79095 1816.19775
2168.0 0.000461 305.74088 1974.86096
2236.0 0.000447 305.69061 2101.73462
2264.0 0.000442 305.64005 2159.44727
2283.0 0.000438 305.58929 2122.34082
2095.0 0.000477 305.53827 1993.01416
2001.0 0.000500 305.48700 1799.92236
1793.0 0.000558 305.43552 1577.99939
1524.0 0.000656 305.38382 1356.27405
1339.0 0.000747 305.33188 1153.12158
1045.0 0.000957 305.27969 978.28308
966.0 0.001035 305.22736 835.26556
791.0 0.001264 305.17474 723.26782
699.0 0.001431 305.12192 638.76630
666.0 0.001502 305.06894 576.88660
573.0 0.001745 305.01575 532.50311
522.0 0.001916 304.96231 500.98495
534.0 0.001873 304.90875 478.57498
496.0 0.002016 304.85495 462.47092
509.0 0.001965 304.80093 450.72134
474.0 0.002110 304.74680 442.03821
449.0 0.002227 304.69247 435.60461
470.0 0.002128 304.63797 430.91483
456.0 0.002193 304.58328 427.65921
427.0 0.002342 304.52847 425.64951
457.0 0.002188 304.47348 424.77371
469.0 0.002132 304.41830 424.97144
463.0 0.002160 304.36304 426.22101
419.0 0.002387 304.30759 428.53360
425.0 0.002353 304.25201 431.95224
416.0 0.002404 304.19626 436.55414
426.0 0.002347 304.14044 442.44888
494.0 0.002024 304.08447 449.82657
458.0 0.002183 304.02838 458.93130
461.0 0.002169 303.97220 470.14261
470.0 0.002128 303.91586 484.04660
491.0 0.002037 303.85944 501.56821
523.0 0.001912 303.80289 524.17084
533.0 0.001876 303.74631 554.13043
564.0 0.001773 303.68958 594.86359
588.0 0.001701 303.63278 651.41589
649.0 0.001541 303.57590 729.95184
762.0 0.001312 303.51898 838.64648
859.0 0.001164 303.46191 986.36871
1028.0 0.000973 303.40485 1181.59558
1264.0 0.000791 303.34772 1430.54163
1596.0 0.000627 303.29050 1735.00000
2048.0 0.000488 303.23325 2088.83447
2438.0 0.000410 303.17596 2475.81421
2860.0 0.0003497 303.11862 2864.73364
3333.0 0.0003000 303.06128 3206.06445
3527.0 0.0002835 303.00388 3435.91895
3748.0 0.0002668 302.94647 3497.43677
3543.0 0.0002822 302.88901 3373.31470
3272.0 0.0003056 302.83160 3097.94238
2937.0 0.0003405 302.77414 2734.32007
2621.0 0.000382 302.71667 2342.77515
2165.0 0.000462 302.65921 1966.37024
1764.0 0.000567 302.60181 1630.78259
1461.0 0.000684 302.54440 1348.49695
1178.0 0.000849 302.48697 1122.69604
973.0 0.001028 302.42963 950.35553
893.0 0.001120 302.37228 824.87415
765.0 0.001307 302.31497 738.27136
723.0 0.001383 302.25769 682.80261
622.0 0.001608 302.20050 651.87695
633.0 0.001580 302.14334 640.32556
656.0 0.001524 302.08621 644.19751
633.0 0.001580 302.02921 660.26855
646.0 0.001548 301.97226 685.37732
703.0 0.001422 301.91534 715.65002
742.0 0.001348 301.85852 745.72754
800.0 0.001250 301.80185 768.46783
761.0 0.001314 301.74521 776.19073
785.0 0.001274 301.68866 763.98645
715.0 0.001399 301.63226 732.70630
666.0 0.001502 301.57593 688.23578
664.0 0.001506 301.51974 637.85504
588.0 0.001701 301.46368 587.45178
557.0 0.001795 301.40771 540.89215
548.0 0.001825 301.35187 500.25476
493.0 0.002028 301.29617 466.33731
501.0 0.001996 301.24066 439.04492
400.0 0.002500 301.18524 417.70740
352.0 0.002841 301.13000 401.35297
391.0 0.002558 301.07492 388.93066
393.0 0.002545 301.01999 379.46777
428.0 0.002336 300.96521 372.15427
385.0 0.002597 300.91068 366.37006
398.0 0.002513 300.85623 361.67010
376.0 0.002660 300.80203 357.75168
379.0 0.002639 300.74799 354.41541
405.0 0.002469 300.69418 351.53555
361.0 0.002770 300.64053 349.03247
349.0 0.002865 300.58710 346.85144
335.0 0.002985 300.53391 344.98218
379.0 0.002639 300.48090 343.42471
394.0 0.002538 300.42810 342.15063
369.0 0.002710 300.37555 341.18777
359.0 0.002786 300.32327 340.55103
327.0 0.003058 300.27118 340.25067
329.0 0.003040 300.21933 340.28473
343.0 0.002915 300.16776 340.62946
347.0 0.002882 300.11639 341.22784
340.0 0.002941 300.06531 341.97675
377.0 0.002653 300.01453 342.71426
357.0 0.002801 299.96396 343.22870
340.0 0.002941 299.91367 343.32336
342.0 0.002924 299.86365 342.99200
336.0 0.002976 299.81393 342.24570
341.0 0.002933 299.76450 341.41830
348.0 0.002874 299.71536 340.81750
377.0 0.002653 299.66653 340.71585
327.0 0.003058 299.61798 341.33420
351.0 0.002849 299.56970 342.83911
329.0 0.003040 299.52182 345.33499
305.0 0.003279 299.47418 348.85144
373.0 0.002681 299.42688 353.30472
346.0 0.002890 299.37994 358.49280
386.0 0.002591 299.33325 364.03833
345.0 0.002899 299.28696 369.35724
369.0 0.002710 299.24097 373.70273
378.0 0.002646 299.19537 376.41052
381.0 0.002625 299.15005 377.31024
391.0 0.002558 299.10513 376.95767
368.0 0.002717 299.06058 376.44290
353.0 0.002833 299.01633 376.59677
355.0 0.002817 298.97247 379.52155
368.0 0.002717 298.92899 385.94138
373.0 0.002681 298.88589 396.94058
422.0 0.002370 298.84314 413.46167
448.0 0.002232 298.80075 436.17233
468.0 0.002137 298.75879 465.27905
478.0 0.002092 298.71722 500.29834
519.0 0.001927 298.67603 539.77649
580.0 0.001724 298.63522 579.52747
588.0 0.001701 298.59485 617.83630
624.0 0.001603 298.55484 647.06818
635.0 0.001575 298.51526 660.74530
646.0 0.001548 298.47610 655.17456
629.0 0.001590 298.43732 631.79614
610.0 0.001639 298.39899 596.19440
554.0 0.001805 298.36108 554.94165
528.0 0.001894 298.32358 513.32111
472.0 0.002119 298.28653 474.78238
473.0 0.002114 298.24988 441.22290
454.0 0.002203 298.21371 413.42523
421.0 0.002375 298.17795 391.37698
369.0 0.002710 298.14264 374.54831
387.0 0.002584 298.10782 362.12946
377.0 0.002653 298.07339 353.22580
338.0 0.002959 298.03943 346.99799
354.0 0.002825 298.00598 342.76682
374.0 0.002674 297.97293 340.21500
370.0 0.002703 297.94034 338.47208
319.0 0.003135 297.90823 337.56625
313.0 0.003195 297.87662 337.38513
375.0 0.002667 297.84543 337.91742
312.0 0.003205 297.81476 339.24741
354.0 0.002825 297.78458 341.55862
316.0 0.003165 297.75482 345.14413
322.0 0.003106 297.72556 350.41449
330.0 0.003030 297.69681 357.89423
362.0 0.002762 297.66858 368.19891
371.0 0.002695 297.64078 381.98367
383.0 0.002611 297.61349 399.86340
407.0 0.002457 297.58673 422.30182
443.0 0.002257 297.56046 449.46600
490.0 0.002041 297.53467 481.02655
513.0 0.001949 297.50940 515.88013
556.0 0.001799 297.48465 551.85291
566.0 0.001767 297.46039 585.69348
552.0 0.001812 297.43665 613.87494
607.0 0.001647 297.41342 634.10834
582.0 0.001718 297.39072 646.13550
618.0 0.001618 297.36853 650.66302
599.0 0.001669 297.34686 647.60071
594.0 0.001684 297.32571 635.65192
568.0 0.001761 297.30508 613.80707
562.0 0.001779 297.28503 583.17493
496.0 0.002016 297.26547 547.08496
542.0 0.001845 297.24643 509.52637
502.0 0.001992 297.22794 473.71371
453.0 0.002208 297.20999 441.60583
427.0 0.002342 297.19257 411.54102
385.0 0.002597 297.17569 388.97559
371.0 0.002695 297.15936 371.00668
363.0 0.002755 297.14355 357.09665
358.0 0.002793 297.12833 346.57367
310.0 0.003226 297.11362 338.74484
324.0 0.003086 297.09949 332.97485
346.0 0.002890 297.08588 328.73346
336.0 0.002976 297.07278 325.61276
311.0 0.003215 297.06033 323.32364
333.0 0.003003 297.04837 321.68149
360.0 0.002778 297.03696 320.58807
310.0 0.003226 297.02612 320.05719
301.0 0.003322 297.01590 320.02658
307.0 0.003257 297.00616 320.59756
324.0 0.003086 296.99701 321.86154
315.0 0.003175 296.98843 324.01956
334.0 0.002994 296.98041 326.89417
353.0 0.002833 296.97293 330.60959
327.0 0.003058 296.96606 335.08270
347.0 0.002882 296.95972 340.10068
331.0 0.003021 296.95395 344.96320
338.0 0.002959 296.94879 349.69333
362.0 0.002762 296.94415 353.20309
357.0 0.002801 296.94006 354.74136
356.0 0.002809 296.93658 353.89133
351.0 0.002849 296.93372 350.79605
344.0 0.002907 296.93137 346.08560
345.0 0.002899 296.92960 340.56998
352.0 0.002841 296.92844 334.95792
317.0 0.003155 296.92783 329.74832
346.0 0.002890 296.92776 325.24487
337.0 0.002967 296.92828 321.60501
318.0 0.003145 296.92944 318.88504
332.0 0.003012 296.93112 317.07346
325.0 0.003077 296.93338 316.11865
316.0 0.003165 296.93625 315.94748
325.0 0.003077 296.93967 316.47479
308.0 0.003247 296.94366 317.60754
322.0 0.003106 296.94824 319.23837
329.0 0.003040 296.95343 321.23398
336.0 0.002976 296.95917 323.41769
309.0 0.003236 296.96548 325.55850
325.0 0.003077 296.97241 327.39920
325.0 0.003077 296.97989 328.76157
311.0 0.003215 296.98795 329.68701
329.0 0.003040 296.99661 330.47916
308.0 0.003247 297.00583 331.58932
339.0 0.002950 297.01563 333.47205
342.0 0.002924 297.02600 336.40662
321.0 0.003115 297.03699 340.56412
318.0 0.003145 297.04852 345.90714
315.0 0.003175 297.06064 352.17343
376.0 0.002660 297.07339 358.82407
352.0 0.002841 297.08664 364.99576
374.0 0.002674 297.10052 369.54520
350.0 0.002857 297.11499 372.62912
344.0 0.002907 297.13000 371.24448
361.0 0.002770 297.14557 366.94644
354.0 0.002825 297.16177 360.71082
355.0 0.002817 297.17853 353.62720
318.0 0.003145 297.19583 346.54382
367.0 0.002725 297.21375 339.98468
333.0 0.003003 297.23224 334.20117
335.0 0.002985 297.25128 329.25699
338.0 0.002959 297.27090 325.11789
317.0 0.003155 297.29114 321.71884
329.0 0.003040 297.31189 318.99054
316.0 0.003165 297.33322 316.85638
300.0 0.003333 297.35513 315.23145
336.0 0.002976 297.37762 313.99438
299.0 0.003344 297.40067 313.14172
315.0 0.003175 297.42429 312.60757
321.0 0.003115 297.44846 312.27795
324.0 0.003086 297.47324 312.14935
311.0 0.003215 297.49854 312.19565
305.0 0.003279 297.52441 312.39981
294.0 0.003401 297.55084 312.75269
332.0 0.003012 297.57785 313.25290
311.0 0.003215 297.60541 313.90747
317.0 0.003155 297.63354 314.73239
336.0 0.002976 297.66220 315.75330
350.0 0.002857 297.69144 317.00937
352.0 0.002841 297.72122 318.55667
333.0 0.003003 297.75153 320.47574
333.0 0.003003 297.78241 322.88272
345.0 0.002899 297.81381 325.64166
325.0 0.003077 297.84583 329.60071
349.0 0.002865 297.87833 334.77560
335.0 0.002985 297.91138 341.58414
355.0 0.002817 297.94501 350.53735
373.0 0.002681 297.97910 362.21658
354.0 0.002825 298.01379 377.23535
375.0 0.002667 298.04901 396.16345
369.0 0.002710 298.08475 419.38989
426.0 0.002347 298.12103 446.92953
465.0 0.002151 298.15784 478.19901
503.0 0.001988 298.19516 511.76990
531.0 0.001883 298.23303 545.09479
538.0 0.001859 298.27136 574.33551
528.0 0.001894 298.31030 594.71161
531.0 0.001883 298.34970 601.88086
524.0 0.001908 298.38962 594.02850
550.0 0.001818 298.43005 572.98102
495.0 0.002020 298.47101 543.13538
493.0 0.002028 298.51245 509.31885
456.0 0.002193 298.55438 475.37164
447.0 0.002237 298.59689 443.82495
419.0 0.002387 298.63980 416.10754
431.0 0.002320 298.68323 392.83276
371.0 0.002695 298.72720 374.03287
359.0 0.002786 298.77164 359.35049
334.0 0.002994 298.81653 348.20404
379.0 0.002639 298.86191 339.92520
361.0 0.002770 298.90784 333.86386
321.0 0.003115 298.95413 329.45410
339.0 0.002950 299.00095 326.24338
331.0 0.003021 299.04828 323.89609
329.0 0.003040 299.09601 322.17874
326.0 0.003067 299.14423 320.93967
337.0 0.002967 299.19290 319.91251
312.0 0.003205 299.24207 319.39084
323.0 0.003096 299.29160 319.16653
298.0 0.003356 299.34164 320.28897
313.0 0.003195 299.39212 320.59854
347.0 0.002882 299.44299 320.92316
276.0 0.00362 299.49435 321.59454
307.0 0.003257 299.54614 322.32190
341.0 0.002933 299.59833 323.08578
347.0 0.002882 299.65094 323.54156
313.0 0.003195 299.70398 323.66031
321.0 0.003115 299.75742 323.38171
325.0 0.003077 299.81128 322.77557
361.0 0.002770 299.86554 321.97458
352.0 0.002841 299.92020 321.11801
333.0 0.003003 299.97525 320.31424
282.0 0.00355 300.03067 319.63443
284.0 0.00352 300.08649 319.11905
326.0 0.003067 300.14270 318.78711
326.0 0.003067 300.19928 318.64160
339.0 0.002950 300.25623 318.67657
312.0 0.003205 300.31354 318.88022
324.0 0.003086 300.37119 319.24060
318.0 0.003145 300.42920 319.74820
313.0 0.003195 300.48761 320.39954
333.0 0.003003 300.54630 321.19940
340.0 0.002941 300.60535 322.16364
329.0 0.003040 300.66473 323.32321
339.0 0.002950 300.72443 324.72861
321.0 0.003115 300.78439 326.45627
328.0 0.003049 300.84470 328.61777
340.0 0.002941 300.90536 331.36697
347.0 0.002882 300.96628 334.90793
380.0 0.002632 301.02753 339.49799
337.0 0.002967 301.08905 345.44363
346.0 0.002890 301.15082 353.06839
380.0 0.002632 301.21286 364.64505
392.0 0.002551 301.27521 376.67221
347.0 0.002882 301.33780 391.26352
380.0 0.002632 301.40063 408.37408
475.0 0.002105 301.46371 427.65826
458.0 0.002183 301.52704 448.33157
487.0 0.002053 301.59064 469.15555
527.0 0.001898 301.65439 488.60556
465.0 0.002151 301.71838 505.12180
521.0 0.001919 301.78262 517.16962
525.0 0.001905 301.84702 523.15594
500.0 0.002000 301.91162 521.73218
502.0 0.001992 301.97641 512.63287
475.0 0.002105 302.04141 497.20572
461.0 0.002169 302.10654 477.91867
452.0 0.002212 302.17188 457.34009
426.0 0.002347 302.23730 437.46039
439.0 0.002278 302.30295 419.55173
377.0 0.002653 302.36865 404.29196
368.0 0.002717 302.43457 391.93005
395.0 0.002532 302.50058 382.40381
397.0 0.002519 302.56665 375.51151
377.0 0.002653 302.63293 370.90085
342.0 0.002924 302.69922 368.20459
360.0 0.002778 302.76563 367.07776
353.0 0.002833 302.83212 367.23077
393.0 0.002545 302.89868 368.44614
348.0 0.002874 302.96527 370.58258
360.0 0.002778 303.03192 373.57217
332.0 0.003012 303.09866 377.41586
387.0 0.002584 303.16534 382.18173
372.0 0.002688 303.23212 388.01099
414.0 0.002415 303.29892 395.07227
389.0 0.002571 303.36569 403.83411
405.0 0.002469 303.43243 414.74197
440.0 0.002273 303.49921 428.52811
428.0 0.002336 303.56592 446.23013
486.0 0.002058 303.63260 469.27713
499.0 0.002004 303.69925 499.55719
557.0 0.001795 303.76584 539.42902
609.0 0.001642 303.83237 591.82135
670.0 0.001493 303.89880 659.27338
771.0 0.001297 303.96518 744.71844
829.0 0.001206 304.03143 850.33112
1011.0 0.000989 304.09756 977.18927
1164.0 0.000859 304.16360 1124.52991
1238.0 0.000808 304.22949 1288.72620
1500.0 0.000667 304.29526 1462.00000
1554.0 0.000644 304.36087 1631.01099
1704.0 0.000587 304.42633 1776.11426
1818.0 0.000550 304.49158 1873.52942
1860.0 0.000538 304.55667 1902.74792
1764.0 0.000567 304.62158 1856.65356
1688.0 0.000592 304.68625 1745.78003
1656.0 0.000604 304.75070 1592.21143
1527.0 0.000655 304.81494 1419.45972
1379.0 0.000725 304.87897 1246.17297
1228.0 0.000814 304.94266 1084.80371
1113.0 0.000898 305.00613 942.58002
932.0 0.001073 305.06934 822.81134
802.0 0.001247 305.13223 725.94757
717.0 0.001395 305.19485 650.43274
683.0 0.001464 305.25714 593.43396
652.0 0.001534 305.31912 551.45734
631.0 0.001585 305.38074 520.82794
606.0 0.001650 305.44202 498.05740
498.0 0.002008 305.50296 480.16809
498.0 0.002008 305.56354 464.99072
492.0 0.002033 305.62369 451.31232
479.0 0.002088 305.68344 438.67963
449.0 0.002227 305.74283 427.06149
427.0 0.002342 305.80173 416.55225
465.0 0.002151 305.86026 407.23309
423.0 0.002364 305.91833 399.95462
415.0 0.002410 305.97595 393.06821
373.0 0.002681 306.03305 387.31979
405.0 0.002469 306.08975 382.59070
383.0 0.002611 306.14587 378.54645
363.0 0.002755 306.20151 375.56903
390.0 0.002564 306.25665 373.26892
400.0 0.002500 306.31125 371.53415
382.0 0.002618 306.36530 370.26773
386.0 0.002591 306.41876 369.39154
370.0 0.002703 306.47171 368.84323
372.0 0.002688 306.52402 368.58548
368.0 0.002717 306.57574 368.60028
351.0 0.002849 306.62692 368.88449
389.0 0.002571 306.67743 369.44318
354.0 0.002825 306.72729 370.28644
346.0 0.002890 306.77655 371.42786
384.0 0.002604 306.82510 372.88461
352.0 0.002841 306.87302 374.67856
387.0 0.002584 306.92023 376.83707
358.0 0.002793 306.96677 379.39465
384.0 0.002604 307.01254 382.39594
399.0 0.002506 307.05765 385.89914
395.0 0.002532 307.10202 389.98297
374.0 0.002674 307.14566 394.75653
368.0 0.002717 307.18848 400.37720
379.0 0.002639 307.23059 407.07550
363.0 0.002755 307.27191 415.19470
434.0 0.002304 307.31241 425.24329
440.0 0.002273 307.35208 437.96277
434.0 0.002304 307.39099 454.40192
448.0 0.002232 307.42905 475.98611
466.0 0.002146 307.46625 504.55719
497.0 0.002012 307.50259 542.34497
553.0 0.001808 307.53812 591.89001
548.0 0.001825 307.57272 655.76483
637.0 0.001570 307.60645 736.25623
745.0 0.001342 307.63928 834.89801
853.0 0.001172 307.67120 951.92242
973.0 0.001028 307.70218 1085.62878
1199.0 0.000834 307.73224 1231.60632
1358.0 0.000736 307.76135 1381.76001
1569.0 0.000637 307.78949 1523.35547
1634.0 0.000612 307.81668 1639.17126
1863.0 0.000537 307.84290 1710.74878
1753.0 0.000570 307.86807 1725.34070
1746.0 0.000573 307.89227 1682.41650
1662.0 0.000602 307.91553 1593.55469
1623.0 0.000616 307.93768 1475.78223
1523.0 0.000657 307.95883 1344.71045
1277.0 0.000783 307.97894 1211.72119
1168.0 0.000856 307.99802 1084.47083
1025.0 0.000976 308.01599 968.18787
879.0 0.001138 308.03290 866.31995
831.0 0.001203 308.04877 780.61847
778.0 0.001285 308.06351 711.26251
697.0 0.001435 308.07715 657.24329
611.0 0.001637 308.08972 616.87598
611.0 0.001637 308.10114 588.26971
597.0 0.001675 308.11145 569.68066
555.0 0.001802 308.12061 559.75195
553.0 0.001808 308.12866 557.67438
562.0 0.001779 308.13553 563.30060
610.0 0.001639 308.14124 577.23828
623.0 0.001605 308.14581 600.92169
566.0 0.001767 308.14917 636.64441
662.0 0.001511 308.15137 687.51202
706.0 0.001416 308.15240 757.26764
773.0 0.001294 308.15219 849.94495
859.0 0.001164 308.15082 969.32642
981.0 0.001019 308.14825 1118.22229
1126.0 0.000888 308.14441 1297.60254
1372.0 0.000729 308.13937 1505.61438
1634.0 0.000612 308.13312 1736.42859
1899.0 0.000527 308.12564 1978.80017
2112.0 0.000473 308.11691 2214.41919
2315.0 0.000432 308.10693 2417.09888
2514.0 0.000398 308.09576 2555.56079
2562.0 0.000390 308.08328 2602.54907
2574.0 0.000389 308.06955 2547.38403
2385.0 0.000419 308.05460 2401.93213
2292.0 0.000436 308.03836 2193.98706
2040.0 0.000490 308.02081 1954.68469
1842.0 0.000543 308.00204 1709.75500
1699.0 0.000589 307.98199 1477.38135
1400.0 0.000714 307.96066 1267.73035
1181.0 0.000847 307.93805 1086.66504
1017.0 0.000983 307.91418 935.79047
848.0 0.001179 307.88901 813.92871
825.0 0.001212 307.86255 717.97003
697.0 0.001435 307.83478 644.19836
637.0 0.001570 307.80579 588.26514
559.0 0.001789 307.77545 546.17981
545.0 0.001835 307.74384 514.49286
503.0 0.001988 307.71097 490.42554
507.0 0.001972 307.67679 471.86472
478.0 0.002092 307.64133 457.28076
460.0 0.002174 307.60455 445.61252
438.0 0.002283 307.56656 436.15198
422.0 0.002370 307.52722 428.44620
410.0 0.002439 307.48660 422.22839
374.0 0.002674 307.44476 417.36929
400.0 0.002500 307.40161 413.85135
398.0 0.002513 307.35718 411.75504
430.0 0.002326 307.31149 411.25143
395.0 0.002532 307.26453 412.59216
432.0 0.002315 307.21628 416.09164
431.0 0.002320 307.16681 422.09396
433.0 0.002309 307.11606 430.92337
473.0 0.002114 307.06409 442.81903
428.0 0.002336 307.01083 457.85513
468.0 0.002137 306.95639 475.85730
476.0 0.002101 306.90067 496.27847
529.0 0.001890 306.84372 518.09808
562.0 0.001779 306.78561 539.65100
581.0 0.001721 306.72623 558.54358
578.0 0.001730 306.66565 571.86316
581.0 0.001721 306.60385 576.94739
601.0 0.001664 306.54095 572.53754
573.0 0.001745 306.47678 559.50043
523.0 0.001912 306.41147 540.18298
517.0 0.001934 306.34503 517.60699
499.0 0.002004 306.27737 494.29089
494.0 0.002024 306.20862 472.05408
533.0 0.001876 306.13867 452.04605
491.0 0.002037 306.06766 434.89713
442.0 0.002262 305.99551 420.85480
405.0 0.002469 305.92227 409.89417
408.0 0.002451 305.84793 400.56393
382.0 0.002618 305.77252 395.07892
376.0 0.002660 305.69604 391.85910
413.0 0.002421 305.61850 390.63321
391.0 0.002558 305.53995 391.22586
351.0 0.002849 305.46033 393.59924
426.0 0.002347 305.37970 397.89020
402.0 0.002488 305.29810 404.87210
380.0 0.002632 305.21548 414.29007
369.0 0.002710 305.13193 427.42859
424.0 0.002358 305.04739 445.43027
456.0 0.002193 304.96194 469.68973
482.0 0.002075 304.87552 501.77063
459.0 0.002179 304.78827 543.25793
546.0 0.001832 304.70004 595.53827
600.0 0.001667 304.61099 659.52075
650.0 0.001538 304.52103 735.27563
695.0 0.001439 304.43030 821.79419
824.0 0.001214 304.33871 916.34467
952.0 0.001050 304.24631 1014.04803
1043.0 0.000959 304.15314 1107.25183
1203.0 0.000831 304.05917 1185.39941
1155.0 0.000866 303.96448 1236.43103
1169.0 0.000855 303.86902 1250.50281
1209.0 0.000827 303.77292 1224.52551
1173.0 0.000853 303.67603 1163.84167
1122.0 0.000891 303.57855 1079.39404
992.0 0.001008 303.48041 983.08502
853.0 0.001172 303.38162 884.69385
826.0 0.001211 303.28223 791.05511
692.0 0.001445 303.18219 706.29633
675.0 0.001481 303.08167 632.60962
574.0 0.001742 302.98056 570.68329
515.0 0.001942 302.87894 520.14825
543.0 0.001842 302.77682 479.93286
432.0 0.002315 302.67419 448.57175
413.0 0.002421 302.57117 424.46295
411.0 0.002433 302.46765 406.06036
420.0 0.002381 302.36374 392.00003
397.0 0.002519 302.25943 381.15820
358.0 0.002793 302.15482 372.73514
355.0 0.002817 302.04977 365.93329
379.0 0.002639 301.94446 360.36133
365.0 0.002740 301.83887 355.69492
378.0 0.002646 301.73297 351.71124
349.0 0.002865 301.62683 348.25699
332.0 0.003012 301.52048 345.24042
323.0 0.003096 301.41394 342.55801
354.0 0.002825 301.30719 340.16486
333.0 0.003003 301.20032 338.01981
330.0 0.003030 301.09332 336.08945
331.0 0.003021 300.98627 334.34631
324.0 0.003086 300.87912 332.76804
292.0 0.003425 300.77188 331.33575
334.0 0.002994 300.66467 330.03391
331.0 0.003021 300.55743 328.84869
337.0 0.002967 300.45023 327.76901
323.0 0.003096 300.34308 326.78494
313.0 0.003195 300.23605 325.88824
323.0 0.003096 300.12909 325.07184
310.0 0.003226 300.02222 324.32944
276.0 0.00362 299.91559 323.65610
301.0 0.003322 299.80908 323.07382
319.0 0.003135 299.70279 322.52649
329.0 0.003040 299.59674 322.03735
315.0 0.003175 299.49097 321.60400
306.0 0.003268 299.38544 321.22449
343.0 0.002915 299.28027 319.82449
350.0 0.002857 299.17538 319.56412
326.0 0.003067 299.07086 319.35513
323.0 0.003096 298.96674 319.19821
340.0 0.002941 298.86301 319.09399
313.0 0.003195 298.75974 319.04398
304.0 0.003289 298.65689 318.95511
297.0 0.003367 298.55457 319.01483
309.0 0.003236 298.45273 319.14362
344.0 0.002907 298.35141 319.33905
302.0 0.003311 298.25070 319.60657
308.0 0.003247 298.15051 319.95218
337.0 0.002967 298.05096 320.38712
349.0 0.002865 297.95200 320.91461
332.0 0.003012 297.85373 321.54965
336.0 0.002976 297.75610 322.30664
330.0 0.003030 297.65918 323.20535
330.0 0.003030 297.56302 324.27121
361.0 0.002770 297.46756 325.53931
317.0 0.003155 297.37286 327.06009
315.0 0.003175 297.27890 328.90582
331.0 0.003021 297.18585 331.18167
350.0 0.002857 297.09354 334.03906
374.0 0.002674 297.00211 337.69263
378.0 0.002646 296.91156 342.43634
329.0 0.003040 296.82187 348.65924
365.0 0.002740 296.73309 356.85159
365.0 0.002740 296.64523 367.59793
412.0 0.002427 296.55835 381.54843
412.0 0.002427 296.47241 399.36508
389.0 0.002571 296.38745 421.64032
465.0 0.002151 296.30350 448.79160
480.0 0.002083 296.22058 480.93790
497.0 0.002012 296.13864 517.76221
540.0 0.001852 296.05780 556.43799
618.0 0.001618 295.97803 599.03906
618.0 0.001618 295.89929 640.86047
670.0 0.001493 295.82169 677.92285
719.0 0.001391 295.74515 705.35168
730.0 0.001370 295.66977 718.51959
725.0 0.001379 295.59549 714.85223
654.0 0.001529 295.52240 695.10950
684.0 0.001462 295.45047 662.98816
676.0 0.001479 295.37967 623.42535
628.0 0.001592 295.31009 580.99194
584.0 0.001712 295.24167 539.15112
521.0 0.001919 295.17444 500.21332
504.0 0.001984 295.10843 465.52695
498.0 0.002008 295.04367 435.74084
455.0 0.002198 294.98010 411.41718
388.0 0.002577 294.91776 391.40399
377.0 0.002653 294.85672 375.63992
399.0 0.002506 294.79684 363.49582
358.0 0.002793 294.73825 354.31348
355.0 0.002817 294.68088 347.47769
361.0 0.002770 294.62482 342.46005
348.0 0.002874 294.56998 338.83627
329.0 0.003040 294.51642 336.28900
354.0 0.002825 294.46414 334.59357
336.0 0.002976 294.41309 333.60147
354.0 0.002825 294.36331 333.22409
337.0 0.002967 294.31482 333.41595
350.0 0.002857 294.26755 334.16116
333.0 0.003003 294.22153 335.45987
348.0 0.002874 294.17682 337.31604
330.0 0.003030 294.13330 339.72986
354.0 0.002825 294.09106 342.69778
324.0 0.003086 294.05005 346.22064
361.0 0.002770 294.01028 350.30725
351.0 0.002849 293.97174 354.96066
371.0 0.002695 293.93442 360.14536
363.0 0.002755 293.89832 365.75159
349.0 0.002865 293.86340 371.57263
355.0 0.002817 293.82965 377.12540
367.0 0.002725 293.79712 382.49084
380.0 0.002632 293.76575 387.34470
374.0 0.002674 293.73553 391.91989
383.0 0.002611 293.70642 396.89661
391.0 0.002558 293.67850 403.29355
390.0 0.002564 293.65164 412.26093
409.0 0.002445 293.62589 424.89893
427.0 0.002342 293.60120 442.13953
449.0 0.002227 293.57761 464.65939
454.0 0.002203 293.55502 492.78726
503.0 0.001988 293.53348 526.39520
534.0 0.001873 293.51294 564.76434
572.0 0.001748 293.49335 606.41437
586.0 0.001706 293.47473 648.88776
721.0 0.001387 293.45706 688.56378
737.0 0.001357 293.44031 720.74036
751.0 0.001332 293.42441 740.40045
773.0 0.001294 293.40939 743.79785
748.0 0.001337 293.39523 730.10968
712.0 0.001404 293.38187 701.83301
691.0 0.001447 293.36926 663.56091
599.0 0.001669 293.35745 620.21356
588.0 0.001701 293.34634 575.87939
553.0 0.001808 293.33591 533.47827
550.0 0.001818 293.32617 494.88098
489.0 0.002045 293.31705 461.13876
382.0 0.002618 293.30853 432.68771
442.0 0.002262 293.30060 409.51157
392.0 0.002551 293.29318 391.27655
369.0 0.002710 293.28629 377.44891
389.0 0.002571 293.27982 367.39365
349.0 0.002865 293.27380 360.44971
341.0 0.002933 293.26819 355.15277
341.0 0.002933 293.26291 352.57666
369.0 0.002710 293.25797 351.33426
368.0 0.002717 293.25330 350.90186
372.0 0.002688 293.24887 350.76208
338.0 0.002959 293.24463 350.41364
354.0 0.002825 293.24060 349.43546
350.0 0.002857 293.23666 347.58533
355.0 0.002817 293.23279 344.86404
349.0 0.002865 293.22897 341.47528
309.0 0.003236 293.22516 337.72037
323.0 0.003096 293.22128 333.88593
332.0 0.003012 293.21735 330.19739
341.0 0.002933 293.21326 326.80862
312.0 0.003205 293.20901 323.81305
299.0 0.003344 293.20453 321.25806
327.0 0.003058 293.19980 319.15738
362.0 0.002762 293.19476 317.50269
315.0 0.003175 293.18933 316.27341
308.0 0.003247 293.18356 315.44647
305.0 0.003279 293.17731 315.00552
306.0 0.003268 293.17056 314.94901
319.0 0.003135 293.16327 315.29694
344.0 0.002907 293.15543 316.09521
318.0 0.003145 293.14691 317.41791
325.0 0.003077 293.13776 319.36664
322.0 0.003106 293.12787 322.06433
332.0 0.003012 293.11719 325.64633
306.0 0.003268 293.10568 330.24469
327.0 0.003058 293.09335 335.96924
320.0 0.003125 293.08008 342.88373
366.0 0.002732 293.06583 350.97931
327.0 0.003058 293.05057 360.14310
374.0 0.002674 293.03430 370.11905
388.0 0.002577 293.01691 380.46066
417.0 0.002398 292.99835 390.48416
430.0 0.002326 292.97861 399.26938
422.0 0.002370 292.95761 405.78204
410.0 0.002439 292.93533 409.16348
361.0 0.002770 292.91171 409.06625
407.0 0.002457 292.88675 405.78250
378.0 0.002646 292.86032 400.21152
405.0 0.002469 292.83243 392.85687
375.0 0.002667 292.80304 384.57666
362.0 0.002762 292.77209 375.89575
335.0 0.002985 292.73950 367.24438
343.0 0.002915 292.70529 359.01721
389.0 0.002571 292.66943 351.56851
375.0 0.002667 292.63181 345.17413
355.0 0.002817 292.59241 340.00659
383.0 0.002611 292.55124 336.13721
354.0 0.002825 292.50818 333.55292
357.0 0.002801 292.46323 332.17587
333.0 0.003003 292.41638 331.87671
350.0 0.002857 292.36755 332.47986
345.0 0.002899 292.31671 333.81281
353.0 0.002833 292.26389 335.48895
328.0 0.003049 292.20892 337.21027
345.0 0.002899 292.15189 338.57629
362.0 0.002762 292.09271 339.18362
371.0 0.002695 292.03137 338.75543
343.0 0.002915 291.96783 337.23111
352.0 0.002841 291.90204 334.78195
338.0 0.002959 291.83405 331.72003
342.0 0.002924 291.76370 328.38028
316.0 0.003165 291.69110 325.73599
359.0 0.002786 291.61612 322.61279
316.0 0.003165 291.53882 319.82779
307.0 0.003257 291.45911 317.45639
319.0 0.003135 291.37701 315.52969
355.0 0.002817 291.29254 314.04440
355.0 0.002817 291.20557 312.97098
328.0 0.003049 291.11615 312.26028
312.0 0.003205 291.02423 311.84875
331.0 0.003021 290.92993 311.66345
313.0 0.003195 290.83304 311.62494
301.0 0.003322 290.73367 311.65613
306.0 0.003268 290.63184 311.69324
304.0 0.003289 290.52744 311.70120
316.0 0.003165 290.42053 311.67926
327.0 0.003058 290.31110 311.65491
323.0 0.003096 290.19916 311.66855
310.0 0.003226 290.08463 311.76151
308.0 0.003247 289.96765 311.97006
300.0 0.003333 289.84808 311.93631
299.0 0.003344 289.72601 312.46881
289.0 0.003460 289.60147 313.19717
327.0 0.003058 289.47443 314.14331
338.0 0.002959 289.34488 315.32886
305.0 0.003279 289.21283 316.77643
273.0 0.00366 289.07840 318.51251
286.0 0.003497 288.94141 320.56897
306.0 0.003268 288.80209 322.99011
321.0 0.003115 288.66031 325.83661
326.0 0.003067 288.51627 329.20703
311.0 0.003215 288.36978 333.20450
309.0 0.003236 288.22098 338.02383
374.0 0.002674 288.06995 343.93362
346.0 0.002890 287.91656 351.31812
341.0 0.002933 287.76102 360.69821
346.0 0.002890 287.60321 372.72266
353.0 0.002833 287.44336 388.13141
374.0 0.002674 287.28131 407.69424
391.0 0.002558 287.11725 432.13147
425.0 0.002353 286.95120 462.01968
443.0 0.002257 286.78308 497.68048
493.0 0.002028 286.61310 539.05621
515.0 0.001942 286.44119 585.56647
557.0 0.001795 286.26749 635.93921
675.0 0.001481 286.09201 688.00488
693.0 0.001443 285.91483 738.48322
749.0 0.001335 285.73608 782.89636
806.0 0.001241 285.55563 815.95374
847.0 0.001181 285.37372 832.65924
823.0 0.001215 285.19034 830.06024
861.0 0.001161 285.00555 808.55157
844.0 0.001185 284.81943 771.70184
775.0 0.001290 284.63214 724.73816
687.0 0.001456 284.44360 672.86322
663.0 0.001508 284.25406 620.25494
623.0 0.001605 284.06351 569.96704
540.0 0.001852 283.87192 523.88562
481.0 0.002079 283.67953 483.09021
441.0 0.002268 283.48633 448.02045
429.0 0.002331 283.29251 418.63983
394.0 0.002538 283.09805 394.57309
342.0 0.002924 282.90311 375.22995
374.0 0.002674 282.70770 359.91187
336.0 0.002976 282.51205 347.89954
370.0 0.002703 282.31619 338.51733
342.0 0.002924 282.12009 331.17200
302.0 0.003311 281.92407 325.37125
315.0 0.003175 281.72800 320.72455
333.0 0.003003 281.53220 316.93463
299.0 0.003344 281.33655 313.78134
296.0 0.003378 281.14139 310.67804
281.0 0.00356 280.94669 308.37482
280.0 0.00357 280.75247 306.73538
292.0 0.003425 280.55905 304.95306
282.0 0.00355 280.36630 303.36008
275.0 0.00364 280.17456 301.92661
314.0 0.003185 279.98376 300.62961
300.0 0.003333 279.79413 299.45786
296.0 0.003378 279.60565 298.38364
299.0 0.003344 279.41861 297.40176
278.0 0.00360 279.23300 296.50214
281.0 0.00356 279.04889 295.67609
309.0 0.003236 278.86655 294.91678
305.0 0.003279 278.68591 294.21756
304.0 0.003289 278.50720 293.57330
269.0 0.00372 278.33051 292.97925
303.0 0.003300 278.15601 292.43173
302.0 0.003311 277.98364 291.92685
319.0 0.003135 277.81369 291.46170
286.0 0.003497 277.64624 291.03387
311.0 0.003215 277.48129 290.64096
294.0 0.003401 277.31909 290.28101
308.0 0.003247 277.15964 289.92465
326.0 0.003067 277.00314 289.62436
306.0 0.003268 276.84961 289.35492
256.0 0.00391 276.69928 289.11325
298.0 0.003356 276.55219 288.89865
305.0 0.003279 276.40836 288.71045
329.0 0.003040 276.26804 288.54816
311.0 0.003215 276.13120 288.41141
277.0 0.00361 275.99808 288.30029
299.0 0.003344 275.86865 288.21460
313.0 0.003195 275.74307 288.15445
300.0 0.003333 275.62149 288.12015
304.0 0.003289 275.50391 288.11221
289.0 0.003460 275.39044 288.13116
303.0 0.003300 275.28119 288.17752
288.0 0.003472 275.17627 288.25241
310.0 0.003226 275.07568 288.35672
300.0 0.003333 274.97958 288.49176
310.0 0.003226 274.88803 288.65887
302.0 0.003311 274.80109 288.85980
299.0 0.003344 274.71884 289.09631
300.0 0.003333 274.64139 289.37088
310.0 0.003226 274.56876 289.68582
281.0 0.00356 274.50092 290.04428
312.0 0.003205 274.43814 290.86948
309.0 0.003236 274.38031 291.32974
308.0 0.003247 274.32751 291.84744
300.0 0.003333 274.27979 292.42328
305.0 0.003279 274.23724 293.06580
295.0 0.003390 274.19986 293.78259
290.0 0.003448 274.16766 294.58322
301.0 0.003322 274.14075 295.47986
309.0 0.003236 274.11905 296.48868
297.0 0.003367 274.10260 297.63141
315.0 0.003175 274.09149 298.93777
321.0 0.003115 274.08566 300.44876
325.0 0.003077 274.08514 302.22028
306.0 0.003268 274.08990 304.32910
321.0 0.003115 274.09998 306.87433
297.0 0.003367 274.11533 309.98569
316.0 0.003165 274.13589 313.82358
350.0 0.002857 274.16174 318.57907
324.0 0.003086 274.19278 324.46762
375.0 0.002667 274.22903 331.71869
309.0 0.003236 274.27036 340.55707
360.0 0.002778 274.31680 351.17853
356.0 0.002809 274.36826 363.71985
361.0 0.002770 274.42465 378.22510
385.0 0.002597 274.48599 394.60693
435.0 0.002299 274.55209 412.60327
406.0 0.002463 274.62302 431.72287
419.0 0.002387 274.69858 451.10602
457.0 0.002188 274.77869 469.77307
502.0 0.001992 274.86325 486.19379
481.0 0.002079 274.95218 498.79416
502.0 0.001992 275.04538 506.31207
461.0 0.002169 275.14270 508.30682
469.0 0.002132 275.24408 505.39859
487.0 0.002053 275.34927 499.12326
476.0 0.002101 275.45822 491.35056
488.0 0.002049 275.57074 483.91406
509.0 0.001965 275.68671 478.34271
475.0 0.002105 275.80597 475.87766
459.0 0.002179 275.92831 477.49213
451.0 0.002217 276.05365 483.95062
485.0 0.002062 276.18170 495.83456
520.0 0.001923 276.31241 513.55200
544.0 0.001838 276.44540 537.35638
527.0 0.001898 276.58066 567.40369
535.0 0.001869 276.71786 603.83301
539.0 0.001855 276.85690 646.78479
648.0 0.001543 276.99747 696.27515
678.0 0.001475 277.13937 751.92957
728.0 0.001374 277.28247 812.62445
793.0 0.001261 277.42636 876.26025
885.0 0.001130 277.57101 939.29492
1021.0 0.000979 277.71600 996.67969
946.0 0.001057 277.86124 1042.43274
1002.0 0.000998 278.00632 1069.32507
1037.0 0.000964 278.15106 1072.84888
1086.0 0.000921 278.29529 1051.72388
989.0 0.001011 278.43857 1008.79211
948.0 0.001055 278.58081 949.80304
866.0 0.001155 278.72159 881.38458
853.0 0.001172 278.86078 809.46143
789.0 0.001267 278.99799 738.57623
725.0 0.001379 279.13300 671.86591
645.0 0.001550 279.26547 611.29675
567.0 0.001764 279.39520 557.92395
539.0 0.001855 279.52188 512.10834
505.0 0.001980 279.64520 473.69199
459.0 0.002179 279.76495 442.14801
405.0 0.002469 279.88077 416.72818
391.0 0.002558 279.99240 396.56226
413.0 0.002421 280.09952 380.76700
397.0 0.002519 280.20193 368.51285
405.0 0.002469 280.29932 359.06793
346.0 0.002890 280.39136 351.81790
326.0 0.003067 280.47784 346.26712
351.0 0.002849 280.55850 342.02686
330.0 0.003030 280.63306 338.79739
382.0 0.002618 280.70117 336.34555
329.0 0.003040 280.76276 334.48465
321.0 0.003115 280.81735 333.05328
346.0 0.002890 280.86484 331.90088
348.0 0.002874 280.90500 330.87753
361.0 0.002770 280.93753 329.83749
342.0 0.002924 280.96225 328.65860
359.0 0.002786 280.97891 327.26953
345.0 0.002899 280.98737 325.66730
326.0 0.003067 280.98737 323.90918
353.0 0.002833 280.97876 322.08005
332.0 0.003012 280.96140 320.27979
307.0 0.003257 280.93503 318.58105
326.0 0.003067 280.89957 317.05237
306.0 0.003268 280.85495 315.71246
303.0 0.003300 280.80090 314.59970
312.0 0.003205 280.73743 313.73245
296.0 0.003378 280.66440 313.12262
303.0 0.003300 280.58179 312.77850
326.0 0.003067 280.48947 312.70544
357.0 0.002801 280.38748 312.90823
339.0 0.002950 280.27582 313.39053
303.0 0.003300 280.15433 314.18134
337.0 0.002967 280.02322 315.22586
313.0 0.003195 279.88239 317.09680
336.0 0.002976 279.73203 318.71933
319.0 0.003135 279.57211 320.17111
319.0 0.003135 279.40286 322.34106
346.0 0.002890 279.22437 324.76199
355.0 0.002817 279.03671 327.41840
323.0 0.003096 278.84018 330.30487
366.0 0.002732 278.63489 333.45166
314.0 0.003185 278.42123 336.96121
345.0 0.002899 278.19925 341.04556
330.0 0.003030 277.96945 346.03506
342.0 0.002924 277.73199 352.36267
352.0 0.002841 277.48737 360.52402
378.0 0.002646 277.23584 371.03705
369.0 0.002710 276.97781 384.40103
367.0 0.002725 276.71384 401.05701
410.0 0.002439 276.44421 421.33847
396.0 0.002525 276.16962 445.41721
444.0 0.002252 275.89041 473.23901
462.0 0.002165 275.60733 504.45212
496.0 0.002016 275.32077 538.31812
551.0 0.001815 275.03162 573.60474
571.0 0.001751 274.74033 608.46545
568.0 0.001761 274.44751 640.37073
644.0 0.001553 274.15414 666.22601
627.0 0.001595 273.86072 682.85266
683.0 0.001464 273.56824 687.84045
628.0 0.001592 273.27728 680.41180
634.0 0.001577 272.98895 661.72675
599.0 0.001669 272.70395 634.39307
606.0 0.001650 272.42313 601.56134
568.0 0.001761 272.14758 566.16565
508.0 0.001969 271.87808 530.55469
498.0 0.002008 271.61572 496.43671
472.0 0.002119 271.36145 464.95728
460.0 0.002174 271.11639 436.80499
445.0 0.002247 270.88141 412.30576
426.0 0.002347 270.65775 391.50610
388.0 0.002577 270.44644 374.24524
376.0 0.002660 270.24844 360.22189
343.0 0.002915 270.06506 349.05487
313.0 0.003195 269.89725 340.33066
309.0 0.003236 269.74631 333.64624
343.0 0.002915 269.61322 328.63443
361.0 0.002770 269.49921 324.98242
314.0 0.003185 269.40533 322.43878
331.0 0.003021 269.33282 320.81631
330.0 0.003030 269.28271 319.98959
336.0 0.002976 269.25616 319.89285
326.0 0.003067 269.25421 320.51736
364.0 0.002747 269.27792 321.91183
345.0 0.002899 269.32837 324.18326
307.0 0.003257 269.40656 327.50055
345.0 0.002899 269.51340 332.09641
350.0 0.002857 269.64984 338.26816
347.0 0.002882 269.81677 346.37213
409.0 0.002445 270.01495 356.81152
364.0 0.002747 270.24518 370.01379
394.0 0.002538 270.50803 386.39639
434.0 0.002304 270.80423 406.32324
460.0 0.002174 271.13403 430.04977
438.0 0.002283 271.49817 457.66269
459.0 0.002179 271.89658 489.01044
565.0 0.001770 272.32950 523.62671
560.0 0.001786 272.79724 560.63531
585.0 0.001709 273.29929 598.63599
635.0 0.001575 273.83575 635.58966
627.0 0.001595 274.40579 668.77191
697.0 0.001435 275.00922 694.95471
664.0 0.001506 275.64478 710.96130
662.0 0.001511 276.31192 714.55664
699.0 0.001431 277.00885 705.25983
719.0 0.001391 277.73441 684.53778
652.0 0.001534 278.48709 655.23010
649.0 0.001541 279.26434 620.62622
616.0 0.001623 280.06442 584.25836
591.0 0.001692 280.88406 547.43237
540.0 0.001852 281.72098 512.36267
503.0 0.001988 282.57123 480.15427
441.0 0.002268 283.43137 451.45020
398.0 0.002513 284.29776 426.53491
424.0 0.002358 285.16513 405.41727
446.0 0.002242 286.02927 387.90570
373.0 0.002681 286.88400 373.66913
355.0 0.002817 287.72409 362.29779
374.0 0.002674 288.54248 353.34888
358.0 0.002793 289.33267 346.38785
324.0 0.003086 290.08652 341.01312
326.0 0.003067 290.79605 336.87381
340.0 0.002941 291.45267 333.67526
314.0 0.003185 292.04623 331.17813
310.0 0.003226 292.56693 329.19458
307.0 0.003257 293.00323 327.57858
309.0 0.003236 293.34363 326.21902
327.0 0.003058 293.57507 325.03033
334.0 0.002994 293.68417 323.94632
292.0 0.003425 293.65631 322.91403
320.0 0.003125 293.47586 321.88925
295.0 0.003390 293.12628 320.83353
332.0 0.003012 292.59012 319.71170
311.0 0.003215 291.84818 318.48969
305.0 0.003279 290.88107 316.97012
285.0 0.00351 289.66690 315.45074
317.0 0.003155 288.18402 313.73419
304.0 0.003289 286.40820 311.79025
349.0 0.002865 284.31335 309.59161
321.0 0.003115 281.87430 307.11646
286.0 0.003497 279.06085 304.34094
321.0 0.003115 275.84518 301.24591
308.0 0.003247 272.19336 297.80716
316.0 0.003165 268.07458 294.00458
319.0 . . .
loop_
_refln_index_h
_refln_index_k
_refln_index_l
_refln_observed_status
_refln_F_squared_meas
_refln_F_squared_calc
_refln_phase_calc
_refln_d_spacing
_gsas_i100_meas
1 1 0 o 14012.008 13910.174 180.00 7.01025 19.05
0 0 1 o 974.377 1468.305 180.00 5.03015 0.07
2 0 0 o 984.681 1262.899 0.00 4.95699 0.88
1 1 1 o 29436.295 29148.857 0.00 4.08690 28.70
2 0 1 o 1275.782 1138.635 180.00 3.53070 1.13
2 2 0 o 734.492 829.069 0.00 3.50512 0.10
2 1 1 o -1.064 69.819 0.00 3.32607 0.00
3 1 0 o 18323.281 16802.391 0.00 3.13508 10.11
2 2 1 o 203296.33 204025.20 180.00 2.87579 100.00
3 1 1 o 7146.577 6001.287 180.00 2.66062 5.41
0 0 2 o 107423.18 112249.84 0.00 2.51507 9.61
4 0 0 o 130347.51 132434.56 0.00 2.47850 23.00
3 2 1 o 4691.740 4330.142 0.00 2.41270 3.83
1 1 2 o 4330.754 4423.494 180.00 2.36733 1.18
3 3 0 o 21218.156 21018.406 180.00 2.33675 3.23
2 0 2 o 136.580 258.045 0.00 2.24289 0.06
4 0 1 o 7819.712 7685.877 180.00 2.22326 1.89
4 2 0 o 552.280 536.414 0.00 2.21683 0.20
2 1 2 o 640.885 656.216 0.00 2.18761 0.44
4 1 1 o 2726.788 2375.844 0.00 2.16938 1.81
3 3 1 o 2702.132 2570.672 0.00 2.11924 0.60
2 2 2 o 7613.842 7731.543 0.00 2.04345 1.57
4 2 1 o 161.805 166.166 180.00 2.02857 0.11
3 1 2 o 19648.195 19223.900 0.00 1.96180 8.93
5 1 0 o 5902.523 5836.049 180.00 1.94429 1.24
3 2 2 o 215.174 327.176 0.00 1.85582 0.11
4 3 1 o 747.146 420.553 180.00 1.84466 0.36
5 1 1 o 19929.262 19848.178 0.00 1.81353 7.58
4 0 2 o 137916.95 138820.14 0.00 1.76535 26.33
4 4 0 o 134355.00 135864.45 0.00 1.75256 12.59
4 1 2 o 15.125 19.595 180.00 1.73801 0.01
5 2 1 o 60.357 74.495 180.00 1.72883 0.03
3 3 2 o 25420.566 24695.229 180.00 1.71191 4.51
5 3 0 o 8360.741 6990.227 0.00 1.70023 1.41
0 0 3 o 5072.959 4760.557 180.00 1.67672 0.18
4 2 2 o 907.377 817.840 0.00 1.66304 0.38
4 4 1 o 2468.603 2587.632 180.00 1.65499 0.26
6 0 0 o 13.022 25.593 0.00 1.65233 0.00
1 1 3 o 7339.726 7957.437 0.00 1.63072 1.05
5 3 1 o 12325.062 12317.372 180.00 1.61071 3.75
2 0 3 o 263.400 281.915 180.00 1.58831 0.05
6 0 1 o 1084.542 1067.100 180.00 1.56981 0.20
2 1 3 o 185.551 189.588 0.00 1.56831 0.07
6 2 0 o 8856.155 9127.264 0.00 1.56754 1.16
4 3 2 o 8.835 5.078 0.00 1.55710 0.00
6 1 1 o 408.894 171.347 180.00 1.55049 0.15
5 1 2 o 316.234 350.727 180.00 1.53825 0.03
2 2 3 o 98448.59 98281.23 180.00 1.51256 14.15
6 2 1 o 86444.98 86345.62 180.00 1.49656 24.07
5 2 2 o 357.945 278.376 0.00 1.48554 0.12
5 4 1 o 44.253 42.478 180.00 1.47979 0.01
3 1 3 o 6550.624 6375.647 180.00 1.47854 1.70
4 4 2 o 74836.56 75514.45 0.00 1.43790 9.68
3 2 3 o 365.220 396.347 180.00 1.43155 0.12
6 3 1 o 3.364 8.237 180.00 1.41796 0.00
5 3 2 o 2912.468 2580.416 0.00 1.40857 0.63
5 5 0 o 1285.551 1239.196 0.00 1.40205 0.14
7 1 0 o 8666.366 8502.384 0.00 1.40205 0.99
4 0 3 o 837.105 900.254 180.00 1.38877 0.05
6 0 2 o 30.189 66.230 180.00 1.38097 0.00
4 1 3 o 639.010 797.268 180.00 1.37535 0.20
6 4 0 o 34.930 51.767 0.00 1.37482 0.01
6 1 2 o 191.479 185.408 180.00 1.36777 0.06
3 3 3 o 599.535 532.765 0.00 1.36230 0.05
7 1 1 o 1696.933 1725.617 180.00 1.35057 0.32
5 5 1 o 21406.928 21855.564 0.00 1.35057 2.52
4 2 3 o 80.382 56.459 180.00 1.33728 0.03
6 2 2 o 1418.730 1269.692 0.00 1.33031 0.21
6 4 1 o 541.892 418.372 180.00 1.32618 0.16
5 4 2 o 0.001 0.001 0.00 1.31849 0.00
7 2 1 o 918.960 981.176 180.00 1.31447 0.26
7 3 0 o 25150.914 26063.668 180.00 1.30177 2.89
4 3 3 o 193.695 162.571 0.00 1.28031 0.05
6 3 2 o 200.534 189.422 0.00 1.27419 0.06
5 1 3 o 13346.836 13613.853 0.00 1.26977 2.88
7 3 1 o 21.845 20.211 0.00 1.26025 0.01
0 0 4 o 77342.90 79546.16 0.00 1.25754 2.14
5 2 3 o 302.935 301.455 0.00 1.23963 0.08
8 0 0 o 46409.54 46505.29 0.00 1.23925 2.40
1 1 4 o 5367.656 5401.089 180.00 1.23778 0.55
6 5 1 o 442.191 389.049 0.00 1.23077 0.12
7 1 2 o 13530.154 13259.375 0.00 1.22462 2.84
5 5 2 o 1165.816 1145.498 180.00 1.22462 0.11
2 0 4 o 108.411 106.215 0.00 1.21892 0.02
4 4 3 o 4307.541 4462.947 180.00 1.21154 0.37
2 1 4 o 93.543 103.511 180.00 1.20981 0.02
6 4 2 o 1.318 1.152 180.00 1.20635 0.00
8 0 1 o 2332.193 2455.064 180.00 1.20327 0.16
8 2 0 o 860.065 958.665 0.00 1.20225 0.11
7 2 2 o 70.041 100.615 180.00 1.19752 0.02
7 4 1 o 144.815 140.212 0.00 1.19450 0.04
8 1 1 o 110.236 106.732 180.00 1.19450 0.03
5 3 3 o 4536.668 4311.556 180.00 1.19385 0.84
2 2 4 o 872.383 730.544 0.00 1.18366 0.06
6 0 3 o 387.650 488.144 180.00 1.17690 0.05
8 2 1 o 129.490 128.989 0.00 1.16931 0.02
6 1 3 o 9.121 8.974 180.00 1.16870 0.00
6 6 0 o 1431.503 1419.786 0.00 1.16837 0.04
3 1 4 o 3308.742 3244.998 0.00 1.16714 0.57
7 3 2 o 10024.112 9936.471 180.00 1.15609 1.88
7 5 0 o 4721.724 4647.569 0.00 1.15248 0.43
6 2 3 o 45591.32 44737.99 180.00 1.14507 8.98
3 2 4 o 28.719 27.438 180.00 1.14361 0.01
6 6 1 o 40676.43 40097.76 180.00 1.13808 3.95
5 4 3 o 15.170 14.745 0.00 1.13751 0.00
6 5 2 o 87.635 73.958 0.00 1.13321 0.02
8 3 1 o 6.661 5.920 180.00 1.13065 0.00
7 5 1 o 2270.839 2234.045 180.00 1.12337 0.38
4 0 4 o 48613.68 48259.62 0.00 1.12145 4.79
4 1 4 o 15.379 16.502 0.00 1.11434 0.00
8 0 2 o 46592.75 47643.05 0.00 1.11163 4.57
6 3 3 o 159.343 157.270 0.00 1.10869 0.04
8 4 0 o 33792.418 33464.648 0.00 1.10842 3.19
3 3 4 o 8721.570 8626.381 180.00 1.10737 0.83
7 4 2 o 0.358 0.346 180.00 1.10471 0.00
8 1 2 o 2.628 2.544 0.00 1.10471 0.00
9 1 0 o -30.070 12.184 0.00 1.09482 0.01
4 2 4 o 40.061 66.513 0.00 1.09380 0.01
8 2 2 o 646.689 612.832 0.00 1.08469 0.15
8 4 1 o 4375.840 4375.847 180.00 1.08245 0.71
7 1 3 o 583.539 580.296 180.00 1.07557 0.08
5 5 3 o 10435.096 10350.578 0.00 1.07557 0.98
9 1 1 o 10875.614 10720.244 0.00 1.06977 2.07
6 4 3 o 195.536 135.538 180.00 1.06313 0.05
4 3 4 o 4.503 4.039 180.00 1.06196 0.00
6 6 2 o 5292.117 5618.817 0.00 1.05962 0.45
7 2 3 o 106.594 124.542 0.00 1.05707 0.03
5 1 4 o 788.744 776.777 180.00 1.05592 0.12
8 3 2 o 0.371 0.245 180.00 1.05362 0.00
7 6 1 o 8.898 9.502 0.00 1.05156 0.00
9 2 1 o 55.539 59.309 180.00 1.05156 0.01
7 5 2 o 4980.646 4669.681 0.00 1.04772 0.93
9 3 0 o 2009.518 1854.210 0.00 1.04503 0.18
5 2 4 o 8.636 72.801 180.00 1.03840 0.00
8 5 1 o 3.432 5.206 0.00 1.02867 0.00
7 3 3 o 132.901 154.280 0.00 1.02825 0.01
9 3 1 o 4999.397 4963.548 180.00 1.02318 0.91
4 4 4 o 31866.803 30053.865 0.00 1.02172 3.11
8 4 2 o 28330.289 27734.172 0.00 1.01429 5.50
6 5 3 o 30.018 29.370 180.00 1.01205 0.01
5 3 4 o 3395.301 3315.327 0.00 1.01104 0.65
0 0 5 o 1241.211 1165.787 180.00 1.00603 0.02
9 1 2 o 473.824 486.743 180.00 1.00383 0.07
7 7 0 o 12219.379 12204.317 180.00 1.00146 0.60
6 0 4 o 4.293 4.260 180.00 1.00069 0.00
8 0 3 o 3686.491 3885.459 180.00 0.99659 0.32
1 1 5 o 3836.011 3994.189 0.00 0.99583 0.36
6 1 4 o 37.661 39.260 0.00 0.99563 0.01
7 4 3 o 67.241 64.344 180.00 0.99159 0.02
8 1 3 o 64.954 62.155 0.00 0.99159 0.02
8 6 0 o 76.418 71.484 0.00 0.99140 0.01
10 0 0 o 866.941 825.107 180.00 0.99140 0.05
7 6 2 o 66.502 72.590 0.00 0.98874 0.02
9 2 2 o 43.952 47.976 180.00 0.98874 0.01
9 4 1 o 400.056 447.065 0.00 0.98704 0.11
2 0 5 o 51.112 47.963 180.00 0.98593 0.01
7 7 1 o 13.489 10.247 180.00 0.98219 0.01
2 1 5 o 149.969 161.072 180.00 0.98109 0.04
6 2 4 o 2757.837 2877.418 0.00 0.98090 0.47
8 2 3 o 105.645 99.843 0.00 0.97704 0.02
5 4 4 o 0.138 0.127 180.00 0.97613 0.00
8 6 1 o 3.999 3.985 0.00 0.97269 0.00
10 0 1 o 868.788 851.158 180.00 0.97269 0.11
10 2 0 o 3341.778 3366.222 0.00 0.97215 0.29
8 5 2 o 0.520 0.556 180.00 0.96964 0.00
10 1 1 o 168.782 165.787 0.00 0.96804 0.05
2 2 5 o 29378.219 28462.777 180.00 0.96699 3.07
9 3 2 o 612.454 544.813 0.00 0.96504 0.10
9 5 0 o 6.739 6.132 180.00 0.96293 0.00
6 6 3 o 24047.176 23895.326 180.00 0.95860 2.52
3 1 5 o 1314.057 1272.627 180.00 0.95792 0.23
6 3 4 o 58.127 55.107 180.00 0.95774 0.02
10 2 1 o 21047.086 21030.615 180.00 0.95448 4.38
8 3 3 o 1.424 1.377 0.00 0.95415 0.00
7 5 3 o 2247.319 2180.367 180.00 0.94976 0.45
9 5 1 o 8362.040 8680.714 0.00 0.94576 1.76
3 2 5 o 10.349 10.178 0.00 0.94478 0.00
7 1 4 o 4192.705 4003.121 0.00 0.93615 0.89
5 5 4 o 14.557 9.678 0.00 0.93615 0.01
9 4 2 o 2.871 2.454 180.00 0.93454 0.00
10 3 1 o 35.482 34.395 0.00 0.93311 0.01
4 0 5 o 1092.642 1140.859 180.00 0.93217 0.09
7 7 2 o 8232.215 8232.885 180.00 0.93042 0.91
4 1 5 o 200.253 194.783 0.00 0.92807 0.06
6 4 4 o 6.123 5.804 0.00 0.92791 0.00
8 4 3 o 1287.430 1269.728 180.00 0.92464 0.21
3 3 5 o 496.351 471.131 0.00 0.92403 0.04
7 2 4 o 15.865 13.970 0.00 0.92387 0.00
10 0 2 o 98.789 86.611 180.00 0.92233 0.01
8 6 2 o 259.089 197.717 0.00 0.92233 0.08
10 4 0 o 109.126 100.452 180.00 0.92049 0.01
10 1 2 o 27.664 35.236 0.00 0.91836 0.01
8 7 1 o 41.397 44.405 0.00 0.91700 0.01
9 1 3 o 5062.931 5153.945 0.00 0.91670 1.14
4 2 5 o 0.823 0.745 180.00 0.91611 0.00
10 2 2 o 2116.202 2125.074 0.00 0.90677 0.42
10 4 1 o 399.878 420.174 180.00 0.90545 0.12
9 2 3 o 0.433 0.457 180.00 0.90517 0.00
7 6 3 o 24.693 26.094 0.00 0.90517 0.01
7 3 4 o 6882.071 6910.527 180.00 0.90445 1.73
9 6 1 o 99.988 82.684 0.00 0.90170 0.03
9 5 2 o 31.757 26.854 0.00 0.89927 0.03
11 1 0 o 6717.769 6955.847 0.00 0.89757 0.88
4 3 5 o 44.803 44.940 180.00 0.89716 0.02
5 1 5 o 4009.810 3951.974 0.00 0.89351 1.03
6 5 4 o 13.968 13.656 180.00 0.89336 0.00
8 5 3 o 4.594 4.709 180.00 0.89044 0.00
