#------------------------------------------------------------------------------
#$Date: 2021-07-04 04:49:46 +0300 (Sun, 04 Jul 2021) $
#$Revision: 266973 $
#$URL: file:///home/coder/svn-repositories/cod/cif/1/56/31/1563150.cif $
#------------------------------------------------------------------------------
#
# This file is available in the Crystallography Open Database (COD),
# http://www.crystallography.net/
#
# All data on this site have been placed in the public domain by the
# contributors.
#
data_1563150
loop_
_publ_author_name
'Gorelova, Liudmila A.'
'Pakhomova, Anna S.'
'Krzhizhanovskaya, Maria G.'
'Pankin, Dmitrii V.'
'Krivovichev, Sergey V.'
'Dubrovinsky, Leonid S.'
'Kasatkin, Anatoly V.'
_publ_section_title
;
 Crystal Structure Evolution of Slawsonite SrAl2Si2O8 and Paracelsian
 BaAl2Si2O8 upon Compression and Decompression
;
_journal_issue                   23
_journal_name_full               'The Journal of Physical Chemistry C'
_journal_page_first              13014
_journal_page_last               13023
_journal_paper_doi               10.1021/acs.jpcc.1c02949
_journal_volume                  125
_journal_year                    2021
_chemical_formula_sum            'Al2 O8 Si2 Sr'
_chemical_formula_weight         325.76
_space_group_crystal_system      monoclinic
_space_group_IT_number           14
_space_group_name_Hall           '-P 2ybc'
_space_group_name_H-M_alt        'P 1 21/c 1'
_audit_creation_method           SHELXL-2018/3
_cell_angle_alpha                90
_cell_angle_beta                 90.318(3)
_cell_angle_gamma                90
_cell_formula_units_Z            4
_cell_length_a                   8.3477(4)
_cell_length_b                   9.3692(19)
_cell_length_c                   8.9074(4)
_cell_measurement_reflns_used    2753
_cell_measurement_temperature    293(2)
_cell_measurement_theta_max      17.815
_cell_measurement_theta_min      1.868
_cell_volume                     696.65(15)
_computing_structure_refinement  'SHELXL-2018/3 (Sheldrick, 2018)'
_diffrn_ambient_temperature      293(2)
_diffrn_measured_fraction_theta_full 0.430
_diffrn_measured_fraction_theta_max 0.226
_diffrn_measurement_device_type
'esperanto-CrysAlisPro-abstract goniometer imported esperanto images'
_diffrn_radiation_type           synchrotron
_diffrn_radiation_wavelength     0.2903
_diffrn_reflns_av_R_equivalents  0.0367
_diffrn_reflns_av_unetI/netI     0.0544
_diffrn_reflns_Laue_measured_fraction_full 0.430
_diffrn_reflns_Laue_measured_fraction_max 0.226
_diffrn_reflns_limit_h_max       14
_diffrn_reflns_limit_h_min       -12
_diffrn_reflns_limit_k_max       9
_diffrn_reflns_limit_k_min       -8
_diffrn_reflns_limit_l_max       14
_diffrn_reflns_limit_l_min       -14
_diffrn_reflns_number            2753
_diffrn_reflns_point_group_measured_fraction_full 0.430
_diffrn_reflns_point_group_measured_fraction_max 0.226
_diffrn_reflns_theta_full        10.031
_diffrn_reflns_theta_max         17.815
_diffrn_reflns_theta_min         1.868
_exptl_absorpt_coefficient_mu    0.772
_exptl_crystal_colour            colorless
_exptl_crystal_density_diffrn    3.106
_exptl_crystal_density_meas      ?
_exptl_crystal_density_method    none
_exptl_crystal_description       isosymmetric
_exptl_crystal_F_000             624
_exptl_crystal_size_max          0.010
_exptl_crystal_size_mid          0.010
_exptl_crystal_size_min          0.005
_refine_diff_density_max         0.665
_refine_diff_density_min         -0.441
_refine_diff_density_rms         0.114
_refine_ls_extinction_method     none
_refine_ls_goodness_of_fit_ref   1.026
_refine_ls_hydrogen_treatment    undef
_refine_ls_matrix_type           full
_refine_ls_number_parameters     108
_refine_ls_number_reflns         1545
_refine_ls_number_restraints     0
_refine_ls_restrained_S_all      1.026
_refine_ls_R_factor_all          0.0328
_refine_ls_R_factor_gt           0.0285
_refine_ls_shift/su_max          0.001
_refine_ls_shift/su_mean         0.000
_refine_ls_structure_factor_coef Fsqd
_refine_ls_weighting_details
'w=1/[\s^2^(Fo^2^)+(0.0093P)^2^] where P=(Fo^2^+2Fc^2^)/3'
_refine_ls_weighting_scheme      calc
_refine_ls_wR_factor_gt          0.0652
_refine_ls_wR_factor_ref         0.0688
_reflns_Friedel_coverage         0.000
_reflns_number_gt                1388
_reflns_number_total             1545
_reflns_threshold_expression     'I > 2\s(I)'
_cod_data_source_file            slav_p00.cif
_cod_data_source_block           shelx
_cod_depositor_comments
;
The following automatic conversions were performed:

data item '_exptl_crystal_density_meas' value 'none' was changed to
'?' -- the value is perceived as not measured.

Automatic conversion script
Id: cif_fix_values 7556 2019-12-06 15:28:31Z antanas 

 Adding full bibliography for 1563145--1563156.cif.
;
_cod_original_cell_volume        696.64(15)
_cod_original_sg_symbol_H-M      'P 21/c'
_cod_database_code               1563150
_shelx_shelxl_version_number     2018/3
_shelx_space_group_comment
;
The symmetry employed for this shelxl refinement is uniquely defined
by the following loop, which should always be used as a source of
symmetry information in preference to the above space-group names.
They are only intended as comments.
;
_shelx_res_file
;
TITL tesdac_c24_s in P2(1)/c
    shelx.res
    created by SHELXL-2018/3 at 10:44:06 on 10-Mar-2021
REM P2(1)/c (#14 in standard setting)
CELL 0.29030   8.347660   9.369204   8.907354  90.0000  90.3180  90.0000
ZERR    4.00   0.000367   0.001899   0.000366   0.0000   0.0031   0.0000
LATT  1
SYMM -x, y+1/2,-z+1/2
SFAC O Al Si Sr
DISP O -0.00099 0.000814 1.331769
DISP Si 0.00819 0.010735 17.56324
DISP Al 0.00481 0.00769 12.58358
DISP Sr 0.229909 0.68941 1127.923
UNIT 32.00 8.00 8.00 4.00

OMIT     5   0   2
OMIT     3   0   2
OMIT    1   0   2

MERG   2
FMAP   2
PLAN   100
BOND
LIST   10
ACTA
L.S.  20
REM EXTI    0.011265
WGHT    0.009300
FVAR       1.62255
SR1   4    0.749488    0.411991    0.608783    11.00000    0.00818    0.00660 =
         0.01088   -0.00059   -0.00014    0.00038
SI1   3    0.560845    0.419809    0.239288    11.00000    0.00566    0.00490 =
         0.00597    0.00039    0.00029   -0.00025
SI2   3    1.056417    0.299632    0.939353    11.00000    0.00553    0.00272 =
         0.00695    0.00009    0.00006    0.00009
AL1   2    1.068766    0.575202    0.768999    11.00000    0.00623    0.00624 =
         0.00626    0.00031    0.00008   -0.00020
AL2   2    0.429378    0.194255    0.444627    11.00000    0.00621    0.00384 =
         0.00672   -0.00059   -0.00003   -0.00053
O1    1    0.740315    0.423467    0.311371    11.00000    0.00556    0.01741 =
         0.00849   -0.00146   -0.00035   -0.00249
O2    1    0.990662    0.407361    0.808313    11.00000    0.01209    0.01124 =
         0.00819    0.00237   -0.00138   -0.00064
O3    1    1.052523    0.134337    0.879682    11.00000    0.01045
O4    1    0.444340    0.369505    0.375539    11.00000    0.00995    0.01145 =
         0.00946    0.00154    0.00463    0.00128
O5    1    0.558814    0.309816    0.100013    11.00000    0.00891    0.00653 =
         0.00759   -0.00067   -0.00120    0.00115
O6    1    1.233939    0.345695    0.989546    11.00000    0.00441    0.01614 =
         0.01539   -0.00408    0.00047    0.00065
O7    1    0.931880    0.309660    1.078308    11.00000    0.00973    0.00795 =
         0.00729   -0.00081    0.00247   -0.00239
O8    1    0.494310    0.574303    0.188799    11.00000    0.01063
HKLF 4




REM  tesdac_c24_s in P2(1)/c
REM wR2 = 0.0688, GooF = S = 1.026, Restrained GooF = 1.026 for all data
REM R1 = 0.0285 for 1388 Fo > 4sig(Fo) and 0.0328 for all 1545 data
REM 108 parameters refined using 0 restraints

END

WGHT      0.0093      0.0000

REM Highest difference peak  0.665,  deepest hole -0.441,  1-sigma level  0.114
Q1    1   0.5259  0.5974  0.2155  11.00000  0.05    0.67
Q2    1   1.0785  0.1601  0.8618  11.00000  0.05    0.54
Q3    1   1.0336  0.1073  0.9136  11.00000  0.05    0.50
Q4    1   0.4632  0.5562  0.1659  11.00000  0.05    0.49
Q5    1   0.5969  0.2864  0.1578  11.00000  0.05    0.44
Q6    1   1.2858  0.4083  1.0387  11.00000  0.05    0.42
Q7    1   0.7764  0.4238  0.9290  11.00000  0.05    0.41
Q8    1   0.4645  0.0740  0.5343  11.00000  0.05    0.40
Q9    1   0.7983  0.4313  0.4650  11.00000  0.05    0.40
Q10   1   0.9600  0.4071  1.1141  11.00000  0.05    0.39
Q11   1   0.6025  0.5742  0.1751  11.00000  0.05    0.38
Q12   1   0.4402  0.1345  0.5566  11.00000  0.05    0.37
Q13   1   0.3915  0.2550  0.3782  11.00000  0.05    0.37
Q14   1   1.0652  0.2858  1.0613  11.00000  0.05    0.37
Q15   1   1.0999  0.2429  0.8263  11.00000  0.05    0.36
Q16   1   0.6563  0.4237  0.6658  11.00000  0.05    0.36
Q17   1   1.1816  0.2238  0.9357  11.00000  0.05    0.35
Q18   1   1.1670  0.1450  1.0755  11.00000  0.05    0.35
Q19   1   0.8166  0.3261  0.9024  11.00000  0.05    0.35
Q20   1   0.5533  0.5130  0.1845  11.00000  0.05    0.35
Q21   1   1.2813  0.2231  0.9567  11.00000  0.05    0.34
Q22   1   0.8317  0.3011  0.9232  11.00000  0.05    0.34
Q23   1   1.1949  0.2625  0.9171  11.00000  0.05    0.34
Q24   1   0.7240  0.5160  0.6633  11.00000  0.05    0.34
Q25   1   0.6939  0.2922 -0.0134  11.00000  0.05    0.33
Q26   1   0.8884  0.4253  0.9186  11.00000  0.05    0.33
Q27   1   0.9204  0.1169  0.9027  11.00000  0.05    0.33
Q28   1   0.3747  0.2448  0.2829  11.00000  0.05    0.33
Q29   1   0.9437  0.2657  0.7834  11.00000  0.05    0.33
Q30   1   1.1234  0.3372  1.0661  11.00000  0.05    0.32
Q31   1   0.9476  0.1982  1.1833  11.00000  0.05    0.32
Q32   1   1.0148  0.4282  0.6031  11.00000  0.05    0.32
Q33   1   0.4202  0.6041  0.2120  11.00000  0.05    0.32
Q34   1   0.4468  0.4302  0.4733  11.00000  0.05    0.32
Q35   1   0.8409  0.2583  0.9346  11.00000  0.05    0.32
Q36   1   0.7332  0.4808  0.2786  11.00000  0.05    0.32
Q37   1   1.0024  0.3913  1.0366  11.00000  0.05    0.32
Q38   1   0.7609  0.5783  0.2359  11.00000  0.05    0.32
Q39   1   0.8287  0.4097  0.8536  11.00000  0.05    0.32
Q40   1   1.0232  0.5283  0.9257  11.00000  0.05    0.31
Q41   1   1.0179  0.5806  0.6783  11.00000  0.05    0.31
Q42   1   1.1256  0.5948  0.6831  11.00000  0.05    0.31
Q43   1   1.2782  0.5101  1.0739  11.00000  0.05    0.31
Q44   1   0.9973  0.3354  0.8581  11.00000  0.05    0.31
Q45   1   0.6987  0.4307  0.7048  11.00000  0.05    0.31
Q46   1   1.3368  0.4106  0.9815  11.00000  0.05    0.31
Q47   1   0.7043  0.3488  0.7363  11.00000  0.05    0.31
Q48   1   0.5021  0.5320  0.2429  11.00000  0.05    0.30
Q49   1   0.7339  0.3854  0.2803  11.00000  0.05    0.30
Q50   1   0.4002  0.3938  0.1185  11.00000  0.05    0.30
Q51   1   1.2805  0.3469  1.0664  11.00000  0.05    0.30
Q52   1   0.6441  0.4627  0.6216  11.00000  0.05    0.30
Q53   1   1.0445  0.4511  0.7422  11.00000  0.05    0.30
Q54   1   0.9598  0.0514  0.8947  11.00000  0.05    0.30
Q55   1   0.4439  0.2688  0.1584  11.00000  0.05    0.30
Q56   1   1.0403  0.4001  0.8520  11.00000  0.05    0.29
Q57   1   0.6975  0.5732  0.1867  11.00000  0.05    0.29
Q58   1   0.6215  0.5288  0.3627  11.00000  0.05    0.29
Q59   1   0.8379  0.4533  0.7448  11.00000  0.05    0.29
Q60   1   0.5664  0.2292  0.2397  11.00000  0.05    0.29
Q61   1   1.2608  0.4208  1.0991  11.00000  0.05    0.29
Q62   1   0.7558  0.2848  1.1229  11.00000  0.05    0.29
Q63   1   0.6169  0.5844  0.3470  11.00000  0.05    0.28
Q64   1   0.9668  0.5478  0.8819  11.00000  0.05    0.28
Q65   1   0.4109  0.4977  0.4274  11.00000  0.05    0.28
Q66   1   1.1120  0.2507  1.1637  11.00000  0.05    0.28
Q67   1   0.3674  0.2880  0.5922  11.00000  0.05    0.28
Q68   1   1.3022  0.3179  1.1481  11.00000  0.05    0.27
Q69   1   0.7762  0.4656  0.3031  11.00000  0.05    0.27
Q70   1   1.0606  0.0664  0.8052  11.00000  0.05    0.27
Q71   1   1.0009  0.2956  0.7390  11.00000  0.05    0.27
Q72   1   1.1954  0.1303  0.7608  11.00000  0.05    0.27
Q73   1   0.3763  0.4109  0.4240  11.00000  0.05    0.27
Q74   1   1.1441  0.4279  1.0405  11.00000  0.05    0.27
Q75   1   0.2568  0.4133  0.3894  11.00000  0.05    0.27
Q76   1   1.0602  0.4064  0.6421  11.00000  0.05    0.27
Q77   1   1.0978  0.0654  0.9250  11.00000  0.05    0.27
Q78   1   1.1381  0.4777  1.0583  11.00000  0.05    0.26
Q79   1   0.9408  0.1543  1.0469  11.00000  0.05    0.26
Q80   1   0.5847  0.3383  0.3935  11.00000  0.05    0.26
Q81   1   0.6472  0.3690  0.4953  11.00000  0.05    0.26
Q82   1   0.4253  0.4675  0.0880  11.00000  0.05    0.26
Q83   1   0.4133  0.4741  0.1790  11.00000  0.05    0.26
Q84   1   1.0583  0.1813  0.7557  11.00000  0.05    0.26
Q85   1   0.6132  0.3967  0.1221  11.00000  0.05    0.26
Q86   1   0.5047  0.1408  0.0867  11.00000  0.05    0.26
Q87   1   0.6163  0.4070  0.4544  11.00000  0.05    0.25
Q88   1   0.8406  0.3375  0.3610  11.00000  0.05    0.25
Q89   1   1.0984  0.3275  0.7570  11.00000  0.05    0.25
Q90   1   1.0190  0.2746  0.8411  11.00000  0.05    0.25
Q91   1   0.3526  0.4351  0.2385  11.00000  0.05    0.25
Q92   1   0.9792  0.2074  0.9071  11.00000  0.05    0.25
Q93   1   1.0617  0.3807  0.7260  11.00000  0.05    0.25
Q94   1   0.4926  0.3908  0.1773  11.00000  0.05    0.25
Q95   1   0.6557  0.4694  0.0451  11.00000  0.05    0.25
Q96   1   0.6350  0.1900  0.4084  11.00000  0.05    0.25
Q97   1   0.6739  0.3770  0.2402  11.00000  0.05    0.25
Q98   1   1.0997  0.3554  0.6778  11.00000  0.05    0.25
Q99   1   0.7913  0.4634  0.7007  11.00000  0.05    0.25
Q100  1   1.0951  0.5180  0.6971  11.00000  0.05    0.25
;
_shelx_res_checksum              98853
_shelx_hkl_file
;
   0   0  -2 5.10089 1.67701   1
   0   0   2-1.13541 1.97271   1
   0   0   3-4.44541 4.43298   1
   0   0  -3 1.00138 6.17327   1
   0   0  -4 15119.2 665.189   1
   0   0   4 15385.1 678.269   1
   0   0  -5 3.37859 9.31491   1
   0   0   5 3.50725 11.0381   1
   0   0  -6 37590.4 1694.55   1
   0   0   6 44874.4 1731.76   1
   0   0  -7 24.7658 19.7006   1
   0   0   7-2.43550 18.3543   1
   0   0   8 2762.64 241.749   1
   0   0  -8 2683.18 212.280   1
   0   0   9 36.8611 37.6387   1
   0   0  -9 2.00454 13.7449   1
   0   0  10 1542.36 202.445   1
   0   0 -10 2069.22 187.785   1
   0   0  11 1.02057 15.5592   1
   0   0 -11 23.4869 24.1346   1
   0  -1  -2 55.8783 13.1082   1
   0   1   2 66.3467 13.8389   1
   0   1   3 8441.96 380.967   1
   0  -1  -3 8405.70 377.420   1
   0   1   4 19.3984 12.4480   1
   0  -1  -4-1.24084 5.94025   1
   0  -1  -5 41915.4 1746.45   1
   0   1   5 43008.5 1757.23   1
   0   1   6 14086.6 660.421   1
   0  -1  -6 14305.3 656.862   1
   0   1   7 9790.75 507.448   1
   0  -1  -7 9530.26 489.021   1
   0   1   8 9809.65 571.877   1
   0  -1  -8 11466.5 559.688   1
   0   1   9 6096.69 393.010   1
   0  -1  -9 5740.80 359.215   1
   0  -1 -10 2750.00 233.262   1
   0   1  10 2785.73 249.804   1
   0  -1 -11 2614.35 238.262   1
   0   1  11 2964.53 268.592   1
   0  -1 -12 1986.12 208.119   1
   0   1  12 1806.79 233.919   1
   0   1  13 6247.58 521.341   1
   0  -1 -13 7217.08 468.364   1
   0  -1 -14 3612.14 311.978   1
   0   1  14 3564.52 368.636   1
   0   2   3 38452.5 1557.59   1
   0  -2  -3 38337.0 1558.65   1
   0   2   4-1.85249 4.86375   1
   0  -2  -4 4.78219 7.11777   1
   0   2   5 818.516 87.7738   1
   0  -2  -5 973.038 89.4801   1
   0   2   6 13.9268 13.4426   1
   0  -2  -6 8.22350 14.0182   1
   0   2   7 649.306 91.0925   1
   0  -2  -7 763.500 92.1826   1
   0   2   8 9045.79 499.629   1
   0  -2  -8 9541.06 492.630   1
   0  -2  -9 3578.10 257.958   1
   0   2   9 3689.65 268.663   1
   0   2  10 3541.90 276.407   1
   0  -2 -10 3122.84 248.153   1
   0   2  11 3409.87 313.737   1
   0  -2 -11 4197.09 301.387   1
   0   2  12 33.1513 36.1175   1
   0  -2 -12 19.0240 21.8498   1
   0  -2 -13-47.0694 43.2547   1
   0   2  13-2.34957 16.2196   1
   0  -2 -14 2409.94 240.085   1
   0   2  14 1595.69 237.859   1
   0   3   4 20825.8 901.077   1
   0  -3  -4 21073.9 896.954   1
   0  -3  -5 5.62817 9.56156   1
   0   3   5-4.03301 9.07158   1
   0  -3  -6 2280.16 169.945   1
   0   3   6 2331.17 167.700   1
   0  -3  -7 5346.67 319.853   1
   0   3   7 5609.48 323.404   1
   0   3   8 11460.6 583.771   1
   0  -3  -8 11469.7 576.055   1
   0   3   9 3920.29 300.311   1
   0  -3  -9 4725.83 299.738   1
   0  -3 -10 7193.52 433.587   1
   0   3  10 7129.74 448.623   1
   0  -3 -11-5.47080 3.59119   1
   0   3  11 4.12085 7.57360   1
   0  -3 -12 429.877 92.9494   1
   0   3  12 595.406 116.106   1
   0  -3 -13 360.531 84.3514   1
   0   3  13 263.236 88.6010   1
   0  -3 -14 630.422 128.322   1
   0  -4  -5 36281.4 1558.18   1
   0   4   5 38474.0 1564.91   1
   0  -4  -6 1211.00 120.471   1
   0   4   6 1388.37 123.153   1
   0   4   7 9700.65 507.180   1
   0  -4  -7 10236.1 511.828   1
   0   4   8 9376.74 499.414   1
   0  -4  -8 9505.80 504.512   1
   0   4   9 4266.27 301.634   1
   0  -4  -9 4460.35 303.802   1
   0   4  10 3947.30 295.368   1
   0  -4 -10 3505.09 271.440   1
   0  -4 -11 13274.1 688.726   1
   0   4  11 11882.3 693.780   1
   0   4  12 345.740 83.5143   1
   0  -4 -12 336.155 79.3383   1
   0   4  13 2727.10 268.887   1
   0  -4 -13 2483.48 250.658   1
   0   5   6 1904.00 157.185   1
   0  -5  -7 326.439 60.1724   1
   0   5   7 338.130 64.7960   1
   0   5   8 2160.61 188.183   1
   0  -5  -8 2071.82 180.915   1
   0   5   9 175.916 47.8594   1
   0  -5  -9 218.122 59.2692   1
   0   5  10 5562.87 379.293   1
   0  -5 -10 5860.31 378.693   1
   0   5  11 756.712 116.832   1
   0  -5 -11 738.668 119.376   1
   0   5  12 61.0747 49.5677   1
   0  -5 -12 74.7759 36.4514   1
   0   5  13 3554.43 322.898   1
   0  -5 -13 3163.49 294.219   1
   0  -6  -8 8709.52 490.654   1
   0   6   8 8944.29 487.088   1
   0  -6  -9 82.2137 25.5496   1
   0   6   9 83.4212 27.3685   1
   0   6  10 3886.64 297.374   1
   0  -6 -10 4174.15 305.129   1
   0  -6 -11 866.391 132.136   1
   0   6  11 895.568 131.379   1
   0  -6 -12 125.362 55.2398   1
   0   6  12 92.5358 45.7292   1
   0  -6 -13 2031.37 230.020   1
   0   6  13 2165.36 241.574   1
   0   7  10 881.553 132.553   1
   0  -7 -10 905.838 126.112   1
   0   7  11 4909.96 361.861   1
   0  -7 -11 5065.05 363.484   1
   0   7  12-4.00341 45.2930   1
   0  -7 -12 31.7882 28.1734   1
   1   0 -10 3265.88 274.700   1
  -1   0  10 4278.73 313.402   1
  -1   0   9-10.3652 14.1950   1
   1   0  -9-12.2579 19.5449   1
  -1   0   8 4880.78 339.186   1
   1   0  -8 4962.17 316.847   1
  -1   0   7 18.0711 26.3338   1
   1   0  -7-7.22270 9.38628   1
   1   0  -6 8677.07 407.050   1
  -1   0   6 6079.89 408.905   1
   1   0  -5-11.1801 11.4644   1
  -1   0   5 26.4455 27.1474   1
   1   0  -4 23374.5 994.470   1
   1   0  -3 1.43496 4.92841   1
  -1   0   3 21.5512 11.8757   1
   1   0  -2 61633.4 2531.40   1
  -1   0   2 65963.7 2535.28   1
   1   0   2 71561.2 2792.03   1
  -1   0  -2 69441.5 2789.63   1
   1   0   3 2.07601 3.31056   1
  -1   0  -3 8.25305 7.12924   1
  -1   0  -4 25807.4 1070.70   1
   1   0   4 24961.2 1078.17   1
  -1   0  -5-2.18608 12.9675   1
   1   0   5 7.95792 8.81938   1
  -1   0  -6 9285.47 495.676   1
   1   0   6 11195.2 523.033   1
  -1   0  -7 12.6693 11.6463   1
   1   0   7 3.40026 16.2638   1
   1   0   8 19659.5 922.629   1
  -1   0  -8 18746.6 884.567   1
  -1   0  -9 1.85608 18.4225   1
   1   0   9-0.85212 6.78132   1
   1   0  10 6854.68 480.433   1
  -1   0 -10 6972.99 420.531   1
   1   0  11-22.5812 35.3911   1
  -1   0 -11 24.5115 28.5946   1
   1   0  12 1231.89 178.204   1
  -1   0 -12 948.303 140.484   1
   1   0  13-40.7010 40.0714   1
  -1   0 -13 50.4774 32.4792   1
   1  -1 -14 1463.13 192.607   1
  -1   1  14 1423.87 215.329   1
   1  -1 -13 761.335 130.179   1
  -1   1  13 856.776 166.710   1
   1  -1 -12 62.6189 39.0023   1
  -1   1  12 33.5825 40.3028   1
   1  -1 -11 5023.93 351.383   1
  -1   1  11 4489.54 384.083   1
  -1   1  10 3070.11 275.296   1
   1  -1 -10 3579.14 266.431   1
   1  -1  -9 134.949 42.0729   1
  -1   1   9 99.1639 35.3970   1
  -1   1   8 4298.03 288.273   1
   1  -1  -8 3694.89 258.427   1
  -1   1   7 13677.6 734.282   1
   1  -1  -7 16366.4 719.125   1
   1  -1  -6 1774.86 140.291   1
  -1   1   6 1621.53 147.645   1
  -1   1   5 6654.03 331.662   1
   1  -1  -5 6018.01 319.914   1
  -1   1   4 8687.46 415.573   1
   1  -1  -4 9133.02 414.526   1
  -1   1   3 37001.0 1445.40   1
   1  -1  -3 34307.9 1438.09   1
   1  -1  -2 8216.04 364.191   1
  -1   1   2 8792.40 366.233   1
  -1  -1  -2 3727.83 184.358   1
   1   1   2 3925.66 185.208   1
  -1  -1  -3 34319.9 1411.83   1
   1   1   3 35168.1 1410.70   1
  -1  -1  -4 8716.24 397.930   1
   1   1   4 8276.28 397.277   1
   1   1   5 8773.55 450.604   1
  -1  -1  -5 9720.82 446.224   1
  -1  -1  -6 5824.32 310.116   1
   1   1   6 5486.73 318.647   1
  -1  -1  -7 10263.1 510.449   1
   1   1   7 10234.9 524.427   1
  -1  -1  -8 1751.48 160.649   1
   1   1   8 1956.23 177.903   1
  -1  -1  -9 353.745 66.7262   1
   1   1   9 309.367 76.3875   1
  -1  -1 -10 2863.04 239.723   1
   1   1  10 3335.63 280.388   1
  -1  -1 -11 6427.76 411.040   1
   1   1  11 6489.55 450.453   1
  -1  -1 -12 32.1562 12.6900   1
   1   1  12 71.6004 45.3033   1
  -1  -1 -13 200.791 59.6435   1
   1   1  13 159.392 75.2330   1
   1   1  14 802.935 192.058   1
  -1  -1 -14 1559.80 188.848   1
  -1   2  14 268.185 102.586   1
   1  -2 -14 305.227 78.8898   1
  -1   2  13 2588.11 277.824   1
   1  -2 -13 2452.35 231.429   1
   1  -2 -12 1738.40 189.448   1
  -1   2  12 1838.08 213.972   1
   1  -2 -11 1202.15 144.079   1
  -1   2  11 1342.93 176.569   1
  -1   2  10 968.071 144.063   1
   1  -2 -10 1079.94 133.901   1
  -1   2   9 4533.46 317.288   1
   1  -2  -9 4552.63 298.495   1
  -1   2   8 3775.92 262.111   1
   1  -2  -8 3861.35 253.940   1
  -1   2   7-0.50325 0.07922   1
   1  -2  -7 4.80969 10.8189   1
  -1   2   6 5918.50 347.250   1
   1  -2  -6 6908.37 346.791   1
  -1   2   5 9214.04 438.883   1
   1  -2  -5 8780.52 433.331   1
  -1   2   4 8.84081 7.17076   1
   1  -2  -4 18.2347 10.8988   1
   1  -2  -3 1591.00 103.697   1
  -1   2   3 1565.35 105.034   1
  -1   2   2 886.220 64.1769   1
   1  -2  -2 895.372 64.8380   1
  -1  -2  -3 273.739 38.9989   1
   1   2   3 292.468 38.5419   1
  -1  -2  -4 165.114 30.9374   1
   1   2   4 134.999 30.0251   1
   1   2   5 7454.48 378.055   1
  -1  -2  -5 7733.33 377.847   1
   1   2   6 4014.71 244.060   1
  -1  -2  -6 3878.37 238.498   1
   1   2   7 1072.61 112.878   1
  -1  -2  -7 853.528 102.094   1
   1   2   8 1272.85 136.594   1
  -1  -2  -8 1060.41 123.574   1
  -1  -2  -9 2540.63 200.641   1
   1   2   9 2262.91 205.677   1
   1   2  10 3279.77 264.645   1
  -1  -2 -10 2999.83 247.047   1
   1   2  11 2334.56 237.804   1
  -1  -2 -11 2220.03 213.526   1
   1   2  12 153.646 66.7698   1
  -1  -2 -12 126.137 27.8297   1
   1   2  13 5179.23 415.459   1
  -1  -2 -13 4787.06 371.476   1
  -1  -2 -14 156.164 65.0618   1
   1  -3 -14 3838.31 320.209   1
  -1   3  14 2267.68 295.667   1
   1  -3 -13 263.022 72.2282   1
  -1   3  13 280.033 92.9241   1
  -1   3  12 470.479 103.863   1
   1  -3 -12 510.982 101.301   1
   1  -3 -11 575.992 107.416   1
  -1   3  11 763.013 118.079   1
  -1   3  10 3845.06 283.370   1
   1  -3 -10 3493.91 274.609   1
   1  -3  -9 49.7062 29.2554   1
  -1   3   9 79.4687 34.7202   1
   1  -3  -8 2686.78 207.721   1
  -1   3   8 2981.01 224.530   1
  -1   3   7 1851.85 155.277   1
   1  -3  -7 1816.77 151.335   1
  -1   3   6 9562.86 466.400   1
   1  -3  -6 8966.83 458.415   1
  -1   3   5 2064.25 146.733   1
   1  -3  -5 1925.25 146.899   1
  -1   3   4 11582.6 518.104   1
   1  -3  -4 11246.3 519.780   1
  -1   3   3 1367.66 100.079   1
   1   3   4 8392.63 406.072   1
  -1  -3  -4 8466.26 406.011   1
   1   3   5 3613.61 210.515   1
  -1  -3  -5 2857.62 200.579   1
  -1  -3  -6 11005.0 535.466   1
   1   3   6 10954.3 532.581   1
  -1  -3  -7 495.867 76.0726   1
   1   3   7 490.096 75.2212   1
  -1  -3  -8 4810.12 303.715   1
   1   3   8 4554.30 302.076   1
  -1  -3  -9 558.369 88.8842   1
   1   3   9 527.165 89.3943   1
   1   3  10 2789.00 252.585   1
  -1  -3 -10 2989.22 239.199   1
  -1  -3 -11 147.527 48.1296   1
   1   3  11 142.165 55.0026   1
   1   3  12 218.447 65.1358   1
  -1  -3 -12 207.670 62.9843   1
   1   3  13 97.4600 47.1307   1
  -1  -3 -13-3.75042 21.5642   1
  -1   4  13 2916.68 286.835   1
   1  -4 -13 2915.71 265.962   1
  -1   4  12 2145.98 219.009   1
   1  -4 -12 2000.38 207.007   1
   1  -4 -11 1623.28 178.188   1
  -1   4  11 1579.67 184.522   1
   1  -4 -10 1136.46 134.483   1
  -1   4  10 1008.21 136.489   1
   1  -4  -9 8947.68 493.708   1
  -1   4   9 9222.45 505.330   1
  -1   4   8 1830.55 172.375   1
   1  -4  -8 2151.57 174.338   1
   1  -4  -7 714.113 92.1437   1
  -1   4   7 774.550 93.5126   1
   1  -4  -6 7645.54 399.716   1
  -1   4   6 7237.62 395.283   1
  -1   4   5 11052.3 551.389   1
   1  -4  -5 12373.5 556.769   1
   1   4   5 22069.1 961.116   1
  -1  -4  -5 21762.4 960.572   1
  -1  -4  -6 3574.22 229.982   1
   1   4   6 3355.59 227.688   1
  -1  -4  -7 611.648 83.6525   1
   1   4   7 583.106 88.4415   1
  -1  -4  -8 2979.89 228.436   1
   1   4   8 2880.10 217.968   1
   1   4   9 3837.15 279.525   1
  -1  -4  -9 3779.37 271.071   1
   1   4  10 4424.21 311.770   1
  -1  -4 -10 4131.75 306.446   1
   1   4  11 4946.99 363.113   1
  -1  -4 -11 4623.38 340.337   1
   1   4  12 867.850 137.044   1
  -1  -4 -12 926.278 138.950   1
  -1  -4 -13 4240.07 344.854   1
   1   4  13 4619.86 368.193   1
  -1   5  13 88.6504 54.7069   1
   1  -5 -13 27.0916 26.7971   1
  -1   5  12-22.5233 23.5208   1
   1  -5 -12 7.02424 9.88502   1
   1  -5 -11 3149.80 267.351   1
  -1   5  11 3393.40 281.570   1
  -1   5  10 1161.37 141.485   1
   1  -5 -10 1115.98 142.975   1
  -1   5   9 62.8152 26.8956   1
   1  -5  -9 65.9155 27.7591   1
  -1   5   8 1025.24 120.375   1
   1  -5  -8 995.859 123.647   1
  -1   5   7 5992.97 360.607   1
   1  -5  -7 6119.65 351.912   1
  -1   5   6 363.486 64.5316   1
   1  -5  -6 383.241 62.3408   1
  -1  -5  -7 10050.8 530.741   1
   1   5   7 10570.6 534.082   1
   1   5   8 2683.58 223.582   1
  -1  -5  -8 2828.26 222.223   1
  -1  -5  -9 1586.87 168.099   1
   1   5   9 1712.34 166.894   1
  -1  -5 -10 446.610 81.9385   1
   1   5  10 447.256 87.5696   1
  -1  -5 -11 3884.21 304.641   1
   1   5  11 3540.63 296.767   1
  -1  -5 -12 202.098 59.4576   1
   1   5  12 220.575 69.1612   1
   1   5  13 911.727 150.689   1
  -1  -5 -13 883.048 145.413   1
   1  -6 -13-42.3951 36.8297   1
  -1   6  13-13.6407 32.2163   1
   1  -6 -12 2941.87 276.459   1
  -1   6  12 3713.16 299.963   1
  -1   6  11 378.972 86.3360   1
   1  -6 -11 368.366 82.7355   1
   1  -6 -10 2461.85 223.475   1
  -1   6  10 2602.53 230.829   1
   1  -6  -9 1451.54 157.328   1
  -1   6   9 1531.81 162.050   1
  -1   6   8 5970.43 371.117   1
   1  -6  -8 6209.54 372.642   1
  -1  -6  -9 1374.79 151.525   1
   1   6   9 1163.08 148.985   1
   1   6  10 5433.88 371.014   1
  -1  -6 -10 5531.82 371.191   1
  -1  -6 -11 169.088 57.5750   1
   1   6  11 200.818 64.2691   1
   1   6  12 411.167 91.9574   1
  -1  -6 -12 547.849 114.343   1
  -1  -6 -13 60.7936 48.3217   1
   1  -7 -13 1276.97 183.820   1
   1  -7 -12 103.817 56.4378   1
  -1   7  12 86.6223 47.9018   1
  -1   7  11 2963.45 262.533   1
   1  -7 -11 3031.65 264.618   1
  -1   7  10 1196.65 152.241   1
   1  -7 -10 1281.60 155.996   1
  -1   7   9 178.211 60.1964   1
  -1  -7 -11 4438.37 344.845   1
   1   7  11 4609.66 345.673   1
  -1  -7 -12 464.384 100.114   1
   1   7  12 384.571 91.7557   1
  -1   8  12 145.486 64.7574   1
   1  -8 -12 125.131 51.0840   1
   2   0  -8 7346.24 415.854   1
   2   0  -7 25.0035 21.3276   1
   2   0  -6 3582.12 231.692   1
   2   0  -5-0.40960 4.97917   1
   2   0  -4 18762.5 815.549   1
  -2   0  -2 10504.5 446.696   1
   2   0   2 10654.6 449.062   1
  -2   0  -3 6.00327 7.35550   1
   2   0   3-5.70896 5.96866   1
  -2   0  -4 18267.6 784.825   1
   2   0   4 18389.7 788.450   1
   2   0   5-1.91723 11.8203   1
  -2   0  -5-8.39324 10.6977   1
  -2   0  -6 701.181 77.5417   1
   2   0   6 532.473 82.2688   1
   2   0   7-22.5470 25.3395   1
  -2   0  -7 17.4348 17.5113   1
   2   0   8 11037.9 615.610   1
  -2   0  -8 12753.2 605.762   1
   2   0   9 12.1612 11.0446   1
  -2   0  -9-3.65260 8.39274   1
   2   0  10 16793.4 880.718   1
  -2   0 -10 16455.9 817.605   1
   2   0  11 81.2968 60.6627   1
  -2   0 -11 55.0219 45.8991   1
   2   0  12-9.34049 30.1255   1
  -2   0 -12 78.2545 38.3967   1
  -2   0 -13 14.6441 17.9739   1
   2   0  13 53.7101 42.7562   1
  -2   0 -14 2710.85 277.677   1
  -2   1  13 663.803 137.183   1
   2  -1 -13 790.757 130.851   1
   2  -1 -12 611.502 110.906   1
  -2   1  12 795.069 144.653   1
  -2   1  11 50.8190 50.9120   1
   2  -1 -11 176.449 62.6951   1
  -2   1  10 62.8437 23.2452   1
   2  -1 -10 116.024 38.7827   1
   2  -1  -9 7986.16 432.380   1
  -2   1   9 6786.94 460.329   1
  -2   1   8 10.8458 28.4350   1
   2  -1  -8 30.7988 7.64014   1
  -2   1   7 6499.29 397.379   1
   2  -1  -7 7782.85 392.322   1
  -2   1   6 1962.63 161.416   1
   2  -1  -6 2058.43 156.028   1
  -2   1   5 2216.70 170.283   1
   2  -1  -5 2700.02 169.272   1
  -2   1   4 3654.75 220.670   1
   2  -1  -4 4311.19 218.133   1
  -2   1   3 27444.4 1132.86   1
   2  -1  -3 27860.4 1130.87   1
  -2   1   2 21573.5 911.807   1
   2  -1  -2 23233.2 910.141   1
   2   1   2 27910.9 1142.83   1
  -2  -1  -2 27099.2 1142.97   1
  -2   1  -2 29771.7 1150.00   1
   2  -1   3 24400.8 1019.94   1
  -2   1  -3 24163.7 1016.47   1
   2   1   3 24863.6 1007.22   1
  -2  -1  -3 23756.1 1004.42   1
   2  -1   4 6259.97 313.355   1
  -2   1  -4 5296.53 293.931   1
  -2  -1  -4 5712.21 287.061   1
   2   1   4 5436.57 285.196   1
   2   1   5 2838.99 181.090   1
   2  -1   5 2443.78 189.637   1
  -2  -1  -5 2626.41 172.834   1
  -2   1  -5 2770.23 179.254   1
   2  -1   6 1699.67 159.227   1
  -2   1  -6 1734.83 143.124   1
  -2  -1  -6 1595.91 133.628   1
   2   1   6 1533.97 136.814   1
   2  -1   7 6343.28 370.621   1
  -2   1  -7 6023.04 342.443   1
  -2  -1  -7 5857.21 329.739   1
   2   1   7 5368.03 335.261   1
  -2   1  -8 686.698 97.4619   1
   2   1   8 880.072 104.739   1
   2  -1   8 879.566 118.513   1
  -2  -1  -8 769.888 99.2571   1
  -2  -1  -9 5118.51 319.882   1
   2   1   9 5179.04 350.213   1
  -2   1  -9 4790.30 335.711   1
  -2  -1 -10-33.9769 35.5224   1
   2   1  10 38.3054 33.7852   1
   2   1  11 448.583 108.260   1
  -2  -1 -11 475.814 90.1679   1
   2   1  12 61.7755 15.8828   1
  -2  -1 -12 107.306 41.5778   1
   2   1  13 1926.77 241.747   1
  -2  -1 -13 1970.50 217.865   1
  -2  -1 -14 1721.65 220.734   1
   2  -2 -14 174.371 59.1261   1
  -2   2  14 214.283 86.5573   1
  -2   2  13 2545.09 290.069   1
   2  -2 -13 2747.91 254.242   1
  -2   2  12 628.814 202.373   1
   2  -2 -12 404.395 94.4034   1
  -2   2  11 4228.02 341.811   1
   2  -2 -11 4443.81 314.503   1
   2  -2 -10 1227.84 141.920   1
  -2   2  10 1407.74 169.314   1
  -2   2   9 1795.54 194.552   1
   2  -2  -9 2164.39 183.626   1
  -2   2   8 662.384 93.1026   1
   2  -2  -8 603.245 85.9798   1
  -2   2   7 57649.7 2399.27   1
   2  -2  -7 58488.9 2389.84   1
  -2   2   6 3667.29 234.902   1
   2  -2  -6 3805.07 228.275   1
  -2   2   5 114.999 30.3285   1
   2  -2  -5 147.508 30.4128   1
  -2   2   4 20668.1 860.150   1
   2  -2  -4 19805.4 859.457   1
   2  -2  -3 20828.6 881.636   1
  -2   2   3 21731.7 882.375   1
  -2   2   2 16078.7 666.748   1
   2  -2  -2 16157.9 666.530   1
   2   2   3 23455.3 991.435   1
  -2  -2  -3 24010.8 990.907   1
   2   2   4 13405.7 609.354   1
  -2  -2  -4 14070.8 614.611   1
  -2  -2  -5 774.215 83.1760   1
   2   2   5 759.326 81.2086   1
  -2  -2  -6 4648.85 266.822   1
   2   2   6 4335.31 267.128   1
   2   2   7 41656.2 1800.94   1
  -2  -2  -7 43831.8 1798.71   1
  -2  -2  -8 502.085 79.2785   1
   2   2   8 413.506 77.0222   1
  -2  -2  -9 2835.09 232.957   1
   2   2   9 3196.97 255.851   1
  -2  -2 -10 78.9783 37.4034   1
   2   2  10 121.022 38.6857   1
   2   2  11 6527.44 419.529   1
  -2  -2 -11 5425.23 392.053   1
   2   2  12 553.448 123.121   1
  -2  -2 -12 705.336 120.030   1
  -2  -2 -13 2540.70 249.123   1
   2   2  13 2445.64 275.153   1
  -2  -2 -14 231.273 80.9900   1
  -2   3  14 947.732 166.998   1
   2  -3 -14 1071.50 165.786   1
  -2   3  13-60.5568 52.9698   1
   2  -3 -13 54.7334 31.1140   1
  -2   3  12 14004.1 794.223   1
   2  -3 -12 13967.3 756.863   1
  -2   3  11 55.6625 40.2474   1
   2  -3 -11 27.7110 24.9964   1
  -2   3  10 272.052 64.7369   1
   2  -3 -10 249.869 63.3013   1
  -2   3   9 1366.36 143.823   1
   2  -3  -9 1237.92 141.425   1
   2  -3  -8 3993.98 259.405   1
  -2   3   8 3616.77 268.424   1
  -2   3   7 5275.33 312.719   1
   2  -3  -7 5198.67 304.009   1
  -2   3   6 29940.2 1281.87   1
   2  -3  -6 30080.3 1275.08   1
  -2   3   5 2818.24 180.805   1
   2  -3  -5 3035.96 186.127   1
   2  -3  -4 1809.22 126.915   1
  -2   3   4 1800.43 127.897   1
  -2   3   3 309.623 40.7605   1
   2  -3  -3 320.181 40.9363   1
   2   3   4 769.977 76.8311   1
  -2  -3  -4 682.926 75.4932   1
  -2  -3  -5 2821.37 188.762   1
   2   3   5 2895.09 187.632   1
   2   3   6 25537.5 1174.26   1
  -2  -3  -6 28804.8 1184.92   1
  -2  -3  -7 3957.09 257.124   1
   2   3   7 3902.72 257.404   1
  -2  -3  -8 4978.58 313.986   1
   2   3   8 4846.02 316.287   1
   2   3   9 2408.50 210.877   1
  -2  -3  -9 2349.74 204.568   1
   2   3  10 1113.91 151.831   1
  -2  -3 -10 1273.21 148.985   1
  -2  -3 -11 246.327 63.5315   1
   2   3  11 217.931 60.7525   1
  -2  -3 -12 11053.1 630.199   1
   2   3  12 11528.4 656.119   1
  -2  -3 -13 21.0593 4.21133   1
   2   3  13-15.3050 25.1152   1
   2  -4 -14 443.600 101.644   1
  -2   4  13 45.4009 35.4980   1
   2  -4 -13 22.3394 37.4219   1
  -2   4  12 17.7388 29.4116   1
   2  -4 -12 6.46179 15.3082   1
   2  -4 -11 32.3644 16.9353   1
  -2   4  11 22.3276 25.2281   1
  -2   4  10 1952.77 195.734   1
   2  -4 -10 1861.32 179.913   1
   2  -4  -9 3838.81 268.115   1
  -2   4   9 4080.72 282.428   1
   2  -4  -8 295.058 56.9862   1
  -2   4   8 233.392 53.1308   1
   2  -4  -7 15581.9 722.484   1
  -2   4   7 15204.2 722.677   1
   2  -4  -6 778.903 89.0541   1
  -2   4   6 800.276 89.6229   1
  -2   4   5 8652.32 431.759   1
   2  -4  -5 8734.11 425.937   1
  -2   4   4 3851.50 218.302   1
   2   4   6 790.301 90.8980   1
  -2  -4  -6 798.095 94.4219   1
  -2  -4  -7 14521.9 687.228   1
   2   4   7 13528.3 683.447   1
  -2  -4  -8 217.989 52.3552   1
   2   4   8 208.971 51.9217   1
   2   4   9 490.412 86.5267   1
  -2  -4  -9 610.078 94.3672   1
  -2  -4 -10 1522.63 163.831   1
   2   4  10 1290.87 160.351   1
   2   4  11-49.1349 43.9257   1
  -2  -4 -11 26.5132 20.2196   1
  -2  -4 -12 53.9412 40.0447   1
   2   4  12 19.7465 19.7485   1
   2   4  13 26.0879 14.9930   1
  -2  -4 -13 1.93936 6.32461   1
  -2   5  13 1535.16 194.295   1
   2  -5 -13 1535.07 186.740   1
  -2   5  12 2341.45 238.320   1
   2  -5 -12 2228.62 225.049   1
   2  -5 -11 246.747 64.3600   1
  -2   5  11 230.125 66.4891   1
   2  -5 -10 549.365 96.9755   1
  -2   5  10 567.430 99.9063   1
   2  -5  -9 16069.0 784.364   1
  -2   5   9 15993.2 792.630   1
  -2   5   8 204.339 52.2256   1
   2  -5  -8 225.631 54.2884   1
   2  -5  -7 193.297 48.0750   1
  -2   5   7 187.922 44.4654   1
  -2   5   6 1039.85 108.513   1
   2  -5  -6 1069.58 111.355   1
  -2   5   5 10.4954 8.93940   1
   2   5   7 510.476 78.1973   1
  -2  -5  -7 531.365 76.7608   1
   2   5   8 10.4333 13.0607   1
  -2  -5  -8-19.2643 16.1294   1
   2   5   9 18099.8 872.906   1
  -2  -5  -9 17725.7 867.146   1
   2   5  10 41.6200 33.3541   1
  -2  -5 -10-11.7707 13.0130   1
   2   5  11 2843.72 255.352   1
  -2  -5 -11 2490.29 234.954   1
   2   5  12 1940.10 211.175   1
  -2  -5 -12 1913.88 205.329   1
   2   5  13 2243.29 258.301   1
  -2  -5 -13 2459.48 254.148   1
   2  -6 -13 768.936 127.023   1
  -2   6  13 697.157 134.893   1
  -2   6  12 1400.79 174.409   1
   2  -6 -12 1169.17 162.342   1
  -2   6  11 178.464 58.7722   1
   2  -6 -11 176.469 60.6231   1
  -2   6  10 5125.21 358.168   1
   2  -6 -10 5317.75 357.364   1
   2  -6  -9 78.4203 28.2518   1
  -2   6   9 75.0820 24.6748   1
   2  -6  -8 512.050 85.0326   1
  -2   6   8 402.421 76.1676   1
  -2   6   7 255.974 49.5729   1
   2   6   9 12.9663 15.6768   1
  -2  -6  -9 6.52252 19.4197   1
  -2  -6 -10 3716.90 295.584   1
   2   6  10 3905.22 300.435   1
  -2  -6 -11 1.69826 12.9400   1
   2   6  11 5.18075 23.4708   1
   2   6  12 1286.44 176.031   1
  -2  -6 -12 1304.39 166.919   1
  -2   7  13 329.441 109.910   1
   2  -7 -13 424.820 96.2955   1
   2  -7 -12 5076.69 372.441   1
  -2   7  12 4667.98 368.211   1
  -2   7  11 21.4540 24.6401   1
   2  -7 -11 25.3995 21.6446   1
  -2   7  10 337.106 78.3531   1
   2  -7 -10 251.092 64.2182   1
  -2   7   9 5417.45 364.545   1
  -2  -7 -11-26.5408 16.2880   1
   2   7  11 38.0590 19.0813   1
   2   7  12 4218.76 339.447   1
  -2  -7 -12 4024.90 338.185   1
  -2   8  12 863.848 142.106   1
   2  -8 -12 910.695 143.326   1
  -2   8  11 1991.64 207.894   1
   3   0   2 2373.69 128.169   1
  -3   0  -2 2461.47 126.512   1
   3   0   3 6.22342 2.42183   1
  -3   0  -3-14.1104 10.0101   1
   3   0   4 18.2474 15.8434   1
  -3   0  -4 17.9497 10.2172   1
  -3   0  -5 0.97061 2.59684   1
   3   0   5 16.6436 13.3221   1
  -3   0  -6 29726.8 1314.80   1
   3   0   6 32400.5 1342.95   1
  -3   0  -7 9.00845 7.25384   1
   3   0   7 30.1337 26.2111   1
  -3   0  -8 15.8815 9.46601   1
   3   0   8 37.7947 15.5358   1
   3   0   9-19.0505 21.3046   1
  -3   0  -9-11.8680 19.4733   1
  -3   0 -10 1142.16 137.079   1
   3   0  10 1171.63 154.677   1
  -3   0 -11 17.1437 24.5487   1
   3   0  11-40.5573 39.9765   1
  -3   0 -12 18939.9 941.769   1
   3   0  12 18082.4 1017.17   1
   3   0  13-29.8867 35.2161   1
  -3   0 -13-0.92420 15.8945   1
  -3   0 -14 139.952 64.7962   1
   3  -1 -12 3118.45 274.727   1
  -3   1  11 275.685 77.8445   1
   3  -1 -11 361.874 75.3997   1
  -3   1  10-25.8239 27.1393   1
   3  -1 -10 24.6656 26.1759   1
  -3   1   9 314.702 79.4874   1
   3  -1  -9 502.825 81.4487   1
   3  -1  -8 1713.79 156.954   1
  -3   1   8 1417.47 170.410   1
  -3   1   7 20863.6 1048.40   1
   3  -1  -7 24399.1 1022.97   1
   3  -1  -6 862.024 95.9304   1
  -3   1   6 896.847 104.073   1
  -3   1   5 8002.05 401.420   1
   3  -1  -5 7571.06 388.608   1
   3  -1  -4 13943.8 673.127   1
  -3   1   4 17556.8 695.183   1
  -3   1   3 5931.24 267.960   1
   3  -1  -3 4885.42 254.527   1
  -3   1   2 11350.9 478.628   1
   3  -1  -2 11238.9 472.751   1
   3   1   2 4130.22 191.629   1
  -3  -1  -2 3985.45 191.715   1
  -3   1  -2 4127.56 185.846   1
   3  -1   3 7372.52 354.892   1
  -3  -1  -3 7079.39 331.487   1
  -3   1  -3 7172.68 328.603   1
   3   1   3 6724.10 332.050   1
   3   1   4 18865.8 809.853   1
   3  -1   4 18690.0 839.994   1
  -3  -1  -4 18749.9 808.968   1
  -3   1  -4 19036.2 811.776   1
  -3   1  -5 6236.99 339.650   1
  -3  -1  -5 6811.79 339.634   1
   3   1   5 6308.16 337.604   1
   3  -1   5 7115.33 382.168   1
   3   1   6 1373.82 128.681   1
   3  -1   6 1466.42 147.867   1
  -3  -1  -6 1279.56 119.677   1
  -3   1  -6 1298.06 122.993   1
  -3  -1  -7 24358.8 1015.78   1
   3   1   7 25764.5 1040.53   1
   3   1   8 720.375 100.940   1
  -3  -1  -8 689.360 93.1690   1
  -3   1  -8 652.761 97.2754   1
   3  -1   8 576.578 108.196   1
   3  -1   9 177.426 56.0280   1
   3   1   9 126.274 44.5413   1
  -3  -1  -9 108.039 36.7161   1
  -3   1  -9 133.681 38.5565   1
  -3   1 -10 25.6865 13.9620   1
   3  -1  10 7.45307 15.4816   1
   3   1  10 33.7463 22.3819   1
  -3  -1 -10 54.1802 30.7571   1
   3   1  11 144.351 38.7108   1
  -3   1 -11 170.726 56.9163   1
  -3  -1 -11 128.012 40.9904   1
   3   1  12 2831.55 284.342   1
  -3  -1 -12 2657.71 246.777   1
   3   1  13 1101.83 173.481   1
  -3  -1 -13 792.808 140.249   1
  -3  -1 -14 199.334 92.2359   1
  -3   2  14 1299.73 208.198   1
   3  -2 -14 1387.56 173.042   1
   3  -2 -13 804.569 134.755   1
  -3   2  13 582.907 138.914   1
  -3   2  12 274.984 84.9468   1
   3  -2 -12 160.895 54.2274   1
   3  -2 -11 876.511 119.881   1
  -3   2  11 752.624 136.186   1
   3  -2 -10 225.780 57.0486   1
  -3   2  10 154.701 56.4008   1
  -3   2   9 29076.7 1327.13   1
   3  -2  -9 29287.7 1294.74   1
   3  -2  -8 41.4401 19.2362   1
  -3   2   8 19.8920 14.6675   1
   3  -2  -7 787.650 86.5714   1
  -3   2   7 710.112 97.6288   1
  -3   2   6 809.754 87.0845   1
   3  -2  -6 665.082 78.7418   1
   3  -2  -5 10243.1 472.936   1
  -3   2   5 9919.85 477.415   1
  -3   2   4 18892.0 812.589   1
  -3   2   3 24147.7 1018.18   1
   3  -2  -3 25369.8 1016.19   1
  -3   2   2 23991.9 952.325   1
   3  -2  -2 22964.5 952.918   1
   3   2   3 26226.9 1092.57   1
   3   2   4 24852.0 1050.58   1
  -3  -2  -4 24925.6 1054.42   1
   3   2   5 6626.05 351.369   1
  -3  -2  -5 6892.30 351.831   1
   3   2   6 2319.95 170.747   1
  -3  -2  -6 2301.12 169.046   1
   3   2   7 1.50590 14.4101   1
  -3  -2  -7 20.9740 18.6745   1
  -3  -2  -8 703.319 95.2210   1
   3   2   8 764.154 105.218   1
  -3  -2  -9 31948.8 1415.30   1
   3   2   9 32234.3 1442.62   1
   3   2  10 1313.98 157.381   1
  -3  -2 -10 1550.09 157.097   1
  -3  -2 -11 256.849 60.2217   1
   3   2  11 260.045 63.9373   1
  -3  -2 -12 550.725 106.636   1
   3   2  12 573.218 116.471   1
  -3  -2 -13 1021.45 149.773   1
   3   2  13 712.812 139.087   1
   3  -3 -14 2331.65 243.524   1
  -3   3  14 2583.75 283.000   1
   3  -3 -13 322.090 86.0815   1
  -3   3  13 398.854 93.4769   1
   3  -3 -12 1110.49 151.706   1
  -3   3  12 1272.85 180.226   1
   3  -3 -11 830.279 122.849   1
  -3   3  11 937.622 145.774   1
   3  -3 -10 14476.1 778.733   1
  -3   3  10 17819.1 834.649   1
  -3   3   9 662.753 100.321   1
   3  -3  -9 496.424 85.1930   1
   3  -3  -8 3204.37 230.431   1
  -3   3   8 3402.02 239.157   1
   3  -3  -7 1583.59 138.895   1
  -3   3   7 1386.91 142.084   1
   3  -3  -6 64.0872 20.6748   1
  -3   3   6 31.9069 7.06226   1
  -3   3   5 5361.90 290.817   1
   3  -3  -5 5498.35 288.916   1
   3  -3  -4 71598.5 2929.88   1
  -3   3   4 74925.1 2932.92   1
   3  -3  -3 11648.0 522.216   1
  -3   3   3 12393.7 523.484   1
  -3  -3  -5 6220.56 327.435   1
   3   3   5 5889.37 323.813   1
   3   3   6 60.5367 27.0106   1
  -3  -3  -6 43.4063 21.5100   1
  -3  -3  -7 63.7840 19.6712   1
   3   3   7 85.0749 29.6022   1
   3   3   8 3258.62 248.850   1
  -3  -3  -8 3641.16 252.574   1
  -3  -3  -9 3242.15 242.611   1
   3   3   9 2953.56 242.781   1
   3   3  10 18790.6 933.971   1
  -3  -3 -11 1160.02 147.566   1
   3   3  11 1041.91 152.161   1
  -3  -3 -12 1441.67 177.893   1
   3   3  12 1605.01 186.937   1
  -3  -3 -13 192.570 62.4297   1
   3   3  13 205.443 74.4263   1
  -3   4  14 408.894 131.184   1
   3  -4 -14 61.5199 22.6879   1
   3  -4 -13 1092.56 144.920   1
  -3   4  13 765.973 149.363   1
  -3   4  12 1216.26 165.414   1
   3  -4 -12 1244.85 155.445   1
  -3   4  11 1689.28 184.950   1
   3  -4 -11 1800.18 182.344   1
  -3   4  10 14.5438 19.5267   1
   3  -4 -10 44.0714 25.8222   1
   3  -4  -9 763.160 104.531   1
  -3   4   9 674.672 104.157   1
  -3   4   8 854.153 107.725   1
   3  -4  -8 708.368 94.4171   1
   3  -4  -7 5179.43 311.938   1
  -3   4   7 5355.15 316.328   1
  -3   4   6 607.257 77.9409   1
   3  -4  -6 726.472 83.0156   1
   3  -4  -5 2428.25 164.524   1
  -3   4   5 2153.26 159.032   1
  -3   4   4 3964.54 221.150   1
  -3  -4  -6 1651.77 144.747   1
   3   4   6 1512.75 141.361   1
   3   4   7 8564.26 470.845   1
  -3  -4  -7 8728.22 466.100   1
  -3  -4  -8 346.659 69.5415   1
   3   4   8 279.591 65.1475   1
  -3  -4  -9 2919.24 243.194   1
   3   4   9 3117.61 245.752   1
   3   4  10 157.291 53.5877   1
  -3  -4 -10 173.323 51.2298   1
  -3  -4 -11 1827.78 196.770   1
   3   4  11 2051.13 214.385   1
   3   4  12 1716.79 214.944   1
  -3  -4 -12 1796.27 203.066   1
   3   4  13 424.569 106.734   1
  -3  -4 -13 356.938 94.1763   1
   3  -5 -13 4804.36 365.609   1
  -3   5  13 4909.19 384.632   1
  -3   5  12-43.7418 32.1611   1
   3  -5 -12 17.7560 16.9340   1
  -3   5  11 3698.61 310.464   1
   3  -5 -11 4248.28 304.852   1
  -3   5  10 3798.14 289.378   1
   3  -5 -10 3721.30 277.263   1
   3  -5  -9 957.524 116.775   1
  -3   5   9 897.953 116.976   1
  -3   5   8 104.741 32.8146   1
   3  -5  -8 55.2471 22.1974   1
   3  -5  -7 30125.6 1285.12   1
  -3   5   7 29079.2 1284.56   1
   3  -5  -6 769.209 87.7377   1
  -3   5   6 720.217 89.7120   1
  -3   5   5 2622.60 182.993   1
   3   5   8 299.667 66.3934   1
  -3  -5  -8 282.837 65.3192   1
  -3  -5  -9 2691.73 223.954   1
   3   5   9 2550.18 227.367   1
  -3  -5 -10 2932.38 251.706   1
   3   5  10 3002.50 249.003   1
  -3  -5 -11 5245.11 383.462   1
   3   5  11 5594.79 391.617   1
  -3  -5 -12 0.97037 22.3285   1
   3   5  12 63.3991 37.7308   1
  -3  -5 -13 2752.19 266.815   1
   3  -6 -13 405.147 112.140   1
  -3   6  13 705.859 130.559   1
  -3   6  12 3508.34 308.059   1
   3  -6 -12 3673.82 302.716   1
  -3   6  11 1248.15 152.849   1
   3  -6 -11 947.724 137.392   1
  -3   6  10 92.9298 35.8741   1
   3  -6 -10 126.423 42.1266   1
  -3   6   9 509.607 85.6658   1
   3  -6  -9 456.163 80.0253   1
   3  -6  -8 1786.14 169.036   1
  -3   6   8 1931.88 173.300   1
  -3   6   7 140.293 44.6864   1
  -3   6   6 10555.2 529.145   1
   3   6  10 236.680 61.5192   1
  -3  -6 -10 218.260 66.2764   1
   3   6  11 484.959 96.6799   1
  -3  -6 -11 505.329 104.190   1
   3   6  12 5478.09 407.532   1
  -3  -6 -12 5149.69 387.090   1
  -3   7  13 93.9190 47.4249   1
   3  -7 -13 14.2093 5.23254   1
  -3   7  12 52.9905 39.1728   1
   3  -7 -12 0.89799 27.0911   1
  -3   7  11 428.567 94.3169   1
   3  -7 -11 410.979 86.6751   1
   3  -7 -10 7187.21 433.849   1
  -3   7  10 6782.24 427.495   1
  -3   7   9 1204.72 141.214   1
  -3   7   8 5002.69 328.186   1
  -3  -7 -12 21.3143 16.9246   1
   3   7  12 61.8254 24.7485   1
   3  -8 -12 2849.98 246.121   1
  -3   8  12 2627.53 259.909   1
  -3   8  11 338.489 81.1859   1
  -3   8  10 305.378 69.3884   1
   4   0   1-1.43572 0.44333   1
  -4   0  -2 10.7207 5.36818   1
   4   0   2 8.05096 4.95664   1
  -4   0  -3 14.7446 8.59877   1
   4   0   3-5.90516 5.89785   1
   4   0   4 13312.9 573.685   1
  -4   0  -4 11823.8 556.076   1
   4   0   5-2.12653 3.64669   1
  -4   0  -5-7.27736 9.75416   1
   4   0   6 227.398 46.7288   1
  -4   0  -6 195.180 40.5396   1
  -4   0  -7 12.5398 20.5791   1
   4   0   7-34.1397 15.9545   1
  -4   0  -8 1154.50 122.417   1
   4   0   8 1029.98 138.101   1
   4   0   9 13.8973 20.3782   1
  -4   0  -9-7.70549 8.17042   1
   4   0  10 8830.07 530.926   1
  -4   0 -10 8163.55 476.749   1
  -4   0 -11 8.17602 24.1530   1
   4   0  11 22.1553 41.1289   1
   4   0  12 1769.76 238.758   1
  -4   0 -12 1774.11 193.933   1
   4   0  13-332.801 102.184   1
  -4   0 -13-2.71154 22.8265   1
   4  -1 -11 164.283 53.7356   1
   4  -1 -10 923.173 126.120   1
   4  -1  -9 4743.13 309.096   1
   4  -1  -8 2106.39 185.556   1
  -4   1   7 265.270 59.1171   1
   4  -1  -7 288.564 57.6361   1
  -4   1   6 3105.80 214.792   1
   4  -1  -6 2659.79 193.442   1
  -4   1   5 21191.0 911.100   1
   4  -1  -5 19899.8 887.006   1
   4  -1  -4 6098.96 302.713   1
   4  -1  -3 3817.09 196.452   1
   4  -1  -2 3853.97 182.004   1
  -4   1  -2 1050.40 71.3885   1
   4  -1   2 1187.04 78.7589   1
   4   1   2 1139.51 79.0149   1
   4  -1   3 4286.28 219.161   1
  -4   1  -3 3846.92 203.356   1
  -4  -1  -3 3921.22 211.040   1
   4   1   3 4074.46 211.197   1
   4  -1   4 1994.11 142.162   1
  -4   1  -4 2079.02 131.917   1
  -4  -1  -4 1795.17 128.007   1
   4   1   4 1628.58 123.540   1
   4   1   5 16820.4 757.534   1
  -4  -1  -5 16381.8 751.262   1
   4  -1   5 16520.0 772.520   1
  -4   1  -5 18145.1 757.099   1
  -4  -1  -6 8457.95 434.986   1
   4  -1   6 8403.48 468.353   1
   4   1   6 9255.68 455.051   1
  -4   1  -6 8790.97 441.452   1
  -4  -1  -7 73.9227 29.1052   1
   4  -1   7 103.044 50.9318   1
  -4   1  -7 56.7410 26.6063   1
   4   1   7 89.5355 36.0885   1
   4   1   8 627.107 97.3492   1
   4  -1   8 637.802 112.320   1
  -4   1  -8 718.278 94.3956   1
  -4  -1  -8 636.684 92.8391   1
  -4   1  -9 10203.1 505.830   1
   4  -1   9 6998.71 516.283   1
  -4  -1  -9 7856.42 485.018   1
   4   1   9 10493.8 528.747   1
   4   1  10 495.068 101.630   1
   4  -1  10 680.312 117.516   1
  -4   1 -10 794.057 132.234   1
  -4  -1 -10 539.243 97.4311   1
   4   1  11 63.4512 42.5200   1
   4  -1  11 31.4518 33.4253   1
  -4  -1 -11 68.1843 19.5887   1
  -4   1 -11 36.0207 27.6990   1
   4   1  12 832.266 146.059   1
  -4   1 -12 809.404 125.778   1
  -4  -1 -12 659.288 108.542   1
   4   1  13 531.277 119.554   1
  -4  -1 -13 519.214 105.035   1
   4  -2 -14 1049.98 148.308   1
   4  -2 -13 556.436 97.7863   1
  -4   2  13 779.642 153.059   1
   4  -2 -12 547.413 103.448   1
  -4   2  12 526.773 103.576   1
   4  -2 -11 5463.19 349.570   1
  -4   2  11 3856.96 355.447   1
  -4   2  10 307.581 76.0552   1
   4  -2 -10 398.624 70.4546   1
   4  -2  -9 236.147 56.2249   1
  -4   2   9 309.076 75.1928   1
   4  -2  -8 57.2924 25.3850   1
  -4   2   8 50.4116 18.2125   1
  -4   2   7 5673.04 357.142   1
   4  -2  -7 6372.50 342.455   1
   4  -2  -6 225.643 42.4167   1
  -4   2   6 139.957 42.9749   1
   4  -2  -5 1997.34 134.164   1
  -4   2   5 1754.78 143.555   1
   4  -2  -4 2916.59 173.928   1
  -4   2   4 3394.65 184.211   1
   4  -2  -3 7927.80 346.690   1
  -4   2   3 7505.65 348.207   1
  -4   2   2 255.483 27.6726   1
   4  -2  -2 234.924 26.5635   1
  -4   2  -4 5320.30 304.394   1
  -4  -2  -4 6203.94 305.731   1
   4   2   4 5941.16 302.690   1
   4   2   5 48.4889 22.8115   1
  -4   2  -5 59.7859 22.9811   1
  -4  -2  -5 60.8555 21.9299   1
   4   2   6 555.266 73.6392   1
  -4  -2  -6 585.676 75.5557   1
  -4   2  -6 604.941 77.6172   1
   4   2   7 8098.76 453.316   1
  -4  -2  -7 9061.73 454.850   1
  -4  -2  -8 30.2952 23.6469   1
   4   2   8 43.2600 22.2167   1
  -4  -2  -9 291.211 68.7283   1
   4   2   9 217.989 61.0557   1
  -4  -2 -10 3646.26 266.489   1
   4   2  10 3381.23 283.025   1
  -4  -2 -11 3642.03 290.052   1
   4   2  11 4017.41 315.809   1
  -4  -2 -12 19.3004 13.3773   1
   4   2  12 19.3526 35.6488   1
  -4  -2 -13 1220.17 157.080   1
   4   2  13 895.828 170.573   1
  -4   3  14 294.991 105.506   1
   4  -3 -14 240.115 76.6720   1
  -4   3  13 268.830 95.4145   1
   4  -3 -13 267.153 76.6148   1
  -4   3  12 668.100 117.315   1
   4  -3 -12 643.739 112.368   1
  -4   3  11 525.492 100.710   1
   4  -3 -11 664.386 99.4016   1
  -4   3  10 4322.60 331.706   1
   4  -3 -10 4382.09 305.444   1
   4  -3  -9 99.1308 31.3322   1
  -4   3   9 89.9315 38.6904   1
  -4   3   8 7319.45 394.886   1
   4  -3  -8 5941.60 369.848   1
  -4   3   7 27.5387 17.6627   1
   4  -3  -7 10.7750 16.3934   1
  -4   3   6 14769.9 703.644   1
   4  -3  -6 15871.8 698.077   1
   4  -3  -5 851.725 83.0610   1
  -4   3   5 934.293 89.9235   1
  -4   3   4 10027.1 457.531   1
   4  -3  -4 9899.09 450.880   1
  -4   3   3 495.172 48.9604   1
   4  -3  -3 437.607 47.7450   1
  -4   3   2 9988.62 427.816   1
  -4  -3  -5 1241.74 115.985   1
   4   3   5 1179.97 113.141   1
   4   3   6 20102.4 911.385   1
  -4  -3  -6 20234.3 905.377   1
   4   3   7 56.0694 22.4494   1
  -4  -3  -7 100.045 35.7396   1
   4   3   8 3118.86 227.898   1
  -4  -3  -8 2786.54 223.252   1
  -4  -3  -9 152.600 43.0728   1
   4   3   9 118.969 48.4570   1
  -4  -3 -10 1159.54 144.804   1
   4   3  10 1357.66 154.890   1
  -4  -3 -11 189.496 48.9479   1
   4   3  11 129.393 39.9891   1
  -4  -3 -12 3000.61 266.148   1
   4   3  12 2627.11 262.117   1
  -4  -3 -13-16.4806 30.8747   1
   4   3  13-36.6207 36.3783   1
   4  -4 -14 1077.62 155.537   1
  -4   4  14 823.808 158.494   1
  -4   4  13 387.098 97.6387   1
   4  -4 -13 424.626 93.2717   1
   4  -4 -12 506.162 97.2742   1
  -4   4  12 442.553 106.449   1
   4  -4 -11 3563.13 271.048   1
  -4   4  11 3328.91 292.781   1
   4  -4 -10 2650.74 218.091   1
  -4   4  10 2641.50 226.706   1
  -4   4   9 751.912 109.470   1
   4  -4  -9 766.304 103.287   1
  -4   4   8 1411.26 149.705   1
   4  -4  -8 1680.82 149.306   1
  -4   4   7 6413.52 349.123   1
   4  -4  -7 5672.76 332.871   1
   4  -4  -6 123.551 35.7740   1
  -4   4   6 136.847 30.8396   1
   4  -4  -5 519.319 68.4116   1
  -4   4   5 536.906 64.4141   1
  -4   4   4 4371.62 233.927   1
   4  -4  -4 4221.78 232.370   1
  -4   4   3 11134.2 495.764   1
   4   4   6 867.741 100.617   1
  -4  -4  -7 8483.90 466.782   1
   4   4   7 8964.94 476.439   1
   4   4   8 1024.39 127.563   1
  -4  -4  -8 1162.89 126.261   1
  -4  -4  -9 17.3460 3.20133   1
   4   4   9 3.35646 11.1245   1
   4   4  10 3492.63 276.871   1
  -4  -4 -10 2829.14 250.767   1
   4   4  11 3338.26 284.164   1
  -4  -4 -11 3155.33 271.019   1
  -4  -4 -12 165.693 59.3428   1
   4   4  12 74.2251 51.7248   1
  -4  -4 -13 482.875 104.507   1
   4   4  13 553.697 124.978   1
   4  -5 -14 55.5701 51.5305   1
   4  -5 -13 902.925 179.996   1
  -4   5  13 1637.42 200.853   1
   4  -5 -12 101.650 43.8900   1
  -4   5  12 43.3266 30.0951   1
  -4   5  11 1823.81 193.255   1
   4  -5 -11 1928.84 190.676   1
   4  -5 -10 1634.81 167.689   1
  -4   5  10 1633.75 172.205   1
  -4   5   9 8507.24 482.446   1
   4  -5  -9 8542.54 470.599   1
  -4   5   8 469.731 80.7987   1
   4  -5  -8 458.924 72.9611   1
   4  -5  -7 633.265 86.3524   1
  -4   5   7 650.899 83.2227   1
  -4   5   6 2602.23 185.207   1
   4  -5  -6 2552.35 182.212   1
  -4   5   5 21145.3 917.296   1
  -4   5   4 1584.38 121.024   1
   4   5   8 467.532 81.9493   1
  -4  -5  -9 7009.54 427.862   1
   4   5   9 6947.85 432.800   1
   4   5  10 123.117 44.8500   1
  -4  -5 -10 218.371 61.0616   1
   4   5  11 159.482 55.0752   1
  -4  -5 -11 146.327 43.8010   1
   4   5  12 614.695 118.848   1
  -4  -5 -12 674.512 125.628   1
   4  -6 -13 95.3157 50.4653   1
  -4   6  13 103.932 38.7069   1
  -4   6  12 759.781 122.993   1
   4  -6 -12 674.939 110.920   1
  -4   6  11 72.2884 42.8901   1
   4  -6 -11 7.96645 7.46095   1
  -4   6  10 3899.28 291.018   1
   4  -6 -10 3925.00 295.290   1
  -4   6   9 9.26586 13.9479   1
   4  -6  -9 22.4391 14.3316   1
   4  -6  -8 534.417 85.1217   1
  -4   6   8 561.579 86.7066   1
  -4   6   7 55.2332 23.1237   1
  -4   6   6 2733.25 190.755   1
   4   6  10 7061.15 451.904   1
  -4  -6 -11 704.201 116.416   1
   4   6  11 540.342 105.800   1
   4   6  12 668.773 128.604   1
  -4  -6 -12 553.168 105.740   1
   4  -7 -13 1174.57 167.720   1
  -4   7  13 1183.06 176.551   1
  -4   7  12 560.133 105.688   1
   4  -7 -12 423.284 91.5116   1
   4  -7 -11 251.403 70.9196   1
  -4   7  11 195.938 52.1884   1
  -4   7  10 1819.92 186.207   1
   4  -7 -10 1834.93 185.479   1
  -4   7   9 1867.19 179.254   1
   4  -7  -9 2006.78 188.968   1
  -4   7   8 1100.54 126.086   1
  -4   7   7 583.882 83.2308   1
   4  -8 -13 374.660 92.7586   1
  -4   8  12 197.404 58.6200   1
   4  -8 -12 228.389 64.0628   1
  -4   8  11 2983.58 261.867   1
  -4   8  10 993.885 126.013   1
  -4   8   9 477.310 87.2246   1
  -4   9  12 666.023 117.031   1
   5   0   1-3.24083 1.31929   1
  -5   0  -2 76677.7 3009.15   1
   5   0   2 75147.9 3008.45   1
  -5   0  -3-9.21673 4.51801   1
   5   0   3-0.89281 4.35487   1
   5   0   4 26617.9 1173.90   1
  -5   0  -4 29249.7 1168.49   1
   5   0   5-18.6009 15.6137   1
  -5   0  -5-14.9762 11.1869   1
  -5   0  -6 2155.72 165.964   1
   5   0   6 2559.33 180.830   1
   5   0   7-24.7941 26.5303   1
  -5   0  -7 5.00055 13.8554   1
  -5   0  -8 12195.6 585.096   1
   5   0   8 10639.6 609.721   1
   5   0   9 15.3098 8.29279   1
  -5   0  -9 11.1322 19.4184   1
   5   0  10 4302.37 342.618   1
  -5   0 -10 4645.52 309.736   1
  -5   0 -11-32.5200 35.6383   1
   5   0  12-25.9433 49.5028   1
  -5   0 -12-39.4953 32.1085   1
   5   0  13-49.6540 48.9080   1
  -5   0 -13-65.3447 35.7111   1
   5  -1 -10 4872.22 336.641   1
   5  -1  -9 866.074 115.025   1
   5  -1  -8 4809.54 309.181   1
   5  -1  -7 4578.14 286.273   1
   5  -1  -6 4458.52 264.943   1
   5  -1  -5 15424.7 690.282   1
   5  -1  -4 4610.71 241.131   1
   5  -1  -3 31727.4 1290.49   1
   5  -1  -2 14134.5 582.898   1
   5  -1   2 4917.72 253.257   1
   5   1   2 5896.02 261.815   1
   5  -1   3 26989.3 1070.39   1
   5   1   3 24952.0 1057.13   1
  -5  -1  -3 24715.4 1057.83   1
  -5   1  -4 547.454 61.0139   1
   5  -1   4 593.088 69.0600   1
  -5  -1  -4 552.021 65.6787   1
   5   1   4 578.670 64.1844   1
   5   1   5 14982.5 703.747   1
  -5   1  -5 15146.9 697.166   1
   5  -1   5 16383.4 721.269   1
  -5  -1  -5 15944.6 701.134   1
  -5  -1  -6 644.945 80.4592   1
   5   1   6 741.459 90.2057   1
  -5   1  -6 776.675 86.1214   1
   5  -1   6 796.793 98.2300   1
  -5   1  -7 6403.11 360.179   1
   5  -1   7 6487.59 389.086   1
   5   1   7 6025.06 368.725   1
  -5  -1  -7 6633.17 359.303   1
  -5   1  -8 5403.84 336.061   1
   5  -1   8 5613.62 383.141   1
  -5  -1  -8 5783.48 337.183   1
   5   1   8 5505.17 349.586   1
   5   1   9 311.840 71.6690   1
  -5   1  -9 303.407 64.0860   1
  -5  -1  -9 368.277 71.6514   1
   5  -1   9 148.192 41.8808   1
  -5   1 -10 4681.95 319.161   1
   5  -1  10 3647.09 341.106   1
  -5  -1 -10 4433.16 317.743   1
   5   1  10 4870.54 341.700   1
   5  -1  11 7628.57 505.437   1
  -5   1 -11 6901.26 440.942   1
  -5  -1 -11 7135.42 446.605   1
   5   1  11 6388.09 474.153   1
  -5  -1 -12 103.669 48.7021   1
  -5   1 -12 67.0441 12.1742   1
   5   1  12 90.1442 52.2735   1
  -5   1 -13 457.678 104.641   1
   5   1  13 550.004 119.121   1
  -5  -1 -13 528.330 113.011   1
   5  -2 -14 534.583 108.420   1
   5  -2 -13 3923.75 311.816   1
   5  -2 -12 351.430 83.9479   1
   5  -2 -11 1667.56 172.079   1
  -5   2  11 1576.53 188.758   1
   5  -2 -10 3750.44 271.214   1
  -5   2   9 21.6597 21.9882   1
   5  -2  -9-7.55184 22.8047   1
   5  -2  -8 2880.56 208.785   1
  -5   2   8 2538.72 237.430   1
  -5   2   7 347.106 70.7502   1
   5  -2  -7 416.630 65.9195   1
   5  -2  -6 4296.56 250.945   1
  -5   2   5 4501.69 262.095   1
   5  -2  -5 4614.08 246.599   1
   5  -2  -4 2207.31 135.876   1
  -5   2   3 532.341 52.5855   1
   5  -2  -3 469.135 46.9725   1
   5  -2  -2 229.052 23.6437   1
  -5   2   2 213.067 25.2408   1
  -5   2  -2 180.123 24.3389   1
  -5   2  -3 244.800 35.0500   1
   5   2   4 4271.47 240.119   1
  -5   2  -4 4178.16 230.668   1
  -5   2  -5 10666.7 516.462   1
   5   2   5 10393.7 523.001   1
  -5  -2  -5 11653.2 525.364   1
  -5   2  -6 4996.80 285.904   1
   5   2   6 4896.31 283.274   1
  -5  -2  -6 4102.54 273.958   1
  -5  -2  -7 65.9960 29.0830   1
   5   2   7 74.1785 31.7960   1
  -5   2  -7 45.8568 23.1061   1
   5   2   8 1997.04 177.632   1
  -5  -2  -8 2003.95 174.143   1
  -5   2  -8 1624.55 166.714   1
  -5  -2  -9 125.543 44.0151   1
   5   2   9 71.6228 40.4538   1
  -5   2  -9 172.090 49.4904   1
  -5  -2 -10 3602.48 281.100   1
   5   2  10 3991.80 305.632   1
  -5  -2 -11 1683.35 178.308   1
   5   2  11 1604.77 189.852   1
  -5  -2 -12 922.817 135.407   1
   5   2  12 972.952 149.427   1
   5   2  13 2028.96 253.412   1
  -5  -2 -13 2257.41 231.886   1
  -5   3  14 3633.10 345.902   1
   5  -3 -14 2997.93 289.393   1
   5  -3 -13 29.3775 26.5286   1
  -5   3  13 20.7889 65.2587   1
  -5   3  12-36.3143 57.0006   1
   5  -3 -12 43.2869 31.4874   1
   5  -3 -11 1046.38 134.062   1
  -5   3  11 1012.92 154.616   1
  -5   3  10 88.6240 35.6374   1
   5  -3 -10 99.7245 38.8171   1
  -5   3   9 555.597 92.0321   1
   5  -3  -9 597.989 90.7600   1
  -5   3   8 2910.16 232.278   1
   5  -3  -8 2658.01 205.956   1
   5  -3  -7 1989.32 163.199   1
  -5   3   7 2171.35 179.501   1
   5  -3  -6 13446.9 622.831   1
  -5   3   6 13596.8 628.957   1
   5  -3  -5 4121.47 231.000   1
  -5   3   5 4255.61 237.229   1
   5  -3  -4 220.061 34.3740   1
  -5   3   4 142.235 29.2765   1
  -5   3   3 3287.84 173.427   1
   5  -3  -3 3281.88 171.161   1
  -5   3   2 1911.32 103.766   1
   5   3   5 8051.91 415.180   1
   5   3   6 13672.1 677.147   1
  -5  -3  -6 14609.9 674.623   1
   5   3   7 1684.91 156.533   1
  -5  -3  -7 1862.92 158.442   1
   5   3   8 1508.43 150.365   1
  -5  -3  -8 1351.08 143.620   1
  -5  -3  -9 626.347 97.7638   1
   5   3   9 580.858 101.941   1
  -5  -3 -10 1234.14 149.762   1
   5   3  10 1285.50 156.984   1
  -5  -3 -11 1493.90 172.591   1
   5   3  11 1198.53 174.219   1
   5   3  12 45.9281 22.6075   1
  -5  -3 -12 69.3307 37.9431   1
  -5  -3 -13 243.982 67.2868   1
   5   3  13 238.014 77.9902   1
   5  -4 -14 16.5944 23.7455   1
  -5   4  14 28.1443 49.2468   1
  -5   4  13 4244.19 363.767   1
   5  -4 -13 4006.41 320.576   1
  -5   4  12 1010.51 148.356   1
   5  -4 -12 804.648 121.215   1
  -5   4  11 6224.60 447.062   1
   5  -4 -11 7150.32 429.927   1
  -5   4  10 3867.10 301.108   1
   5  -4 -10 3984.65 280.548   1
   5  -4  -9 6687.47 396.142   1
  -5   4   9 7496.10 421.479   1
   5  -4  -8 2669.58 204.851   1
  -5   4   8 3041.55 221.719   1
  -5   4   7 2623.89 203.326   1
   5  -4  -7 2847.91 198.307   1
  -5   4   6 8268.44 407.707   1
   5  -4  -6 7565.68 396.296   1
  -5   4   5 19147.5 865.096   1
   5  -4  -5 20846.0 871.310   1
   5  -4  -4 79.6237 22.1399   1
  -5   4   4 82.2413 22.4314   1
  -5   4   3 14144.7 605.986   1
   5   4   7 5726.92 349.567   1
  -5  -4  -8 2500.74 207.438   1
   5   4   8 2464.53 209.693   1
  -5  -4  -9 7048.24 423.317   1
   5   4   9 6636.76 413.935   1
   5   4  10 4435.03 328.163   1
  -5  -4 -10 4300.47 322.648   1
   5   4  11 4366.95 331.741   1
  -5  -4 -11 3631.28 316.386   1
  -5  -4 -12 883.100 152.113   1
   5   4  12 1252.41 179.803   1
  -5  -4 -13 4301.12 353.834   1
   5  -5 -14 513.035 145.257   1
   5  -5 -13 77.4143 43.8469   1
  -5   5  13 33.6473 42.8461   1
   5  -5 -12 13.7831 3.73033   1
  -5   5  12-9.16099 37.9949   1
   5  -5 -11 4020.55 304.327   1
  -5   5  11 4259.59 318.507   1
   5  -5 -10 23.0851 31.3745   1
  -5   5  10 45.8871 9.40788   1
  -5   5   9 1791.66 177.867   1
   5  -5  -9 1844.36 171.395   1
  -5   5   8 4799.90 300.623   1
   5  -5  -8 4251.95 284.179   1
  -5   5   7 2351.66 184.478   1
   5  -5  -7 2608.81 188.710   1
   5  -5  -6 952.389 97.9549   1
  -5   5   6 933.387 98.0092   1
  -5   5   5 163.309 36.0127   1
  -5   5   4 23.2957 10.3181   1
  -5  -5  -9 2118.88 197.313   1
   5   5   9 2038.40 199.010   1
  -5  -5 -10 597.047 100.244   1
   5   5  10 571.096 99.3716   1
   5   5  11 1581.53 185.944   1
  -5  -5 -11 1424.49 172.750   1
  -5  -5 -12 243.891 68.7942   1
   5   5  12 178.757 66.4679   1
   5  -6 -13 266.690 78.7912   1
  -5   6  13 264.656 72.2001   1
   5  -6 -12 407.806 87.7438   1
  -5   6  12 362.460 81.6910   1
  -5   6  11 1449.85 176.585   1
   5  -6 -11 1291.59 158.861   1
  -5   6  10 6172.89 405.393   1
   5  -6 -10 6041.56 388.271   1
  -5   6   9 2142.72 192.794   1
   5  -6  -9 2198.60 185.507   1
  -5   6   8 7966.29 444.080   1
   5  -6  -8 7986.39 439.622   1
  -5   6   7 450.582 72.1637   1
  -5   6   6 4749.16 288.399   1
  -5   6   5 118.811 29.9390   1
  -5  -6 -11 509.994 103.269   1
   5   6  11 489.102 97.8732   1
   5   6  12 680.053 125.145   1
  -5  -6 -12 845.415 136.896   1
  -5   7  13 601.401 114.071   1
   5  -7 -13 594.618 113.579   1
   5  -7 -12 610.621 103.669   1
  -5   7  12 665.359 119.043   1
  -5   7  11 4762.22 346.375   1
   5  -7 -11 4535.20 329.028   1
  -5   7  10-5.19925 29.7566   1
   5  -7 -10 32.6277 22.7860   1
  -5   7   9 1181.79 137.923   1
   5  -7  -9 1195.87 135.600   1
  -5   7   8 409.286 71.3107   1
  -5   7   7 661.004 92.4646   1
  -5   8  13 1542.35 226.210   1
   5  -8 -13 3660.12 293.489   1
  -5   8  12 718.615 123.299   1
   5  -8 -12 720.355 117.165   1
  -5   8  11 414.229 85.6751   1
  -5   8  10 64.6431 43.2092   1
  -5   8   9 459.860 83.7219   1
  -5   9  12 145.136 59.2444   1
  -5   9  11 394.227 81.5805   1
   6   0   1 0.11950 2.12651   1
   6   0   2 1448.95 91.8336   1
   6   0   3 5.33802 6.83168   1
  -6   0  -3 6.13931 9.18076   1
   6   0   4 8515.85 387.652   1
  -6   0  -4 7484.95 376.832   1
  -6   0  -5 13.8838 9.84388   1
   6   0   5-8.58528 17.5682   1
  -6   0  -6 29140.7 1280.28   1
   6   0   6 31408.8 1301.07   1
   6   0   7-4.83193 10.7735   1
  -6   0  -7-26.3082 20.6277   1
  -6   0  -8 4777.62 301.958   1
   6   0   8 4401.30 317.051   1
  -6   0  -9 4.41487 13.9094   1
   6   0   9 35.7261 33.5805   1
   6   0  10 1450.18 178.531   1
  -6   0 -10 1287.93 147.757   1
   6   0  11-20.7396 48.4486   1
  -6   0 -11 10.0006 12.7440   1
  -6   0 -12-1.71147 5.56045   1
   6   0  12 1.18494 14.4044   1
   6   0  13 33.7272 35.0570   1
  -6   0 -13 53.8059 35.7236   1
   6  -1  -9 3126.67 244.501   1
   6  -1  -8 4684.45 301.642   1
   6  -1  -7 674.176 86.3694   1
   6  -1  -6 6532.76 346.858   1
   6  -1  -5 7351.83 366.253   1
   6  -1  -4 746.834 71.3963   1
   6  -1  -3 15182.8 643.977   1
   6  -1  -2 4434.53 205.302   1
   6   1   2 1705.77 107.183   1
  -6   1  -2 1626.70 95.4893   1
   6  -1   2 1541.35 101.155   1
   6  -1   3 5461.10 287.333   1
  -6   1  -3 5853.49 272.689   1
   6  -1   4 1360.55 110.767   1
  -6  -1  -4 1215.76 99.7793   1
   6   1   4 1155.27 101.096   1
  -6   1  -4 914.894 86.7454   1
   6   1   5 7966.23 403.276   1
   6  -1   5 8592.69 419.528   1
  -6  -1  -5 7006.51 390.620   1
  -6   1  -5 8156.50 389.741   1
   6  -1   6 2633.57 196.116   1
   6   1   6 2410.27 181.037   1
  -6  -1  -6 2498.06 169.454   1
  -6   1  -6 2208.57 166.405   1
   6  -1   7 2096.90 186.637   1
   6   1   7 1907.52 172.357   1
  -6  -1  -7 2089.38 165.768   1
  -6   1  -7 1957.68 160.322   1
   6  -1   8 5592.40 378.973   1
  -6  -1  -8 5469.48 339.838   1
  -6   1  -8 5598.79 334.111   1
   6   1   8 5998.45 367.461   1
   6  -1   9 2152.13 224.823   1
  -6  -1  -9 2054.31 181.975   1
   6   1   9 2126.05 193.616   1
  -6   1  -9 2000.69 179.505   1
  -6   1 -10 934.023 122.523   1
   6   1  10 1057.52 146.813   1
  -6  -1 -10 1040.26 131.035   1
   6  -1  10 708.272 137.841   1
   6  -1  11 3372.03 318.409   1
  -6  -1 -11 3222.67 264.470   1
  -6   1 -11 3248.63 261.157   1
   6   1  11 2907.92 281.413   1
  -6   1 -12 1229.62 158.550   1
   6  -1  12 1208.85 194.669   1
  -6  -1 -12 1283.86 161.338   1
   6   1  12 977.585 170.064   1
   6   1  13 8114.64 555.890   1
  -6  -1 -13 7643.07 497.642   1
  -6   1 -13 7075.05 477.448   1
   6  -2 -13 4.35737 28.0291   1
   6  -2 -12 136.014 49.1690   1
   6  -2 -11 2783.34 235.090   1
   6  -2 -10 1553.84 162.240   1
   6  -2  -9 84.8664 34.1541   1
   6  -2  -8 5630.35 335.747   1
   6  -2  -7 2670.43 192.007   1
   6  -2  -6 1312.03 114.078   1
   6  -2  -3 23843.0 975.699   1
  -6   2  -2 3452.50 169.026   1
  -6   2  -3 36526.6 1481.50   1
   6   2   4 6.61797 8.05699   1
  -6   2  -4 14.2535 4.22421   1
   6   2   5 540.624 74.2993   1
  -6   2  -5 690.444 73.6589   1
  -6  -2  -5 679.843 79.8412   1
   6   2   6 219.446 47.0792   1
  -6   2  -6 220.439 42.1530   1
  -6  -2  -6 202.512 46.1609   1
   6   2   7 2081.88 178.646   1
  -6   2  -7 2372.65 178.408   1
  -6  -2  -7 1908.33 170.668   1
  -6  -2  -8 6062.92 373.431   1
   6   2   8 6763.50 384.986   1
  -6   2  -8 6154.66 365.810   1
  -6  -2  -9 27.3476 14.3351   1
  -6   2  -9 37.6656 29.0174   1
   6   2   9-6.62760 8.98327   1
  -6  -2 -10 554.274 98.1311   1
  -6   2 -10 500.821 92.0998   1
   6   2  10 410.020 92.9936   1
   6   2  11 1866.20 209.569   1
  -6  -2 -11 1902.80 187.586   1
  -6   2 -11 1680.82 189.485   1
  -6  -2 -12 258.147 69.2463   1
   6   2  12 170.427 67.0582   1
  -6  -2 -13 241.675 65.1559   1
   6   2  13 173.005 75.6835   1
   6  -3 -14 75.8004 42.7727   1
   6  -3 -13 17.5459 21.3401   1
  -6   3  12 1449.13 193.003   1
   6  -3 -12 1301.23 155.768   1
  -6   3  11 143.900 62.3530   1
   6  -3 -11 87.5998 46.6106   1
  -6   3  10 2088.74 228.137   1
   6  -3 -10 2446.64 199.545   1
   6  -3  -9 1714.19 156.964   1
  -6   3   9 1394.73 169.547   1
   6  -3  -8 4245.48 271.511   1
  -6   3   7 586.666 85.3120   1
   6  -3  -7 574.485 77.2239   1
  -6   3   6 751.923 90.5285   1
   6  -3  -6 683.578 76.8456   1
   6  -3  -5 304.404 43.1980   1
  -6   3   5 192.910 39.2000   1
   6  -3  -4 2419.23 143.355   1
  -6   3   4 2426.87 152.376   1
  -6   3   3 3527.64 179.086   1
   6  -3  -3 3442.42 175.486   1
  -6   3   2 15392.7 635.156   1
   6   3   5 273.250 52.7314   1
   6   3   6 513.006 77.4522   1
  -6  -3  -7 2225.51 185.105   1
   6   3   7 2320.15 183.915   1
  -6  -3  -8 10229.2 542.915   1
   6   3   8 10200.0 543.680   1
   6   3   9 1286.61 145.704   1
  -6  -3  -9 1115.06 143.150   1
   6   3  10 3241.78 267.880   1
  -6  -3 -10 3013.25 251.791   1
  -6  -3 -11 203.040 59.7064   1
   6   3  11 168.826 71.1738   1
   6   3  12 105.146 47.0114   1
  -6  -3 -12 191.660 69.1037   1
  -6  -3 -13 338.111 82.6882   1
   6   3  13 241.790 84.8494   1
   6  -4 -14 568.362 113.014   1
  -6   4  14 490.787 131.044   1
  -6   4  13 825.260 161.543   1
   6  -4 -13 775.532 128.385   1
   6  -4 -12-2.34763 30.2974   1
  -6   4  12-18.5035 10.5654   1
  -6   4  11 5062.28 372.699   1
   6  -4 -11 5233.94 347.230   1
  -6   4  10 1487.96 169.054   1
   6  -4 -10 1244.85 140.059   1
   6  -4  -9 360.615 67.2342   1
  -6   4   9 303.570 73.6454   1
   6  -4  -8 5833.01 335.019   1
  -6   4   8 5624.19 351.858   1
   6  -4  -7 12561.8 605.031   1
  -6   4   7 13084.0 617.893   1
   6  -4  -6 1999.27 146.172   1
  -6   4   6 1827.31 147.776   1
  -6   4   5 9244.62 460.558   1
   6  -4  -5 10065.3 458.258   1
  -6   4   4 2896.19 170.346   1
  -6   4   3 17157.2 718.932   1
  -6   4   2 53.8036 14.3770   1
   6   4   7 8998.54 485.445   1
  -6  -4  -8 5118.39 334.119   1
   6   4   8 5087.50 328.161   1
  -6  -4  -9 288.587 57.3863   1
   6   4   9 337.434 64.5241   1
   6   4  10 779.314 124.142   1
  -6  -4 -10 830.883 122.162   1
  -6  -4 -11 3705.16 302.419   1
   6   4  12 287.441 67.3648   1
  -6  -4 -12 230.313 62.9061   1
   6  -5 -14 21.5078 23.8388   1
  -6   5  14 76.7973 60.7927   1
  -6   5  13 4422.09 377.476   1
   6  -5 -13 4616.97 347.916   1
   6  -5 -12 156.479 55.6482   1
  -6   5  12 131.046 61.9550   1
   6  -5 -11 162.902 46.3538   1
  -6   5  11 158.738 61.0937   1
   6  -5 -10 513.279 106.087   1
  -6   5  10 738.136 114.653   1
   6  -5  -9 332.955 64.8097   1
  -6   5   9 436.472 73.5704   1
   6  -5  -8 1359.99 132.834   1
  -6   5   8 1337.01 142.096   1
  -6   5   7 315.121 57.2704   1
   6  -5  -7 295.735 57.5717   1
  -6   5   6 434.316 63.8748   1
   6  -5  -6 410.773 60.2365   1
  -6   5   5 7091.50 355.608   1
  -6   5   4 16.1453 12.7213   1
  -6   5   3 2453.96 146.498   1
   6   5   9 589.121 97.6730   1
  -6  -5 -10 1585.33 146.630   1
   6   5  10 2207.66 153.603   1
   6   5  11 3986.06 310.587   1
  -6  -5 -11 3643.34 302.897   1
   6   5  12 38.6335 22.4771   1
  -6  -5 -12 56.4148 39.8711   1
   6  -6 -14 2014.10 248.768   1
   6  -6 -13 821.496 121.803   1
  -6   6  13 592.116 121.549   1
   6  -6 -12-47.7611 37.2853   1
  -6   6  12-9.26330 39.4906   1
  -6   6  11 461.201 96.2231   1
   6  -6 -11 355.521 76.8510   1
   6  -6 -10 1202.78 143.786   1
  -6   6  10 1259.97 152.534   1
  -6   6   9 164.166 52.7360   1
   6  -6  -9 103.611 29.5662   1
  -6   6   8 9627.12 499.097   1
   6  -6  -8 9097.41 487.926   1
  -6   6   7 2260.89 180.210   1
  -6   6   6 6956.07 369.564   1
  -6   6   5 1457.22 121.354   1
  -6   6   4 4073.13 228.068   1
  -6   7  13 1625.15 196.569   1
   6  -7 -13 1524.46 186.590   1
  -6   7  12 329.963 82.5163   1
   6  -7 -12 369.644 81.9423   1
   6  -7 -11 4608.12 319.963   1
  -6   7  11 3945.51 324.287   1
  -6   7  10 261.580 65.6706   1
   6  -7 -10 279.162 62.7743   1
  -6   7   9 3065.00 243.020   1
  -6   7   8 548.009 78.4411   1
  -6   7   7 1026.04 114.059   1
  -6   7   6 291.459 54.4157   1
   6  -8 -13 4.67522 33.2783   1
  -6   8  13-17.5205 26.6234   1
   6  -8 -12-1.74392 18.7919   1
  -6   8  12 11.9602 15.8643   1
  -6   8  11 2799.70 248.504   1
  -6   8  10 345.592 77.5055   1
  -6   8   9 8.47059 18.6990   1
  -6   8   8 7.14709 9.08024   1
  -6   9  12 3033.50 272.836   1
  -6   9  11-41.4460 47.1038   1
  -6   9  10 2107.34 205.880   1
   7   0   1 2.08121 3.38177   1
   7   0   3-4.57542 8.85328   1
   7   0   4 1353.19 108.936   1
  -7   0  -4 1219.52 100.934   1
  -7   0  -5 3.71998 12.5316   1
   7   0   5-28.9823 25.0800   1
  -7   0  -6 7288.74 388.155   1
   7   0   6 7735.91 401.153   1
  -7   0  -7 2.24746 9.90455   1
   7   0   7-1.62748 12.4628   1
  -7   0  -8 2646.67 204.250   1
   7   0   8 2595.92 229.477   1
  -7   0  -9 24.1978 21.8976   1
   7   0   9 4.97433 17.8813   1
   7   0  10 1768.49 199.980   1
  -7   0 -10 1752.36 176.874   1
  -7   0 -11-39.3060 32.7334   1
   7   0  11-20.6032 31.9018   1
   7   0  12 4638.13 398.253   1
  -7   0 -12 5016.53 364.768   1
   7   0  13-7.35533 34.4655   1
  -7   0 -13 13.5412 44.6629   1
   7  -1  -7 11120.4 552.395   1
   7  -1  -6 464.172 63.3243   1
   7  -1  -5 542.031 63.0203   1
   7  -1  -4 6561.44 319.177   1
   7  -1  -3 5405.09 259.623   1
   7  -1  -2 953.975 65.4968   1
   7   1   2 694.813 60.1852   1
   7  -1   2 626.413 54.9029   1
  -7   1  -3 7838.46 349.643   1
   7   1   3 8105.79 362.598   1
   7  -1   4 5780.63 311.984   1
  -7   1  -4 5816.98 290.156   1
   7  -1   5 31.1307 12.1439   1
   7   1   5 39.0165 21.7756   1
  -7   1  -5 28.4073 17.4822   1
  -7  -1  -5 31.9835 16.2949   1
   7  -1   6 2973.94 213.115   1
   7   1   6 2956.71 199.263   1
  -7  -1  -6 2533.99 190.632   1
  -7   1  -6 2472.67 183.418   1
   7  -1   7 9518.46 498.461   1
   7   1   7 8238.72 468.462   1
  -7  -1  -7 9181.56 463.698   1
  -7   1  -7 8489.44 454.027   1
   7   1   8 24.8188 22.7125   1
  -7  -1  -8 52.7749 14.1661   1
  -7   1  -8 39.4010 17.7474   1
   7  -1   8 62.1894 38.1733   1
  -7  -1  -9-19.0798 26.8325   1
   7   1   9 25.8307 30.9224   1
   7  -1   9 9.42862 35.4632   1
  -7   1  -9 35.1746 30.7155   1
  -7  -1 -10 497.609 90.2786   1
   7   1  10 599.987 107.494   1
   7  -1  10 374.343 93.4867   1
  -7   1 -10 495.849 79.4221   1
  -7  -1 -11 780.183 113.289   1
   7  -1  11 786.979 140.127   1
   7   1  11 630.935 124.048   1
  -7   1 -11 797.649 115.932   1
  -7  -1 -12 214.371 68.9479   1
   7  -1  12 371.889 99.1320   1
  -7   1 -12 246.171 72.6013   1
   7   1  12 186.298 74.8154   1
   7   1  13 147.532 64.5634   1
  -7  -1 -13 229.811 72.2230   1
  -7   1 -13 285.643 76.7202   1
   7  -2 -12 953.329 136.157   1
   7  -2 -11 593.304 95.4445   1
   7  -2 -10-8.33239 13.4993   1
   7  -2  -9 11516.2 591.835   1
   7  -2  -8 830.761 100.008   1
   7  -2  -7 72.2337 26.9871   1
   7  -2  -6 1609.78 127.921   1
   7  -2  -5 7203.26 350.508   1
   7  -2  -3 7207.13 322.041   1
  -7   2  -2 4565.20 210.635   1
  -7   2  -3 5219.46 251.599   1
   7   2   4 2339.20 157.558   1
  -7   2  -4 2142.56 137.795   1
  -7   2  -5 5020.40 263.225   1
   7   2   5 4362.05 276.381   1
  -7   2  -6 882.818 93.1145   1
  -7  -2  -6 905.277 102.553   1
   7   2   6 965.212 101.245   1
   7   2   7 510.536 84.2902   1
  -7   2  -7 476.242 74.4641   1
  -7  -2  -7 479.246 76.7118   1
  -7   2  -8 621.698 90.5518   1
   7   2   8 658.410 97.2978   1
  -7  -2  -8 604.585 92.3296   1
  -7   2  -9 7485.98 453.122   1
   7   2   9 8737.55 494.256   1
  -7  -2  -9 8252.56 468.280   1
  -7  -2 -10 78.5933 44.3747   1
  -7   2 -10 63.5641 33.5612   1
   7   2  10 71.6722 42.2126   1
  -7  -2 -11 787.469 123.158   1
   7   2  11 852.850 131.534   1
  -7   2 -11 861.073 122.526   1
  -7  -2 -12 14.0207 14.6944   1
  -7   2 -12 71.6673 35.9901   1
   7   2  12 90.4404 39.6113   1
  -7  -2 -13 3702.47 311.058   1
   7   2  13 3453.12 337.240   1
   7  -3 -14 1991.52 223.575   1
   7  -3 -13 104.475 41.4290   1
   7  -3 -12 1036.10 134.881   1
   7  -3 -11-33.7500 26.1297   1
   7  -3 -10 7166.15 411.066   1
  -7   3  10 6791.45 437.925   1
  -7   3   9 218.150 51.7242   1
   7  -3  -9 328.333 65.4048   1
  -7   3   8 2359.44 211.560   1
   7  -3  -8 2202.65 175.152   1
   7  -3  -7 22.5591 16.9700   1
  -7   3   7 38.2813 27.8269   1
  -7   3   6 780.308 102.651   1
   7  -3  -6 936.743 90.9406   1
  -7   3   5 233.265 49.7047   1
   7  -3  -5 243.940 40.0993   1
  -7   3   4 23706.6 991.713   1
   7  -3  -4 22862.2 961.682   1
  -7   3   3 1173.87 90.5028   1
   7  -3  -3 1299.86 79.9116   1
  -7   3  -3 93.0031 21.4135   1
  -7   3  -4 13148.0 591.478   1
  -7   3  -5 324.325 53.3225   1
  -7   3  -6 1696.04 147.070   1
   7   3   6 1928.73 161.463   1
   7   3   7 22.1716 24.5975   1
  -7   3  -7-12.1720 13.0960   1
  -7   3  -8 4722.12 314.106   1
  -7  -3  -8 4815.74 311.804   1
   7   3   8 4776.79 316.182   1
   7   3   9 234.990 60.5888   1
  -7  -3  -9 206.077 57.4977   1
   7   3  10 6165.75 401.484   1
  -7  -3 -10 5505.35 381.191   1
   7   3  11 239.770 74.3835   1
  -7  -3 -11 209.132 67.5267   1
  -7  -3 -12 636.243 119.915   1
   7   3  12 697.952 136.025   1
   7  -4 -14 39.6001 35.4851   1
  -7   4  14 20.6141 11.9157   1
   7  -4 -13 878.053 135.321   1
  -7   4  13 819.828 153.413   1
   7  -4 -12 662.394 130.167   1
  -7   4  12 552.038 120.125   1
  -7   4  11 109.297 47.9535   1
   7  -4 -11 73.8501 32.3592   1
   7  -4 -10 1.78158 15.6756   1
  -7   4  10-20.1551 41.0171   1
  -7   4   9 1833.48 179.731   1
   7  -4  -9 1651.44 153.718   1
  -7   4   8 891.337 115.980   1
   7  -4  -8 867.135 103.499   1
   7  -4  -7 210.693 45.9276   1
  -7   4   7 236.448 51.9682   1
   7  -4  -6 1599.12 125.343   1
  -7   4   6 1419.51 131.568   1
   7  -4  -5 2509.05 159.068   1
  -7   4   5 2520.82 166.059   1
  -7   4   4 995.458 83.0053   1
  -7   4   3 3086.86 164.194   1
  -7   4   2 1845.72 101.224   1
   7   4   7 1395.95 146.177   1
   7   4   8 485.541 86.6515   1
  -7  -4  -9 1234.47 148.857   1
   7   4   9 1399.94 153.040   1
   7   4  10 150.624 38.0987   1
  -7  -4 -10 200.469 58.9153   1
   7   4  11 407.043 83.9597   1
  -7  -4 -11 485.340 97.6652   1
   7   4  12 878.798 134.470   1
  -7  -4 -12 771.164 127.091   1
   7  -5 -14 21.9552 27.3911   1
  -7   5  14-26.3135 30.7808   1
   7  -5 -13 242.874 70.6103   1
  -7   5  13 202.557 67.9206   1
   7  -5 -12-27.9682 29.2180   1
  -7   5  12 70.5125 31.1749   1
  -7   5  11 1807.08 198.939   1
   7  -5 -11 1787.98 175.012   1
   7  -5 -10 1731.27 165.302   1
  -7   5  10 1431.93 176.022   1
   7  -5  -9 469.356 78.6617   1
  -7   5   9 504.605 86.0858   1
  -7   5   8 11.7070 22.4137   1
   7  -5  -8 13.0346 16.2948   1
   7  -5  -7 8152.42 419.730   1
  -7   5   7 8090.00 428.914   1
   7  -5  -6-7.84298 9.26762   1
  -7   5   6-0.84631 3.37260   1
  -7   5   5 398.914 55.1807   1
  -7   5   4 995.083 84.7139   1
  -7   5   3 1382.54 96.0395   1
  -7   5   2 553.034 50.4081   1
   7   5  10 378.686 69.2392   1
   7   5  11 2836.54 260.811   1
  -7  -5 -11 2853.85 253.065   1
   7   5  12-27.7601 46.7647   1
  -7  -5 -12 21.2703 32.3398   1
   7  -6 -14 335.501 85.6756   1
  -7   6  13 237.123 80.3799   1
   7  -6 -13 243.643 67.1646   1
   7  -6 -12 4018.27 299.066   1
  -7   6  12 3299.83 311.954   1
  -7   6  11 194.166 61.2880   1
   7  -6 -11 200.301 60.8847   1
  -7   6  10 528.381 94.5629   1
   7  -6 -10 539.842 92.2037   1
  -7   6   9 346.463 69.4958   1
   7  -6  -9 345.368 64.3121   1
  -7   6   8 1497.26 155.173   1
   7  -6  -8 1692.61 149.289   1
  -7   6   7 17.9185 14.3345   1
  -7   6   6 6686.89 357.015   1
  -7   6   5 185.990 37.3024   1
  -7   6   4 3645.13 208.575   1
  -7   7  13 259.795 80.7796   1
   7  -7 -13 291.170 77.1932   1
  -7   7  12 23.3171 30.2919   1
   7  -7 -12 20.9061 30.7007   1
  -7   7  11 1077.64 141.161   1
   7  -7 -11 1053.88 133.661   1
  -7   7  10 2262.98 212.302   1
   7  -7 -10 2485.27 212.066   1
  -7   7   9 89.8767 41.3783   1
  -7   7   8 1846.81 168.336   1
  -7   7   7 10544.9 528.321   1
  -7   7   6 878.201 98.2451   1
  -7   7   5 170.843 37.2776   1
  -7   8  13 1029.37 151.099   1
   7  -8 -13 1031.02 150.609   1
   7  -8 -12 280.229 69.4653   1
  -7   8  12 354.296 82.6627   1
  -7   8  11 51.0822 12.3026   1
  -7   8  10 182.988 59.1810   1
  -7   8   9 4511.09 312.891   1
  -7   8   8-12.4126 23.4794   1
  -7   8   7 106.262 33.9991   1
  -7   9  12 329.406 88.0540   1
  -7   9  11 8.31160 19.4751   1
  -7   9  10 1366.26 163.171   1
   8   0   1-0.55597 2.92656   1
   8   0   2 396.227 41.5883   1
   8   0   3 2.47378 11.3664   1
   8   0   4 8214.93 392.339   1
  -8   0  -4 7629.24 378.876   1
  -8   0  -5 2.48142 7.10587   1
   8   0   5-19.3552 21.3685   1
  -8   0  -6 4258.70 264.190   1
   8   0   6 4641.53 277.285   1
  -8   0  -7 1.40480 7.13681   1
   8   0   7 4.92757 7.95592   1
  -8   0  -8 1811.35 163.011   1
   8   0   8 1734.45 182.814   1
  -8   0  -9-0.59210 15.1478   1
   8   0   9-10.8406 5.42079   1
   8   0  10 11775.1 667.953   1
  -8   0 -10 11842.6 617.550   1
  -8   0 -11 5.82424 9.46290   1
   8   0  11 2.95408 16.3135   1
  -8   0 -12 954.487 132.636   1
   8   0  12 767.041 147.924   1
   8   0  13 1.47407 47.4188   1
  -8   0 -13-31.7501 47.5315   1
   8  -1  -6 75.2043 24.5472   1
   8  -1  -5 6009.38 309.996   1
   8  -1  -4 8383.40 389.077   1
   8  -1  -3 830.116 64.9798   1
   8  -1  -2 4209.54 197.646   1
   8   1   2 7921.63 356.952   1
   8  -1   2 7416.59 344.514   1
  -8   1  -3 2416.03 138.341   1
   8  -1   3 2095.63 147.079   1
   8  -1   4 7023.02 370.802   1
  -8   1  -4 7432.56 355.401   1
   8   1   4 7357.65 363.968   1
   8   1   5 4220.47 257.539   1
   8  -1   5 4418.54 265.865   1
  -8   1  -5 4469.27 247.945   1
   8  -1   6 3588.93 247.230   1
   8   1   6 3831.35 239.154   1
  -8  -1  -6 3540.04 229.526   1
  -8   1  -6 3378.66 220.303   1
   8  -1   7 3782.42 262.151   1
   8   1   7 3169.52 243.001   1
  -8  -1  -7 3457.05 238.070   1
  -8   1  -7 3400.73 229.905   1
   8   1   8 78.4504 22.6975   1
  -8  -1  -8 115.649 40.4795   1
  -8   1  -8 132.174 41.6354   1
   8  -1   8 82.6900 29.8529   1
   8  -1   9 5927.36 409.828   1
  -8  -1  -9 5728.28 358.632   1
  -8   1  -9 5008.55 343.868   1
   8   1   9 5972.04 371.584   1
  -8  -1 -10 93.4557 41.0877   1
   8  -1  10 60.3167 44.3782   1
   8   1  10 153.490 54.5898   1
  -8   1 -10 76.5867 37.6266   1
  -8  -1 -11 69.4438 31.1503   1
   8  -1  11 73.3518 53.5804   1
  -8   1 -11 33.3077 30.9595   1
   8   1  11 7.22295 15.8058   1
  -8  -1 -12-8.52954 29.0643   1
   8  -1  12-7.06595 20.2461   1
  -8   1 -12 14.1139 23.6332   1
   8   1  12-24.7218 17.9398   1
   8   1  13 18.5117 46.4141   1
  -8  -1 -13-3.77804 21.7002   1
  -8   1 -13-20.5199 8.98383   1
   8  -2 -11 2867.45 239.323   1
   8  -2 -10 542.865 89.4567   1
   8  -2  -9 43.2944 31.4737   1
   8  -2  -8 1786.33 157.286   1
   8  -2  -7 26665.1 1153.17   1
   8  -2  -6 90.8995 26.4141   1
   8  -2  -5 866.171 76.7966   1
   8  -2  -4 6013.35 284.254   1
   8  -2  -3 413.952 38.7397   1
  -8   2  -2 3910.85 185.990   1
  -8   2  -3 1362.22 91.3037   1
   8   2   4 7947.19 395.616   1
  -8   2  -4 7861.13 374.299   1
   8   2   5 140.756 34.1779   1
  -8   2  -5 172.811 35.0724   1
  -8   2  -6 2227.34 158.068   1
   8   2   6 2169.07 172.566   1
   8   2   7 13040.3 660.703   1
  -8  -2  -7 13476.7 654.822   1
  -8   2  -7 13623.4 635.238   1
   8   2   8 1787.25 168.828   1
  -8  -2  -8 1796.18 164.554   1
  -8   2  -8 1690.13 154.180   1
   8   2   9 473.779 87.7227   1
  -8  -2  -9 602.557 101.919   1
  -8   2  -9 558.249 85.0764   1
  -8   2 -10 718.646 103.265   1
   8   2  10 770.294 123.753   1
  -8  -2 -10 675.200 107.857   1
  -8  -2 -11 5200.17 364.415   1
   8   2  11 5719.65 389.154   1
  -8   2 -11 4945.88 346.901   1
  -8  -2 -12 127.172 49.3450   1
   8   2  12 89.0207 45.6553   1
  -8   2 -12 62.4181 39.7841   1
  -8  -2 -13 1912.44 217.040   1
  -8   2 -13 1867.92 198.262   1
   8  -3 -14 101.887 49.6579   1
   8  -3 -13 51.7372 37.2290   1
   8  -3 -12 4844.33 344.656   1
   8  -3 -11 124.706 35.6191   1
   8  -3 -10 1153.63 132.706   1
   8  -3  -9 1340.75 137.140   1
   8  -3  -8 2421.72 186.994   1
   8  -3  -7 1939.07 151.114   1
   8  -3  -6 23257.0 993.930   1
   8  -3  -5 415.918 49.6061   1
   8  -3  -4 3194.10 169.398   1
  -8   3  -2 2620.44 132.437   1
  -8   3  -4 5327.55 273.412   1
  -8   3  -5 2227.37 156.926   1
  -8   3  -6 25288.8 1091.06   1
   8   3   6 25122.2 1124.60   1
  -8   3  -7 3264.16 222.290   1
   8   3   7 3248.72 236.460   1
   8   3   8 398.209 77.5369   1
  -8   3  -8 370.393 65.7090   1
  -8  -3  -8 370.864 71.4588   1
   8   3   9 1426.11 159.093   1
  -8   3  -9 1189.24 140.969   1
  -8  -3  -9 1497.98 153.797   1
   8   3  10 666.012 113.140   1
  -8  -3 -10 815.202 111.882   1
   8   3  11 70.8186 40.5760   1
  -8  -3 -11 112.807 35.3655   1
   8   3  12 6181.10 448.583   1
   8  -4 -14 348.846 81.1046   1
   8  -4 -13-38.6848 40.5827   1
   8  -4 -12 34.8004 23.6089   1
  -8   4  11 153.321 47.8509   1
   8  -4 -11 133.780 50.1118   1
  -8   4  10 1814.82 190.492   1
   8  -4 -10 1761.48 165.635   1
   8  -4  -9 1307.90 132.322   1
  -8   4   9 951.190 134.817   1
  -8   4   8 86.2429 38.3428   1
   8  -4  -8 113.276 39.6940   1
  -8   4   7 1956.59 171.621   1
   8  -4  -7 2228.06 159.734   1
   8  -4  -6 24.9152 13.4355   1
  -8   4   6 30.9536 17.2526   1
  -8   4   5 7621.02 385.227   1
   8  -4  -5 7802.50 367.344   1
  -8   4   4 2181.68 147.181   1
  -8   4   3 828.496 66.2645   1
  -8   4  -2 1449.82 93.8007   1
  -8   4  -3 3155.41 176.271   1
   8   4   8 194.629 57.2678   1
   8   4   9 34.0052 16.0014   1
   8   4  10 1616.23 184.851   1
  -8  -4 -10 1764.08 180.256   1
   8   4  11 19.7049 4.11594   1
  -8  -4 -11-12.7284 19.4941   1
   8   4  12-2.07089 26.9916   1
  -8  -4 -12 95.9958 54.1847   1
   8  -5 -14 83.0582 51.8928   1
  -8   5  14 49.6720 49.0475   1
   8  -5 -13 5.04838 27.0764   1
  -8   5  13 59.9523 45.4056   1
  -8   5  12 627.739 127.883   1
   8  -5 -12 541.652 91.5406   1
   8  -5 -11 49.3757 44.8486   1
  -8   5  11 203.850 73.2732   1
   8  -5 -10 78.6078 26.2148   1
  -8   5  10 111.481 45.6162   1
  -8   5   9 10559.6 582.989   1
   8  -5  -9 11100.2 560.786   1
  -8   5   8 115.487 43.7002   1
   8  -5  -8 141.689 36.8228   1
  -8   5   7 936.828 107.029   1
   8  -5  -7 870.613 93.6051   1
   8  -5  -6 1673.51 129.657   1
  -8   5   6 1752.17 136.483   1
  -8   5   5 3113.05 189.620   1
  -8   5   4 714.988 71.6025   1
  -8   5   3 5186.24 249.572   1
  -8   5   2 43.4164 13.5680   1
   8   5  10 59.9418 37.8440   1
   8   5  11 32.1511 43.6822   1
   8  -6 -14 1435.34 179.797   1
   8  -6 -13 874.081 126.569   1
  -8   6  13 815.614 145.857   1
  -8   6  12 1663.71 200.019   1
   8  -6 -12 1417.84 169.801   1
  -8   6  11 2.79053 29.6349   1
   8  -6 -11 48.9094 44.7648   1
   8  -6 -10 5011.82 327.002   1
  -8   6  10 4806.90 343.099   1
  -8   6   9 313.496 65.7603   1
   8  -6  -9 231.799 53.6227   1
  -8   6   8 426.567 74.2030   1
   8  -6  -8 460.826 69.2584   1
  -8   6   7 789.314 95.7034   1
  -8   6   6 15.1522 6.21196   1
  -8   6   5 232.599 44.9385   1
  -8   6   4 22898.9 963.629   1
  -8   6   3 3217.83 179.438   1
  -8   7  13 15.2237 24.6803   1
   8  -7 -13 36.2422 15.7667   1
  -8   7  12 1444.05 194.937   1
   8  -7 -12 2053.84 192.361   1
  -8   7  11 684.029 110.842   1
   8  -7 -11 617.875 98.2994   1
  -8   7  10 468.020 87.2257   1
   8  -7 -10 502.806 83.9314   1
  -8   7   9 2588.10 221.984   1
  -8   7   8 3095.88 226.456   1
  -8   7   7 241.217 52.0472   1
  -8   7   6 8988.24 450.600   1
  -8   7   5 3842.85 228.753   1
  -8   7   4 94.2863 23.3309   1
  -8   8  13 1378.10 190.562   1
   8  -8 -13 1366.98 168.418   1
  -8   8  12 214.809 61.4779   1
  -8   8  11 1381.44 171.624   1
  -8   8  10 2361.74 221.332   1
  -8   8   9 0.62739 29.3971   1
  -8   8   8 282.399 64.6682   1
  -8   8   7 8703.36 454.991   1
  -8   8   6 1432.73 133.640   1
  -8   9  13 193.440 99.6769   1
  -8   9  12 306.266 94.2499   1
  -8   9  11 26.2100 34.9769   1
  -8   9  10 145.549 48.6824   1
  -8   9   9 43.7775 21.8411   1
   9   0   1-0.71143 1.60159   1
   9   0   3-0.75630 8.89709   1
   9   0   4 3732.83 220.856   1
   9   0   5-6.47422 14.9980   1
  -9   0  -5-18.3761 16.0183   1
  -9   0  -6 11461.6 566.058   1
   9   0   6 12148.1 576.277   1
  -9   0  -7-11.4868 13.1957   1
   9   0   7 4.53672 11.9416   1
  -9   0  -8 12.3543 2.47920   1
   9   0   8-7.91312 10.4547   1
  -9   0  -9 21.8569 10.8628   1
   9   0   9 42.9503 52.4600   1
   9   0  10 1511.97 181.312   1
  -9   0 -10 1514.67 157.872   1
  -9   0 -11-24.1826 21.6845   1
   9   0  11 32.9407 41.7840   1
   9   0  12 4414.20 380.412   1
  -9   0 -12 4646.82 337.305   1
  -9   0 -13-0.92254 17.4837   1
   9   0  13 61.9524 71.0827   1
   9  -1  -5 134.120 31.5148   1
   9  -1  -4 2252.86 141.616   1
   9  -1  -3 4199.27 205.761   1
   9   1   2 116.521 23.6838   1
   9  -1   2 137.502 24.2621   1
   9  -1   3 3613.05 208.791   1
   9   1   3 3940.82 215.162   1
   9  -1   4 4599.38 247.225   1
  -9   1  -4 3902.86 218.156   1
   9   1   4 3893.90 229.939   1
   9  -1   5 22.3998 12.3602   1
   9   1   5-7.26208 6.93616   1
  -9   1  -5-3.98365 16.4985   1
  -9   1  -6 367.177 58.1805   1
   9  -1   6 348.837 62.2580   1
   9   1   6 308.794 57.7267   1
  -9  -1  -6 263.163 51.5818   1
   9  -1   7 7683.52 436.225   1
   9   1   7 6726.79 414.694   1
  -9  -1  -7 7974.10 409.684   1
  -9   1  -7 7340.92 398.429   1
   9   1   8 46.7102 33.3638   1
  -9   1  -8 25.2514 17.7430   1
  -9  -1  -8 42.1271 26.2962   1
   9  -1   8 67.2207 44.3051   1
   9   1   9 94.5221 40.7343   1
   9  -1   9 45.4316 37.7585   1
  -9   1  -9 73.3904 29.3499   1
  -9  -1  -9 54.3475 27.8591   1
  -9  -1 -10 653.861 106.781   1
  -9   1 -10 592.335 88.7487   1
   9   1  10 611.220 108.714   1
   9  -1  10 494.855 115.269   1
  -9  -1 -11 860.568 124.934   1
  -9   1 -11 935.041 118.251   1
   9  -1  11 800.119 142.126   1
   9   1  11 787.683 132.844   1
   9  -1  12 337.751 88.6315   1
  -9  -1 -12 391.571 86.2236   1
  -9   1 -12 372.160 88.4827   1
   9   1  12 284.223 77.7109   1
  -9  -1 -13 539.270 105.473   1
   9   1  13 303.096 105.058   1
  -9   1 -13 445.966 96.8571   1
   9  -2 -10 355.947 68.9183   1
   9  -2  -9 5446.74 331.783   1
   9  -2  -8 46.9764 25.6949   1
   9  -2  -7 493.613 70.2624   1
   9  -2  -6 163.010 36.7847   1
   9  -2  -5 4314.61 233.048   1
   9  -2  -3 2494.50 124.201   1
  -9   2  -3 2169.59 128.037   1
  -9   2  -4 3328.33 187.411   1
  -9   2  -5 2569.81 165.978   1
   9   2   5 2534.02 182.009   1
  -9   2  -6 2423.52 172.704   1
   9   2   6 2449.64 186.905   1
   9   2   7 281.527 62.1854   1
  -9   2  -7 238.388 49.7802   1
   9   2   8 490.623 84.3862   1
  -9   2  -8 337.756 68.0798   1
  -9  -2  -8 442.864 75.8897   1
   9   2   9 6762.77 441.192   1
  -9   2  -9 7044.56 413.750   1
  -9  -2  -9 7707.08 433.176   1
   9   2  10 214.378 60.5062   1
  -9   2 -10 210.912 56.6770   1
  -9  -2 -10 281.016 68.2097   1
   9   2  11-12.3148 32.8339   1
  -9   2 -11 6.66075 12.2612   1
  -9  -2 -11 12.5167 32.9812   1
   9   2  12 423.440 100.255   1
  -9   2 -12 420.073 92.1356   1
  -9  -2 -12 334.540 73.3333   1
  -9   2 -13 178.622 62.0156   1
   9  -3 -13 198.072 64.3354   1
   9  -3 -12 185.531 52.3450   1
   9  -3 -11-8.11238 17.2969   1
   9  -3 -10 4306.54 291.987   1
   9  -3  -9 53.0102 27.0767   1
   9  -3  -8 850.000 97.4230   1
   9  -3  -7 117.958 38.1364   1
   9  -3  -6 198.552 35.4108   1
   9  -3  -5 647.928 62.8355   1
   9  -3  -4 15942.4 672.811   1
  -9   3  -2 1021.09 65.6892   1
  -9   3  -3 1138.69 80.8500   1
  -9   3  -4 8785.48 407.733   1
  -9   3  -5 7.49059 5.51437   1
   9   3   6 298.616 58.0654   1
  -9   3  -6 287.686 52.2825   1
  -9   3  -7 230.276 46.5967   1
   9   3   7 171.612 43.2270   1
  -9   3  -8 579.960 83.4208   1
   9   3   8 648.929 99.6807   1
  -9   3  -9 774.206 103.548   1
   9   3   9 719.360 113.399   1
   9   3  10 6255.63 394.119   1
  -9  -3 -10 5611.07 367.333   1
  -9   3 -10 5084.41 351.601   1
  -9  -3 -11 102.528 32.6881   1
   9   3  11 133.429 60.0697   1
   9   3  12 409.400 102.558   1
  -9  -3 -12 431.794 96.1385   1
   9  -4 -14 73.9132 42.6189   1
   9  -4 -13 1182.22 159.882   1
   9  -4 -12 583.288 101.833   1
   9  -4 -11 10.1374 9.66304   1
   9  -4 -10 632.746 93.4602   1
   9  -4  -9 643.106 99.8532   1
   9  -4  -8 721.103 87.2525   1
   9  -4  -7 117.188 31.6350   1
   9  -4  -6 1554.94 120.458   1
   9  -4  -5 3586.93 195.205   1
  -9   4  -2 3138.18 155.111   1
  -9   4  -3 3011.91 162.656   1
  -9   4  -4 2652.96 162.069   1
  -9   4  -5 2646.30 175.542   1
  -9   4  -6 2317.04 172.408   1
  -9   4  -7 674.087 86.9874   1
   9   4   8 477.899 86.4226   1
   9   4   9 4198.59 305.683   1
   9   4  10 190.344 52.6755   1
   9   4  11 242.189 71.8193   1
   9   4  12 801.328 141.291   1
  -9  -4 -12 1058.88 157.346   1
   9  -5 -14 287.465 81.5683   1
   9  -5 -13 1480.35 169.326   1
   9  -5 -12-38.7141 34.7252   1
  -9   5  12 20.2096 22.2799   1
  -9   5  11 2238.77 233.988   1
   9  -5 -11 2498.20 209.861   1
   9  -5 -10 910.190 112.660   1
  -9   5  10 556.575 102.229   1
   9  -5  -9 54.7433 25.3489   1
  -9   5   9 62.9916 29.1142   1
  -9   5   8 135.087 43.4888   1
   9  -5  -8 160.905 38.2383   1
  -9   5   7 11237.8 568.880   1
   9  -5  -7 11525.6 541.332   1
  -9   5   6 149.397 36.5954   1
  -9   5   5 716.284 79.4697   1
  -9   5   4 1714.39 118.098   1
  -9   5   3 1272.30 83.2981   1
  -9   5   2 870.125 57.8017   1
   9   5  11 2529.68 251.787   1
   9  -6 -14 118.496 39.6831   1
  -9   6  14 38.8898 35.7082   1
   9  -6 -13 70.3299 39.4060   1
  -9   6  13 57.4864 30.7197   1
  -9   6  12 597.948 122.055   1
   9  -6 -12 259.434 17.7435   1
  -9   6  11 56.7032 40.3149   1
   9  -6 -11 55.3960 31.1466   1
  -9   6  10 1143.51 147.284   1
   9  -6 -10 1094.41 129.343   1
   9  -6  -9 108.832 37.4402   1
  -9   6   9 111.037 31.0982   1
   9  -6  -8 1658.47 145.217   1
  -9   6   8 1506.99 153.580   1
  -9   6   7 49.3248 22.1965   1
  -9   6   6 3090.82 197.530   1
  -9   6   5 36.3173 19.2787   1
  -9   6   4 3158.54 185.533   1
  -9   6   3 373.841 40.7310   1
  -9   6   2 8573.34 376.175   1
   9  -7 -14 168.927 67.0777   1
  -9   7  13 18.1966 50.4052   1
   9  -7 -13 31.7187 21.7191   1
  -9   7  12 74.8024 41.6067   1
   9  -7 -12 100.879 41.6450   1
  -9   7  11 322.238 85.6765   1
   9  -7 -11 429.083 78.6601   1
   9  -7 -10 2163.75 185.060   1
  -9   7  10 1858.42 191.780   1
  -9   7   9 178.958 43.5291   1
  -9   7   8 1133.96 124.370   1
  -9   7   7 1788.43 156.750   1
  -9   7   6 101.947 25.1872   1
  -9   7   5 214.043 40.9709   1
  -9   7   4 2996.31 178.630   1
   9  -8 -13 700.643 117.701   1
  -9   8  13 629.026 130.514   1
  -9   8  12 379.109 91.2470   1
  -9   8  11 234.902 71.8364   1
  -9   8  10 110.097 26.4602   1
  -9   8   9 2117.67 192.069   1
  -9   8   8 627.170 71.8698   1
  -9   8   7 38.2912 8.86280   1
  -9   8   6 1108.74 106.649   1
  -9   8   5 5130.06 290.712   1
  -9   9  12 417.471 94.7047   1
  -9   9  11 292.173 78.6049   1
  -9   9  10 1490.97 168.322   1
  -9   9   9-45.1816 35.4934   1
  -9   9   8 137.296 41.4948   1
  10   0   1-4.05209 3.85938   1
  10   0   2 408.695 49.5943   1
  10   0   3-3.53343 7.05506   1
  10   0   4 5429.43 295.117   1
  10   0   5-12.7437 17.5574   1
 -10   0  -6 9824.84 489.961   1
  10   0   6 10056.5 504.801   1
  10   0   7 15.8894 23.7296   1
 -10   0  -7 5.20188 20.5013   1
 -10   0  -8 1654.55 160.546   1
  10   0   8 1805.02 179.474   1
 -10   0  -9 20.9173 18.3439   1
  10   0   9 31.3462 29.5587   1
 -10   0 -10 786.022 107.771   1
  10   0  10 546.681 109.810   1
 -10   0 -11 37.1169 19.1101   1
  10   0  11 29.9633 41.0672   1
 -10   0 -12 366.870 82.1637   1
  10   0  12 405.370 108.711   1
 -10   0 -13 11.9928 32.4747   1
  10   0  13 327.129 140.602   1
  10  -1  -4 50.1725 17.5694   1
  10  -1  -3 5679.71 261.944   1
  10   1   2 84.4456 18.0374   1
  10  -1   2 82.8953 19.0012   1
  10  -1   3 2935.35 164.699   1
  10   1   3 2198.92 157.051   1
  10  -1   4 558.221 72.5092   1
  10   1   4 510.069 65.5435   1
  10  -1   5 3591.79 225.357   1
  10   1   5 3288.40 216.268   1
 -10   1  -5 3366.44 204.199   1
  10  -1   6 1574.33 150.093   1
  10   1   6 1600.19 143.289   1
 -10   1  -6 1378.41 125.328   1
 -10   1  -7 331.450 60.5107   1
 -10  -1  -7 299.275 58.4428   1
  10  -1   7 324.892 64.5722   1
  10   1   7 245.765 56.6198   1
  10  -1   8 1189.98 154.989   1
  10   1   8 1218.79 134.700   1
 -10   1  -8 1123.50 124.353   1
 -10  -1  -8 1150.96 128.660   1
  10  -1   9 2698.35 274.843   1
 -10  -1  -9 2967.28 238.119   1
 -10   1  -9 3270.33 241.431   1
  10   1   9 3407.74 260.052   1
  10  -1  10 460.619 114.983   1
 -10   1 -10 492.128 89.3263   1
  10   1  10 647.399 111.719   1
 -10  -1 -10 453.847 86.4482   1
  10  -1  11 896.327 149.132   1
 -10   1 -11 918.288 121.681   1
  10   1  11 780.370 140.735   1
 -10  -1 -11 706.284 108.272   1
  10   1  12 1289.36 189.014   1
 -10  -1 -12 1250.10 158.904   1
 -10   1 -12 1214.07 148.306   1
 -10   1 -13 2354.69 234.572   1
  10  -2  -9 61.4620 25.7832   1
  10  -2  -8 2271.22 172.859   1
  10  -2  -7 687.892 86.3593   1
  10  -2  -6 386.972 56.5019   1
  10  -2  -5 271.430 38.9327   1
  10  -2  -4 422.210 43.7664   1
  10  -2  -3 6800.24 290.184   1
  10   2   4 111.315 33.9808   1
 -10   2  -4 106.747 25.1316   1
 -10   2  -5-4.04483 8.47784   1
  10   2   5 46.6618 23.9760   1
  10   2   6 68.5721 24.3454   1
 -10   2  -6 39.5726 13.2114   1
  10   2   7 1621.79 156.618   1
 -10   2  -7 1483.23 133.079   1
  10   2   8 2580.64 208.412   1
 -10   2  -8 2388.11 185.793   1
 -10   2  -9 133.932 49.5968   1
 -10  -2  -9 162.709 54.4320   1
  10   2   9 76.7971 36.3651   1
  10   2  10 872.142 132.660   1
 -10   2 -10 871.045 118.699   1
 -10  -2 -10 815.083 115.471   1
  10   2  11 308.656 80.3802   1
 -10   2 -11 310.234 70.4008   1
 -10  -2 -11 312.185 75.5128   1
  10   2  12-34.0320 24.6222   1
 -10  -2 -12-13.4409 9.20952   1
 -10   2 -13 219.218 68.3236   1
  10  -3 -12 136.546 51.9048   1
  10  -3 -11 130.576 45.4605   1
  10  -3 -10 1170.59 134.388   1
  10  -3  -9 255.724 52.2788   1
  10  -3  -8 2426.61 182.060   1
  10  -3  -7 373.856 54.8622   1
  10  -3  -6 238.501 39.5996   1
  10  -3  -5 235.862 35.2514   1
 -10   3  -3 363.882 39.6593   1
 -10   3  -4 836.261 74.8268   1
 -10   3  -5 53.7935 20.4950   1
 -10   3  -6 612.240 76.2555   1
  10   3   6 724.515 98.4677   1
 -10   3  -7 847.649 101.129   1
  10   3   7 1004.62 111.316   1
  10   3   8 3395.40 252.639   1
 -10   3  -8 3275.75 228.347   1
  10   3   9 918.918 124.588   1
 -10   3  -9 1014.94 117.480   1
  10   3  10 350.307 80.5672   1
 -10   3 -10 226.984 59.9178   1
 -10  -3 -11 37.8081 37.8244   1
 -10   3 -11 2.16069 13.2408   1
  10   3  11-14.9156 27.4146   1
  10   3  12 435.154 102.132   1
 -10  -3 -12 495.911 99.8678   1
  10  -4 -14 383.479 87.2559   1
  10  -4 -13 346.817 80.1583   1
  10  -4 -12 113.885 45.1796   1
  10  -4 -11 2917.47 236.716   1
  10  -4 -10 635.542 92.5782   1
  10  -4  -9 485.802 78.5118   1
  10  -4  -8 3644.71 235.080   1
  10  -4  -7 6084.00 321.227   1
  10  -4  -6 805.521 78.8878   1
 -10   4  -2-8.15380 2.46802   1
 -10   4  -3 3893.75 196.837   1
 -10   4  -4 2162.98 137.506   1
 -10   4  -5 3207.60 194.916   1
 -10   4  -6 786.644 89.0028   1
 -10   4  -7 4260.91 267.947   1
 -10   4  -8 2550.78 200.955   1
  10   4   9 76.4802 37.2867   1
  10   4  10 626.085 102.677   1
  10   4  11 2371.15 235.854   1
  10  -5 -14 3.54345 41.5082   1
  10  -5 -13 2945.53 256.620   1
  10  -5 -12 68.5189 42.3931   1
  10  -5 -11 1057.68 135.362   1
  10  -5 -10 968.388 117.954   1
  10  -5  -9 738.494 95.8082   1
  10  -5  -8 663.407 90.1747   1
 -10   5   7-28.0635 30.1995   1
  10  -5  -7 25.2585 10.4732   1
 -10   5  -2 4380.35 205.214   1
 -10   5  -3 1589.10 107.114   1
 -10   5  -4 53.0090 18.1217   1
  10  -6 -14 1147.55 159.184   1
  10  -6 -13 555.193 108.586   1
 -10   6  12-110.490 34.8656   1
  10  -6 -12 20.5523 13.1787   1
 -10   6  11 10.3100 37.9085   1
  10  -6 -11 30.0060 26.9007   1
 -10   6  10 172.678 54.6722   1
  10  -6 -10 172.589 45.5360   1
 -10   6   9 36.5235 30.5385   1
  10  -6  -9 138.916 38.6938   1
 -10   6   8 4202.50 277.926   1
 -10   6   7 788.636 93.7010   1
 -10   6   6 3558.53 225.759   1
 -10   6   5 190.622 40.4087   1
 -10   6   4 2268.20 138.779   1
 -10   6   3 407.534 40.3521   1
 -10   6   2 775.577 52.1013   1
  10  -7 -14 157.485 60.0909   1
  10  -7 -13 1052.10 142.754   1
  10  -7 -12 50.6388 31.0653   1
  10  -7 -11 2097.88 189.480   1
 -10   7  10 286.704 69.7315   1
 -10   7   9 408.447 87.8904   1
 -10   7   8 152.581 42.6097   1
 -10   7   7 575.598 77.6657   1
 -10   7   6 8.49853 10.9461   1
 -10   7   5 363.221 53.3852   1
 -10   7   4 72.5738 19.0044   1
 -10   7   3 1458.14 96.9339   1
 -10   8   8-8.98082 3.66402   1
 -10   8   7 1894.67 163.592   1
 -10   8   6 1354.30 119.885   1
 -10   8   5 230.138 41.6206   1
 -10   8   4 43.7985 17.9143   1
  11   0   1 2.01712 7.71174   1
  11   0   2 30853.8 1263.49   1
  11   0   3-3.17626 8.60027   1
  11   0   4 4068.45 235.919   1
  11   0   5-1.16634 14.5120   1
  11   0   6 160.518 38.4893   1
  11   0   7-8.25040 7.71883   1
 -11   0  -7-5.24737 13.6899   1
  11   0   8 5848.94 393.892   1
 -11   0  -8 6484.47 368.005   1
  11   0   9 8.79875 25.9879   1
 -11   0  -9-13.1137 10.3463   1
  11   0  10 1057.08 143.481   1
 -11   0 -10 766.774 114.344   1
 -11   0 -11 4.60242 25.1760   1
  11   0  11 34.9789 23.1644   1
  11   0  12 11.7169 53.5011   1
 -11   0 -12-7.61347 23.3206   1
  11  -1  -4 2594.12 154.374   1
  11  -1  -3 7985.38 350.240   1
  11  -1   2 288.696 34.8232   1
  11   1   2 228.463 34.9858   1
  11  -1   3 7728.68 368.887   1
  11   1   4 4.07818 2.71835   1
  11  -1   4 10.5152 8.05681   1
  11   1   5 4338.67 259.203   1
  11  -1   5 4252.34 265.740   1
  11   1   6 366.984 66.4478   1
  11  -1   6 362.172 69.8802   1
 -11   1  -6 423.380 62.4107   1
  11  -1   7 2301.36 212.843   1
  11   1   7 2415.86 198.123   1
 -11   1  -7 2507.61 183.443   1
  11  -1   8 2216.51 216.195   1
 -11   1  -8 2022.22 171.618   1
  11   1   8 2300.49 198.992   1
 -11   1  -9 2.35346 15.2922   1
  11   1   9 25.2392 22.2261   1
 -11  -1  -9 3.74490 15.1746   1
 -11   1 -10 1504.60 153.391   1
  11  -1  10 1561.95 192.315   1
  11   1  10 1351.68 174.265   1
 -11  -1 -10 1452.21 156.626   1
 -11   1 -11 1934.53 183.847   1
  11  -1  11 1863.68 220.146   1
  11   1  11 1735.92 210.110   1
 -11  -1 -11 1694.90 186.319   1
  11   1  12 19.1549 22.5730   1
 -11   1 -12 32.4524 22.0602   1
 -11   1 -13 180.843 64.0304   1
  11  -2  -9 93.9440 28.8479   1
  11  -2  -8 1234.65 120.602   1
  11  -2  -7 76.1799 23.1732   1
  11  -2  -6 1517.62 117.364   1
  11  -2  -5 967.385 79.5807   1
  11  -2  -4 361.604 36.9410   1
 -11   2  -5 5625.87 292.655   1
  11   2   5 5617.80 319.345   1
  11   2   6 612.307 85.0613   1
 -11   2  -6 557.518 72.1995   1
 -11   2  -7 21.9067 16.9884   1
  11   2   7 27.7886 29.8381   1
 -11   2  -8 421.899 69.3892   1
  11   2   8 433.711 77.6972   1
 -11   2  -9 38.5390 20.6815   1
  11   2   9 23.5747 23.7109   1
 -11  -2 -10 1992.00 197.337   1
  11   2  10 2067.65 204.880   1
 -11   2 -10 1899.75 180.272   1
  11   2  11 1433.91 172.278   1
 -11   2 -11 1267.98 146.310   1
 -11  -2 -11 1185.66 156.176   1
 -11   2 -12 271.936 73.3407   1
  11   2  12 224.700 79.2985   1
 -11  -2 -12 252.848 66.9530   1
 -11   2 -13 2047.39 216.682   1
  11  -3 -11 127.231 41.4750   1
  11  -3 -10-22.1188 25.5268   1
  11  -3  -9 65.0166 29.5367   1
  11  -3  -7 588.318 68.9062   1
  11  -3  -5 1074.53 81.0169   1
 -11   3  -4 1104.66 86.0991   1
 -11   3  -5 1547.55 117.279   1
 -11   3  -6 5836.25 314.619   1
 -11   3  -7 253.950 48.6924   1
  11   3   7 259.322 58.7450   1
  11   3   8 1519.34 164.239   1
 -11   3  -8 1750.36 148.708   1
 -11   3  -9 491.750 79.1867   1
  11   3   9 553.827 93.3565   1
 -11   3 -10 500.936 92.9597   1
  11   3  10 723.182 121.789   1
 -11   3 -11 507.510 92.0157   1
  11   3  11 558.967 102.565   1
  11   3  12 93.3525 64.6915   1
 -11   3 -12 35.6706 12.0599   1
  11  -4 -13 662.443 125.694   1
  11  -4 -12 278.763 63.1781   1
  11  -4 -10 671.004 97.9690   1
  11  -4  -9 2411.53 183.899   1
  11  -4  -8 1263.39 121.389   1
  11  -4  -7 480.727 61.1374   1
 -11   4  -3 158.225 24.5836   1
 -11   4  -4 19.7850 11.2155   1
 -11   4  -5 2768.28 173.379   1
 -11   4  -6 560.643 72.4039   1
 -11   4  -7 1387.78 127.531   1
 -11   4  -8 555.192 79.1406   1
 -11   4  -9 1460.76 144.204   1
  11   4  10 1305.42 167.163   1
  11   4  11 2671.20 258.552   1
  11  -5 -13 187.284 59.6605   1
  11  -5 -12 13.9075 7.16477   1
  11  -5 -11 1782.15 167.180   1
  11  -5 -10-14.5904 12.6441   1
  11  -5  -9 57.0714 29.6474   1
  11  -5  -8 1472.31 124.432   1
 -11   5  -3 21156.3 872.326   1
 -11   5  -4 38.4547 13.4585   1
 -11   5  -5-2.15658 12.0113   1
 -11   5  -6 578.354 72.2985   1
  11  -6 -12 678.088 103.920   1
  11  -6 -11 617.801 90.8721   1
  11  -6 -10 1628.82 152.820   1
  11  -6  -9 1718.46 147.664   1
 -11   6  -2 3013.14 155.513   1
 -11   7   2 516.981 43.6165   1
 -11   7   1 171.245 25.3168   1
  12   0   1 0.45327 0.01770   1
  12   0   2 35.9690 12.3273   1
  12   0   3-11.8288 10.1924   1
  12   0   4 1758.71 134.912   1
  12   0   5 9.65901 7.63352   1
  12   0   6 1829.98 160.500   1
  12   0   7-1.97179 3.02084   1
  12   0   8 371.820 76.0051   1
 -12   0  -8 335.385 66.6512   1
  12   0   9-26.9853 41.2587   1
 -12   0  -9 1.19241 14.2382   1
  12   0  10 2939.76 255.005   1
 -12   0 -10 2643.62 221.654   1
  12   0  11 35.9182 48.6573   1
 -12   0 -11 6.95499 23.2922   1
  12   0  12 39.7536 49.8947   1
 -12   0 -12 71.4940 35.2355   1
  12  -1  -4 740.374 63.5941   1
  12  -1  -3 993.331 64.2651   1
  12   1   3 119.766 27.5326   1
  12   1   4 369.786 53.7701   1
  12  -1   5 3485.85 241.370   1
  12   1   5 3719.83 231.286   1
  12  -1   6 1244.81 137.271   1
  12   1   6 1168.28 123.191   1
  12   1   7 123.280 34.5293   1
  12  -1   7 124.923 47.4831   1
 -12   1  -7 105.364 36.6083   1
  12  -1   8 824.953 127.751   1
  12   1   8 1068.05 131.344   1
 -12   1  -8 1042.81 115.117   1
  12   1   9 1058.87 140.281   1
  12  -1   9 1127.84 148.975   1
 -12   1  -9 995.893 120.699   1
  12  -1  10 155.589 64.2653   1
  12   1  10 0.93717 35.1659   1
 -12  -1 -10 122.859 47.5334   1
 -12   1 -10 77.8410 32.5195   1
 -12   1 -11 300.874 66.3262   1
 -12  -1 -11 363.017 77.5320   1
  12   1  11 387.996 96.8408   1
 -12   1 -12 48.7143 33.6114   1
  12   1  12 60.4902 37.8550   1
 -12  -1 -12 15.9588 24.7624   1
  12  -2  -8 109.267 32.0010   1
  12  -2  -7 3015.19 196.080   1
  12  -2  -6 171.473 38.2274   1
  12  -2  -5 575.136 58.1558   1
  12   2   5 465.569 68.2519   1
  12   2   6 203.806 49.5445   1
 -12   2  -6 168.403 42.0876   1
  12   2   7 1835.65 166.269   1
 -12   2  -7 1761.07 150.866   1
 -12   2  -8 201.284 49.9862   1
  12   2   8 197.991 52.4473   1
 -12   2  -9 23.3277 17.1481   1
  12   2   9-10.0646 23.5995   1
 -12   2 -10 322.392 68.0536   1
  12   2  10 338.064 78.8126   1
 -12   2 -11 1348.05 166.890   1
  12   2  11 2334.24 225.700   1
  12   2  12 228.629 78.1606   1
 -12  -2 -12 135.203 58.2813   1
  12  -3 -10 855.738 132.920   1
  12  -3  -9 45.5513 24.9154   1
  12  -3  -8 1197.07 111.658   1
  12  -3  -7 46.9421 16.8928   1
  12  -3  -6 3416.49 195.394   1
 -12   3  -5 6.20855 14.3238   1
 -12   3  -6 4005.61 234.753   1
 -12   3  -7 31.1254 26.9448   1
  12   3   8 1933.13 182.034   1
 -12   3  -8 1505.61 140.664   1
  12   3   9-27.9203 33.0945   1
  12   3  10 1248.53 162.257   1
  12   3  11 29.4194 38.2492   1
  12  -4 -10 644.714 94.8991   1
  12  -4  -9 14.8427 14.6242   1
  12  -4  -8 217.802 42.6976   1
  12   4  11 491.231 104.739   1
  13   0   0 25.1262 8.66421   1
  13   0   1 8.12656 5.27548   1
  13   0   2 24.8497 10.9771   1
  13   0   3-9.87399 5.63208   1
  13   0   4 626.984 73.0954   1
  13   0   5-4.04906 9.47391   1
  13   0   6 3905.87 268.430   1
  13   0   7-19.2361 34.5751   1
  13   0   8 23.1222 26.7568   1
  13   0   9-0.79290 33.7845   1
  13   0  10 589.435 111.952   1
  13   0  11 27.3376 39.7718   1
  13   0  12 1860.40 245.279   1
  13   1   3 1156.09 100.597   1
  13   1   4 2835.38 187.208   1
  13   1   5 73.4547 23.5574   1
  13   1   6 575.135 81.7813   1
  13   1   7 2683.50 207.289   1
  13  -1   8 46.5688 31.3773   1
  13   1   8 9.63925 12.2131   1
  13   1   9 185.499 58.2352   1
  13  -1   9 129.566 49.2527   1
  13   1  10 148.041 51.4542   1
  13   1  11 88.1786 15.1236   1
  13   1  12 111.686 45.0833   1
  13  -2  -6 54.6882 22.6826   1
  13   2   5 1391.73 124.996   1
  13   2   6 842.046 104.239   1
  13   2   7 23.0158 21.0031   1
  13   2   8 226.128 57.8310   1
  13   2   9 4648.15 331.730   1
  13   2  10 245.458 69.2729   1
  13   2  11-1.92427 30.6270   1
  13   3   9 772.119 110.634   1
  13   3  10 2786.16 253.944   1
  13   3  11 386.934 92.0116   1
  14   1   3 1532.64 116.898   1
  14   1   4 408.255 59.6872   1
  14   1   5 503.129 72.8410   1
  14   1   6 1007.22 109.237   1
  14   1   7 1182.87 125.454   1
  14   1   8 77.5295 33.3433   1
  14   1   9 1826.02 201.979   1
  14   2   7 2212.18 196.367   1
  14   2   8-14.5844 29.5970   1
  14   2   9 286.774 68.9337   1
  14   2  10 367.601 70.9246   1
  14   2  11 401.986 99.1803   1
   0   0   0    0.00    0.00   0

TITL tesdac_c24_s in P2(1)/c
REM P2(1)/c (#14 in standard setting)
CELL 0.29030   8.347660   9.369204   8.907354  90.0000  90.3180  90.0000
ZERR    4.00   0.000367   0.001899   0.000366   0.0000   0.0031   0.0000
LATT  1
SYMM -x, y+1/2,-z+1/2
SFAC O Al Si Sr
UNIT 32.00 8.00 8.00 4.00
TREF
HKLF 4
END
;
_shelx_hkl_checksum              73990
loop_
_space_group_symop_operation_xyz
'x, y, z'
'-x, y+1/2, -z+1/2'
'-x, -y, -z'
'x, -y-1/2, z-1/2'
loop_
_atom_site_label
_atom_site_type_symbol
_atom_site_fract_x
_atom_site_fract_y
_atom_site_fract_z
_atom_site_U_iso_or_equiv
_atom_site_adp_type
_atom_site_occupancy
_atom_site_site_symmetry_order
_atom_site_calc_flag
_atom_site_refinement_flags_posn
_atom_site_refinement_flags_adp
_atom_site_refinement_flags_occupancy
_atom_site_disorder_assembly
_atom_site_disorder_group
Sr1 Sr 0.74949(2) 0.41199(4) 0.60878(2) 0.00855(13) Uani 1 1 d . . . . .
Si1 Si 0.56085(8) 0.41981(13) 0.23929(6) 0.0055(3) Uani 1 1 d . . . . .
Si2 Si 1.05642(7) 0.29963(14) 0.93935(6) 0.0051(3) Uani 1 1 d . . . . .
Al1 Al 1.06877(9) 0.57520(15) 0.76900(7) 0.0062(4) Uani 1 1 d . . . . .
Al2 Al 0.42938(8) 0.19425(15) 0.44463(7) 0.0056(4) Uani 1 1 d . . . . .
O1 O 0.7403(2) 0.4235(4) 0.31137(17) 0.0105(9) Uani 1 1 d . . . . .
O2 O 0.9907(2) 0.4074(4) 0.80831(18) 0.0105(9) Uani 1 1 d . . . . .
O3 O 1.0525(2) 0.1343(4) 0.87968(17) 0.0104(3) Uiso 1 1 d . . . . .
O4 O 0.4443(2) 0.3695(4) 0.37554(17) 0.0103(8) Uani 1 1 d . . . . .
O5 O 0.5588(2) 0.3098(4) 0.10001(16) 0.0077(9) Uani 1 1 d . . . . .
O6 O 1.2339(2) 0.3457(4) 0.98955(19) 0.0120(9) Uani 1 1 d . . . . .
O7 O 0.9319(2) 0.3097(3) 1.07831(16) 0.0083(8) Uani 1 1 d . . . . .
O8 O 0.4943(2) 0.5743(4) 0.18880(19) 0.0106(3) Uiso 1 1 d . . . . .
loop_
_atom_site_aniso_label
_atom_site_aniso_U_11
_atom_site_aniso_U_22
_atom_site_aniso_U_33
_atom_site_aniso_U_23
_atom_site_aniso_U_13
_atom_site_aniso_U_12
Sr1 0.00818(10) 0.0066(4) 0.01088(10) -0.00059(8) -0.00014(6) 0.00038(10)
Si1 0.0057(3) 0.0049(11) 0.0060(2) 0.0004(3) 0.00029(17) -0.0003(3)
Si2 0.0055(3) 0.0027(11) 0.0069(2) 0.0001(3) 0.00006(16) 0.0001(3)
Al1 0.0062(3) 0.0062(13) 0.0063(3) 0.0003(3) 0.00008(19) -0.0002(4)
Al2 0.0062(3) 0.0038(13) 0.0067(3) -0.0006(3) -0.00003(18) -0.0005(3)
O1 0.0056(6) 0.017(3) 0.0085(7) -0.0015(7) -0.0004(4) -0.0025(8)
O2 0.0121(8) 0.011(3) 0.0082(7) 0.0024(7) -0.0014(5) -0.0006(10)
O4 0.0100(7) 0.011(3) 0.0095(7) 0.0015(8) 0.0046(5) 0.0013(10)
O5 0.0089(7) 0.007(3) 0.0076(7) -0.0007(7) -0.0012(4) 0.0012(9)
O6 0.0044(6) 0.016(3) 0.0154(8) -0.0041(8) 0.0005(5) 0.0006(10)
O7 0.0097(7) 0.008(3) 0.0073(6) -0.0008(7) 0.0025(4) -0.0024(9)
loop_
_atom_type_symbol
_atom_type_description
_atom_type_scat_dispersion_real
_atom_type_scat_dispersion_imag
_atom_type_scat_source
O O -0.0010 0.0008 'International Tables Vol C Tables 4.2.6.8 and 6.1.1.4'
Al Al 0.0048 0.0077 'International Tables Vol C Tables 4.2.6.8 and 6.1.1.4'
Si Si 0.0082 0.0107 'International Tables Vol C Tables 4.2.6.8 and 6.1.1.4'
Sr Sr 0.2299 0.6894 'International Tables Vol C Tables 4.2.6.8 and 6.1.1.4'
loop_
_geom_angle_atom_site_label_1
_geom_angle_atom_site_label_2
_geom_angle_atom_site_label_3
_geom_angle
_geom_angle_site_symmetry_1
_geom_angle_site_symmetry_3
_geom_angle_publ_flag
O7 Sr1 O4 176.40(6) 4_565 3_666 ?
O7 Sr1 O5 73.63(8) 4_565 4_566 ?
O4 Sr1 O5 104.29(8) 3_666 4_566 ?
O7 Sr1 O1 86.65(7) 4_565 . ?
O4 Sr1 O1 90.41(7) 3_666 . ?
O5 Sr1 O1 89.32(7) 4_566 . ?
O7 Sr1 O3 105.45(8) 4_565 2_756 ?
O4 Sr1 O3 76.66(9) 3_666 2_756 ?
O5 Sr1 O3 178.90(7) 4_566 2_756 ?
O1 Sr1 O3 91.22(7) . 2_756 ?
O7 Sr1 O2 67.45(8) 4_565 . ?
O4 Sr1 O2 116.14(8) 3_666 . ?
O5 Sr1 O2 117.48(8) 4_566 . ?
O1 Sr1 O2 132.92(6) . . ?
O3 Sr1 O2 61.49(8) 2_756 . ?
O7 Sr1 O8 123.22(8) 4_565 3_666 ?
O4 Sr1 O8 57.57(8) 3_666 3_666 ?
O5 Sr1 O8 66.53(8) 4_566 3_666 ?
O1 Sr1 O8 129.83(5) . 3_666 ?
O3 Sr1 O8 113.76(8) 2_756 3_666 ?
O2 Sr1 O8 97.06(6) . 3_666 ?
O7 Sr1 O3 51.27(7) 4_565 4_565 ?
O4 Sr1 O3 127.97(7) 3_666 4_565 ?
O5 Sr1 O3 110.26(7) 4_566 4_565 ?
O1 Sr1 O3 53.37(5) . 4_565 ?
O3 Sr1 O3 69.36(10) 2_756 4_565 ?
O2 Sr1 O3 80.31(5) . 4_565 ?
O8 Sr1 O3 174.45(9) 3_666 4_565 ?
O7 Sr1 O4 106.81(7) 4_565 . ?
O4 Sr1 O4 69.66(9) 3_666 . ?
O5 Sr1 O4 54.47(7) 4_566 . ?
O1 Sr1 O4 50.10(5) . . ?
O3 Sr1 O4 126.55(7) 2_756 . ?
O2 Sr1 O4 171.83(9) . . ?
O8 Sr1 O4 81.13(5) 3_666 . ?
O3 Sr1 O4 100.78(4) 4_565 . ?
O7 Sr1 Si1 151.89(5) 4_565 3_666 ?
O4 Sr1 Si1 28.77(5) 3_666 3_666 ?
O5 Sr1 Si1 85.04(6) 4_566 3_666 ?
O1 Sr1 Si1 111.65(5) . 3_666 ?
O3 Sr1 Si1 95.64(6) 2_756 3_666 ?
O2 Sr1 Si1 108.78(5) . 3_666 ?
O8 Sr1 Si1 28.81(7) 3_666 3_666 ?
O3 Sr1 Si1 156.74(6) 4_565 3_666 ?
O4 Sr1 Si1 73.34(4) . 3_666 ?
O7 Sr1 Al1 86.81(5) 4_565 . ?
O4 Sr1 Al1 96.31(6) 3_666 . ?
O5 Sr1 Al1 148.10(5) 4_566 . ?
O1 Sr1 Al1 114.93(5) . . ?
O3 Sr1 Al1 30.88(5) 2_756 . ?
O2 Sr1 Al1 30.64(7) . . ?
O8 Sr1 Al1 106.78(5) 3_666 . ?
O3 Sr1 Al1 73.40(4) 4_565 . ?
O4 Sr1 Al1 157.43(6) . . ?
Si1 Sr1 Al1 103.17(3) 3_666 . ?
O7 Sr1 Si2 24.40(5) 4_565 4_565 ?
O4 Sr1 Si2 154.30(4) 3_666 4_565 ?
O5 Sr1 Si2 89.09(6) 4_566 4_565 ?
O1 Sr1 Si2 67.55(5) . 4_565 ?
O3 Sr1 Si2 90.23(6) 2_756 4_565 ?
O2 Sr1 Si2 74.56(6) . 4_565 ?
O8 Sr1 Si2 147.41(7) 3_666 4_565 ?
O3 Sr1 Si2 27.16(6) 4_565 4_565 ?
O4 Sr1 Si2 102.67(5) . 4_565 ?
Si1 Sr1 Si2 174.10(3) 3_666 4_565 ?
Al1 Sr1 Si2 82.19(2) . 4_565 ?
O5 Si1 O8 110.90(12) . . ?
O5 Si1 O1 108.83(12) . . ?
O8 Si1 O1 113.95(16) . . ?
O5 Si1 O4 112.61(15) . . ?
O8 Si1 O4 105.14(14) . . ?
O1 Si1 O4 105.33(10) . . ?
O5 Si1 Sr1 127.65(7) . 3_666 ?
O8 Si1 Sr1 54.60(7) . 3_666 ?
O1 Si1 Sr1 123.16(9) . 3_666 ?
O4 Si1 Sr1 50.54(11) . 3_666 ?
O5 Si1 Sr1 133.24(10) . . ?
O8 Si1 Sr1 114.61(8) . . ?
O1 Si1 Sr1 41.51(6) . . ?
O4 Si1 Sr1 65.03(7) . . ?
Sr1 Si1 Sr1 88.607(16) 3_666 . ?
O5 Si1 Sr1 38.66(9) . 4_565 ?
O8 Si1 Sr1 144.87(7) . 4_565 ?
O1 Si1 Sr1 75.37(11) . 4_565 ?
O4 Si1 Sr1 104.44(13) . 4_565 ?
Sr1 Si1 Sr1 149.90(3) 3_666 4_565 ?
Sr1 Si1 Sr1 94.87(2) . 4_565 ?
O6 Si2 O7 111.49(10) . . ?
O6 Si2 O2 109.79(15) . . ?
O7 Si2 O2 107.13(13) . . ?
O6 Si2 O3 111.19(15) . . ?
O7 Si2 O3 106.89(15) . . ?
O2 Si2 O3 110.24(13) . . ?
O6 Si2 Sr1 133.91(10) . 4_566 ?
O7 Si2 Sr1 41.22(11) . 4_566 ?
O2 Si2 Sr1 113.86(8) . 4_566 ?
O3 Si2 Sr1 66.43(7) . 4_566 ?
O7 Al1 O2 113.67(12) 3_767 . ?
O7 Al1 O1 108.83(11) 3_767 3_766 ?
O2 Al1 O1 115.59(16) . 3_766 ?
O7 Al1 O3 113.04(15) 3_767 2_756 ?
O2 Al1 O3 102.85(13) . 2_756 ?
O1 Al1 O3 102.25(9) 3_766 2_756 ?
O7 Al1 Sr1 127.28(7) 3_767 . ?
O2 Al1 Sr1 51.72(6) . . ?
O1 Al1 Sr1 123.21(8) 3_766 . ?
O3 Al1 Sr1 51.20(11) 2_756 . ?
O7 Al1 Sr1 40.11(8) 3_767 2_756 ?
O2 Al1 Sr1 150.95(6) . 2_756 ?
O1 Al1 Sr1 74.87(11) 3_766 2_756 ?
O3 Al1 Sr1 100.88(13) 2_756 2_756 ?
Sr1 Al1 Sr1 147.02(4) . 2_756 ?
O7 Al1 Sr1 134.05(10) 3_767 3_766 ?
O2 Al1 Sr1 111.62(8) . 3_766 ?
O1 Al1 Sr1 41.35(5) 3_766 3_766 ?
O3 Al1 Sr1 62.65(6) 2_756 3_766 ?
Sr1 Al1 Sr1 87.538(18) . 3_766 ?
Sr1 Al1 Sr1 94.08(3) 2_756 3_766 ?
O6 Al2 O5 113.11(9) 4_465 4_566 ?
O6 Al2 O8 111.42(15) 4_465 2_645 ?
O5 Al2 O8 107.22(12) 4_566 2_645 ?
O6 Al2 O4 110.69(15) 4_465 . ?
O5 Al2 O4 104.61(14) 4_566 . ?
O8 Al2 O4 109.49(12) 2_645 . ?
O6 Al2 Sr1 135.92(10) 4_465 . ?
O5 Al2 Sr1 41.47(10) 4_566 . ?
O8 Al2 Sr1 111.10(8) 2_645 . ?
O4 Al2 Sr1 64.29(7) . . ?
Si1 O1 Al1 132.61(10) . 3_766 ?
Si1 O1 Sr1 114.50(9) . . ?
Al1 O1 Sr1 112.80(8) 3_766 . ?
Si2 O2 Al1 125.25(12) . . ?
Si2 O2 Sr1 137.02(15) . . ?
Al1 O2 Sr1 97.64(10) . . ?
Si2 O3 Al1 123.68(17) . 2_746 ?
Si2 O3 Sr1 135.78(10) . 2_746 ?
Al1 O3 Sr1 97.92(14) 2_746 2_746 ?
Si2 O3 Sr1 86.41(8) . 4_566 ?
Al1 O3 Sr1 89.09(8) 2_746 4_566 ?
Sr1 O3 Sr1 110.64(10) 2_746 4_566 ?
Si1 O4 Al2 125.09(18) . . ?
Si1 O4 Sr1 100.69(15) . 3_666 ?
Al2 O4 Sr1 131.88(9) . 3_666 ?
Si1 O4 Sr1 88.41(8) . . ?
Al2 O4 Sr1 87.04(8) . . ?
Sr1 O4 Sr1 110.34(9) 3_666 . ?
Si1 O5 Al2 128.72(17) . 4_565 ?
Si1 O5 Sr1 118.71(9) . 4_565 ?
Al2 O5 Sr1 112.24(14) 4_565 4_565 ?
Si2 O6 Al2 138.68(19) . 4_666 ?
Si2 O7 Al1 129.65(16) . 3_767 ?
Si2 O7 Sr1 114.38(14) . 4_566 ?
Al1 O7 Sr1 114.31(9) 3_767 4_566 ?
Si1 O8 Al2 129.54(13) . 2_655 ?
Si1 O8 Sr1 96.60(10) . 3_666 ?
Al2 O8 Sr1 133.70(15) 2_655 3_666 ?
loop_
_geom_bond_atom_site_label_1
_geom_bond_atom_site_label_2
_geom_bond_distance
_geom_bond_site_symmetry_2
_geom_bond_publ_flag
Sr1 O7 2.590(3) 4_565 ?
Sr1 O4 2.614(3) 3_666 ?
Sr1 O5 2.619(3) 4_566 ?
Sr1 O1 2.6520(16) . ?
Sr1 O3 2.661(3) 2_756 ?
Sr1 O2 2.6784(17) . ?
Sr1 O8 2.7294(19) 3_666 ?
Sr1 O3 3.2877(19) 4_565 ?
Sr1 O4 3.3022(19) . ?
Sr1 Si1 3.3264(9) 3_666 ?
Sr1 Al1 3.3817(10) . ?
Sr1 Si2 3.5800(9) 4_565 ?
Si1 O5 1.613(3) . ?
Si1 O8 1.613(3) . ?
Si1 O1 1.6270(18) . ?
Si1 O4 1.6291(19) . ?
Si2 O6 1.605(2) . ?
Si2 O7 1.6235(17) . ?
Si2 O2 1.636(3) . ?
Si2 O3 1.638(4) . ?
Al1 O7 1.736(3) 3_767 ?
Al1 O2 1.739(3) . ?
Al1 O1 1.751(2) 3_766 ?
Al1 O3 1.753(2) 2_756 ?
Al2 O6 1.723(2) 4_465 ?
Al2 O5 1.7515(16) 4_566 ?
Al2 O8 1.758(3) 2_645 ?
Al2 O4 1.758(4) . ?
