#------------------------------------------------------------------------------
#$Date: 2021-06-21 10:58:30 +0300 (Mon, 21 Jun 2021) $
#$Revision: 266595 $
#$URL: file:///home/coder/svn-repositories/cod/cif/1/56/36/1563624.cif $
#------------------------------------------------------------------------------
#
# This file is available in the Crystallography Open Database (COD),
# http://www.crystallography.net/
#
# All data on this site have been placed in the public domain by the
# contributors.
#
data_1563624
loop_
_publ_author_name
'Zubkov, Vladimir G.'
'Tarakina, Nadezda V.'
'Leonidov, Ivan I.'
'Tyutyunnik, Alexander P.'
'Surat, Ludmila L.'
'Melkozerova, Marina A.'
'Zabolotskaya, Elena V.'
'Kellerman, Dina G.'
_publ_section_title
;
 Synthesis and crystal structure of Ln2M2+Ge4O12, Ln=rare-earth element or
 Y; M=Ca, Mn, Zn
;
_journal_issue                   5
_journal_name_full               'Journal of Solid State Chemistry'
_journal_page_first              1186
_journal_page_last               1193
_journal_paper_doi               10.1016/j.jssc.2010.03.027
_journal_volume                  183
_journal_year                    2010
_chemical_formula_sum            'Ca Er2 Ge4 O12'
_chemical_formula_weight         856.95
_space_group_IT_number           125
_space_group_name_Hall           '-P 4a 2b'
_space_group_name_H-M_alt        'P 4/n b m :2'
_symmetry_cell_setting           tetragonal
_symmetry_space_group_name_H-M   'P 4/n b m :2'
_cell_angle_alpha                90.0
_cell_angle_beta                 90.0
_cell_angle_gamma                90.0
_cell_formula_units_Z            2
_cell_length_a                   9.97205(7)
_cell_length_b                   9.97205
_cell_length_c                   5.06150(4)
_cell_volume                     503.325(5)
_computing_structure_refinement  GSAS
_diffrn_radiation_polarisn_ratio 0.8
_diffrn_radiation_probe          x-ray
_diffrn_radiation_wavelength     1.54056
_exptl_absorpt_correction_T_max  3.98517
_exptl_absorpt_correction_T_min  1.95135
_exptl_absorpt_process_details
;   GSAS Absorption/surface roughness correction: function number 4
 Flat plate transmission absorption correction
Terms =    -0.43136         0.0000    
Correction is refined.
;
_pd_calc_method                  'Rietveld Refinement'
_pd_instr_location               ' ?'
_pd_meas_2theta_range_inc        0.02
_pd_meas_2theta_range_max        119.98
_pd_meas_2theta_range_min        2.0
_pd_meas_number_of_points        5900
_pd_proc_2theta_range_inc        0.02
_pd_proc_2theta_range_max        119.95486
_pd_proc_2theta_range_min        1.97485
_pd_proc_info_datetime           2010-02-27T12:59:20
_pd_proc_info_excluded_regions   ' ?'
_pd_proc_ls_background_function
;   GSAS Background function number 1 with 36 terms.
 Shifted Chebyshev function of 1st kind
      1:    2197.91     2:   -2720.30     3:    1691.18     4:   -769.387    
      5:    238.623     6:   -19.3866     7:   -19.4701     8:   -22.7939    
      9:    56.3368    10:   -85.7089    11:    58.3064    12:   -28.0726    
     13:    32.6554    14:   -40.1221    15:    32.9565    16:   -27.0185    
     17:    42.2145    18:   -18.5200    19:    14.7452    20:    3.97586    
     21:    10.3616    22:   -12.1504    23:    34.8579    24:   -48.9251    
     25:    43.0981    26:   -14.6982    27:   -21.9003    28:    36.4869    
     29:   -38.0633    30:    20.4222    31:    16.1233    32:   -42.3238    
     33:    41.6472    34:   -12.4284    35:   0.433981    36:    17.6008    
;
_pd_proc_ls_peak_cutoff          0.00200
_pd_proc_ls_profile_function
;
 CW Profile function number 2 with  18 terms
 Profile coefficients for Simpson's rule integration of pseudovoigt function
 C.J. Howard (1982). J. Appl. Cryst.,15,615-620.
 P. Thompson, D.E. Cox & J.B. Hastings (1987). J. Appl. Cryst.,20,79-83.
 #1(GU)   =   22.326 #2(GV)   =  -14.665 #3(GW)   =   15.834
 #4(LX)   =    2.470 #5(LY)   =    7.455 #6(trns) =    0.000
 #7(asym) =   1.3428 #8(shft) =   0.0000 #9(GP)   =    0.000
 #10(stec)=     0.00 #11(ptec)=     0.00 #12(sfec)=     0.00
 #13(L11) =    0.000 #14(L22) =    0.000 #15(L33) =    0.000
 #16(L12) =    0.000 #17(L13) =    0.000 #18(L23) =    0.000
 Peak tails are ignored  where the intensity is below 0.0020 times the peak
   Aniso. broadening axis   0.0   0.0   1.0
;
_pd_proc_ls_prof_R_factor        0.0339
_pd_proc_ls_prof_wR_expected     0.0200
_pd_proc_ls_prof_wR_factor       0.0507
_pd_proc_number_of_points        5900
_pd_spec_mounting                ' ?'
_refine_ls_goodness_of_fit_all   2.77
_refine_ls_matrix_type           full
_refine_ls_number_parameters     71
_refine_ls_number_restraints     0
_refine_ls_R_Fsqd_factor         0.02424
_refine_ls_shift/su_max          0.01
_refine_ls_shift/su_mean         0.00
_reflns_d_resolution_high        0.892
_reflns_d_resolution_low         7.051
_reflns_limit_h_max              11
_reflns_limit_h_min              0
_reflns_limit_k_max              8
_reflns_limit_k_min              0
_reflns_limit_l_max              5
_reflns_limit_l_min              0
_reflns_number_total             209
_cod_data_source_file            ER2CAGe4O12.cif
_cod_data_source_block           ER2CA(VO3)4_publ
_cod_depositor_comments
;
The following automatic conversions were performed:

data item '_geom_angle_publ_flag' value 'N' was changed to 'n' in
accordance with the built-in table derived from the CIF Core
dictionary named 'cif_core.dic' version 2.4.5 last updated on
2014-11-21 (127 times).

data item '_geom_bond_publ_flag' value 'N' was changed to 'n' in
accordance with the built-in table derived from the CIF Core
dictionary named 'cif_core.dic' version 2.4.5 last updated on
2014-11-21 (56 times).

Automatic conversion script
Id: cif_fix_values 8369 2020-08-20 11:38:08Z andrius 
;
_cod_original_cell_volume        503.325(10)
_cod_original_sg_symbol_H-M      'P 4/n b m'
_cod_original_formula_sum        'Ca1.00 Er2.00 Ge4 O12'
_cod_database_code               1563624
_gsas_exptl_extinct_corr_t_min   1.00000
_gsas_exptl_extinct_corr_t_max   1.00000
loop_
_symmetry_equiv_pos_site_id
_symmetry_equiv_pos_as_xyz
1 +x,+y,+z
2 -y+1/2,+x,+z
3 -x+1/2,-y+1/2,+z
4 +y,-x+1/2,+z
5 -x,+y+1/2,+z
6 -y,-x,+z
7 +x+1/2,-y,+z
8 +y+1/2,+x+1/2,+z
-1 -x,-y,-z
-2 +y+1/2,-x,-z
-3 +x+1/2,+y+1/2,-z
-4 -y,+x+1/2,-z
-5 +x,-y+1/2,-z
-6 +y,+x,-z
-7 -x+1/2,+y,-z
-8 -y+1/2,-x+1/2,-z
loop_
_atom_site_aniso_label
_atom_site_aniso_U_11
_atom_site_aniso_U_12
_atom_site_aniso_U_13
_atom_site_aniso_U_22
_atom_site_aniso_U_23
_atom_site_aniso_U_33
Ca 0.0280(9) -0.0065(6) 0.0030(13) 0.0280(9) -0.0030(13) 0.0245(13)
Er1 0.0280(9) -0.0065(6) 0.0030(13) 0.0280(9) -0.0030(13) 0.0245(13)
Er2 0.0197(9) 0.0 0.0 0.0197(9) 0.0 0.0191(11)
Ge 0.0215(10) 0.0 0.0 0.0171(10) -0.0047(15) 0.0193(10)
O1 0.0199(23) -0.0007(33) -0.0021(25) 0.0199(23) 0.0021(25) 0.010(4)
O2 0.0195(33) -0.0005(19) 0.0037(26) 0.0155(32) 0.0036(24) 0.0163(25)
loop_
_atom_site_type_symbol
_atom_site_label
_atom_site_fract_x
_atom_site_fract_y
_atom_site_fract_z
_atom_site_occupancy
_atom_site_thermal_displace_type
_atom_site_U_iso_or_equiv
_atom_site_symmetry_multiplicity
Ca Ca 0.0 0.0 0.5 0.5 Uani 0.02684 4
Er Er1 0.0 0.0 0.5 0.5 Uani 0.02684 4
Er Er2 0.25 0.25 0.5 1.0 Uani 0.01947 2
Ge Ge 0.52082(10) 0.25 0.0 1.0 Uani 0.0193 8
O O1 0.6272(4) 0.3728(4) 0.1575(10) 1.0 Uani 0.01653 8
O O2 0.1736(4) 0.0630(4) 0.2567(8) 1.0 Uani 0.0171 16
loop_
_atom_type_symbol
_atom_type_number_in_cell
_atom_type_scat_dispersion_real
_atom_type_scat_dispersion_imag
_atom_type_scat_Cromer_Mann_a1
_atom_type_scat_Cromer_Mann_a2
_atom_type_scat_Cromer_Mann_a3
_atom_type_scat_Cromer_Mann_a4
_atom_type_scat_Cromer_Mann_b1
_atom_type_scat_Cromer_Mann_b2
_atom_type_scat_Cromer_Mann_b3
_atom_type_scat_Cromer_Mann_b4
_atom_type_scat_Cromer_Mann_c
_atom_type_scat_source
Ca 2.0 0.000 0.000 8.62660 10.4421 7.38730 0.65990 1.58990 85.7484 1.02110
178.437 1.37510 International_Tables_Vol_C
Er 4.0 0.000 0.000 27.6563 2.07356 16.4285 0.22354 14.9779 11.3604 2.98233
105.703 5.92046 International_Tables_Vol_C
Ge 8.0 0.000 0.000 16.0816 2.85090 6.37470 0.25160 3.70680 11.4468 3.68300
54.7625 2.13130 International_Tables_Vol_C
O 24.0 0.000 0.000 3.04850 13.2771 2.28680 5.70110 1.54630 0.32390 0.86700
32.9089 0.25080 International_Tables_Vol_C
loop_
_geom_angle_atom_site_label_1
_geom_angle_atom_site_label_2
_geom_angle_atom_site_label_3
_geom_angle
_geom_angle_site_symmetry_1
_geom_angle_site_symmetry_2
_geom_angle_site_symmetry_3
_geom_angle_publ_flag
Er2 Ca Er2 180.0 1_555 . 5_545 n
Er2 Ca O1 89.9994 1_555 . 3_555 n
Er2 Ca O1 90.0006 1_555 . -3_456 n
Er2 Ca O2 41.15(10) 1_555 . 1_555 n
Er2 Ca O2 138.85(10) 1_555 . 6_555 n
Er2 Ca O2 138.85(10) 1_555 . -1_556 n
Er2 Ca O2 41.15(10) 1_555 . -6_556 n
Er2 Ca O1 90.0006 5_545 . 3_555 n
Er2 Ca O1 89.9994 5_545 . -3_456 n
Er2 Ca O2 138.85(10) 5_545 . 1_555 n
Er2 Ca O2 41.15(10) 5_545 . 6_555 n
Er2 Ca O2 41.15(10) 5_545 . -1_556 n
Er2 Ca O2 138.85(10) 5_545 . -6_556 n
O1 Ca O1 180.0 3_555 . -3_456 n
O1 Ca O2 82.34(14) 3_555 . 1_555 n
O1 Ca O2 82.34(14) 3_555 . 6_555 n
O1 Ca O2 97.66(14) 3_555 . -1_556 n
O1 Ca O2 97.66(14) 3_555 . -6_556 n
O1 Ca O2 97.66(14) -3_446 . 1_555 n
O1 Ca O2 97.66(14) -3_446 . 6_555 n
O1 Ca O2 82.34(14) -3_446 . -1_556 n
O1 Ca O2 82.34(14) -3_446 . -6_556 n
O2 Ca O2 97.71(21) 1_555 . 6_555 n
O2 Ca O2 180.0 1_555 . -1_556 n
O2 Ca O2 82.29(21) 1_555 . -6_556 n
O2 Ca O2 82.29(21) 6_555 . -1_556 n
O2 Ca O2 180.0 6_555 . -6_556 n
O2 Ca O2 97.71(21) -1_556 . -6_556 n
O1 Er1 O1 180.0 3_555 . -3_456 n
O1 Er1 O2 82.34(14) 3_555 . 1_555 n
O1 Er1 O2 82.34(14) 3_555 . 6_555 n
O1 Er1 O2 97.66(14) 3_555 . -1_556 n
O1 Er1 O2 97.66(14) 3_555 . -6_556 n
O1 Er1 O2 97.66(14) -3_446 . 1_555 n
O1 Er1 O2 97.66(14) -3_446 . 6_555 n
O1 Er1 O2 82.34(14) -3_446 . -1_556 n
O1 Er1 O2 82.34(14) -3_446 . -6_556 n
O2 Er1 O2 97.71(21) 1_555 . 6_555 n
O2 Er1 O2 180.0 1_555 . -1_556 n
O2 Er1 O2 82.29(21) 1_555 . -6_556 n
O2 Er1 O2 82.29(21) 6_555 . -1_556 n
O2 Er1 O2 180.0 6_555 . -6_556 n
O2 Er1 O2 97.71(21) -1_556 . -6_556 n
Ca Er2 Ca 90.0 1_555 . 2_555 n
Ca Er2 Ca 180.0 1_555 . 3_555 n
Ca Er2 Ca 90.0 1_555 . 4_555 n
Ca Er2 O2 38.13(10) 1_555 . 1_555 n
Ca Er2 O2 109.29(9) 1_555 . 2_555 n
Ca Er2 O2 141.87(10) 1_555 . 3_555 n
Ca Er2 O2 70.71(9) 1_555 . 4_555 n
Ca Er2 O2 109.29(9) 1_555 . -5_456 n
Ca Er2 O2 38.13(10) 1_555 . -6_556 n
Ca Er2 O2 70.71(9) 1_555 . -7_546 n
Ca Er2 O2 141.87(10) 1_555 . -8_556 n
Ca Er2 Ca 90.0 2_555 . 3_555 n
Ca Er2 Ca 180.0 2_555 . 4_555 n
Ca Er2 O2 70.71(9) 2_555 . 1_555 n
Ca Er2 O2 38.13(10) 2_555 . 2_555 n
Ca Er2 O2 109.29(9) 2_555 . 3_555 n
Ca Er2 O2 141.87(10) 2_555 . 4_555 n
Ca Er2 O2 141.87(10) 2_555 . -5_456 n
Ca Er2 O2 109.29(9) 2_555 . -6_556 n
Ca Er2 O2 38.13(10) 2_555 . -7_546 n
Ca Er2 O2 70.71(9) 2_555 . -8_556 n
Ca Er2 Ca 90.0 3_555 . 4_555 n
Ca Er2 O2 141.87(10) 3_555 . 1_555 n
Ca Er2 O2 70.71(9) 3_555 . 2_555 n
Ca Er2 O2 38.13(10) 3_555 . 3_555 n
Ca Er2 O2 109.29(9) 3_555 . 4_555 n
Ca Er2 O2 70.71(9) 3_555 . -5_456 n
Ca Er2 O2 141.87(10) 3_555 . -6_556 n
Ca Er2 O2 109.29(9) 3_555 . -7_546 n
Ca Er2 O2 38.13(10) 3_555 . -8_556 n
Ca Er2 O2 109.29(9) 4_555 . 1_555 n
Ca Er2 O2 141.87(10) 4_555 . 2_555 n
Ca Er2 O2 70.71(9) 4_555 . 3_555 n
Ca Er2 O2 38.13(10) 4_555 . 4_555 n
Ca Er2 O2 38.13(10) 4_555 . -5_456 n
Ca Er2 O2 70.71(9) 4_555 . -6_556 n
Ca Er2 O2 141.87(10) 4_555 . -7_546 n
Ca Er2 O2 109.29(9) 4_555 . -8_556 n
O2 Er2 O2 74.21(9) 1_555 . 2_555 n
O2 Er2 O2 117.11(19) 1_555 . 3_555 n
O2 Er2 O2 74.21(9) 1_555 . 4_555 n
O2 Er2 O2 142.37(18) 1_555 . -5_456 n
O2 Er2 O2 76.27(19) 1_555 . -6_556 n
O2 Er2 O2 75.66(17) 1_555 . -7_546 n
O2 Er2 O2 141.41(17) 1_555 . -8_556 n
O2 Er2 O2 74.21(9) 2_555 . 3_555 n
O2 Er2 O2 117.11(19) 2_555 . 4_555 n
O2 Er2 O2 141.41(17) 2_555 . -5_456 n
O2 Er2 O2 142.37(18) 2_555 . -6_556 n
O2 Er2 O2 76.27(19) 2_555 . -7_546 n
O2 Er2 O2 75.66(17) 2_555 . -8_556 n
O2 Er2 O2 74.21(9) 3_555 . 4_555 n
O2 Er2 O2 75.66(17) 3_555 . -5_456 n
O2 Er2 O2 141.41(17) 3_555 . -6_556 n
O2 Er2 O2 142.37(18) 3_555 . -7_546 n
O2 Er2 O2 76.27(19) 3_555 . -8_556 n
O2 Er2 O2 76.27(19) 4_555 . -5_456 n
O2 Er2 O2 75.66(17) 4_555 . -6_556 n
O2 Er2 O2 141.41(17) 4_555 . -7_546 n
O2 Er2 O2 142.37(18) 4_555 . -8_556 n
O2 Er2 O2 74.21(9) -5_456 . -6_556 n
O2 Er2 O2 117.11(19) -5_456 . -7_546 n
O2 Er2 O2 74.21(9) -5_456 . -8_556 n
O2 Er2 O2 74.21(9) -6_556 . -7_546 n
O2 Er2 O2 117.11(19) -6_556 . -8_556 n
O2 Er2 O2 74.21(9) -7_546 . -8_556 n
O1 Ge O1 108.1(4) 1_555 . -4_555 n
O1 Ge O2 104.60(20) 1_555 . 2_555 n
O1 Ge O2 108.54(25) 1_555 . -8_555 n
O1 Ge O2 108.54(25) -4_545 . 2_555 n
O1 Ge O2 104.60(20) -4_545 . -8_555 n
O2 Ge O2 121.94(27) 2_555 . -8_555 n
Ca O1 Er1 0.0 3_555 . 3_555 n
Ca O1 Ge 110.67(20) 3_555 . 1_555 n
Ca O1 Ge 110.67(20) 3_555 . 6_665 n
Er1 O1 Ge 110.67(20) 3_555 . 1_555 n
Er1 O1 Ge 110.67(20) 3_555 . 6_665 n
Ge O1 Ge 127.02(29) 1_555 . 6_665 n
Ca O2 Er1 0.0 1_555 . 1_555 n
Ca O2 Er2 100.72(15) 1_555 . 1_555 n
Ca O2 Ge 128.85(22) 1_555 . 4_555 n
Er1 O2 Er2 100.72(15) 1_555 . 1_555 n
Er1 O2 Ge 128.85(22) 1_555 . 4_555 n
Er2 O2 Ge 129.36(22) 1_555 . 4_555 n
loop_
_geom_bond_atom_site_label_1
_geom_bond_atom_site_label_2
_geom_bond_distance
_geom_bond_site_symmetry_1
_geom_bond_site_symmetry_2
_geom_bond_publ_flag
Ca Er2 3.525650(20) . 1_555 n
Ca Er2 3.525650(20) . 5_545 n
Ca Ge 3.55850(6) . 3_555 n
Ca Ge 3.55850(6) . 3_556 n
Ca Ge 3.55850(6) . 4_555 n
Ca Ge 3.55850(6) . 4_556 n
Ca Ge 3.55850(6) . 7_455 n
Ca Ge 3.55850(6) . 7_456 n
Ca Ge 3.55850(6) . 8_445 n
Ca Ge 3.55850(6) . 8_446 n
Ca O1 2.494(6) . 3_555 n
Ca O1 2.494(6) . -3_446 n
Ca O2 2.216(4) . 1_555 n
Ca O2 2.216(4) . 6_555 n
Ca O2 2.216(4) . -1_556 n
Ca O2 2.216(4) . -6_556 n
Er1 Er2 3.525650(20) . 1_555 n
Er1 Er2 3.525650(20) . 5_545 n
Er1 O1 2.494(6) . 3_555 n
Er1 O1 2.494(6) . -3_446 n
Er1 O2 2.216(4) . 1_555 n
Er1 O2 2.216(4) . 6_555 n
Er1 O2 2.216(4) . -1_556 n
Er1 O2 2.216(4) . -6_556 n
Er2 Ca 3.525650(20) . 1_555 n
Er2 Ca 3.525650(20) . 2_555 n
Er2 Ca 3.525650(20) . 3_555 n
Er2 Ca 3.525650(20) . 4_555 n
Er2 Er1 3.525650(20) . 1_555 n
Er2 Er1 3.525650(20) . 2_555 n
Er2 Er1 3.525650(20) . 3_555 n
Er2 Er1 3.525650(20) . 4_555 n
Er2 O2 2.361(4) . 1_555 n
Er2 O2 2.361(4) . 2_555 n
Er2 O2 2.361(4) . 3_555 n
Er2 O2 2.361(4) . 4_555 n
Er2 O2 2.361(4) . -5_556 n
Er2 O2 2.361(4) . -6_556 n
Er2 O2 2.361(4) . -7_556 n
Er2 O2 2.361(4) . -8_556 n
Ge Ca 3.55850(6) . 2_554 n
Ge Ca 3.55850(6) . 2_555 n
Ge Ca 3.55850(6) . 3_554 n
Ge Ca 3.55850(6) . 3_555 n
Ge O1 1.8056(22) . 1_555 n
Ge O1 1.8056(22) . -4_645 n
Ge O2 1.722(4) . 2_555 n
Ge O2 1.722(4) . -8_555 n
O1 Ca 2.494(6) . 3_555 n
O1 Er1 2.494(6) . 3_555 n
O1 Ge 1.8056(22) . 1_555 n
O1 Ge 1.8056(22) . 6_665 n
O2 Ca 2.216(4) . 1_555 n
O2 Er1 2.216(4) . 1_555 n
O2 Er2 2.361(4) . 1_555 n
O2 Ge 1.722(4) . 4_555 n
loop_
_pd_meas_counts_total
_pd_proc_ls_weight
_pd_proc_intensity_bkg_calc
_pd_calc_intensity_total
8083.0 0.0001237 8215.36621 8215.36719
8117.0 0.0001232 8158.25928 8158.25977
8116.0 0.0001232 8103.89111 8103.89160
8073.0 0.0001239 8052.12988 8052.12988
8062.0 0.0001240 8002.84961 8002.84912
7786.0 0.0001284 7955.92627 7955.92529
7811.0 0.0001280 7911.24756 7911.24658
7914.0 0.0001264 7868.69824 7868.69678
7838.0 0.0001276 7828.17480 7828.17285
7865.0 0.0001271 7789.57275 7789.57129
7957.0 0.0001257 7752.79492 7752.79297
7750.0 0.0001290 7717.74707 7717.74512
7579.0 0.0001319 7684.33984 7684.33789
7660.0 0.0001305 7652.48535 7652.48340
7628.0 0.0001311 7622.10449 7622.10205
7532.0 0.0001328 7593.11816 7593.11572
7720.0 0.0001295 7565.44922 7565.44678
7577.0 0.0001320 7539.02832 7539.02588
7462.0 0.0001340 7513.78662 7513.78418
7485.0 0.0001336 7489.65820 7489.65625
7475.0 0.0001338 7466.58203 7466.58008
7465.0 0.0001340 7444.49805 7444.49609
7448.0 0.0001343 7423.35156 7423.34961
7540.0 0.0001326 7403.08789 7403.08594
7345.0 0.0001361 7383.65625 7383.65430
7283.0 0.0001373 7365.00732 7365.00586
7212.0 0.0001387 7347.09717 7347.09521
7391.0 0.0001353 7329.87988 7329.87842
7381.0 0.0001355 7313.31543 7313.31396
7446.0 0.0001343 7297.36328 7297.36182
7230.0 0.0001383 7281.98633 7281.98535
7384.0 0.0001354 7267.15088 7267.14941
7195.0 0.0001390 7252.82227 7252.82129
7320.0 0.0001366 7238.96973 7238.96875
7235.0 0.0001382 7225.56250 7225.56152
7229.0 0.0001383 7212.57275 7212.57178
7246.0 0.0001380 7199.97461 7199.97363
7314.0 0.0001367 7187.74170 7187.74121
7113.0 0.0001406 7175.85107 7175.85059
7155.0 0.0001398 7164.28174 7164.28125
7291.0 0.0001372 7153.01172 7153.01123
7118.0 0.0001405 7142.02148 7142.02148
7140.0 0.0001401 7131.29346 7131.29297
7119.0 0.0001405 7120.81006 7120.81006
7100.0 0.0001408 7110.55469 7110.55469
7006.0 0.0001427 7100.51367 7100.51367
7064.0 0.0001416 7090.67139 7090.67139
7090.0 0.0001410 7081.01660 7081.01660
6999.0 0.0001429 7071.53613 7071.53613
7074.0 0.0001414 7062.21924 7062.21973
7115.0 0.0001405 7053.05518 7053.05566
6974.0 0.0001434 7044.03467 7044.03467
7099.0 0.0001409 7035.14795 7035.14795
6865.0 0.0001457 7026.38770 7026.38818
6795.0 0.0001472 7017.74658 7017.74707
6953.0 0.0001438 7009.21582 7009.21631
7116.0 0.0001405 7000.79199 7000.79199
6990.0 0.0001431 6992.46680 6992.46729
7060.0 0.0001416 6984.23633 6984.23633
6904.0 0.0001448 6976.09570 6976.09619
6948.0 0.0001439 6968.03955 6968.04004
6862.0 0.0001457 6960.06494 6960.06543
6930.0 0.0001443 6952.16846 6952.16846
6895.0 0.0001450 6944.34619 6944.34668
6877.0 0.0001454 6936.59570 6936.59619
6742.0 0.0001483 6928.91553 6928.91602
6927.0 0.0001444 6921.30225 6921.30273
7023.0 0.0001424 6913.75488 6913.75488
7148.0 0.0001399 6906.27100 6906.27100
6993.0 0.0001430 6898.85010 6898.85010
6938.0 0.0001441 6891.48975 6891.48975
6935.0 0.0001442 6884.18994 6884.18994
6946.0 0.0001440 6876.95020 6876.95020
6819.0 0.0001466 6869.76953 6869.76904
6947.0 0.0001439 6862.64746 6862.64697
6799.0 0.0001471 6855.58350 6855.58350
6703.0 0.0001492 6848.57813 6848.57764
6814.0 0.0001468 6841.63037 6841.63037
6841.0 0.0001462 6834.74072 6834.74072
6748.0 0.0001482 6827.90918 6827.90918
6782.0 0.0001474 6821.13574 6821.13525
6884.0 0.0001453 6814.42090 6814.42041
6758.0 0.0001480 6807.76514 6807.76465
6733.0 0.0001485 6801.16797 6801.16748
6745.0 0.0001483 6794.63086 6794.62988
6817.0 0.0001467 6788.15283 6788.15234
6823.0 0.0001466 6781.73535 6781.73438
6657.0 0.0001502 6775.37842 6775.37744
6764.0 0.0001478 6769.08154 6769.08057
6717.0 0.0001489 6762.84619 6762.84521
6778.0 0.0001475 6756.67236 6756.67139
6739.0 0.0001484 6750.56055 6750.55957
6462.0 0.0001548 6744.51123 6744.50977
6590.0 0.0001517 6738.52393 6738.52246
6750.0 0.0001481 6732.59961 6732.59814
6738.0 0.0001484 6726.73779 6726.73633
6735.0 0.0001485 6720.93848 6720.93701
6843.0 0.0001461 6715.20313 6715.20166
6788.0 0.0001473 6709.53076 6709.52930
6595.0 0.0001516 6703.92139 6703.91992
6601.0 0.0001515 6698.37549 6698.37402
6691.0 0.0001495 6692.89258 6692.89111
6616.0 0.0001511 6687.47266 6687.47119
6800.0 0.0001471 6682.11523 6682.11328
6588.0 0.0001518 6676.81982 6676.81787
6736.0 0.0001485 6671.58691 6671.58496
6685.0 0.0001496 6666.41602 6666.41406
6699.0 0.0001493 6661.30566 6661.30371
6441.0 0.0001553 6656.25635 6656.25488
6718.0 0.0001489 6651.26758 6651.26563
6796.0 0.0001471 6646.33789 6646.33594
6581.0 0.0001520 6641.46729 6641.46533
6723.0 0.0001487 6636.65430 6636.65234
6642.0 0.0001506 6631.89844 6631.89648
6750.0 0.0001481 6627.19922 6627.19678
6754.0 0.0001481 6622.55518 6622.55322
6574.0 0.0001521 6617.96582 6617.96387
6675.0 0.0001498 6613.42969 6613.42773
6691.0 0.0001495 6608.94580 6608.94385
6664.0 0.0001501 6604.51318 6604.51074
6581.0 0.0001520 6600.13037 6600.12793
6437.0 0.0001554 6595.79541 6595.79297
6635.0 0.0001507 6591.50830 6591.50586
6555.0 0.0001526 6587.26709 6587.26465
6585.0 0.0001519 6583.07031 6583.06787
6496.0 0.0001539 6578.91650 6578.91406
6480.0 0.0001543 6574.80469 6574.80225
6731.0 0.0001486 6570.73242 6570.72998
6405.0 0.0001561 6566.69824 6566.69629
6474.0 0.0001545 6562.70117 6562.69922
6627.0 0.0001509 6558.73926 6558.73730
6552.0 0.0001526 6554.81104 6554.80908
6655.0 0.0001503 6550.91455 6550.91260
6590.0 0.0001517 6547.04834 6547.04590
6533.0 0.0001531 6543.20996 6543.20801
6667.0 0.0001500 6539.39893 6539.39697
6683.0 0.0001496 6535.61182 6535.60986
6561.0 0.0001524 6531.84814 6531.84619
6658.0 0.0001502 6528.10449 6528.10254
6638.0 0.0001506 6524.38086 6524.37891
6627.0 0.0001509 6520.67480 6520.67285
6539.0 0.0001529 6516.98438 6516.98242
6601.0 0.0001515 6513.30713 6513.30518
6413.0 0.0001559 6509.64160 6509.64014
6530.0 0.0001531 6505.98633 6505.98438
6420.0 0.0001558 6502.33887 6502.33691
6584.0 0.0001519 6498.69678 6498.69482
6527.0 0.0001532 6495.05957 6495.05762
6557.0 0.0001525 6491.42432 6491.42285
6584.0 0.0001519 6487.79004 6487.78857
6573.0 0.0001521 6484.15430 6484.15234
6506.0 0.0001537 6480.51514 6480.51367
6482.0 0.0001543 6476.87061 6476.86914
6568.0 0.0001523 6473.21973 6473.21826
6469.0 0.0001546 6469.55908 6469.55762
6528.0 0.0001532 6465.88867 6465.88721
6551.0 0.0001526 6462.20605 6462.20459
6504.0 0.0001538 6458.50928 6458.50781
6550.0 0.0001527 6454.79688 6454.79541
6464.0 0.0001547 6451.06689 6451.06543
6598.0 0.0001516 6447.31787 6447.31641
6555.0 0.0001526 6443.54785 6443.54639
6383.0 0.0001567 6439.75537 6439.75439
6368.0 0.0001570 6435.93896 6435.93799
6463.0 0.0001547 6432.09717 6432.09619
6529.0 0.0001532 6428.22852 6428.22754
6464.0 0.0001547 6424.33154 6424.33057
6523.0 0.0001533 6420.40430 6420.40332
6369.0 0.0001570 6416.44580 6416.44482
6394.0 0.0001564 6412.45459 6412.45361
6358.0 0.0001573 6408.42920 6408.42871
6530.0 0.0001531 6404.36816 6404.36768
6388.0 0.0001565 6400.27100 6400.27051
6352.0 0.0001574 6396.13623 6396.13574
6364.0 0.0001571 6391.96240 6391.96191
6389.0 0.0001565 6387.74854 6387.74756
6308.0 0.0001585 6383.49316 6383.49268
6352.0 0.0001574 6379.19629 6379.19580
6352.0 0.0001574 6374.85596 6374.85547
6364.0 0.0001571 6370.47119 6370.47070
6299.0 0.0001588 6366.04150 6366.04150
6309.0 0.0001585 6361.56641 6361.56641
6380.0 0.0001567 6357.04492 6357.04443
6382.0 0.0001567 6352.47607 6352.47559
6316.0 0.0001583 6347.85889 6347.85889
6267.0 0.0001596 6343.19287 6343.19287
6393.0 0.0001564 6338.47803 6338.47803
6328.0 0.0001580 6333.71338 6333.71338
6282.0 0.0001592 6328.89795 6328.89795
6186.0 0.0001617 6324.03174 6324.03174
6291.0 0.0001590 6319.11523 6319.11523
6286.0 0.0001591 6314.14648 6314.14648
6368.0 0.0001570 6309.12646 6309.12646
6283.0 0.0001592 6304.05420 6304.05420
6308.0 0.0001585 6298.92969 6298.93018
6229.0 0.0001605 6293.75244 6293.75244
6145.0 0.0001627 6288.52344 6288.52344
6192.0 0.0001615 6283.24170 6283.24170
6336.0 0.0001578 6277.90723 6277.90771
6088.0 0.0001643 6272.52051 6272.52051
6304.0 0.0001586 6267.08105 6267.08154
6355.0 0.0001574 6261.58984 6261.59033
6371.0 0.0001570 6256.04639 6256.04688
6171.0 0.0001620 6250.45117 6250.45166
6202.0 0.0001612 6244.80420 6244.80469
6130.0 0.0001631 6239.10645 6239.10693
6319.0 0.0001583 6233.35791 6233.35840
6066.0 0.0001649 6227.55859 6227.55908
6356.0 0.0001573 6221.70947 6221.70996
6239.0 0.0001603 6215.81152 6215.81201
6231.0 0.0001605 6209.86426 6209.86475
6111.0 0.0001636 6203.86865 6203.86914
6077.0 0.0001646 6197.82568 6197.82617
6083.0 0.0001644 6191.73486 6191.73535
6057.0 0.0001651 6185.59863 6185.59912
6116.0 0.0001635 6179.41650 6179.41748
6105.0 0.0001638 6173.19043 6173.19092
6213.0 0.0001610 6166.91992 6166.92041
6112.0 0.0001636 6160.60645 6160.60693
6084.0 0.0001644 6154.25098 6154.25146
6051.0 0.0001653 6147.85400 6147.85449
6126.0 0.0001632 6141.41699 6141.41748
6064.0 0.0001649 6134.94092 6134.94141
6108.0 0.0001637 6128.42676 6128.42725
6195.0 0.0001614 6121.87549 6121.87598
6103.0 0.0001639 6115.28809 6115.28857
6029.0 0.0001659 6108.66602 6108.66650
6152.0 0.0001625 6102.01025 6102.01074
6034.0 0.0001657 6095.32178 6095.32227
6053.0 0.0001652 6088.60156 6088.60205
6215.0 0.0001609 6081.85156 6081.85254
6149.0 0.0001626 6075.07324 6075.07373
6052.0 0.0001652 6068.26660 6068.26709
6090.0 0.0001642 6061.43457 6061.43506
5864.0 0.0001705 6054.57715 6054.57764
6040.0 0.0001656 6047.69580 6047.69629
5841.0 0.0001712 6040.79297 6040.79346
5958.0 0.0001678 6033.86865 6033.86914
6032.0 0.0001658 6026.92480 6026.92480
5975.0 0.0001674 6019.96338 6019.96387
6040.0 0.0001656 6012.98486 6012.98535
5911.0 0.0001692 6005.99170 6005.99219
5952.0 0.0001680 5998.98438 5998.98486
6119.0 0.0001634 5991.96484 5991.96533
5950.0 0.0001681 5984.93506 5984.93555
5849.0 0.0001710 5977.89502 5977.89551
5910.0 0.0001692 5970.84814 5970.84814
5950.0 0.0001681 5963.79443 5963.79443
5961.0 0.0001678 5956.73633 5956.73633
5912.0 0.0001691 5949.67432 5949.67480
5879.0 0.0001701 5942.61133 5942.61133
5954.0 0.0001680 5935.54736 5935.54736
5968.0 0.0001676 5928.48486 5928.48486
5906.0 0.0001693 5921.42529 5921.42529
5867.0 0.0001704 5914.36963 5914.36963
5958.0 0.0001678 5907.32031 5907.32031
5843.0 0.0001711 5900.27832 5900.27832
5906.0 0.0001693 5893.24512 5893.24512
5998.0 0.0001667 5886.22217 5886.22168
5819.0 0.0001719 5879.21094 5879.21094
5933.0 0.0001685 5872.21338 5872.21338
5900.0 0.0001695 5865.23096 5865.23096
5809.0 0.0001721 5858.26465 5858.26465
5901.0 0.0001695 5851.31543 5851.31543
5805.0 0.0001723 5844.38672 5844.38623
5868.0 0.0001704 5837.47803 5837.47803
5848.0 0.0001710 5830.59229 5830.59180
5745.0 0.0001741 5823.72998 5823.72949
5958.0 0.0001678 5816.89258 5816.89209
5789.0 0.0001727 5810.08203 5810.08154
5647.0 0.0001771 5803.29883 5803.29834
5863.0 0.0001706 5796.54541 5796.54492
5827.0 0.0001716 5789.82275 5789.82178
5745.0 0.0001741 5783.13184 5783.13086
5741.0 0.0001742 5776.47461 5776.47363
5810.0 0.0001721 5769.85156 5769.85107
5756.0 0.0001737 5763.26465 5763.26416
5666.0 0.0001765 5756.71533 5756.71484
5674.0 0.0001762 5750.20459 5750.20361
5805.0 0.0001723 5743.73291 5743.73193
5641.0 0.0001773 5737.30273 5737.30176
5808.0 0.0001722 5730.91455 5730.91357
5692.0 0.0001757 5724.56982 5724.56885
5746.0 0.0001740 5718.26953 5718.26855
5875.0 0.0001702 5712.01514 5712.01416
5802.0 0.0001724 5705.80713 5705.80615
5637.0 0.0001774 5699.64697 5699.64600
5742.0 0.0001742 5693.53564 5693.53467
5729.0 0.0001746 5687.47363 5687.47266
5745.0 0.0001741 5681.46289 5681.46191
5667.0 0.0001765 5675.50439 5675.50293
5729.0 0.0001746 5669.59863 5669.59717
5818.0 0.0001719 5663.74609 5663.74463
5749.0 0.0001739 5657.94824 5657.94727
5652.0 0.0001769 5652.20605 5652.20459
5633.0 0.0001775 5646.51953 5646.51855
5665.0 0.0001765 5640.89063 5640.88916
5632.0 0.0001776 5635.31982 5635.31836
5568.0 0.0001796 5629.80713 5629.80566
5737.0 0.0001743 5624.35400 5624.35254
5579.0 0.0001792 5618.96094 5618.95947
5614.0 0.0001781 5613.62842 5613.62695
5569.0 0.0001796 5608.35693 5608.35547
5626.0 0.0001777 5603.14697 5603.14551
5742.0 0.0001742 5598.00000 5597.99854
5604.0 0.0001784 5592.91553 5592.91406
5611.0 0.0001782 5587.89502 5587.89355
5547.0 0.0001803 5582.93799 5582.93652
5515.0 0.0001813 5578.04590 5578.04443
5499.0 0.0001819 5573.21826 5573.21631
5590.0 0.0001789 5568.45557 5568.45410
5616.0 0.0001781 5563.75781 5563.75586
5619.0 0.0001780 5559.12646 5559.12451
5666.0 0.0001765 5554.56104 5554.55908
5643.0 0.0001772 5550.06201 5550.06006
5557.0 0.0001800 5545.62891 5545.62744
5647.0 0.0001771 5541.26318 5541.26123
5604.0 0.0001784 5536.96387 5536.96191
5578.0 0.0001793 5532.73145 5532.72949
5651.0 0.0001770 5528.56592 5528.56396
5516.0 0.0001813 5524.46729 5524.46582
5659.0 0.0001767 5520.43555 5520.43359
5459.0 0.0001832 5516.47119 5516.46924
5492.0 0.0001821 5512.57373 5512.57178
5569.0 0.0001796 5508.74316 5508.74121
5618.0 0.0001780 5504.97949 5504.97754
5510.0 0.0001815 5501.28223 5501.28027
5434.0 0.0001840 5497.65137 5497.64941
5454.0 0.0001834 5494.08643 5494.08447
5572.0 0.0001795 5490.58789 5490.58643
5415.0 0.0001847 5487.15527 5487.15332
5470.0 0.0001828 5483.78809 5483.78662
5545.0 0.0001803 5480.48584 5480.48438
5562.0 0.0001798 5477.24902 5477.24707
5629.0 0.0001777 5474.07568 5474.07373
5458.0 0.0001832 5470.96680 5470.96484
5492.0 0.0001821 5467.92090 5467.91895
5580.0 0.0001792 5464.93848 5464.93701
5554.0 0.0001801 5462.01904 5462.01709
5475.0 0.0001826 5459.16113 5459.15918
5459.0 0.0001832 5456.36475 5456.36279
5443.0 0.0001837 5453.62891 5453.62695
5434.0 0.0001840 5450.95361 5450.95215
5490.0 0.0001821 5448.33838 5448.33643
5473.0 0.0001827 5445.78174 5445.77979
5467.0 0.0001829 5443.28369 5443.28174
5340.0 0.0001873 5440.84229 5440.84082
5396.0 0.0001853 5438.45850 5438.45654
5381.0 0.0001858 5436.13037 5436.12891
5479.0 0.0001825 5433.85791 5433.85645
5607.0 0.0001783 5431.64014 5431.63818
5387.0 0.0001856 5429.47559 5429.47363
5567.0 0.0001796 5427.36377 5427.36230
5447.0 0.0001836 5425.30371 5425.30225
5528.0 0.0001809 5423.29492 5423.29346
5426.0 0.0001843 5421.33643 5421.33496
5407.0 0.0001849 5419.42676 5419.42529
5364.0 0.0001864 5417.56543 5417.56396
5325.0 0.0001878 5415.75098 5415.74951
5463.0 0.0001830 5413.98291 5413.98145
5524.0 0.0001810 5412.26025 5412.25879
5414.0 0.0001847 5410.58105 5410.57959
5452.0 0.0001834 5408.94531 5408.94385
5211.0 0.0001919 5407.35156 5407.35010
5454.0 0.0001834 5405.79883 5405.79736
5441.0 0.0001838 5404.28564 5404.28467
5521.0 0.0001811 5402.81152 5402.81006
5461.0 0.0001831 5401.37451 5401.37305
5356.0 0.0001867 5399.97412 5399.97266
5372.0 0.0001862 5398.60889 5398.60742
5439.0 0.0001839 5397.27734 5397.27637
5318.0 0.0001880 5395.97852 5395.97754
5458.0 0.0001832 5394.71143 5394.71045
5398.0 0.0001853 5393.47510 5393.47412
5348.0 0.0001870 5392.26758 5392.26709
5318.0 0.0001880 5391.08838 5391.08740
5296.0 0.0001888 5389.93555 5389.93506
5422.0 0.0001844 5388.80811 5388.80762
5378.0 0.0001859 5387.70459 5387.70410
5355.0 0.0001867 5386.62402 5386.62354
5446.0 0.0001836 5385.56543 5385.56494
5404.0 0.0001850 5384.52686 5384.52637
5404.0 0.0001850 5383.50732 5383.50684
5469.0 0.0001828 5382.50537 5382.50488
5236.0 0.0001910 5381.51953 5381.51904
5293.0 0.0001889 5380.54932 5380.54883
5300.0 0.0001887 5379.59180 5379.59180
5365.0 0.0001864 5378.64746 5378.64697
5383.0 0.0001858 5377.71387 5377.71338
5244.0 0.0001907 5376.79004 5376.78955
5334.0 0.0001875 5375.87451 5375.87451
5342.0 0.0001872 5374.96631 5374.96631
5283.0 0.0001893 5374.06348 5374.06348
5335.0 0.0001874 5373.16504 5373.16504
5336.0 0.0001874 5372.26953 5372.26953
5384.0 0.0001857 5371.37549 5371.37549
5350.0 0.0001869 5370.48193 5370.48193
5389.0 0.0001856 5369.58691 5369.58740
5260.0 0.0001901 5368.68994 5368.69043
5467.0 0.0001829 5367.78955 5367.79004
5307.0 0.0001884 5366.88379 5366.88428
5427.0 0.0001843 5365.97168 5365.97217
5446.0 0.0001836 5365.05176 5365.05225
5309.0 0.0001884 5364.12256 5364.12305
5331.0 0.0001876 5363.18311 5363.18408
5301.0 0.0001886 5362.23242 5362.23340
5270.0 0.0001898 5361.26855 5361.26953
5336.0 0.0001874 5360.29053 5360.29150
5359.0 0.0001866 5359.29688 5359.29736
5379.0 0.0001859 5358.28613 5358.28711
5394.0 0.0001854 5357.25732 5357.25830
5305.0 0.0001885 5356.20898 5356.20996
5281.0 0.0001894 5355.14014 5355.14111
5353.0 0.0001868 5354.04932 5354.05078
5461.0 0.0001831 5352.93555 5352.93652
5343.0 0.0001872 5351.79736 5351.79834
5276.0 0.0001895 5350.63330 5350.63477
5341.0 0.0001872 5349.44238 5349.44385
5365.0 0.0001864 5348.22363 5348.22510
5388.0 0.0001856 5346.97559 5346.97705
5404.0 0.0001850 5345.69727 5345.69873
5454.0 0.0001834 5344.38672 5344.38818
5399.0 0.0001852 5343.04395 5343.04590
5244.0 0.0001907 5341.66748 5341.66895
5272.0 0.0001897 5340.25586 5340.25781
5287.0 0.0001891 5338.80811 5338.81006
5272.0 0.0001897 5337.32324 5337.32520
5281.0 0.0001894 5335.79980 5335.80176
5421.0 0.0001845 5334.23682 5334.23877
5362.0 0.0001865 5332.63379 5332.63574
5323.0 0.0001879 5330.98926 5330.99170
5422.0 0.0001844 5329.30225 5329.30469
5464.0 0.0001830 5327.57227 5327.57422
5261.0 0.0001901 5325.79736 5325.79932
5296.0 0.0001888 5323.97705 5323.97900
5314.0 0.0001882 5322.11035 5322.11279
5341.0 0.0001872 5320.19580 5320.19824
5439.0 0.0001839 5318.23340 5318.23584
5281.0 0.0001894 5316.22217 5316.22461
5347.0 0.0001870 5314.16064 5314.16309
5385.0 0.0001857 5312.04834 5312.05078
5324.0 0.0001878 5309.88428 5309.88672
5356.0 0.0001867 5307.66748 5307.67041
5272.0 0.0001897 5305.39746 5305.40039
5192.0 0.0001926 5303.07324 5303.07617
5425.0 0.0001843 5300.69434 5300.69727
5356.0 0.0001867 5298.25928 5298.26221
5206.0 0.0001921 5295.76807 5295.77148
5317.0 0.0001881 5293.21973 5293.22314
5333.0 0.0001875 5290.61377 5290.61719
5414.0 0.0001847 5287.94971 5287.95264
5343.0 0.0001872 5285.22607 5285.22949
5276.0 0.0001895 5282.44287 5282.44629
5229.0 0.0001912 5279.59863 5279.60205
5228.0 0.0001913 5276.69434 5276.69775
5280.0 0.0001894 5273.72852 5273.73193
5303.0 0.0001886 5270.70068 5270.70410
5235.0 0.0001910 5267.60986 5267.61377
5252.0 0.0001904 5264.45654 5264.46045
5409.0 0.0001849 5261.23975 5261.24316
5150.0 0.0001942 5257.95898 5257.96240
5281.0 0.0001894 5254.61328 5254.61719
5128.0 0.0001950 5251.20313 5251.20703
5212.0 0.0001919 5247.72803 5247.73193
5306.0 0.0001885 5244.18750 5244.19141
5157.0 0.0001939 5240.58105 5240.58496
5200.0 0.0001923 5236.90869 5236.91260
5200.0 0.0001923 5233.16943 5233.17334
5189.0 0.0001927 5229.36377 5229.36768
5200.0 0.0001923 5225.49072 5225.49463
5150.0 0.0001942 5221.55127 5221.55518
5227.0 0.0001913 5217.54297 5217.54736
5340.0 0.0001873 5213.46826 5213.47266
5198.0 0.0001924 5209.32568 5209.33008
5039.0 0.0001985 5205.11475 5205.11914
5079.0 0.0001969 5200.83643 5200.84082
5140.0 0.0001946 5196.48975 5196.49414
5097.0 0.0001962 5192.07471 5192.07910
5180.0 0.0001931 5187.59131 5187.59570
5055.0 0.0001978 5183.04004 5183.04443
5044.0 0.0001983 5178.42041 5178.42480
5056.0 0.0001978 5173.73291 5173.73730
5207.0 0.0001920 5168.97705 5168.98145
5061.0 0.0001976 5164.15283 5164.15771
5131.0 0.0001949 5159.26074 5159.26563
5133.0 0.0001948 5154.30078 5154.30566
5247.0 0.0001906 5149.27246 5149.27734
5052.0 0.0001979 5144.17725 5144.18213
5060.0 0.0001976 5139.01416 5139.01904
5171.0 0.0001934 5133.78418 5133.78906
5091.0 0.0001964 5128.48730 5128.49219
5087.0 0.0001966 5123.12305 5123.12793
5118.0 0.0001954 5117.69238 5165.48340
4983.0 0.0002007 5112.19580 5162.79492
4956.0 0.0002018 5106.63232 5160.29395
5052.0 0.0001979 5101.00391 5158.01416
4943.0 0.0002023 5095.31006 5155.99219
5013.0 0.0001995 5089.55127 5154.27148
4989.0 0.0002004 5083.72754 5152.90186
4968.0 0.0002013 5077.83984 5151.94336
5032.0 0.0001987 5071.88818 5151.46680
4935.0 0.0002026 5065.87354 5151.55518
5001.0 0.0002000 5059.79590 5152.30908
5061.0 0.0001976 5053.65527 5153.84863
5107.0 0.0001958 5047.45313 5156.32227
5026.0 0.0001990 5041.18945 5159.90820
4953.0 0.0002019 5034.86523 5164.82861
4969.0 0.0002012 5028.48047 5171.35889
5104.0 0.0001959 5022.03613 5179.84668
5008.0 0.0001997 5015.53271 5190.73389
5055.0 0.0001978 5008.97021 5204.58838
5211.0 0.0001919 5002.34961 5222.15088
5312.0 0.0001883 4995.67236 5244.40381
5384.0 0.0001857 4988.93799 5272.66553
5421.0 0.0001845 4982.14795 5308.75293
5633.0 0.0001775 4975.30273 5355.26563
5930.0 0.0001686 4968.40283 5416.29297
6229.0 0.0001605 4961.44873 5499.51367
6505.0 0.0001537 4954.44141 5622.51855
7024.0 0.0001424 4947.38184 5829.00732
7654.0 0.0001307 4940.27051 6221.28076
8762.0 0.0001141 4933.10840 7006.45361
10021.0 0.0000998 4925.89648 8529.16406
11800.0 0.0000847 4918.63477 11227.72363
14665.0 0.0000682 4911.32520 15420.98047
18602.0 0.0000538 4903.96777 20878.72461
23869.0 0.0000419 4896.56348 26491.38867
28662.0 0.0000349 4889.11328 30451.80664
30981.0 0.0000323 4881.61768 30644.73438
27947.0 0.0000358 4874.07861 26569.57422
21753.0 0.0000460 4866.49609 20389.18555
15300.0 0.0000654 4858.87109 14564.94238
10493.0 0.0000953 4851.20459 10340.24316
7921.0 0.0001262 4843.49805 7821.35742
6532.0 0.0001531 4835.75146 6528.32666
5710.0 0.0001751 4827.96631 5913.96973
5499.0 0.0001819 4820.14307 5610.40576
5145.0 0.0001944 4812.28418 5435.68262
5180.0 0.0001931 4804.38916 5316.73389
5105.0 0.0001959 4796.45947 5226.82764
4916.0 0.0002034 4788.49561 5155.30957
4857.0 0.0002059 4780.50000 5096.79639
4810.0 0.0002079 4772.47168 5047.93408
4850.0 0.0002062 4764.41357 5006.41211
4807.0 0.0002080 4756.32471 4970.56836
4636.0 0.0002157 4748.20850 4939.18506
4828.0 0.0002071 4740.06396 4911.35010
4676.0 0.0002139 4731.89355 4886.37061
4736.0 0.0002111 4723.69727 4863.71387
4597.0 0.0002175 4715.47705 4842.96533
4550.0 0.0002198 4707.23291 4823.79639
4800.0 0.0002083 4698.96680 4805.94824
4696.0 0.0002129 4690.67969 4789.20996
4603.0 0.0002172 4682.37207 4773.41260
4689.0 0.0002133 4674.04590 4758.41748
4592.0 0.0002178 4665.70215 4744.10938
4590.0 0.0002179 4657.34131 4730.39404
4512.0 0.0002216 4648.96484 4717.19238
4690.0 0.0002132 4640.57373 4704.43799
4640.0 0.0002155 4632.16943 4692.07520
4645.0 0.0002153 4623.75293 4680.05615
4702.0 0.0002127 4615.32422 4668.34082
4505.0 0.0002220 4606.88623 4656.89502
4534.0 0.0002206 4598.43896 4598.44336
4517.0 0.0002214 4589.98438 4589.98828
4543.0 0.0002201 4581.52197 4581.52637
4626.0 0.0002162 4573.05469 4573.05908
4511.0 0.0002217 4564.58301 4564.58691
4507.0 0.0002219 4556.10742 4556.11182
4594.0 0.0002177 4547.62939 4547.63330
4414.0 0.0002266 4539.15088 4539.15479
4427.0 0.0002259 4530.67139 4530.67529
4540.0 0.0002203 4522.19385 4522.19775
4561.0 0.0002193 4513.71826 4513.72217
4519.0 0.0002213 4505.24609 4505.25000
4528.0 0.0002208 4496.77783 4496.78174
4494.0 0.0002225 4488.31543 4488.31885
4657.0 0.0002147 4479.85938 4479.86279
4573.0 0.0002187 4471.41064 4471.41455
4587.0 0.0002180 4462.97119 4462.97510
4632.0 0.0002159 4454.54199 4454.54541
4605.0 0.0002172 4446.12354 4446.12695
4508.0 0.0002218 4437.71680 4437.72021
4594.0 0.0002177 4429.32373 4429.32715
4388.0 0.0002279 4420.94434 4420.94775
4468.0 0.0002238 4412.58105 4412.58398
4419.0 0.0002263 4404.23291 4404.23633
4429.0 0.0002258 4395.90283 4395.90625
4300.0 0.0002326 4387.59131 4387.59473
4382.0 0.0002282 4379.29932 4379.30273
4462.0 0.0002241 4371.02783 4371.03125
4311.0 0.0002320 4362.77832 4362.78125
4377.0 0.0002285 4354.55127 4354.55420
4353.0 0.0002297 4346.34766 4346.35059
4411.0 0.0002267 4338.16846 4338.17139
4340.0 0.0002304 4330.01563 4330.01855
4343.0 0.0002303 4321.88867 4321.89160
4423.0 0.0002261 4313.79004 4313.79297
4475.0 0.0002235 4305.72021 4305.72266
4456.0 0.0002244 4297.67969 4297.68213
4511.0 0.0002217 4289.66992 4289.67236
4444.0 0.0002250 4281.69092 4281.69336
4491.0 0.0002227 4273.74561 4273.74805
4210.0 0.0002375 4265.83252 4265.83496
4287.0 0.0002333 4257.95459 4257.95703
4206.0 0.0002378 4250.11182 4250.11426
4263.0 0.0002346 4242.30518 4242.30762
4287.0 0.0002333 4234.53564 4234.53809
4247.0 0.0002355 4226.80420 4226.80664
4132.0 0.0002420 4219.11133 4219.11377
4103.0 0.0002437 4211.45898 4211.46094
4216.0 0.0002372 4203.84619 4203.84814
4185.0 0.0002389 4196.27490 4196.27734
4093.0 0.0002443 4188.74609 4188.74854
4129.0 0.0002422 4181.26074 4181.26270
4049.0 0.0002470 4173.81885 4173.82080
4177.0 0.0002394 4166.42188 4166.42383
4109.0 0.0002434 4159.07031 4159.07227
4145.0 0.0002413 4151.76514 4151.76660
4153.0 0.0002408 4144.50586 4144.50781
4192.0 0.0002385 4137.29541 4137.29736
4120.0 0.0002427 4130.13330 4130.13477
4110.0 0.0002433 4123.02051 4123.02197
4112.0 0.0002432 4115.95703 4115.95898
4093.0 0.0002443 4108.94482 4108.94629
4090.0 0.0002445 4101.98340 4101.98486
4052.0 0.0002468 4095.07373 4095.07520
4038.0 0.0002476 4088.21753 4088.21899
4006.0 0.0002496 4081.41357 4081.41504
4087.0 0.0002447 4074.66406 4074.66553
4063.0 0.0002461 4067.96899 4067.97021
4177.0 0.0002394 4061.32886 4061.33032
4037.0 0.0002477 4054.74463 4054.74585
4154.0 0.0002407 4048.21655 4048.21777
3986.0 0.0002509 4041.74512 4041.74634
3946.0 0.0002534 4035.33130 4035.33252
4170.0 0.0002398 4028.97485 4028.97583
4138.0 0.0002417 4022.67700 4022.67822
4013.0 0.0002492 4016.43823 4016.43921
4169.0 0.0002399 4010.25879 4010.25977
4169.0 0.0002399 4004.13916 4004.14014
4066.0 0.0002459 3998.07983 3998.08081
4264.0 0.0002345 3992.08105 3992.08203
4380.0 0.0002283 3986.14380 3986.14453
4391.0 0.0002277 3980.26733 3980.26807
4452.0 0.0002246 3974.45361 3974.45410
4310.0 0.0002320 3968.70190 3968.70264
4340.0 0.0002304 3963.01294 3963.01367
4251.0 0.0002352 3957.38696 3957.38770
4066.0 0.0002459 3951.82471 3951.82520
4058.0 0.0002464 3946.32593 3946.32642
4082.0 0.0002450 3940.89063 3940.89111
3935.0 0.0002541 3935.52026 3935.52051
3976.0 0.0002515 3930.21411 3930.21460
4014.0 0.0002491 3924.97314 3924.97339
3917.0 0.0002553 3919.79688 3919.79736
3933.0 0.0002543 3914.68628 3914.68652
4064.0 0.0002461 3909.64087 3909.64111
3908.0 0.0002559 3904.66138 3904.66162
3800.0 0.0002632 3899.74780 3899.74780
3938.0 0.0002539 3894.90015 3894.90015
4019.0 0.0002488 3890.11816 3890.11816
3864.0 0.0002588 3885.40308 3885.40308
3941.0 0.0002537 3880.75415 3880.75439
4007.0 0.0002496 3876.17212 3876.17212
3968.0 0.0002520 3871.65649 3871.65649
3896.0 0.0002567 3867.20776 3867.20776
4048.0 0.0002470 3862.82544 3862.82544
3918.0 0.0002552 3858.51025 3858.51025
3891.0 0.0002570 3854.26147 3854.26123
3969.0 0.0002520 3850.07983 3850.07959
3888.0 0.0002572 3845.96484 3845.96484
3869.0 0.0002585 3841.91699 3841.91675
3734.0 0.0002678 3837.93579 3837.93555
3872.0 0.0002583 3834.02124 3834.02100
3888.0 0.0002572 3830.17358 3830.17310
3818.0 0.0002619 3826.39185 3826.39160
3894.0 0.0002568 3822.67725 3822.67700
3887.0 0.0002573 3819.02881 3819.02856
3829.0 0.0002612 3815.44678 3815.44653
3870.0 0.0002584 3811.93091 3811.93066
3882.0 0.0002576 3808.48120 3808.48071
3853.0 0.0002595 3805.09692 3805.09668
3752.0 0.0002665 3801.77856 3801.77808
3873.0 0.0002582 3798.52563 3798.52515
3728.0 0.0002682 3795.33789 3795.33740
3795.0 0.0002635 3792.21484 3792.21436
3830.0 0.0002611 3789.15698 3789.15625
3921.0 0.0002550 3786.16357 3786.16284
3806.0 0.0002627 3783.23438 3783.23389
3778.0 0.0002647 3780.36938 3780.36865
3741.0 0.0002673 3777.56812 3777.56738
3707.0 0.0002698 3774.83008 3774.82935
3707.0 0.0002698 3772.15527 3772.15454
3766.0 0.0002655 3769.54272 3769.54199
3771.0 0.0002652 3766.99292 3766.99219
3716.0 0.0002691 3764.50537 3764.50464
3733.0 0.0002679 3762.07959 3762.07886
3802.0 0.0002630 3759.71484 3759.71411
3732.0 0.0002680 3757.41138 3757.41040
3735.0 0.0002677 3755.16821 3755.16724
3812.0 0.0002623 3752.98486 3752.98389
3740.0 0.0002674 3750.86133 3750.86060
3758.0 0.0002661 3748.79736 3748.79639
3755.0 0.0002663 3746.79199 3746.79102
3700.0 0.0002703 3744.84497 3744.84424
3614.0 0.0002767 3742.95581 3742.95483
3703.0 0.0002701 3741.12402 3741.12305
3770.0 0.0002653 3739.34912 3739.34839
3800.0 0.0002632 3737.63062 3737.62964
3724.0 0.0002685 3735.96753 3735.96655
3802.0 0.0002630 3734.36035 3734.35962
3618.0 0.0002764 3732.80762 3732.80664
3738.0 0.0002675 3731.30908 3731.30811
3690.0 0.0002710 3729.86426 3729.86328
3727.0 0.0002683 3728.47266 3728.47168
3678.0 0.0002719 3727.13330 3727.13232
3710.0 0.0002695 3725.84595 3725.84497
3644.0 0.0002744 3724.60962 3724.60864
3728.0 0.0002682 3723.42480 3723.42383
3655.0 0.0002736 3722.28931 3722.28833
3658.0 0.0002734 3721.20337 3721.20239
3716.0 0.0002691 3720.16650 3720.16553
3636.0 0.0002750 3719.17749 3719.17651
3727.0 0.0002683 3718.23633 3718.23535
3568.0 0.0002803 3717.34180 3717.34082
3754.0 0.0002664 3716.49316 3716.49219
3619.0 0.0002763 3715.69043 3715.68945
3631.0 0.0002754 3714.93237 3714.93140
3626.0 0.0002758 3714.21851 3714.21753
3616.0 0.0002765 3713.54834 3713.66992
3732.0 0.0002680 3712.92041 3713.04785
3642.0 0.0002746 3712.33472 3712.46777
3669.0 0.0002726 3711.79004 3711.92969
3643.0 0.0002745 3711.28613 3711.43237
3679.0 0.0002718 3710.82178 3710.97534
3628.0 0.0002756 3710.39673 3710.55811
3670.0 0.0002725 3710.00952 3710.17944
3663.0 0.0002730 3709.66040 3709.83936
3569.0 0.0002802 3709.34790 3709.53662
3590.0 0.0002786 3709.07129 3709.27075
3488.0 0.0002867 3708.83008 3709.04102
3673.0 0.0002723 3708.62354 3708.84717
3647.0 0.0002742 3708.44995 3708.68726
3740.0 0.0002674 3708.31006 3711.03418
3596.0 0.0002781 3708.20166 3711.05493
3703.0 0.0002701 3708.12500 3711.11719
3639.0 0.0002748 3708.07886 3711.21997
3599.0 0.0002779 3708.06201 3711.36401
3680.0 0.0002717 3708.07422 3711.55005
3606.0 0.0002773 3708.11475 3711.77881
3536.0 0.0002828 3708.18213 3712.05029
3677.0 0.0002720 3708.27637 3712.36670
3655.0 0.0002736 3708.39600 3712.72852
3588.0 0.0002787 3708.54077 3713.13818
3563.0 0.0002807 3708.70923 3713.59814
3643.0 0.0002745 3708.90088 3714.11011
3663.0 0.0002730 3709.11475 3714.67847
3681.0 0.0002717 3709.35034 3715.30786
3546.0 0.0002820 3709.60645 3716.00317
3656.0 0.0002735 3709.88208 3716.77173
3571.0 0.0002800 3710.17700 3717.62256
3534.0 0.0002830 3710.48975 3718.56738
3598.0 0.0002779 3710.82007 3719.62085
3614.0 0.0002767 3711.16675 3720.80396
3546.0 0.0002820 3711.52881 3722.14551
3606.0 0.0002773 3711.90576 3723.69434
3500.0 0.0002857 3712.29663 3725.54834
3639.0 0.0002748 3712.70020 3727.93701
3562.0 0.0002807 3713.11646 3731.39868
3666.0 0.0002728 3713.54346 3737.03223
3612.0 0.0002769 3713.98145 3746.63965
3697.0 0.0002705 3714.42896 3762.29883
3680.0 0.0002717 3714.88525 3784.93335
3670.0 0.0002725 3715.34961 3812.11060
3716.0 0.0002691 3715.82104 3836.78979
3692.0 0.0002709 3716.29858 3849.36084
3747.0 0.0002669 3716.78174 3844.21362
3767.0 0.0002655 3717.26929 3827.50366
3722.0 0.0002687 3717.76074 3810.83862
3742.0 0.0002672 3718.25513 3802.34058
3742.0 0.0002672 3718.75146 3806.71997
3753.0 0.0002665 3719.24902 3829.92432
3814.0 0.0002622 3719.74731 3885.97607
3891.0 0.0002570 3720.24487 4002.70068
4003.0 0.0002498 3720.74097 4219.00244
4391.0 0.0002277 3721.23560 4564.38525
4933.0 0.0002027 3721.72656 5019.11768
5213.0 0.0001918 3722.21460 5476.28467
5550.0 0.0001802 3722.69775 5754.02197
5649.0 0.0001770 3723.17554 5688.04150
5296.0 0.0001888 3723.64722 5306.37793
4713.0 0.0002122 3724.11230 4816.43164
4205.0 0.0002378 3724.56909 4391.91162
4028.0 0.0002483 3725.01782 4101.04150
3857.0 0.0002593 3725.45654 3934.53931
3686.0 0.0002713 3725.88599 3850.86328
3712.0 0.0002694 3726.30420 3810.83276
3661.0 0.0002731 3726.71045 3790.36060
3739.0 0.0002675 3727.10449 3778.15820
3590.0 0.0002786 3727.48560 3769.78223
3628.0 0.0002756 3727.85205 3763.55469
3695.0 0.0002706 3728.20435 3758.74878
3600.0 0.0002778 3728.54077 3754.96362
3555.0 0.0002813 3728.86133 3751.93823
3658.0 0.0002734 3729.16479 3749.48999
3666.0 0.0002728 3729.45068 3747.48584
3759.0 0.0002660 3729.71777 3745.82813
3644.0 0.0002744 3729.96606 3744.44263
3686.0 0.0002713 3730.19409 3743.27319
3623.0 0.0002760 3730.40186 3742.27563
3673.0 0.0002723 3730.58838 3741.41577
3641.0 0.0002746 3730.75244 3740.46777
3688.0 0.0002711 3730.89429 3739.81689
3730.0 0.0002681 3731.01270 3739.23560
3732.0 0.0002680 3731.10693 3738.70898
3657.0 0.0002734 3731.17651 3738.22534
3675.0 0.0002721 3731.22070 3737.77466
3731.0 0.0002680 3731.23853 3737.34766
3709.0 0.0002696 3731.23022 3736.93823
3720.0 0.0002688 3731.19409 3736.53906
3685.0 0.0002714 3731.13037 3736.14575
3775.0 0.0002649 3731.03809 3735.75342
3735.0 0.0002677 3730.91626 3735.35767
3753.0 0.0002665 3730.76489 3734.95557
3712.0 0.0002694 3730.58301 3734.54370
3812.0 0.0002623 3730.36963 3734.11865
3726.0 0.0002684 3730.12524 3733.67920
3757.0 0.0002662 3729.84839 3733.22192
3703.0 0.0002701 3729.53906 3732.74561
3754.0 0.0002664 3729.19629 3732.24805
3760.0 0.0002660 3728.81958 3731.72729
3782.0 0.0002644 3728.40845 3731.18213
3719.0 0.0002689 3727.96240 3730.61108
3794.0 0.0002636 3727.48071 3730.01270
3731.0 0.0002680 3726.96313 3726.96387
3699.0 0.0002703 3726.40942 3726.41016
3856.0 0.0002593 3725.81787 3725.81885
3769.0 0.0002653 3725.18945 3725.19019
3795.0 0.0002635 3724.52295 3724.52368
3740.0 0.0002674 3723.81763 3723.81860
3755.0 0.0002663 3723.07373 3723.07471
3828.0 0.0002612 3722.29028 3722.29126
3811.0 0.0002624 3721.46680 3721.46777
3826.0 0.0002614 3720.60352 3720.60449
3718.0 0.0002690 3719.69897 3719.69995
3876.0 0.0002580 3718.75391 3718.75488
3813.0 0.0002623 3717.76685 3717.76782
3824.0 0.0002615 3716.73804 3716.73901
3789.0 0.0002639 3715.66675 3715.66797
3796.0 0.0002634 3714.55298 3714.55420
3885.0 0.0002574 3713.39575 3713.39673
3879.0 0.0002578 3712.19531 3712.19653
3756.0 0.0002662 3710.95117 3710.95215
3810.0 0.0002625 3709.66284 3709.66406
3896.0 0.0002567 3708.33008 3708.33130
3871.0 0.0002583 3706.95239 3706.95361
3941.0 0.0002537 3705.52979 3705.53101
3883.0 0.0002575 3704.06177 3704.06274
3956.0 0.0002528 3702.54761 3702.54883
3949.0 0.0002532 3700.98779 3700.98901
3941.0 0.0002537 3699.38208 3699.38330
3899.0 0.0002565 3697.72900 3697.73047
3802.0 0.0002630 3696.02979 3696.03101
3708.0 0.0002697 3694.28345 3694.28467
3909.0 0.0002558 3692.48975 3692.49097
3953.0 0.0002530 3690.64868 3690.64990
3912.0 0.0002556 3688.75977 3688.76123
4004.0 0.0002498 3686.82275 3686.82422
3962.0 0.0002524 3684.83838 3684.83984
3805.0 0.0002628 3682.80493 3682.80640
3919.0 0.0002552 3680.72363 3680.72485
3840.0 0.0002604 3678.59351 3678.59473
3817.0 0.0002620 3676.41455 3676.41602
3831.0 0.0002610 3674.18677 3674.18823
3914.0 0.0002555 3671.90991 3671.91138
3748.0 0.0002668 3669.58374 3669.58521
3809.0 0.0002625 3667.20850 3667.20996
3782.0 0.0002644 3664.78394 3664.78540
3811.0 0.0002624 3662.30981 3662.31128
3874.0 0.0002581 3659.78613 3659.78760
3839.0 0.0002605 3657.21289 3657.21436
3745.0 0.0002670 3654.58984 3654.59131
3842.0 0.0002603 3651.91699 3651.91870
3701.0 0.0002702 3649.19434 3649.19580
3653.0 0.0002737 3646.42188 3646.42334
3761.0 0.0002659 3643.59985 3643.60132
3786.0 0.0002641 3640.72754 3640.72925
3837.0 0.0002606 3637.80566 3637.80713
3819.0 0.0002618 3634.83374 3634.83545
3751.0 0.0002666 3631.81226 3631.81372
3837.0 0.0002606 3628.74048 3628.74219
3795.0 0.0002635 3625.61914 3625.62085
3717.0 0.0002690 3622.44775 3622.44946
3763.0 0.0002657 3619.22754 3619.22900
3718.0 0.0002690 3615.95654 3615.95825
3721.0 0.0002687 3612.63647 3612.63818
3642.0 0.0002746 3609.26709 3609.26880
3607.0 0.0002772 3605.84814 3605.84985
3700.0 0.0002703 3602.37988 3602.38159
3684.0 0.0002714 3598.86255 3598.86401
3818.0 0.0002619 3595.29565 3595.29736
3768.0 0.0002654 3591.67993 3591.68164
3646.0 0.0002743 3588.01587 3588.01758
3881.0 0.0002577 3584.30273 3584.30444
3664.0 0.0002729 3580.54126 3580.54297
3676.0 0.0002720 3576.73120 3576.73291
3652.0 0.0002738 3572.87329 3572.87500
3596.0 0.0002781 3568.96704 3568.96875
3602.0 0.0002776 3565.01270 3565.01440
3607.0 0.0002772 3561.01099 3561.01270
3602.0 0.0002776 3556.96216 3556.96387
3635.0 0.0002751 3552.86572 3552.86743
3741.0 0.0002673 3548.72241 3548.72412
3572.0 0.0002800 3544.53223 3544.53394
3613.0 0.0002768 3540.29590 3540.29761
3546.0 0.0002820 3536.01294 3536.01465
3562.0 0.0002807 3531.68384 3531.68579
3492.0 0.0002864 3527.30884 3527.31055
3544.0 0.0002822 3522.88916 3522.89087
3600.0 0.0002778 3518.42334 3518.42505
3511.0 0.0002848 3513.91260 3513.91455
3545.0 0.0002821 3509.35767 3509.35938
3527.0 0.0002835 3504.75830 3504.76025
3462.0 0.0002889 3500.11475 3500.11646
3440.0 0.0002907 3495.42749 3495.42920
3523.0 0.0002838 3490.69653 3490.69824
3549.0 0.0002818 3485.92285 3485.92456
3613.0 0.0002768 3481.10645 3481.10815
3519.0 0.0002842 3476.24756 3476.24927
3477.0 0.0002876 3471.34644 3471.34814
3505.0 0.0002853 3466.40381 3466.40552
3481.0 0.0002873 3461.42017 3461.42188
3420.0 0.0002924 3456.39502 3456.39673
3485.0 0.0002869 3451.32910 3451.33081
3513.0 0.0002847 3446.22314 3508.30103
3507.0 0.0002851 3441.07788 3505.97363
3403.0 0.0002939 3435.89282 3503.80249
3417.0 0.0002927 3430.66870 3501.80688
3474.0 0.0002879 3425.40601 3500.00830
3450.0 0.0002899 3420.10547 3498.43066
3461.0 0.0002889 3414.76685 3497.10059
3470.0 0.0002882 3409.39087 3496.04810
3528.0 0.0002834 3403.97754 3495.30762
3553.0 0.0002815 3398.52881 3494.91992
3378.0 0.0002960 3393.04297 3494.92627
3489.0 0.0002866 3387.52173 3495.37988
3481.0 0.0002873 3381.96558 3496.33887
3415.0 0.0002928 3376.37500 3497.87061
3484.0 0.0002870 3370.75000 3500.05273
3347.0 0.0002988 3365.09106 3502.97656
3441.0 0.0002906 3359.39844 3506.74854
3494.0 0.0002862 3353.67358 3511.49390
3480.0 0.0002874 3347.91650 3517.36108
3501.0 0.0002856 3342.12744 3524.52417
3556.0 0.0002812 3336.30688 3533.19507
3458.0 0.0002892 3330.45557 3543.62573
3485.0 0.0002869 3324.57422 3556.12427
3476.0 0.0002877 3318.66284 3571.06445
3380.0 0.0002959 3312.72168 3588.90918
3469.0 0.0002883 3306.75195 3610.23340
3477.0 0.0002876 3300.75439 3635.75830
3552.0 0.0002815 3294.72852 3666.39819
3563.0 0.0002807 3288.67554 3703.32715
3618.0 0.0002764 3282.59570 3748.07080
3653.0 0.0002737 3276.48999 3802.63892
3738.0 0.0002675 3270.35840 3869.71973
3874.0 0.0002581 3264.20142 3952.97559
3917.0 0.0002553 3258.01978 4057.51880
4106.0 0.0002435 3251.81494 4190.82861
4425.0 0.0002260 3245.58569 4365.06299
4807.0 0.0002080 3239.33350 4604.19922
5506.0 0.0001816 3233.05933 4965.56396
6595.0 0.0001516 3226.76318 5594.58154
8222.0 0.0001216 3220.44580 6828.73438
10940.0 0.0000914 3214.10742 9315.21289
14869.0 0.0000673 3207.74854 13987.23535
21309.0 0.0000469 3201.37012 21657.65234
30345.0 0.0000330 3194.97339 32144.59375
41151.0 0.0000243 3188.55762 43273.01953
50664.0 0.0000197 3182.12402 50710.00000
51559.0 0.0000194 3175.67285 50112.66797
43672.0 0.0000229 3169.20532 41653.53516
30861.0 0.0000324 3162.72119 30165.41992
19962.0 0.0000501 3156.22095 19939.47266
12617.0 0.0000793 3149.70605 12765.83594
8474.0 0.0001180 3143.17700 8555.36523
6352.0 0.0001574 3136.63379 6382.61523
5024.0 0.0001990 3130.07715 5316.49707
4570.0 0.0002188 3123.50757 4760.21094
4056.0 0.0002465 3116.92627 4423.81299
3902.0 0.0002563 3110.33301 4189.65820
3860.0 0.0002591 3103.72803 4012.56641
3711.0 0.0002695 3097.11328 3873.00171
3615.0 0.0002766 3090.48926 3760.37427
3476.0 0.0002877 3083.85498 3667.86499
3500.0 0.0002857 3077.21216 3590.72046
3461.0 0.0002889 3070.56104 3525.50781
3383.0 0.0002956 3063.90308 3469.69531
3320.0 0.0003012 3057.23755 3421.38330
3271.0 0.0003057 3050.56543 3379.12695
3226.0 0.0003100 3043.88745 3341.81030
3223.0 0.0003103 3037.20435 3308.56372
3235.0 0.0003091 3030.51709 3278.69849
3266.0 0.0003062 3023.82520 3251.66504
3195.0 0.0003130 3017.12964 3227.02124
3186.0 0.0003139 3010.43140 3204.40796
3052.0 0.0003277 3003.73120 3183.53125
3101.0 0.0003225 2997.02856 3164.14673
3038.0 0.0003292 2990.32422 3146.05298
2966.0 0.0003372 2983.61987 3129.08228
3045.0 0.0003284 2976.91577 3113.09204
2989.0 0.0003346 2970.21143 3097.96167
2872.0 0.0003482 2963.50830 3083.58936
2974.0 0.0003362 2956.80664 3069.88745
2898.0 0.0003451 2950.10767 3056.78198
2902.0 0.0003446 2943.41113 3044.20728
2954.0 0.0003385 2936.71729 3032.10742
3007.0 0.0003326 2930.02759 3020.43457
2958.0 0.0003381 2923.34302 3009.14673
2889.0 0.0003461 2916.66235 2998.20532
2942.0 0.0003399 2909.98730 2987.57861
2888.0 0.0003463 2903.31860 2977.23828
2868.0 0.0003487 2896.65649 2967.15894
2886.0 0.0003465 2890.00122 2957.31787
2829.0 0.000353 2883.35352 2947.69507
2892.0 0.0003458 2876.71362 2876.71411
2856.0 0.0003501 2870.08301 2870.08325
2783.0 0.000359 2863.46167 2863.46216
2810.0 0.000356 2856.84985 2856.85034
2900.0 0.0003448 2850.24829 2850.24878
2780.0 0.000360 2843.65747 2843.65796
2771.0 0.000361 2837.07861 2837.07886
2696.0 0.000371 2830.51099 2830.51123
2819.0 0.000355 2823.95508 2823.95532
2763.0 0.000362 2817.41260 2817.41284
2737.0 0.000365 2810.88403 2810.88428
2826.0 0.000354 2804.36865 2804.36890
2804.0 0.000357 2797.86768 2797.86768
2791.0 0.000358 2791.38135 2791.38159
2763.0 0.000362 2784.91089 2784.91113
2720.0 0.000368 2778.45581 2778.45605
2767.0 0.000361 2772.01660 2772.01685
2831.0 0.000353 2765.59448 2765.59473
2790.0 0.000358 2759.19067 2759.19067
2587.0 0.000387 2752.80298 2752.80322
2659.0 0.000376 2746.43408 2746.43408
2672.0 0.000374 2740.08350 2740.08350
2662.0 0.000376 2733.75269 2733.75269
2606.0 0.000384 2727.44067 2727.44067
2643.0 0.000378 2721.14893 2721.14893
2637.0 0.000379 2714.87695 2714.87695
2594.0 0.000386 2708.62646 2708.62622
2627.0 0.000381 2702.39722 2702.39722
2701.0 0.000370 2696.18970 2696.18945
2717.0 0.000368 2690.00391 2690.00391
2649.0 0.000378 2683.84082 2683.84082
2663.0 0.000376 2677.70117 2677.70093
2640.0 0.000379 2671.58423 2671.58423
2608.0 0.000383 2665.49097 2665.49072
2648.0 0.000378 2659.42188 2659.42188
2620.0 0.000382 2653.37793 2653.37769
2596.0 0.000385 2647.35864 2647.35840
2581.0 0.000387 2641.36426 2641.36426
2625.0 0.000381 2635.39600 2635.39575
2566.0 0.000390 2629.45386 2629.45361
2649.0 0.000378 2623.53784 2623.53760
2671.0 0.000374 2617.64844 2617.64819
2653.0 0.000377 2611.78638 2611.78613
2581.0 0.000387 2605.95239 2605.95215
2550.0 0.000392 2600.14526 2600.14502
2549.0 0.000392 2594.36670 2594.36646
2632.0 0.000380 2588.61670 2588.61646
2562.0 0.000390 2582.89575 2582.89551
2506.0 0.000399 2577.20386 2577.20337
2502.0 0.000400 2571.54126 2571.54077
2584.0 0.000387 2565.90820 2565.90771
2633.0 0.000380 2560.30542 2560.30493
2482.0 0.000403 2554.73340 2554.73291
2598.0 0.000385 2549.19165 2549.19141
2489.0 0.000402 2543.68115 2543.68066
2564.0 0.000390 2538.20166 2538.20142
2486.0 0.000402 2532.75415 2532.75366
2538.0 0.000394 2527.33813 2527.33765
2507.0 0.000399 2521.95386 2521.95337
2474.0 0.000404 2516.60205 2516.60156
2440.0 0.000410 2511.28345 2511.28296
2547.0 0.000393 2505.99731 2505.99658
2464.0 0.000406 2500.74414 2500.74365
2500.0 0.000400 2495.52417 2495.52368
2498.0 0.000400 2490.33813 2490.33765
2520.0 0.000397 2485.18579 2485.18506
2531.0 0.000395 2480.06665 2480.06616
2440.0 0.000410 2474.98242 2474.98169
2507.0 0.000399 2469.93286 2469.93213
2530.0 0.000395 2464.91748 2464.91675
2484.0 0.000403 2459.93677 2459.93628
2415.0 0.000414 2454.99121 2454.99072
2469.0 0.000405 2450.08130 2450.08057
2464.0 0.000406 2445.20630 2445.20557
2417.0 0.000414 2440.36670 2440.36597
2458.0 0.000407 2435.56250 2435.56177
2458.0 0.000407 2430.79443 2430.79370
2394.0 0.000418 2426.06274 2426.06201
2521.0 0.000397 2421.36670 2421.36621
2474.0 0.000404 2416.70703 2416.70654
2557.0 0.000391 2412.08398 2412.08325
2599.0 0.000385 2407.49756 2407.49683
2553.0 0.000392 2402.94751 2405.68359
2542.0 0.000393 2398.43408 2401.29468
2605.0 0.000384 2393.95776 2396.95190
2614.0 0.000383 2389.51855 2392.65576
2551.0 0.000392 2385.11621 2388.40674
2510.0 0.000398 2380.75122 2384.20679
2431.0 0.000411 2376.42334 2380.05640
2512.0 0.000398 2372.13330 2375.95825
2463.0 0.000406 2367.88013 2371.91235
2424.0 0.000413 2363.66431 2368.19995
2349.0 0.000426 2359.48633 2364.27856
2359.0 0.000424 2355.34619 2360.41699
2381.0 0.000420 2351.24341 2356.61816
2327.0 0.000430 2347.17847 2352.88501
2302.0 0.000434 2343.15112 2349.22144
2420.0 0.000413 2339.16187 2345.63184
2353.0 0.000425 2335.21021 2342.12061
2327.0 0.000430 2331.29639 2338.69385
2310.0 0.000433 2327.42017 2335.35767
2287.0 0.000437 2323.58203 2332.12134
2406.0 0.000416 2319.78198 2328.99463
2470.0 0.000405 2316.01953 2325.98779
2322.0 0.000431 2312.29492 2323.11597
2316.0 0.000432 2308.60815 2320.39600
2408.0 0.000415 2304.95947 2317.84985
2341.0 0.000427 2301.34839 2315.50342
2324.0 0.000430 2297.77466 2313.38965
2357.0 0.000424 2294.23926 2311.55151
2294.0 0.000436 2290.74146 2310.04297
2237.0 0.000447 2287.28125 2308.93457
2296.0 0.000436 2283.85864 2308.31909
2395.0 0.000418 2280.47363 2308.32056
2331.0 0.000429 2277.12622 2309.11011
2313.0 0.000432 2273.81592 2310.92407
2370.0 0.000422 2270.54272 2314.11304
2369.0 0.000422 2267.30737 2319.25635
2456.0 0.000407 2264.10913 2327.51538
2412.0 0.000415 2260.94775 2341.68604
2325.0 0.000430 2257.82349 2368.75220
2513.0 0.000398 2254.73608 2424.41724
2504.0 0.000399 2251.68555 2537.43799
2775.0 0.000360 2248.67188 2746.50854
3009.0 0.0003323 2245.69458 3080.36328
3411.0 0.0002932 2242.75342 3520.60742
4021.0 0.0002487 2239.84888 3962.84985
4245.0 0.0002356 2236.98096 4215.74023
4209.0 0.0002376 2234.14868 4118.28271
3787.0 0.0002641 2231.35254 3730.84424
3356.0 0.0002980 2228.59204 3265.12891
2902.0 0.0003446 2225.86719 2876.86768
2651.0 0.000377 2223.17798 2623.11450
2448.0 0.000408 2220.52393 2494.63281
2492.0 0.000401 2217.90503 2453.87354
2521.0 0.000397 2215.32153 2459.99219
2534.0 0.000395 2212.77271 2475.92529
2443.0 0.000409 2210.25854 2470.52490
2523.0 0.000396 2207.77881 2432.13599
2378.0 0.000421 2205.33350 2375.78589
2287.0 0.000437 2202.92236 2321.53638
2216.0 0.000451 2200.54492 2279.78125
2239.0 0.000447 2198.20142 2252.00391
2218.0 0.000451 2195.89160 2234.90332
2155.0 0.000464 2193.61499 2224.23438
2097.0 0.000477 2191.37134 2216.88550
2152.0 0.000465 2189.16113 2211.16724
2141.0 0.000467 2186.98340 2206.31982
2142.0 0.000467 2184.83789 2202.02100
2181.0 0.000459 2182.72485 2198.12012
2090.0 0.000478 2180.64380 2194.53027
2122.0 0.000471 2178.59448 2191.19287
2124.0 0.000471 2176.57690 2188.06543
2183.0 0.000458 2174.59082 2185.11450
2152.0 0.000465 2172.63574 2182.31470
2160.0 0.000463 2170.71143 2179.64648
2193.0 0.000456 2168.81787 2177.09351
2092.0 0.000478 2166.95459 2174.64282
2026.0 0.000494 2165.12134 2172.28369
2165.0 0.000462 2163.31812 2170.00781
2158.0 0.000463 2161.54419 2168.05054
2119.0 0.000472 2159.80005 2165.93091
2114.0 0.000473 2158.08472 2163.87622
2123.0 0.000471 2156.39819 2161.88184
2067.0 0.000484 2154.74023 2159.94458
2085.0 0.000480 2153.11060 2158.06079
2102.0 0.000476 2151.50854 2156.22729
2120.0 0.000472 2149.93457 2154.44238
2046.0 0.000489 2148.38794 2152.70386
1968.0 0.000508 2146.86865 2151.00928
2112.0 0.000473 2145.37598 2149.35767
2137.0 0.000468 2143.90991 2147.74707
2149.0 0.000465 2142.46997 2146.17603
2080.0 0.000481 2141.05615 2141.97339
2131.0 0.000469 2139.66772 2140.59155
2070.0 0.000483 2138.30469 2139.24048
2188.0 0.000457 2136.96704 2137.91895
2167.0 0.000461 2135.65381 2136.62769
2211.0 0.000452 2134.36523 2135.36670
2250.0 0.000444 2133.10083 2134.13574
2156.0 0.000464 2131.86035 2132.93579
2227.0 0.000449 2130.64307 2131.76709
2082.0 0.000480 2129.44922 2130.34497
2105.0 0.000475 2128.27783 2129.25317
2092.0 0.000478 2127.12939 2128.19531
2109.0 0.000474 2126.00317 2127.17285
2022.0 0.000495 2124.89893 2126.18774
2056.0 0.000486 2123.81616 2125.24390
2037.0 0.000491 2122.75488 2124.34473
1984.0 0.000504 2121.71436 2123.49512
1954.0 0.000512 2120.69434 2122.70239
2079.0 0.000481 2119.69458 2121.97559
2040.0 0.000490 2118.71509 2121.32813
2035.0 0.000491 2117.75488 2120.77734
2042.0 0.000490 2116.81421 2120.34839
2017.0 0.000496 2115.89282 2120.08130
2013.0 0.000497 2114.98975 2120.04736
2012.0 0.000497 2114.10498 2120.40649
1992.0 0.000502 2113.23804 2121.55737
2102.0 0.000476 2112.38867 2124.45215
2169.0 0.000461 2111.55688 2131.03076
2359.0 0.000424 2110.74194 2144.36182
2498.0 0.000400 2109.94360 2167.69165
2625.0 0.000381 2109.16162 2201.86963
2714.0 0.000368 2108.39551 2241.80005
2830.0 0.000353 2107.64526 2273.95483
2964.0 0.0003374 2106.90991 2280.53198
2623.0 0.000381 2106.18970 2256.12476
2514.0 0.000398 2105.48364 2215.56812
2386.0 0.000419 2104.79199 2176.11865
2256.0 0.000443 2104.11450 2146.42236
2066.0 0.000484 2103.45044 2127.69727
2127.0 0.000470 2102.79956 2117.25928
2049.0 0.000488 2102.16162 2111.69312
2162.0 0.000463 2101.53589 2108.52368
2060.0 0.000485 2100.92261 2106.43042
2040.0 0.000490 2100.32104 2104.83716
2068.0 0.000484 2099.73096 2103.51709
2030.0 0.000493 2099.15210 2102.37354
2051.0 0.000488 2098.58398 2101.35742
2004.0 0.000499 2098.02661 2100.43872
2018.0 0.000496 2097.47925 2099.59546
2012.0 0.000497 2096.94165 2098.81274
1993.0 0.000502 2096.41333 2098.07935
1980.0 0.000505 2095.89404 2097.38672
1969.0 0.000508 2095.38379 2096.72900
2024.0 0.000494 2094.88208 2096.10010
1997.0 0.000501 2094.38818 2095.49658
1973.0 0.000507 2093.90234 2094.91455
1967.0 0.000508 2093.42358 2094.35229
2102.0 0.000476 2092.95239 2093.80688
2078.0 0.000481 2092.48755 2093.27686
2214.0 0.000452 2092.02930 2092.76050
2364.0 0.000423 2091.57690 2092.25586
2706.0 0.000370 2091.13062 2091.76294
2975.0 0.0003361 2090.68970 2091.28003
3136.0 0.0003189 2090.25391 2090.80615
2977.0 0.0003359 2089.82300 2090.34082
2846.0 0.000351 2089.39648 2089.88306
2605.0 0.000384 2088.97388 2089.43213
2418.0 0.000414 2088.55542 2088.98730
2402.0 0.000416 2088.14014 2088.54810
2356.0 0.000424 2087.72803 2088.11426
2385.0 0.000419 2087.31909 2109.23193
2250.0 0.000444 2086.91260 2109.77832
2152.0 0.000465 2086.50830 2110.39526
2013.0 0.000497 2086.10596 2111.08887
2013.0 0.000497 2085.70532 2111.86572
1995.0 0.000501 2085.30591 2112.73364
1897.0 0.000527 2084.90698 2113.70044
1928.0 0.000519 2084.50928 2114.77661
1960.0 0.000510 2084.11182 2115.72534
1939.0 0.000516 2083.71460 2117.06494
1901.0 0.000526 2083.31714 2118.55127
2007.0 0.000498 2082.91895 2120.20142
2014.0 0.000497 2082.51978 2122.03345
1918.0 0.000521 2082.12012 2124.07129
1947.0 0.000514 2081.71875 2126.33911
1926.0 0.000519 2081.31543 2128.86768
1940.0 0.000515 2080.91040 2131.69263
1938.0 0.000516 2080.50293 2134.85474
1994.0 0.000502 2080.09302 2138.40283
1981.0 0.000505 2079.68042 2142.39526
1951.0 0.000513 2079.26465 2146.90137
1947.0 0.000514 2078.84521 2152.00415
2020.0 0.000495 2078.42236 2157.80518
1959.0 0.000510 2077.99536 2164.42749
1893.0 0.000528 2077.56445 2172.02295
1940.0 0.000515 2077.12891 2180.77881
2033.0 0.000492 2076.68872 2190.93091
2028.0 0.000493 2076.24365 2202.77539
2024.0 0.000494 2075.79321 2216.69263
2134.0 0.000469 2075.33716 2233.17358
2143.0 0.000467 2074.87549 2252.86230
2207.0 0.000453 2074.40747 2276.61499
2196.0 0.000455 2073.93359 2305.58984
2322.0 0.000431 2073.45313 2341.38696
2330.0 0.000429 2072.96582 2386.29492
2393.0 0.000418 2072.47168 2443.85596
2521.0 0.000397 2071.97021 2520.48877
2670.0 0.000375 2071.46094 2630.41895
3132.0 0.0003193 2070.94458 2808.82690
3542.0 0.0002823 2070.42017 3138.94458
4608.0 0.0002170 2069.88721 3788.34277
6131.0 0.0001631 2069.34619 5018.77148
8028.0 0.0001246 2068.79639 7102.24756
10646.0 0.0000939 2068.23804 10102.38281
13709.0 0.0000729 2067.67065 13576.73926
16458.0 0.0000608 2067.09399 16361.08008
16862.0 0.0000593 2066.50781 16928.38672
14834.0 0.0000674 2065.91211 14857.60254
11275.0 0.0000887 2065.30615 11448.22266
7920.0 0.0001263 2064.69067 8155.28516
5513.0 0.0001814 2064.06470 5693.82861
3971.0 0.0002518 2063.42822 4158.68652
3131.0 0.0003194 2062.78125 3322.22681
2741.0 0.000365 2062.12378 2897.33862
2506.0 0.000399 2061.45483 2675.70459
2270.0 0.000441 2060.77490 2545.56934
2254.0 0.000444 2060.08350 2457.87158
2171.0 0.000461 2059.38062 2392.99731
2179.0 0.000459 2058.66626 2342.62866
2111.0 0.000474 2057.93994 2302.48926
2017.0 0.000496 2057.20166 2269.92847
2030.0 0.000493 2056.45117 2243.12793
1991.0 0.000502 2055.68799 2220.78198
1929.0 0.000518 2054.91284 2201.93359
1959.0 0.000510 2054.12476 2185.86523
1944.0 0.000514 2053.32397 2172.03345
1973.0 0.000507 2052.51025 2160.02026
1973.0 0.000507 2051.68335 2149.49927
1884.0 0.000531 2050.84351 2140.21338
1844.0 0.000542 2049.98999 2131.95825
1811.0 0.000552 2049.12305 2124.56860
1978.0 0.000506 2048.24268 2117.91138
1986.0 0.000504 2047.34851 2111.87720
2118.0 0.000472 2046.44031 2106.37573
2307.0 0.000433 2045.51831 2101.33252
2485.0 0.000402 2044.58228 2096.68530
2632.0 0.000380 2043.63196 2092.38086
2821.0 0.000354 2042.66736 2088.37524
2920.0 0.0003425 2041.68848 2084.63062
2899.0 0.0003449 2040.69495 2081.11426
2699.0 0.000371 2039.68701 2077.79907
2397.0 0.000417 2038.66394 2074.66064
2273.0 0.000440 2037.62646 2071.67896
2229.0 0.000449 2036.57410 2068.83521
2272.0 0.000440 2035.50671 2066.11401
2148.0 0.000466 2034.42444 2063.50171
2047.0 0.000489 2033.32690 2060.98584
1946.0 0.000514 2032.21387 2058.55591
1934.0 0.000517 2031.08618 2056.20288
1956.0 0.000511 2029.94299 2053.91772
2037.0 0.000491 2028.78394 2051.69287
2060.0 0.000485 2027.60986 2027.61157
2090.0 0.000478 2026.42029 2026.42200
2080.0 0.000481 2025.21509 2025.21680
2029.0 0.000493 2023.99426 2023.99609
2054.0 0.000487 2022.75793 2022.75977
1985.0 0.000504 2021.50574 2021.50757
2002.0 0.000500 2020.23779 2020.23962
2096.0 0.000477 2018.95386 2018.95557
2059.0 0.000486 2017.65442 2017.65625
2067.0 0.000484 2016.33911 2016.34082
2239.0 0.000447 2015.00781 2015.00964
2193.0 0.000456 2013.66089 2013.66260
2186.0 0.000457 2012.29785 2012.29956
2125.0 0.000471 2010.91882 2010.92065
2137.0 0.000468 2009.52393 2009.52576
2081.0 0.000481 2008.11279 2008.11462
2070.0 0.000483 2006.68591 2006.68774
2082.0 0.000480 2005.24316 2005.24500
2128.0 0.000470 2003.78442 2003.78613
2167.0 0.000461 2002.30957 2002.31140
2120.0 0.000472 2000.81885 2000.82068
2065.0 0.000484 1999.31189 1999.31372
2121.0 0.000471 1997.78955 1997.79126
2163.0 0.000462 1996.25061 1996.25244
2339.0 0.000428 1994.69617 1994.69788
2316.0 0.000432 1993.12561 1993.12744
2292.0 0.000436 1991.53943 1991.54114
2153.0 0.000464 1989.93726 1989.93896
2111.0 0.000474 1988.31921 1988.32104
1957.0 0.000511 1986.68542 1986.68713
1912.0 0.000523 1985.03589 1985.03760
1824.0 0.000548 1983.37048 1983.37219
1818.0 0.000550 1981.68933 1981.69104
1841.0 0.000543 1979.99255 1979.99426
1821.0 0.000549 1978.28040 1978.28210
1811.0 0.000552 1976.55261 1976.55432
1858.0 0.000538 1974.80933 1974.81104
1897.0 0.000527 1973.05066 1973.05237
1932.0 0.000518 1971.27649 1971.27820
1926.0 0.000519 1969.48706 2224.08496
2020.0 0.000495 1967.68201 2233.66479
2122.0 0.000471 1965.86206 2244.01001
2154.0 0.000464 1964.02710 2255.19287
2096.0 0.000477 1962.17688 2267.29517
2147.0 0.000466 1960.31189 2280.40820
2109.0 0.000474 1958.43176 2294.63501
2167.0 0.000461 1956.53662 2310.09180
2189.0 0.000457 1954.62732 2326.91064
2449.0 0.000408 1952.70264 2345.23975
2745.0 0.000364 1950.76379 2365.25024
3254.0 0.0003073 1948.81042 2387.13574
3910.0 0.0002558 1946.84265 2411.11963
4555.0 0.0002195 1944.86047 2437.45850
5281.0 0.0001894 1942.86414 2466.44873
5588.0 0.0001790 1940.85364 2498.43530
5522.0 0.0001811 1938.82922 2533.81958
4952.0 0.0002019 1936.79089 2573.07324
4366.0 0.0002290 1934.73828 2616.75000
3813.0 0.0002623 1932.67236 2665.50781
3413.0 0.0002930 1930.59290 2720.12939
3224.0 0.0003102 1928.49988 2781.55298
3116.0 0.0003209 1926.39343 2850.91162
2975.0 0.0003361 1924.27368 2929.58154
2729.0 0.000366 1922.14099 3019.24927
2778.0 0.000360 1919.99512 3121.99805
2717.0 0.000368 1917.83618 3240.42407
2809.0 0.000356 1915.66467 3377.79565
2929.0 0.0003414 1913.48059 3538.27075
3158.0 0.0003167 1911.28381 3727.20020
3313.0 0.0003018 1909.07471 3951.56079
3539.0 0.0002826 1906.85339 4220.57520
3822.0 0.0002616 1904.61963 4546.63184
4139.0 0.0002416 1902.37451 4946.68750
4671.0 0.0002141 1900.11694 5444.62402
5289.0 0.0001891 1897.84790 6076.12158
6383.0 0.0001567 1895.56726 6901.69141
7697.0 0.0001299 1893.27539 8045.97412
9872.0 0.0001013 1890.97205 9807.27539
13458.0 0.0000743 1888.65747 12903.56445
19700.0 0.0000508 1886.33191 18859.74023
30695.0 0.0000326 1883.99561 30276.55859
48739.0 0.0000205 1881.64868 50331.21875
77894.0 0.0000128 1879.29077 80877.15625
116939.0 8.55e-6 1876.92285 119362.32813
157437.0 6.35e-6 1874.54468 155729.89063
179287.0 5.58e-6 1872.15649 172804.10938
167518.0 5.97e-6 1869.75830 159080.48438
128386.0 7.79e-6 1867.35022 123731.39844
84573.0 0.0000118 1864.93274 84658.84375
51537.0 0.0000194 1862.50562 52945.37891
30598.0 0.0000327 1860.06909 31791.10547
19151.0 0.0000522 1857.62366 19628.03906
12963.0 0.0000771 1855.16919 13268.89746
9746.0 0.0001026 1852.70618 9984.73828
7904.0 0.0001265 1850.23438 8138.07129
6772.0 0.0001477 1847.75415 6949.68457
6089.0 0.0001642 1845.26538 6096.21240
5539.0 0.0001805 1842.76917 5444.24854
5093.0 0.0001963 1840.26428 4930.12402
4489.0 0.0002228 1837.75195 4516.72656
3921.0 0.0002550 1835.23206 4179.33887
3437.0 0.0002910 1832.70483 3900.45532
3168.0 0.0003157 1830.17029 3667.30981
2927.0 0.0003416 1827.62866 3470.41162
2766.0 0.000362 1825.08020 3302.59277
2677.0 0.000374 1822.52502 3158.36206
2544.0 0.000393 1819.96326 3033.45703
2388.0 0.000419 1817.39490 2924.53198
2382.0 0.000420 1814.82068 2828.93164
2287.0 0.000437 1812.24048 2744.52734
2215.0 0.000451 1809.65442 2669.59717
2120.0 0.000472 1807.06274 2602.73682
2093.0 0.000478 1804.46558 2542.79150
2054.0 0.000487 1801.86328 2488.80615
1996.0 0.000501 1799.25574 2439.98315
2017.0 0.000496 1796.64331 2395.65454
1996.0 0.000501 1794.02600 2355.25610
1958.0 0.000511 1791.40442 2318.30957
1942.0 0.000515 1788.77844 2284.40698
1943.0 0.000515 1786.14844 2253.19922
1859.0 0.000538 1783.51428 2224.38428
1876.0 0.000533 1780.87634 2197.70288
1851.0 0.000540 1778.23499 2172.92896
1788.0 0.000559 1775.59009 2149.86572
1798.0 0.000556 1772.94177 2128.34082
1804.0 0.000554 1770.29065 2108.20386
1792.0 0.000558 1767.63684 2089.32178
1838.0 0.000544 1764.98010 2071.57666
1792.0 0.000558 1762.32068 2054.86475
1762.0 0.000568 1759.65918 2039.09399
1739.0 0.000575 1756.99597 2024.18201
1728.0 0.000579 1754.33020 1754.33081
1777.0 0.000563 1751.66296 1751.66345
1711.0 0.000584 1748.99414 1748.99463
1701.0 0.000588 1746.32422 1746.32471
1694.0 0.000590 1743.65283 1743.65320
1707.0 0.000586 1740.98035 1740.98071
1725.0 0.000580 1738.30713 1738.30750
1652.0 0.000605 1735.63367 1735.63403
1658.0 0.000603 1732.95923 1732.95959
1760.0 0.000568 1730.28479 1730.28516
1699.0 0.000589 1727.61011 1727.61047
1665.0 0.000601 1724.93567 1724.93604
1714.0 0.000583 1722.26135 1722.26172
1690.0 0.000592 1719.58777 1719.58813
1683.0 0.000594 1716.91504 1716.91528
1785.0 0.000560 1714.24292 1714.24316
1892.0 0.000529 1711.57178 1711.57202
1946.0 0.000514 1708.90173 1708.90198
2105.0 0.000475 1706.23315 1706.23340
2226.0 0.000449 1703.56604 1703.56616
2175.0 0.000460 1700.90063 1700.90088
2184.0 0.000458 1698.23743 1698.23767
2058.0 0.000486 1695.57666 1695.57690
2094.0 0.000478 1692.91760 1692.91772
1973.0 0.000507 1690.26099 1690.26111
1886.0 0.000530 1687.60706 1687.60718
1830.0 0.000546 1684.95605 1684.95605
1736.0 0.000576 1682.30774 1682.30774
1678.0 0.000596 1679.66272 1679.66284
1649.0 0.000606 1677.02100 1677.02112
1734.0 0.000577 1674.38342 1674.38342
1613.0 0.000620 1671.74866 1671.74866
1598.0 0.000626 1669.11804 1669.11804
1638.0 0.000611 1666.49121 1666.49121
1582.0 0.000632 1663.86877 1663.86877
1631.0 0.000613 1661.25037 1661.25024
1610.0 0.000621 1658.63660 1658.63660
1579.0 0.000633 1656.02759 1665.09155
1639.0 0.000610 1653.42322 1662.89746
1679.0 0.000596 1650.82446 1660.73718
1585.0 0.000631 1648.23035 1658.61267
1663.0 0.000601 1645.64148 1656.52759
1717.0 0.000582 1643.05811 1654.48560
1756.0 0.000569 1640.48022 1652.49048
1884.0 0.000531 1637.90820 1650.54663
1811.0 0.000552 1635.34204 1648.65942
1874.0 0.000534 1632.78223 1646.83459
1921.0 0.000521 1630.22900 1645.07874
1996.0 0.000501 1627.68152 1643.39832
1973.0 0.000507 1625.14063 1641.80249
2289.0 0.000437 1622.60657 1640.30127
2545.0 0.000393 1620.07910 1638.90540
2733.0 0.000366 1617.55872 1637.62830
2722.0 0.000367 1615.04565 1636.48547
2526.0 0.000396 1612.53955 1635.49463
2321.0 0.000431 1610.04150 1634.67761
2015.0 0.000496 1607.55029 1634.05835
1832.0 0.000546 1605.06714 1633.66797
1727.0 0.000579 1602.59143 1633.54175
1683.0 0.000594 1600.12378 1633.72412
1659.0 0.000603 1597.66431 1634.26807
1643.0 0.000609 1595.21313 1635.23938
1632.0 0.000613 1592.77002 1636.71912
1645.0 0.000608 1590.33582 1638.80933
1540.0 0.000649 1587.91028 1641.63879
1555.0 0.000643 1585.49316 1645.37170
1674.0 0.000597 1583.08484 1650.22180
1565.0 0.000639 1580.68555 1656.46912
1622.0 0.000617 1578.29541 1664.48657
1624.0 0.000616 1575.91443 1674.77954
1784.0 0.000561 1573.54272 1688.04883
1791.0 0.000558 1571.18066 1705.30835
1899.0 0.000527 1568.82861 1728.16565
1829.0 0.000547 1566.48560 1759.63647
1887.0 0.000530 1564.15259 1806.50671
1990.0 0.000503 1561.82935 1885.13208
2135.0 0.000468 1559.51624 2032.16504
2306.0 0.000434 1557.21313 2316.37354
2877.0 0.0003476 1554.92041 2836.17358
3679.0 0.0002718 1552.63770 3680.19067
4827.0 0.0002072 1550.36621 4843.90869
5971.0 0.0001675 1548.10449 6125.36035
6861.0 0.0001458 1545.85364 7053.45215
6867.0 0.0001456 1543.61340 7079.42334
6102.0 0.0001639 1541.38403 6177.08545
4616.0 0.0002166 1539.16553 4889.87646
3494.0 0.0002862 1536.95813 3707.44531
2711.0 0.000369 1534.76160 2842.66650
2216.0 0.000451 1532.57642 2305.97412
1893.0 0.000528 1530.40271 2010.08875
1797.0 0.000556 1528.24011 1855.16296
1799.0 0.000556 1526.08887 1770.59692
1722.0 0.000581 1523.94910 1718.58704
1661.0 0.000602 1521.82104 1682.27490
1604.0 0.000623 1519.70447 1654.70313
1642.0 0.000609 1517.59973 1632.79846
1599.0 0.000625 1515.50684 1614.93127
1567.0 0.000638 1513.42603 1600.07471
1522.0 0.000657 1511.35693 1587.51929
1496.0 0.000668 1509.29968 1576.75354
1526.0 0.000655 1507.25464 1567.40076
1453.0 0.000688 1505.22156 1559.17798
1499.0 0.000667 1503.20105 1551.87012
1492.0 0.000670 1501.19238 1545.31055
1425.0 0.000702 1499.19629 1539.36987
1450.0 0.000690 1497.21277 1533.94543
1452.0 0.000689 1495.24133 1528.95496
1417.0 0.000706 1493.28247 1524.33313
1383.0 0.000723 1491.33594 1520.02576
1572.0 0.000636 1489.40222 1515.98962
1464.0 0.000683 1487.48083 1512.18799
1480.0 0.000676 1485.57227 1508.59119
1447.0 0.000691 1483.67627 1505.17395
1439.0 0.000695 1481.79309 1501.91492
1445.0 0.000692 1479.92310 1498.79663
1562.0 0.000640 1478.06555 1495.80322
1442.0 0.000693 1476.22070 1492.92188
1510.0 0.000662 1474.38892 1490.14160
1550.0 0.000645 1472.56995 1487.45264
1760.0 0.000568 1470.76379 1484.84644
1793.0 0.000558 1468.97083 1482.31604
1850.0 0.000541 1467.19067 1479.85486
1781.0 0.000561 1465.42395 1477.45789
1714.0 0.000583 1463.66992 1475.11938
1647.0 0.000607 1461.92883 1472.83533
1525.0 0.000656 1460.20105 1470.60229
1543.0 0.000648 1458.48621 1468.41638
1416.0 0.000706 1456.78442 1466.27490
1469.0 0.000681 1455.09558 1455.09460
1371.0 0.000729 1453.42017 1453.41919
1357.0 0.000737 1451.75818 1451.75720
1364.0 0.000733 1450.10889 1450.10791
1383.0 0.000723 1448.47290 1448.47180
1404.0 0.000712 1446.84985 1446.84875
1295.0 0.000772 1445.23999 1445.23901
1417.0 0.000706 1443.64331 1443.64233
1339.0 0.000747 1442.05969 1468.79968
1397.0 0.000716 1440.48926 1468.42712
1428.0 0.000700 1438.93201 1468.15015
1415.0 0.000707 1437.38818 1467.97644
1402.0 0.000713 1435.85718 1467.91394
1362.0 0.000734 1434.33911 1467.97290
1396.0 0.000716 1432.83435 1468.16406
1405.0 0.000712 1431.34241 1468.49939
1430.0 0.000699 1429.86389 1468.99329
1366.0 0.000732 1428.39807 1469.66089
1423.0 0.000703 1426.94543 1470.52087
1426.0 0.000701 1425.50598 1471.59326
1446.0 0.000692 1424.07935 1472.90186
1396.0 0.000716 1422.66553 1474.47339
1382.0 0.000724 1421.26477 1476.33960
1428.0 0.000700 1419.87671 1478.53674
1509.0 0.000663 1418.50171 1481.10742
1412.0 0.000708 1417.13928 1484.10156
1415.0 0.000707 1415.78992 1487.57800
1419.0 0.000705 1414.45361 1491.60632
1463.0 0.000684 1413.12964 1496.26917
1446.0 0.000692 1411.81824 1501.66638
1433.0 0.000698 1410.51953 1507.91785
1400.0 0.000714 1409.23364 1515.17029
1420.0 0.000704 1407.96008 1523.60205
1433.0 0.000698 1406.69934 1533.43518
1427.0 0.000701 1405.45081 1544.94519
1471.0 0.000680 1404.21484 1558.48035
1524.0 0.000656 1402.99133 1639.18176
1505.0 0.000664 1401.77991 1661.13623
1552.0 0.000644 1400.58093 1687.07251
1552.0 0.000644 1399.39417 1717.99280
1625.0 0.000615 1398.21936 1755.23938
1678.0 0.000596 1397.05688 1800.64868
1783.0 0.000561 1395.90637 1856.81189
1814.0 0.000551 1394.76794 1927.64160
1967.0 0.000508 1393.64160 2019.91003
2048.0 0.000488 1392.52698 2147.74414
2362.0 0.000423 1391.42395 2344.43872
2938.0 0.0003404 1390.33289 2687.01025
3574.0 0.0002798 1389.25342 3330.78247
4837.0 0.0002067 1388.18567 4525.41797
6805.0 0.0001470 1387.12927 6553.50195
9649.0 0.0001036 1386.08459 9546.67480
13032.0 0.0000767 1385.05151 13209.87891
16037.0 0.0000624 1384.02930 16541.70313
17067.0 0.0000586 1383.01868 17905.55859
15622.0 0.0000640 1382.01904 16371.14551
12457.0 0.0000803 1381.03064 12972.87988
9012.0 0.0001110 1380.05310 9351.36621
6287.0 0.0001591 1379.08679 6451.13232
4595.0 0.0002176 1378.13110 4522.48584
3439.0 0.0002908 1377.18640 3412.07617
2905.0 0.0003442 1376.25244 2833.85962
2548.0 0.000392 1375.32898 2544.39063
2401.0 0.000416 1374.41614 2396.29492
2348.0 0.000426 1373.51379 2318.57056
2227.0 0.000449 1372.62170 2281.86304
2241.0 0.000446 1371.73999 2275.00049
2308.0 0.000433 1370.86829 2294.16211
2471.0 0.000405 1370.00696 2339.04541
2590.0 0.000386 1369.15576 2411.88574
2611.0 0.000383 1368.31445 2517.69116
2859.0 0.0003498 1367.48279 2665.72412
3136.0 0.0003189 1366.66101 2874.24463
3566.0 0.0002804 1365.84888 3184.44824
4121.0 0.0002427 1365.04639 3695.25171
5140.0 0.0001946 1364.25317 4629.50977
6988.0 0.0001431 1363.46948 6412.98877
9906.0 0.0001009 1362.69531 9677.63672
15065.0 0.0000664 1361.93005 15045.41504
21978.0 0.0000455 1361.17395 22626.43359
30214.0 0.0000331 1360.42676 31347.27148
37240.0 0.0000269 1359.68848 38360.42578
38484.0 0.0000260 1358.95911 39794.30469
33842.0 0.0000295 1358.23828 34608.65234
25532.0 0.0000392 1357.52612 26088.71680
17410.0 0.0000574 1356.82251 17801.39258
11104.0 0.0000901 1356.12732 11487.27637
7338.0 0.0001363 1355.44031 7435.91553
5214.0 0.0001918 1354.76135 5130.91943
4032.0 0.0002480 1354.09070 3909.06567
3474.0 0.0002879 1353.42773 3250.91089
2974.0 0.0003362 1352.77283 2859.74829
2685.0 0.000372 1352.12561 2596.63721
2526.0 0.000396 1351.48608 2402.87354
2307.0 0.000433 1350.85413 2252.90649
2255.0 0.000443 1350.22961 2133.70264
2037.0 0.000491 1349.61230 2037.31018
1996.0 0.000501 1349.00244 1958.31689
1893.0 0.000528 1348.39941 1892.84619
1814.0 0.000551 1347.80359 1838.05127
1742.0 0.000574 1347.21448 1765.15613
1718.0 0.000582 1346.63220 1726.96143
1664.0 0.000601 1346.05676 1694.39600
1611.0 0.000621 1345.48767 1666.50598
1599.0 0.000625 1344.92517 1642.54736
1606.0 0.000623 1344.36890 1621.93518
1639.0 0.000610 1343.81873 1604.20984
1571.0 0.000637 1343.27490 1589.01074
1571.0 0.000637 1342.73694 1576.05750
1614.0 0.000620 1342.20483 1565.13684
1556.0 0.000643 1341.67847 1556.09436
1528.0 0.000654 1341.15784 1548.82764
1494.0 0.000669 1340.64294 1543.28491
1509.0 0.000663 1340.13306 1539.46497
1490.0 0.000671 1339.62891 1537.42273
1473.0 0.000679 1339.12964 1537.27551
1517.0 0.000659 1338.63562 1539.21875
1515.0 0.000660 1338.14648 1543.54639
1514.0 0.000661 1337.66235 1550.68445
1561.0 0.000641 1337.18274 1561.24133
1630.0 0.000613 1336.70801 1576.09399
1675.0 0.000597 1336.23755 1596.55371
1677.0 0.000596 1335.77173 1624.78979
1655.0 0.000604 1335.31006 1667.46143
1704.0 0.000587 1334.85266 1729.52271
1798.0 0.000556 1334.39917 1836.03442
2046.0 0.000489 1333.94983 2035.53308
2480.0 0.000403 1333.50427 2347.71167
3267.0 0.0003061 1333.06250 3020.11523
4294.0 0.0002329 1332.62415 4071.66284
5736.0 0.0001743 1332.18933 5467.71680
7462.0 0.0001340 1331.75806 6935.34570
8462.0 0.0001182 1331.32983 7893.96045
8581.0 0.0001165 1330.90491 7750.77100
7154.0 0.0001398 1330.48303 6601.87207
5464.0 0.0001830 1330.06396 5105.44922
3909.0 0.0002558 1329.64795 3776.60400
2860.0 0.0003497 1329.23450 2819.52563
2253.0 0.000444 1328.82361 2228.24219
1957.0 0.000511 1328.41528 1900.76782
1699.0 0.000589 1328.00928 1727.30554
1668.0 0.000600 1327.60559 1631.45752
1617.0 0.000618 1327.20398 1572.28418
1588.0 0.000630 1326.80457 1531.29468
1535.0 0.000651 1326.40698 1500.68030
1532.0 0.000653 1326.01135 1476.90540
1536.0 0.000651 1325.61731 1458.06335
1525.0 0.000656 1325.22510 1442.95044
1438.0 0.000695 1324.83398 1430.73962
1421.0 0.000704 1324.44470 1429.89954
1436.0 0.000696 1324.05640 1422.30334
1409.0 0.000710 1323.66943 1416.32959
1397.0 0.000716 1323.28369 1411.77502
1424.0 0.000702 1322.89868 1408.51111
1349.0 0.000741 1322.51465 1406.47778
1402.0 0.000713 1322.13135 1405.68103
1359.0 0.000736 1321.74878 1406.20056
1363.0 0.000734 1321.36682 1408.21265
1401.0 0.000714 1320.98523 1412.05127
1434.0 0.000697 1320.60388 1418.38916
1440.0 0.000694 1320.22302 1428.75830
1477.0 0.000677 1319.84229 1446.81274
1509.0 0.000663 1319.46167 1480.67737
1598.0 0.000626 1319.08081 1545.64392
1717.0 0.000582 1318.69995 1664.07288
1862.0 0.000537 1318.31873 1857.60364
2180.0 0.000459 1317.93738 2129.62134
2393.0 0.000418 1317.55542 2441.88062
2554.0 0.000392 1317.17310 2693.27319
2715.0 0.000368 1316.79004 2745.71582
2466.0 0.000406 1316.40637 2562.04102
2134.0 0.000469 1316.02185 2259.24585
2003.0 0.000499 1315.63647 1964.20190
1727.0 0.000579 1315.25000 1739.01294
1624.0 0.000616 1314.86267 1594.22034
1590.0 0.000629 1314.47388 1513.00830
1618.0 0.000618 1314.08398 1471.80188
1628.0 0.000614 1313.69287 1452.17749
1563.0 0.000640 1313.30017 1432.14551
1611.0 0.000621 1312.90588 1430.06897
1594.0 0.000627 1312.51013 1432.17273
1607.0 0.000622 1312.11267 1437.93298
1586.0 0.000631 1311.71350 1447.46289
1588.0 0.000630 1311.31226 1461.31689
1551.0 0.000645 1310.90930 1480.58496
1641.0 0.000609 1310.50415 1507.36267
1582.0 0.000632 1310.09717 1546.19275
1645.0 0.000608 1309.68787 1607.79199
1867.0 0.000536 1309.27612 1716.61890
2000.0 0.000500 1308.86243 1921.23987
2366.0 0.000423 1308.44604 2298.74976
2962.0 0.0003376 1308.02710 2935.90283
3876.0 0.0002580 1307.60583 3874.10815
4997.0 0.0002001 1307.18188 5026.86035
5912.0 0.0001691 1306.75513 6091.66699
6446.0 0.0001551 1306.32581 6556.89697
6005.0 0.0001665 1305.89343 6106.09326
4997.0 0.0002001 1305.45813 5042.09229
3791.0 0.0002638 1305.01990 3883.63916
2806.0 0.000356 1304.57861 2938.14087
2239.0 0.000447 1304.13428 2294.29883
1881.0 0.000532 1303.68677 1911.63196
1681.0 0.000595 1303.23596 1703.16980
1604.0 0.000623 1302.78174 1591.16150
1563.0 0.000640 1302.32422 1526.50525
1480.0 0.000676 1301.86340 1484.44568
1339.0 0.000747 1301.39880 1454.10498
1393.0 0.000718 1300.93079 1430.81189
1397.0 0.000716 1300.45923 1412.31848
1384.0 0.000723 1299.98401 1397.32886
1348.0 0.000742 1299.50500 1384.98633
1358.0 0.000736 1299.02234 1374.68567
1378.0 0.000726 1298.53589 1365.98425
1311.0 0.000763 1298.04529 1358.55249
1302.0 0.000768 1297.55078 1349.68311
1312.0 0.000762 1297.05237 1344.20435
1273.0 0.000786 1296.55005 1339.39868
1355.0 0.000738 1296.04346 1335.14880
1355.0 0.000738 1295.53284 1331.36267
1409.0 0.000710 1295.01807 1327.96533
1499.0 0.000667 1294.49902 1324.89685
1494.0 0.000669 1293.97571 1322.10767
1521.0 0.000657 1293.44812 1319.55750
1514.0 0.000661 1292.91602 1317.21277
1477.0 0.000677 1292.37964 1315.04553
1381.0 0.000724 1291.83887 1313.03235
1347.0 0.000742 1291.29370 1311.15320
1323.0 0.000756 1290.74402 1309.39136
1288.0 0.000776 1290.18970 1307.73242
1227.0 0.000815 1289.63086 1306.16394
1225.0 0.000816 1289.06750 1304.67554
1257.0 0.000796 1288.49927 1303.25757
1251.0 0.000799 1287.92651 1302.16199
1237.0 0.000808 1287.34912 1300.87439
1198.0 0.000835 1286.76697 1299.63733
1185.0 0.000844 1286.17993 1298.44543
1212.0 0.000825 1285.58838 1297.29419
1176.0 0.000850 1284.99194 1296.17944
1229.0 0.000814 1284.39050 1295.09753
1178.0 0.000849 1283.78442 1294.04553
1171.0 0.000854 1283.17334 1293.02026
1271.0 0.000787 1282.55750 1282.95923
1244.0 0.000804 1281.93652 1282.36096
1334.0 0.000750 1281.31079 1281.75964
1282.0 0.000780 1280.68018 1281.15576
1430.0 0.000699 1280.04443 1280.54919
1384.0 0.000723 1279.40369 1279.94043
1478.0 0.000677 1278.75818 1279.32996
1374.0 0.000728 1278.10742 1278.71777
1364.0 0.000733 1277.45190 1278.10498
1339.0 0.000747 1276.79114 1277.49146
1348.0 0.000742 1276.12537 1279.86768
1215.0 0.000823 1275.45471 1279.39050
1240.0 0.000806 1274.77881 1278.92480
1201.0 0.000833 1274.09802 1278.47241
1205.0 0.000830 1273.41211 1278.03601
1309.0 0.000764 1272.72119 1277.61841
1234.0 0.000810 1272.02502 1277.84204
1269.0 0.000788 1271.32385 1277.50049
1266.0 0.000790 1270.61780 1277.19263
1205.0 0.000830 1269.90649 1276.92432
1316.0 0.000760 1269.19031 1276.70410
1350.0 0.000741 1268.46899 1276.54150
1278.0 0.000782 1267.74255 1276.44946
1239.0 0.000807 1267.01111 1276.44482
1235.0 0.000810 1266.27466 1276.54993
1204.0 0.000831 1265.53320 1276.79541
1223.0 0.000818 1264.78650 1277.22754
1208.0 0.000828 1264.03491 1277.92712
1152.0 0.000868 1263.27844 1279.06042
1200.0 0.000833 1262.51697 1281.00476
1177.0 0.000850 1261.75037 1284.57666
1193.0 0.000838 1260.97900 1291.29749
1202.0 0.000832 1260.20239 1303.39502
1149.0 0.000870 1259.42102 1323.07874
1295.0 0.000772 1258.63464 1350.87073
1287.0 0.000777 1257.84351 1383.33215
1312.0 0.000762 1257.04736 1410.81226
1380.0 0.000725 1256.24646 1419.24292
1301.0 0.000769 1255.44067 1403.50085
1303.0 0.000767 1254.63000 1374.67896
1230.0 0.000813 1253.81458 1346.12292
1184.0 0.000845 1252.99451 1324.79993
1175.0 0.000851 1252.16956 1312.34802
1214.0 0.000824 1251.33984 1307.51440
1163.0 0.000860 1250.50549 1309.51477
1272.0 0.000786 1249.66675 1314.47925
1243.0 0.000805 1248.82300 1323.37573
1332.0 0.000751 1247.97473 1337.70422
1261.0 0.000793 1247.12195 1361.99438
1340.0 0.000746 1246.26453 1406.36804
1436.0 0.000696 1245.40271 1489.25903
1603.0 0.000624 1244.53625 1636.48047
1891.0 0.000529 1243.66553 1871.44324
2197.0 0.000455 1242.79041 2195.09399
2638.0 0.000379 1241.91089 2559.99316
3047.0 0.0003282 1241.02686 2847.14478
3018.0 0.0003313 1240.13867 2902.71509
2787.0 0.000359 1239.24622 2701.82056
2527.0 0.000396 1238.34949 2390.34302
2189.0 0.000457 1237.44861 2111.55054
1998.0 0.000501 1236.54370 1925.42371
1908.0 0.000524 1235.63452 1821.03735
1831.0 0.000546 1234.72144 1751.49011
1719.0 0.000582 1233.80420 1662.78857
1545.0 0.000647 1232.88306 1562.60205
1461.0 0.000684 1231.95789 1470.95300
1393.0 0.000718 1231.02905 1399.70850
1315.0 0.000760 1230.09607 1350.85522
1235.0 0.000810 1229.15967 1320.28418
1199.0 0.000834 1228.21936 1301.91125
1263.0 0.000792 1227.27551 1290.60583
1220.0 0.000820 1226.32788 1283.14685
1237.0 0.000808 1225.37671 1277.87170
1163.0 0.000860 1224.42200 1274.01379
1214.0 0.000824 1223.46375 1271.22632
1181.0 0.000847 1222.50208 1269.34949
1234.0 0.000810 1221.53699 1268.31873
1264.0 0.000791 1220.56873 1268.13757
1236.0 0.000809 1219.59717 1268.88135
1344.0 0.000744 1218.62244 1270.73096
1237.0 0.000808 1217.64429 1274.08948
1271.0 0.000787 1216.66321 1279.90234
1223.0 0.000818 1215.67896 1290.09937
1252.0 0.000799 1214.69189 1309.83020
1312.0 0.000762 1213.70178 1346.84558
1400.0 0.000714 1212.70886 1411.78357
1560.0 0.000641 1211.71313 1513.27063
1759.0 0.000569 1210.71460 1649.31934
2006.0 0.000499 1209.71326 1796.59814
2052.0 0.000487 1208.70959 1901.92371
2059.0 0.000486 1207.70300 1904.15955
1936.0 0.000517 1206.69409 1803.10950
1749.0 0.000572 1205.68262 1660.47424
1505.0 0.000664 1204.66882 1529.95959
1424.0 0.000702 1203.65271 1435.09851
1350.0 0.000741 1202.63452 1378.20105
1360.0 0.000735 1201.61377 1351.15625
1257.0 0.000796 1200.59106 1344.15515
1287.0 0.000777 1199.56628 1350.66064
1341.0 0.000746 1198.53943 1369.18823
1380.0 0.000725 1197.51074 1404.66614
1456.0 0.000687 1196.47998 1468.76294
1615.0 0.000619 1195.44751 1597.00806
1888.0 0.000530 1194.41357 1831.12427
2241.0 0.000446 1193.37769 2218.78174
2805.0 0.000357 1192.34021 2778.29370
3508.0 0.0002851 1191.30103 3452.48413
4251.0 0.0002352 1190.26050 4058.19409
4325.0 0.0002312 1189.21863 4298.88574
3967.0 0.0002521 1188.17542 4008.71411
3350.0 0.0002985 1187.13086 3379.25049
2732.0 0.000366 1186.08533 2705.73730
2217.0 0.000451 1185.03857 2157.35645
1758.0 0.000569 1183.99048 1781.61108
1527.0 0.000655 1182.94153 1555.92554
1513.0 0.000661 1181.89172 1430.28784
1516.0 0.000660 1180.84106 1361.29272
1418.0 0.000705 1179.78955 1320.66797
1360.0 0.000735 1178.73730 1293.83960
1404.0 0.000712 1177.68445 1274.24902
1298.0 0.000770 1176.63123 1259.02539
1365.0 0.000733 1175.57727 1246.77747
1370.0 0.000730 1174.52295 1236.70459
1318.0 0.000759 1173.46814 1228.27979
1346.0 0.000743 1172.41309 1221.12964
1329.0 0.000752 1171.35779 1214.98218
1283.0 0.000779 1170.30249 1209.63391
1270.0 0.000787 1169.24695 1204.93091
1328.0 0.000753 1168.19177 1200.75562
1218.0 0.000821 1167.13635 1197.01575
1189.0 0.000841 1166.08105 1193.63977
1263.0 0.000792 1165.02600 1190.57117
1206.0 0.000829 1163.97119 1187.76440
1201.0 0.000833 1162.91675 1185.18372
1252.0 0.000799 1161.86279 1182.80054
1267.0 0.000789 1160.80920 1179.34619
1227.0 0.000815 1159.75635 1177.34692
1269.0 0.000788 1158.70410 1175.48694
1270.0 0.000787 1157.65247 1173.75671
1220.0 0.000820 1156.60181 1172.14990
1280.0 0.000781 1155.55164 1170.66309
1291.0 0.000775 1154.50256 1169.29736
1301.0 0.000769 1153.45447 1168.05676
1368.0 0.000731 1152.40747 1166.95044
1338.0 0.000747 1151.36157 1165.99353
1303.0 0.000767 1150.31714 1165.20898
1303.0 0.000767 1149.27368 1164.62927
1290.0 0.000775 1148.23157 1164.30396
1217.0 0.000822 1147.19080 1164.30908
1147.0 0.000872 1146.15173 1164.77747
1121.0 0.000892 1145.11414 1165.97974
1104.0 0.000906 1144.07813 1168.53088
1108.0 0.000903 1143.04370 1173.80029
1138.0 0.000879 1142.01147 1184.48401
1162.0 0.000861 1140.98083 1199.19983
1186.0 0.000843 1139.95178 1234.60681
1229.0 0.000814 1138.92493 1287.71399
1295.0 0.000772 1137.90002 1354.97412
1365.0 0.000733 1136.87744 1421.17285
1426.0 0.000701 1135.85681 1457.38110
1439.0 0.000695 1134.83850 1439.64954
1361.0 0.000735 1133.82251 1379.39673
1310.0 0.000763 1132.80896 1307.78027
1206.0 0.000829 1131.79773 1245.96118
1186.0 0.000843 1130.78894 1201.51538
1125.0 0.000889 1129.78271 1173.49158
1144.0 0.000874 1128.77917 1157.22693
1080.0 0.000926 1127.77832 1147.90247
1053.0 0.000950 1126.78027 1142.16187
1140.0 0.000877 1125.78491 1138.17114
1054.0 0.000949 1124.79272 1135.07629
1084.0 0.000923 1123.80322 1132.50183
1110.0 0.000901 1122.81689 1130.27307
1128.0 0.000887 1121.83350 1128.29346
1160.0 0.000862 1120.85327 1126.50220
1141.0 0.000876 1119.87610 1124.85608
1167.0 0.000857 1118.90247 1123.32434
1127.0 0.000887 1117.93188 1121.88379
1112.0 0.000899 1116.96509 1120.51758
1028.0 0.000973 1116.00159 1119.21179
1095.0 0.000913 1115.04138 1117.95605
1056.0 0.000947 1114.08472 1116.74292
1091.0 0.000917 1113.13171 1115.56543
1092.0 0.000916 1112.18250 1114.41895
1054.0 0.000949 1111.23682 1113.29895
1011.0 0.000989 1110.29517 1114.07764
1051.0 0.000951 1109.35730 1113.06982
1056.0 0.000947 1108.42322 1112.08398
1019.0 0.000981 1107.49304 1111.11865
1047.0 0.000955 1106.56702 1110.17261
1021.0 0.000979 1105.64502 1109.24475
1089.0 0.000918 1104.72717 1108.33447
1024.0 0.000977 1103.81335 1107.44116
1092.0 0.000916 1102.90381 1106.56458
1074.0 0.000931 1101.99854 1105.70459
1071.0 0.000934 1101.09778 1104.86108
1110.0 0.000901 1100.20105 1104.03406
1121.0 0.000892 1099.30884 1103.22400
1060.0 0.000943 1098.42126 1102.43127
1135.0 0.000881 1097.53809 1101.65625
1190.0 0.000840 1096.65942 1100.89978
1185.0 0.000844 1095.78540 1100.16284
1205.0 0.000830 1094.91589 1099.60474
1219.0 0.000820 1094.05151 1098.91577
1250.0 0.000800 1093.19165 1098.24988
1236.0 0.000809 1092.33643 1096.99780
1249.0 0.000801 1091.48621 1096.40967
1153.0 0.000867 1090.64087 1095.84900
1117.0 0.000895 1089.80042 1095.31897
1066.0 0.000938 1088.96484 1094.82239
1077.0 0.000929 1088.13440 1094.36316
1056.0 0.000947 1087.30896 1093.94556
1046.0 0.000956 1086.48877 1093.57434
1071.0 0.000934 1085.67346 1093.25549
1085.0 0.000922 1084.86340 1092.99585
1020.0 0.000980 1084.05835 1092.80359
1058.0 0.000945 1083.25879 1092.68860
1033.0 0.000968 1082.46448 1092.66248
1002.0 0.000998 1081.67529 1092.73950
1037.0 0.000964 1080.89160 1092.93713
1062.0 0.000942 1080.11340 1093.27649
1031.0 0.000970 1079.34045 1093.78406
1022.0 0.000978 1078.57300 1094.49280
1064.0 0.000940 1077.81091 1095.44458
1077.0 0.000929 1077.05444 1096.69324
1077.0 0.000929 1076.30347 1098.30774
1009.0 0.000991 1075.55811 1100.37903
996.0 0.001004 1074.81824 1103.02808
1024.0 0.000977 1074.08423 1106.41980
1087.0 0.000920 1073.35571 1110.78357
1026.0 0.000975 1072.63269 1116.46082
1123.0 0.000890 1071.91565 1124.02173
1047.0 0.000955 1071.20422 1134.58789
1086.0 0.000921 1070.49841 1150.64417
1120.0 0.000893 1069.79858 1177.70190
1216.0 0.000822 1069.10449 1226.71350
1294.0 0.000773 1068.41614 1315.63184
1451.0 0.000689 1067.73389 1466.50037
1680.0 0.000595 1067.05713 1694.63928
1995.0 0.000501 1066.38647 1990.51953
2268.0 0.000441 1065.72156 2297.56787
2527.0 0.000396 1065.06274 2496.76953
2468.0 0.000405 1064.40967 2466.64917
2207.0 0.000453 1063.76270 2227.36377
1886.0 0.000530 1063.12158 1913.19958
1570.0 0.000637 1062.48669 1629.47278
1334.0 0.000750 1061.85754 1419.35364
1229.0 0.000814 1061.23438 1284.50159
1134.0 0.000882 1060.61731 1206.55615
1074.0 0.000931 1060.00647 1163.82727
1091.0 0.000917 1059.40137 1140.14404
1073.0 0.000932 1058.80237 1126.41687
1006.0 0.000994 1058.20947 1118.78223
1079.0 0.000927 1057.62280 1116.47791
1099.0 0.000910 1057.04211 1120.35901
1040.0 0.000962 1056.46741 1131.62305
1135.0 0.000881 1055.89880 1150.25464
1100.0 0.000909 1055.33618 1173.17480
1191.0 0.000840 1054.77991 1192.34680
1189.0 0.000841 1054.22961 1196.04785
1179.0 0.000848 1053.68542 1179.71729
1190.0 0.000840 1053.14734 1152.16162
1118.0 0.000894 1052.61536 1124.27563
1047.0 0.000955 1052.08948 1101.79700
1059.0 0.000944 1051.56970 1086.10742
1104.0 0.000906 1051.05603 1076.15454
1043.0 0.000959 1050.54858 1070.06482
1122.0 0.000891 1050.04700 1066.19202
1097.0 0.000912 1049.55164 1063.48047
1133.0 0.000883 1049.06238 1061.37610
1139.0 0.000878 1048.57935 1059.62244
1080.0 0.000926 1048.10217 1058.09973
1122.0 0.000891 1047.63123 1056.74756
1065.0 0.000939 1047.16614 1055.52795
1143.0 0.000875 1046.70728 1054.41553
1015.0 0.000985 1046.25427 1053.39099
1034.0 0.000967 1045.80750 1052.44031
1069.0 0.000935 1045.36670 1051.55212
998.0 0.001002 1044.93201 1050.71741
1018.0 0.000982 1044.50317 1049.92932
985.0 0.001015 1044.08032 1049.18188
1040.0 0.000962 1043.66370 1066.18823
1082.0 0.000924 1043.25269 1066.14417
1053.0 0.000950 1042.84790 1066.16418
1032.0 0.000969 1042.44885 1066.24744
998.0 0.001002 1042.05579 1066.39478
1046.0 0.000956 1041.66870 1066.60742
1045.0 0.000957 1041.28735 1066.88684
1041.0 0.000961 1040.91199 1067.23523
1045.0 0.000957 1040.54248 1067.65576
1010.0 0.000990 1040.17859 1068.15125
1107.0 0.000903 1039.82068 1068.72632
1056.0 0.000947 1039.46851 1069.38525
1096.0 0.000912 1039.12219 1070.13379
1058.0 0.000945 1038.78137 1070.97754
1096.0 0.000912 1038.44653 1071.92432
1007.0 0.000993 1038.11719 1072.98169
1024.0 0.000977 1037.79358 1074.15881
1026.0 0.000975 1037.47546 1073.60693
1113.0 0.000898 1037.16321 1075.12024
1042.0 0.000960 1036.85632 1076.78577
1037.0 0.000964 1036.55505 1078.61951
1083.0 0.000923 1036.25928 1080.63879
1074.0 0.000931 1035.96924 1082.86401
1053.0 0.000950 1035.68433 1087.20593
1123.0 0.000890 1035.40491 1089.98499
1134.0 0.000882 1035.13098 1093.05505
1130.0 0.000885 1034.86243 1096.45251
1144.0 0.000874 1034.59912 1100.21973
1155.0 0.000866 1034.34119 1104.40625
1176.0 0.000850 1034.08850 1109.07031
1169.0 0.000855 1033.84106 1114.28101
1175.0 0.000851 1033.59888 1120.12061
1245.0 0.000803 1033.36182 1126.68726
1198.0 0.000835 1033.12988 1134.09924
1192.0 0.000839 1032.90295 1142.50037
1194.0 0.000838 1032.68115 1151.90967
1204.0 0.000831 1032.46436 1162.86206
1240.0 0.000806 1032.25256 1175.46448
1210.0 0.000826 1032.04565 1190.05469
1260.0 0.000794 1031.84375 1207.06165
1284.0 0.000779 1031.64661 1227.03467
1248.0 0.000801 1031.45435 1250.68738
1311.0 0.000763 1031.26685 1278.95996
1292.0 0.000774 1031.08411 1313.10913
1376.0 0.000727 1030.90588 1354.85193
1410.0 0.000709 1030.73267 1406.62256
1478.0 0.000677 1030.56384 1472.14355
1605.0 0.000623 1030.39941 1557.93323
1688.0 0.000592 1030.23975 1677.32959
1950.0 0.000513 1030.08447 1859.91650
2205.0 0.000454 1029.93347 2168.90015
2749.0 0.000364 1029.78723 2722.33594
3898.0 0.0002565 1029.64502 3698.43872
5480.0 0.0001825 1029.50720 5291.05859
8008.0 0.0001249 1029.37354 7593.60352
10958.0 0.0000913 1029.24414 10426.75977
13727.0 0.0000728 1029.11890 13134.54883
14748.0 0.0000678 1028.99780 14526.22266
14026.0 0.0000713 1028.88074 13705.25977
11344.0 0.0000882 1028.76758 11224.14844
8513.0 0.0001175 1028.65833 8334.71387
6030.0 0.0001658 1028.55298 5854.74365
4212.0 0.0002374 1028.45166 4072.08008
3130.0 0.0003195 1028.35388 2948.62500
2545.0 0.000393 1028.26013 2303.24097
2134.0 0.000469 1028.16980 1946.00916
1888.0 0.000530 1028.08337 1741.63379
1702.0 0.000588 1028.00024 1614.16235
1593.0 0.000628 1027.92090 1527.28699
1570.0 0.000637 1027.84485 1465.05615
1473.0 0.000679 1027.77246 1420.68213
1448.0 0.000691 1027.70313 1392.07190
1414.0 0.000707 1027.63745 1381.27539
1396.0 0.000716 1027.57483 1395.88513
1509.0 0.000663 1027.51538 1450.33716
1587.0 0.000630 1027.45935 1563.83423
1858.0 0.000538 1027.40613 1751.61340
1994.0 0.000502 1027.35608 2009.44092
2231.0 0.000448 1027.30896 2293.80029
2442.0 0.000410 1027.26489 2503.41333
2398.0 0.000417 1027.22363 2513.61328
2410.0 0.000415 1027.18518 2309.89429
2014.0 0.000497 1027.14941 2008.37537
1615.0 0.000619 1027.11646 1719.62158
1496.0 0.000668 1027.08606 1495.33679
1437.0 0.000696 1027.05835 1344.17395
1313.0 0.000762 1027.03320 1252.09253
1191.0 0.000840 1027.01038 1198.67017
1205.0 0.000830 1026.98999 1167.00122
1153.0 0.000867 1026.97205 1146.56055
1141.0 0.000876 1026.95642 1131.92554
1067.0 0.000937 1026.94299 1120.58752
1099.0 0.000910 1026.93164 1111.38623
1049.0 0.000953 1026.92261 1103.72119
1065.0 0.000939 1026.91541 1097.22644
1045.0 0.000957 1026.91040 1091.65222
1057.0 0.000946 1026.90723 1086.81616
1094.0 0.000914 1026.90613 1082.58130
1047.0 0.000955 1026.90662 1078.84290
1048.0 0.000954 1026.90894 1075.51941
1050.0 0.000952 1026.91296 1072.54565
1074.0 0.000931 1026.91870 1069.87061
1048.0 0.000954 1026.92590 1067.45178
1022.0 0.000978 1026.93469 1065.25525
999.0 0.001001 1026.94495 1063.25244
1044.0 0.000958 1026.95667 1061.41968
1072.0 0.000933 1026.96960 1059.73706
1043.0 0.000959 1026.98389 1058.18774
1066.0 0.000938 1026.99939 1056.75708
1051.0 0.000951 1027.01611 1055.43274
1021.0 0.000979 1027.03381 1054.20422
1059.0 0.000944 1027.05261 1053.06189
1029.0 0.000972 1027.07251 1051.99780
1016.0 0.000984 1027.09314 1051.00464
1042.0 0.000960 1027.11475 1032.18982
1010.0 0.000990 1027.13721 1031.93164
1030.0 0.000971 1027.16028 1031.69690
978.0 0.001022 1027.18408 1031.48279
1004.0 0.000996 1027.20850 1031.28772
1003.0 0.000997 1027.23352 1031.10938
968.0 0.001033 1027.25891 1030.94641
1018.0 0.000982 1027.28491 1030.79736
1005.0 0.000995 1027.31116 1030.66077
1034.0 0.000967 1027.33777 1030.53552
981.0 0.001019 1027.36475 1030.42065
1005.0 0.000995 1027.39185 1030.31531
1064.0 0.000940 1027.41907 1030.21838
1051.0 0.000951 1027.44641 1030.12927
1114.0 0.000898 1027.47363 1030.04724
1163.0 0.000860 1027.50110 1029.97192
1135.0 0.000881 1027.52832 1029.90247
1187.0 0.000842 1027.55542 1029.83838
1256.0 0.000796 1027.58215 1029.77905
1184.0 0.000845 1027.60889 1029.72449
1198.0 0.000835 1027.63525 1029.67395
1118.0 0.000894 1027.66101 1029.62695
1063.0 0.000941 1027.68652 1027.68518
1008.0 0.000992 1027.71155 1027.71008
1066.0 0.000938 1027.73584 1027.73450
940.0 0.001064 1027.75964 1027.75818
987.0 0.001013 1027.78271 1028.32751
978.0 0.001022 1027.80518 1028.36975
997.0 0.001003 1027.82678 1028.41211
1008.0 0.000992 1027.84766 1028.45520
1024.0 0.000977 1027.86755 1028.49817
1066.0 0.000938 1027.88647 1028.54187
1110.0 0.000901 1027.90442 1028.58594
1087.0 0.000920 1027.92139 1028.63049
1124.0 0.000890 1027.93713 1028.67566
1135.0 0.000881 1027.95166 1028.72156
1161.0 0.000861 1027.96521 1028.76831
1145.0 0.000873 1027.97729 1028.81580
1203.0 0.000831 1027.98804 1028.86450
1185.0 0.000844 1027.99744 1028.91431
1165.0 0.000858 1028.00549 1028.96582
1151.0 0.000869 1028.01196 1029.01880
1225.0 0.000816 1028.01685 1029.42810
1145.0 0.000873 1028.02026 1029.49792
1139.0 0.000878 1028.02197 1029.57104
1031.0 0.000970 1028.02209 1029.64807
1034.0 0.000967 1028.02039 1029.72900
1044.0 0.000958 1028.01685 1029.81506
1036.0 0.000965 1028.01160 1029.90625
1059.0 0.000944 1028.00427 1030.00403
1087.0 0.000920 1027.99512 1030.10864
930.0 0.001075 1027.98401 1030.22180
945.0 0.001058 1027.97083 1030.34436
1075.0 0.000930 1027.95557 1030.47778
1023.0 0.000978 1027.93811 1030.62390
1049.0 0.000953 1027.91846 1030.78442
1092.0 0.000916 1027.89673 1030.96228
1071.0 0.000934 1027.87268 1031.15979
1019.0 0.000981 1027.84631 1031.38062
1091.0 0.000917 1027.81750 1031.62854
1029.0 0.000972 1027.78638 1031.90906
1061.0 0.000943 1027.75269 1032.22766
1043.0 0.000959 1027.71655 1032.59241
1076.0 0.000929 1027.67798 1033.01233
1103.0 0.000907 1027.63660 1033.49939
1041.0 0.000961 1027.59277 1034.06860
1008.0 0.000992 1027.54626 1034.73914
1077.0 0.000929 1027.49707 1035.53650
1044.0 0.000958 1027.44495 1036.49365
1093.0 0.000915 1027.39026 1037.65552
1129.0 0.000886 1027.33252 1039.08411
1141.0 0.000876 1027.27209 1040.87134
1038.0 0.000963 1027.20862 1043.16699
1022.0 0.000978 1027.14233 1046.25757
1014.0 0.000986 1027.07300 1050.75549
999.0 0.001001 1027.00061 1057.97815
982.0 0.001018 1026.92517 1070.49890
1037.0 0.000964 1026.84668 1092.53723
1022.0 0.000978 1026.76501 1129.42786
1127.0 0.000887 1026.68018 1185.38721
1289.0 0.000776 1026.59216 1259.56677
1297.0 0.000771 1026.50098 1340.93713
1345.0 0.000743 1026.40637 1403.18298
1401.0 0.000714 1026.30859 1412.56128
1389.0 0.000720 1026.20740 1362.92834
1324.0 0.000755 1026.10291 1284.38428
1246.0 0.000803 1025.99487 1207.48608
1303.0 0.000767 1025.88354 1164.03394
1361.0 0.000735 1025.76868 1124.18823
1374.0 0.000728 1025.65027 1101.11804
1443.0 0.000693 1025.52844 1089.85864
1453.0 0.000688 1025.40295 1086.55237
1401.0 0.000714 1025.27405 1089.74292
1314.0 0.000761 1025.14136 1100.42834
1298.0 0.000770 1025.00513 1121.25183
1233.0 0.000811 1024.86523 1154.76099
1247.0 0.000802 1024.72156 1200.74854
1303.0 0.000767 1024.57422 1252.94409
1281.0 0.000781 1024.42322 1295.51501
1282.0 0.000780 1024.26843 1306.29053
1251.0 0.000799 1024.10986 1278.08691
1195.0 0.000837 1023.94739 1228.56750
1141.0 0.000876 1023.78113 1178.33240
1000.0 0.001000 1023.61102 1138.14709
981.0 0.001019 1023.43713 1110.75073
1024.0 0.000977 1023.25916 1094.39612
1013.0 0.000987 1023.07739 1085.70752
1029.0 0.000972 1022.89160 1081.59314
1001.0 0.000999 1022.70203 1079.98816
1059.0 0.000944 1022.50842 1079.77490
1002.0 0.000998 1022.31079 1080.43115
990.0 0.001010 1022.10913 1081.73096
1020.0 0.000980 1021.90344 1083.57983
1032.0 0.000969 1021.69366 1085.94116
1023.0 0.000978 1021.47998 1088.80933
1034.0 0.000967 1021.26208 1092.19946
1077.0 0.000929 1021.04022 1096.14465
1024.0 0.000977 1020.81421 1100.69495
1062.0 0.000942 1020.58411 1105.91760
1012.0 0.000988 1020.34979 1111.90027
1028.0 0.000973 1020.11145 1118.75317
1062.0 0.000942 1019.86890 1126.61414
982.0 0.001018 1019.62219 1135.65527
1060.0 0.000943 1019.37134 1146.09192
1098.0 0.000911 1019.11639 1158.19458
1109.0 0.000902 1018.85724 1172.30615
1211.0 0.000826 1018.59387 1188.86450
1138.0 0.000879 1018.32617 1208.43469
1180.0 0.000847 1018.05450 1231.75610
1320.0 0.000758 1017.77850 1259.80786
1358.0 0.000736 1017.49829 1293.91150
1432.0 0.000698 1017.21381 1335.90320
1531.0 0.000653 1016.92523 1388.48413
1573.0 0.000636 1016.63245 1456.08618
1678.0 0.000596 1016.33521 1547.13745
1828.0 0.000547 1016.03394 1679.53394
1988.0 0.000503 1015.72839 1891.53821
2403.0 0.000416 1015.41852 2257.66016
3055.0 0.0003273 1015.10443 2900.24561
4044.0 0.0002473 1014.78613 3974.83545
5837.0 0.0001713 1014.46368 5610.05566
8098.0 0.0001235 1014.13696 7792.22949
10342.0 0.0000967 1013.80591 10220.47754
12081.0 0.0000828 1013.47083 12149.58594
12299.0 0.0000813 1013.13123 12566.43457
11098.0 0.0000901 1012.78766 11189.46289
8681.0 0.0001152 1012.43976 8857.30469
6477.0 0.0001544 1012.08759 6505.38037
4564.0 0.0002191 1011.73132 4614.50098
3243.0 0.0003084 1011.37085 3303.56567
2538.0 0.000394 1011.00623 2490.43604
2041.0 0.000490 1010.63727 2020.48706
1741.0 0.000574 1010.26422 1752.27661
1621.0 0.000617 1009.88696 1590.81360
1441.0 0.000694 1009.50555 1484.02209
1368.0 0.000731 1009.12000 1406.81824
1277.0 0.000783 1008.73035 1347.24341
1288.0 0.000776 1008.33649 1300.24707
1212.0 0.000825 1007.93866 1262.17151
1159.0 0.000863 1007.53656 1230.86316
1194.0 0.000838 1007.13043 1265.76941
1111.0 0.000900 1006.72015 1246.05457
1141.0 0.000876 1006.30573 1229.75891
1112.0 0.000899 1005.88739 1216.25537
1091.0 0.000917 1005.46497 1205.06238
1120.0 0.000893 1005.03851 1195.80701
1036.0 0.000965 1004.60809 1188.19849
1089.0 0.000918 1004.17371 1182.00793
1049.0 0.000953 1003.73529 1177.05554
1071.0 0.000934 1003.29285 1173.19922
1030.0 0.000971 1002.84644 1170.32727
1018.0 0.000982 1002.39618 1168.35303
1072.0 0.000933 1001.94196 1167.20984
1084.0 0.000923 1001.48395 1166.84875
1062.0 0.000942 1001.02197 1167.23474
1124.0 0.000890 1000.55627 1168.34656
1071.0 0.000934 1000.08667 1170.17432
1117.0 0.000895 999.61328 1172.71887
1118.0 0.000894 999.13611 1175.99243
1123.0 0.000890 998.65509 1180.01721
1154.0 0.000867 998.17035 1213.37341
1176.0 0.000850 997.68201 1220.03540
1150.0 0.000870 997.18988 1227.63879
1160.0 0.000862 996.69421 1236.25842
1145.0 0.000873 996.19476 1245.98425
1046.0 0.000956 995.69171 1256.92456
1117.0 0.000895 995.18506 1269.20850
1159.0 0.000863 994.67493 1282.98999
1172.0 0.000853 994.16113 1298.45203
1226.0 0.000816 993.64398 1315.81311
1274.0 0.000785 993.12317 1335.33374
1255.0 0.000797 992.59912 1357.32776
1277.0 0.000783 992.07153 1382.17261
1297.0 0.000771 991.54047 1410.32642
1361.0 0.000735 991.00610 1442.34839
1373.0 0.000728 990.46838 1478.92615
1399.0 0.000715 989.92731 1520.91199
1442.0 0.000693 989.38306 1569.37183
1571.0 0.000637 988.83551 1625.65137
1581.0 0.000633 988.28467 1691.46863
1697.0 0.000589 987.73083 1769.04236
1785.0 0.000560 987.17365 1844.77234
1852.0 0.000540 986.61346 1956.08557
2024.0 0.000494 986.05011 2091.14917
2184.0 0.000458 985.48376 2257.31152
2335.0 0.000428 984.91437 2465.81323
2740.0 0.000365 984.34192 2736.00171
3167.0 0.0003158 983.76660 3106.27319
3571.0 0.0002800 983.18842 3658.55933
4625.0 0.0002162 982.60730 4561.99951
6218.0 0.0001608 982.02325 6125.84229
8909.0 0.0001122 981.43646 8816.18457
13334.0 0.0000750 980.84692 13158.47363
19809.0 0.0000505 980.25458 19470.06445
28409.0 0.0000352 979.65955 27446.29883
36504.0 0.0000274 979.06189 35632.99609
40723.0 0.0000246 978.46161 41020.28516
40307.0 0.0000248 977.85870 40488.46875
33877.0 0.0000295 977.25323 34402.55078
25628.0 0.0000390 976.64526 26118.84961
18176.0 0.0000550 976.03485 18404.90234
12181.0 0.0000821 975.42188 12478.54590
8428.0 0.0001187 974.80664 8505.59570
6196.0 0.0001614 974.18890 6109.07617
4901.0 0.0002040 973.56903 4762.13721
4240.0 0.0002358 972.94684 4026.59375
3841.0 0.0002603 972.32233 3626.54370
3543.0 0.0002822 971.69562 3423.25415
3505.0 0.0002853 971.06671 3368.74976
3615.0 0.0002766 970.43579 3480.00635
4007.0 0.0002496 969.80280 3840.58911
4820.0 0.0002075 969.16766 4613.40820
6096.0 0.0001640 968.53058 6030.10742
8321.0 0.0001202 967.89160 8316.82422
11683.0 0.0000856 967.25073 11541.15332
15663.0 0.0000638 966.60791 15398.80273
19052.0 0.0000525 965.96326 18952.19531
20543.0 0.0000487 965.31677 20602.23633
19092.0 0.0000524 964.66864 19274.48047
15725.0 0.0000636 964.01874 15800.58984
11772.0 0.0000849 963.36725 11816.38379
8193.0 0.0001221 962.71423 8368.71777
5540.0 0.0001805 962.05957 5833.49854
3887.0 0.0002573 961.40332 4178.60156
3052.0 0.0003277 960.74567 3184.47974
2544.0 0.000393 960.08649 2606.75732
2157.0 0.000464 959.42596 2271.17407
1927.0 0.000519 958.76404 2046.71252
1801.0 0.000555 958.10083 1886.82507
1625.0 0.000615 957.43634 1764.76550
1538.0 0.000650 956.77087 1667.64209
1488.0 0.000672 956.10394 1588.49011
1446.0 0.000692 955.43604 1522.99048
1381.0 0.000724 954.76697 1468.21179
1324.0 0.000755 954.09680 1422.09180
1321.0 0.000757 953.42572 1383.15930
1247.0 0.000802 952.75366 1350.31177
1257.0 0.000796 952.08075 1322.59827
1188.0 0.000842 951.40704 1298.99121
1200.0 0.000833 950.73230 1278.15479
1188.0 0.000842 950.05695 1258.48621
1181.0 0.000847 949.38080 1239.06262
1194.0 0.000838 948.70398 1220.34387
1125.0 0.000889 948.02661 1203.17883
1076.0 0.000929 947.34863 1188.00037
1084.0 0.000923 946.66992 1174.85522
1031.0 0.000970 945.99103 1166.01514
1073.0 0.000932 945.31152 1156.53149
1051.0 0.000951 944.63159 1148.66846
1040.0 0.000962 943.95123 1142.54810
1028.0 0.000973 943.27069 1138.49133
1041.0 0.000961 942.58984 1136.87671
1055.0 0.000948 941.90863 1137.84900
1046.0 0.000956 941.22742 1080.30762
1138.0 0.000879 940.54596 1085.88269
1073.0 0.000932 939.86444 1088.76538
1068.0 0.000936 939.18286 1086.47546
1023.0 0.000978 938.50134 1080.13794
1017.0 0.000983 937.81976 1073.00244
1071.0 0.000934 937.13824 1067.40332
1043.0 0.000959 936.45697 1064.31885
1105.0 0.000905 935.77582 1063.87646
998.0 0.001002 935.09491 1065.80322
975.0 0.001026 934.41431 1069.76733
1049.0 0.000953 933.73395 1075.57959
1034.0 0.000967 933.05389 1083.25330
1057.0 0.000946 932.37421 1092.99133
1061.0 0.000943 931.69513 1105.16650
1009.0 0.000991 931.01642 1120.32312
1036.0 0.000965 930.33826 1139.22083
1099.0 0.000910 929.66058 1162.92639
1106.0 0.000904 928.98376 1193.01733
1249.0 0.000801 928.30743 1232.08179
1264.0 0.000791 927.63184 1284.99597
1365.0 0.000733 926.95691 1333.22156
1413.0 0.000708 926.28278 1456.34399
1710.0 0.000585 925.60950 1665.19067
2094.0 0.000478 924.93719 2025.63550
2798.0 0.000357 924.26569 2621.98535
3763.0 0.0002657 923.59515 3525.91650
5157.0 0.0001939 922.92566 4739.86963
6600.0 0.0001515 922.25726 6121.05566
7605.0 0.0001315 921.58978 7292.34863
7889.0 0.0001268 920.92352 7688.61914
7489.0 0.0001335 920.25836 7053.82275
5999.0 0.0001667 919.59436 5782.11572
4539.0 0.0002203 918.93170 4420.29053
3394.0 0.0002946 918.27032 3280.26489
2530.0 0.000395 917.61035 2460.61743
1982.0 0.000505 916.95160 1935.36169
1620.0 0.000617 916.29431 1625.45813
1491.0 0.000671 915.63849 1449.67529
1389.0 0.000720 914.98407 1349.07617
1350.0 0.000741 914.33124 1289.74072
1302.0 0.000768 913.67993 1256.01025
1264.0 0.000791 913.03021 1243.83398
1270.0 0.000787 912.38232 1257.58167
1407.0 0.000711 911.73590 1309.16321
1595.0 0.000627 911.09131 1416.21704
1747.0 0.000572 910.44830 1595.52820
2030.0 0.000493 909.80719 1850.88818
2311.0 0.000433 909.16785 2156.31543
2461.0 0.000406 908.53033 2435.34717
2529.0 0.000395 907.89478 2559.85522
2420.0 0.000413 907.26117 2445.87305
2113.0 0.000473 906.62958 2160.87476
1856.0 0.000539 906.00000 1835.02075
1637.0 0.000611 905.37231 1551.70239
1441.0 0.000694 904.74683 1341.26245
1345.0 0.000743 904.12329 1201.77344
1312.0 0.000762 903.50195 1116.22925
1352.0 0.000740 902.88287 1066.25159
1463.0 0.000684 902.26593 1034.82764
1478.0 0.000677 901.65137 1013.89966
1510.0 0.000662 901.03894 998.61926
1490.0 0.000671 900.42889 986.68213
1512.0 0.000661 899.82104 976.96545
1386.0 0.000722 899.21558 968.86133
1258.0 0.000795 898.61255 961.99109
1184.0 0.000845 898.01202 956.09338
1108.0 0.000903 897.41388 950.97809
1080.0 0.000926 896.81836 946.50256
1083.0 0.000923 896.22528 942.55841
1113.0 0.000898 895.63464 939.06226
1149.0 0.000870 895.04663 935.95013
1155.0 0.000866 894.46124 933.33893
1153.0 0.000867 893.87854 930.86542
1090.0 0.000917 893.29852 928.66296
1040.0 0.000962 892.72107 926.71399
984.0 0.001016 892.14636 925.00958
979.0 0.001021 891.57458 923.55243
916.0 0.001092 891.00543 922.35754
889.0 0.001125 890.43903 921.46753
881.0 0.001135 889.87543 920.98022
957.0 0.001045 889.31476 921.11499
1001.0 0.000999 888.75690 922.32617
984.0 0.001016 888.20197 925.44379
1028.0 0.000973 887.64990 931.72052
1074.0 0.000931 887.10089 942.59515
1091.0 0.000917 886.55481 959.02325
1087.0 0.000920 886.01166 970.10321
1050.0 0.000952 885.47150 993.30377
1095.0 0.000913 884.93439 1010.15851
1014.0 0.000986 884.40039 1011.35431
1052.0 0.000951 883.86945 995.86212
1004.0 0.000996 883.34149 972.35767
987.0 0.001013 882.81689 949.32538
882.0 0.001134 882.29517 930.94385
850.0 0.001176 881.77673 918.20032
866.0 0.001155 881.26141 910.33459
879.0 0.001138 880.74927 905.95337
910.0 0.001099 880.24042 903.77588
944.0 0.001059 879.73462 902.94043
934.0 0.001071 879.23218 902.99353
916.0 0.001092 878.73297 903.76294
961.0 0.001041 878.23712 905.24768
961.0 0.001041 877.74445 907.57501
903.0 0.001107 877.25513 911.04260
919.0 0.001088 876.76904 916.28961
931.0 0.001074 876.28638 924.68237
946.0 0.001057 875.80701 936.52057
1005.0 0.000995 875.33093 961.55237
1011.0 0.000989 874.85834 1004.17053
1095.0 0.000913 874.38922 1071.79639
1213.0 0.000824 873.92328 1168.46899
1390.0 0.000719 873.46082 1289.04382
1539.0 0.000650 873.00177 1411.64783
1590.0 0.000629 872.54614 1491.88684
1476.0 0.000678 872.09399 1484.11694
1468.0 0.000681 871.64532 1395.74817
1235.0 0.000810 871.20001 1270.75720
1234.0 0.000810 870.75830 1152.78149
1084.0 0.000923 870.31995 1060.57361
1011.0 0.000989 869.88507 997.51373
1027.0 0.000974 869.45367 958.95007
1025.0 0.000976 869.02582 937.84900
1004.0 0.000996 868.60150 928.43848
944.0 0.001059 868.18060 927.46649
916.0 0.001092 867.76324 933.64569
946.0 0.001057 867.34943 946.22504
943.0 0.001060 866.93909 963.36981
928.0 0.001078 866.53241 980.50885
945.0 0.001058 866.12903 989.55212
924.0 0.001082 865.72937 983.64539
902.0 0.001109 865.33313 965.27441
936.0 0.001068 864.94049 942.83081
843.0 0.001186 864.55139 922.49182
888.0 0.001126 864.16571 906.79834
808.0 0.001238 863.78381 895.95697
875.0 0.001143 863.40527 889.01288
831.0 0.001203 863.03027 884.71008
777.0 0.001287 862.65881 881.99768
850.0 0.001176 862.29095 880.18939
857.0 0.001167 861.92657 878.90674
809.0 0.001236 861.56580 877.96075
801.0 0.001248 861.20856 877.25891
846.0 0.001182 860.85486 876.75409
853.0 0.001172 860.50464 876.41986
853.0 0.001172 860.15790 876.24219
860.0 0.001163 859.81470 876.02521
903.0 0.001107 859.47510 876.15363
916.0 0.001092 859.13885 876.43573
894.0 0.001119 858.80615 876.88123
888.0 0.001126 858.47699 877.50488
912.0 0.001096 858.15137 878.32739
942.0 0.001062 857.82922 879.37622
951.0 0.001052 857.51050 880.68726
1002.0 0.000998 857.19525 882.30707
1021.0 0.000979 856.88354 893.61877
1057.0 0.000946 856.57520 896.39111
974.0 0.001027 856.27032 899.73199
998.0 0.001002 855.96881 903.77930
903.0 0.001107 855.67084 908.71881
956.0 0.001046 855.37622 914.80896
893.0 0.001120 855.08508 922.43384
845.0 0.001183 854.79718 932.23053
913.0 0.001095 854.51276 945.40558
870.0 0.001149 854.23169 964.43671
906.0 0.001104 853.95398 994.36108
1036.0 0.000965 853.67963 1044.47791
1100.0 0.000909 853.40857 1129.37329
1314.0 0.000761 853.14099 1267.07666
1492.0 0.000670 852.87653 1472.25989
1732.0 0.000577 852.61536 1744.41882
2098.0 0.000477 852.35754 2050.97388
2283.0 0.000438 852.10297 2312.26318
2326.0 0.000430 851.85162 2404.83862
2190.0 0.000457 851.60352 2270.69287
2009.0 0.000498 851.35858 1992.07446
1703.0 0.000587 851.11688 1688.40845
1426.0 0.000701 850.87836 1430.07996
1242.0 0.000805 850.64301 1240.85071
1131.0 0.000884 850.41077 1117.00781
970.0 0.001031 850.18164 1042.39954
1006.0 0.000994 849.95563 999.33966
923.0 0.001083 849.73273 974.31714
929.0 0.001076 849.51294 959.05676
892.0 0.001121 849.29614 949.20764
880.0 0.001136 849.08240 942.67358
903.0 0.001107 848.87164 938.28241
922.0 0.001085 848.66382 935.86444
883.0 0.001133 848.45898 934.95831
888.0 0.001126 848.25720 935.40271
887.0 0.001127 848.05829 937.11987
868.0 0.001152 847.86218 940.09821
886.0 0.001129 847.66907 944.38831
917.0 0.001091 847.47876 950.10016
941.0 0.001063 847.29126 957.41144
961.0 0.001041 847.10669 966.58057
946.0 0.001057 846.92474 977.96704
999.0 0.001001 846.74567 992.06622
987.0 0.001013 846.56927 1009.73328
1047.0 0.000955 846.39563 1031.60669
1079.0 0.000927 846.22467 1059.33203
1084.0 0.000923 846.05627 1095.43066
1166.0 0.000858 845.89069 1144.76282
1134.0 0.000882 845.72766 1217.32727
1227.0 0.000815 845.56714 1333.14856
1557.0 0.000642 845.40924 1528.27295
1789.0 0.000559 845.25391 1857.38440
2313.0 0.000432 845.10095 2385.05078
3135.0 0.0003190 844.95056 3159.01953
4224.0 0.0002367 844.80261 4166.45117
5305.0 0.0001885 844.65717 5275.54736
5967.0 0.0001676 844.51404 6169.00098
6141.0 0.0001628 844.37329 6408.54541
5618.0 0.0001780 844.23480 5841.56494
4674.0 0.0002139 844.09875 4802.97559
3518.0 0.0002843 843.96490 3709.57861
2688.0 0.000372 843.83337 2793.34155
2058.0 0.000486 843.70398 2126.89185
1659.0 0.000603 843.57684 1690.89722
1503.0 0.000665 843.45190 1425.91467
1333.0 0.000750 843.32904 1269.42822
1269.0 0.000788 843.20831 1174.49548
1242.0 0.000805 843.08960 1112.58032
1159.0 0.000863 842.97290 1068.66284
1140.0 0.000877 842.85828 1035.40564
1060.0 0.000943 842.74567 1009.17389
1079.0 0.000927 842.63495 987.97754
934.0 0.001071 842.52625 970.57550
930.0 0.001075 842.41925 956.11279
912.0 0.001096 842.31427 943.96893
923.0 0.001083 842.21100 931.18591
919.0 0.001088 842.10956 922.48126
875.0 0.001143 842.00995 915.00043
941.0 0.001063 841.91193 908.53131
897.0 0.001115 841.81567 902.90686
859.0 0.001164 841.72113 897.99512
888.0 0.001126 841.62817 894.29346
917.0 0.001091 841.53674 890.53430
872.0 0.001147 841.44696 887.43158
846.0 0.001182 841.35864 884.54364
841.0 0.001189 841.27179 882.02240
901.0 0.001110 841.18646 881.72955
883.0 0.001133 841.10254 879.93945
977.0 0.001024 841.02002 878.47736
905.0 0.001105 840.93884 877.37042
925.0 0.001081 840.85901 876.69952
898.0 0.001114 840.78046 876.65515
894.0 0.001119 840.70313 877.62909
870.0 0.001149 840.62701 880.31415
830.0 0.001205 840.55206 885.71729
869.0 0.001151 840.47839 894.94788
849.0 0.001178 840.40570 908.68701
920.0 0.001087 840.33411 926.38031
946.0 0.001057 840.26361 945.16473
925.0 0.001081 840.19409 958.80927
906.0 0.001104 840.12555 959.84058
958.0 0.001044 840.05792 947.21283
902.0 0.001109 839.99127 927.70355
819.0 0.001221 839.92548 908.21844
858.0 0.001166 839.86047 892.28442
851.0 0.001175 839.79633 880.84686
823.0 0.001215 839.73291 873.40808
788.0 0.001269 839.67023 868.90277
798.0 0.001253 839.60822 866.23328
821.0 0.001218 839.54681 864.63873
859.0 0.001164 839.48608 863.65820
887.0 0.001127 839.42596 863.05402
906.0 0.001104 839.36639 862.71332
840.0 0.001190 839.30737 862.58374
887.0 0.001127 839.24878 853.45703
848.0 0.001179 839.19061 854.00458
898.0 0.001114 839.13293 854.71399
911.0 0.001098 839.07556 855.59314
826.0 0.001211 839.01855 856.65692
860.0 0.001163 838.96179 857.92712
850.0 0.001176 838.90533 859.43402
888.0 0.001126 838.84912 861.39496
862.0 0.001160 838.79315 863.51440
801.0 0.001248 838.73724 866.03253
899.0 0.001112 838.68158 869.04108
858.0 0.001166 838.62592 872.66400
832.0 0.001202 838.57031 877.07697
895.0 0.001117 838.51477 882.55151
865.0 0.001156 838.45917 889.55109
848.0 0.001179 838.40356 898.93420
910.0 0.001099 838.34784 912.30255
911.0 0.001098 838.29199 932.46002
957.0 0.001045 838.23602 963.76184
1014.0 0.000986 838.17987 1011.97333
1104.0 0.000906 838.12354 1083.33936
1179.0 0.000848 838.06683 1182.82886
1285.0 0.000778 838.00989 1311.15320
1449.0 0.000690 837.95264 1459.90649
1647.0 0.000607 837.89502 1611.88977
1756.0 0.000569 837.83698 1758.32617
1916.0 0.000522 837.77850 1903.08716
2006.0 0.000499 837.71967 2034.36121
1978.0 0.000506 837.66022 2103.32666
1998.0 0.000501 837.60028 2045.56604
1738.0 0.000575 837.53973 1861.03760
1597.0 0.000626 837.47864 1622.98926
1402.0 0.000713 837.41693 1399.20154
1181.0 0.000847 837.35455 1221.38074
1033.0 0.000968 837.29150 1095.43542
929.0 0.001076 837.22766 1013.73236
894.0 0.001119 837.16309 963.60504
905.0 0.001105 837.09766 933.19489
899.0 0.001112 837.03149 914.02014
877.0 0.001140 836.96442 901.02954
880.0 0.001136 836.89648 891.56830
825.0 0.001212 836.82764 884.32513
825.0 0.001212 836.75781 878.47943
887.0 0.001127 836.68701 874.05286
806.0 0.001241 836.61517 870.70398
834.0 0.001199 836.54224 868.35248
824.0 0.001214 836.46826 866.92651
801.0 0.001248 836.39325 866.27960
813.0 0.001230 836.31702 866.08801
830.0 0.001205 836.23969 865.75665
844.0 0.001185 836.16107 864.60443
868.0 0.001152 836.08130 862.52557
881.0 0.001135 836.00018 860.10712
945.0 0.001058 835.91791 857.97668
930.0 0.001075 835.83411 856.52081
924.0 0.001082 835.74915 856.00641
974.0 0.001027 835.66272 856.76184
933.0 0.001072 835.57483 859.34735
864.0 0.001157 835.48566 864.62762
902.0 0.001109 835.39496 873.61768
857.0 0.001167 835.30273 887.01300
935.0 0.001070 835.20898 904.44196
864.0 0.001157 835.11377 923.46399
894.0 0.001119 835.01691 938.44733
928.0 0.001078 834.91840 941.85223
847.0 0.001181 834.81836 931.25055
846.0 0.001182 834.71655 912.48932
776.0 0.001289 834.61322 892.74335
774.0 0.001292 834.50800 876.03333
759.0 0.001318 834.40118 863.66125
762.0 0.001312 834.29254 855.35168
706.0 0.001416 834.18219 850.11835
773.0 0.001294 834.06989 846.88647
740.0 0.001351 833.95587 844.82373
762.0 0.001312 833.83997 843.40912
770.0 0.001299 833.72217 842.36084
760.0 0.001316 833.60254 841.54004
817.0 0.001224 833.48083 840.87970
776.0 0.001289 833.35724 840.34863
788.0 0.001269 833.23169 839.93658
810.0 0.001235 833.10419 839.65460
842.0 0.001188 832.97455 838.95215
781.0 0.001280 832.84290 839.13239
788.0 0.001269 832.70923 839.54370
837.0 0.001195 832.57343 840.80432
824.0 0.001214 832.43549 841.02527
872.0 0.001147 832.29547 844.14087
836.0 0.001196 832.15326 847.96136
850.0 0.001176 832.00897 888.90906
874.0 0.001144 831.86237 892.49731
895.0 0.001117 831.71356 893.27661
905.0 0.001105 831.56262 891.51227
898.0 0.001114 831.40936 888.75909
974.0 0.001027 831.25385 886.30505
920.0 0.001087 831.09595 884.74860
894.0 0.001119 830.93591 884.21820
897.0 0.001115 830.77344 884.58813
856.0 0.001168 830.60858 885.64117
900.0 0.001111 830.44147 887.17657
892.0 0.001121 830.27191 889.05536
908.0 0.001101 830.09998 891.20166
930.0 0.001075 829.92566 893.58331
881.0 0.001135 829.74884 896.19360
937.0 0.001067 829.56964 899.03882
900.0 0.001111 829.38800 902.13281
863.0 0.001159 829.20380 905.49426
829.0 0.001206 829.01709 909.13068
841.0 0.001189 828.82794 913.10168
847.0 0.001181 828.63629 917.42267
909.0 0.001100 828.44208 922.13074
953.0 0.001049 828.24530 927.26886
921.0 0.001086 828.04596 932.88678
858.0 0.001166 827.84406 939.04156
901.0 0.001110 827.63965 945.80029
941.0 0.001063 827.43250 953.24011
943.0 0.001060 827.22278 961.45197
951.0 0.001052 827.01050 970.54199
995.0 0.001005 826.79553 980.63556
943.0 0.001060 826.57800 991.88135
961.0 0.001041 826.35779 1004.45618
1009.0 0.000991 826.13483 1018.57239
1065.0 0.000939 825.90924 1034.31152
1081.0 0.000925 825.68091 1052.33936
1066.0 0.000938 825.45001 1072.85620
1035.0 0.000966 825.21637 1096.33203
1072.0 0.000933 824.97998 1185.48816
1115.0 0.000897 824.74084 1219.02710
1143.0 0.000875 824.49896 1257.90222
1190.0 0.000840 824.25439 1303.32190
1262.0 0.000792 824.00714 1356.85547
1257.0 0.000796 823.75702 1420.57483
1490.0 0.000671 823.50427 1497.28516
1522.0 0.000657 823.24866 1590.95911
1674.0 0.000597 822.99036 1707.70764
1907.0 0.000524 822.72925 1858.10071
2016.0 0.000496 822.46533 2062.47705
2390.0 0.000418 822.19867 2361.50220
2976.0 0.0003360 821.92914 2832.89307
3869.0 0.0002585 821.65686 3609.20850
5266.0 0.0001899 821.38177 4880.75879
7387.0 0.0001354 821.10394 6859.59912
10243.0 0.0000976 820.82330 9688.58496
13572.0 0.0000737 820.53986 13300.47656
17021.0 0.0000588 820.25354 17227.67383
19658.0 0.0000509 819.96442 20382.96875
20299.0 0.0000493 819.67255 21281.89453
18511.0 0.0000540 819.37781 19379.92969
15551.0 0.0000643 819.08020 15772.24707
11835.0 0.0000845 818.77991 11890.28125
8593.0 0.0001164 818.47675 8565.80566
6107.0 0.0001637 818.17072 6086.74609
4561.0 0.0002193 817.86194 4419.77588
3593.0 0.0002783 817.55029 3381.78418
3003.0 0.0003330 817.23584 2761.57373
2725.0 0.000367 816.91852 2389.58936
2294.0 0.000436 816.59851 2156.20801
2226.0 0.000449 816.27557 2000.50964
2129.0 0.000470 815.94983 1891.66772
2051.0 0.000488 815.62140 1814.45398
1954.0 0.000512 815.29010 1760.96667
1853.0 0.000540 814.95593 1726.74463
1873.0 0.000534 814.61908 1709.14026
1763.0 0.000567 814.27936 1706.66125
1872.0 0.000534 813.93683 1718.69604
1892.0 0.000529 813.59155 1745.48267
1912.0 0.000523 813.24341 1787.80151
1965.0 0.000509 812.89258 1851.28955
2040.0 0.000490 812.53900 1931.30103
2219.0 0.000451 812.18262 2035.67419
2255.0 0.000443 811.82343 2170.69775
2496.0 0.000401 811.46155 2346.46021
2708.0 0.000369 811.09686 2580.91064
3068.0 0.0003259 810.72943 2909.01636
3499.0 0.0002858 810.35938 3400.56689
4409.0 0.0002268 809.98651 4187.50635
5532.0 0.0001808 809.61090 5491.41406
7637.0 0.0001309 809.23260 7624.44775
10897.0 0.0000918 808.85156 10925.84668
15767.0 0.0000634 808.46790 15611.10254
21574.0 0.0000464 808.08160 21543.13281
27889.0 0.0000359 807.69250 27922.42188
31988.0 0.0000313 807.30078 32940.43750
32854.0 0.0000304 806.90643 34206.34766
30227.0 0.0000331 806.50940 30947.03711
24939.0 0.0000401 806.10974 24999.35547
18539.0 0.0000539 805.70746 18658.59180
12872.0 0.0000777 805.30249 13239.74805
9127.0 0.0001096 804.89496 9191.88184
6391.0 0.0001565 804.48486 6456.78271
4814.0 0.0002077 804.07214 4737.65967
3752.0 0.0002665 803.65686 3694.24438
3024.0 0.0003307 803.23920 3052.80054
2716.0 0.000368 802.81879 2635.42627
2414.0 0.000414 802.39587 2342.45410
2232.0 0.000448 801.97046 2122.83496
2043.0 0.000489 801.54248 1950.86121
1842.0 0.000543 801.11212 1812.75684
1780.0 0.000562 800.67914 1700.33459
1812.0 0.000552 800.24377 1608.36572
1724.0 0.000580 799.80603 1533.57910
1656.0 0.000604 799.36584 1474.26721
1657.0 0.000604 798.92310 1429.98230
1561.0 0.000641 798.47803 1364.27051
1575.0 0.000635 798.03052 1351.67615
1619.0 0.000618 797.58063 1352.36084
1567.0 0.000638 797.12842 1360.86792
1493.0 0.000670 796.67383 1366.03723
1524.0 0.000656 796.21698 1353.38794
1492.0 0.000670 795.75781 1317.91467
1371.0 0.000729 795.29633 1270.17261
1431.0 0.000699 794.83246 1223.86487
1309.0 0.000764 794.36646 1187.34229
1206.0 0.000829 793.89813 1164.49402
1195.0 0.000837 793.42761 1157.53442
1239.0 0.000807 792.95483 1169.79041
1234.0 0.000810 792.47998 1208.49255
1374.0 0.000728 792.00299 1286.68542
1477.0 0.000677 791.52362 1422.49109
1669.0 0.000599 791.04230 1633.83508
2008.0 0.000498 790.55878 1928.00146
2187.0 0.000457 790.07318 2287.01831
2571.0 0.000389 789.58545 2649.32251
2797.0 0.000358 789.09570 2895.59741
2824.0 0.000354 788.60388 2896.08105
2609.0 0.000383 788.11017 2644.12598
2279.0 0.000439 787.61432 2266.83789
1969.0 0.000508 787.11652 1889.40137
1590.0 0.000629 786.61676 1576.34900
1379.0 0.000725 786.11505 1346.15723
1267.0 0.000789 785.61139 1191.32983
1074.0 0.000931 785.10583 1093.10376
1025.0 0.000976 784.59845 1031.83630
952.0 0.001050 784.08911 992.39612
913.0 0.001095 783.57819 965.19757
973.0 0.001028 783.06512 944.93719
908.0 0.001101 782.55042 928.89545
851.0 0.001175 782.03387 915.67834
855.0 0.001170 781.51575 904.51373
869.0 0.001151 780.99567 894.92029
892.0 0.001121 780.47400 825.42322
819.0 0.001221 779.95062 820.14307
861.0 0.001161 779.42566 815.57422
830.0 0.001205 778.89899 811.58167
809.0 0.001236 778.37067 808.06122
813.0 0.001230 777.84076 804.93079
847.0 0.001181 777.30927 802.12518
903.0 0.001107 776.77625 799.59222
852.0 0.001174 776.24176 797.28986
875.0 0.001143 775.70569 795.18347
895.0 0.001117 775.16821 793.24493
994.0 0.001006 774.62915 791.45068
958.0 0.001044 774.08881 789.78137
914.0 0.001094 773.54688 805.82483
906.0 0.001104 773.00366 804.87366
926.0 0.001080 772.45905 804.02850
883.0 0.001133 771.91315 803.28070
890.0 0.001124 771.36591 802.62329
889.0 0.001125 770.81732 802.05035
897.0 0.001115 770.26764 801.55762
879.0 0.001138 769.71655 801.14111
860.0 0.001163 769.16437 800.79816
833.0 0.001200 768.61084 800.52673
876.0 0.001142 768.05621 800.32556
837.0 0.001195 767.50049 800.19403
797.0 0.001255 766.94354 799.76465
769.0 0.001300 766.38550 799.78516
765.0 0.001307 765.82660 799.87628
788.0 0.001269 765.26642 800.03943
741.0 0.001350 764.70532 800.55084
728.0 0.001374 764.14319 800.87347
697.0 0.001435 763.58008 801.27704
749.0 0.001335 763.01599 801.76538
740.0 0.001351 762.45105 802.34320
772.0 0.001295 761.88513 803.01575
807.0 0.001239 761.31848 803.78925
734.0 0.001362 760.75092 804.67047
768.0 0.001302 760.18250 805.66730
777.0 0.001287 759.61328 806.71283
746.0 0.001340 759.04327 807.97131
719.0 0.001391 758.47253 805.57074
732.0 0.001366 757.90106 807.26434
721.0 0.001387 757.32892 809.12439
744.0 0.001344 756.75610 811.16766
758.0 0.001319 756.18274 813.41327
755.0 0.001325 755.60864 815.88251
759.0 0.001318 755.03394 818.59985
800.0 0.001250 754.45868 821.59332
829.0 0.001206 753.88287 824.89453
848.0 0.001179 753.30652 828.54004
848.0 0.001179 752.72968 832.57184
843.0 0.001186 752.15240 837.03851
846.0 0.001182 751.57483 841.99670
900.0 0.001111 750.99664 847.51172
924.0 0.001082 750.41815 853.66113
944.0 0.001059 749.83923 860.53546
864.0 0.001157 749.25989 868.24255
881.0 0.001135 748.68036 876.91064
884.0 0.001131 748.10052 886.69336
886.0 0.001129 747.52032 897.77594
908.0 0.001101 746.94006 910.38403
931.0 0.001074 746.35944 924.79303
972.0 0.001029 745.77863 941.34369
957.0 0.001045 745.19769 960.45959
1012.0 0.000988 744.61658 982.67352
1017.0 0.000983 744.03546 1008.67413
1109.0 0.000902 743.45404 1039.30664
1118.0 0.000894 742.87268 1075.71484
1210.0 0.000826 742.29120 1119.39990
1229.0 0.000814 741.70978 1172.41846
1397.0 0.000716 741.12823 1237.75574
1333.0 0.000750 740.54694 1320.17639
1453.0 0.000688 739.96545 1428.18481
1662.0 0.000602 739.38428 1578.17468
1838.0 0.000544 738.80316 1801.86902
2203.0 0.000454 738.22192 2156.60278
2642.0 0.000379 737.64111 2733.73511
3642.0 0.0002746 737.06030 3654.67114
5013.0 0.0001995 736.47986 5041.93799
7181.0 0.0001393 735.89941 6959.97461
9817.0 0.0001019 735.31940 9329.48633
12266.0 0.0000815 734.73975 11809.73438
14012.0 0.0000714 734.16003 13677.67090
14336.0 0.0000698 733.58099 14043.06836
13141.0 0.0000761 733.00195 12689.21875
10496.0 0.0000953 732.42358 10346.75391
7905.0 0.0001265 731.84528 7872.24219
5534.0 0.0001807 731.26770 5751.86621
3998.0 0.0002501 730.69031 4153.84082
2892.0 0.0003458 730.11359 3061.02759
2300.0 0.000435 729.53735 2364.62866
1825.0 0.000548 728.96143 1939.52283
1598.0 0.000626 728.38617 1682.28052
1513.0 0.000661 727.81128 1524.39905
1347.0 0.000742 727.23718 1426.64307
1311.0 0.000763 726.66345 1367.49939
1223.0 0.000818 726.09052 1332.83789
1244.0 0.000804 725.51801 1308.50818
1232.0 0.000812 724.94647 1277.54883
1190.0 0.000840 724.37549 1228.02771
1142.0 0.000876 723.80499 1163.70728
1077.0 0.000929 723.23547 1097.03918
980.0 0.001020 722.66650 1037.16089
931.0 0.001074 722.09851 987.80353
926.0 0.001080 721.53101 949.19885
831.0 0.001203 720.96460 919.73236
824.0 0.001214 720.39899 899.53668
830.0 0.001205 719.83411 881.81561
837.0 0.001195 719.27014 867.33624
833.0 0.001200 718.70697 855.08905
799.0 0.001252 718.14484 844.46582
745.0 0.001342 717.58356 835.10016
817.0 0.001224 717.02325 826.75854
783.0 0.001277 716.46387 819.27643
771.0 0.001297 715.90558 812.52991
783.0 0.001277 715.34827 806.42004
759.0 0.001318 714.79187 800.86615
763.0 0.001311 714.23669 795.80212
754.0 0.001326 713.68243 791.17230
718.0 0.001393 713.12939 786.93042
757.0 0.001321 712.57727 783.03784
772.0 0.001295 712.02649 779.46252
749.0 0.001335 711.47662 776.17822
740.0 0.001351 710.92816 773.16565
701.0 0.001427 710.38086 770.41315
759.0 0.001318 709.83447 767.92157
695.0 0.001439 709.28961 765.70996
717.0 0.001395 708.74573 763.81982
742.0 0.001348 708.20331 762.31512
711.0 0.001406 707.66193 761.26544
659.0 0.001517 707.12207 760.71320
709.0 0.001410 706.58350 760.62213
753.0 0.001328 706.04608 760.80908
763.0 0.001311 705.51007 760.86285
785.0 0.001274 704.97534 760.21588
763.0 0.001311 704.44214 758.62445
829.0 0.001206 703.91016 756.47308
857.0 0.001167 703.37970 754.33429
801.0 0.001248 702.85052 752.57654
823.0 0.001215 702.32300 751.35980
805.0 0.001242 701.79681 750.71948
890.0 0.001124 701.27197 750.66571
835.0 0.001198 700.74878 751.10229
789.0 0.001267 700.22687 752.05408
740.0 0.001351 699.70673 753.55865
752.0 0.001330 699.18793 755.70831
764.0 0.001309 698.67072 758.67566
734.0 0.001362 698.15503 762.77448
766.0 0.001305 697.64099 768.60303
775.0 0.001290 697.12860 777.31140
728.0 0.001374 696.61749 791.00525
768.0 0.001302 696.10834 813.14630
781.0 0.001280 695.60046 830.77643
879.0 0.001138 695.09454 885.41730
937.0 0.001067 694.59003 962.63251
1043.0 0.000959 694.08740 1061.62817
1137.0 0.000880 693.58643 1172.55225
1214.0 0.000824 693.08691 1270.81848
1280.0 0.000781 692.58936 1318.15723
1295.0 0.000772 692.09314 1290.06812
1136.0 0.000880 691.59900 1204.80029
1008.0 0.000992 691.10645 1101.35828
939.0 0.001065 690.61572 1007.64923
897.0 0.001115 690.12665 936.18719
889.0 0.001125 689.63940 889.55737
873.0 0.001145 689.15411 865.63477
874.0 0.001144 688.67029 861.26324
894.0 0.001119 688.18842 875.22375
908.0 0.001101 687.70831 911.62756
940.0 0.001064 687.23016 979.29694
1097.0 0.000912 686.75366 1092.00732
1312.0 0.000762 686.27911 1264.31567
1546.0 0.000647 685.80634 1504.22791
1783.0 0.000561 685.33557 1802.84631
2033.0 0.000492 684.86670 2120.20190
2266.0 0.000441 684.39948 2369.59131
2387.0 0.000419 683.93433 2437.78516
2192.0 0.000456 683.47095 2284.45728
1965.0 0.000509 683.00964 1992.14063
1615.0 0.000619 682.55005 1670.70190
1383.0 0.000723 682.09259 1387.95081
1189.0 0.000841 681.63702 1169.65747
978.0 0.001022 681.18323 1016.48645
913.0 0.001095 680.73163 916.37225
861.0 0.001161 680.28168 853.50714
734.0 0.001362 679.83398 814.01825
751.0 0.001332 679.38806 788.15131
735.0 0.001361 678.94434 770.03021
711.0 0.001406 678.50232 756.46106
762.0 0.001312 678.06256 745.78345
693.0 0.001443 677.62476 737.10846
705.0 0.001418 677.18884 729.91638
693.0 0.001443 676.75507 723.86877
683.0 0.001464 676.32312 718.72668
657.0 0.001522 675.89343 714.31421
693.0 0.001443 675.46558 710.49762
694.0 0.001441 675.03986 707.17493
724.0 0.001381 674.61615 704.26776
721.0 0.001387 674.19458 701.71692
676.0 0.001479 673.77502 699.47986
681.0 0.001468 673.35748 697.73798
673.0 0.001486 672.94208 696.08496
652.0 0.001534 672.52863 694.75604
657.0 0.001522 672.11737 693.82520
688.0 0.001453 671.70801 693.46228
687.0 0.001456 671.30096 693.84668
710.0 0.001408 670.89600 695.15808
729.0 0.001372 670.49286 697.46216
746.0 0.001340 670.09216 700.56787
715.0 0.001399 669.69324 703.82587
727.0 0.001376 669.29663 705.95135
739.0 0.001353 668.90198 705.48138
709.0 0.001410 668.50958 702.18549
712.0 0.001404 668.11920 697.34509
674.0 0.001484 667.73096 692.37469
669.0 0.001495 667.34497 688.07446
667.0 0.001499 666.96082 684.71075
671.0 0.001490 666.57904 682.26520
661.0 0.001513 666.19922 680.56628
603.0 0.001658 665.82166 679.41022
697.0 0.001435 665.44611 678.62842
652.0 0.001534 665.07275 678.11523
738.0 0.001355 664.70154 677.82910
684.0 0.001462 664.33246 677.79022
673.0 0.001486 663.96558 678.08807
687.0 0.001456 663.60065 678.89917
736.0 0.001359 663.23804 680.49707
701.0 0.001427 662.87744 682.40216
712.0 0.001404 662.51910 686.59589
727.0 0.001376 662.16278 692.35162
717.0 0.001395 661.80872 699.35913
704.0 0.001420 661.45673 706.54852
669.0 0.001495 661.10687 711.81708
709.0 0.001410 660.75928 712.84601
662.0 0.001511 660.41357 709.40637
686.0 0.001458 660.07025 703.71167
705.0 0.001418 659.72888 698.16821
682.0 0.001466 659.38989 694.25830
697.0 0.001435 659.05286 692.81647
692.0 0.001445 658.71802 694.53387
680.0 0.001471 658.38544 700.39868
727.0 0.001376 658.05481 711.99756
756.0 0.001323 657.72644 731.46985
747.0 0.001339 657.40009 760.91431
797.0 0.001255 657.07599 801.21454
799.0 0.001252 656.75397 847.94073
902.0 0.001109 656.43414 898.81958
921.0 0.001086 656.11633 936.69421
956.0 0.001046 655.80084 944.08026
907.0 0.001103 655.48749 916.81842
919.0 0.001088 655.17609 874.84119
847.0 0.001181 654.86694 823.52429
823.0 0.001215 654.55975 778.56891
736.0 0.001359 654.25488 743.86816
699.0 0.001431 653.95203 719.53302
739.0 0.001353 653.65137 703.71454
727.0 0.001376 653.35284 693.98480
681.0 0.001468 653.05634 688.21124
676.0 0.001479 652.76202 684.91022
674.0 0.001484 652.46973 683.24890
672.0 0.001488 652.17969 682.92285
699.0 0.001431 651.89160 684.06189
730.0 0.001370 651.60565 687.20563
679.0 0.001473 651.32184 693.27844
670.0 0.001493 651.04016 703.44397
704.0 0.001420 650.76056 718.73230
746.0 0.001340 650.48303 739.41827
751.0 0.001332 650.20758 764.16699
778.0 0.001285 649.93414 788.83813
769.0 0.001300 649.66296 805.59583
806.0 0.001241 649.39374 806.19214
805.0 0.001242 649.12665 790.17609
759.0 0.001318 648.86157 765.44220
777.0 0.001287 648.59863 740.07800
724.0 0.001381 648.33777 718.51038
740.0 0.001351 648.07886 702.24530
687.0 0.001456 647.82214 691.09192
697.0 0.001435 647.56738 684.03857
742.0 0.001348 647.31470 679.88959
704.0 0.001420 647.06403 677.64392
690.0 0.001449 646.81549 676.58423
678.0 0.001475 646.56897 676.36115
667.0 0.001499 646.32434 676.67773
660.0 0.001515 646.08191 677.30914
686.0 0.001458 645.84143 677.98993
686.0 0.001458 645.60297 678.46899
730.0 0.001370 645.36652 678.71429
738.0 0.001355 645.13214 678.92902
688.0 0.001453 644.89966 679.35010
660.0 0.001515 644.66937 680.07172
725.0 0.001379 644.44098 681.16644
730.0 0.001370 644.21454 682.65009
696.0 0.001437 643.99017 684.52161
764.0 0.001309 643.76764 686.78107
756.0 0.001323 643.54724 689.44208
718.0 0.001393 643.32880 692.53546
701.0 0.001427 643.11230 696.11206
727.0 0.001376 642.89771 700.24207
724.0 0.001381 642.68518 705.01746
722.0 0.001385 642.47467 710.55481
709.0 0.001410 642.26593 717.00098
776.0 0.001289 642.05920 724.54321
754.0 0.001326 641.85443 733.36444
781.0 0.001280 641.65161 743.88660
794.0 0.001259 641.45068 756.45880
817.0 0.001224 641.25183 771.63153
855.0 0.001170 641.05481 790.19006
913.0 0.001095 640.85962 813.35364
919.0 0.001088 640.66644 843.21649
988.0 0.001012 640.47516 883.65973
1002.0 0.000998 640.28577 942.03613
1102.0 0.000907 640.09821 1031.30957
1198.0 0.000835 639.91260 1172.60986
1473.0 0.000679 639.72894 1395.19019
1629.0 0.000614 639.54712 1731.77026
2156.0 0.000464 639.36725 2207.12354
2832.0 0.000353 639.18903 2820.27905
3423.0 0.0002921 639.01288 3519.64600
4214.0 0.0002373 638.83844 4171.04736
4490.0 0.0002227 638.66608 4545.82031
4292.0 0.0002330 638.49530 4452.84424
3844.0 0.0002601 638.32660 3944.00317
3155.0 0.0003170 638.15961 3251.46484
2439.0 0.000410 637.99457 2573.65503
1927.0 0.000519 637.83130 2009.31384
1450.0 0.000690 637.66980 1587.53833
1218.0 0.000821 637.51025 1297.15247
1045.0 0.000957 637.35236 1108.61987
977.0 0.001024 637.19641 989.55988
897.0 0.001115 637.04218 913.56360
832.0 0.001202 636.88989 862.75598
822.0 0.001217 636.73926 826.54071
759.0 0.001318 636.59045 799.14685
739.0 0.001353 636.44348 777.51428
778.0 0.001285 636.29822 759.95361
756.0 0.001323 636.15472 745.44336
762.0 0.001312 636.01306 733.30151
754.0 0.001326 635.87317 723.03900
747.0 0.001339 635.73499 714.28943
719.0 0.001391 635.59857 706.56598
753.0 0.001328 635.46399 700.06891
715.0 0.001399 635.33099 694.41418
727.0 0.001376 635.19989 689.46545
727.0 0.001376 635.07043 685.11395
756.0 0.001323 634.94281 681.27234
748.0 0.001337 634.81677 677.87054
722.0 0.001385 634.69257 674.85406
752.0 0.001330 634.57001 672.18146
715.0 0.001399 634.44922 669.82916
670.0 0.001493 634.33014 667.79370
672.0 0.001488 634.21271 666.09857
696.0 0.001437 634.09705 664.79694
679.0 0.001473 633.98297 663.96289
661.0 0.001513 633.87067 663.66644
656.0 0.001524 633.76001 663.92194
685.0 0.001460 633.65112 664.64874
649.0 0.001541 633.54382 665.54767
700.0 0.001429 633.43817 666.03815
644.0 0.001553 633.33423 665.41687
693.0 0.001443 633.23193 664.13513
706.0 0.001416 633.13135 661.42279
687.0 0.001456 633.03235 658.60327
681.0 0.001468 632.93500 656.09619
640.0 0.001563 632.83923 654.06818
666.0 0.001502 632.74524 652.53265
634.0 0.001577 632.65277 651.42413
699.0 0.001431 632.56201 650.65222
616.0 0.001623 632.47290 650.13910
675.0 0.001481 632.38525 649.83807
630.0 0.001587 632.29938 649.74451
669.0 0.001495 632.21509 649.90277
667.0 0.001499 632.13239 650.41864
657.0 0.001522 632.05121 651.47186
646.0 0.001548 631.97180 653.31152
660.0 0.001515 631.89386 656.21069
713.0 0.001403 631.81757 660.36969
694.0 0.001441 631.74280 665.76904
697.0 0.001435 631.66962 671.96777
653.0 0.001531 631.59808 677.82904
691.0 0.001447 631.52808 681.48029
705.0 0.001418 631.45966 681.45605
664.0 0.001506 631.39282 678.36804
694.0 0.001441 631.32751 674.35852
664.0 0.001506 631.26385 671.44397
666.0 0.001502 631.20166 671.11401
676.0 0.001479 631.14105 674.65167
712.0 0.001404 631.08203 683.34552
729.0 0.001372 631.02448 698.39423
749.0 0.001335 630.96844 720.47046
819.0 0.001221 630.91406 743.19366
781.0 0.001280 630.86115 775.24408
815.0 0.001227 630.80975 803.72888
870.0 0.001149 630.75995 817.95166
775.0 0.001290 630.71161 810.45581
837.0 0.001195 630.66486 785.23761
733.0 0.001364 630.61951 753.02313
718.0 0.001393 630.57581 722.21198
675.0 0.001481 630.53351 696.84723
655.0 0.001527 630.49280 678.00238
686.0 0.001458 630.45355 671.48511
637.0 0.001570 630.41583 663.32562
632.0 0.001582 630.37958 658.30988
629.0 0.001590 630.34473 655.27216
629.0 0.001590 630.31152 653.42554
641.0 0.001560 630.27979 652.30322
619.0 0.001616 630.24951 651.65283
602.0 0.001661 630.22070 651.34424
612.0 0.001634 630.19342 651.31177
638.0 0.001567 630.16754 651.52271
629.0 0.001590 630.14313 651.96375
653.0 0.001531 630.12024 652.63550
622.0 0.001608 630.09882 653.54913
620.0 0.001613 630.07886 654.72711
631.0 0.001585 630.06036 656.20422
652.0 0.001534 630.04327 658.03094
663.0 0.001508 630.02771 660.28326
638.0 0.001567 630.01361 663.08954
683.0 0.001464 630.00085 666.68854
630.0 0.001587 629.98962 671.53174
661.0 0.001513 629.97980 678.44641
707.0 0.001414 629.97156 688.86676
696.0 0.001437 629.96460 705.03534
734.0 0.001362 629.95911 729.97345
776.0 0.001289 629.95508 766.96088
838.0 0.001193 629.95251 818.37756
832.0 0.001202 629.95135 883.94580
966.0 0.001035 629.95160 958.30670
966.0 0.001035 629.95325 1027.65503
970.0 0.001031 629.95642 1068.86047
1026.0 0.000975 629.96088 1062.05762
1009.0 0.000991 629.96686 1011.43774
870.0 0.001149 629.97418 940.27032
880.0 0.001136 629.98297 869.38434
861.0 0.001161 629.99310 809.67316
801.0 0.001248 630.00470 764.66492
710.0 0.001408 630.01770 733.63165
709.0 0.001410 630.03204 713.77863
739.0 0.001353 630.04785 701.82965
741.0 0.001350 630.06500 694.99200
725.0 0.001379 630.08362 691.30566
691.0 0.001447 630.10358 689.57788
727.0 0.001376 630.12494 689.15686
704.0 0.001420 630.14771 689.71222
717.0 0.001395 630.17188 691.08759
657.0 0.001522 630.19739 693.21735
718.0 0.001393 630.22430 696.08990
710.0 0.001408 630.25262 699.73071
756.0 0.001323 630.28223 704.19739
715.0 0.001399 630.31323 709.58136
710.0 0.001408 630.34570 715.96021
659.0 0.001517 630.37946 723.60858
685.0 0.001460 630.41467 732.70270
757.0 0.001321 630.45111 743.54303
840.0 0.001190 630.48895 756.52887
811.0 0.001233 630.52814 772.20435
804.0 0.001244 630.56879 791.34644
784.0 0.001276 630.61078 815.15710
848.0 0.001179 630.65405 845.67590
872.0 0.001147 630.69873 886.61200
960.0 0.001042 630.74469 944.80511
1024.0 0.000977 630.79199 1032.30322
1179.0 0.000848 630.84070 1168.12183
1292.0 0.000774 630.89069 1379.77026
1621.0 0.000617 630.94208 1697.90039
2082.0 0.000480 630.99481 2148.15552
2730.0 0.000366 631.04889 2735.90820
3289.0 0.0003040 631.10425 3425.64673
4051.0 0.0002469 631.16095 4111.63428
4243.0 0.0002357 631.21893 4595.15039
4353.0 0.0002297 631.27826 4659.14990
4199.0 0.0002382 631.33893 4268.84326
3494.0 0.0002862 631.40094 3613.39746
2886.0 0.0003465 631.46423 2910.61938
2233.0 0.000448 631.52887 2290.18481
1777.0 0.000563 631.59479 1802.86560
1468.0 0.000681 631.66205 1451.78015
1208.0 0.000828 631.73053 1214.96265
1033.0 0.000968 631.80048 1061.71143
913.0 0.001095 631.87158 963.46948
891.0 0.001122 631.94403 898.83704
849.0 0.001178 632.01776 854.01837
805.0 0.001242 632.09283 821.01697
753.0 0.001328 632.16913 795.46478
758.0 0.001319 632.24677 774.98065
771.0 0.001297 632.32562 758.18976
708.0 0.001412 632.40576 744.22070
709.0 0.001410 632.48724 732.47229
732.0 0.001366 632.56995 722.50262
731.0 0.001368 632.65393 713.97607
690.0 0.001449 632.73920 706.63275
687.0 0.001456 632.82568 700.34521
710.0 0.001408 632.91357 694.79987
706.0 0.001416 633.00256 689.94092
642.0 0.001558 633.09290 685.66327
677.0 0.001477 633.18439 681.88104
669.0 0.001495 633.27722 678.52380
677.0 0.001477 633.37128 675.53296
678.0 0.001475 633.46661 672.86023
687.0 0.001456 633.56299 669.81128
646.0 0.001548 633.66077 667.67694
629.0 0.001590 633.75977 665.75586
644.0 0.001553 633.85999 664.02350
608.0 0.001645 633.96143 662.45856
668.0 0.001497 634.06415 661.04333
644.0 0.001553 634.16797 666.39124
697.0 0.001435 634.27307 665.42572
641.0 0.001560 634.37927 664.57837
579.0 0.001727 634.48682 663.84015
674.0 0.001484 634.59552 663.20294
651.0 0.001536 634.70538 662.66040
646.0 0.001548 634.81641 662.20673
669.0 0.001495 634.92877 661.83795
671.0 0.001490 635.04218 661.55048
659.0 0.001517 635.15686 661.34180
650.0 0.001538 635.27258 661.21057
627.0 0.001595 635.38953 661.15625
617.0 0.001621 635.50769 661.17938
634.0 0.001577 635.62689 661.28156
643.0 0.001555 635.74744 661.46600
698.0 0.001433 635.86896 661.73712
657.0 0.001522 635.99176 662.10138
716.0 0.001397 636.11560 662.56763
655.0 0.001527 636.24060 663.14813
645.0 0.001550 636.36676 663.85925
677.0 0.001477 636.49396 664.72473
690.0 0.001449 636.62238 665.78052
679.0 0.001473 636.75189 667.08594
650.0 0.001538 636.88245 668.74756
708.0 0.001412 637.01422 670.95789
699.0 0.001431 637.14703 674.05487
655.0 0.001527 637.28088 678.58167
678.0 0.001475 637.41583 685.30811
697.0 0.001435 637.55194 695.14624
754.0 0.001326 637.68903 708.91077
740.0 0.001351 637.82727 726.91583
843.0 0.001186 637.96649 748.41687
855.0 0.001170 638.10687 770.81378
838.0 0.001193 638.24817 788.80994
848.0 0.001179 638.39056 789.38800
805.0 0.001242 638.53400 782.40411
841.0 0.001189 638.67847 765.78595
822.0 0.001217 638.82397 746.34338
775.0 0.001290 638.97052 728.72931
741.0 0.001350 639.11804 715.04376
758.0 0.001319 639.26660 705.75348
752.0 0.001330 639.41614 700.42346
749.0 0.001335 639.56659 703.22272
714.0 0.001401 639.71814 703.49957
664.0 0.001506 639.87061 705.47113
729.0 0.001372 640.02405 708.77747
673.0 0.001486 640.17847 713.31360
710.0 0.001408 640.33374 719.19208
731.0 0.001368 640.49005 726.70117
714.0 0.001401 640.64728 736.24780
718.0 0.001393 640.80554 748.26208
761.0 0.001314 640.96454 763.05707
804.0 0.001244 641.12451 780.64233
740.0 0.001351 641.28546 800.46191
785.0 0.001274 641.44733 821.10742
803.0 0.001245 641.60999 840.69867
776.0 0.001289 641.77356 858.86499
792.0 0.001263 641.93805 878.36481
877.0 0.001140 642.10333 904.06873
910.0 0.001099 642.26953 942.10443
975.0 0.001026 642.43652 1001.12183
1081.0 0.000925 642.60437 1094.54419
1178.0 0.000849 642.77307 1242.34119
1413.0 0.000708 642.94250 1470.64050
1695.0 0.000590 643.11285 1807.26355
2155.0 0.000464 643.28394 2272.14258
2772.0 0.000361 643.45593 2862.96484
3453.0 0.0002896 643.62854 3535.29614
4107.0 0.0002435 643.80206 4174.62549
4305.0 0.0002323 643.97626 4583.84473
4345.0 0.0002301 644.15125 4576.06592
3920.0 0.0002551 644.32697 4155.67041
3310.0 0.0003021 644.50342 3513.26172
2741.0 0.000365 644.68066 2843.57593
2162.0 0.000463 644.85852 2257.97290
1772.0 0.000564 645.03711 1798.77295
1428.0 0.000700 645.21637 1466.97876
1227.0 0.000815 645.39642 1241.87878
1106.0 0.000904 645.57709 1095.26025
962.0 0.001040 645.75836 1000.88593
923.0 0.001083 645.94037 938.92029
938.0 0.001066 646.12292 896.39789
909.0 0.001100 646.30621 865.68372
877.0 0.001140 646.49011 842.55139
846.0 0.001182 646.67462 824.68677
827.0 0.001209 646.85962 810.76770
785.0 0.001274 647.04523 799.98193
785.0 0.001274 647.23151 791.79535
844.0 0.001185 647.41827 785.84644
804.0 0.001244 647.60565 781.89697
801.0 0.001248 647.79352 779.81000
766.0 0.001305 647.98199 779.54565
786.0 0.001272 648.17090 781.17407
797.0 0.001255 648.36035 784.91235
792.0 0.001263 648.55023 791.18170
794.0 0.001259 648.74066 800.67889
840.0 0.001190 648.93158 814.42529
838.0 0.001193 649.12286 833.75696
875.0 0.001143 649.31470 860.23737
910.0 0.001099 649.50690 895.55231
987.0 0.001013 649.69952 941.51575
960.0 0.001042 649.89258 1000.23541
1111.0 0.000900 650.08594 1074.50342
1195.0 0.000837 650.27979 1169.42114
1267.0 0.000789 650.47394 1298.23364
1518.0 0.000659 650.66858 1483.62891
1791.0 0.000558 650.86340 1750.50940
2178.0 0.000459 651.05872 2111.40796
2463.0 0.000406 651.25421 2554.80664
2871.0 0.0003483 651.45007 3033.52295
3013.0 0.0003319 651.64618 3426.09619
3189.0 0.0003136 651.84253 3584.86157
2998.0 0.0003336 652.03925 3427.65820
2765.0 0.000362 652.23615 3028.56592
2381.0 0.000420 652.43329 2539.83960
2035.0 0.000491 652.63068 2074.66187
1719.0 0.000582 652.82837 1687.76355
1401.0 0.000714 653.02606 1394.40247
1188.0 0.000842 653.22406 1187.30920
1100.0 0.000909 653.42218 1048.53113
1015.0 0.000985 653.62042 958.00647
949.0 0.001054 653.81885 898.71460
890.0 0.001124 654.01733 858.52155
819.0 0.001221 654.21600 829.80023
794.0 0.001259 654.41479 808.07452
726.0 0.001377 654.61359 791.06299
759.0 0.001318 654.81256 777.31689
772.0 0.001295 655.01141 766.01440
755.0 0.001325 655.21045 756.61749
768.0 0.001302 655.40948 748.74493
768.0 0.001302 655.60846 742.11353
768.0 0.001302 655.80750 736.50623
758.0 0.001319 656.00647 731.75415
705.0 0.001418 656.20544 727.72375
709.0 0.001410 656.40442 724.30969
713.0 0.001403 656.60327 721.42755
721.0 0.001387 656.80194 719.00952
726.0 0.001377 657.00067 717.00177
715.0 0.001399 657.19922 715.36041
688.0 0.001453 657.39764 707.42957
742.0 0.001348 657.59589 706.85938
724.0 0.001381 657.79407 706.32471
738.0 0.001355 657.99200 706.05157
690.0 0.001449 658.18982 706.02979
739.0 0.001353 658.38739 706.25372
700.0 0.001429 658.58472 706.72174
659.0 0.001517 658.78186 707.43665
718.0 0.001393 658.97876 708.40503
701.0 0.001427 659.17535 709.63837
733.0 0.001364 659.37164 711.15234
742.0 0.001348 659.56781 712.96875
720.0 0.001389 659.76349 715.11438
687.0 0.001456 659.95880 717.62421
752.0 0.001330 660.15393 720.54156
764.0 0.001309 660.34863 723.91925
764.0 0.001309 660.54297 727.82385
754.0 0.001326 660.73688 732.33685
797.0 0.001255 660.93042 737.56024
724.0 0.001381 661.12354 743.62079
742.0 0.001348 661.31628 750.67822
771.0 0.001297 661.50842 758.93579
789.0 0.001267 661.70020 768.65497
765.0 0.001307 661.89148 786.87604
796.0 0.001256 662.08228 800.87573
818.0 0.001222 662.27258 817.84778
848.0 0.001179 662.46228 838.86798
854.0 0.001171 662.65149 865.74744
932.0 0.001073 662.84009 901.65692
949.0 0.001054 663.02820 952.10193
1014.0 0.000986 663.21564 1026.15161
1190.0 0.000840 663.40234 1137.45569
1346.0 0.000743 663.58875 1304.11804
1570.0 0.000637 663.77423 1546.03271
1986.0 0.000504 663.95923 1880.11426
2301.0 0.000435 664.14343 2310.01831
2795.0 0.000358 664.32703 2814.97803
3171.0 0.0003154 664.50983 3334.44458
3556.0 0.0002812 664.69196 3755.32446
3592.0 0.0002784 664.87341 3939.61084
3580.0 0.0002793 665.05402 3829.82178
3319.0 0.0003013 665.23395 3499.83472
2956.0 0.0003383 665.41309 3077.30078
2559.0 0.000391 665.59137 2630.13135
2159.0 0.000463 665.76886 2201.93408
1896.0 0.000527 665.94562 1829.13159
1576.0 0.000635 666.12140 1531.81152
1409.0 0.000710 666.29633 1309.83093
1211.0 0.000826 666.47046 1151.36743
1069.0 0.000935 666.64362 1041.37341
1073.0 0.000932 666.81598 965.97858
921.0 0.001086 666.98737 914.11145
883.0 0.001133 667.15784 877.73169
873.0 0.001145 667.32733 851.42407
919.0 0.001088 667.49585 831.75885
812.0 0.001232 667.66339 816.65509
808.0 0.001238 667.82990 804.87445
819.0 0.001221 667.99554 795.68005
798.0 0.001253 668.16003 788.63995
792.0 0.001263 668.32355 783.54010
782.0 0.001279 668.48596 780.36670
811.0 0.001233 668.64734 779.33240
800.0 0.001250 668.80762 780.90424
793.0 0.001261 668.96674 785.78650
840.0 0.001190 669.12488 794.79742
852.0 0.001174 669.28180 808.60443
855.0 0.001170 669.43762 827.32233
877.0 0.001140 669.59229 849.96423
908.0 0.001101 669.74573 873.65112
932.0 0.001073 669.89807 892.88123
912.0 0.001096 670.04919 901.01563
970.0 0.001031 670.19910 895.61420
958.0 0.001044 670.34766 881.64392
916.0 0.001092 670.49524 865.11194
888.0 0.001126 670.64130 851.36285
960.0 0.001042 670.78632 842.85046
949.0 0.001054 670.92993 840.46362
980.0 0.001020 671.07227 844.26978
1050.0 0.000952 671.21332 854.19678
1044.0 0.000958 671.35315 870.03638
1107.0 0.000903 671.49139 892.65906
1127.0 0.000887 671.62854 924.14667
1235.0 0.000810 671.76416 968.82751
1196.0 0.000836 671.89850 1034.58435
1218.0 0.000821 672.03149 1134.30212
1339.0 0.000747 672.16302 1286.62488
1530.0 0.000654 672.29315 1514.67212
1770.0 0.000565 672.42194 1841.37500
2246.0 0.000445 672.54926 2280.97949
2722.0 0.000367 672.67511 2827.00024
3364.0 0.0002973 672.79950 3435.37500
3795.0 0.0002635 672.92242 4001.21313
4097.0 0.0002441 673.04395 4352.72607
4008.0 0.0002495 673.16388 4335.14551
3758.0 0.0002661 673.28235 3956.98755
3200.0 0.0003125 673.39935 3380.67651
2646.0 0.000378 673.51483 2773.75122
2129.0 0.000470 673.62872 2234.97925
1736.0 0.000576 673.74115 1804.32910
1430.0 0.000699 673.85187 1485.91431
1240.0 0.000806 673.96124 1264.30200
1089.0 0.000918 674.06885 1116.24634
1037.0 0.000964 674.17499 1018.86316
978.0 0.001022 674.27948 953.96149
925.0 0.001081 674.38245 909.07990
860.0 0.001163 674.48370 876.70477
897.0 0.001115 674.58337 852.07721
864.0 0.001157 674.68140 833.34845
818.0 0.001222 674.77783 813.91852
740.0 0.001351 674.87262 803.51569
806.0 0.001241 674.96564 795.41547
859.0 0.001164 675.05707 789.04028
821.0 0.001218 675.14685 782.08942
786.0 0.001272 675.23486 775.43884
761.0 0.001314 675.32129 767.53656
745.0 0.001342 675.40601 759.00323
732.0 0.001366 675.48889 750.75848
748.0 0.001337 675.57019 743.39868
748.0 0.001337 675.64972 737.16071
709.0 0.001410 675.72754 732.05438
793.0 0.001261 675.80353 727.96478
710.0 0.001408 675.87787 724.72491
725.0 0.001379 675.95044 722.16730
745.0 0.001342 676.02124 720.15613
743.0 0.001346 676.09033 718.59668
726.0 0.001377 676.15759 717.43396
750.0 0.001333 676.22302 716.64557
749.0 0.001335 676.28680 716.23773
778.0 0.001285 676.34869 716.32825
715.0 0.001399 676.40887 716.83099
708.0 0.001412 676.46716 717.97595
739.0 0.001353 676.52374 720.04022
776.0 0.001289 676.57843 723.51117
737.0 0.001357 676.63141 729.18414
737.0 0.001357 676.68243 738.22388
729.0 0.001372 676.73169 752.11475
776.0 0.001289 676.77917 772.41058
781.0 0.001280 676.82483 800.25214
841.0 0.001189 676.86865 835.66821
888.0 0.001126 676.91052 876.35748
932.0 0.001073 676.95068 917.37238
964.0 0.001037 676.98901 948.25159
954.0 0.001048 677.02545 960.10095
900.0 0.001111 677.06000 947.33374
910.0 0.001099 677.09271 920.55896
823.0 0.001215 677.12360 890.69312
814.0 0.001229 677.15259 863.73700
801.0 0.001248 677.17969 840.32745
789.0 0.001267 677.20508 818.29352
741.0 0.001350 677.22845 796.35547
722.0 0.001385 677.25012 775.54730
729.0 0.001372 677.26984 757.42914
701.0 0.001427 677.28766 742.73297
743.0 0.001346 677.30365 731.45599
726.0 0.001377 677.31781 723.23724
692.0 0.001445 677.33014 717.57300
697.0 0.001435 677.34058 713.93854
704.0 0.001420 677.34906 711.86493
669.0 0.001495 677.35577 710.97406
730.0 0.001370 677.36060 710.96448
705.0 0.001418 677.36359 711.56000
726.0 0.001377 677.36469 712.43573
722.0 0.001385 677.36395 706.52155
704.0 0.001420 677.36133 707.09705
756.0 0.001323 677.35693 707.42969
664.0 0.001506 677.35065 708.02002
776.0 0.001289 677.34247 709.46375
690.0 0.001449 677.33252 712.36273
722.0 0.001385 677.32062 717.37756
772.0 0.001295 677.30695 725.26880
756.0 0.001323 677.29144 736.87476
779.0 0.001284 677.27405 753.00177
779.0 0.001284 677.25488 774.15253
771.0 0.001297 677.23395 799.98712
841.0 0.001189 677.21106 828.71729
883.0 0.001133 677.18646 857.50305
895.0 0.001117 677.15991 884.11542
889.0 0.001125 677.13171 906.59381
883.0 0.001133 677.10156 920.15497
853.0 0.001172 677.06976 917.70667
841.0 0.001189 677.03607 896.91956
827.0 0.001209 677.00061 864.07104
807.0 0.001239 676.96344 828.22504
810.0 0.001235 676.92444 795.72974
691.0 0.001447 676.88367 769.30017
724.0 0.001381 676.84106 749.56952
663.0 0.001508 676.79681 735.94446
665.0 0.001504 676.75079 727.30420
661.0 0.001513 676.70300 722.47870
662.0 0.001511 676.65350 720.54620
693.0 0.001443 676.60223 720.94464
771.0 0.001297 676.54926 723.43103
699.0 0.001431 676.49463 727.94733
757.0 0.001321 676.43829 734.44226
718.0 0.001393 676.38025 742.67493
777.0 0.001287 676.32043 751.97809
736.0 0.001359 676.25903 761.01141
786.0 0.001272 676.19592 767.95105
771.0 0.001297 676.13123 771.97443
731.0 0.001368 676.06482 774.00439
734.0 0.001362 675.99683 777.03784
784.0 0.001276 675.92712 784.26544
790.0 0.001266 675.85596 799.08740
817.0 0.001224 675.78296 825.57477
856.0 0.001168 675.70850 868.67847
913.0 0.001095 675.63251 933.77594
1061.0 0.000943 675.55487 1025.36169
1150.0 0.000870 675.47571 1144.84351
1278.0 0.000782 675.39502 1287.44763
1464.0 0.000683 675.31262 1438.12842
1638.0 0.000611 675.22888 1567.50842
1680.0 0.000595 675.14349 1634.27686
1664.0 0.000601 675.05670 1609.65002
1621.0 0.000617 674.96844 1503.10425
1412.0 0.000708 674.87854 1355.05347
1234.0 0.000810 674.78735 1203.45679
1080.0 0.000926 674.69464 1070.04053
923.0 0.001083 674.60046 963.23218
909.0 0.001100 674.50488 883.84338
832.0 0.001202 674.40784 827.96252
800.0 0.001250 674.30945 790.07104
709.0 0.001410 674.20966 764.72748
746.0 0.001340 674.10858 747.54767
737.0 0.001357 674.00598 735.46021
679.0 0.001473 673.90216 726.52588
700.0 0.001429 673.79700 719.60156
714.0 0.001401 673.69049 714.03290
655.0 0.001527 673.58276 709.43842
700.0 0.001429 673.47363 705.58185
673.0 0.001486 673.36328 702.30524
669.0 0.001495 673.25171 699.63757
662.0 0.001511 673.13898 697.21228
722.0 0.001385 673.02490 695.09918
681.0 0.001468 672.90967 693.25385
629.0 0.001590 672.79321 691.64844
645.0 0.001550 672.67560 690.21655
705.0 0.001418 672.55682 688.94879
719.0 0.001391 672.43695 687.82507
724.0 0.001381 672.31598 687.63770
667.0 0.001499 672.19385 686.78009
698.0 0.001433 672.07068 686.03656
633.0 0.001580 671.94635 685.41071
672.0 0.001488 671.82098 684.91815
697.0 0.001435 671.69458 684.59039
684.0 0.001462 671.56726 684.35565
662.0 0.001511 671.43884 684.52863
692.0 0.001445 671.30951 685.05560
680.0 0.001471 671.17914 685.99097
649.0 0.001541 671.04791 686.96045
622.0 0.001608 670.91565 688.63910
714.0 0.001401 670.78253 690.38464
723.0 0.001383 670.64856 691.72052
701.0 0.001427 670.51367 692.05286
674.0 0.001484 670.37793 691.09961
702.0 0.001425 670.24139 689.17798
693.0 0.001443 670.10400 686.88281
713.0 0.001403 669.96588 684.67529
687.0 0.001456 669.82690 682.79407
737.0 0.001357 669.68726 681.32233
716.0 0.001397 669.54669 680.25024
660.0 0.001515 669.40564 679.52136
686.0 0.001458 669.26373 679.06323
697.0 0.001435 669.12115 678.81024
711.0 0.001406 668.97803 678.71454
746.0 0.001340 668.83411 678.74835
726.0 0.001377 668.68970 678.90179
679.0 0.001473 668.54468 679.09686
713.0 0.001403 668.39899 679.52533
726.0 0.001377 668.25275 680.14514
708.0 0.001412 668.10608 681.03772
647.0 0.001546 667.95874 682.34631
710.0 0.001408 667.81104 684.31195
669.0 0.001495 667.66284 687.30792
682.0 0.001466 667.51410 691.85236
730.0 0.001370 667.36499 698.56879
695.0 0.001439 667.21539 708.06122
679.0 0.001473 667.06543 720.70209
690.0 0.001449 666.91522 736.33472
763.0 0.001311 666.76447 753.85822
786.0 0.001272 666.61346 770.53503
752.0 0.001330 666.46216 782.13135
717.0 0.001395 666.31055 782.24573
740.0 0.001351 666.15863 773.54401
730.0 0.001370 666.00659 757.99091
679.0 0.001473 665.85419 740.41479
729.0 0.001372 665.70166 724.07178
705.0 0.001418 665.54889 710.49994
694.0 0.001441 665.39594 703.42554
743.0 0.001346 665.24298 696.08276
677.0 0.001477 665.08972 691.15076
643.0 0.001555 664.93652 688.00092
685.0 0.001460 664.78302 686.07819
689.0 0.001451 664.62964 684.96899
671.0 0.001490 664.47620 684.40082
676.0 0.001479 664.32269 684.21246
711.0 0.001406 664.16919 684.31781
690.0 0.001449 664.01575 684.67645
708.0 0.001412 663.86230 685.27557
704.0 0.001420 663.70892 686.12122
622.0 0.001608 663.55573 687.23572
671.0 0.001490 663.40253 688.66077
669.0 0.001495 663.24945 690.46710
678.0 0.001475 663.09656 692.77252
736.0 0.001359 662.94391 696.52887
675.0 0.001481 662.79138 700.54456
707.0 0.001414 662.63898 706.01318
675.0 0.001481 662.48694 713.54871
730.0 0.001370 662.33514 723.88873
709.0 0.001410 662.18359 737.80182
678.0 0.001475 662.03229 755.93915
785.0 0.001274 661.88141 778.64856
765.0 0.001307 661.73071 805.70227
719.0 0.001391 661.58051 835.91119
865.0 0.001156 661.43073 867.23462
836.0 0.001196 661.28113 898.80896
887.0 0.001127 661.13208 933.70673
949.0 0.001054 660.98340 977.78125
1015.0 0.000985 660.83527 1035.26306
1165.0 0.000858 660.68750 1105.44385
1111.0 0.000900 660.54028 1180.45923
1209.0 0.000827 660.39362 1242.95935
1232.0 0.000812 660.24750 1268.73633
1249.0 0.000801 660.10187 1242.47668
1197.0 0.000835 659.95685 1172.60681
1076.0 0.000929 659.81238 1082.52869
998.0 0.001002 659.66852 992.58313
939.0 0.001065 659.52527 914.06122
875.0 0.001143 659.38275 851.29871
829.0 0.001206 659.24091 804.42621
783.0 0.001277 659.09967 771.26575
710.0 0.001408 658.95917 748.70117
715.0 0.001399 658.81946 733.64514
735.0 0.001361 658.68036 723.57880
723.0 0.001383 658.54211 716.70770
694.0 0.001441 658.40460 711.87756
719.0 0.001391 658.26794 723.31628
690.0 0.001449 658.13202 721.14941
683.0 0.001464 657.99701 719.71716
716.0 0.001397 657.86285 718.88245
689.0 0.001451 657.72943 718.56006
700.0 0.001429 657.59705 718.69556
715.0 0.001399 657.46545 719.26654
711.0 0.001406 657.33484 720.23047
726.0 0.001377 657.20508 721.59326
675.0 0.001481 657.07642 723.36029
704.0 0.001420 656.94855 725.54840
710.0 0.001408 656.82178 728.18555
712.0 0.001404 656.69598 731.31213
747.0 0.001339 656.57117 734.98267
728.0 0.001374 656.44739 739.26807
746.0 0.001340 656.32471 744.25989
732.0 0.001366 656.20306 750.07526
758.0 0.001319 656.08246 756.86383
750.0 0.001333 655.96295 764.82031
769.0 0.001300 655.84460 774.20435
808.0 0.001238 655.72729 785.37677
801.0 0.001248 655.61115 798.87408
787.0 0.001271 655.49615 815.55194
783.0 0.001277 655.38239 836.85150
844.0 0.001185 655.26965 865.23743
840.0 0.001190 655.15820 904.81952
944.0 0.001059 655.04791 962.02716
984.0 0.001016 654.93890 1046.01709
1129.0 0.000886 654.83112 1168.27368
1238.0 0.000808 654.72443 1340.70605
1506.0 0.000664 654.61914 1572.90063
1887.0 0.000530 654.51501 1866.28418
2268.0 0.000441 654.41229 2208.07983
2627.0 0.000381 654.31073 2567.85229
2921.0 0.0003423 654.21051 2861.63403
3085.0 0.0003241 654.11151 3001.02661
3007.0 0.0003326 654.01398 2927.91602
2711.0 0.000369 653.91772 2676.71191
2373.0 0.000421 653.82275 2339.88843
2001.0 0.000500 653.72913 1998.78113
1761.0 0.000568 653.63696 1699.84509
1446.0 0.000692 653.54602 1462.44702
1264.0 0.000791 653.45667 1289.66296
1191.0 0.000840 653.36853 1175.79211
1138.0 0.000879 653.28180 1111.66882
1093.0 0.000915 653.19653 1088.18347
1150.0 0.000870 653.11267 1097.83618
1175.0 0.000851 653.03015 1134.46399
1245.0 0.000803 652.94922 1191.64355
1328.0 0.000753 652.86957 1260.08667
1382.0 0.000724 652.79144 1324.46155
1393.0 0.000718 652.71472 1363.06335
1361.0 0.000735 652.63947 1357.71643
1381.0 0.000724 652.56573 1309.16333
1310.0 0.000763 652.49341 1235.88123
1212.0 0.000825 652.42255 1158.09106
1087.0 0.000920 652.35309 1088.63977
1081.0 0.000925 652.28528 1033.44128
991.0 0.001009 652.21887 993.96796
1046.0 0.000956 652.15393 969.14520
949.0 0.001054 652.09058 956.67859
994.0 0.001006 652.02869 953.88806
928.0 0.001078 651.96826 958.91986
989.0 0.001011 651.90936 970.13654
999.0 0.001001 651.85199 986.78125
1039.0 0.000962 651.79620 1008.66302
1047.0 0.000955 651.74182 1036.07739
1114.0 0.000898 651.68896 1069.81067
1135.0 0.000881 651.63770 1111.07959
1149.0 0.000870 651.58789 1161.00220
1259.0 0.000794 651.53967 1224.32593
1275.0 0.000784 651.49298 1305.41809
1451.0 0.000689 651.44775 1413.18066
1569.0 0.000637 651.40411 1562.59680
1789.0 0.000559 651.36194 1777.60083
2026.0 0.000494 651.32129 2093.37598
2483.0 0.000403 651.28223 2556.13892
3043.0 0.0003286 651.24463 3218.04175
4109.0 0.0002434 651.20862 4125.55762
5253.0 0.0001904 651.17407 5301.29736
6811.0 0.0001468 651.14111 6719.30322
8348.0 0.0001198 651.10968 8269.88379
9866.0 0.0001014 651.07971 9712.09375
10943.0 0.0000914 651.05121 10662.86719
11003.0 0.0000909 651.02429 10758.84375
10266.0 0.0000974 650.99890 9958.70215
8976.0 0.0001114 650.97498 8584.86230
7352.0 0.0001360 650.95258 7036.87842
5842.0 0.0001712 650.93164 5585.89795
4398.0 0.0002274 650.91223 4363.30713
3344.0 0.0002990 650.89429 3408.10986
2742.0 0.000365 650.87781 2705.14819
2302.0 0.000434 650.86285 2211.37671
1987.0 0.000503 650.84930 1875.03455
1808.0 0.000553 650.83734 1648.45752
1582.0 0.000632 650.82666 1494.38232
1482.0 0.000675 650.81763 1386.98425
1434.0 0.000697 650.80988 1309.93274
1289.0 0.000776 650.80371 1253.55664
1249.0 0.000801 650.79883 1212.35925
1263.0 0.000792 650.79541 1183.31140
1224.0 0.000817 650.79346 1164.87671
1239.0 0.000807 650.79291 1157.26978
1281.0 0.000781 650.79376 1159.76343
1190.0 0.000840 650.79596 1175.06897
1264.0 0.000791 650.79956 1207.41675
1301.0 0.000769 650.80450 1264.26660
1345.0 0.000743 650.81085 1357.38794
1562.0 0.000640 650.81848 1503.34021
1707.0 0.000586 650.82751 1731.28174
2021.0 0.000495 650.83789 2044.50232
2466.0 0.000406 650.84955 2466.67017
3025.0 0.0003306 650.86249 2998.56104
3750.0 0.0002667 650.87677 3614.94385
4358.0 0.0002295 650.89227 4247.46924
4831.0 0.0002070 650.90906 4767.40381
5097.0 0.0001962 650.92712 5006.91260
5043.0 0.0001983 650.94641 4863.82422
4522.0 0.0002211 650.96698 4394.07031
4117.0 0.0002429 650.98871 3766.83203
3272.0 0.0003056 651.01166 3124.27588
2571.0 0.000389 651.03589 2551.03931
2124.0 0.000471 651.06116 2082.77222
1769.0 0.000565 651.08765 1724.73621
1474.0 0.000678 651.11530 1464.85803
1320.0 0.000758 651.14398 1283.09497
1204.0 0.000831 651.17389 1158.25415
1142.0 0.000876 651.20490 1072.14392
1029.0 0.000972 651.23682 1011.19690
959.0 0.001043 651.27002 966.30511
941.0 0.001063 651.30414 931.80646
956.0 0.001046 651.33936 904.33966
943.0 0.001060 651.37555 881.92438
945.0 0.001058 651.41278 863.35052
879.0 0.001138 651.45099 847.81940
909.0 0.001100 651.49011 833.98663
858.0 0.001166 651.53021 822.89056
855.0 0.001170 651.57129 813.28912
793.0 0.001261 651.61316 804.72589
793.0 0.001261 651.65607 796.85571
806.0 0.001241 651.69977 789.56274
771.0 0.001297 651.74426 782.90820
755.0 0.001325 651.78967 776.97467
785.0 0.001274 651.83588 771.79248
763.0 0.001311 651.88287 767.35236
730.0 0.001370 651.93060 763.59314
708.0 0.001412 651.97906 760.46277
702.0 0.001425 652.02832 757.89551
745.0 0.001342 652.07831 755.82373
747.0 0.001339 652.12891 754.17908
693.0 0.001443 652.18024 752.89508
742.0 0.001348 652.23218 751.92084
705.0 0.001418 652.28479 751.23975
709.0 0.001410 652.33789 750.86792
767.0 0.001304 652.39166 750.83075
759.0 0.001318 652.44592 751.14886
725.0 0.001379 652.50079 751.83862
719.0 0.001391 652.55615 752.91431
751.0 0.001332 652.61200 762.88098
762.0 0.001312 652.66827 764.98816
773.0 0.001294 652.72510 767.55054
755.0 0.001325 652.78223 770.60132
810.0 0.001235 652.83984 774.18317
682.0 0.001466 652.89777 778.34943
766.0 0.001305 652.95605 783.16620
740.0 0.001351 653.01465 788.71448
778.0 0.001285 653.07361 795.09320
833.0 0.001200 653.13275 787.43451
847.0 0.001181 653.19220 796.22021
780.0 0.001282 653.25189 806.28632
784.0 0.001276 653.31171 817.87927
885.0 0.001130 653.37177 831.33057
904.0 0.001106 653.43195 847.21234
936.0 0.001068 653.49231 865.98016
973.0 0.001028 653.55273 894.13318
909.0 0.001100 653.61322 922.51666
970.0 0.001031 653.67377 958.43170
962.0 0.001040 653.73431 1004.60895
1051.0 0.000951 653.79486 1066.01160
1145.0 0.000873 653.85547 1143.48608
1221.0 0.000819 653.91589 1243.03894
1365.0 0.000733 653.97626 1369.71057
1570.0 0.000637 654.03656 1529.13098
1769.0 0.000565 654.09674 1727.09167
2000.0 0.000500 654.15668 1969.51404
2272.0 0.000440 654.21655 2266.66016
2659.0 0.000376 654.27606 2641.01807
3187.0 0.0003138 654.33545 3124.52637
3732.0 0.0002680 654.39453 3738.92407
4484.0 0.0002230 654.45331 4473.09326
5147.0 0.0001943 654.51184 5262.11719
5610.0 0.0001783 654.56995 5965.51514
6055.0 0.0001652 654.62775 6375.81689
5966.0 0.0001676 654.68506 6322.35986
5641.0 0.0001773 654.74200 5816.51611
5120.0 0.0001953 654.79846 5039.19287
4201.0 0.0002380 654.85443 4191.30273
3345.0 0.0002990 654.90991 3404.63647
2762.0 0.000362 654.96484 2742.33740
2167.0 0.000461 655.01923 2216.09473
1771.0 0.000565 655.07306 1830.52380
1528.0 0.000654 655.12616 1556.56360
1400.0 0.000714 655.17871 1367.30627
1326.0 0.000754 655.23047 1237.74329
1176.0 0.000850 655.28168 1148.02075
1139.0 0.000878 655.33209 1084.08765
1101.0 0.000908 655.38171 1036.82788
1077.0 0.000929 655.43060 1000.66681
1002.0 0.000998 655.47870 972.28809
954.0 0.001048 655.52588 949.70093
988.0 0.001012 655.57233 931.66034
903.0 0.001107 655.61774 917.34058
883.0 0.001133 655.66223 906.16602
915.0 0.001093 655.70593 897.72241
916.0 0.001092 655.74854 891.71191
900.0 0.001111 655.79016 887.92688
946.0 0.001057 655.83081 886.23676
978.0 0.001022 655.87036 886.57855
932.0 0.001073 655.90887 888.95300
911.0 0.001098 655.94623 893.42371
942.0 0.001062 655.98248 900.11621
992.0 0.001008 656.01758 909.21014
979.0 0.001021 656.05151 920.97589
980.0 0.001020 656.08417 935.73315
959.0 0.001043 656.11560 953.90125
1071.0 0.000934 656.14581 976.03308
1046.0 0.000956 656.17474 1002.92841
1024.0 0.000977 656.20233 1035.93079
1162.0 0.000861 656.22852 1077.48120
1118.0 0.000894 656.25342 1131.84753
1224.0 0.000817 656.27692 1206.02332
1248.0 0.000801 656.29895 1310.85193
1493.0 0.000670 656.31964 1462.04712
1619.0 0.000618 656.33881 1680.31543
1925.0 0.000519 656.35645 1989.59583
2386.0 0.000419 656.37262 2412.69458
2732.0 0.000366 656.38721 2964.15576
3401.0 0.0002940 656.40027 3640.53076
4373.0 0.0002287 656.41168 4406.92969
5005.0 0.0001998 656.42157 5177.54736
5695.0 0.0001756 656.42981 5798.86865
5816.0 0.0001719 656.43634 6081.15820
5952.0 0.0001680 656.44116 5918.44482
5402.0 0.0001851 656.44434 5385.96729
4774.0 0.0002095 656.44568 4670.43750
4040.0 0.0002475 656.44543 3940.88623
3372.0 0.0002966 656.44330 3300.38062
2814.0 0.000355 656.43939 2799.04028
2434.0 0.000411 656.43365 2455.45361
2303.0 0.000434 656.42615 2271.33691
2223.0 0.000450 656.41663 2241.14233
2377.0 0.000421 656.40533 2357.39966
2631.0 0.000380 656.39209 2611.54346
3074.0 0.0003253 656.37689 2990.16333
3580.0 0.0002793 656.35980 3466.83398
4133.0 0.0002420 656.34064 3989.38745
4452.0 0.0002246 656.31958 4466.71387
4722.0 0.0002118 656.29651 4777.12988
4743.0 0.0002108 656.27142 4828.80811
4628.0 0.0002161 656.24420 4627.49512
4166.0 0.0002400 656.21497 4252.05322
3779.0 0.0002646 656.18359 3779.81836
3259.0 0.0003068 656.15015 3267.25879
2733.0 0.000366 656.11456 2766.00757
2386.0 0.000419 656.07690 2319.15845
1951.0 0.000513 656.03699 1949.35522
1680.0 0.000595 655.99493 1659.57764
1428.0 0.000700 655.95062 1441.14856
1299.0 0.000770 655.90417 1280.05579
1175.0 0.000851 655.85541 1163.84851
1132.0 0.000883 655.80444 1079.70203
1060.0 0.000943 655.75128 1017.97473
984.0 0.001016 655.69574 971.56921
985.0 0.001015 655.63794 935.55542
884.0 0.001131 655.57782 906.63245
877.0 0.001140 655.51538 882.62671
868.0 0.001152 655.45056 853.34186
834.0 0.001199 655.38342 835.73792
828.0 0.001208 655.31384 820.31311
812.0 0.001232 655.24200 806.74628
814.0 0.001229 655.16766 794.78412
798.0 0.001253 655.09100 784.20868
722.0 0.001385 655.01184 774.82910
743.0 0.001346 654.93024 766.47839
758.0 0.001319 654.84625 759.01147
764.0 0.001309 654.75977 752.30371
759.0 0.001318 654.67084 746.24939
758.0 0.001319 654.57941 740.76013
772.0 0.001295 654.48547 735.76282
761.0 0.001314 654.38910 731.19641
766.0 0.001305 654.29016 727.00995
775.0 0.001290 654.18878 723.16058
760.0 0.001316 654.08472 719.61182
766.0 0.001305 653.97821 716.33246
733.0 0.001364 653.86920 713.29541
751.0 0.001332 653.75763 710.86218
719.0 0.001391 653.64343 708.25208
723.0 0.001383 653.52667 705.82318
683.0 0.001464 653.40741 703.56000
717.0 0.001395 653.28546 701.44910
683.0 0.001464 653.16107 699.47906
691.0 0.001447 653.03394 697.63953
667.0 0.001499 652.90430 695.92236
669.0 0.001495 652.77203 694.32007
681.0 0.001468 652.63715 692.82709
664.0 0.001506 652.49969 691.43903
641.0 0.001560 652.35962 690.15283
642.0 0.001558 652.21692 689.72260
624.0 0.001603 652.07159 688.65631
603.0 0.001658 651.92365 687.69427
659.0 0.001517 651.77307 686.83490
610.0 0.001639 651.61981 686.10632
665.0 0.001504 651.46405 685.52118
653.0 0.001531 651.30560 685.11578
592.0 0.001689 651.14459 684.95184
686.0 0.001458 650.98083 685.12909
653.0 0.001531 650.81458 685.79950
669.0 0.001495 650.64557 687.17468
670.0 0.001493 650.47406 689.52209
664.0 0.001506 650.29980 693.13562
654.0 0.001529 650.12311 698.27936
690.0 0.001449 649.94373 705.10065
592.0 0.001689 649.76166 713.50873
676.0 0.001479 649.57709 722.99237
693.0 0.001443 649.38983 723.84680
661.0 0.001513 649.20007 731.41473
660.0 0.001515 649.00757 734.96405
700.0 0.001429 648.81262 733.76233
721.0 0.001387 648.61505 728.68848
684.0 0.001462 648.41492 721.09729
676.0 0.001479 648.21222 712.04852
711.0 0.001406 648.00690 702.50812
661.0 0.001513 647.79907 693.44189
670.0 0.001493 647.58868 685.53534
633.0 0.001580 647.37573 679.06494
614.0 0.001629 647.16034 674.00153
595.0 0.001681 646.94238 670.15771
621.0 0.001610 646.72192 667.29120
649.0 0.001541 646.49896 665.05707
656.0 0.001524 646.27350 663.46735
649.0 0.001541 646.04559 656.80505
649.0 0.001541 645.81519 655.98175
668.0 0.001497 645.58228 655.33698
707.0 0.001414 645.34705 656.77039
619.0 0.001616 645.10931 654.82935
650.0 0.001538 644.86920 654.57361
662.0 0.001511 644.62671 654.38385
643.0 0.001555 644.38177 654.25323
669.0 0.001495 644.13452 654.17755
658.0 0.001520 643.88483 654.15460
644.0 0.001553 643.63293 654.18439
659.0 0.001517 643.37854 654.26740
655.0 0.001527 643.12195 654.40625
621.0 0.001610 642.86310 654.60455
598.0 0.001672 642.60187 654.86719
601.0 0.001664 642.33844 655.20117
629.0 0.001590 642.07275 655.61475
675.0 0.001481 641.80481 656.11884
627.0 0.001595 641.53467 656.72162
639.0 0.001565 641.26245 657.45050
604.0 0.001656 640.98792 658.32184
596.0 0.001678 640.71136 659.36420
629.0 0.001590 640.43268 660.61646
606.0 0.001650 640.15186 662.13556
661.0 0.001513 639.86896 664.00867
678.0 0.001475 639.58386 666.37482
655.0 0.001527 639.29694 669.45746
621.0 0.001610 639.00781 673.60553
639.0 0.001565 638.71686 679.33771
654.0 0.001529 638.42377 687.36310
631.0 0.001585 638.12891 698.55786
759.0 0.001318 637.83203 713.85956
749.0 0.001335 637.53326 734.07062
755.0 0.001325 637.23260 759.57245
801.0 0.001248 636.93005 789.94507
855.0 0.001170 636.62585 827.53979
885.0 0.001130 636.31958 860.41248
934.0 0.001071 636.01178 886.35632
936.0 0.001068 635.70215 898.73083
882.0 0.001134 635.39069 895.30499
822.0 0.001217 635.07770 880.89673
840.0 0.001190 634.76294 864.03094
872.0 0.001147 634.44659 852.42682
843.0 0.001186 634.12854 851.42462
844.0 0.001185 633.80902 864.15228
912.0 0.001096 633.48785 891.71832
893.0 0.001120 633.16522 933.00958
976.0 0.001025 632.84113 984.05060
1018.0 0.000982 632.51538 1036.85718
1034.0 0.000967 632.18848 1078.65149
1180.0 0.000847 631.85992 1094.80005
1101.0 0.000908 631.53015 1077.58081
1042.0 0.000960 631.19885 1032.49072
994.0 0.001006 630.86639 973.04517
861.0 0.001161 630.53259 911.60547
875.0 0.001143 630.19763 855.75720
816.0 0.001225 629.86139 809.02496
754.0 0.001326 629.52386 772.31458
702.0 0.001425 629.18536 744.96387
785.0 0.001274 628.84552 725.48309
685.0 0.001460 628.50482 712.11304
690.0 0.001449 628.16290 703.20819
696.0 0.001437 627.82007 697.44177
729.0 0.001372 627.47626 693.85779
718.0 0.001393 627.13135 691.82996
640.0 0.001563 626.78564 690.98291
663.0 0.001508 626.43890 691.11395
717.0 0.001395 626.09149 692.13397
692.0 0.001445 625.74310 694.03186
677.0 0.001477 625.39404 696.75958
698.0 0.001433 625.04407 700.64136
726.0 0.001377 624.69366 705.87219
687.0 0.001456 624.34247 712.61707
722.0 0.001385 623.99054 721.64246
697.0 0.001435 623.63806 733.92535
734.0 0.001362 623.28497 751.07001
727.0 0.001376 622.93146 775.46661
840.0 0.001190 622.57739 810.39636
868.0 0.001152 622.22284 859.91016
870.0 0.001149 621.86786 928.35181
1011.0 0.000989 621.51263 1019.44781
1120.0 0.000893 621.15698 1134.97839
1357.0 0.000737 620.80084 1273.01306
1538.0 0.000650 620.44470 1425.42285
1664.0 0.000601 620.08813 1574.39661
1730.0 0.000578 619.73151 1690.21155
1818.0 0.000550 619.37451 1738.48352
1851.0 0.000540 619.01764 1701.57373
1666.0 0.000600 618.66064 1593.83301
1502.0 0.000666 618.30347 1449.02539
1278.0 0.000782 617.94641 1298.08679
1113.0 0.000898 617.58917 1160.18750
985.0 0.001015 617.23224 1045.01392
973.0 0.001028 616.87531 953.90265
806.0 0.001241 616.51855 886.04071
850.0 0.001176 616.16187 837.90759
774.0 0.001292 615.80560 805.24701
763.0 0.001311 615.44952 784.02661
756.0 0.001323 615.09369 770.96912
775.0 0.001290 614.73822 763.71301
761.0 0.001314 614.38306 760.73553
804.0 0.001244 614.02844 761.18011
758.0 0.001319 613.67419 764.69006
804.0 0.001244 613.32043 771.31085
794.0 0.001259 612.96722 781.48834
857.0 0.001167 612.61462 796.18274
847.0 0.001181 612.26270 817.16229
886.0 0.001129 611.91119 847.13605
936.0 0.001068 611.56055 890.47223
1024.0 0.000977 611.21051 953.26538
1042.0 0.000960 610.86139 1043.31299
1192.0 0.000839 610.51288 1169.47388
1304.0 0.000767 610.16541 1339.83911
1543.0 0.000648 609.81873 1559.75867
1875.0 0.000533 609.47290 1828.34497
2132.0 0.000469 609.12811 2134.15601
2424.0 0.000413 608.78418 2448.81982
2735.0 0.000366 608.44141 2720.38599
2799.0 0.000357 608.09961 2878.38086
2822.0 0.000354 607.75909 2867.76831
2788.0 0.000359 607.41943 2692.16528
2429.0 0.000412 607.08118 2410.23169
2141.0 0.000467 606.74414 2092.27417
1890.0 0.000529 606.40826 1787.18018
1558.0 0.000642 606.07367 1521.13049
1325.0 0.000755 605.74042 1304.15442
1198.0 0.000835 605.40863 1136.27368
1099.0 0.000910 605.07806 1011.72449
1047.0 0.000955 604.74902 922.08270
944.0 0.001059 604.42139 858.56824
901.0 0.001110 604.09540 813.49634
879.0 0.001138 603.77100 780.90863
824.0 0.001214 603.44794 756.59302
790.0 0.001266 603.12671 737.01672
763.0 0.001311 602.80701 721.96729
778.0 0.001285 602.48907 709.59167
721.0 0.001387 602.17267 699.21771
780.0 0.001282 601.85828 690.41052
729.0 0.001372 601.54559 682.91553
692.0 0.001445 601.23468 676.43671
708.0 0.001412 600.92572 670.86157
716.0 0.001397 600.61847 666.08087
778.0 0.001285 600.31329 662.02698
733.0 0.001364 600.01001 658.67358
693.0 0.001443 599.70880 656.03912
695.0 0.001439 599.40942 654.18945
674.0 0.001484 599.11230 653.23297
682.0 0.001466 598.81726 653.30328
689.0 0.001451 598.52423 654.52838
680.0 0.001471 598.23340 656.98297
668.0 0.001497 597.94470 660.62592
704.0 0.001420 597.65826 665.21484
679.0 0.001473 597.37408 670.18292
730.0 0.001370 597.09210 674.51349
683.0 0.001464 596.81238 676.84033
699.0 0.001431 596.53516 676.10004
649.0 0.001541 596.26025 672.36029
686.0 0.001458 595.98761 666.77441
685.0 0.001460 595.71747 660.73053
649.0 0.001541 595.44977 655.25439
663.0 0.001508 595.18457 652.77979
685.0 0.001460 594.92169 650.05695
624.0 0.001603 594.66156 649.11230
663.0 0.001508 594.40399 650.21722
665.0 0.001504 594.14886 653.77960
664.0 0.001506 593.89642 660.43048
669.0 0.001495 593.64648 671.04761
716.0 0.001397 593.39929 686.69147
703.0 0.001422 593.15479 708.41809
703.0 0.001422 592.91296 735.02448
776.0 0.001289 592.67377 770.50452
829.0 0.001206 592.43750 811.63501
936.0 0.001068 592.20392 855.14941
903.0 0.001107 591.97308 894.79236
938.0 0.001066 591.74506 921.39618
956.0 0.001046 591.51990 926.37909
934.0 0.001071 591.29767 908.14282
929.0 0.001076 591.07819 872.51611
848.0 0.001179 590.86169 829.45959
819.0 0.001221 590.64801 786.71149
779.0 0.001284 590.43738 748.81311
766.0 0.001305 590.22974 717.85626
712.0 0.001404 590.02484 694.36639
675.0 0.001481 589.82312 677.91162
651.0 0.001536 589.62427 667.52356
697.0 0.001435 589.42859 661.99585
664.0 0.001506 589.23578 660.04474
654.0 0.001529 589.04614 660.34155
627.0 0.001595 588.85956 661.53333
630.0 0.001587 588.67603 662.50220
642.0 0.001558 588.49567 662.79730
690.0 0.001449 588.31824 662.63837
631.0 0.001585 588.14404 662.31696
631.0 0.001585 587.97302 661.62158
662.0 0.001511 587.80511 659.78076
636.0 0.001572 587.64026 656.01208
626.0 0.001597 587.47870 650.28137
613.0 0.001631 587.32031 643.38959
649.0 0.001541 587.16504 636.34863
640.0 0.001563 587.01294 629.90253
630.0 0.001587 586.86414 624.36658
600.0 0.001667 586.71857 619.87482
610.0 0.001639 586.57611 612.29272
593.0 0.001686 586.43689 609.79559
592.0 0.001689 586.30096 608.03320
586.0 0.001706 586.16821 606.85168
611.0 0.001637 586.03882 606.11774
574.0 0.001742 585.91254 605.73145
617.0 0.001621 585.78961 605.62750
623.0 0.001605 585.66986 605.77588
630.0 0.001587 585.55347 606.17896
579.0 0.001727 585.44019 606.86865
616.0 0.001623 585.33026 607.90332
633.0 0.001580 585.22363 609.35858
618.0 0.001618 585.12024 611.31580
600.0 0.001667 585.02014 613.84460
585.0 0.001709 584.92316 616.97839
634.0 0.001577 584.82959 620.68268
632.0 0.001582 584.73926 624.81177
647.0 0.001546 584.65216 629.04645
660.0 0.001515 584.56830 632.86084
677.0 0.001477 584.48773 635.65338
664.0 0.001506 584.41046 637.11963
707.0 0.001414 584.33636 637.53528
683.0 0.001464 584.26544 637.56934
688.0 0.001453 584.19788 637.89514
666.0 0.001502 584.13354 639.01062
643.0 0.001555 584.07239 641.27179
656.0 0.001524 584.01440 644.98615
692.0 0.001445 583.95972 650.51758
652.0 0.001534 583.90820 658.40729
695.0 0.001439 583.85986 669.51843
682.0 0.001466 583.81458 685.19763
728.0 0.001374 583.77264 707.40918
758.0 0.001319 583.73383 738.77631
773.0 0.001294 583.69812 782.43823
840.0 0.001190 583.66553 841.64624
903.0 0.001107 583.63611 919.06860
987.0 0.001013 583.60980 1015.73328
1151.0 0.000869 583.58661 1130.08582
1287.0 0.000777 583.56641 1255.67981
1395.0 0.000717 583.54932 1379.01868
1557.0 0.000642 583.53528 1477.78345
1515.0 0.000660 583.52429 1525.43005
1483.0 0.000674 583.51636 1505.93945
1463.0 0.000684 583.51135 1426.60730
1262.0 0.000792 583.50934 1311.97473
1212.0 0.000825 583.51031 1187.39709
1087.0 0.000920 583.51428 1070.17944
952.0 0.001050 583.52106 969.58752
832.0 0.001202 583.53088 889.40320
777.0 0.001287 583.54352 830.00903
704.0 0.001420 583.55908 789.78247
731.0 0.001368 583.57733 766.07190
758.0 0.001319 583.59857 755.85443
747.0 0.001339 583.62256 756.05408
726.0 0.001377 583.64935 763.50635
726.0 0.001377 583.67883 774.58746
752.0 0.001330 583.71106 784.15527
736.0 0.001359 583.74603 788.24792
752.0 0.001330 583.78375 782.44940
752.0 0.001330 583.82404 766.72601
732.0 0.001366 583.86694 744.57648
658.0 0.001520 583.91248 720.23999
651.0 0.001536 583.96063 696.87592
679.0 0.001473 584.01129 676.21387
598.0 0.001672 584.06445 658.95892
643.0 0.001555 584.12012 645.16815
604.0 0.001656 584.17828 634.51117
624.0 0.001603 584.23889 626.46161
636.0 0.001572 584.30182 620.44220
629.0 0.001590 584.36725 615.92291
613.0 0.001631 584.43494 612.41852
586.0 0.001706 584.50494 609.71661
602.0 0.001661 584.57721 607.53906
669.0 0.001495 584.65186 605.73865
602.0 0.001661 584.72858 604.21973
616.0 0.001623 584.80762 602.92059
621.0 0.001610 584.88861 601.72827
596.0 0.001678 584.97192 600.75995
607.0 0.001647 585.05719 599.92151
616.0 0.001623 585.14453 599.19849
601.0 0.001664 585.23395 598.58124
615.0 0.001626 585.32532 598.06433
617.0 0.001621 585.41864 597.64893
585.0 0.001709 585.51385 597.34283
627.0 0.001595 585.61090 597.16272
592.0 0.001689 585.70978 597.13721
594.0 0.001684 585.81055 597.30554
598.0 0.001672 585.91302 597.71606
603.0 0.001658 586.01727 598.41949
571.0 0.001751 586.12311 599.45825
622.0 0.001608 586.23065 600.84979
593.0 0.001686 586.33984 602.56775
596.0 0.001678 586.45056 604.51239
540.0 0.001852 586.56274 607.92999
622.0 0.001608 586.67651 609.57513
626.0 0.001597 586.79169 610.43134
598.0 0.001672 586.90833 610.18555
618.0 0.001618 587.02618 608.89337
592.0 0.001689 587.14557 606.93262
627.0 0.001595 587.26611 604.73743
584.0 0.001712 587.38800 606.97766
573.0 0.001745 587.51099 605.20404
554.0 0.001805 587.63525 603.71582
590.0 0.001695 587.76056 602.60828
606.0 0.001650 587.88696 601.80768
598.0 0.001672 588.01440 601.26440
610.0 0.001639 588.14282 600.92303
582.0 0.001718 588.27228 600.73260
622.0 0.001608 588.40253 600.65125
569.0 0.001757 588.53369 600.64789
570.0 0.001754 588.66571 600.70087
560.0 0.001786 588.79846 600.79602
573.0 0.001745 588.93207 600.92468
541.0 0.001848 589.06622 601.08063
553.0 0.001808 589.20111 601.26056
577.0 0.001733 589.33655 601.46222
599.0 0.001669 589.47260 601.68396
630.0 0.001587 589.60919 601.92432
614.0 0.001629 589.74622 602.18274
636.0 0.001572 589.88361 602.45862
618.0 0.001618 590.02142 602.75159
579.0 0.001727 590.15967 603.06158
595.0 0.001681 590.29810 603.38837
575.0 0.001739 590.43689 603.73224
614.0 0.001629 590.57581 602.25342
631.0 0.001585 590.71497 602.67554
568.0 0.001761 590.85413 603.11407
575.0 0.001739 590.99347 603.56982
635.0 0.001575 591.13281 604.04327
616.0 0.001623 591.27209 604.53558
593.0 0.001686 591.41138 605.04749
537.0 0.001862 591.55054 605.58014
610.0 0.001639 591.68958 606.13489
597.0 0.001675 591.82837 606.71301
579.0 0.001727 591.96692 607.31616
572.0 0.001748 592.10522 607.94623
619.0 0.001616 592.24323 608.60516
593.0 0.001686 592.38092 609.29559
569.0 0.001757 592.51807 610.01984
577.0 0.001733 592.65485 610.78125
617.0 0.001621 592.79108 611.58386
619.0 0.001616 592.92682 612.12329
606.0 0.001650 593.06195 613.03180
617.0 0.001621 593.19641 614.00122
643.0 0.001555 593.33020 615.04456
596.0 0.001678 593.46332 616.17975
589.0 0.001698 593.59570 617.43225
607.0 0.001647 593.72717 618.83649
563.0 0.001776 593.85791 620.43683
591.0 0.001692 593.98773 630.26282
621.0 0.001610 594.11670 632.57782
630.0 0.001587 594.24457 635.24902
608.0 0.001645 594.37152 638.30609
644.0 0.001553 594.49738 641.74030
655.0 0.001527 594.62213 645.48132
610.0 0.001639 594.74573 649.36780
624.0 0.001603 594.86816 653.13141
670.0 0.001493 594.98944 656.43268
605.0 0.001653 595.10944 658.97498
639.0 0.001565 595.22815 660.67218
642.0 0.001558 595.34546 661.73309
632.0 0.001582 595.46149 662.54797
639.0 0.001565 595.57611 663.49298
623.0 0.001605 595.68921 664.83020
626.0 0.001597 595.80084 666.74133
658.0 0.001520 595.91095 669.24921
677.0 0.001477 596.01959 672.41821
622.0 0.001608 596.12646 676.26367
634.0 0.001577 596.23181 680.79736
659.0 0.001517 596.33545 686.98431
689.0 0.001451 596.43738 692.99780
679.0 0.001473 596.53760 699.83154
710.0 0.001408 596.63599 707.58954
711.0 0.001406 596.73267 716.42096
706.0 0.001416 596.82745 726.53680
740.0 0.001351 596.92029 738.24030
760.0 0.001316 597.01123 751.97662
779.0 0.001284 597.10034 768.41034
785.0 0.001274 597.18738 788.53168
791.0 0.001264 597.27240 813.78528
825.0 0.001212 597.35541 846.19336
871.0 0.001148 597.43634 888.43176
895.0 0.001117 597.51520 943.79755
983.0 0.001017 597.59186 1016.02277
1118.0 0.000894 597.66638 1108.92236
1208.0 0.000828 597.73877 1225.89478
1386.0 0.000722 597.80890 1369.27454
1477.0 0.000677 597.87677 1539.36853
1829.0 0.000547 597.94232 1732.83557
1930.0 0.000518 598.00568 1940.62671
2110.0 0.000474 598.06665 2148.14868
2336.0 0.000428 598.12537 2342.51367
2590.0 0.000386 598.18152 2524.73804
2911.0 0.0003435 598.23547 2712.16968
2990.0 0.0003344 598.28687 2924.73779
3264.0 0.0003064 598.33588 3167.65625
3583.0 0.0002791 598.38239 3420.82568
3826.0 0.0002614 598.42639 3634.68311
3958.0 0.0002527 598.46796 3739.42554
3880.0 0.0002577 598.50696 3678.87207
3622.0 0.0002761 598.54333 3450.70654
3272.0 0.0003056 598.57721 3107.51758
2943.0 0.0003398 598.60846 2718.47046
2474.0 0.000404 598.63715 2337.30835
2076.0 0.000482 598.66321 1995.37146
1736.0 0.000576 598.68658 1706.82251
1489.0 0.000672 598.70728 1474.73315
1271.0 0.000787 598.72540 1295.34668
1183.0 0.000845 598.74078 1161.10999
1086.0 0.000921 598.75336 1062.99548
1052.0 0.000951 598.76331 992.19891
948.0 0.001055 598.77051 941.17047
964.0 0.001037 598.77502 904.03247
915.0 0.001093 598.77667 876.54535
919.0 0.001088 598.77563 855.83008
885.0 0.001130 598.77179 840.01288
854.0 0.001171 598.76520 827.90369
853.0 0.001172 598.75574 818.75031
817.0 0.001224 598.74353 812.07324
840.0 0.001190 598.72852 807.58069
866.0 0.001155 598.71069 805.03735
921.0 0.001086 598.69000 804.33990
891.0 0.001122 598.66650 805.42865
841.0 0.001189 598.64020 808.29724
899.0 0.001112 598.61108 812.98993
833.0 0.001200 598.57904 819.60321
859.0 0.001164 598.54419 828.29138
905.0 0.001105 598.50653 839.27734
874.0 0.001144 598.46606 852.87268
894.0 0.001119 598.42273 869.51367
907.0 0.001103 598.37640 889.82574
946.0 0.001057 598.32745 914.73792
910.0 0.001099 598.27557 945.67285
1008.0 0.000992 598.22089 984.85077
1058.0 0.000945 598.16327 1035.72278
1095.0 0.000913 598.10291 1104.59656
1206.0 0.000829 598.03973 1196.93164
1254.0 0.000797 597.97375 1324.13403
1407.0 0.000711 597.90491 1499.25757
1679.0 0.000596 597.83331 1737.20398
1891.0 0.000529 597.75891 2052.77808
2279.0 0.000439 597.68170 2457.67798
2908.0 0.0003439 597.60168 2956.36060
3556.0 0.0002812 597.51898 3540.69873
4372.0 0.0002287 597.43347 4182.49707
4917.0 0.0002034 597.34534 4823.08008
5527.0 0.0001809 597.25433 5364.88721
5877.0 0.0001702 597.16064 5684.44434
5935.0 0.0001685 597.06427 5687.20215
5651.0 0.0001770 596.96527 5372.75391
5188.0 0.0001928 596.86346 4835.21777
4498.0 0.0002223 596.75909 4198.29395
3609.0 0.0002771 596.65210 3560.12231
3063.0 0.0003265 596.54248 2980.02588
2410.0 0.000415 596.43030 2486.88770
2048.0 0.000488 596.31543 2089.65381
1706.0 0.000586 596.19806 1784.84204
1477.0 0.000677 596.07819 1562.02747
1379.0 0.000725 595.95575 1407.81042
1301.0 0.000769 595.83075 1308.80688
1221.0 0.000819 595.70343 1253.30884
1210.0 0.000826 595.57361 1231.83337
1191.0 0.000840 595.44135 1236.89343
1197.0 0.000835 595.30658 1262.20935
1268.0 0.000789 595.16956 1301.30432
1244.0 0.000804 595.03021 1345.55286
1405.0 0.000712 594.88843 1382.59363
1377.0 0.000726 594.74438 1397.77820
1372.0 0.000729 594.59808 1379.00513
1296.0 0.000772 594.44965 1325.95410
1227.0 0.000815 594.29895 1248.95056
1112.0 0.000899 594.14600 1162.49768
1095.0 0.000913 593.99097 1076.50085
996.0 0.001004 593.83380 998.22437
981.0 0.001019 593.67462 930.84021
931.0 0.001074 593.51324 875.21014
818.0 0.001222 593.35004 830.74945
813.0 0.001230 593.18475 796.03992
843.0 0.001186 593.01758 769.29895
785.0 0.001274 592.84845 748.73059
764.0 0.001309 592.67737 732.74969
728.0 0.001374 592.50458 720.08539
784.0 0.001276 592.32996 709.79248
722.0 0.001385 592.15363 701.20709
757.0 0.001321 591.97534 693.88037
730.0 0.001370 591.79565 687.51495
724.0 0.001381 591.61426 681.91266
720.0 0.001389 591.43115 676.93933
696.0 0.001437 591.24658 672.50049
696.0 0.001437 591.06042 667.08118
684.0 0.001462 590.87280 663.55231
672.0 0.001488 590.68378 660.39935
642.0 0.001558 590.49329 657.59259
676.0 0.001479 590.30145 655.10736
672.0 0.001488 590.10840 652.92133
611.0 0.001637 589.91412 651.01123
630.0 0.001587 589.71844 649.34760
673.0 0.001486 589.52173 643.53412
613.0 0.001631 589.32379 642.31494
677.0 0.001477 589.12488 641.17316
662.0 0.001511 588.92480 640.04468
629.0 0.001590 588.72382 638.90869
621.0 0.001610 588.52185 637.94537
637.0 0.001570 588.31909 636.94086
654.0 0.001529 588.11548 636.10547
622.0 0.001608 587.91089 635.68280
627.0 0.001595 587.70575 635.35162
662.0 0.001511 587.49982 635.33661
626.0 0.001597 587.29327 635.67957
655.0 0.001527 587.08600 636.42017
653.0 0.001531 586.87830 637.59418
590.0 0.001695 586.67017 639.22717
643.0 0.001555 586.46149 641.32861
643.0 0.001555 586.25238 643.87964
633.0 0.001580 586.04297 646.81665
644.0 0.001553 585.83331 650.02246
651.0 0.001536 585.62335 653.35242
631.0 0.001585 585.41321 656.75110
685.0 0.001460 585.20294 660.41754
686.0 0.001458 584.99261 664.88373
663.0 0.001508 584.78229 670.95789
664.0 0.001506 584.57178 679.66949
672.0 0.001488 584.36157 692.28094
656.0 0.001524 584.15137 710.36951
737.0 0.001357 583.94147 735.55127
719.0 0.001391 583.73163 769.67743
800.0 0.001250 583.52222 814.31818
847.0 0.001181 583.31305 870.41327
944.0 0.001059 583.10437 937.74292
974.0 0.001027 582.89618 1014.21423
1080.0 0.000926 582.68835 1094.83423
1122.0 0.000891 582.48114 1170.48035
1247.0 0.000802 582.27454 1227.69897
1238.0 0.000808 582.06866 1252.23145
1261.0 0.000793 581.86334 1236.71667
1207.0 0.000829 581.65894 1186.20471
1148.0 0.000871 581.45544 1113.61133
1015.0 0.000985 581.25262 1033.17542
935.0 0.001070 581.05084 954.98615
865.0 0.001156 580.85010 884.86969
825.0 0.001212 580.65033 825.52216
790.0 0.001266 580.45166 777.57745
760.0 0.001316 580.25415 740.31604
678.0 0.001475 580.05786 712.30457
671.0 0.001490 579.86292 691.79614
664.0 0.001506 579.66925 677.07190
671.0 0.001490 579.47681 658.66351
662.0 0.001511 579.28595 651.52087
663.0 0.001508 579.09650 646.65820
614.0 0.001629 578.90863 643.52014
618.0 0.001618 578.72223 641.78113
644.0 0.001553 578.53754 641.30255
647.0 0.001546 578.35449 642.10321
671.0 0.001490 578.17328 644.35388
664.0 0.001506 577.99384 648.38867
661.0 0.001513 577.81610 654.72302
671.0 0.001490 577.64038 664.06879
631.0 0.001585 577.46655 677.32678
700.0 0.001429 577.29474 695.54358
789.0 0.001267 577.12488 719.81329
741.0 0.001350 576.95728 751.08386
774.0 0.001292 576.79175 790.00220
854.0 0.001171 576.62836 836.34924
879.0 0.001138 576.46722 888.60431
934.0 0.001071 576.30835 943.39569
995.0 0.001005 576.15192 995.57709
1055.0 0.000948 575.99780 1038.49280
1073.0 0.000932 575.84613 1069.20300
1038.0 0.000963 575.69690 1082.70593
983.0 0.001017 575.55029 1075.40930
993.0 0.001007 575.40619 1046.36853
973.0 0.001028 575.26459 999.24438
1012.0 0.000988 575.12585 942.12573
859.0 0.001164 574.98969 883.08936
828.0 0.001208 574.85632 827.84222
754.0 0.001326 574.72571 779.46851
725.0 0.001379 574.59796 739.24652
681.0 0.001468 574.47302 706.90314
707.0 0.001414 574.35114 682.19843
655.0 0.001527 574.23212 663.22473
697.0 0.001435 574.11603 649.16272
648.0 0.001543 574.00311 638.87097
664.0 0.001506 573.89319 631.38220
661.0 0.001513 573.78638 625.94434
658.0 0.001520 573.68268 622.01782
656.0 0.001524 573.58228 619.24847
649.0 0.001541 573.48505 617.43402
693.0 0.001443 573.39105 616.49823
591.0 0.001692 573.30035 616.47314
645.0 0.001550 573.21301 617.49323
578.0 0.001730 573.12903 619.79102
606.0 0.001650 573.04846 623.69049
623.0 0.001605 572.97125 629.58722
664.0 0.001506 572.89752 637.90576
664.0 0.001506 572.82733 649.03027
643.0 0.001555 572.76062 663.20435
706.0 0.001416 572.69739 680.39508
730.0 0.001370 572.63782 700.10522
739.0 0.001353 572.58185 721.12830
741.0 0.001350 572.52954 741.36841
756.0 0.001323 572.48071 757.93622
757.0 0.001321 572.43573 767.86353
751.0 0.001332 572.39441 769.09680
792.0 0.001263 572.35681 761.23663
716.0 0.001397 572.32294 745.79047
701.0 0.001427 572.29279 725.67010
718.0 0.001393 572.26648 704.02301
655.0 0.001527 572.24402 683.38519
622.0 0.001608 572.22534 665.00635
643.0 0.001555 572.21051 649.68842
637.0 0.001570 572.19952 637.61615
596.0 0.001678 572.19244 628.66791
661.0 0.001513 572.18921 622.55609
622.0 0.001608 572.18988 618.92578
611.0 0.001637 572.19452 617.41541
619.0 0.001616 572.20306 617.66687
590.0 0.001695 572.21558 619.39545
647.0 0.001546 572.23193 622.24951
631.0 0.001585 572.25238 625.83026
647.0 0.001546 572.27673 629.61133
640.0 0.001563 572.30505 632.94891
647.0 0.001546 572.33734 635.28369
653.0 0.001531 572.37366 636.51050
647.0 0.001546 572.41394 637.17810
610.0 0.001639 572.45825 638.26703
666.0 0.001502 572.50647 640.78516
647.0 0.001546 572.55872 645.51685
624.0 0.001603 572.61505 652.93402
655.0 0.001527 572.67529 663.16010
651.0 0.001536 572.73956 675.89398
658.0 0.001520 572.80780 690.26971
676.0 0.001479 572.88000 703.57672
708.0 0.001412 572.95624 715.51617
702.0 0.001425 573.03644 722.11786
700.0 0.001429 573.12054 721.40808
710.0 0.001408 573.20868 713.54004
666.0 0.001502 573.30072 700.63092
691.0 0.001447 573.39679 685.33221
605.0 0.001653 573.49664 669.73083
631.0 0.001585 573.60059 655.08990
654.0 0.001529 573.70831 642.07318
612.0 0.001634 573.82001 631.30225
634.0 0.001577 573.93542 622.26404
618.0 0.001618 574.05487 615.16394
632.0 0.001582 574.17804 609.77887
612.0 0.001634 574.30505 606.10486
571.0 0.001751 574.43591 603.30328
633.0 0.001580 574.57050 601.39484
590.0 0.001695 574.70892 600.17804
636.0 0.001572 574.85107 599.50250
632.0 0.001582 574.99689 599.26520
610.0 0.001639 575.14636 599.40338
600.0 0.001667 575.29962 599.88861
648.0 0.001543 575.45642 600.72510
602.0 0.001661 575.61682 601.94952
601.0 0.001664 575.78082 603.63654
604.0 0.001656 575.94836 605.90363
622.0 0.001608 576.11951 608.91949
615.0 0.001626 576.29401 612.90680
652.0 0.001534 576.47205 618.14044
602.0 0.001661 576.65344 624.93866
592.0 0.001689 576.83826 633.64313
634.0 0.001577 577.02649 644.59253
631.0 0.001585 577.21790 658.08118
629.0 0.001590 577.41272 673.97650
681.0 0.001468 577.61066 692.87207
691.0 0.001447 577.81195 714.01886
708.0 0.001412 578.01624 735.88196
721.0 0.001387 578.22375 758.48224
727.0 0.001376 578.43427 780.39490
732.0 0.001366 578.64783 801.79089
827.0 0.001209 578.86438 823.41956
798.0 0.001253 579.08386 845.43134
832.0 0.001202 579.30634 866.42780
891.0 0.001122 579.53156 883.32733
849.0 0.001178 579.75958 892.07257
892.0 0.001121 579.99036 889.13531
898.0 0.001114 580.22394 873.07709
816.0 0.001225 580.46008 846.10632
813.0 0.001230 580.69879 812.74701
843.0 0.001186 580.94012 777.68976
739.0 0.001353 581.18390 749.74902
690.0 0.001449 581.43024 720.21796
707.0 0.001414 581.67883 695.23651
698.0 0.001433 581.92987 674.93774
643.0 0.001555 582.18304 659.00623
631.0 0.001585 582.43848 646.87415
669.0 0.001495 582.69623 637.87170
667.0 0.001499 582.95593 631.33484
653.0 0.001531 583.21777 626.68054
621.0 0.001610 583.48151 623.44324
706.0 0.001416 583.74738 621.28607
637.0 0.001570 584.01483 619.99237
677.0 0.001477 584.28436 619.45026
632.0 0.001582 584.55548 619.63293
663.0 0.001508 584.82831 620.57825
645.0 0.001550 585.10272 622.36804
694.0 0.001441 585.37872 625.10193
641.0 0.001560 585.65631 628.72223
603.0 0.001658 585.93524 633.66986
655.0 0.001527 586.21558 639.53406
671.0 0.001490 586.49713 646.04077
648.0 0.001543 586.78009 653.14392
701.0 0.001427 587.06403 659.92529
662.0 0.001511 587.34912 665.32593
705.0 0.001418 587.63525 668.19543
691.0 0.001447 587.92230 667.83746
679.0 0.001473 588.21039 664.46216
650.0 0.001538 588.49921 659.03723
615.0 0.001626 588.78876 652.71851
635.0 0.001575 589.07898 646.42004
615.0 0.001626 589.36987 640.71460
629.0 0.001590 589.66138 635.90118
613.0 0.001631 589.95319 632.09308
593.0 0.001686 590.24554 629.28595
590.0 0.001695 590.53815 627.48749
640.0 0.001563 590.83118 626.40814
653.0 0.001531 591.12415 626.00519
661.0 0.001513 591.41748 626.16168
653.0 0.001531 591.71069 626.72443
681.0 0.001468 592.00391 627.75085
661.0 0.001513 592.29712 629.15039
638.0 0.001567 592.59003 630.92841
672.0 0.001488 592.88287 633.12897
646.0 0.001548 593.17529 635.84143
612.0 0.001634 593.46735 639.21204
671.0 0.001490 593.75891 643.45667
628.0 0.001592 594.05005 648.87384
690.0 0.001449 594.34045 655.85168
610.0 0.001639 594.63025 664.86194
645.0 0.001550 594.91925 676.43591
688.0 0.001453 595.20746 690.87805
696.0 0.001437 595.49487 712.34644
733.0 0.001364 595.78119 734.56525
727.0 0.001376 596.06653 760.65326
774.0 0.001292 596.35077 790.02991
790.0 0.001266 596.63373 821.46967
779.0 0.001284 596.91565 852.03699
871.0 0.001148 597.19604 878.70453
902.0 0.001109 597.47516 898.30322
892.0 0.001121 597.75281 909.29724
927.0 0.001079 598.02893 911.55389
902.0 0.001109 598.30328 905.34863
880.0 0.001136 598.57623 891.02295
823.0 0.001215 598.84723 869.81171
843.0 0.001186 599.11646 844.32025
809.0 0.001236 599.38385 817.73596
807.0 0.001239 599.64923 792.71436
755.0 0.001325 599.91278 770.90765
766.0 0.001305 600.17401 753.07678
741.0 0.001350 600.43323 739.37878
689.0 0.001451 600.69019 729.61267
724.0 0.001381 600.94495 723.38910
699.0 0.001431 601.19720 720.24756
720.0 0.001389 601.44708 719.73761
693.0 0.001443 601.69458 721.47327
783.0 0.001277 601.93945 725.16327
726.0 0.001377 602.18182 730.62714
698.0 0.001433 602.42139 737.79724
744.0 0.001344 602.65839 746.72412
730.0 0.001370 602.89246 757.58466
760.0 0.001316 603.12378 770.71283
827.0 0.001209 603.35211 786.65497
767.0 0.001304 603.57758 806.26038
843.0 0.001186 603.79999 830.80359
805.0 0.001242 604.01929 862.14215
949.0 0.001054 604.23553 908.26752
980.0 0.001020 604.44849 962.07819
1083.0 0.000923 604.65826 1033.41943
1162.0 0.000861 604.86475 1127.68384
1354.0 0.000739 605.06781 1250.86743
1512.0 0.000661 605.26758 1408.74255
1743.0 0.000574 605.46381 1605.71301
1850.0 0.000541 605.65662 1843.98108
2257.0 0.000443 605.84576 2121.00073
2409.0 0.000415 606.03137 2429.67432
2725.0 0.000367 606.21338 2752.71704
3002.0 0.0003331 606.39166 3060.24878
3186.0 0.0003139 606.56622 3307.69653
3270.0 0.0003058 606.73694 3444.05713
3420.0 0.0002924 606.90393 3433.93164
3226.0 0.0003100 607.06696 3279.34790
3074.0 0.0003253 607.22620 3018.56006
2798.0 0.000357 607.38141 2703.28125
2446.0 0.000409 607.53271 2377.63086
2186.0 0.000457 607.67993 2070.89258
1872.0 0.000534 607.82312 1799.32202
1570.0 0.000637 607.96222 1569.98535
1338.0 0.000747 608.09723 1383.85718
1248.0 0.000801 608.22809 1238.00293
1099.0 0.000910 608.35480 1127.20959
1072.0 0.000933 608.47717 1045.26892
976.0 0.001025 608.59540 985.91534
980.0 0.001020 608.70941 943.40692
990.0 0.001010 608.81903 912.75781
911.0 0.001098 608.92438 889.75031
889.0 0.001125 609.02539 870.93536
831.0 0.001203 609.12201 853.82532
864.0 0.001157 609.21429 837.14923
837.0 0.001195 609.30219 820.76923
832.0 0.001202 609.38562 805.17426
814.0 0.001229 609.46460 790.95135
798.0 0.001253 609.53925 778.53485
767.0 0.001304 609.60931 768.06708
783.0 0.001277 609.67493 760.50940
724.0 0.001381 609.73615 754.52893
738.0 0.001355 609.79279 750.67743
773.0 0.001294 609.84497 748.82318
769.0 0.001300 609.89258 748.76172
754.0 0.001326 609.93573 750.19690
782.0 0.001279 609.97443 752.70630
759.0 0.001318 610.00854 755.68701
755.0 0.001325 610.03809 758.34357
786.0 0.001272 610.06323 759.82227
780.0 0.001282 610.08380 759.54443
754.0 0.001326 610.09991 757.52588
776.0 0.001289 610.11145 754.34564
746.0 0.001340 610.11853 750.79889
681.0 0.001468 610.12109 747.57745
747.0 0.001339 610.11926 745.15845
704.0 0.001420 610.11292 743.83020
753.0 0.001328 610.10205 743.75098
740.0 0.001351 610.08685 744.99774
723.0 0.001383 610.06714 747.60242
751.0 0.001332 610.04309 751.58185
739.0 0.001353 610.01465 756.96460
753.0 0.001328 609.98181 763.81665
773.0 0.001294 609.94464 772.27173
814.0 0.001229 609.90320 782.56543
810.0 0.001235 609.85736 795.08496
796.0 0.001256 609.80731 810.44019
818.0 0.001222 609.75305 829.55975
850.0 0.001176 609.69458 853.81604
852.0 0.001174 609.63184 885.16400
873.0 0.001145 609.56506 926.26715
919.0 0.001088 609.49414 980.56165
1012.0 0.000988 609.41913 1052.20044
1074.0 0.000931 609.34003 1145.51367
1218.0 0.000821 609.25696 1268.41064
1314.0 0.000761 609.16992 1419.22754
1474.0 0.000678 609.07904 1602.88037
1703.0 0.000587 608.98413 1818.54785
1992.0 0.000502 608.88550 2061.81274
2335.0 0.000428 608.78302 2320.74292
2699.0 0.000371 608.67688 2574.25439
2937.0 0.0003405 608.56696 2790.48389
3192.0 0.0003133 608.45337 2931.55151
3247.0 0.0003080 608.33624 2967.83154
3138.0 0.0003187 608.21552 2894.13379
2898.0 0.0003451 608.09137 2731.97339
2726.0 0.000367 607.96368 2515.66211
2400.0 0.000417 607.83270 2277.17114
2085.0 0.000480 607.69836 2039.99109
1784.0 0.000561 607.56079 1819.50732
1627.0 0.000615 607.41998 1624.84229
1449.0 0.000690 607.27600 1460.34827
1310.0 0.000763 607.12897 1326.76025
1172.0 0.000853 606.97888 1222.24487
1139.0 0.000878 606.82587 1143.43933
1056.0 0.000947 606.66998 1086.36902
1092.0 0.000916 606.51129 1047.15588
1022.0 0.000978 606.34979 1022.46924
1068.0 0.000936 606.18555 1009.78595
984.0 0.001016 606.01880 1007.51520
996.0 0.001004 605.84943 1015.06744
1070.0 0.000935 605.67767 1032.92468
1072.0 0.000933 605.50342 1062.73755
1076.0 0.000929 605.32690 1107.44043
1110.0 0.000901 605.14807 1171.33508
1211.0 0.000826 604.96716 1260.05774
1327.0 0.000754 604.78412 1380.32861
1422.0 0.000703 604.59894 1539.39172
1611.0 0.000621 604.41199 1744.01404
1865.0 0.000536 604.22308 1999.51611
2158.0 0.000463 604.03241 2307.66895
2510.0 0.000398 603.83997 2664.95605
2957.0 0.0003382 603.64600 3059.70459
3425.0 0.0002920 603.45044 3468.22192
3669.0 0.0002726 603.25348 3845.23877
4125.0 0.0002424 603.05511 4145.38232
4317.0 0.0002316 602.85541 4302.54639
4232.0 0.0002363 602.65460 4277.93799
4223.0 0.0002368 602.45258 4077.43481
3922.0 0.0002550 602.24963 3747.75952
3360.0 0.0002976 602.04565 3350.29834
3023.0 0.0003308 601.84088 2937.70264
2562.0 0.000390 601.63538 2545.60474
2215.0 0.000451 601.42902 2194.36816
1948.0 0.000513 601.22229 1893.36096
1742.0 0.000574 601.01489 1644.53638
1448.0 0.000691 600.80719 1445.00293
1325.0 0.000755 600.59906 1288.95642
1129.0 0.000886 600.39081 1169.21790
1109.0 0.000902 600.18231 1078.42004
1015.0 0.000985 599.97388 1009.81885
1065.0 0.000939 599.76544 957.63708
950.0 0.001053 599.55701 917.63116
867.0 0.001153 599.34900 886.38055
856.0 0.001168 599.14111 861.53601
862.0 0.001160 598.93378 841.49542
867.0 0.001153 598.72681 825.20557
835.0 0.001198 598.52051 812.00745
825.0 0.001212 598.31482 801.52905
836.0 0.001196 598.10999 793.62317
812.0 0.001232 597.90594 788.33521
797.0 0.001255 597.70282 785.89124
818.0 0.001222 597.50079 786.68774
816.0 0.001225 597.29987 791.27124
779.0 0.001284 597.10010 800.29407
752.0 0.001330 596.90167 814.43555
808.0 0.001238 596.70465 834.28766
838.0 0.001193 596.50916 860.11713
853.0 0.001172 596.31506 892.03522
914.0 0.001094 596.12280 929.22156
973.0 0.001028 595.93219 969.95142
957.0 0.001045 595.74341 1011.06989
1018.0 0.000982 595.55652 1047.64185
1076.0 0.000929 595.37164 1073.31360
1075.0 0.000930 595.18884 1083.46692
1100.0 0.000909 595.00830 1072.93311
1081.0 0.000925 594.82996 1045.31458
1016.0 0.000984 594.65381 1006.41376
915.0 0.001093 594.48022 962.61420
885.0 0.001130 594.30908 918.93744
892.0 0.001121 594.14056 878.61896
831.0 0.001203 593.97455 843.43829
826.0 0.001211 593.81140 814.15918
783.0 0.001277 593.65094 790.86694
762.0 0.001312 593.49347 773.21362
793.0 0.001261 593.33887 760.60693
772.0 0.001295 593.18732 752.36469
711.0 0.001406 593.03894 747.83655
721.0 0.001387 592.89362 746.49255
754.0 0.001326 592.75153 747.98492
777.0 0.001287 592.61279 752.19067
773.0 0.001294 592.47748 759.25330
788.0 0.001269 592.34558 769.62842
797.0 0.001255 592.21710 784.14636
817.0 0.001224 592.09229 804.08069
797.0 0.001255 591.97101 831.21014
884.0 0.001131 591.85352 867.84155
905.0 0.001105 591.73962 916.75714
895.0 0.001117 591.62970 981.04730
1013.0 0.000987 591.52356 1063.80005
1058.0 0.000945 591.42133 1167.64673
1276.0 0.000784 591.32312 1294.16223
1380.0 0.000725 591.22882 1443.13843
1556.0 0.000643 591.13867 1611.55896
1735.0 0.000576 591.05261 1792.34900
2000.0 0.000500 590.97070 1972.57361
2097.0 0.000477 590.89294 2132.10522
2283.0 0.000438 590.81952 2245.17627
2333.0 0.000429 590.75031 2287.87378
2344.0 0.000427 590.68549 2249.58350
2195.0 0.000456 590.62494 2139.48926
2020.0 0.000495 590.56879 1980.92041
1930.0 0.000518 590.51709 1799.82385
1688.0 0.000592 590.46985 1616.83411
1408.0 0.000710 590.42706 1445.37024
1333.0 0.000750 590.38879 1292.88049
1199.0 0.000834 590.35510 1162.60315
998.0 0.001002 590.32593 1051.72021
963.0 0.001038 590.30127 965.23914
857.0 0.001167 590.28125 897.30957
843.0 0.001186 590.26593 844.84180
873.0 0.001145 590.25513 804.49695
789.0 0.001267 590.24896 773.84528
724.0 0.001381 590.24744 750.21771
754.0 0.001326 590.25061 731.82880
767.0 0.001304 590.25842 717.19830
655.0 0.001527 590.27087 706.65674
744.0 0.001344 590.28790 696.79761
691.0 0.001447 590.30969 688.46002
697.0 0.001435 590.33612 681.30414
687.0 0.001456 590.36719 675.09302
645.0 0.001550 590.40289 669.65717
673.0 0.001486 590.44318 664.87122
698.0 0.001433 590.48816 660.63879
639.0 0.001565 590.53772 656.88336
671.0 0.001490 590.59174 653.54352
650.0 0.001538 590.65045 650.56836
684.0 0.001462 590.71362 647.91528
607.0 0.001647 590.78137 645.54858
667.0 0.001499 590.85352 643.43787
653.0 0.001531 590.93024 641.55774
710.0 0.001408 591.01129 639.88623
648.0 0.001543 591.09674 638.40491
651.0 0.001536 591.18652 637.09833
667.0 0.001499 591.28064 635.95270
691.0 0.001447 591.37909 635.12915
648.0 0.001543 591.48169 634.27734
675.0 0.001481 591.58850 633.56024
640.0 0.001563 591.69940 632.96844
654.0 0.001529 591.81445 632.49884
616.0 0.001623 591.93347 632.14795
633.0 0.001580 592.05646 626.40430
655.0 0.001527 592.18335 626.37970
638.0 0.001567 592.31415 626.44177
626.0 0.001597 592.44879 626.64557
612.0 0.001634 592.58704 626.96655
644.0 0.001553 592.72900 627.40924
603.0 0.001658 592.87451 627.97931
636.0 0.001572 593.02368 628.68433
665.0 0.001504 593.17615 629.53351
606.0 0.001650 593.33203 630.53876
641.0 0.001560 593.49121 631.71423
652.0 0.001534 593.65363 633.07703
646.0 0.001548 593.81921 634.64899
636.0 0.001572 593.98773 636.45575
661.0 0.001513 594.15930 638.53040
620.0 0.001613 594.33368 640.91449
658.0 0.001520 594.51093 643.66290
678.0 0.001475 594.69080 646.84882
650.0 0.001538 594.87323 650.57611
666.0 0.001502 595.05835 654.99194
618.0 0.001618 595.24573 660.30933
656.0 0.001524 595.43542 666.83478
705.0 0.001418 595.62732 675.00421
738.0 0.001355 595.82135 685.41895
708.0 0.001412 596.01733 698.87689
662.0 0.001511 596.21521 716.38916
689.0 0.001451 596.41492 739.16199
763.0 0.001311 596.61621 768.61450
737.0 0.001357 596.81921 805.93872
762.0 0.001312 597.02350 852.39795
909.0 0.001100 597.22925 908.78644
931.0 0.001074 597.43610 975.16687
999.0 0.001001 597.64417 1050.56958
1072.0 0.000933 597.85315 1132.44763
1243.0 0.000805 598.06287 1215.95068
1349.0 0.000741 598.27356 1293.33386
1411.0 0.000709 598.48474 1354.03198
1400.0 0.000714 598.69647 1386.26782
1412.0 0.000708 598.90851 1384.05981
1417.0 0.000706 599.12085 1347.38477
1316.0 0.000760 599.33331 1284.34753
1281.0 0.000781 599.54565 1206.25623
1135.0 0.000881 599.75800 1123.35107
1072.0 0.000933 599.96997 1042.95044
951.0 0.001052 600.18164 969.51190
880.0 0.001136 600.39276 905.33545
809.0 0.001236 600.60321 851.22687
818.0 0.001222 600.81287 806.98456
815.0 0.001227 601.02167 771.92230
711.0 0.001406 601.22931 744.50098
738.0 0.001355 601.43579 723.53064
760.0 0.001316 601.64099 707.69769
707.0 0.001414 601.84473 695.83582
714.0 0.001401 602.04694 686.98291
682.0 0.001466 602.24738 680.39374
681.0 0.001468 602.44598 675.52063
664.0 0.001506 602.64258 671.98138
746.0 0.001340 602.83710 669.52014
660.0 0.001515 603.02936 667.97180
664.0 0.001506 603.21912 667.23230
693.0 0.001443 603.40656 667.23383
668.0 0.001497 603.59119 667.92407
642.0 0.001558 603.77319 669.24780
693.0 0.001443 603.95215 671.12915
660.0 0.001515 604.12817 673.46271
682.0 0.001466 604.30096 676.12433
696.0 0.001437 604.47052 679.06519
669.0 0.001495 604.63660 682.12921
674.0 0.001484 604.79907 685.38434
709.0 0.001410 604.95801 688.85449
753.0 0.001328 605.11310 692.53741
657.0 0.001522 605.26422 693.76917
716.0 0.001397 605.41125 698.07941
672.0 0.001488 605.55426 703.13501
718.0 0.001393 605.69287 709.60815
717.0 0.001395 605.82709 718.40405
721.0 0.001387 605.95685 730.59326
700.0 0.001429 606.08185 747.37433
700.0 0.001429 606.20227 770.04871
712.0 0.001404 606.31775 799.94806
845.0 0.001183 606.42822 838.32446
847.0 0.001181 606.53363 886.17322
932.0 0.001073 606.63391 944.00513
994.0 0.001006 606.72888 1011.56122
1003.0 0.000997 606.81842 1087.43713
1158.0 0.000864 606.90253 1168.56519
1246.0 0.000803 606.98102 1249.54272
1339.0 0.000747 607.05389 1322.13428
1495.0 0.000669 607.12097 1375.79956
1498.0 0.000668 607.18225 1400.38049
1475.0 0.000678 607.23755 1390.49146
1507.0 0.000664 607.28680 1348.48474
1409.0 0.000710 607.32996 1283.12463
1242.0 0.000805 607.36694 1205.31409
1169.0 0.000855 607.39771 1124.48755
1077.0 0.000929 607.42212 1047.28333
953.0 0.001049 607.44012 977.76208
874.0 0.001144 607.45172 918.06708
855.0 0.001170 607.45679 869.00739
805.0 0.001242 607.45532 830.51147
808.0 0.001238 607.44720 801.76721
747.0 0.001339 607.43231 783.59418
678.0 0.001475 607.41077 770.85999
698.0 0.001433 607.38245 763.97015
686.0 0.001458 607.34735 761.36945
723.0 0.001383 607.30530 761.38763
717.0 0.001395 607.25647 762.20142
694.0 0.001441 607.20068 761.93140
750.0 0.001333 607.13800 758.99335
739.0 0.001353 607.06824 752.59882
705.0 0.001418 606.99164 743.00024
723.0 0.001383 606.90802 731.20850
687.0 0.001456 606.81738 718.44629
722.0 0.001385 606.71973 705.74042
656.0 0.001524 606.61511 693.79218
650.0 0.001538 606.50354 683.00977
658.0 0.001520 606.38495 673.58398
658.0 0.001520 606.25934 665.55566
620.0 0.001613 606.12683 658.86377
619.0 0.001616 605.98737 653.38373
618.0 0.001618 605.84100 648.95776
668.0 0.001497 605.68768 645.41870
631.0 0.001585 605.52765 642.61053
596.0 0.001678 605.36078 640.39893
603.0 0.001658 605.18719 638.67993
633.0 0.001580 605.00690 637.38153
666.0 0.001502 604.81982 636.46442
601.0 0.001664 604.62628 635.91882
617.0 0.001621 604.42621 635.76178
626.0 0.001597 604.21973 636.03265
658.0 0.001520 604.00671 636.78760
626.0 0.001597 603.78754 638.09210
635.0 0.001575 603.56207 640.01074
613.0 0.001631 603.33057 642.59589
645.0 0.001550 603.09296 645.87177
667.0 0.001499 602.84937 649.81781
709.0 0.001410 602.60010 654.34229
705.0 0.001418 602.34497 659.24847
692.0 0.001445 602.08423 664.19794
758.0 0.001319 601.81805 668.69263
753.0 0.001328 601.54651 672.13574
756.0 0.001323 601.26984 674.00916
730.0 0.001370 600.98785 674.09216
756.0 0.001323 600.70105 672.54541
705.0 0.001418 600.40930 669.77783
716.0 0.001397 600.11304 666.24493
680.0 0.001471 599.81201 662.33350
666.0 0.001502 599.50690 658.36053
646.0 0.001548 599.19739 654.61365
649.0 0.001541 598.88397 651.37952
638.0 0.001567 598.56665 648.93939
669.0 0.001495 598.24554 647.54492
659.0 0.001517 597.92108 646.09906
634.0 0.001577 597.59314 647.36957
674.0 0.001484 597.26227 650.12317
657.0 0.001522 596.92822 654.38422
629.0 0.001590 596.59167 660.09894
641.0 0.001560 596.25238 667.10632
670.0 0.001493 595.91089 675.09564
724.0 0.001381 595.56738 683.54529
693.0 0.001443 595.22180 691.65619
711.0 0.001406 594.87469 698.35126
736.0 0.001359 594.52594 702.44403
726.0 0.001377 594.17609 703.04022
706.0 0.001416 593.82520 699.96289
697.0 0.001435 593.47369 693.85211
691.0 0.001447 593.12164 685.83392
715.0 0.001399 592.76910 677.07074
675.0 0.001481 592.41681 668.48846
678.0 0.001475 592.06458 660.71820
636.0 0.001572 591.71295 654.14508
627.0 0.001595 591.36182 648.97168
626.0 0.001597 591.01196 645.26721
605.0 0.001653 590.66321 642.99780
603.0 0.001658 590.31604 642.04828
656.0 0.001524 589.97070 642.23334
614.0 0.001629 589.62732 643.29907
647.0 0.001546 589.28638 644.91559
652.0 0.001534 588.94794 646.67096
677.0 0.001477 588.61249 648.09906
622.0 0.001608 588.28015 648.95416
630.0 0.001587 587.95135 648.63977
672.0 0.001488 587.62616 647.37646
634.0 0.001577 587.30511 645.44696
603.0 0.001658 586.98840 643.22723
581.0 0.001721 586.67621 641.05945
604.0 0.001656 586.36896 639.16772
610.0 0.001639 586.06677 637.78180
607.0 0.001647 585.77020 636.97479
643.0 0.001555 585.47937 636.80737
638.0 0.001567 585.19464 637.31451
627.0 0.001595 584.91626 638.51672
674.0 0.001484 584.64435 640.43494
652.0 0.001534 584.37952 643.10266
621.0 0.001610 584.12195 646.78979
601.0 0.001664 583.87195 651.18695
655.0 0.001527 583.62952 656.67749
678.0 0.001475 583.39545 663.51044
643.0 0.001555 583.16968 672.07843
653.0 0.001531 582.95270 682.92737
719.0 0.001391 582.74463 696.80017
688.0 0.001453 582.54584 714.66510
709.0 0.001410 582.35669 739.95679
753.0 0.001328 582.17731 769.61908
764.0 0.001309 582.00806 806.01025
825.0 0.001212 581.84918 853.30573
822.0 0.001217 581.70105 911.39142
893.0 0.001120 581.56384 981.06476
1046.0 0.000956 581.43787 1062.37781
1106.0 0.000904 581.32349 1154.26917
1231.0 0.000812 581.22070 1254.07129
1353.0 0.000739 581.13013 1356.86646
1481.0 0.000675 581.05170 1454.82117
1614.0 0.000620 580.98584 1537.07349
1662.0 0.000602 580.93286 1591.23401
1750.0 0.000571 580.89288 1607.15601
1722.0 0.000581 580.86615 1581.46606
1717.0 0.000582 580.85291 1519.36426
1510.0 0.000662 580.85339 1431.97937
1371.0 0.000729 580.86798 1331.68298
1247.0 0.000802 580.89667 1228.73535
1252.0 0.000799 580.93982 1130.24280
1111.0 0.000900 580.99756 1040.33667
989.0 0.001011 581.07019 961.57635
955.0 0.001047 581.15771 894.53101
847.0 0.001181 581.26050 838.93280
806.0 0.001241 581.37878 793.85211
786.0 0.001272 581.51251 757.96631
771.0 0.001297 581.66211 729.79230
734.0 0.001362 581.82745 707.85724
754.0 0.001326 582.00903 690.81854
729.0 0.001372 582.20667 677.53046
693.0 0.001443 582.42084 667.10754
660.0 0.001515 582.65131 658.75031
702.0 0.001425 582.89838 651.96484
676.0 0.001479 583.16229 646.36304
660.0 0.001515 583.44293 641.66821
633.0 0.001580 583.74060 637.68481
651.0 0.001536 584.05511 634.27325
689.0 0.001451 584.38690 631.33313
649.0 0.001541 584.73566 628.78961
670.0 0.001493 585.10168 626.58588
657.0 0.001522 585.48499 624.67700
648.0 0.001543 585.88550 623.02692
636.0 0.001572 586.30353 621.60596
646.0 0.001548 586.73871 620.38867
638.0 0.001567 587.19135 619.35406
642.0 0.001558 587.66119 618.48401
675.0 0.001481 588.14856 617.76331
647.0 0.001546 588.65308 617.17798
602.0 0.001661 589.17474 616.71680
626.0 0.001597 589.71393 616.36969
608.0 0.001645 590.26996 616.12769
604.0 0.001656 590.84338 615.98328
649.0 0.001541 591.43347 615.92938
638.0 0.001567 592.04077 615.88110
576.0 0.001736 592.66455 616.23047
626.0 0.001597 593.30536 616.42200
644.0 0.001553 593.96228 616.68433
631.0 0.001585 594.63568 617.00256
612.0 0.001634 595.32556 617.39850
710.0 0.001408 596.03125 617.85602
669.0 0.001495 596.75305 618.36023
577.0 0.001733 597.49036 618.93628
583.0 0.001715 598.24335 619.56860
627.0 0.001595 599.01129 620.25549
647.0 0.001546 599.79425 620.99615
627.0 0.001595 600.59229 621.79004
681.0 0.001468 601.40454 622.63556
645.0 0.001550 602.23132 623.53333
607.0 0.001647 603.07172 624.48224
629.0 0.001590 603.92615 625.48285
638.0 0.001567 604.79358 626.53491
644.0 0.001553 605.67438 627.63953
651.0 0.001536 606.56744 628.79645
632.0 0.001582 607.47284 631.18750
652.0 0.001534 608.39056 632.47467
636.0 0.001572 609.31952 633.65051
649.0 0.001541 610.26007 635.05365
631.0 0.001585 611.21094 636.51703
625.0 0.001600 612.17267 638.04456
627.0 0.001595 613.14398 639.63849
636.0 0.001572 614.12512 641.30310
616.0 0.001623 615.11499 643.04175
618.0 0.001618 616.11346 644.85992
604.0 0.001656 617.12042 646.76398
642.0 0.001558 618.13464 648.75928
588.0 0.001701 619.15637 650.85529
640.0 0.001563 620.18439 653.06079
608.0 0.001645 621.21887 655.38885
631.0 0.001585 622.25854 657.85388
624.0 0.001603 623.30322 660.47607
617.0 0.001621 624.35278 663.28210
599.0 0.001669 625.40588 666.30597
687.0 0.001456 626.46271 669.59576
647.0 0.001546 627.52191 673.15784
635.0 0.001575 628.58356 677.18726
649.0 0.001541 629.64648 681.73322
644.0 0.001553 630.71075 686.92877
663.0 0.001508 631.77496 692.93060
632.0 0.001582 632.83875 699.91913
698.0 0.001433 633.90210 708.08704
668.0 0.001497 634.96338 717.62463
654.0 0.001529 636.02289 728.70276
740.0 0.001351 637.07898 741.44574
695.0 0.001439 638.13202 755.90521
739.0 0.001353 639.18036 772.02020
775.0 0.001290 640.22430 789.57300
797.0 0.001255 641.26208 808.11987
843.0 0.001186 642.29358 826.92615
886.0 0.001129 643.31854 844.94275
898.0 0.001114 644.33545 860.94708
853.0 0.001172 645.34430 873.93439
858.0 0.001166 646.34369 883.63977
871.0 0.001148 647.33368 890.84644
914.0 0.001094 648.31281 898.55627
858.0 0.001166 649.28070 906.17932
893.0 0.001120 650.23700 917.11609
873.0 0.001145 651.18036 933.12170
851.0 0.001175 652.11066 955.88062
888.0 0.001126 653.02661 986.87268
927.0 0.001079 653.92810 1027.41626
978.0 0.001022 654.81372 1078.58276
1030.0 0.000971 655.68359 1141.06750
1084.0 0.000923 656.53619 1215.09314
1159.0 0.000863 657.37115 1300.47949
1229.0 0.000814 658.18817 1396.88074
1283.0 0.000779 658.98590 1503.86792
1443.0 0.000693 659.76434 1620.71313
1618.0 0.000618 660.52209 1743.26306
1790.0 0.000559 661.25909 1870.45007
1985.0 0.000504 661.97412 1991.59888
2038.0 0.000491 662.66711 2093.84839
2162.0 0.000463 663.33679 2161.88916
2128.0 0.000470 663.98297 2182.36597
2197.0 0.000455 664.60504 2149.46899
2073.0 0.000482 665.20203 2067.85034
2053.0 0.000487 665.77374 1950.36133
1867.0 0.000536 666.31915 1812.63562
1630.0 0.000613 666.83807 1668.52087
1474.0 0.000678 667.32965 1528.15564
1341.0 0.000746 667.79346 1398.03101
1264.0 0.000791 668.22900 1281.78613
1155.0 0.000866 668.63556 1181.00989
1069.0 0.000935 669.01300 1095.85498
1041.0 0.000961 669.36035 1025.48987
1003.0 0.000997 669.67749 968.45557
927.0 0.001079 669.96381 922.95703
948.0 0.001055 670.21899 887.09930
937.0 0.001067 670.44244 859.06580
921.0 0.001086 670.63385 837.23517
918.0 0.001089 670.79297 820.24280
927.0 0.001079 670.91925 806.99420
899.0 0.001112 671.01245 796.64667
860.0 0.001163 671.07220 788.57031
882.0 0.001134 671.09839 782.30292
884.0 0.001131 671.09058 777.50250
887.0 0.001127 671.04865 773.90527
876.0 0.001142 670.97229 771.28864
885.0 0.001130 670.86139 769.43689
867.0 0.001153 670.71570 768.11334
859.0 0.001164 670.53528 767.03864
861.0 0.001161 670.31982 765.89447
892.0 0.001121 670.06940 764.37219
790.0 0.001266 669.78381 762.25995
854.0 0.001171 669.46332 759.52325
872.0 0.001147 669.10779 756.31042
849.0 0.001178 668.71704 752.87964
829.0 0.001206 668.29156 749.50708
829.0 0.001206 667.83112 746.43048
862.0 0.001160 667.33618 743.83722
831.0 0.001203 666.80646 741.87628
829.0 0.001206 666.24274 740.73480
782.0 0.001279 665.64471 740.42297
776.0 0.001289 665.01318 741.12842
811.0 0.001233 664.34814 742.99194
820.0 0.001220 663.64978 746.16577
755.0 0.001325 662.91888 750.80780
791.0 0.001264 662.15546 757.06659
849.0 0.001178 661.36029 765.06561
736.0 0.001359 660.53351 774.87622
834.0 0.001199 659.67615 786.48944
809.0 0.001236 658.78802 799.77417
805.0 0.001242 657.87048 814.42908
834.0 0.001199 656.92383 829.91125
839.0 0.001192 655.94824 845.36725
868.0 0.001152 654.94531 859.61896
829.0 0.001206 653.91479 871.30774
901.0 0.001110 652.85834 880.64801
838.0 0.001193 651.77600 884.55701
867.0 0.001153 650.66925 885.07251
883.0 0.001133 649.53864 883.85815
802.0 0.001247 648.38458 883.05945
832.0 0.001202 647.20886 884.83545
841.0 0.001189 646.01160 891.09637
856.0 0.001168 644.79468 903.43207
902.0 0.001109 643.55804 923.09790
888.0 0.001126 642.30377 950.99298
940.0 0.001064 641.03204 987.59454
920.0 0.001087 639.74493 1032.85657
948.0 0.001055 638.44287 1086.05371
1081.0 0.000925 637.12677 1145.56433
1092.0 0.000916 635.79865 1208.56494
1215.0 0.000823 634.45868 1270.67932
1250.0 0.000800 633.10913 1325.82312
1366.0 0.000732 631.75031 1366.69690
1278.0 0.000782 630.38452 1386.41101
1271.0 0.000787 629.01184 1380.90686
1313.0 0.000762 627.63477 1350.74158
1303.0 0.000767 626.25409 1300.78223
1240.0 0.000806 624.87054 1238.08215
1130.0 0.000885 623.48663 1169.56458
1071.0 0.000934 622.10254 1100.70764
971.0 0.001030 620.72076 1035.27783
994.0 0.001006 619.34174 975.58350
920.0 0.001087 617.96771 922.84680
888.0 0.001126 616.59967 877.50824
887.0 0.001127 615.23840 839.45929
819.0 0.001221 613.88654 808.21924
742.0 0.001348 612.54419 783.07721
769.0 0.001300 611.21399 763.21533
754.0 0.001326 609.89618 747.80170
744.0 0.001344 608.59320 736.06641
715.0 0.001399 607.30548 727.34430
758.0 0.001319 606.03528 721.10712
722.0 0.001385 604.78351 716.96844
702.0 0.001425 603.55096 714.70337
684.0 0.001462 602.33997 714.18909
732.0 0.001366 601.15094 715.48596
723.0 0.001383 599.98590 718.78662
738.0 0.001355 598.84534 724.42975
707.0 0.001414 597.73120 732.90558
733.0 0.001364 596.64392 744.95428
710.0 0.001408 595.58545 761.13788
737.0 0.001357 594.55646 782.42548
817.0 0.001224 593.55768 811.61737
856.0 0.001168 592.59082 845.82098
879.0 0.001138 591.65613 887.61652
920.0 0.001087 590.75531 937.43744
924.0 0.001082 589.88855 995.27441
1015.0 0.000985 589.05725 1060.48132
1045.0 0.000957 588.26178 1131.51111
1132.0 0.000883 587.50269 1205.57434
1275.0 0.000784 586.78113 1278.25696
1307.0 0.000765 586.09717 1343.12085
1391.0 0.000719 585.45172 1392.94910
1414.0 0.000707 584.84479 1420.13293
1343.0 0.000745 584.27722 1419.94092
1377.0 0.000726 583.74878 1392.29773
1338.0 0.000747 583.26007 1341.77356
1398.0 0.000715 582.81097 1275.61182
1186.0 0.000843 582.40149 1201.32703
1090.0 0.000917 582.03174 1125.16528
1066.0 0.000938 581.70129 1051.62390
948.0 0.001055 581.41010 983.59918
902.0 0.001109 581.15778 922.73151
850.0 0.001176 580.94385 869.73669
785.0 0.001274 580.76776 824.45618
707.0 0.001414 580.62891 786.90118
726.0 0.001377 580.52649 756.14191
747.0 0.001339 580.45978 731.31726
700.0 0.001429 580.42767 711.48975
722.0 0.001385 580.42908 695.75629
704.0 0.001420 580.46295 683.29773
687.0 0.001456 580.52802 673.40936
717.0 0.001395 580.62280 665.51196
709.0 0.001410 580.74585 656.90369
690.0 0.001449 580.89557 651.75122
665.0 0.001504 581.07019 647.51373
718.0 0.001393 581.26807 643.99689
697.0 0.001435 581.48706 641.05853
656.0 0.001524 581.72528 638.59564
692.0 0.001445 581.98053 636.53180
665.0 0.001504 582.25079 634.81036
640.0 0.001563 582.53345 633.38788
632.0 0.001582 582.82617 632.22986
634.0 0.001577 583.12671 631.31000
663.0 0.001508 583.43213 630.60596
669.0 0.001495 583.74017 630.10016
651.0 0.001536 584.04767 629.77759
662.0 0.001511 584.35223 629.62677
668.0 0.001497 584.65070 629.63928
660.0 0.001515 584.94037 629.80963
668.0 0.001497 585.21814 630.13629
658.0 0.001520 585.48108 630.62128
645.0 0.001550 585.72644 631.27124
673.0 0.001486 585.95087 632.09735
633.0 0.001580 586.15149 633.11615
618.0 0.001618 586.32526 634.35052
685.0 0.001460 586.46930 635.82959
658.0 0.001520 586.58057 637.58984
659.0 0.001517 586.65625 639.67419
597.0 0.001675 586.69348 642.13141
657.0 0.001522 586.68964 645.01465
660.0 0.001515 586.64209 648.37909
654.0 0.001529 586.54834 652.23853
650.0 0.001538 586.40607 656.72998
681.0 0.001468 586.21326 661.86072
688.0 0.001453 585.96777 667.67535
692.0 0.001445 585.66821 674.21045
699.0 0.001431 585.31281 681.49396
659.0 0.001517 584.90051 689.54431
672.0 0.001488 584.43060 698.38367
702.0 0.001425 583.90240 708.08118
671.0 0.001490 583.31598 718.83435
693.0 0.001443 582.67145 731.07159
738.0 0.001355 581.96997 745.51056
727.0 0.001376 581.21222 763.12244
746.0 0.001340 580.40076 785.01196
760.0 0.001316 579.53760 812.27026
771.0 0.001297 578.62549 847.70233
783.0 0.001277 577.66895 888.30975
896.0 0.001116 576.67157 936.24670
905.0 0.001105 575.63953 991.34094
972.0 0.001029 574.57825 1052.75061
1041.0 0.000961 573.49548 1118.73340
1155.0 0.000866 572.39893 1186.34167
1208.0 0.000828 571.29712 1251.12927
1367.0 0.000732 570.20129 1307.11646
1392.0 0.000718 569.12201 1347.42896
1503.0 0.000665 568.07263 1365.67493
1446.0 0.000692 567.06647 1359.04846
1399.0 0.000715 566.11969 1328.27893
1363.0 0.000734 565.24860 1278.16235
1167.0 0.000857 564.47247 1215.41345
1140.0 0.000877 563.81116 1146.63733
1148.0 0.000871 563.28656 1077.15710
982.0 0.001018 562.92322 1010.83014
972.0 0.001029 562.74683 949.86206
886.0 0.001129 562.78558 895.70593
814.0 0.001229 563.07007 848.96118
778.0 0.001285 563.63281 809.68524
780.0 0.001282 564.50952 777.54919
726.0 0.001377 565.73755 751.98163
779.0 0.001284 567.35773 732.27399
747.0 0.001339 569.41461 717.67224
743.0 0.001346 571.95325 707.44623
729.0 0.001372 575.02545 700.94421
714.0 0.001401 578.68237 696.44031
748.0 0.001337 582.98364 695.87518
755.0 0.001325 587.98645 697.73608
763.0 0.001311 593.75677 701.82782
698.0 0.001433 600.36603 708.04901
662.0 0.001511 607.88208 716.38501
706.0 0.001416 616.38782 726.91833
761.0 0.001314 625.95941 739.80591
719.0 0.001391 636.69086 755.30878
723.0 0.001383 648.66632 773.77448
703.0 . . .
loop_
_refln_index_h
_refln_index_k
_refln_index_l
_refln_observed_status
_refln_F_squared_meas
_refln_F_squared_calc
_refln_phase_calc
_refln_d_spacing
_gsas_i100_meas
1 1 0 o 11675.994 11733.978 180.00 7.05131 14.76
0 0 1 o 506.456 633.582 180.00 5.06150 0.00
2 0 0 o 639.218 1198.120 0.00 4.98603 0.64
1 1 1 o 28188.814 28296.387 0.00 4.11185 26.99
2 0 1 o 1254.983 1173.063 180.00 3.55204 1.20
2 2 0 o 219.031 250.214 0.00 3.52565 0.10
2 1 1 o 414.299 61.196 0.00 3.34610 0.67
3 1 0 o 16369.484 16461.203 0.00 3.15344 8.52
2 2 1 o 200741.27 199254.53 180.00 2.89299 100.00
3 1 1 o 5913.810 5352.148 180.00 2.67648 3.91
0 0 2 o 106439.02 109668.69 0.00 2.53075 9.33
4 0 0 o 128768.15 129931.49 0.00 2.49301 22.77
3 2 1 o 4942.922 4540.483 0.00 2.42704 4.33
1 1 2 o 3813.134 3751.720 180.00 2.38198 0.86
3 3 0 o 21245.367 21130.883 180.00 2.35044 3.19
2 0 2 o 73.924 196.864 0.00 2.25670 0.04
4 0 1 o 5779.205 5947.798 180.00 2.23645 0.94
4 2 0 o 508.265 533.787 0.00 2.22982 0.20
2 1 2 o 620.299 553.929 0.00 2.20104 0.46
4 1 1 o 3005.078 2699.139 0.00 2.18224 2.12
3 3 1 o 1248.468 1431.417 0.00 2.13179 0.14
2 2 2 o 5731.681 6126.500 0.00 2.05592 0.79
4 2 1 o 71.596 88.503 180.00 2.04058 0.07
3 1 2 o 20126.584 19477.164 0.00 1.97374 8.96
5 1 0 o 5053.333 4811.139 180.00 1.95568 0.96
3 2 2 o 845.166 478.378 0.00 1.86707 0.44
4 3 1 o 376.242 300.065 180.00 1.85556 0.20
5 1 1 o 20169.166 20357.998 0.00 1.82424 7.53
4 0 2 o 138860.72 139728.28 0.00 1.77602 26.58
4 4 0 o 133360.39 134849.36 0.00 1.76283 12.59
4 1 2 o 15.791 20.414 180.00 1.74850 0.01
5 2 1 o 44.149 54.641 180.00 1.73903 0.02
3 3 2 o 27583.578 25833.303 180.00 1.72223 4.94
5 3 0 o 8690.849 7201.400 0.00 1.71019 1.39
0 0 3 o 4699.946 3735.695 180.00 1.68717 0.13
4 2 2 o 1098.314 925.257 0.00 1.67305 0.50
4 4 1 o 1486.609 1630.815 180.00 1.66475 0.04
6 0 0 o 1.859 3.478 180.00 1.66201 0.00
1 1 3 o 7765.357 7857.802 0.00 1.64085 1.04
5 3 1 o 12970.151 13227.695 180.00 1.62021 3.76
2 0 3 o 181.306 306.966 180.00 1.59815 0.04
6 0 1 o 1151.558 1231.406 180.00 1.57906 0.23
2 1 3 o 190.905 207.051 0.00 1.57801 0.07
6 2 0 o 6940.405 7381.645 0.00 1.57672 0.67
4 3 2 o 12.058 15.110 0.00 1.56645 0.01
6 1 1 o -3.870 180.139 180.00 1.55963 0.00
5 1 2 o 54.276 74.644 180.00 1.54747 0.01
2 2 3 o 102773.73 102717.87 180.00 1.52188 14.66
6 2 1 o 87542.84 87354.88 180.00 1.50537 24.27
5 2 2 o 531.237 406.533 0.00 1.49443 0.19
5 4 1 o 88.849 82.622 180.00 1.48851 0.03
3 1 3 o 6504.117 6215.353 180.00 1.48763 1.55
4 4 2 o 78081.88 77684.99 0.00 1.44650 10.02
3 2 3 o 394.633 448.403 180.00 1.44033 0.13
6 3 1 o 21.695 17.757 180.00 1.42630 0.01
5 3 2 o 2586.857 2701.859 0.00 1.41699 0.41
5 5 0 o 2779.759 3000.993 0.00 1.41026 0.33
7 1 0 o 8820.322 9128.163 0.00 1.41026 0.92
4 0 3 o 322.782 299.620 180.00 1.39727 0.02
6 0 2 o 270.906 272.720 180.00 1.38922 0.03
4 1 3 o 663.399 642.600 180.00 1.38375 0.22
6 4 0 o 3.748 2.424 0.00 1.38287 0.00
6 1 2 o 384.622 366.720 180.00 1.37593 0.12
3 3 3 o 214.963 206.641 0.00 1.37062 0.00
7 1 1 o 1537.621 1523.950 180.00 1.35851 0.22
5 5 1 o 24282.959 23914.836 0.00 1.35851 2.91
4 2 3 o 25.229 11.820 180.00 1.34543 0.01
6 2 2 o 669.838 649.768 0.00 1.33824 0.03
6 4 1 o 452.765 429.203 180.00 1.33398 0.15
5 4 2 o 0.548 0.714 0.00 1.32635 0.00
7 2 1 o 1034.578 1107.320 180.00 1.32220 0.32
7 3 0 o 26930.607 27925.559 180.00 1.30939 3.12
4 3 3 o 502.977 368.756 0.00 1.28809 0.14
6 3 2 o 97.024 116.446 0.00 1.28178 0.03
5 1 3 o 14886.158 15414.075 0.00 1.27748 3.12
7 3 1 o 86.087 78.710 180.00 1.26766 0.11
0 0 4 o 83880.16 87343.23 0.00 1.26537 2.28
5 2 3 o 329.145 328.409 0.00 1.24715 0.09
8 0 0 o 47300.70 47660.05 0.00 1.24651 2.38
1 1 4 o 5492.162 5445.738 180.00 1.24548 0.51
6 5 1 o 520.825 410.580 0.00 1.23801 0.15
7 1 2 o 15324.015 15301.474 0.00 1.23190 3.15
5 5 2 o 445.033 444.744 180.00 1.23190 0.02
2 0 4 o 111.785 98.483 0.00 1.22649 0.02
4 4 3 o 3515.239 3597.850 180.00 1.21888 0.20
2 1 4 o 171.138 217.246 180.00 1.21732 0.04
6 4 2 o 58.117 54.582 180.00 1.21352 0.01
8 0 1 o 1636.348 1637.091 180.00 1.21034 0.06
8 2 0 o 1052.599 1257.562 0.00 1.20929 0.15
7 2 2 o 117.470 134.207 180.00 1.20464 0.03
7 4 1 o 119.452 120.282 0.00 1.20153 0.03
8 1 1 o 45.888 46.230 180.00 1.20153 0.01
5 3 3 o 4919.867 4918.749 180.00 1.20107 0.80
2 2 4 o 281.515 261.026 0.00 1.19099 0.01
6 0 3 o 606.118 708.923 180.00 1.18401 0.09
8 2 1 o 434.637 499.780 0.00 1.17619 0.07
6 1 3 o 19.982 23.896 180.00 1.17575 0.01
6 6 0 o 978.805 994.318 0.00 1.17522 0.01
3 1 4 o 3438.998 3524.367 0.00 1.17436 0.49
7 3 2 o 11354.044 11339.195 180.00 1.16295 2.08
7 5 0 o 6001.471 5771.846 0.00 1.15923 0.51
6 2 3 o 49695.49 48792.02 180.00 1.15198 9.57
3 2 4 o 25.959 24.652 180.00 1.15066 0.01
6 6 1 o 43032.58 41855.72 180.00 1.14477 4.10
5 4 3 o 6.907 6.523 0.00 1.14437 0.00
6 5 2 o 14.576 13.601 0.00 1.13993 0.01
8 3 1 o 1.008 1.565 180.00 1.13730 0.00
7 5 1 o 2900.048 2886.676 180.00 1.12997 0.41
4 0 4 o 54927.17 55378.39 0.00 1.12835 5.28
4 1 4 o 17.853 16.271 0.00 1.12119 0.01
8 0 2 o 51444.89 51779.98 0.00 1.11822 4.98
6 3 3 o 249.040 247.698 0.00 1.11537 0.06
8 4 0 o 34972.336 34949.238 0.00 1.11491 3.18
3 3 4 o 10136.385 10136.109 180.00 1.11417 0.92
7 4 2 o 5.470 5.365 180.00 1.11126 0.00
8 1 2 o 4.725 4.614 0.00 1.11126 0.00
9 1 0 o -196.832 116.132 0.00 1.10123 0.02
4 2 4 o 1.055 54.891 0.00 1.10052 0.01
8 2 2 o 744.953 823.540 0.00 1.09112 0.20
8 4 1 o 3601.542 3674.818 180.00 1.08881 0.41
7 1 3 o 462.570 459.671 180.00 1.08204 0.03
5 5 3 o 11890.643 11664.618 0.00 1.08204 1.10
9 1 1 o 12918.998 12363.310 0.00 1.07606 2.45
6 4 3 o 190.229 143.475 180.00 1.06952 0.06
4 3 4 o 0.556 0.505 180.00 1.06847 0.00
6 6 2 o 5160.033 4902.972 0.00 1.06590 0.36
7 2 3 o 96.459 107.232 0.00 1.06342 0.03
5 1 4 o 500.045 523.213 180.00 1.06239 0.03
8 3 2 o 0.350 0.352 180.00 1.05986 0.00
7 6 1 o 8.764 6.000 0.00 1.05774 0.00
9 2 1 o 111.975 79.806 180.00 1.05774 0.03
7 5 2 o 5824.156 5819.915 0.00 1.05392 0.98
9 3 0 o 2109.960 2311.093 0.00 1.05115 0.14
5 2 4 o 31.913 58.725 180.00 1.04475 0.01
8 5 1 o 11.490 17.740 0.00 1.03471 0.00
7 3 3 o -15.121 4.377 0.00 1.03442 0.01
9 3 1 o 6133.497 6134.846 180.00 1.02919 1.04
4 4 4 o 35033.059 34076.484 0.00 1.02796 3.26
8 4 2 o 30978.805 30472.914 0.00 1.02029 5.79
6 5 3 o 68.717 70.364 180.00 1.01812 0.02
5 3 4 o 3930.535 3925.897 0.00 1.01721 0.67
0 0 5 o 632.036 627.545 180.00 1.01230 0.00
9 1 2 o 241.637 244.124 180.00 1.00977 0.01
7 7 0 o 14552.233 14787.374 180.00 1.00733 0.72
6 0 4 o 76.625 77.092 180.00 1.00679 0.00
8 0 3 o 3387.856 3380.137 180.00 1.00256 0.22
1 1 5 o 4739.568 4735.284 0.00 1.00203 0.41
6 1 4 o 1.673 1.669 180.00 1.00169 0.00
7 4 3 o 164.524 161.504 180.00 0.99753 0.04
8 1 3 o 231.319 227.253 0.00 0.99753 0.06
8 6 0 o 47.305 47.971 0.00 0.99721 0.01
10 0 0 o 2085.493 2101.128 180.00 0.99721 0.11
7 6 2 o 116.016 110.989 0.00 0.99459 0.03
9 2 2 o 35.536 33.834 180.00 0.99459 0.01
9 4 1 o 508.305 559.232 0.00 0.99284 0.14
2 0 5 o 32.689 34.414 180.00 0.99206 0.01
7 7 1 o 371.830 449.100 180.00 0.98795 0.09
2 1 5 o 253.609 260.874 180.00 0.98719 0.07
6 2 4 o 2371.359 2360.201 0.00 0.98687 0.27
8 2 3 o 426.252 392.263 0.00 0.98289 0.08
5 4 4 o 1.423 1.441 0.00 0.98207 0.00
8 6 1 o 69.804 71.235 0.00 0.97840 0.01
10 0 1 o 1274.423 1338.139 180.00 0.97840 0.18
10 2 0 o 2880.921 2922.808 0.00 0.97784 0.17
8 5 2 o 3.446 3.481 180.00 0.97537 0.00
10 1 1 o 179.915 174.141 0.00 0.97372 0.05
2 2 5 o 34989.996 34633.707 180.00 0.97299 3.50
9 3 2 o 733.527 720.539 0.00 0.97074 0.07
9 5 0 o 177.669 170.966 0.00 0.96857 0.06
6 6 3 o 27546.367 27141.934 180.00 0.96433 2.77
3 1 5 o 1356.925 1341.410 180.00 0.96385 0.18
6 3 4 o 180.780 178.139 180.00 0.96356 0.05
10 2 1 o 23232.902 23312.861 180.00 0.96009 4.60
8 3 3 o 92.985 92.577 0.00 0.95985 0.02
7 5 3 o 2935.674 2964.774 180.00 0.95544 0.50
9 5 1 o 10414.165 10310.970 0.00 0.95131 2.19
3 2 5 o 3.702 3.559 0.00 0.95062 0.00
7 1 4 o 5039.534 4985.554 0.00 0.94183 0.97
5 5 4 o 220.373 211.434 0.00 0.94183 0.08
9 4 2 o 0.352 0.338 0.00 0.94006 0.00
10 3 1 o 41.796 40.323 0.00 0.93858 0.01
4 0 5 o 774.302 776.212 180.00 0.93793 0.02
7 7 2 o 9718.782 9707.033 180.00 0.93591 1.06
4 1 5 o 354.305 445.187 0.00 0.93380 0.10
6 4 4 o -0.296 0.537 180.00 0.93354 0.00
8 4 3 o 1005.268 917.561 180.00 0.93016 0.09
3 3 5 o 304.799 283.051 0.00 0.92974 0.01
7 2 4 o 42.923 33.826 0.00 0.92947 0.01
10 0 2 o 459.455 445.698 180.00 0.92778 0.04
8 6 2 o 225.398 211.516 0.00 0.92778 0.09
10 4 0 o 380.671 427.453 180.00 0.92588 0.03
10 1 2 o 1.105 1.577 0.00 0.92379 0.00
8 7 1 o 99.264 95.727 0.00 0.92238 0.03
9 1 3 o 6848.284 6555.041 0.00 0.92218 1.51
4 2 5 o 1.298 1.099 0.00 0.92176 0.00
10 2 2 o 1570.626 1644.238 0.00 0.91212 0.16
10 4 1 o 488.309 559.930 180.00 0.91077 0.17
9 2 3 o 2.005 2.228 0.00 0.91057 0.00
7 6 3 o 11.806 13.527 0.00 0.91057 0.01
7 3 4 o 8787.602 8812.136 180.00 0.90992 2.13
9 6 1 o 201.704 108.816 0.00 0.90699 0.07
9 5 2 o 372.346 354.243 0.00 0.90458 0.23
11 1 0 o 8216.176 8557.447 0.00 0.90283 1.03
4 3 5 o 3.043 3.384 180.00 0.90268 0.00
5 1 5 o 5127.971 5150.405 0.00 0.89900 1.21
6 5 4 o 128.503 128.059 180.00 0.89876 0.04
8 5 3 o 0.162 0.018 0.00 0.89575 0.00
10 3 2 o 141.326 148.637 180.00 0.89362 0.05
9 3 3 o 4978.202 4963.970 180.00 0.89216 1.22
