#------------------------------------------------------------------------------
#$Date: 2021-06-21 10:56:04 +0300 (Mon, 21 Jun 2021) $
#$Revision: 266594 $
#$URL: file:///home/coder/svn-repositories/cod/cif/1/56/36/1563623.cif $
#------------------------------------------------------------------------------
#
# This file is available in the Crystallography Open Database (COD),
# http://www.crystallography.net/
#
# All data on this site have been placed in the public domain by the
# contributors.
#
data_1563623
loop_
_publ_author_name
'Zubkov, Vladimir G.'
'Tarakina, Nadezda V.'
'Leonidov, Ivan I.'
'Tyutyunnik, Alexander P.'
'Surat, Ludmila L.'
'Melkozerova, Marina A.'
'Zabolotskaya, Elena V.'
'Kellerman, Dina G.'
_publ_section_title
;
 Synthesis and crystal structure of Ln2M2+Ge4O12, Ln=rare-earth element or
 Y; M=Ca, Mn, Zn
;
_journal_issue                   5
_journal_name_full               'Journal of Solid State Chemistry'
_journal_page_first              1186
_journal_page_last               1193
_journal_paper_doi               10.1016/j.jssc.2010.03.027
_journal_volume                  183
_journal_year                    2010
_chemical_formula_sum            'Dy2 Ge4 Mn O12'
_chemical_formula_weight         862.29
_space_group_IT_number           125
_space_group_name_Hall           '-P 4a 2b'
_space_group_name_H-M_alt        'P 4/n b m :2'
_symmetry_cell_setting           tetragonal
_symmetry_space_group_name_H-M   'P 4/n b m :2'
_cell_angle_alpha                90.0
_cell_angle_beta                 90.0
_cell_angle_gamma                90.0
_cell_formula_units_Z            2
_cell_length_a                   9.92087(10)
_cell_length_b                   9.92087
_cell_length_c                   4.98655(7)
_cell_volume                     490.795(8)
_computing_structure_refinement  GSAS
_diffrn_radiation_polarisn_ratio 0.8
_diffrn_radiation_probe          x-ray
_diffrn_radiation_wavelength     1.54056
_exptl_absorpt_correction_T_max  13.69339
_exptl_absorpt_correction_T_min  3.46312
_exptl_absorpt_process_details
;   GSAS Absorption/surface roughness correction: function number 4
 Flat plate transmission absorption correction
Terms =    -0.80138         0.0000    
Correction is refined.
;
_pd_calc_method                  'Rietveld Refinement'
_pd_instr_location               ' ?'
_pd_meas_2theta_range_inc        0.02
_pd_meas_2theta_range_max        119.98
_pd_meas_2theta_range_min        5.0
_pd_meas_number_of_points        5750
_pd_proc_2theta_range_inc        0.02
_pd_proc_2theta_range_max        119.93658
_pd_proc_2theta_range_min        4.95658
_pd_proc_info_datetime           2010-02-27T11:59:29
_pd_proc_info_excluded_regions   ' ?'
_pd_proc_ls_background_function
;   GSAS Background function number 1 with 36 terms.
 Shifted Chebyshev function of 1st kind
      1:    3810.92     2:   -1327.00     3:    712.523     4:   -438.783    
      5:    85.6618     6:    24.5440     7:   -37.6369     8:    26.5699    
      9:    2.07754    10:   -13.8320    11:    23.2520    12:   -1.85608    
     13:   -14.0681    14:    10.6833    15:   -11.8603    16:   -5.94656    
     17:    24.0799    18:   -12.8522    19:   -4.98703    20:    8.34783    
     21:   -24.2404    22:    29.0259    23:   -17.6821    24:    2.66075    
     25:  -0.752872    26:   -12.5177    27:    9.97974    28:   -16.3326    
     29:    5.07621    30:    10.5100    31:   -14.6556    32:    13.2731    
     33:   -5.48936    34:   -2.51771    35:    5.42023    36:   -7.94811    
;
_pd_proc_ls_peak_cutoff          0.00100
_pd_proc_ls_profile_function
;
 CW Profile function number 2 with  18 terms
 Profile coefficients for Simpson's rule integration of pseudovoigt function
 C.J. Howard (1982). J. Appl. Cryst.,15,615-620.
 P. Thompson, D.E. Cox & J.B. Hastings (1987). J. Appl. Cryst.,20,79-83.
 #1(GU)   =   23.479 #2(GV)   =  -14.900 #3(GW)   =   19.700
 #4(LX)   =    3.322 #5(LY)   =    7.675 #6(trns) =    0.000
 #7(asym) =   1.4201 #8(shft) =   0.0000 #9(GP)   =    0.000
 #10(stec)=     0.00 #11(ptec)=     0.00 #12(sfec)=     0.00
 #13(L11) =    0.000 #14(L22) =    0.000 #15(L33) =    0.000
 #16(L12) =    0.000 #17(L13) =    0.000 #18(L23) =    0.000
 Peak tails are ignored  where the intensity is below 0.0010 times the peak
   Aniso. broadening axis   0.0   0.0   1.0
;
_pd_proc_ls_prof_R_factor        0.0154
_pd_proc_ls_prof_wR_expected     0.0162
_pd_proc_ls_prof_wR_factor       0.0228
_pd_proc_number_of_points        5750
_pd_spec_mounting                ' ?'
_refine_ls_goodness_of_fit_all   1.47
_refine_ls_matrix_type           full
_refine_ls_number_parameters     54
_refine_ls_number_restraints     0
_refine_ls_R_Fsqd_factor         0.03127
_refine_ls_shift/su_max          0.01
_refine_ls_shift/su_mean         0.00
_reflns_d_resolution_high        0.891
_reflns_d_resolution_low         7.015
_reflns_limit_h_max              11
_reflns_limit_h_min              0
_reflns_limit_k_max              8
_reflns_limit_k_min              0
_reflns_limit_l_max              5
_reflns_limit_l_min              0
_reflns_number_total             204
_cod_data_source_file            DY2MNGE4O12.cif
_cod_data_source_block           DY2MNGE4O12_publ
_cod_depositor_comments
;
The following automatic conversions were performed:

data item '_geom_angle_publ_flag' value 'N' was changed to 'n' in
accordance with the built-in table derived from the CIF Core
dictionary named 'cif_core.dic' version 2.4.5 last updated on
2014-11-21 (115 times).

data item '_geom_bond_publ_flag' value 'N' was changed to 'n' in
accordance with the built-in table derived from the CIF Core
dictionary named 'cif_core.dic' version 2.4.5 last updated on
2014-11-21 (50 times).

Automatic conversion script
Id: cif_fix_values 8369 2020-08-20 11:38:08Z andrius 
;
_cod_original_cell_volume        490.794(14)
_cod_original_sg_symbol_H-M      'P 4/n b m'
_cod_original_formula_sum        'Dy2.00 Ge4 Mn1.00 O12'
_cod_database_code               1563623
_gsas_exptl_extinct_corr_t_min   1.00000
_gsas_exptl_extinct_corr_t_max   1.00000
loop_
_symmetry_equiv_pos_site_id
_symmetry_equiv_pos_as_xyz
1 +x,+y,+z
2 -y+1/2,+x,+z
3 -x+1/2,-y+1/2,+z
4 +y,-x+1/2,+z
5 -x,+y+1/2,+z
6 -y,-x,+z
7 +x+1/2,-y,+z
8 +y+1/2,+x+1/2,+z
-1 -x,-y,-z
-2 +y+1/2,-x,-z
-3 +x+1/2,+y+1/2,-z
-4 -y,+x+1/2,-z
-5 +x,-y+1/2,-z
-6 +y,+x,-z
-7 -x+1/2,+y,-z
-8 -y+1/2,-x+1/2,-z
loop_
_atom_site_type_symbol
_atom_site_label
_atom_site_fract_x
_atom_site_fract_y
_atom_site_fract_z
_atom_site_occupancy
_atom_site_thermal_displace_type
_atom_site_U_iso_or_equiv
_atom_site_symmetry_multiplicity
Mn Mn 0.0 0.0 0.5 0.5 Uiso 0.0417(14) 4
Dy Dy1 0.0 0.0 0.5 0.5 Uiso 0.0417(14) 4
Dy Dy2 0.25 0.25 0.5 1.0 Uiso 0.0375(16) 2
Ge GE 0.97798(18) 0.25 0.0 1.0 Uiso 0.0359(14) 8
O O1 0.1316(6) 0.8684(6) 0.8421(16) 1.0 Uiso 0.0137(29) 8
O O2 0.1698(7) 0.0624(6) 0.2541(13) 1.0 Uiso 0.0243(24) 16
loop_
_atom_type_symbol
_atom_type_number_in_cell
_atom_type_scat_dispersion_real
_atom_type_scat_dispersion_imag
_atom_type_scat_Cromer_Mann_a1
_atom_type_scat_Cromer_Mann_a2
_atom_type_scat_Cromer_Mann_a3
_atom_type_scat_Cromer_Mann_a4
_atom_type_scat_Cromer_Mann_b1
_atom_type_scat_Cromer_Mann_b2
_atom_type_scat_Cromer_Mann_b3
_atom_type_scat_Cromer_Mann_b4
_atom_type_scat_Cromer_Mann_c
_atom_type_scat_source
Mn 2.0 0.000 0.000 11.2819 5.34090 7.35730 0.34320 3.01930 17.8674 2.24410
83.7543 1.08960 International_Tables_Vol_C
Dy 4.0 0.000 0.000 26.5070 2.18020 17.6383 0.20217 14.5596 12.1899 2.96577
111.874 4.29728 International_Tables_Vol_C
Ge 8.0 0.000 0.000 16.0816 2.85090 6.37470 0.25160 3.70680 11.4468 3.68300
54.7625 2.13130 International_Tables_Vol_C
O 24.0 0.000 0.000 3.04850 13.2771 2.28680 5.70110 1.54630 0.32390 0.86700
32.9089 0.25080 International_Tables_Vol_C
loop_
_geom_angle_atom_site_label_1
_geom_angle_atom_site_label_2
_geom_angle_atom_site_label_3
_geom_angle
_geom_angle_site_symmetry_1
_geom_angle_site_symmetry_2
_geom_angle_site_symmetry_3
_geom_angle_publ_flag
O2 Mn O2 97.06(30) 1_555 . 6_555 n
O2 Mn O2 180.0 1_555 . -1_556 n
O2 Mn O2 82.94(30) 1_555 . -6_556 n
O2 Mn O2 82.94(30) 6_555 . -1_556 n
O2 Mn O2 180.0 6_555 . -6_556 n
O2 Mn O2 97.06(30) -1_556 . -6_556 n
Dy2 Dy1 Dy2 180.0 1_555 . 5_545 n
Dy2 Dy1 O1 89.9992 1_555 . 1_545 n
Dy2 Dy1 O1 90.0008 1_555 . -1_566 n
Dy2 Dy1 O2 41.47(15) 1_555 . 1_555 n
Dy2 Dy1 O2 138.53(15) 1_555 . 6_555 n
Dy2 Dy1 O2 138.53(15) 1_555 . -1_556 n
Dy2 Dy1 O2 41.47(15) 1_555 . -6_556 n
Dy2 Dy1 O1 90.0008 5_545 . 1_545 n
Dy2 Dy1 O1 89.9992 5_545 . -1_566 n
Dy2 Dy1 O2 138.53(15) 5_545 . 1_555 n
Dy2 Dy1 O2 41.47(15) 5_545 . 6_555 n
Dy2 Dy1 O2 41.47(15) 5_545 . -1_556 n
Dy2 Dy1 O2 138.53(15) 5_545 . -6_556 n
O1 Dy1 O1 180.0 1_545 . -1_566 n
O1 Dy1 O2 97.37(22) 1_545 . 1_555 n
O1 Dy1 O2 97.37(22) 1_545 . 6_555 n
O1 Dy1 O2 82.63(22) 1_545 . -1_556 n
O1 Dy1 O2 82.63(22) 1_545 . -6_556 n
O1 Dy1 O2 82.63(22) -1_566 . 1_555 n
O1 Dy1 O2 82.63(22) -1_566 . 6_555 n
O1 Dy1 O2 97.37(22) -1_566 . -1_556 n
O1 Dy1 O2 97.37(22) -1_566 . -6_556 n
O2 Dy1 O2 97.06(30) 1_555 . 6_555 n
O2 Dy1 O2 180.0 1_555 . -1_556 n
O2 Dy1 O2 82.94(30) 1_555 . -6_556 n
O2 Dy1 O2 82.94(30) 6_555 . -1_556 n
O2 Dy1 O2 180.0 6_555 . -6_556 n
O2 Dy1 O2 97.06(30) -1_556 . -6_556 n
Dy1 Dy2 Dy1 90.0 1_555 . 2_555 n
Dy1 Dy2 Dy1 180.0 1_555 . 3_555 n
Dy1 Dy2 Dy1 90.0 1_555 . 4_555 n
Dy1 Dy2 O2 37.45(17) 1_555 . 1_555 n
Dy1 Dy2 O2 108.56(13) 1_555 . 2_555 n
Dy1 Dy2 O2 142.55(17) 1_555 . 3_555 n
Dy1 Dy2 O2 71.44(13) 1_555 . 4_555 n
Dy1 Dy2 O2 108.56(13) 1_555 . -5_456 n
Dy1 Dy2 O2 37.45(17) 1_555 . -6_556 n
Dy1 Dy2 O2 71.44(13) 1_555 . -7_546 n
Dy1 Dy2 O2 142.55(17) 1_555 . -8_556 n
Dy1 Dy2 Dy1 90.0 2_555 . 3_555 n
Dy1 Dy2 Dy1 180.0 2_555 . 4_555 n
Dy1 Dy2 O2 71.44(13) 2_555 . 1_555 n
Dy1 Dy2 O2 37.45(17) 2_555 . 2_555 n
Dy1 Dy2 O2 108.56(13) 2_555 . 3_555 n
Dy1 Dy2 O2 142.55(17) 2_555 . 4_555 n
Dy1 Dy2 O2 142.55(17) 2_555 . -5_456 n
Dy1 Dy2 O2 108.56(13) 2_555 . -6_556 n
Dy1 Dy2 O2 37.45(17) 2_555 . -7_546 n
Dy1 Dy2 O2 71.44(13) 2_555 . -8_556 n
Dy1 Dy2 Dy1 90.0 3_555 . 4_555 n
Dy1 Dy2 O2 142.55(17) 3_555 . 1_555 n
Dy1 Dy2 O2 71.44(13) 3_555 . 2_555 n
Dy1 Dy2 O2 37.45(17) 3_555 . 3_555 n
Dy1 Dy2 O2 108.56(13) 3_555 . 4_555 n
Dy1 Dy2 O2 71.44(13) 3_555 . -5_456 n
Dy1 Dy2 O2 142.55(17) 3_555 . -6_556 n
Dy1 Dy2 O2 108.56(13) 3_555 . -7_546 n
Dy1 Dy2 O2 37.45(17) 3_555 . -8_556 n
Dy1 Dy2 O2 108.56(13) 4_555 . 1_555 n
Dy1 Dy2 O2 142.55(17) 4_555 . 2_555 n
Dy1 Dy2 O2 71.44(13) 4_555 . 3_555 n
Dy1 Dy2 O2 37.45(17) 4_555 . 4_555 n
Dy1 Dy2 O2 37.45(17) 4_555 . -5_456 n
Dy1 Dy2 O2 71.44(13) 4_555 . -6_556 n
Dy1 Dy2 O2 142.55(17) 4_555 . -7_546 n
Dy1 Dy2 O2 108.56(13) 4_555 . -8_556 n
O2 Dy2 O2 74.43(15) 1_555 . 2_555 n
O2 Dy2 O2 117.59(33) 1_555 . 3_555 n
O2 Dy2 O2 74.43(15) 1_555 . 4_555 n
O2 Dy2 O2 140.70(29) 1_555 . -5_456 n
O2 Dy2 O2 74.90(34) 1_555 . -6_556 n
O2 Dy2 O2 76.29(28) 1_555 . -7_546 n
O2 Dy2 O2 142.87(26) 1_555 . -8_556 n
O2 Dy2 O2 74.43(15) 2_555 . 3_555 n
O2 Dy2 O2 117.59(33) 2_555 . 4_555 n
O2 Dy2 O2 142.87(26) 2_555 . -5_456 n
O2 Dy2 O2 140.70(29) 2_555 . -6_556 n
O2 Dy2 O2 74.90(34) 2_555 . -7_546 n
O2 Dy2 O2 76.29(28) 2_555 . -8_556 n
O2 Dy2 O2 74.43(15) 3_555 . 4_555 n
O2 Dy2 O2 76.29(28) 3_555 . -5_456 n
O2 Dy2 O2 142.87(26) 3_555 . -6_556 n
O2 Dy2 O2 140.70(29) 3_555 . -7_546 n
O2 Dy2 O2 74.90(34) 3_555 . -8_556 n
O2 Dy2 O2 74.90(34) 4_555 . -5_456 n
O2 Dy2 O2 76.29(28) 4_555 . -6_556 n
O2 Dy2 O2 142.87(26) 4_555 . -7_546 n
O2 Dy2 O2 140.70(29) 4_555 . -8_556 n
O2 Dy2 O2 74.43(15) -5_456 . -6_556 n
O2 Dy2 O2 117.59(33) -5_456 . -7_546 n
O2 Dy2 O2 74.43(15) -5_456 . -8_556 n
O2 Dy2 O2 74.43(15) -6_556 . -7_546 n
O2 Dy2 O2 117.59(33) -6_556 . -8_556 n
O2 Dy2 O2 74.43(15) -7_546 . -8_556 n
O1 GE O1 104.9(6) 4_554 . -1_666 n
O1 GE O2 108.5(4) 4_554 . 4_655 n
O1 GE O2 106.08(34) 4_554 . -6_655 n
O1 GE O2 106.09(34) -1_666 . 4_655 n
O1 GE O2 108.5(4) -1_666 . -6_655 n
O2 GE O2 121.5(5) 4_655 . -6_655 n
Dy1 O1 GE 108.98(28) 1_565 . 2_556 n
Dy1 O1 GE 108.98(28) 1_565 . 5_656 n
GE O1 GE 127.4(5) 2_556 . 5_656 n
Mn O2 Dy1 0.0 1_555 . 1_555 n
Mn O2 Dy2 101.08(23) 1_555 . 1_555 n
Mn O2 GE 129.6(4) 1_555 . 2_545 n
Dy1 O2 Dy2 101.08(23) 1_555 . 1_555 n
Dy1 O2 GE 129.6(4) 1_555 . 2_545 n
Dy2 O2 GE 127.6(4) 1_555 . 2_545 n
loop_
_geom_bond_atom_site_label_1
_geom_bond_atom_site_label_2
_geom_bond_distance
_geom_bond_site_symmetry_1
_geom_bond_site_symmetry_2
_geom_bond_publ_flag
Mn O1 2.514(8) . 1_545 n
Mn O1 2.514(8) . -1_566 n
Mn O2 2.173(7) . 1_555 n
Mn O2 2.173(7) . 6_555 n
Mn O2 2.173(7) . -1_556 n
Mn O2 2.173(7) . -6_556 n
Dy1 Dy2 3.50756(4) . 1_555 n
Dy1 Dy2 3.50756(4) . 5_545 n
Dy1 GE 3.52358(12) . 1_455 n
Dy1 GE 3.52358(12) . 1_456 n
Dy1 GE 3.52358(12) . 2_545 n
Dy1 GE 3.52358(12) . 2_546 n
Dy1 GE 3.52358(12) . 5_645 n
Dy1 GE 3.52358(12) . 5_646 n
Dy1 GE 3.52358(12) . 6_565 n
Dy1 GE 3.52358(12) . 6_566 n
Dy1 O1 2.514(8) . 1_545 n
Dy1 O1 2.514(8) . -1_566 n
Dy1 O2 2.173(7) . 1_555 n
Dy1 O2 2.173(7) . 6_555 n
Dy1 O2 2.173(7) . -1_556 n
Dy1 O2 2.173(7) . -6_556 n
Dy2 Dy1 3.50756(4) . 1_555 n
Dy2 Dy1 3.50756(4) . 2_555 n
Dy2 Dy1 3.50756(4) . 3_555 n
Dy2 Dy1 3.50756(4) . 4_555 n
Dy2 O2 2.367(6) . 1_555 n
Dy2 O2 2.367(6) . 2_555 n
Dy2 O2 2.367(6) . 3_555 n
Dy2 O2 2.367(6) . 4_555 n
Dy2 O2 2.367(6) . -5_556 n
Dy2 O2 2.367(6) . -6_556 n
Dy2 O2 2.367(6) . -7_556 n
Dy2 O2 2.367(6) . -8_556 n
GE Dy1 3.52358(12) . 1_654 n
GE Dy1 3.52358(12) . 1_655 n
GE Dy1 3.52358(12) . 4_654 n
GE Dy1 3.52358(12) . 4_655 n
GE O1 1.784(4) . 4_554 n
GE O1 1.784(4) . -1_666 n
GE O2 1.715(6) . 4_655 n
GE O2 1.715(6) . -6_655 n
O1 Mn 2.514(8) . 1_565 n
O1 Dy1 2.514(8) . 1_565 n
O1 GE 1.784(4) . 2_556 n
O1 GE 1.784(4) . 5_656 n
O2 Mn 2.173(7) . 1_555 n
O2 Dy1 2.173(7) . 1_555 n
O2 Dy2 2.367(6) . 1_555 n
O2 GE 1.715(6) . 2_545 n
loop_
_pd_meas_counts_total
_pd_proc_ls_weight
_pd_proc_intensity_bkg_calc
_pd_calc_intensity_total
6278.0 0.0001593 6261.58887 6261.58984
6075.0 0.0001646 6266.17432 6266.17480
6321.0 0.0001582 6270.43848 6270.43896
6401.0 0.0001562 6274.38232 6274.38281
6317.0 0.0001583 6278.00781 6278.00830
6247.0 0.0001601 6281.31787 6281.31787
6226.0 0.0001606 6284.31543 6284.31543
6247.0 0.0001601 6287.00391 6287.00391
6358.0 0.0001573 6289.38818 6289.38818
6265.0 0.0001596 6291.47266 6291.47266
6327.0 0.0001581 6293.26270 6293.26270
6372.0 0.0001569 6294.76465 6294.76416
6188.0 0.0001616 6295.98340 6295.98340
6446.0 0.0001551 6296.92627 6296.92578
6316.0 0.0001583 6297.59961 6297.59912
6300.0 0.0001587 6298.00977 6298.00928
6245.0 0.0001601 6298.16406 6298.16406
6308.0 0.0001585 6298.07031 6298.06982
6383.0 0.0001567 6297.73535 6297.73486
6223.0 0.0001607 6297.16699 6297.16650
6333.0 0.0001579 6296.37256 6296.37207
6251.0 0.0001600 6295.36035 6295.35986
6173.0 0.0001620 6294.13721 6294.13672
6354.0 0.0001574 6292.71191 6292.71143
6203.0 0.0001612 6291.09131 6291.09082
6327.0 0.0001581 6289.28369 6289.28369
6406.0 0.0001561 6287.29736 6287.29688
6333.0 0.0001579 6285.13867 6285.13867
6259.0 0.0001598 6282.81641 6282.81641
6343.0 0.0001577 6280.33789 6280.33740
6240.0 0.0001603 6277.70996 6277.70996
6254.0 0.0001599 6274.94092 6274.94092
6206.0 0.0001611 6272.03760 6272.03711
6410.0 0.0001560 6269.00732 6269.00684
6196.0 0.0001614 6265.85645 6265.85645
6370.0 0.0001570 6262.59326 6262.59326
6091.0 0.0001642 6259.22314 6259.22314
6364.0 0.0001571 6255.75342 6255.75342
6192.0 0.0001615 6252.19092 6252.19092
6133.0 0.0001631 6248.54102 6248.54102
6302.0 0.0001587 6244.81104 6244.81104
6314.0 0.0001584 6241.00537 6241.00537
6198.0 0.0001613 6237.13135 6237.13135
6239.0 0.0001603 6233.19385 6233.19385
6137.0 0.0001629 6229.19873 6229.19873
6222.0 0.0001607 6225.15088 6225.15088
6249.0 0.0001600 6221.05518 6221.05566
6231.0 0.0001605 6216.91797 6216.91797
6282.0 0.0001592 6212.74219 6212.74268
6130.0 0.0001631 6208.53369 6208.53369
6211.0 0.0001610 6204.29688 6204.29688
6132.0 0.0001631 6200.03516 6200.03516
6179.0 0.0001618 6195.75342 6195.75342
6142.0 0.0001628 6191.45508 6191.45508
6207.0 0.0001611 6187.14355 6187.14404
6259.0 0.0001598 6182.82373 6182.82373
6177.0 0.0001619 6178.49756 6178.49805
6159.0 0.0001624 6174.16943 6174.16943
6111.0 0.0001636 6169.84131 6169.84131
6263.0 0.0001597 6165.51709 6165.51709
6158.0 0.0001624 6161.19873 6161.19873
6126.0 0.0001632 6156.88916 6156.88965
6120.0 0.0001634 6152.59131 6152.59131
6227.0 0.0001606 6148.30664 6148.30713
6117.0 0.0001635 6144.03809 6144.03809
6018.0 0.0001662 6139.78711 6139.78711
6071.0 0.0001647 6135.55566 6135.55615
6117.0 0.0001635 6131.34619 6131.34619
6319.0 0.0001583 6127.15918 6127.15967
6239.0 0.0001603 6122.99756 6122.99756
6039.0 0.0001656 6118.86133 6118.86133
6127.0 0.0001632 6114.75244 6114.75244
6160.0 0.0001623 6110.67188 6110.67188
6156.0 0.0001624 6106.62061 6106.62061
6078.0 0.0001645 6102.60010 6102.60010
6050.0 0.0001653 6098.61035 6098.61035
6008.0 0.0001664 6094.65332 6094.65332
6054.0 0.0001652 6090.72803 6090.72852
6136.0 0.0001630 6086.83643 6086.83643
6094.0 0.0001641 6082.97852 6082.97852
6066.0 0.0001649 6079.15430 6079.15479
6073.0 0.0001647 6075.36475 6075.36475
6054.0 0.0001652 6071.60986 6071.60986
6196.0 0.0001614 6067.88965 6067.88965
6074.0 0.0001646 6064.20410 6064.20410
5831.0 0.0001715 6060.55371 6060.55371
6007.0 0.0001665 6056.93799 6056.93799
6009.0 0.0001664 6053.35693 6053.35693
5993.0 0.0001669 6049.81055 6049.81055
6117.0 0.0001635 6046.29883 6046.29883
6060.0 0.0001650 6042.82080 6042.82080
6053.0 0.0001652 6039.37744 6039.37695
6119.0 0.0001634 6035.96680 6035.96680
6041.0 0.0001655 6032.58984 6032.58984
6055.0 0.0001652 6029.24561 6029.24561
5992.0 0.0001669 6025.93408 6025.93359
5999.0 0.0001667 6022.65381 6022.65381
5927.0 0.0001687 6019.40527 6019.40479
6033.0 0.0001658 6016.18750 6016.18750
5998.0 0.0001667 6013.00000 6013.00000
6097.0 0.0001640 6009.84277 6009.84229
6001.0 0.0001666 6006.71387 6006.71387
6153.0 0.0001625 6003.61426 6003.61377
6065.0 0.0001649 6000.54248 6000.54199
6013.0 0.0001663 5997.49805 5997.49756
6045.0 0.0001654 5994.48047 5994.47998
6026.0 0.0001659 5991.48828 5991.48828
5895.0 0.0001696 5988.52246 5988.52197
6076.0 0.0001646 5985.58105 5985.58057
6085.0 0.0001643 5982.66357 5982.66309
5903.0 0.0001694 5979.77002 5979.76953
6036.0 0.0001657 5976.89893 5976.89844
5950.0 0.0001681 5974.05029 5974.04980
6177.0 0.0001619 5971.22314 5971.22266
5927.0 0.0001687 5968.41650 5968.41650
5974.0 0.0001674 5965.63086 5965.63037
5925.0 0.0001688 5962.86426 5962.86426
5987.0 0.0001670 5960.11768 5960.11719
5992.0 0.0001669 5957.38867 5957.38818
5930.0 0.0001686 5954.67773 5954.67725
5811.0 0.0001721 5951.98438 5951.98389
5911.0 0.0001692 5949.30713 5949.30664
5767.0 0.0001734 5946.64648 5946.64600
5848.0 0.0001710 5944.00146 5944.00098
5900.0 0.0001695 5941.37158 5941.37109
5916.0 0.0001690 5938.75586 5938.75537
5980.0 0.0001672 5936.15430 5936.15381
6060.0 0.0001650 5933.56641 5933.56641
5999.0 0.0001667 5930.99170 5930.99170
5895.0 0.0001696 5928.43018 5928.42969
5988.0 0.0001670 5925.88037 5925.87988
6040.0 0.0001656 5923.34277 5923.34229
5944.0 0.0001682 5920.81641 5920.81592
5801.0 0.0001724 5918.30127 5918.30078
5991.0 0.0001669 5915.79688 5915.79639
5956.0 0.0001679 5913.30273 5913.30273
5867.0 0.0001704 5910.81934 5910.81885
5831.0 0.0001715 5908.34521 5908.34473
5893.0 0.0001697 5905.88037 5905.88037
5944.0 0.0001682 5903.42578 5903.42529
5990.0 0.0001669 5900.97949 5900.97900
6023.0 0.0001660 5898.54248 5898.54199
6019.0 0.0001661 5896.11377 5896.11328
5858.0 0.0001707 5893.69336 5893.69336
5842.0 0.0001712 5891.28174 5891.28174
5799.0 0.0001724 5888.87793 5888.87793
5959.0 0.0001678 5886.48242 5886.48242
5866.0 0.0001705 5884.09473 5884.09473
5916.0 0.0001690 5881.71533 5881.71484
5895.0 0.0001696 5879.34277 5879.34277
5871.0 0.0001703 5876.97852 5876.97803
5847.0 0.0001710 5874.62158 5874.62158
5836.0 0.0001714 5872.27246 5872.27246
5870.0 0.0001704 5869.93115 5869.93066
5822.0 0.0001718 5867.59717 5867.59668
5849.0 0.0001710 5865.27051 5865.27051
5919.0 0.0001689 5862.95166 5862.95166
5854.0 0.0001708 5860.64063 5860.64063
5907.0 0.0001693 5858.33740 5858.33740
5760.0 0.0001736 5856.04199 5856.04150
5940.0 0.0001684 5853.75439 5853.75439
5842.0 0.0001712 5851.47461 5851.47461
5928.0 0.0001687 5849.20264 5849.20264
5862.0 0.0001706 5846.93945 5846.93945
5863.0 0.0001706 5844.68408 5844.68408
5725.0 0.0001747 5842.43750 5842.43750
5719.0 0.0001749 5840.19922 5840.19922
5598.0 0.0001786 5837.96973 5837.96973
5889.0 0.0001698 5835.74902 5835.74902
5850.0 0.0001709 5833.53711 5833.53711
5930.0 0.0001686 5831.33447 5831.33447
5911.0 0.0001692 5829.14111 5829.14160
5789.0 0.0001727 5826.95801 5826.95801
5763.0 0.0001735 5824.78369 5824.78369
5832.0 0.0001715 5822.61963 5822.61963
5928.0 0.0001687 5820.46533 5820.46533
5920.0 0.0001689 5818.32129 5818.32129
5827.0 0.0001716 5816.18799 5816.18799
5859.0 0.0001707 5814.06494 5814.06494
5932.0 0.0001686 5811.95264 5811.95264
5829.0 0.0001716 5809.85156 5809.85156
5843.0 0.0001711 5807.76172 5807.76172
5727.0 0.0001746 5805.68311 5805.68311
5890.0 0.0001698 5803.61572 5803.61572
5700.0 0.0001754 5801.56055 5801.56055
5742.0 0.0001742 5799.51709 5799.51709
5768.0 0.0001734 5797.48584 5797.48584
5786.0 0.0001728 5795.46680 5795.46680
5728.0 0.0001746 5793.46045 5793.46045
5732.0 0.0001745 5791.46631 5791.46680
5702.0 0.0001754 5789.48535 5789.48535
5641.0 0.0001773 5787.51709 5787.51758
5653.0 0.0001769 5785.56201 5785.56250
5771.0 0.0001733 5783.62012 5783.62061
5737.0 0.0001743 5781.69189 5781.69238
5708.0 0.0001752 5779.77734 5779.77734
5799.0 0.0001724 5777.87646 5777.87646
5732.0 0.0001745 5775.98877 5775.98926
5746.0 0.0001740 5774.11572 5774.11572
5819.0 0.0001719 5772.25635 5772.25635
5818.0 0.0001719 5770.41113 5770.41113
5723.0 0.0001747 5768.58008 5768.58057
5747.0 0.0001740 5766.76367 5766.76367
5772.0 0.0001733 5764.96143 5764.96143
5840.0 0.0001712 5763.17334 5763.17383
5669.0 0.0001764 5761.40039 5761.40039
5780.0 0.0001730 5759.64160 5759.64160
5719.0 0.0001749 5757.89746 5757.89746
5683.0 0.0001760 5756.16797 5756.16797
5808.0 0.0001722 5754.45313 5754.45313
5744.0 0.0001741 5752.75244 5752.75293
5801.0 0.0001724 5751.06689 5751.06738
5742.0 0.0001742 5749.39600 5749.39600
5823.0 0.0001717 5747.73926 5747.73975
5751.0 0.0001739 5746.09766 5746.09766
5736.0 0.0001743 5744.46973 5744.47021
5585.0 0.0001791 5742.85693 5742.85693
5673.0 0.0001763 5741.25830 5741.25830
5662.0 0.0001766 5739.67383 5739.67383
5663.0 0.0001766 5738.10303 5738.10352
5710.0 0.0001751 5736.54688 5736.54736
5770.0 0.0001733 5735.00439 5735.00439
5608.0 0.0001783 5733.47559 5733.47559
5736.0 0.0001743 5731.96094 5731.96094
5692.0 0.0001757 5730.45898 5730.45898
5659.0 0.0001767 5728.97070 5728.97119
5781.0 0.0001730 5727.49561 5727.49561
5757.0 0.0001737 5726.03320 5726.03320
5876.0 0.0001702 5724.58350 5724.58398
5689.0 0.0001758 5723.14648 5723.14648
5826.0 0.0001716 5721.72168 5721.72168
5741.0 0.0001742 5720.30908 5720.30908
5804.0 0.0001723 5718.90771 5718.90771
5650.0 0.0001770 5717.51807 5717.51807
5774.0 0.0001732 5716.13965 5716.13965
5786.0 0.0001728 5714.77246 5714.77246
5715.0 0.0001750 5713.41553 5713.41553
5792.0 0.0001727 5712.06885 5712.06885
5745.0 0.0001741 5710.73242 5710.73242
5640.0 0.0001773 5709.40576 5709.40576
5666.0 0.0001765 5708.08789 5708.08789
5673.0 0.0001763 5706.77930 5706.77930
5738.0 0.0001743 5705.47949 5705.47949
5722.0 0.0001748 5704.18750 5704.18750
5669.0 0.0001764 5702.90332 5702.90332
5555.0 0.0001800 5701.62695 5701.62695
5643.0 0.0001772 5700.35742 5700.35742
5756.0 0.0001737 5699.09521 5699.09473
5793.0 0.0001726 5697.83838 5697.83838
5655.0 0.0001768 5696.58789 5696.58740
5778.0 0.0001731 5695.34229 5695.34229
5692.0 0.0001757 5694.10156 5694.10156
5829.0 0.0001716 5692.86572 5692.86572
5684.0 0.0001759 5691.63379 5691.63379
5700.0 0.0001754 5690.40527 5690.40527
5569.0 0.0001796 5689.18018 5689.17969
5589.0 0.0001789 5687.95752 5687.95703
5779.0 0.0001730 5686.73682 5686.73633
5623.0 0.0001778 5685.51758 5685.51709
5655.0 0.0001768 5684.29980 5684.29932
5760.0 0.0001736 5683.08252 5683.08203
5713.0 0.0001750 5681.86523 5681.86475
5664.0 0.0001766 5680.64746 5680.64697
5816.0 0.0001719 5679.42871 5679.42871
5808.0 0.0001722 5678.20898 5678.20850
5683.0 0.0001760 5676.98682 5676.98633
5632.0 0.0001776 5675.76270 5675.76221
5650.0 0.0001770 5674.53467 5674.53467
5735.0 0.0001744 5673.30371 5673.30371
5609.0 0.0001783 5672.06885 5672.06836
5632.0 0.0001776 5670.82861 5670.82813
5706.0 0.0001753 5669.58350 5669.58350
5596.0 0.0001787 5668.33301 5668.33252
5750.0 0.0001739 5667.07568 5667.07520
5748.0 0.0001740 5665.81152 5665.81152
5625.0 0.0001778 5664.54004 5664.54004
5747.0 0.0001740 5663.26123 5663.26074
5742.0 0.0001742 5661.97314 5661.97266
5672.0 0.0001763 5660.67627 5660.67627
5695.0 0.0001756 5659.37012 5659.36963
5740.0 0.0001742 5658.05322 5658.05273
5762.0 0.0001736 5656.72607 5656.72559
5754.0 0.0001738 5655.38770 5655.38721
5709.0 0.0001752 5654.03711 5654.03711
5720.0 0.0001748 5652.67480 5652.67432
5671.0 0.0001763 5651.29932 5651.29883
5724.0 0.0001747 5649.91016 5649.91016
5569.0 0.0001796 5648.50732 5648.50732
5741.0 0.0001742 5647.09033 5647.08984
5731.0 0.0001745 5645.65820 5645.65771
5643.0 0.0001772 5644.21045 5644.20996
5721.0 0.0001748 5642.74658 5642.74609
5653.0 0.0001769 5641.26611 5641.26563
5671.0 0.0001763 5639.76904 5639.76855
5659.0 0.0001767 5638.25391 5638.25342
5708.0 0.0001752 5636.72119 5636.72070
5623.0 0.0001778 5635.16943 5635.16895
5536.0 0.0001806 5633.59912 5633.59863
5607.0 0.0001783 5632.00879 5632.00830
5695.0 0.0001756 5630.39893 5630.39844
5623.0 0.0001778 5628.76855 5628.76807
5655.0 0.0001768 5627.11670 5627.11621
5771.0 0.0001733 5625.44385 5625.44336
5747.0 0.0001740 5623.74902 5623.74854
5649.0 0.0001770 5622.03271 5622.03223
5549.0 0.0001802 5620.29297 5620.29248
5681.0 0.0001760 5618.52979 5618.52930
5702.0 0.0001754 5616.74365 5616.74316
5609.0 0.0001783 5614.93359 5614.93311
5655.0 0.0001768 5613.09863 5613.09814
5700.0 0.0001754 5611.23975 5611.23926
5635.0 0.0001775 5609.35498 5609.35449
5635.0 0.0001775 5607.44531 5611.89063
5697.0 0.0001755 5605.50928 5610.08496
5509.0 0.0001815 5603.54785 5608.26025
5499.0 0.0001819 5601.55908 5606.41406
5542.0 0.0001804 5599.54395 5604.54785
5540.0 0.0001805 5597.50146 5602.66162
5582.0 0.0001791 5595.43115 5600.75488
5518.0 0.0001812 5593.33350 5598.82861
5557.0 0.0001800 5591.20752 5596.88232
5531.0 0.0001808 5589.05371 5594.91699
5716.0 0.0001749 5586.87061 5592.93262
5559.0 0.0001799 5584.65869 5590.92969
5639.0 0.0001773 5582.41846 5588.90820
5597.0 0.0001787 5580.14795 5586.86914
5493.0 0.0001820 5577.84814 5584.81299
5497.0 0.0001819 5575.51855 5582.74121
5805.0 0.0001723 5573.15918 5580.65332
5520.0 0.0001812 5570.77002 5578.55176
5473.0 0.0001827 5568.34961 5576.43555
5585.0 0.0001791 5565.89941 5574.30811
5535.0 0.0001807 5563.41797 5572.16895
5556.0 0.0001800 5560.90625 5570.02100
5567.0 0.0001796 5558.36377 5567.86426
5558.0 0.0001799 5555.78955 5565.70264
5494.0 0.0001820 5553.18506 5563.53662
5544.0 0.0001804 5550.54883 5561.36914
5667.0 0.0001765 5547.88135 5559.20313
5522.0 0.0001811 5545.18262 5557.04150
5537.0 0.0001806 5542.45264 5554.88721
5525.0 0.0001810 5539.69141 5552.74463
5531.0 0.0001808 5536.89795 5550.61816
5610.0 0.0001783 5534.07373 5548.51270
5711.0 0.0001751 5531.21777 5546.43311
5480.0 0.0001825 5528.33105 5544.38623
5496.0 0.0001820 5525.41211 5542.37988
5627.0 0.0001777 5522.46191 5540.42188
5340.0 0.0001873 5519.48047 5538.52197
5399.0 0.0001852 5516.46777 5536.69141
5467.0 0.0001829 5513.42432 5534.94336
5438.0 0.0001839 5510.34912 5533.29150
5538.0 0.0001806 5507.24316 5531.75488
5630.0 0.0001776 5504.10645 5530.35352
5423.0 0.0001844 5500.93896 5529.11230
5575.0 0.0001794 5497.74121 5528.06006
5447.0 0.0001836 5494.51221 5527.22998
5543.0 0.0001804 5491.25342 5526.66553
5447.0 0.0001836 5487.96484 5526.41748
5460.0 0.0001832 5484.64551 5526.54541
5431.0 0.0001841 5481.29736 5527.12695
5425.0 0.0001843 5477.91895 5528.25635
5348.0 0.0001870 5474.51172 5530.05127
5545.0 0.0001803 5471.07520 5532.66113
5594.0 0.0001788 5467.60986 5536.27881
5331.0 0.0001876 5464.11572 5541.15234
5521.0 0.0001811 5460.59375 5547.61133
5600.0 0.0001786 5457.04395 5556.10156
5718.0 0.0001749 5453.46582 5567.25586
5601.0 0.0001785 5449.86084 5582.07666
5719.0 0.0001749 5446.22852 5602.39795
5922.0 0.0001689 5442.56885 5632.06592
5890.0 0.0001698 5438.88379 5679.52393
6010.0 0.0001664 5435.17188 5762.49170
6157.0 0.0001624 5431.43457 5914.41846
6508.0 0.0001537 5427.67188 6189.81934
6923.0 0.0001444 5423.88379 6661.75098
7574.0 0.0001320 5420.07178 7401.52881
8471.0 0.0001180 5416.23486 8432.07227
9445.0 0.0001059 5412.37500 9663.00879
10623.0 0.0000941 5408.49121 10863.80273
11573.0 0.0000864 5404.58447 11706.35254
11649.0 0.0000858 5400.65527 11829.29395
11095.0 0.0000901 5396.70361 11106.15332
9798.0 0.0001021 5392.73096 9849.55078
8337.0 0.0001199 5388.73682 8510.84766
6997.0 0.0001429 5384.72168 7389.68066
6455.0 0.0001549 5380.68652 6595.37061
5979.0 0.0001673 5376.63184 6103.02930
5828.0 0.0001716 5372.55762 5826.79639
5590.0 0.0001789 5368.46436 5678.81543
5344.0 0.0001871 5364.35352 5596.96387
5382.0 0.0001858 5360.22461 5546.53760
5446.0 0.0001836 5356.07861 5511.15576
5385.0 0.0001857 5351.91553 5483.80322
5362.0 0.0001865 5347.73633 5461.45215
5370.0 0.0001862 5343.54199 5442.61035
5348.0 0.0001870 5339.33203 5426.39258
5415.0 0.0001847 5335.10791 5412.20068
5328.0 0.0001877 5330.86963 5399.60010
5267.0 0.0001899 5326.61768 5388.26660
5309.0 0.0001884 5322.35303 5377.95361
5359.0 0.0001866 5318.07617 5368.47217
5304.0 0.0001885 5313.78760 5359.67383
5341.0 0.0001872 5309.48828 5351.43994
5476.0 0.0001826 5305.17773 5343.67871
5307.0 0.0001884 5300.85791 5336.31494
5331.0 0.0001876 5296.52783 5329.28760
5243.0 0.0001907 5292.18994 5322.54736
5174.0 0.0001933 5287.84326 5316.05225
5378.0 0.0001859 5283.48975 5309.77051
5129.0 0.0001950 5279.12891 5303.67090
5179.0 0.0001931 5274.76172 5297.73242
5316.0 0.0001881 5270.38867 5291.93408
5200.0 0.0001923 5266.01074 5286.25879
5213.0 0.0001918 5261.62842 5280.69287
5319.0 0.0001880 5257.24219 5275.22363
5385.0 0.0001857 5252.85254 5269.83984
5376.0 0.0001860 5248.46045 5264.53516
5263.0 0.0001900 5244.06641 5259.29883
5127.0 0.0001950 5239.67090 5254.12598
5208.0 0.0001920 5235.27490 5249.00977
5223.0 0.0001915 5230.87891 5243.94678
5353.0 0.0001868 5226.48291 5238.93115
5060.0 0.0001976 5222.08838 5233.95996
5038.0 0.0001985 5217.69531 5229.02930
5258.0 0.0001902 5213.30518 5224.13721
5171.0 0.0001934 5208.91797 5219.28076
5130.0 0.0001949 5204.53418 5214.45703
5293.0 0.0001889 5200.15479 5209.66553
5168.0 0.0001935 5195.78027 5204.90430
5157.0 0.0001939 5191.41162 5200.17139
5148.0 0.0001943 5187.04883 5195.46631
5294.0 0.0001889 5182.69287 5190.78711
5147.0 0.0001943 5178.34473 5186.13379
5150.0 0.0001942 5174.00439 5181.50635
5135.0 0.0001947 5169.67236 5176.90186
5193.0 0.0001926 5165.35010 5172.32227
5160.0 0.0001938 5161.03711 5167.76514
5173.0 0.0001933 5156.73535 5163.23193
5089.0 0.0001965 5152.44385 5158.72119
5029.0 0.0001988 5148.16504 5154.23291
5165.0 0.0001936 5143.89746 5149.76660
4993.0 0.0002003 5139.64355 5145.32373
5075.0 0.0001970 5135.40283 5140.90332
5277.0 0.0001895 5131.17578 5136.50439
5053.0 0.0001979 5126.96387 5132.12891
5044.0 0.0001983 5122.76709 5127.77588
5240.0 0.0001908 5118.58594 5123.44531
5210.0 0.0001919 5114.42139 5119.13818
5174.0 0.0001933 5110.27344 5114.85400
5092.0 0.0001964 5106.14307 5106.14404
5006.0 0.0001998 5102.03076 5102.03174
5127.0 0.0001950 5097.93701 5097.93799
5093.0 0.0001963 5093.86230 5093.86328
5240.0 0.0001908 5089.80713 5089.80811
5078.0 0.0001969 5085.77295 5085.77393
5012.0 0.0001995 5081.75830 5081.75928
5087.0 0.0001966 5077.76563 5077.76660
5018.0 0.0001993 5073.79443 5073.79541
5110.0 0.0001957 5069.84570 5069.84668
5029.0 0.0001988 5065.91943 5065.92041
5086.0 0.0001966 5062.01660 5062.01758
5118.0 0.0001954 5058.13770 5058.13867
5067.0 0.0001974 5054.28271 5054.28369
5094.0 0.0001963 5050.45215 5050.45313
5001.0 0.0002000 5046.64746 5046.64844
5000.0 0.0002000 5042.86768 5042.86865
5063.0 0.0001975 5039.11426 5039.11523
5172.0 0.0001933 5035.38721 5035.38818
5050.0 0.0001980 5031.68701 5031.68799
5105.0 0.0001959 5028.01416 5028.01514
4947.0 0.0002021 5024.36963 5024.37061
5098.0 0.0001962 5020.75244 5020.75342
5110.0 0.0001957 5017.16406 5017.16504
5008.0 0.0001997 5013.60498 5013.60596
5138.0 0.0001946 5010.07471 5010.07568
5006.0 0.0001998 5006.57471 5006.57520
5115.0 0.0001955 5003.10449 5003.10547
5002.0 0.0001999 4999.66455 4999.66553
4927.0 0.0002030 4996.25586 4996.25684
4993.0 0.0002003 4992.87793 4992.87891
5077.0 0.0001970 4989.53174 4989.53271
5133.0 0.0001948 4986.21729 4986.21826
5085.0 0.0001967 4982.93506 4982.93555
5027.0 0.0001989 4979.68506 4979.68604
5110.0 0.0001957 4976.46777 4976.46875
5135.0 0.0001947 4973.28369 4973.28467
5020.0 0.0001992 4970.13281 4970.13330
5087.0 0.0001966 4967.01563 4967.01611
5065.0 0.0001974 4963.93164 4963.93262
5067.0 0.0001974 4960.88232 4960.88281
5195.0 0.0001925 4957.86719 4957.86768
5125.0 0.0001951 4954.88623 4954.88721
5059.0 0.0001977 4951.94043 4951.94141
4933.0 0.0002027 4949.02930 4949.03027
5056.0 0.0001978 4946.15332 4946.15430
5019.0 0.0001992 4943.31299 4943.31396
5070.0 0.0001972 4940.50830 4940.50879
5044.0 0.0001983 4937.73926 4937.73975
4887.0 0.0002046 4935.00586 4935.00635
5025.0 0.0001990 4932.30811 4932.30859
5049.0 0.0001981 4929.64697 4929.64795
5027.0 0.0001989 4927.02197 4927.02295
5052.0 0.0001979 4924.43408 4924.43457
4925.0 0.0002030 4921.88184 4921.88232
4821.0 0.0002074 4919.36670 4919.36719
4942.0 0.0002023 4916.88818 4916.88867
4967.0 0.0002013 4914.44629 4914.44678
5062.0 0.0001976 4912.04150 4912.04199
4876.0 0.0002051 4909.67383 4909.67432
4985.0 0.0002006 4907.34277 4907.34326
4978.0 0.0002009 4905.04932 4905.04932
5012.0 0.0001995 4902.79248 4902.79248
4995.0 0.0002002 4900.57275 4900.57324
4964.0 0.0002015 4898.39014 4898.39063
4973.0 0.0002011 4896.24512 4896.24561
4852.0 0.0002061 4894.13672 4894.13721
4911.0 0.0002036 4892.06592 4892.06641
4895.0 0.0002043 4890.03223 4890.03223
4890.0 0.0002045 4888.03516 4888.03516
5039.0 0.0001985 4886.07520 4886.07568
5049.0 0.0001981 4884.15234 4884.15283
4958.0 0.0002017 4882.26660 4882.26660
4831.0 0.0002070 4880.41748 4880.41748
4903.0 0.0002040 4878.60498 4878.60547
4877.0 0.0002050 4876.82959 4876.82959
4999.0 0.0002000 4875.09033 4875.09033
4951.0 0.0002020 4873.38818 4873.38818
4878.0 0.0002050 4871.72168 4871.72168
4904.0 0.0002039 4870.09180 4870.09180
4966.0 0.0002014 4868.49805 4868.49805
5025.0 0.0001990 4866.93994 4866.93994
4917.0 0.0002034 4865.41797 4865.41797
4834.0 0.0002069 4863.93164 4863.93164
4902.0 0.0002040 4862.48047 4862.48047
4793.0 0.0002086 4861.06494 4861.06494
4960.0 0.0002016 4859.68457 4859.68457
4703.0 0.0002126 4858.33887 4858.33887
4966.0 0.0002014 4857.02783 4857.02783
4820.0 0.0002075 4855.75146 4855.75146
4891.0 0.0002045 4854.50977 4854.50928
4839.0 0.0002067 4853.30127 4853.30127
4892.0 0.0002044 4852.12744 4852.12695
4876.0 0.0002051 4850.98682 4850.98633
4765.0 0.0002099 4849.87939 4849.87939
4844.0 0.0002064 4848.80518 4848.80518
4792.0 0.0002087 4847.76416 4847.76367
4958.0 0.0002017 4846.75537 4846.75488
4879.0 0.0002050 4845.77881 4845.77832
4884.0 0.0002048 4844.83398 4844.83398
4922.0 0.0002032 4843.92139 4843.92090
4781.0 0.0002092 4843.03955 4843.03906
4855.0 0.0002060 4842.18945 4842.18896
4758.0 0.0002102 4841.36963 4841.36914
4868.0 0.0002054 4840.58057 4840.58008
4804.0 0.0002082 4839.82129 4839.82080
4847.0 0.0002063 4839.09180 4839.09131
4806.0 0.0002081 4838.39160 4838.39111
4737.0 0.0002111 4837.72070 4837.72021
4833.0 0.0002069 4837.07861 4837.07813
4819.0 0.0002075 4836.46484 4836.46436
4802.0 0.0002082 4835.87891 4835.87842
4936.0 0.0002026 4835.32080 4835.31982
4915.0 0.0002035 4834.78955 4834.78906
4628.0 0.0002161 4834.28564 4834.28467
4777.0 0.0002093 4833.80811 4833.80713
4809.0 0.0002079 4833.35645 4833.35547
4809.0 0.0002079 4832.93018 4832.92969
4783.0 0.0002091 4832.52979 4832.52881
4791.0 0.0002087 4832.15381 4832.15283
4952.0 0.0002019 4831.80225 4832.04639
4795.0 0.0002086 4831.47510 4831.72559
4776.0 0.0002094 4831.17139 4831.42969
4808.0 0.0002080 4830.89063 4831.15674
4812.0 0.0002078 4830.63232 4831.56494
4782.0 0.0002091 4830.39697 4831.35742
4687.0 0.0002134 4830.18311 4831.17285
4836.0 0.0002068 4829.99072 4831.01123
4767.0 0.0002098 4829.81934 4830.87109
4797.0 0.0002085 4829.66846 4830.75391
4814.0 0.0002077 4829.53760 4830.65820
4843.0 0.0002065 4829.42627 4830.58350
4877.0 0.0002050 4829.33447 4830.53027
4971.0 0.0002012 4829.26074 4830.49707
4677.0 0.0002138 4829.20557 4830.48438
4778.0 0.0002093 4829.16797 4830.49170
4846.0 0.0002064 4829.14746 4830.51855
4792.0 0.0002087 4829.14404 4830.56543
4876.0 0.0002051 4829.15674 4830.63086
4847.0 0.0002063 4829.18555 4830.71533
4792.0 0.0002087 4829.22949 4830.81738
4772.0 0.0002096 4829.28760 4830.93896
4823.0 0.0002073 4829.36084 4831.07813
4788.0 0.0002089 4829.44775 4831.23486
4663.0 0.0002145 4829.54785 4831.41016
4723.0 0.0002117 4829.66113 4831.60254
4727.0 0.0002116 4829.78662 4831.81250
4887.0 0.0002046 4829.92383 4832.04053
4774.0 0.0002095 4830.07227 4832.28564
4721.0 0.0002118 4830.23193 4832.54883
4818.0 0.0002076 4830.40186 4832.82959
4731.0 0.0002114 4830.58154 4833.12793
4844.0 0.0002064 4830.77100 4833.44434
4844.0 0.0002064 4830.96875 4833.78027
4766.0 0.0002098 4831.17529 4834.13525
4789.0 0.0002088 4831.38965 4834.51025
4702.0 0.0002127 4831.61133 4834.90576
4796.0 0.0002085 4831.83984 4835.32373
4789.0 0.0002088 4832.07471 4835.76416
4787.0 0.0002089 4832.31543 4836.22998
4709.0 0.0002124 4832.56152 4836.72217
4785.0 0.0002090 4832.81250 4837.24268
4767.0 0.0002098 4833.06738 4837.79541
4689.0 0.0002133 4833.32666 4838.38281
4700.0 0.0002128 4833.58887 4839.00879
4696.0 0.0002129 4833.85449 4839.67871
4834.0 0.0002069 4834.12207 4840.39844
4720.0 0.0002119 4834.39160 4841.17480
4811.0 0.0002079 4834.66260 4842.01660
4761.0 0.0002100 4834.93408 4842.93408
4789.0 0.0002088 4835.20605 4843.94238
4798.0 0.0002084 4835.47803 4845.05811
4685.0 0.0002134 4835.74951 4846.30078
4765.0 0.0002099 4836.02002 4847.70020
4815.0 0.0002077 4836.28857 4849.29053
4696.0 0.0002129 4836.55518 4851.11816
4855.0 0.0002060 4836.81934 4853.24707
4700.0 0.0002128 4837.08008 4855.76953
4921.0 0.0002032 4837.33789 4858.83691
4876.0 0.0002051 4837.59131 4862.73193
4773.0 0.0002095 4837.84033 4868.04004
4760.0 0.0002101 4838.08447 4875.96631
4852.0 0.0002061 4838.32324 4888.78857
4816.0 0.0002076 4838.55664 4910.25000
4822.0 0.0002074 4838.78320 4945.42383
4904.0 0.0002039 4839.00342 4999.57129
5013.0 0.0001995 4839.21582 5075.98145
5076.0 0.0001970 4839.42090 5173.53711
5270.0 0.0001898 4839.61816 5285.78760
5431.0 0.0001841 4839.80664 5403.13770
5335.0 0.0001874 4839.98584 5519.03174
5717.0 0.0001749 4840.15576 5636.02881
5679.0 0.0001761 4840.31592 5749.42285
5793.0 0.0001726 4840.46582 5827.19531
5713.0 0.0001750 4840.60498 5820.51025
5604.0 0.0001784 4840.73291 5705.61035
5483.0 0.0001824 4840.84912 5519.15430
5230.0 0.0001912 4840.95361 5322.35693
5030.0 0.0001988 4841.04590 5156.77686
4997.0 0.0002001 4841.12500 5037.91357
4816.0 0.0002076 4841.19141 4962.83203
4872.0 0.0002053 4841.24365 4919.79102
4747.0 0.0002107 4841.28271 4896.28857
4854.0 0.0002060 4841.30664 4883.17529
4750.0 0.0002105 4841.31641 4875.16113
4693.0 0.0002131 4841.31055 4869.65918
4789.0 0.0002088 4841.28955 4865.52344
4783.0 0.0002091 4841.25293 4862.24316
4761.0 0.0002100 4841.19971 4859.56348
4822.0 0.0002074 4841.12988 4857.33057
4788.0 0.0002089 4841.04346 4855.44092
4737.0 0.0002111 4840.93945 4853.81787
4874.0 0.0002052 4840.81787 4852.40527
4849.0 0.0002062 4840.67871 4851.15918
4911.0 0.0002036 4840.52100 4850.04541
4883.0 0.0002048 4840.34473 4849.03857
4977.0 0.0002009 4840.14941 4848.11670
4879.0 0.0002050 4839.93506 4847.26270
4869.0 0.0002054 4839.70068 4846.46338
4895.0 0.0002043 4839.44678 4845.70703
4838.0 0.0002067 4839.17285 4844.98438
4894.0 0.0002043 4838.87842 4844.28809
4839.0 0.0002067 4838.56348 4843.61084
4826.0 0.0002072 4838.22705 4842.94824
4840.0 0.0002066 4837.86963 4842.29541
4793.0 0.0002086 4837.49072 4841.64697
4778.0 0.0002093 4837.08984 4841.00098
4886.0 0.0002047 4836.66650 4840.35400
4665.0 0.0002144 4836.22168 4839.70313
4727.0 0.0002116 4835.75342 4839.04639
4952.0 0.0002019 4835.26270 4838.38232
4942.0 0.0002023 4834.74902 4837.70801
4772.0 0.0002096 4834.21191 4837.02295
4781.0 0.0002092 4833.65137 4836.32520
4851.0 0.0002061 4833.06738 4835.61377
4958.0 0.0002017 4832.45898 4834.88623
4877.0 0.0002050 4831.82666 4834.14355
4909.0 0.0002037 4831.16992 4833.38330
4842.0 0.0002065 4830.48828 4832.60498
4794.0 0.0002086 4829.78223 4831.80957
4845.0 0.0002064 4829.05176 4830.99365
4750.0 0.0002105 4828.29541 4830.15820
4892.0 0.0002044 4827.51416 4829.30225
4909.0 0.0002037 4826.70752 4828.42578
4750.0 0.0002105 4825.87549 4827.52734
4861.0 0.0002057 4825.01758 4826.60693
4827.0 0.0002072 4824.13379 4825.66406
4919.0 0.0002033 4823.22363 4824.69824
4807.0 0.0002080 4822.28760 4823.70947
4826.0 0.0002072 4821.32568 4822.69775
4846.0 0.0002064 4820.33691 4821.66162
4929.0 0.0002029 4819.32178 4820.60107
4916.0 0.0002034 4818.28027 4819.51709
4935.0 0.0002026 4817.21143 4818.40820
4788.0 0.0002089 4816.11621 4817.27441
4866.0 0.0002055 4814.99414 4816.11523
4962.0 0.0002015 4813.84521 4814.93066
4881.0 0.0002049 4812.66895 4813.72168
4960.0 0.0002016 4811.46582 4812.24072
4836.0 0.0002068 4810.23535 4810.98682
5065.0 0.0001974 4808.97754 4809.70703
4984.0 0.0002006 4807.69238 4808.40039
4899.0 0.0002041 4806.38037 4807.06738
4921.0 0.0002032 4805.04053 4805.04004
4902.0 0.0002040 4803.67334 4803.67285
4949.0 0.0002021 4802.27881 4802.27832
4891.0 0.0002045 4800.85645 4800.85596
4883.0 0.0002048 4799.40674 4799.40625
4740.0 0.0002110 4797.92969 4797.92920
4868.0 0.0002054 4796.42529 4796.42480
4996.0 0.0002002 4794.89307 4794.89258
4902.0 0.0002040 4793.33350 4793.33301
4948.0 0.0002021 4791.74609 4791.74609
4895.0 0.0002043 4790.13184 4790.13135
4944.0 0.0002023 4788.48975 4788.48926
4960.0 0.0002016 4786.82031 4786.81982
4852.0 0.0002061 4785.12305 4785.12305
4860.0 0.0002058 4783.39893 4783.39893
4823.0 0.0002073 4781.64746 4781.64697
4937.0 0.0002026 4779.86865 4779.86865
4808.0 0.0002080 4778.06250 4778.06250
4856.0 0.0002059 4776.22949 4776.22949
4949.0 0.0002021 4774.36963 4774.36914
4898.0 0.0002042 4772.48193 4772.48193
4907.0 0.0002038 4770.56787 4770.56787
4819.0 0.0002075 4768.62695 4768.62695
4850.0 0.0002062 4766.65967 4766.65918
4846.0 0.0002064 4764.66504 4764.66504
4759.0 0.0002101 4762.64404 4762.64404
4843.0 0.0002065 4760.59668 4760.59668
4772.0 0.0002096 4758.52295 4758.52295
4908.0 0.0002037 4756.42285 4756.42285
4897.0 0.0002042 4754.29688 4754.29688
4734.0 0.0002112 4752.14502 4752.14502
4822.0 0.0002074 4749.96680 4749.96680
4863.0 0.0002056 4747.76318 4747.76318
4772.0 0.0002096 4745.53369 4745.53418
4865.0 0.0002055 4743.27930 4743.27930
4862.0 0.0002057 4740.99902 4740.99951
4809.0 0.0002079 4738.69385 4738.69385
4824.0 0.0002073 4736.36377 4736.36377
4731.0 0.0002114 4734.00830 4734.00879
4884.0 0.0002048 4731.62891 4731.62891
4686.0 0.0002134 4729.22461 4729.22461
4726.0 0.0002116 4726.79590 4726.79590
4866.0 0.0002055 4724.34277 4724.34326
4698.0 0.0002129 4721.86621 4721.86670
4872.0 0.0002053 4719.36572 4719.36572
4612.0 0.0002168 4716.84131 4716.84180
4798.0 0.0002084 4714.29395 4714.29395
4812.0 0.0002078 4711.72314 4711.72363
4809.0 0.0002079 4709.12939 4709.12939
4675.0 0.0002139 4706.51221 4706.51270
4742.0 0.0002109 4703.87305 4703.87354
4694.0 0.0002130 4701.21143 4701.21191
4724.0 0.0002117 4698.52783 4698.52783
4729.0 0.0002115 4695.82178 4695.82227
4658.0 0.0002147 4693.09375 4693.09424
4658.0 0.0002147 4690.34473 4690.34521
4794.0 0.0002086 4687.57471 4687.57520
4694.0 0.0002130 4684.78271 4684.78320
4646.0 0.0002152 4681.97070 4681.97070
4627.0 0.0002161 4679.13770 4679.13818
4649.0 0.0002151 4676.28418 4676.28467
4702.0 0.0002127 4673.41064 4683.81592
4724.0 0.0002117 4670.51758 4681.23047
4583.0 0.0002182 4667.60449 4678.63867
4656.0 0.0002148 4664.67236 4676.04297
4722.0 0.0002118 4661.72119 4673.44238
4668.0 0.0002142 4658.75049 4670.84033
4741.0 0.0002109 4655.76172 4668.23682
4682.0 0.0002136 4652.75488 4665.63379
4666.0 0.0002143 4649.72949 4663.03320
4612.0 0.0002168 4646.68652 4660.43506
4690.0 0.0002132 4643.62598 4657.84277
4610.0 0.0002169 4640.54834 4655.25781
4626.0 0.0002162 4637.45361 4652.68164
4733.0 0.0002113 4634.34180 4650.11621
4691.0 0.0002132 4631.21338 4647.56494
4589.0 0.0002179 4628.06982 4645.02930
4512.0 0.0002216 4624.90967 4642.51221
4706.0 0.0002125 4621.73389 4640.01758
4790.0 0.0002088 4618.54297 4637.54639
4700.0 0.0002128 4615.33740 4635.10498
4548.0 0.0002199 4612.11621 4632.69482
4609.0 0.0002170 4608.88086 4630.32129
4637.0 0.0002157 4605.63184 4627.98877
4661.0 0.0002145 4602.36865 4625.70313
4573.0 0.0002187 4599.09180 4623.46875
4658.0 0.0002147 4595.80176 4621.29248
4650.0 0.0002151 4592.49854 4619.18066
4600.0 0.0002174 4589.18262 4617.14209
4646.0 0.0002152 4585.85498 4615.18457
4561.0 0.0002193 4582.51465 4613.31885
4525.0 0.0002210 4579.16260 4611.55371
4602.0 0.0002173 4575.79883 4609.90381
4721.0 0.0002118 4572.42432 4608.38232
4618.0 0.0002165 4569.03857 4607.00391
4582.0 0.0002182 4565.64258 4605.78760
4537.0 0.0002204 4562.23584 4604.75342
4630.0 0.0002160 4558.81934 4603.92627
4608.0 0.0002170 4555.39307 4603.33252
4700.0 0.0002128 4551.95752 4603.00293
4595.0 0.0002176 4548.51270 4602.97607
4624.0 0.0002163 4545.05957 4603.29346
4631.0 0.0002159 4541.59766 4604.00684
4619.0 0.0002165 4538.12744 4605.17578
4579.0 0.0002184 4534.64941 4606.87158
4650.0 0.0002151 4531.16406 4609.17969
4694.0 0.0002130 4527.67090 4612.20215
4557.0 0.0002194 4524.17139 4616.06445
4498.0 0.0002223 4520.66504 4620.91846
4589.0 0.0002179 4517.15234 4626.95313
4692.0 0.0002131 4513.63330 4634.40186
4575.0 0.0002186 4510.10889 4643.55811
4646.0 0.0002152 4506.57861 4654.79639
4613.0 0.0002168 4503.04346 4668.59473
4710.0 0.0002123 4499.50391 4685.57715
4558.0 0.0002194 4495.95898 4706.56396
4602.0 0.0002173 4492.41016 4732.66602
4621.0 0.0002164 4488.85791 4765.44434
4810.0 0.0002079 4485.30176 4807.28467
4826.0 0.0002072 4481.74170 4862.39502
4866.0 0.0002055 4478.17920 4939.43066
5136.0 0.0001947 4474.61328 5057.68018
5339.0 0.0001873 4471.04590 5258.99707
5709.0 0.0001752 4467.47559 5624.80811
6450.0 0.0001550 4463.90381 6288.68652
7732.0 0.0001293 4460.33008 7422.48828
9129.0 0.0001095 4456.75537 9171.06641
11739.0 0.0000852 4453.17920 11531.66895
14496.0 0.0000690 4449.60254 14211.29297
17074.0 0.0000586 4446.02588 16539.92578
18225.0 0.0000549 4442.44873 17609.25781
16993.0 0.0000588 4438.87158 16840.04883
14514.0 0.0000689 4435.29492 14613.25391
11770.0 0.0000850 4431.71875 11890.74512
9015.0 0.0001109 4428.14404 9427.47852
7178.0 0.0001393 4424.57031 7568.70313
6070.0 0.0001647 4420.99805 6347.55957
5307.0 0.0001884 4417.42725 5627.19629
5115.0 0.0001955 4413.85889 5229.00000
4911.0 0.0002036 4410.29297 5009.10840
4760.0 0.0002101 4406.72949 4878.59180
4659.0 0.0002146 4403.16895 4791.77686
4611.0 0.0002169 4399.61133 4727.86670
4497.0 0.0002224 4396.05713 4677.69971
4531.0 0.0002207 4392.50684 4636.89209
4472.0 0.0002236 4388.95996 4602.97559
4464.0 0.0002240 4385.41748 4574.33789
4469.0 0.0002238 4381.87939 4549.83057
4464.0 0.0002240 4378.34619 4528.60400
4381.0 0.0002283 4374.81787 4510.01514
4378.0 0.0002284 4371.29395 4493.57080
4322.0 0.0002314 4367.77637 4478.88770
4387.0 0.0002279 4364.26416 4465.66309
4279.0 0.0002337 4360.75732 4453.65723
4324.0 0.0002313 4357.25684 4442.67773
4411.0 0.0002267 4353.76318 4432.56836
4429.0 0.0002258 4350.27539 4423.20215
4393.0 0.0002276 4346.79492 4414.47363
4538.0 0.0002204 4343.32129 4406.29736
4462.0 0.0002241 4339.85498 4398.60010
4394.0 0.0002276 4336.39600 4391.32129
4319.0 0.0002315 4332.94434 4384.40967
4412.0 0.0002267 4329.50098 4377.82227
4349.0 0.0002299 4326.06543 4371.52148
4305.0 0.0002323 4322.63867 4365.47607
4218.0 0.0002371 4319.22021 4359.65869
4309.0 0.0002321 4315.81006 4354.04492
4354.0 0.0002297 4312.40918 4348.61523
4199.0 0.0002382 4309.01758 4343.35205
4286.0 0.0002333 4305.63525 4338.23926
4265.0 0.0002345 4302.26221 4333.26318
4401.0 0.0002272 4298.89893 4328.41211
4390.0 0.0002278 4295.54590 4323.67578
4385.0 0.0002281 4292.20264 4319.04395
4372.0 0.0002287 4288.86963 4314.50830
4285.0 0.0002334 4285.54688 4310.06250
4286.0 0.0002333 4282.23535 4305.69922
4258.0 0.0002349 4278.93408 4301.41309
4332.0 0.0002308 4275.64355 4297.19824
4343.0 0.0002303 4272.36426 4293.05078
4378.0 0.0002284 4269.09668 4288.96533
4281.0 0.0002336 4265.84033 4284.93945
4365.0 0.0002291 4262.59521 4280.96875
4269.0 0.0002342 4259.36182 4277.04980
4326.0 0.0002312 4256.14111 4273.18115
4200.0 0.0002381 4252.93164 4269.35938
4302.0 0.0002325 4249.73486 4265.58154
4066.0 0.0002459 4246.55029 4261.84668
4176.0 0.0002395 4243.37793 4258.15234
4369.0 0.0002289 4240.21826 4254.49756
4183.0 0.0002391 4237.07129 4250.87842
4194.0 0.0002384 4233.93750 4247.29639
4188.0 0.0002388 4230.81641 4243.74854
4136.0 0.0002418 4227.70850 4240.23438
4274.0 0.0002340 4224.61377 4236.75146
4205.0 0.0002378 4221.53271 4233.30029
4117.0 0.0002429 4218.46436 4229.87842
4308.0 0.0002321 4215.41064 4226.48682
4164.0 0.0002402 4212.37012 4223.12256
4249.0 0.0002353 4209.34277 4209.34277
4158.0 0.0002405 4206.33008 4206.32959
4120.0 0.0002427 4203.33105 4203.33105
4140.0 0.0002415 4200.34619 4200.34619
4158.0 0.0002405 4197.37549 4197.37500
4245.0 0.0002356 4194.41895 4194.41846
4252.0 0.0002352 4191.47705 4191.47656
4314.0 0.0002318 4188.54883 4188.54883
4190.0 0.0002387 4185.63574 4185.63525
4214.0 0.0002373 4182.73682 4182.73682
4235.0 0.0002361 4179.85303 4179.85254
4262.0 0.0002346 4176.98389 4176.98340
4172.0 0.0002397 4174.12891 4174.12891
4105.0 0.0002436 4171.28906 4171.28906
4215.0 0.0002372 4168.46436 4168.46387
4171.0 0.0002398 4165.65479 4165.65430
4176.0 0.0002395 4162.85986 4162.85986
4237.0 0.0002360 4160.08008 4160.07959
4133.0 0.0002420 4157.31543 4157.31494
4151.0 0.0002409 4154.56592 4154.56592
4145.0 0.0002413 4151.83154 4151.83105
4203.0 0.0002379 4149.11279 4149.11230
4096.0 0.0002441 4146.40869 4146.40820
4020.0 0.0002488 4143.72070 4143.72021
4031.0 0.0002481 4141.04736 4141.04688
4063.0 0.0002461 4138.38916 4138.38867
4145.0 0.0002413 4135.74707 4135.74658
4135.0 0.0002418 4133.12012 4133.11963
4151.0 0.0002409 4130.50879 4130.50830
4080.0 0.0002451 4127.91211 4127.91162
4065.0 0.0002460 4125.33154 4125.33105
4187.0 0.0002388 4122.76660 4122.76611
4176.0 0.0002395 4120.21680 4120.21631
4177.0 0.0002394 4117.68262 4117.68213
4099.0 0.0002440 4115.16357 4115.16309
4191.0 0.0002386 4112.66064 4113.44824
4052.0 0.0002468 4110.17285 4110.98340
4125.0 0.0002424 4107.70020 4108.53564
4216.0 0.0002372 4105.24316 4106.37109
4159.0 0.0002404 4102.80176 4103.96436
4072.0 0.0002456 4100.37598 4101.57422
4205.0 0.0002378 4097.96533 4099.20117
4096.0 0.0002441 4095.56982 4096.84619
4076.0 0.0002453 4093.18994 4094.50781
4151.0 0.0002409 4090.82544 4092.18677
4045.0 0.0002472 4088.47632 4089.88379
4143.0 0.0002414 4086.14233 4087.59766
4065.0 0.0002460 4083.82349 4085.33008
4104.0 0.0002437 4081.52002 4083.08008
4157.0 0.0002406 4079.23169 4080.84814
3996.0 0.0002503 4076.95874 4078.63477
4151.0 0.0002409 4074.70044 4076.43945
4081.0 0.0002450 4072.45752 4074.26294
4032.0 0.0002480 4070.22949 4072.10522
4028.0 0.0002483 4068.01636 4069.96655
4155.0 0.0002407 4065.81812 4067.84766
4141.0 0.0002415 4063.63477 4065.74829
4219.0 0.0002370 4061.46631 4063.66919
4064.0 0.0002461 4059.31250 4061.61035
3965.0 0.0002522 4057.17334 4059.57251
4138.0 0.0002417 4055.04883 4057.55615
4021.0 0.0002487 4052.93872 4055.56177
3971.0 0.0002518 4050.84326 4053.59033
4119.0 0.0002428 4048.76221 4051.64233
4078.0 0.0002452 4046.69531 4049.71826
3969.0 0.0002520 4044.64307 4047.81982
4030.0 0.0002481 4042.60449 4045.94678
4063.0 0.0002461 4040.58032 4044.10181
4149.0 0.0002410 4038.57007 4042.28516
4031.0 0.0002481 4036.57397 4040.49927
4091.0 0.0002444 4034.59155 4038.74536
4022.0 0.0002486 4032.62305 4037.02563
4009.0 0.0002494 4030.66821 4035.34302
3952.0 0.0002530 4028.72681 4033.69995
4015.0 0.0002491 4026.79932 4032.09961
3955.0 0.0002528 4024.88501 4030.54590
4005.0 0.0002497 4022.98389 4029.04370
3976.0 0.0002515 4021.09619 4027.59863
4035.0 0.0002478 4019.22168 4026.21631
3970.0 0.0002519 4017.36011 4024.90576
4078.0 0.0002452 4015.51147 4023.67505
4008.0 0.0002495 4013.67603 4022.53613
4094.0 0.0002443 4011.85278 4021.50293
4015.0 0.0002491 4010.04248 4020.59204
3928.0 0.0002546 4008.24487 4019.82544
4031.0 0.0002481 4006.45972 4019.22949
4053.0 0.0002467 4004.68652 4018.83716
4074.0 0.0002455 4002.92554 4018.69238
4059.0 0.0002464 4001.17676 4018.85107
3957.0 0.0002527 3999.44019 4019.38647
4062.0 0.0002462 3997.71558 4020.39795
4071.0 0.0002456 3996.00244 4022.02441
3986.0 0.0002509 3994.30103 4024.47925
4142.0 0.0002414 3992.61108 4028.13428
4000.0 0.0002500 3990.93286 4033.74707
4114.0 0.0002431 3989.26563 4042.96509
3971.0 0.0002518 3987.60986 4059.26392
4165.0 0.0002401 3985.96509 4089.20166
4271.0 0.0002341 3984.33130 4143.19873
4094.0 0.0002443 3982.70825 4234.25928
4281.0 0.0002336 3981.09570 4373.08447
4558.0 0.0002194 3979.49414 4559.66797
4819.0 0.0002075 3977.90308 4773.38818
4875.0 0.0002051 3976.32202 4966.05322
5041.0 0.0001984 3974.75122 5072.71631
5012.0 0.0001995 3973.19043 5057.45557
4995.0 0.0002002 3971.63989 4946.78857
4716.0 0.0002120 3970.09912 4787.34717
4608.0 0.0002170 3968.56787 4608.85303
4389.0 0.0002278 3967.04614 4435.58447
4244.0 0.0002356 3965.53418 4289.61914
4170.0 0.0002398 3964.03125 4180.23096
4127.0 0.0002423 3962.53784 4105.11328
4051.0 0.0002469 3961.05322 4056.86694
3864.0 0.0002588 3959.57739 4027.09180
4039.0 0.0002476 3958.11060 4008.75342
3985.0 0.0002509 3956.65234 3996.89258
4027.0 0.0002483 3955.20264 3988.53467
3968.0 0.0002520 3953.76172 3982.10571
3937.0 0.0002540 3952.32886 3976.83081
4005.0 0.0002497 3950.90381 3972.32666
3945.0 0.0002535 3949.48706 3968.38379
4031.0 0.0002481 3948.07788 3964.87256
4019.0 0.0002488 3946.67676 3961.70166
3943.0 0.0002536 3945.28345 3958.80469
3888.0 0.0002572 3943.89722 3956.13062
3906.0 0.0002560 3942.51831 3953.64014
3906.0 0.0002560 3941.14697 3951.30249
3992.0 0.0002505 3939.78223 3949.09351
4013.0 0.0002492 3938.42480 3946.99341
3928.0 0.0002546 3937.07397 3944.98633
3857.0 0.0002593 3935.73022 3943.05981
4004.0 0.0002498 3934.39258 3941.20288
3973.0 0.0002517 3933.06128 3939.40601
3953.0 0.0002530 3931.73657 3937.66309
3939.0 0.0002539 3930.41797 3935.96753
3968.0 0.0002520 3929.10547 3934.31372
3954.0 0.0002529 3927.79883 3932.69751
3971.0 0.0002518 3926.49756 3931.11450
3909.0 0.0002558 3925.20239 3929.56250
3820.0 0.0002618 3923.91260 3928.03784
3905.0 0.0002561 3922.62817 3926.53809
3835.0 0.0002608 3921.34888 3925.06152
3933.0 0.0002543 3920.07471 3923.60596
3958.0 0.0002527 3918.80566 3922.16968
3882.0 0.0002576 3917.54126 3920.75146
3932.0 0.0002543 3916.28198 3919.34985
3917.0 0.0002553 3915.02686 3917.96362
3929.0 0.0002545 3913.77661 3916.59204
3915.0 0.0002554 3912.53027 3915.23389
3875.0 0.0002581 3911.28833 3913.88867
3848.0 0.0002599 3910.05078 3912.55566
3839.0 0.0002605 3908.81689 3911.23389
3827.0 0.0002613 3907.58716 3909.92334
3881.0 0.0002577 3906.36084 3908.62305
3889.0 0.0002571 3905.13818 3907.33276
3959.0 0.0002526 3903.91919 3906.05249
3864.0 0.0002588 3902.70337 3904.78174
3920.0 0.0002551 3901.49097 3903.52051
3896.0 0.0002567 3900.28174 3902.26855
3898.0 0.0002565 3899.07544 3901.02612
3861.0 0.0002590 3897.87207 3899.79321
3894.0 0.0002568 3896.67139 3898.57007
3946.0 0.0002534 3895.47363 3897.35767
3750.0 0.0002667 3894.27808 3896.15625
3823.0 0.0002616 3893.08545 3894.96753
3889.0 0.0002571 3891.89478 3893.79224
3965.0 0.0002522 3890.70630 3892.63257
3902.0 0.0002563 3889.52026 3891.49170
3842.0 0.0002603 3888.33594 3890.37354
3882.0 0.0002576 3887.15381 3889.28394
3944.0 0.0002535 3885.97314 3888.23242
3942.0 0.0002537 3884.79443 3887.23828
3905.0 0.0002561 3883.61719 3885.56006
3847.0 0.0002599 3882.44141 3884.87671
3944.0 0.0002535 3881.26709 3884.56494
3862.0 0.0002589 3880.09399 3884.94653
3849.0 0.0002598 3878.92212 3886.21313
3924.0 0.0002548 3877.75146 3889.36548
3991.0 0.0002506 3876.58154 3894.33447
3839.0 0.0002605 3875.41260 3900.67603
3836.0 0.0002607 3874.24438 3906.93506
3918.0 0.0002552 3873.07715 3910.61084
3912.0 0.0002556 3871.91016 3909.31421
3919.0 0.0002552 3870.74390 3903.05957
3954.0 0.0002529 3869.57813 3894.33960
4055.0 0.0002466 3868.41260 3885.68311
3920.0 0.0002551 3867.24731 3878.47681
4023.0 0.0002486 3866.08228 3873.10400
4042.0 0.0002474 3864.91724 3869.32935
4273.0 0.0002340 3863.75220 3866.67236
4155.0 0.0002407 3862.58716 3868.04004
4241.0 0.0002358 3861.42188 3866.49634
4196.0 0.0002383 3860.25635 3865.13208
4064.0 0.0002461 3859.09058 3863.86255
4057.0 0.0002465 3857.92432 3862.64917
4010.0 0.0002494 3856.75757 3861.47412
4003.0 0.0002498 3855.59058 3860.32837
3921.0 0.0002550 3854.42261 3859.20654
3872.0 0.0002583 3853.25415 3858.10449
3832.0 0.0002610 3852.08496 3857.02002
3896.0 0.0002567 3850.91479 3855.95068
3837.0 0.0002606 3849.74390 3854.89600
3859.0 0.0002591 3848.57178 3853.85449
3872.0 0.0002583 3847.39893 3852.82593
3904.0 0.0002561 3846.22485 3851.80981
3950.0 0.0002532 3845.04980 3850.80688
3863.0 0.0002589 3843.87329 3849.81641
3887.0 0.0002573 3842.69580 3848.83911
3831.0 0.0002610 3841.51685 3847.87598
3790.0 0.0002639 3840.33667 3846.92725
3887.0 0.0002573 3839.15503 3845.99390
3756.0 0.0002662 3837.97168 3845.07642
3812.0 0.0002623 3836.78687 3844.17676
3874.0 0.0002581 3835.60059 3843.29614
3816.0 0.0002621 3834.41284 3842.43604
3752.0 0.0002665 3833.22314 3841.59766
3760.0 0.0002660 3832.03198 3840.78369
3723.0 0.0002686 3830.83887 3839.99585
3801.0 0.0002631 3829.64404 3839.23779
3852.0 0.0002596 3828.44727 3838.51123
3874.0 0.0002581 3827.24878 3837.82056
3803.0 0.0002630 3826.04834 3837.16870
3753.0 0.0002665 3824.84595 3836.56030
3822.0 0.0002616 3823.64160 3836.00049
3815.0 0.0002621 3822.43530 3835.49438
3810.0 0.0002625 3821.22681 3835.04932
3698.0 0.0002704 3820.01660 3834.67212
3831.0 0.0002610 3818.80396 3834.37158
3837.0 0.0002606 3817.58911 3834.15771
3783.0 0.0002643 3816.37207 3834.04248
3719.0 0.0002689 3815.15332 3834.03955
3819.0 0.0002618 3813.93213 3834.16528
3866.0 0.0002587 3812.70874 3834.43848
3821.0 0.0002617 3811.48291 3834.88281
3900.0 0.0002564 3810.25513 3835.52515
3831.0 0.0002610 3809.02490 3836.39795
3892.0 0.0002569 3807.79248 3837.54248
3789.0 0.0002639 3806.55762 3839.00708
3867.0 0.0002586 3805.32031 3840.85278
3884.0 0.0002575 3804.08105 3843.15430
3809.0 0.0002625 3802.83936 3846.00659
3860.0 0.0002591 3801.59521 3849.52979
3853.0 0.0002595 3800.34888 3853.87769
3844.0 0.0002601 3799.10034 3859.25000
3760.0 0.0002660 3797.84912 3865.91113
3855.0 0.0002594 3796.59546 3874.21680
3797.0 0.0002634 3795.33960 3884.66650
3791.0 0.0002638 3794.08154 3898.02441
3929.0 0.0002545 3792.82129 3915.62549
3917.0 0.0002553 3791.55835 3940.17749
3944.0 0.0002535 3790.29297 3977.59229
3940.0 0.0002538 3789.02563 4040.37695
4079.0 0.0002452 3787.75586 4152.41992
4411.0 0.0002267 3786.48364 4351.79932
4617.0 0.0002166 3785.20923 4686.18066
5147.0 0.0001943 3783.93262 5194.10352
6009.0 0.0001664 3782.65332 5872.45605
6822.0 0.0001466 3781.37207 6638.24219
7478.0 0.0001337 3780.08862 7298.91846
7591.0 0.0001317 3778.80273 7585.08301
7328.0 0.0001365 3777.51489 7337.71143
6438.0 0.0001553 3776.22461 6689.02930
5722.0 0.0001748 3774.93213 5916.24316
5071.0 0.0001972 3773.63770 5223.07764
4733.0 0.0002113 3772.34106 4699.10889
4267.0 0.0002344 3771.04248 4351.34766
4287.0 0.0002333 3769.74146 4142.46631
4160.0 0.0002404 3768.43848 4024.11865
4064.0 0.0002461 3767.13379 3956.93823
4055.0 0.0002466 3765.82666 3916.10913
3910.0 0.0002558 3764.51782 3888.54541
4101.0 0.0002438 3763.20703 3868.09985
4239.0 0.0002359 3761.89453 3851.97729
4229.0 0.0002365 3760.57983 3838.81006
4144.0 0.0002413 3759.26318 3827.82056
3971.0 0.0002518 3757.94507 3818.50073
3893.0 0.0002569 3756.62500 3810.48828
3868.0 0.0002585 3755.30347 3803.51465
3883.0 0.0002575 3753.97998 3797.37695
3798.0 0.0002633 3752.65479 3791.91870
3935.0 0.0002541 3751.32837 3787.01855
3864.0 0.0002588 3750.00000 3782.57983
3780.0 0.0002646 3748.67041 3778.52710
3832.0 0.0002610 3747.33911 3774.79858
3784.0 0.0002643 3746.00659 3771.34497
3709.0 0.0002696 3744.67236 3768.12524
3768.0 0.0002654 3743.33691 3765.10645
3619.0 0.0002763 3742.00049 3762.26025
3753.0 0.0002665 3740.66235 3759.56421
3763.0 0.0002657 3739.32349 3756.99854
3725.0 0.0002685 3737.98315 3754.54712
3757.0 0.0002662 3736.64160 3752.19580
3734.0 0.0002678 3735.29932 3749.93286
3773.0 0.0002650 3733.95605 3747.74780
3815.0 0.0002621 3732.61182 3745.63281
3768.0 0.0002654 3731.26660 3743.57910
3839.0 0.0002605 3729.92041 3741.58081
3801.0 0.0002631 3728.57373 3739.63232
3841.0 0.0002603 3727.22632 3737.72852
3850.0 0.0002597 3725.87817 3735.86475
3787.0 0.0002641 3724.52930 3734.03735
3883.0 0.0002575 3723.18018 3732.24316
3748.0 0.0002668 3721.83032 3730.47876
3740.0 0.0002674 3720.47998 3728.74194
3745.0 0.0002670 3719.12939 3727.02979
3728.0 0.0002682 3717.77856 3725.34082
3705.0 0.0002699 3716.42773 3723.67261
3691.0 0.0002709 3715.07617 3722.02393
3772.0 0.0002651 3713.72485 3720.39282
3792.0 0.0002637 3712.37354 3718.77856
3642.0 0.0002746 3711.02197 3717.17920
3713.0 0.0002693 3709.67090 3715.59424
3648.0 0.0002741 3708.31958 3714.02246
3625.0 0.0002759 3706.96851 3712.46289
3588.0 0.0002787 3705.61792 3710.91479
3643.0 0.0002745 3704.26758 3709.37769
3672.0 0.0002723 3702.91772 3707.85059
3692.0 0.0002709 3701.56812 3706.33301
3828.0 0.0002612 3700.21924 3704.82446
3616.0 0.0002765 3698.87085 3703.32446
3598.0 0.0002779 3697.52319 3701.83228
3742.0 0.0002672 3696.17651 3700.34790
3680.0 0.0002717 3694.83032 3698.87109
3666.0 0.0002728 3693.48535 3697.40088
3735.0 0.0002677 3692.14111 3695.93726
3684.0 0.0002714 3690.79761 3694.48022
3758.0 0.0002661 3689.45581 3736.01685
3665.0 0.0002729 3688.11475 3735.83813
3855.0 0.0002594 3686.77515 3732.35498
3735.0 0.0002677 3685.43677 3732.39990
3768.0 0.0002654 3684.09985 3732.51025
3633.0 0.0002753 3682.76440 3732.68994
3697.0 0.0002705 3681.43018 3732.94287
3679.0 0.0002718 3680.09790 3733.27466
3684.0 0.0002714 3678.76733 3733.69019
3707.0 0.0002698 3677.43848 3734.19458
3650.0 0.0002740 3676.11108 3734.79395
3718.0 0.0002690 3674.78564 3735.49463
3699.0 0.0002703 3673.46240 3736.30444
3805.0 0.0002628 3672.14136 3737.23071
3829.0 0.0002612 3670.82202 3738.28125
3845.0 0.0002601 3669.50488 3739.46582
3808.0 0.0002626 3668.19019 3740.79419
3815.0 0.0002621 3666.87793 3742.27759
3899.0 0.0002565 3665.56763 3743.92749
3912.0 0.0002556 3664.26025 3745.75757
3819.0 0.0002618 3662.95508 3747.78198
3741.0 0.0002673 3661.65283 3750.01758
3774.0 0.0002650 3660.35303 3752.48096
3791.0 0.0002638 3659.05591 3755.19238
3831.0 0.0002610 3657.76172 3758.17383
3636.0 0.0002750 3656.47046 3761.44946
3640.0 0.0002747 3655.18213 3765.04590
3669.0 0.0002726 3653.89673 3768.99414
3765.0 0.0002656 3652.61450 3773.32739
3711.0 0.0002695 3651.33569 3778.08423
3726.0 0.0002684 3650.06006 3783.30762
3687.0 0.0002712 3648.78760 3789.04614
3612.0 0.0002769 3647.51855 3795.35474
3792.0 0.0002637 3646.25293 3802.29639
3707.0 0.0002698 3644.99097 3809.94238
3680.0 0.0002717 3643.73242 3818.37476
3750.0 0.0002667 3642.47778 3827.68799
3783.0 0.0002643 3641.22656 3837.99023
3779.0 0.0002646 3639.97949 3849.40869
3714.0 0.0002693 3638.73608 3862.08911
3724.0 0.0002685 3637.49658 3876.20361
3902.0 0.0002563 3636.26123 3891.95459
3714.0 0.0002693 3635.03003 3909.58057
3806.0 0.0002627 3633.80298 3929.36499
3777.0 0.0002648 3632.57983 3951.64697
3821.0 0.0002617 3631.36108 3976.83545
3899.0 0.0002565 3630.14673 4005.42505
3892.0 0.0002569 3628.93701 4038.01978
4027.0 0.0002483 3627.73145 4075.36304
4103.0 0.0002437 3626.53052 4118.37744
3948.0 0.0002533 3625.33423 4168.21973
4087.0 0.0002447 3624.14258 4226.35254
4085.0 0.0002448 3622.95557 4294.64844
4126.0 0.0002424 3621.77344 4375.53174
4202.0 0.0002380 3620.59619 4472.18945
4238.0 0.0002360 3619.42383 4588.89355
4525.0 0.0002210 3618.25635 4731.58691
4566.0 0.0002190 3617.09399 4909.16113
4773.0 0.0002095 3615.93652 5136.71436
5231.0 0.0001912 3614.78442 5443.93896
5508.0 0.0001816 3613.63745 5894.57959
6220.0 0.0001608 3612.49561 6623.81445
7359.0 0.0001359 3611.35913 7891.92969
9601.0 0.0001042 3610.22827 10126.24707
13136.0 0.0000761 3609.10254 13885.85352
18800.0 0.0000532 3607.98242 19673.60938
27557.0 0.0000363 3606.86792 27580.73438
37902.0 0.0000264 3605.75879 36841.71484
47297.0 0.0000211 3604.65552 45419.75391
51536.0 0.0000194 3603.55786 50105.23047
47897.0 0.0000209 3602.46582 48416.56641
40414.0 0.0000247 3601.37988 41270.62891
31809.0 0.0000314 3600.29956 31955.25000
24035.0 0.0000416 3599.22510 23205.50977
17628.0 0.0000567 3598.15674 16355.77637
12953.0 0.0000772 3597.09424 11666.03906
9598.0 0.0001042 3596.03784 8775.12793
7570.0 0.0001321 3594.98755 7111.84326
6261.0 0.0001597 3593.94336 6170.02100
5470.0 0.0001828 3592.90552 5610.52686
4986.0 0.0002006 3591.87354 5245.55664
4632.0 0.0002159 3590.84814 4983.72070
4595.0 0.0002176 3589.82886 4782.93408
4297.0 0.0002327 3588.81592 4622.94238
4229.0 0.0002365 3587.80933 4492.61768
4251.0 0.0002352 3586.80933 4384.88672
4043.0 0.0002473 3585.81567 4294.79297
4071.0 0.0002456 3584.82861 4218.68799
4076.0 0.0002453 3583.84814 4153.81885
3906.0 0.0002560 3582.87402 4098.07227
3922.0 0.0002550 3581.90649 4049.80664
3906.0 0.0002560 3580.94580 4007.73047
3902.0 0.0002563 3579.99170 3970.81787
3850.0 0.0002597 3579.04443 3938.24683
3895.0 0.0002567 3578.10376 3909.35083
3819.0 0.0002618 3577.16992 3883.58691
3805.0 0.0002628 3576.24292 3860.50806
3798.0 0.0002633 3575.32275 3839.74390
3813.0 0.0002623 3574.40942 3820.98633
3815.0 0.0002621 3573.50293 3803.97607
3721.0 0.0002687 3572.60352 3788.49487
3581.0 0.0002793 3571.71094 3774.35767
3701.0 0.0002702 3570.82520 3761.40601
3683.0 0.0002715 3569.94678 3749.50513
3759.0 0.0002660 3569.07495 3738.53760
3619.0 0.0002763 3568.21045 3728.40308
3699.0 0.0002703 3567.35303 3719.01440
3593.0 0.0002783 3566.50244 3710.29468
3749.0 0.0002667 3565.65918 3702.17798
3759.0 0.0002660 3564.82300 3694.60522
3595.0 0.0002782 3563.99390 3687.52539
3653.0 0.0002737 3563.17188 3680.89282
3644.0 0.0002744 3562.35718 3674.66699
3696.0 0.0002706 3561.54956 3668.81250
3614.0 0.0002767 3560.74927 3663.29736
3683.0 0.0002715 3559.95605 3658.09326
3685.0 0.0002714 3559.17017 3653.17456
3614.0 0.0002767 3558.39160 3648.51807
3781.0 0.0002645 3557.61987 3644.10376
3679.0 0.0002718 3556.85571 3639.91284
3630.0 0.0002755 3556.09888 3635.92871
3530.0 0.0002833 3555.34912 3632.13599
3646.0 0.0002743 3554.60669 3628.52124
3624.0 0.0002759 3553.87158 3625.07178
3561.0 0.0002808 3553.14355 3621.77588
3605.0 0.0002774 3552.42310 3618.62402
3586.0 0.0002789 3551.70972 3615.60596
3577.0 0.0002796 3551.00366 3612.71362
3646.0 0.0002743 3550.30493 3609.93872
3609.0 0.0002771 3549.61353 3608.55005
3647.0 0.0002742 3548.92944 3606.02686
3732.0 0.0002680 3548.25269 3603.60254
3631.0 0.0002754 3547.58301 3601.27173
3637.0 0.0002750 3546.92090 3599.02930
3696.0 0.0002706 3546.26587 3596.87036
3667.0 0.0002727 3545.61816 3594.79102
3589.0 0.0002786 3544.97754 3592.78687
3630.0 0.0002755 3544.34448 3590.85425
3611.0 0.0002769 3543.71851 3588.98975
3712.0 0.0002694 3543.09961 3544.84448
3775.0 0.0002649 3542.48828 3544.29370
3832.0 0.0002610 3541.88403 3543.75269
3862.0 0.0002589 3541.28687 3543.22266
3865.0 0.0002587 3540.69702 3542.70361
3973.0 0.0002517 3540.11426 3542.19507
3829.0 0.0002612 3539.53857 3541.69849
3881.0 0.0002577 3538.97021 3541.21338
3926.0 0.0002547 3538.40894 3540.74023
3774.0 0.0002650 3537.85498 3540.28003
3656.0 0.0002735 3537.30786 3539.83228
3674.0 0.0002722 3536.76782 3539.39771
3574.0 0.0002798 3536.23486 3538.97705
3712.0 0.0002694 3535.70898 3538.57080
3698.0 0.0002704 3535.18994 3538.17969
3780.0 0.0002646 3534.67822 3537.80396
3560.0 0.0002809 3534.17310 3537.44482
3559.0 0.0002810 3533.67529 3537.10352
3642.0 0.0002746 3533.18433 3536.78003
3701.0 0.0002702 3532.69995 3536.47632
3636.0 0.0002750 3532.22266 3536.19360
3519.0 0.0002842 3531.75220 3535.93286
3646.0 0.0002743 3531.28857 3535.69580
3661.0 0.0002731 3530.83154 3535.48438
3614.0 0.0002767 3530.38135 3535.30078
3559.0 0.0002810 3529.93799 3535.14795
3585.0 0.0002789 3529.50122 3535.02783
3498.0 0.0002859 3529.07129 3534.94385
3630.0 0.0002755 3528.64771 3534.90039
3550.0 0.0002817 3528.23096 3534.90112
3636.0 0.0002750 3527.82056 3534.95166
3640.0 0.0002747 3527.41650 3535.05786
3595.0 0.0002782 3527.01929 3535.22729
3519.0 0.0002842 3526.62842 3535.46826
3476.0 0.0002877 3526.24390 3535.79077
3554.0 0.0002814 3525.86572 3536.20752
3517.0 0.0002843 3525.49390 3536.73364
3638.0 0.0002749 3525.12842 3537.38696
3704.0 0.0002700 3524.76929 3538.19092
3621.0 0.0002762 3524.41602 3539.17310
3468.0 0.0002884 3524.06909 3540.36890
3539.0 0.0002826 3523.72827 3541.82324
3436.0 0.0002910 3523.39380 3543.59351
3618.0 0.0002764 3523.06494 3545.75366
3507.0 0.0002851 3522.74219 3548.40234
3595.0 0.0002782 3522.42554 3551.67163
3457.0 0.0002893 3522.11475 3555.74731
3584.0 0.0002790 3521.80981 3560.91333
3614.0 0.0002767 3521.51050 3567.66504
3624.0 0.0002759 3521.21704 3576.99292
3638.0 0.0002749 3520.92920 3591.00977
3705.0 0.0002699 3520.64722 3614.08154
3625.0 0.0002759 3520.37085 3654.29761
3718.0 0.0002690 3520.09985 3724.31763
3822.0 0.0002616 3519.83447 3839.69775
3974.0 0.0002516 3519.57471 4012.88281
4344.0 0.0002302 3519.32007 4243.01709
4605.0 0.0002172 3519.07080 4503.77832
4833.0 0.0002069 3518.82690 4732.35400
4880.0 0.0002049 3518.58838 4836.90527
4767.0 0.0002098 3518.35474 4759.84375
4453.0 0.0002246 3518.12646 4543.44678
4126.0 0.0002424 3517.90332 4281.31934
3987.0 0.0002508 3517.68506 4042.97046
4003.0 0.0002498 3517.47192 3859.72827
3763.0 0.0002657 3517.26343 3735.51782
3611.0 0.0002769 3517.06006 3659.13599
3712.0 0.0002694 3516.86133 3614.90771
3713.0 0.0002693 3516.66748 3589.46191
3655.0 0.0002736 3516.47827 3574.00122
3794.0 0.0002636 3516.29370 3563.68750
3737.0 0.0002676 3516.11353 3556.16016
3788.0 0.0002640 3515.93799 3550.31812
3676.0 0.0002720 3515.76685 3545.61938
3700.0 0.0002703 3515.60010 3541.75952
3672.0 0.0002723 3515.43774 3538.54248
3641.0 0.0002746 3515.27979 3535.82910
3605.0 0.0002774 3515.12573 3533.51758
3647.0 0.0002742 3514.97607 3531.52979
3545.0 0.0002821 3514.83032 3529.80615
3545.0 0.0002821 3514.68872 3528.30029
3525.0 0.0002837 3514.55103 3526.97534
3641.0 0.0002746 3514.41724 3525.80225
3492.0 0.0002864 3514.28711 3524.75708
3544.0 0.0002822 3514.16089 3523.82129
3570.0 0.0002801 3514.03833 3522.97900
3432.0 0.0002914 3513.91968 3522.21753
3537.0 0.0002827 3513.80420 3521.52637
3514.0 0.0002846 3513.69238 3520.89648
3595.0 0.0002782 3513.58398 3523.22803
3468.0 0.0002884 3513.47925 3522.76978
3393.0 0.0002947 3513.37744 3522.35620
3523.0 0.0002838 3513.27905 3521.98291
3458.0 0.0002892 3513.18384 3521.64600
3617.0 0.0002765 3513.09180 3521.34204
3488.0 0.0002867 3513.00269 3521.06812
3579.0 0.0002794 3512.91675 3520.82202
3503.0 0.0002855 3512.83350 3520.60156
3565.0 0.0002805 3512.75342 3520.40527
3554.0 0.0002814 3512.67578 3527.21924
3481.0 0.0002873 3512.60107 3527.23706
3519.0 0.0002842 3512.52905 3527.28101
3482.0 0.0002872 3512.45947 3527.35034
3560.0 0.0002809 3512.39258 3527.44507
3528.0 0.0002834 3512.32788 3527.56372
3555.0 0.0002813 3512.26587 3527.70752
3400.0 0.0002941 3512.20605 3527.87500
3491.0 0.0002865 3512.14844 3528.06763
3522.0 0.0002839 3512.09302 3528.28467
3503.0 0.0002855 3512.03979 3528.52661
3520.0 0.0002841 3511.98853 3528.79419
3537.0 0.0002827 3511.93921 3529.08740
3597.0 0.0002780 3511.89209 3529.40747
3490.0 0.0002865 3511.84668 3529.75464
3466.0 0.0002885 3511.80298 3530.13062
3546.0 0.0002820 3511.76099 3530.53564
3485.0 0.0002869 3511.72070 3530.97119
3418.0 0.0002926 3511.68213 3531.43921
3540.0 0.0002825 3511.64478 3531.93970
3486.0 0.0002869 3511.60913 3532.47583
3513.0 0.0002847 3511.57471 3533.04932
3491.0 0.0002865 3511.54175 3533.66162
3525.0 0.0002837 3511.51001 3534.31543
3492.0 0.0002864 3511.47949 3535.01294
3467.0 0.0002884 3511.44995 3535.75781
3561.0 0.0002808 3511.42163 3536.55225
3542.0 0.0002823 3511.39404 3537.40039
3508.0 0.0002851 3511.36768 3538.30591
3511.0 0.0002848 3511.34204 3537.99097
3476.0 0.0002877 3511.31714 3539.06079
3543.0 0.0002822 3511.29297 3540.20068
3586.0 0.0002789 3511.26953 3541.41699
3565.0 0.0002805 3511.24683 3542.71606
3550.0 0.0002817 3511.22437 3544.10571
3552.0 0.0002815 3511.20239 3545.59375
3540.0 0.0002825 3511.18115 3547.18994
3505.0 0.0002853 3511.15991 3548.90503
3486.0 0.0002869 3511.13916 3550.75000
3428.0 0.0002917 3511.11841 3552.73950
3491.0 0.0002865 3511.09790 3554.88818
3532.0 0.0002831 3511.07739 3557.21338
3480.0 0.0002874 3511.05713 3559.73511
3492.0 0.0002864 3511.03662 3562.47656
3448.0 0.0002900 3511.01611 3565.46387
3489.0 0.0002866 3510.99536 3568.72729
3550.0 0.0002817 3510.97461 3572.30371
3516.0 0.0002844 3510.95313 3576.23291
3527.0 0.0002835 3510.93164 3580.56519
3483.0 0.0002871 3510.90967 3585.35767
3491.0 0.0002865 3510.88721 3590.67969
3570.0 0.0002801 3510.86426 3596.61377
3655.0 0.0002736 3510.84058 3603.25928
3597.0 0.0002780 3510.81641 3610.73755
3536.0 0.0002828 3510.79150 3619.19824
3491.0 0.0002865 3510.76563 3630.31763
3536.0 0.0002828 3510.73926 3641.37817
3590.0 0.0002786 3510.71191 3654.12964
3635.0 0.0002751 3510.68335 3668.94775
3717.0 0.0002690 3510.65405 3686.32446
3717.0 0.0002690 3510.62378 3706.92407
3603.0 0.0002775 3510.59204 3731.69995
3668.0 0.0002726 3510.55933 3762.18628
3746.0 0.0002670 3510.52563 3801.20801
3865.0 0.0002587 3510.49023 3854.49927
3796.0 0.0002634 3510.45386 3933.76099
3964.0 0.0002523 3510.41602 4061.03979
4235.0 0.0002361 3510.37646 4272.28613
4506.0 0.0002219 3510.33569 4615.04150
5126.0 0.0001951 3510.29321 5134.30029
5942.0 0.0001683 3510.24927 5844.96973
6784.0 0.0001474 3510.20361 6696.22949
7547.0 0.0001325 3510.15649 7534.61230
8020.0 0.0001247 3510.10718 8096.52686
7926.0 0.0001262 3510.05640 8148.66406
7400.0 0.0001351 3510.00366 7751.56543
7061.0 0.0001416 3509.94897 7237.83594
6920.0 0.0001445 3509.89258 6953.74023
7063.0 0.0001416 3509.83398 7147.35449
7948.0 0.0001258 3509.77319 7951.70020
9302.0 0.0001075 3509.71045 9352.23047
11202.0 0.0000893 3509.64575 11134.21387
12708.0 0.0000787 3509.57861 12821.00293
13357.0 0.0000749 3509.50928 13703.41211
12477.0 0.0000801 3509.43774 13259.54492
10808.0 0.0000925 3509.36401 11704.90723
9339.0 0.0001071 3509.28760 9725.55664
7894.0 0.0001267 3509.20898 7873.92285
6981.0 0.0001432 3509.12793 6415.54199
6006.0 0.0001665 3509.04419 5402.73682
5219.0 0.0001916 3508.95825 4764.86230
4647.0 0.0002152 3508.86938 4387.75439
4228.0 0.0002365 3508.77808 4167.86621
4076.0 0.0002453 3508.68408 4033.84473
4018.0 0.0002489 3508.58740 3944.88110
3863.0 0.0002589 3508.48804 3880.41333
3808.0 0.0002626 3508.38574 3830.66382
3819.0 0.0002618 3508.28076 3790.82227
3781.0 0.0002645 3508.17285 3758.22656
3671.0 0.0002724 3508.06226 3731.18311
3733.0 0.0002679 3507.94849 3708.50610
3674.0 0.0002722 3507.83203 3689.32153
3691.0 0.0002709 3507.71240 3672.96558
3651.0 0.0002739 3507.58960 3658.92871
3676.0 0.0002720 3507.46411 3646.81323
3531.0 0.0002832 3507.33521 3636.54761
3578.0 0.0002795 3507.20337 3627.40723
3612.0 0.0002769 3507.06836 3619.43066
3529.0 0.0002834 3506.92993 3612.45752
3676.0 0.0002720 3506.78857 3606.36011
3607.0 0.0002772 3506.64380 3601.03564
3591.0 0.0002785 3506.49585 3596.40259
3618.0 0.0002764 3506.34448 3592.39526
3634.0 0.0002752 3506.18994 3588.96387
3607.0 0.0002772 3506.03198 3587.26245
3555.0 0.0002813 3505.87061 3584.91504
3505.0 0.0002853 3505.70581 3583.07202
3526.0 0.0002836 3505.53760 3581.73291
3433.0 0.0002913 3505.36597 3580.91064
3624.0 0.0002759 3505.19067 3580.63330
3531.0 0.0002832 3505.01196 3580.94629
3521.0 0.0002840 3504.82983 3581.91602
3507.0 0.0002851 3504.64404 3583.63696
3529.0 0.0002834 3504.45483 3586.23999
3620.0 0.0002762 3504.26172 3589.90625
3529.0 0.0002834 3504.06519 3594.89111
3596.0 0.0002781 3503.86499 3601.57886
3480.0 0.0002874 3503.66138 3610.60645
3595.0 0.0002782 3503.45386 3623.18750
3449.0 0.0002899 3503.24243 3641.84180
3751.0 0.0002666 3503.02759 3671.81152
3695.0 0.0002706 3502.80884 3723.14893
3706.0 0.0002698 3502.58643 3812.56714
3933.0 0.0002543 3502.36060 3962.75317
4169.0 0.0002399 3502.13062 4196.19775
4479.0 0.0002233 3501.89673 4522.40234
4987.0 0.0002005 3501.65942 4920.63281
5417.0 0.0001846 3501.41797 5321.05371
5475.0 0.0001826 3501.17285 5595.09863
5653.0 0.0001769 3500.92407 5608.91162
5407.0 0.0001849 3500.67114 5353.15918
4935.0 0.0002026 3500.41455 4955.77930
4606.0 0.0002171 3500.15405 4551.11719
4253.0 0.0002351 3499.88965 4214.62891
4112.0 0.0002432 3499.62134 3970.73389
3927.0 0.0002546 3499.34937 3811.91064
3806.0 0.0002627 3499.07324 3716.16089
3735.0 0.0002677 3498.79321 3660.36890
3638.0 0.0002749 3498.50952 3627.12598
3608.0 0.0002772 3498.22168 3605.80957
3653.0 0.0002737 3497.92993 3590.82935
3606.0 0.0002773 3497.63452 3579.48853
3627.0 0.0002757 3497.33496 3570.49243
3671.0 0.0002724 3497.03149 3563.16235
3567.0 0.0002803 3496.72412 3557.09155
3625.0 0.0002759 3496.41284 3552.00391
3614.0 0.0002767 3496.09766 3544.73755
3555.0 0.0002813 3495.77856 3541.14307
3630.0 0.0002755 3495.45557 3538.07104
3532.0 0.0002831 3495.12842 3535.43604
3548.0 0.0002818 3494.79761 3533.17188
3565.0 0.0002805 3494.46289 3531.22632
3483.0 0.0002871 3494.12402 3529.56177
3644.0 0.0002744 3493.78149 3528.14722
3512.0 0.0002847 3493.43481 3526.96045
3502.0 0.0002856 3493.08423 3525.98730
3581.0 0.0002793 3492.72998 3518.15942
3594.0 0.0002782 3492.37158 3517.75439
3412.0 0.0002931 3492.00952 3517.54297
3473.0 0.0002879 3491.64355 3517.53149
3388.0 0.0002952 3491.27344 3517.73291
3637.0 0.0002750 3490.89990 3518.16650
3489.0 0.0002866 3490.52197 3518.85962
3537.0 0.0002827 3490.14063 3519.85059
3680.0 0.0002717 3489.75513 3521.19287
3551.0 0.0002816 3489.36621 3522.96069
3492.0 0.0002864 3488.97314 3525.26685
3542.0 0.0002823 3488.57642 3528.30273
3628.0 0.0002756 3488.17578 3532.42896
3568.0 0.0002803 3487.77148 3538.36523
3452.0 0.0002897 3487.36328 3547.48730
3612.0 0.0002769 3486.95142 3562.15259
3611.0 0.0002769 3486.53589 3585.76001
3708.0 0.0002697 3486.11646 3622.10767
3721.0 0.0002687 3485.69336 3673.75562
3708.0 0.0002697 3485.26685 3739.61060
3823.0 0.0002616 3484.83618 3812.20898
3876.0 0.0002580 3484.40210 3875.61743
3924.0 0.0002548 3483.96460 3910.07935
3834.0 0.0002608 3483.52319 3911.59277
3928.0 0.0002546 3483.07813 3904.74341
3790.0 0.0002639 3482.62964 3926.79639
4092.0 0.0002444 3482.17749 4010.47534
4125.0 0.0002424 3481.72168 4176.28467
4405.0 0.0002270 3481.26245 4424.13818
4787.0 0.0002089 3480.79980 4722.42139
5109.0 0.0001957 3480.33350 4996.35156
5163.0 0.0001937 3479.86401 5133.38525
4889.0 0.0002045 3479.39063 5054.38867
4706.0 0.0002125 3478.91431 4799.73340
4453.0 0.0002246 3478.43433 4480.36230
4347.0 0.0002300 3477.95093 4182.98682
4132.0 0.0002420 3477.46411 3948.67358
3948.0 0.0002533 3476.97412 3785.27466
3733.0 0.0002679 3476.48071 3681.59937
3755.0 0.0002663 3475.98413 3619.68140
3699.0 0.0002703 3475.48438 3583.14453
3536.0 0.0002828 3474.98120 3560.60083
3512.0 0.0002847 3474.47485 3545.46167
3489.0 0.0002866 3473.96533 3534.36475
3569.0 0.0002802 3473.45288 3525.69287
3536.0 0.0002828 3472.93701 3518.64600
3440.0 0.0002907 3472.41797 3512.78198
3483.0 0.0002871 3471.89600 3507.82056
3564.0 0.0002806 3471.37109 3503.62598
3518.0 0.0002843 3470.84302 3499.93604
3518.0 0.0002843 3470.31201 3496.69995
3512.0 0.0002847 3469.77808 3493.83374
3431.0 0.0002915 3469.24121 3491.27173
3480.0 0.0002874 3468.70166 3488.96143
3563.0 0.0002807 3468.15894 3487.33179
3518.0 0.0002843 3467.61328 3485.42139
3456.0 0.0002894 3467.06519 3482.16577
3344.0 0.0002990 3466.51392 3480.69263
3478.0 0.0002875 3465.96021 3479.21021
3499.0 0.0002858 3465.40356 3477.82202
3496.0 0.0002860 3464.84448 3476.51538
3491.0 0.0002865 3464.28271 3475.28052
3564.0 0.0002806 3463.71826 3474.10742
3489.0 0.0002866 3463.15112 3472.98901
3458.0 0.0002892 3462.58154 3471.91919
3412.0 0.0002931 3462.00952 3470.89233
3435.0 0.0002911 3461.43481 3469.90283
3513.0 0.0002847 3460.85791 3468.94702
3506.0 0.0002852 3460.27856 3468.02197
3496.0 0.0002860 3459.69678 3467.12378
3431.0 0.0002915 3459.11255 3466.25024
3494.0 0.0002862 3458.52612 3465.39844
3441.0 0.0002906 3457.93726 3464.56714
3462.0 0.0002889 3457.34619 3463.75342
3401.0 0.0002940 3456.75293 3462.95679
3463.0 0.0002888 3456.15771 3462.17554
3424.0 0.0002921 3455.56006 3461.40771
3411.0 0.0002932 3454.96069 3460.65356
3361.0 0.0002975 3454.35889 3459.91113
3414.0 0.0002929 3453.75537 3459.18042
3447.0 0.0002901 3453.14966 3458.45972
3447.0 0.0002901 3452.54199 3457.74951
3477.0 0.0002876 3451.93237 3457.04858
3354.0 0.0002982 3451.32104 3456.35693
3405.0 0.0002937 3450.70776 3455.67358
3441.0 0.0002906 3450.09277 3454.99927
3421.0 0.0002923 3449.47607 3454.33374
3448.0 0.0002900 3448.85742 3453.67578
3409.0 0.0002933 3448.23730 3453.02563
3374.0 0.0002964 3447.61523 3452.38428
3408.0 0.0002934 3446.99194 3451.75122
3381.0 0.0002958 3446.36670 3451.12622
3469.0 0.0002883 3445.74023 3450.51074
3388.0 0.0002952 3445.11206 3449.90356
3456.0 0.0002894 3444.48242 3449.30566
3390.0 0.0002950 3443.85156 3448.71802
3390.0 0.0002950 3443.21924 3448.14111
3385.0 0.0002954 3442.58545 3447.57495
3422.0 0.0002922 3441.95044 3447.02124
3512.0 0.0002847 3441.31421 3446.48071
3513.0 0.0002847 3440.67651 3446.12061
3385.0 0.0002954 3440.03784 3445.61353
3372.0 0.0002966 3439.39795 3445.12451
3406.0 0.0002936 3438.75708 3444.65430
3422.0 0.0002922 3438.11499 3444.20532
3402.0 0.0002939 3437.47192 3443.54077
3438.0 0.0002909 3436.82788 3443.14795
3463.0 0.0002888 3436.18286 3443.33984
3444.0 0.0002904 3435.53687 3443.02466
3419.0 0.0002925 3434.88989 3442.74927
3406.0 0.0002936 3434.24219 3442.51953
3393.0 0.0002947 3433.59375 3442.34253
3389.0 0.0002951 3432.94458 3442.22632
3409.0 0.0002933 3432.29468 3442.18164
3537.0 0.0002827 3431.64380 3441.02222
3394.0 0.0002946 3430.99268 3441.19043
3311.0 0.0003020 3430.34058 3441.47852
3385.0 0.0002954 3429.68823 3441.91162
3435.0 0.0002911 3429.03516 3442.52393
3523.0 0.0002838 3428.38159 3443.36304
3386.0 0.0002953 3427.72778 3444.50220
3443.0 0.0002904 3427.07324 3446.06641
3518.0 0.0002843 3426.41870 3448.27930
3453.0 0.0002896 3425.76343 3451.54102
3424.0 0.0002921 3425.10815 3456.50391
3447.0 0.0002901 3424.45239 3464.08789
3360.0 0.0002976 3423.79639 3475.35498
3524.0 0.0002838 3423.14063 3491.22192
3485.0 0.0002869 3422.48413 3512.13843
3549.0 0.0002818 3421.82788 3537.87866
3553.0 0.0002815 3421.17163 3567.62842
3592.0 0.0002784 3420.51514 3601.61255
3689.0 0.0002711 3419.85864 3645.27344
3699.0 0.0002703 3419.20215 3709.60962
3760.0 0.0002660 3418.54590 3803.25171
3834.0 0.0002608 3417.88965 3923.93164
4013.0 0.0002492 3417.23364 4052.16895
4147.0 0.0002411 3416.57788 4148.53418
4076.0 0.0002453 3415.92212 4170.79932
3989.0 0.0002507 3415.26685 4110.80078
3881.0 0.0002577 3414.61157 3996.06421
3636.0 0.0002750 3413.95679 3861.28247
3619.0 0.0002763 3413.30249 3735.04834
3627.0 0.0002757 3412.64844 3633.73730
3652.0 0.0002738 3411.99512 3561.07007
3558.0 0.0002811 3411.34204 3513.06470
3447.0 0.0002901 3410.68945 3482.99756
3511.0 0.0002848 3410.03735 3464.48779
3461.0 0.0002889 3409.38599 3452.80078
3438.0 0.0002909 3408.73511 3444.94995
3482.0 0.0002872 3408.08496 3439.25952
3312.0 0.0003019 3407.43530 3434.85742
3386.0 0.0002953 3406.78662 3431.29810
3333.0 0.0003000 3406.13867 3428.34009
3419.0 0.0002925 3405.49146 3425.83911
3389.0 0.0002951 3404.84497 3423.70190
3476.0 0.0002877 3404.19946 3421.85986
3389.0 0.0002951 3403.55469 3420.26489
3381.0 0.0002958 3402.91089 3418.94067
3497.0 0.0002860 3402.26807 3417.74072
3408.0 0.0002934 3401.62622 3416.70435
3414.0 0.0002929 3400.98560 3415.81909
3436.0 0.0002910 3400.34595 3415.07642
3345.0 0.0002990 3399.70703 3414.47339
3353.0 0.0002982 3399.06958 3414.01099
3310.0 0.0003021 3398.43311 3413.69385
3417.0 0.0002927 3397.79785 3413.53320
3438.0 0.0002909 3397.16357 3413.54565
3363.0 0.0002974 3396.53076 3413.75317
3339.0 0.0002995 3395.89941 3414.18848
3477.0 0.0002876 3395.26904 3414.89624
3485.0 0.0002869 3394.64014 3415.94116
3366.0 0.0002971 3394.01245 3417.42578
3440.0 0.0002907 3393.38623 3419.53076
3457.0 0.0002893 3392.76147 3422.60034
3434.0 0.0002912 3392.13794 3427.29639
3432.0 0.0002914 3391.51611 3434.80542
3486.0 0.0002869 3390.89575 3446.99438
3452.0 0.0002897 3390.27686 3466.29980
3498.0 0.0002859 3389.65942 3495.12744
3568.0 0.0002803 3389.04370 3534.77100
3598.0 0.0002779 3388.42944 3584.14258
3643.0 0.0002745 3387.81689 3638.50708
3722.0 0.0002687 3387.20605 3689.29761
3759.0 0.0002660 3386.59668 3730.32593
3878.0 0.0002579 3385.98926 3769.46753
3729.0 0.0002682 3385.38354 3825.09180
4122.0 0.0002426 3384.77954 3908.11084
4082.0 0.0002450 3384.17725 4010.57324
4289.0 0.0002332 3383.57690 4101.01709
4212.0 0.0002374 3382.97827 4131.24072
4082.0 0.0002450 3382.38135 4073.27783
3968.0 0.0002520 3381.78638 3950.71729
3845.0 0.0002601 3381.19336 3809.59058
3825.0 0.0002614 3380.60254 3682.50903
3712.0 0.0002694 3380.01318 3583.79639
3741.0 0.0002673 3379.42603 3515.14990
3684.0 0.0002714 3378.84082 3471.25952
3587.0 0.0002788 3378.25757 3444.54858
3581.0 0.0002793 3377.67627 3428.30859
3525.0 0.0002837 3377.09741 3417.91504
3393.0 0.0002947 3376.52026 3410.68164
3453.0 0.0002896 3375.94531 3405.21948
3409.0 0.0002933 3375.37256 3400.84790
3426.0 0.0002919 3374.80176 3397.22070
3448.0 0.0002900 3374.23315 3394.14160
3291.0 0.0003039 3373.66675 3391.48535
3343.0 0.0002991 3373.10254 3389.16284
3390.0 0.0002950 3372.54053 3387.10913
3345.0 0.0002990 3371.98071 3385.27393
3429.0 0.0002916 3371.42310 3383.61816
3375.0 0.0002963 3370.86792 3382.11304
3407.0 0.0002935 3370.31470 3380.73315
3421.0 0.0002923 3369.76392 3379.46094
3381.0 0.0002958 3369.21533 3378.22192
3386.0 0.0002953 3368.66919 3377.12256
3293.0 0.0003037 3368.12549 3376.09424
3322.0 0.0003010 3367.58398 3375.12793
3368.0 0.0002969 3367.04492 3374.21777
3405.0 0.0002937 3366.50806 3373.35864
3446.0 0.0002902 3365.97388 3372.54736
3398.0 0.0002943 3365.44189 3371.31250
3392.0 0.0002948 3364.91235 3370.60083
3437.0 0.0002910 3364.38525 3369.81201
3398.0 0.0002943 3363.86060 3369.18994
3489.0 0.0002866 3363.33838 3368.61401
3454.0 0.0002895 3362.81860 3368.08838
3420.0 0.0002924 3362.30127 3367.61890
3370.0 0.0002967 3361.78662 3367.21606
3457.0 0.0002893 3361.27441 3366.89502
3266.0 0.0003062 3360.76465 3366.68286
3409.0 0.0002933 3360.25732 3366.63354
3364.0 0.0002973 3359.75244 3366.85693
3394.0 0.0002946 3359.25049 3367.57275
3416.0 0.0002927 3358.75073 3369.18066
3288.0 0.0003041 3358.25366 3372.30811
3280.0 0.0003049 3357.75928 3377.75342
3312.0 0.0003019 3357.26733 3386.24048
3394.0 0.0002946 3356.77783 3397.97144
3458.0 0.0002892 3356.29126 3412.04932
3326.0 0.0003007 3355.80688 3425.81787
3531.0 0.0002832 3355.32544 3434.56885
3437.0 0.0002910 3354.84644 3433.71997
3422.0 0.0002922 3354.37012 3423.42334
3343.0 0.0002991 3353.89624 3408.40967
3379.0 0.0002959 3353.42529 3393.31152
3409.0 0.0002933 3352.95679 3380.66235
3434.0 0.0002912 3352.49097 3371.27148
3354.0 0.0002982 3352.02759 3364.88696
3397.0 0.0002944 3351.56714 3360.76807
3367.0 0.0002970 3351.10913 3358.11963
3398.0 0.0002943 3350.65381 3356.32739
3384.0 0.0002955 3350.20142 3355.37866
3321.0 0.0003011 3349.75146 3354.31787
3364.0 0.0002973 3349.30420 3353.40723
3327.0 0.0003006 3348.85938 3352.59424
3363.0 0.0002974 3348.41748 3351.85156
3318.0 0.0003014 3347.97827 3351.16235
3399.0 0.0002942 3347.54150 3350.58057
3400.0 0.0002941 3347.10742 3349.97021
3427.0 0.0002918 3346.67627 3349.38818
3421.0 0.0002923 3346.24756 3348.83008
3288.0 0.0003041 3345.82153 3348.29224
3519.0 0.0002842 3345.39819 3347.77197
3469.0 0.0002883 3344.97754 3347.26758
3256.0 0.0003071 3344.55957 3346.77588
3379.0 0.0002959 3344.14429 3346.29688
3375.0 0.0002963 3343.73169 3345.66211
3294.0 0.0003036 3343.32153 3345.20728
3274.0 0.0003054 3342.91431 3344.76245
3356.0 0.0002980 3342.50952 3344.32520
3322.0 0.0003010 3342.10742 3343.89624
3278.0 0.0003051 3341.70801 3343.47437
3350.0 0.0002985 3341.31128 3342.50562
3450.0 0.0002899 3340.91724 3342.11084
3420.0 0.0002924 3340.52563 3341.72217
3318.0 0.0003014 3340.13696 3341.33911
3253.0 0.0003074 3339.75073 3340.96265
3295.0 0.0003035 3339.36719 3340.59131
3323.0 0.0003009 3338.98608 3340.22583
3330.0 0.0003003 3338.60767 3339.86548
3347.0 0.0002988 3338.23193 3339.51123
3431.0 0.0002915 3337.85889 3339.16211
3427.0 0.0002918 3337.48828 3338.81885
3263.0 0.0003065 3337.12036 3338.48145
3367.0 0.0002970 3336.75488 3338.14941
3351.0 0.0002984 3336.39209 3337.82397
3389.0 0.0002951 3336.03198 3337.50439
3302.0 0.0003028 3335.67407 3337.19116
3390.0 0.0002950 3335.31909 3336.88403
3306.0 0.0003025 3334.96631 3336.58398
3309.0 0.0003022 3334.61646 3336.29077
3418.0 0.0002926 3334.26880 3336.00488
3360.0 0.0002976 3333.92383 3335.72681
3331.0 0.0003002 3333.58154 3335.45703
3327.0 0.0003006 3333.24146 3335.19580
3332.0 0.0003001 3332.90405 3334.94360
3361.0 0.0002975 3332.56885 3334.70093
3272.0 0.0003056 3332.23633 3334.46924
3337.0 0.0002997 3331.90625 3334.24854
3354.0 0.0002982 3331.57861 3334.03979
3359.0 0.0002977 3331.25342 3333.84546
3316.0 0.0003016 3330.93066 3333.66479
3360.0 0.0002976 3330.61035 3333.50000
3291.0 0.0003039 3330.29248 3333.35303
3298.0 0.0003032 3329.97681 3333.22607
3367.0 0.0002970 3329.66382 3333.12012
3373.0 0.0002965 3329.35303 3333.03882
3480.0 0.0002874 3329.04443 3332.98511
3295.0 0.0003035 3328.73853 3332.96289
3380.0 0.0002959 3328.43481 3332.97607
3302.0 0.0003028 3328.13330 3333.02979
3351.0 0.0002984 3327.83423 3333.13110
3234.0 0.0003092 3327.53760 3333.28760
3324.0 0.0003008 3327.24292 3333.50854
3278.0 0.0003051 3326.95068 3333.80566
3352.0 0.0002983 3326.66089 3334.19385
3392.0 0.0002948 3326.37305 3334.69189
3185.0 0.0003140 3326.08740 3335.32227
3380.0 0.0002959 3325.80444 3336.11597
3241.0 0.0003085 3325.52319 3337.11279
3309.0 0.0003022 3325.24438 3338.36523
3302.0 0.0003028 3324.96753 3339.94727
3284.0 0.0003045 3324.69312 3341.97217
3322.0 0.0003010 3324.42065 3344.63159
3478.0 0.0002875 3324.15039 3348.23218
3327.0 0.0003006 3323.88208 3353.63574
3384.0 0.0002955 3323.61621 3362.21436
3323.0 0.0003009 3323.35229 3376.49219
3298.0 0.0003032 3323.09033 3400.28809
3433.0 0.0002913 3322.83032 3438.25220
3497.0 0.0002860 3322.57275 3494.32593
3614.0 0.0002767 3322.31689 3569.13281
3707.0 0.0002698 3322.06299 3656.70190
3799.0 0.0002632 3321.81128 3740.71631
3743.0 0.0002672 3321.56152 3793.58252
3799.0 0.0002632 3321.31372 3791.26147
3701.0 0.0002702 3321.06763 3738.96973
3703.0 0.0002701 3320.82373 3665.46411
3574.0 0.0002798 3320.58154 3595.66504
3548.0 0.0002818 3320.34131 3540.55444
3446.0 0.0002902 3320.10303 3499.52808
3445.0 0.0002903 3319.86646 3466.11963
3338.0 0.0002996 3319.63184 3435.80688
3355.0 0.0002981 3319.39917 3408.67090
3415.0 0.0002928 3319.16797 3386.00391
3412.0 0.0002931 3318.93896 3368.30420
3351.0 0.0002984 3318.71143 3355.29688
3371.0 0.0002966 3318.48560 3346.20410
3359.0 0.0002977 3318.26172 3342.82422
3349.0 0.0002986 3318.03955 3338.66284
3408.0 0.0002934 3317.81885 3335.72192
3221.0 0.0003105 3317.60010 3333.52295
3400.0 0.0002941 3317.38281 3331.78687
3299.0 0.0003031 3317.16724 3330.36011
3293.0 0.0003037 3316.95337 3329.15698
3373.0 0.0002965 3316.74097 3328.12549
3387.0 0.0002952 3316.53027 3327.53247
3398.0 0.0002943 3316.32129 3326.75830
3296.0 0.0003034 3316.11353 3326.07788
3310.0 0.0003021 3315.90747 3325.47583
3378.0 0.0002960 3315.70288 3324.94116
3404.0 0.0002938 3315.49976 3324.46460
3366.0 0.0002971 3315.29834 3324.03833
3346.0 0.0002989 3315.09814 3323.65601
3357.0 0.0002979 3314.89966 3323.31348
3427.0 0.0002918 3314.70239 3323.00610
3282.0 0.0003047 3314.50635 3322.73145
3256.0 0.0003071 3314.31201 3322.48584
3289.0 0.0003040 3314.11890 3322.26758
3403.0 0.0002939 3313.92725 3322.07495
3415.0 0.0002928 3313.73682 3321.90625
3238.0 0.0003088 3313.54785 3321.76050
3291.0 0.0003039 3313.35986 3321.63696
3236.0 0.0003090 3313.17334 3321.53516
3249.0 0.0003078 3312.98828 3321.45435
3303.0 0.0003028 3312.80420 3321.39502
3312.0 0.0003019 3312.62134 3321.35620
3248.0 0.0003079 3312.43994 3321.33887
3355.0 0.0002981 3312.25952 3321.34302
3279.0 0.0003050 3312.08008 3321.36865
3297.0 0.0003033 3311.90210 3321.41748
3260.0 0.0003067 3311.72510 3321.48950
3313.0 0.0003018 3311.54932 3321.58643
3200.0 0.0003125 3311.37451 3321.70898
3249.0 0.0003078 3311.20068 3321.85864
3335.0 0.0002999 3311.02832 3322.03711
3293.0 0.0003037 3310.85669 3322.24585
3330.0 0.0003003 3310.68604 3322.48755
3402.0 0.0002939 3310.51636 3322.76489
3328.0 0.0003005 3310.34790 3323.07959
3401.0 0.0002940 3310.18018 3323.43579
3406.0 0.0002936 3310.01343 3323.83667
3242.0 0.0003085 3309.84766 3324.28613
3453.0 0.0002896 3309.68286 3324.78882
3249.0 0.0003078 3309.51880 3325.35010
3292.0 0.0003038 3309.35571 3325.97607
3314.0 0.0003018 3309.19336 3326.67334
3310.0 0.0003021 3309.03198 3327.44995
3406.0 0.0002936 3308.87134 3328.31470
3264.0 0.0003064 3308.71143 3329.27856
3341.0 0.0002993 3308.55249 3330.35352
3297.0 0.0003033 3308.39429 3331.55347
3316.0 0.0003016 3308.23657 3332.89526
3392.0 0.0002948 3308.07983 3334.39819
3350.0 0.0002985 3307.92383 3336.08545
3264.0 0.0003064 3307.76831 3337.98413
3283.0 0.0003046 3307.61353 3340.12646
3281.0 0.0003048 3307.45947 3342.55200
3334.0 0.0002999 3307.30615 3345.30859
3487.0 0.0002868 3307.15308 3348.45264
3304.0 0.0003027 3307.00098 3352.05615
3244.0 0.0003083 3306.84937 3356.20630
3375.0 0.0002963 3306.69824 3361.01270
3368.0 0.0002969 3306.54785 3366.61401
3371.0 0.0002966 3306.39771 3373.18604
3319.0 0.0003013 3306.24829 3380.95605
3335.0 0.0002999 3306.09937 3390.22461
3382.0 0.0002957 3305.95093 3401.01172
3407.0 0.0002935 3305.80298 3414.66870
3410.0 0.0002933 3305.65552 3431.70020
3448.0 0.0002900 3305.50830 3453.68408
3372.0 0.0002966 3305.36157 3483.67627
3565.0 0.0002805 3305.21533 3527.75537
3532.0 0.0002831 3305.06958 3597.42383
3561.0 0.0002808 3304.92383 3712.10693
3895.0 0.0002567 3304.77881 3900.02686
4188.0 0.0002388 3304.63403 4193.20410
4621.0 0.0002164 3304.48950 4615.54199
5229.0 0.0001912 3304.34521 5163.83398
5909.0 0.0001692 3304.20142 5784.35352
6560.0 0.0001524 3304.05786 6346.44873
6566.0 0.0001523 3303.91431 6646.16357
6482.0 0.0001543 3303.77124 6534.21436
5894.0 0.0001697 3303.62842 6081.67920
5332.0 0.0001875 3303.48584 5499.51025
4915.0 0.0002035 3303.34326 4958.35840
4684.0 0.0002135 3303.20117 4541.03564
4396.0 0.0002275 3303.05908 4262.89404
4271.0 0.0002341 3302.91724 4094.40674
4010.0 0.0002494 3302.77539 3982.92627
3898.0 0.0002565 3302.63379 3882.41724
3824.0 0.0002615 3302.49219 3778.09741
3609.0 0.0002771 3302.35083 3677.72949
3592.0 0.0002784 3302.20947 3590.84741
3501.0 0.0002856 3302.06812 3521.91113
3489.0 0.0002866 3301.92700 3470.92700
3385.0 0.0002954 3301.78589 3435.06274
3428.0 0.0002917 3301.64478 3410.35352
3438.0 0.0002909 3301.50366 3393.08765
3427.0 0.0002918 3301.36279 3380.49438
3390.0 0.0002950 3301.22168 3370.80518
3317.0 0.0003015 3301.08057 3362.99585
3293.0 0.0003037 3300.93945 3356.49463
3443.0 0.0002904 3300.79834 3350.97095
3277.0 0.0003052 3300.65723 3346.21484
3253.0 0.0003074 3300.51587 3342.07910
3324.0 0.0003008 3300.37451 3338.45459
3370.0 0.0002967 3300.23315 3335.25610
3363.0 0.0002974 3300.09155 3332.41577
3426.0 0.0002919 3299.94995 3329.87915
3367.0 0.0002970 3299.80835 3327.60132
3413.0 0.0002930 3299.66626 3325.54639
3396.0 0.0002945 3299.52441 3323.68359
3333.0 0.0003000 3299.38208 3321.98853
3369.0 0.0002968 3299.23975 3320.43872
3443.0 0.0002904 3299.09741 3319.01758
3386.0 0.0002953 3298.95459 3317.70850
3398.0 0.0002943 3298.81177 3316.49976
3384.0 0.0002955 3298.66870 3315.37964
3259.0 0.0003068 3298.52515 3314.33813
3326.0 0.0003007 3298.38184 3313.36743
3351.0 0.0002984 3298.23804 3312.45996
3304.0 0.0003027 3298.09375 3311.60938
3431.0 0.0002915 3297.94946 3310.80981
3392.0 0.0002948 3297.80493 3310.05713
3340.0 0.0002994 3297.66016 3309.34619
3261.0 0.0003067 3297.51489 3308.67310
3314.0 0.0003018 3297.36963 3308.03564
3289.0 0.0003040 3297.22388 3307.42896
3249.0 0.0003078 3297.07764 3306.85156
3347.0 0.0002988 3296.93140 3306.30078
3310.0 0.0003021 3296.78467 3305.77417
3219.0 0.0003107 3296.63770 3305.27002
3351.0 0.0002984 3296.49023 3304.78638
3278.0 0.0003051 3296.34253 3304.32178
3342.0 0.0002992 3296.19434 3303.87451
3276.0 0.0003053 3296.04590 3303.44360
3291.0 0.0003039 3295.89697 3303.02759
3319.0 0.0003013 3295.74780 3302.73804
3302.0 0.0003028 3295.59814 3302.35132
3273.0 0.0003055 3295.44824 3301.97705
3287.0 0.0003042 3295.29785 3301.61377
3307.0 0.0003024 3295.14697 3301.26074
3171.0 0.0003154 3294.99561 3300.91772
3251.0 0.0003076 3294.84399 3300.64673
3273.0 0.0003055 3294.69189 3300.32300
3248.0 0.0003079 3294.53931 3300.00659
3212.0 0.0003113 3294.38623 3299.69849
3257.0 0.0003070 3294.23291 3299.39697
3420.0 0.0002924 3294.07886 3299.10229
3262.0 0.0003066 3293.92456 3298.81372
3270.0 0.0003058 3293.76978 3298.53101
3272.0 0.0003056 3293.61450 3298.25366
3337.0 0.0002997 3293.45874 3297.98193
3268.0 0.0003060 3293.30225 3297.71436
3227.0 0.0003099 3293.14551 3297.45239
3271.0 0.0003057 3292.98828 3297.19434
3362.0 0.0002974 3292.83057 3296.94043
3361.0 0.0002975 3292.67236 3296.69092
3208.0 0.0003117 3292.51343 3296.44458
3321.0 0.0003011 3292.35425 3296.20239
3300.0 0.0003030 3292.19434 3295.96338
3312.0 0.0003019 3292.03418 3295.72778
3205.0 0.0003120 3291.87329 3295.49487
3270.0 0.0003058 3291.71191 3292.43384
3211.0 0.0003114 3291.55005 3292.27441
3284.0 0.0003045 3291.38745 3292.11523
3290.0 0.0003040 3291.22461 3291.95703
3265.0 0.0003063 3291.06104 3291.79907
3349.0 0.0002986 3290.89697 3291.64185
3403.0 0.0002939 3290.73242 3291.48511
3251.0 0.0003076 3290.56714 3291.32910
3417.0 0.0002927 3290.40137 3290.87036
3261.0 0.0003067 3290.23511 3290.72290
3309.0 0.0003022 3290.06836 3290.57617
3259.0 0.0003068 3289.90088 3290.43018
3279.0 0.0003050 3289.73315 3290.28516
3290.0 0.0003040 3289.56445 3290.14111
3308.0 0.0003023 3289.39551 3289.99780
3231.0 0.0003095 3289.22583 3289.85596
3284.0 0.0003045 3289.05566 3289.71558
3243.0 0.0003084 3288.88477 3289.57642
3407.0 0.0002935 3288.71338 3289.43945
3423.0 0.0002921 3288.54150 3289.30444
3438.0 0.0002909 3288.36890 3289.17188
3455.0 0.0002894 3288.19580 3289.04175
3393.0 0.0002947 3288.02222 3288.91431
3338.0 0.0002996 3287.84790 3288.79077
3312.0 0.0003019 3287.67310 3288.67090
3319.0 0.0003013 3287.49756 3291.16675
3304.0 0.0003027 3287.32178 3291.12012
3262.0 0.0003066 3287.14502 3291.08179
3330.0 0.0003003 3286.96802 3291.05273
3392.0 0.0002948 3286.79028 3291.03345
3334.0 0.0002999 3286.61182 3291.02563
3249.0 0.0003078 3286.43311 3291.03076
3236.0 0.0003090 3286.25342 3291.05054
3183.0 0.0003142 3286.07349 3291.08740
3272.0 0.0003056 3285.89282 3291.14282
3275.0 0.0003053 3285.71143 3291.22119
3252.0 0.0003075 3285.52979 3291.32544
3243.0 0.0003084 3285.34741 3291.45996
3327.0 0.0003006 3285.16431 3291.63086
3240.0 0.0003086 3284.98071 3291.84424
3255.0 0.0003072 3284.79663 3292.10986
3232.0 0.0003094 3284.61206 3292.43799
3319.0 0.0003013 3284.42676 3292.84399
3187.0 0.0003138 3284.24072 3293.34766
3307.0 0.0003024 3284.05444 3293.97729
3370.0 0.0002967 3283.86743 3294.77905
3315.0 0.0003017 3283.67993 3295.83423
3274.0 0.0003054 3283.49170 3297.29785
3333.0 0.0003000 3283.30298 3299.46753
3238.0 0.0003088 3283.11377 3302.87524
3264.0 0.0003064 3282.92383 3308.36157
3273.0 0.0003055 3282.73340 3317.04883
3316.0 0.0003016 3282.54248 3330.09888
3374.0 0.0002964 3282.35107 3348.22534
3368.0 0.0002969 3282.15894 3371.01465
3361.0 0.0002975 3281.96631 3396.09277
3375.0 0.0002963 3281.77319 3418.24731
3445.0 0.0002903 3281.57935 3430.43188
3362.0 0.0002974 3281.38501 3429.53809
3320.0 0.0003012 3281.19019 3420.31689
3438.0 0.0002909 3280.99487 3409.82739
3376.0 0.0002962 3280.79907 3401.44263
3367.0 0.0002970 3280.60254 3393.87793
3279.0 0.0003050 3280.40576 3383.47314
3284.0 0.0003045 3280.20825 3368.80078
3242.0 0.0003085 3280.01001 3352.22705
3217.0 0.0003108 3279.81152 3336.76196
3282.0 0.0003047 3279.61255 3324.07715
3380.0 0.0002959 3279.41284 3314.64600
3201.0 0.0003124 3279.21289 3308.20752
3275.0 0.0003053 3279.01221 3304.13013
3272.0 0.0003056 3278.81104 3301.70654
3453.0 0.0002896 3278.60962 3300.34814
3335.0 0.0002999 3278.40747 3299.64941
3316.0 0.0003016 3278.20483 3299.37061
3264.0 0.0003064 3278.00171 3299.38525
3323.0 0.0003009 3277.79810 3299.63110
3197.0 0.0003128 3277.59399 3300.07935
3286.0 0.0003043 3277.38940 3300.71899
3313.0 0.0003018 3277.18433 3301.54980
3273.0 0.0003055 3276.97876 3302.57788
3210.0 0.0003115 3276.77271 3303.81592
3308.0 0.0003023 3276.56616 3305.28296
3321.0 0.0003011 3276.35938 3307.00439
3269.0 0.0003059 3276.15210 3309.01392
3238.0 0.0003088 3275.94409 3311.35278
3284.0 0.0003045 3275.73584 3314.07373
3328.0 0.0003005 3275.52710 3317.24316
3294.0 0.0003036 3275.31787 3320.94458
3359.0 0.0002977 3275.10840 3325.28320
3231.0 0.0003095 3274.89819 3330.39307
3303.0 0.0003028 3274.68774 3336.44702
3282.0 0.0003047 3274.47681 3343.66943
3321.0 0.0003011 3274.26538 3352.36084
3305.0 0.0003026 3274.05371 3362.93750
3389.0 0.0002951 3273.84155 3376.01855
3361.0 0.0002975 3273.62891 3392.63354
3450.0 0.0002899 3273.41602 3414.67749
3504.0 0.0002854 3273.20264 3445.84644
3603.0 0.0002775 3272.98877 3493.20947
3586.0 0.0002789 3272.77466 3569.23438
3514.0 0.0002846 3272.56006 3693.19800
3885.0 0.0002574 3272.34521 3889.88428
4124.0 0.0002425 3272.12988 4183.29199
4644.0 0.0002153 3271.91431 4584.67871
5119.0 0.0001954 3271.69824 5076.34766
5933.0 0.0001685 3271.48169 5591.52246
6193.0 0.0001615 3271.26514 5995.28320
6121.0 0.0001634 3271.04785 6126.74268
5828.0 0.0001716 3270.83057 5901.16064
5121.0 0.0001953 3270.61279 5443.55420
4619.0 0.0002165 3270.39453 4924.20361
4496.0 0.0002224 3270.17603 4456.07471
4336.0 0.0002306 3269.95728 4088.09204
4103.0 0.0002437 3269.73828 3826.90088
3988.0 0.0002508 3269.51880 3660.23657
3810.0 0.0002625 3269.29883 3553.74854
3670.0 0.0002725 3269.07886 3488.43481
3447.0 0.0002901 3268.85864 3447.18433
3395.0 0.0002946 3268.63794 3419.43384
3440.0 0.0002907 3268.41699 3399.38525
3408.0 0.0002934 3268.19580 3384.04688
3426.0 0.0002919 3267.97412 3371.87061
3411.0 0.0002932 3267.75244 3361.99219
3313.0 0.0003018 3267.53027 3353.87012
3353.0 0.0002982 3267.30786 3347.13208
3242.0 0.0003085 3267.08521 3341.50635
3352.0 0.0002983 3266.86255 3336.78687
3348.0 0.0002987 3266.63940 3332.81372
3298.0 0.0003032 3266.41602 3329.46411
3306.0 0.0003025 3266.19238 3326.64038
3238.0 0.0003088 3265.96851 3324.26538
3345.0 0.0002990 3265.74438 3322.27661
3355.0 0.0002981 3265.52002 3320.62598
3322.0 0.0003010 3265.29565 3319.27246
3255.0 0.0003072 3265.07080 3318.18359
3402.0 0.0002939 3264.84570 3317.33374
3298.0 0.0003032 3264.62061 3316.70215
3283.0 0.0003046 3264.39526 3316.27222
3395.0 0.0002946 3264.16968 3316.03101
3355.0 0.0002981 3263.94385 3315.85498
3335.0 0.0002999 3263.71777 3315.96533
3253.0 0.0003074 3263.49170 3316.24121
3315.0 0.0003017 3263.26538 3316.68018
3268.0 0.0003060 3263.03882 3317.28076
3387.0 0.0002952 3262.81226 3318.04395
3250.0 0.0003077 3262.58545 3318.90942
3254.0 0.0003073 3262.35840 3320.00806
3342.0 0.0002992 3262.13110 3321.28223
3380.0 0.0002959 3261.90381 3322.73926
3315.0 0.0003017 3261.67651 3324.38916
3376.0 0.0002962 3261.44873 3326.24390
3276.0 0.0003053 3261.22119 3328.32275
3238.0 0.0003088 3260.99316 3330.63184
3253.0 0.0003074 3260.76538 3333.19507
3320.0 0.0003012 3260.53711 3336.03540
3301.0 0.0003029 3260.30884 3339.17871
3304.0 0.0003027 3260.08057 3342.66577
3338.0 0.0002996 3259.85205 3346.51147
3381.0 0.0002958 3259.62354 3350.76587
3425.0 0.0002920 3259.39502 3355.47681
3299.0 0.0003031 3259.16626 3360.69971
3351.0 0.0002984 3258.93750 3366.49878
3455.0 0.0002894 3258.70850 3372.94971
3384.0 0.0002955 3258.47949 3380.14282
3381.0 0.0002958 3258.25049 3388.18433
3335.0 0.0002999 3258.02148 3397.19995
3425.0 0.0002920 3257.79224 3407.34302
3478.0 0.0002875 3257.56299 3418.79663
3461.0 0.0002889 3257.33350 3431.78247
3326.0 0.0003007 3257.10425 3446.57495
3421.0 0.0002923 3256.87476 3463.51001
3558.0 0.0002811 3256.64526 3483.00757
3501.0 0.0002856 3256.41577 3505.59473
3480.0 0.0002874 3256.18628 3531.94312
3518.0 0.0002843 3255.95679 3562.91797
3533.0 0.0002830 3255.72729 3599.65796
3517.0 0.0002843 3255.49756 3643.71948
3737.0 0.0002676 3255.26807 3697.37402
3677.0 0.0002720 3255.03833 3764.28418
3623.0 0.0002760 3254.80884 3851.00708
3795.0 0.0002635 3254.57910 3970.03979
3885.0 0.0002574 3254.34937 4145.00781
4203.0 0.0002379 3254.11963 4417.50195
4524.0 0.0002210 3253.89014 4852.35840
5247.0 0.0001906 3253.66040 5534.71289
6290.0 0.0001590 3253.43091 6551.19092
7710.0 0.0001297 3253.20142 7952.30615
9825.0 0.0001018 3252.97168 9700.34180
12137.0 0.0000824 3252.74219 11604.58887
13794.0 0.0000725 3252.51270 13251.50879
13789.0 0.0000725 3252.28320 14064.98828
12856.0 0.0000778 3252.05371 13752.91113
11387.0 0.0000878 3251.82446 12661.40039
10467.0 0.0000955 3251.59521 11423.61230
10447.0 0.0000957 3251.36597 10480.41992
10853.0 0.0000921 3251.13672 9970.60840
11179.0 0.0000895 3250.90747 9776.20703
10593.0 0.0000944 3250.67847 9577.77441
9453.0 0.0001058 3250.44946 9058.44336
8084.0 0.0001237 3250.22046 8182.40234
6835.0 0.0001463 3249.99146 7157.77734
6059.0 0.0001650 3249.76270 6190.89795
5502.0 0.0001818 3249.53394 5390.60791
5115.0 0.0001955 3249.30542 4788.81592
4838.0 0.0002067 3249.07690 4368.92139
4581.0 0.0002183 3248.84839 4090.66699
4296.0 0.0002328 3248.62012 3909.82251
4187.0 0.0002388 3248.39185 3790.06641
3977.0 0.0002514 3248.16357 3706.64331
3710.0 0.0002695 3247.93555 3644.77197
3547.0 0.0002819 3247.70776 3596.32764
3541.0 0.0002824 3247.47998 3556.94409
3502.0 0.0002856 3247.25220 3524.16357
3474.0 0.0002879 3247.02466 3496.46460
3365.0 0.0002972 3246.79712 3472.80518
3387.0 0.0002952 3246.56982 3452.42065
3453.0 0.0002896 3246.34277 3434.72729
3292.0 0.0003038 3246.11572 3419.26758
3408.0 0.0002934 3245.88867 3405.68042
3300.0 0.0003030 3245.66211 3393.67407
3371.0 0.0002966 3245.43555 3383.01538
3194.0 0.0003131 3245.20898 3373.51245
3278.0 0.0003051 3244.98267 3365.01074
3473.0 0.0002879 3244.75635 3357.38403
3262.0 0.0003066 3244.53052 3350.53198
3292.0 0.0003038 3244.30469 3344.38159
3246.0 0.0003081 3244.07886 3338.88525
3249.0 0.0003078 3243.85352 3334.02246
3319.0 0.0003013 3243.62817 3329.79224
3366.0 0.0002971 3243.40308 3326.20117
3392.0 0.0002948 3243.17798 3323.24219
3299.0 0.0003031 3242.95313 3320.86670
3293.0 0.0003037 3242.72852 3318.94995
3291.0 0.0003039 3242.50415 3317.25586
3287.0 0.0003042 3242.27979 3315.53223
3327.0 0.0003006 3242.05591 3313.75854
3275.0 0.0003053 3241.83203 3312.15381
3174.0 0.0003151 3241.60840 3310.82251
3365.0 0.0002972 3241.38501 3309.50781
3296.0 0.0003034 3241.16162 3307.65552
3308.0 0.0003023 3240.93872 3304.89526
3256.0 0.0003071 3240.71582 3301.48169
3294.0 0.0003036 3240.49316 3297.98218
3364.0 0.0002973 3240.27075 3294.81592
3332.0 0.0003001 3240.04858 3292.17627
3441.0 0.0002906 3239.82666 3290.09863
3325.0 0.0003008 3239.60498 3288.53027
3302.0 0.0003028 3239.38354 3287.38403
3260.0 0.0003067 3239.16211 3286.57275
3381.0 0.0002958 3238.94116 3286.03149
3288.0 0.0003041 3238.72046 3285.72607
3237.0 0.0003089 3238.49976 3285.64038
3306.0 0.0003025 3238.27954 3285.77686
3355.0 0.0002981 3238.05933 3286.14893
3295.0 0.0003035 3237.83960 3286.77783
3280.0 0.0003049 3237.62012 3287.72852
3360.0 0.0002976 3237.40063 3288.97192
3278.0 0.0003051 3237.18164 3290.59253
3381.0 0.0002958 3236.96289 3292.65503
3393.0 0.0002947 3236.74438 3295.24316
3383.0 0.0002956 3236.52612 3298.46411
3413.0 0.0002930 3236.30811 3302.45923
3476.0 0.0002877 3236.09033 3307.41797
3378.0 0.0002960 3235.87280 3313.78906
3362.0 0.0002974 3235.65576 3321.62134
3409.0 0.0002933 3235.43872 3331.78125
3430.0 0.0002915 3235.22217 3345.54443
3405.0 0.0002937 3235.00586 3365.34521
3353.0 0.0002982 3234.78979 3395.66187
3442.0 0.0002905 3234.57397 3444.08838
3474.0 0.0002879 3234.35864 3521.50708
3667.0 0.0002727 3234.14331 3641.28027
3798.0 0.0002633 3233.92847 3815.21899
4129.0 0.0002422 3233.71411 4037.56885
4436.0 0.0002254 3233.49976 4315.28711
4782.0 0.0002091 3233.28589 4598.98535
4962.0 0.0002015 3233.07202 4813.36084
4901.0 0.0002040 3232.85889 4871.50635
4559.0 0.0002193 3232.64575 4752.01172
4308.0 0.0002321 3232.43311 4526.08789
4196.0 0.0002383 3232.22070 4279.41895
4140.0 0.0002415 3232.00879 4076.55933
4132.0 0.0002420 3231.79688 3930.18457
4153.0 0.0002408 3231.58569 3829.69507
3902.0 0.0002563 3231.37451 3748.92065
3894.0 0.0002568 3231.16382 3667.30029
3739.0 0.0002675 3230.95337 3583.42407
3518.0 0.0002843 3230.74341 3505.46338
3454.0 0.0002895 3230.53369 3439.58594
3449.0 0.0002899 3230.32446 3387.96606
3346.0 0.0002989 3230.11523 3349.95361
3319.0 0.0003013 3229.90674 3323.22095
3224.0 0.0003102 3229.69849 3304.82422
3278.0 0.0003051 3229.49048 3292.04883
3191.0 0.0003134 3229.28296 3282.84106
3258.0 0.0003069 3229.07568 3275.85718
3235.0 0.0003091 3228.86890 3270.30005
3274.0 0.0003054 3228.66235 3265.71753
3388.0 0.0002952 3228.45630 3261.84692
3341.0 0.0002993 3228.25073 3258.52734
3251.0 0.0003076 3228.04517 3255.64844
3162.0 0.0003163 3227.84033 3253.12915
3341.0 0.0002993 3227.63574 3250.90771
3318.0 0.0003014 3227.43164 3248.93652
3281.0 0.0003048 3227.22778 3247.17554
3279.0 0.0003050 3227.02441 3245.59448
3359.0 0.0002977 3226.82153 3244.16724
3346.0 0.0002989 3226.61890 3242.87256
3167.0 0.0003158 3226.41675 3241.69263
3297.0 0.0003033 3226.21484 3240.61426
3223.0 0.0003103 3226.01343 3239.62402
3275.0 0.0003053 3225.81250 3238.71216
3249.0 0.0003078 3225.61206 3237.86963
3223.0 0.0003103 3225.41187 3237.08960
3209.0 0.0003116 3225.21216 3236.36475
3230.0 0.0003096 3225.01294 3235.69116
3234.0 0.0003092 3224.81421 3235.06299
3200.0 0.0003125 3224.61572 3234.47144
3219.0 0.0003107 3224.41772 3233.92432
3186.0 0.0003139 3224.22021 3233.41235
3187.0 0.0003138 3224.02319 3232.93433
3263.0 0.0003065 3223.82666 3232.48755
3151.0 0.0003174 3223.63062 3232.06055
3292.0 0.0003038 3223.43481 3231.67236
3237.0 0.0003089 3223.23950 3231.31201
3254.0 0.0003073 3223.04468 3230.97852
3194.0 0.0003131 3222.85034 3230.67163
3192.0 0.0003133 3222.65649 3230.39136
3236.0 0.0003090 3222.46313 3230.13794
3333.0 0.0003000 3222.27026 3229.91235
3270.0 0.0003058 3222.07788 3229.71533
3248.0 0.0003079 3221.88599 3229.54907
3146.0 0.0003179 3221.69458 3229.41553
3271.0 0.0003057 3221.50342 3229.31714
3223.0 0.0003103 3221.31299 3229.25757
3293.0 0.0003037 3221.12305 3229.24194
3234.0 0.0003092 3220.93359 3229.27539
3250.0 0.0003077 3220.74463 3229.36597
3218.0 0.0003108 3220.55640 3229.77344
3307.0 0.0003024 3220.36841 3230.01587
3145.0 0.0003180 3220.18091 3230.35693
3217.0 0.0003108 3219.99414 3230.82471
3147.0 0.0003178 3219.80762 3231.46948
3250.0 0.0003077 3219.62183 3232.37549
3164.0 0.0003161 3219.43652 3233.69409
3288.0 0.0003041 3219.25195 3235.66797
3281.0 0.0003048 3219.06763 3238.64722
3115.0 0.0003210 3218.88403 3243.05469
3241.0 0.0003085 3218.70093 3249.28076
3283.0 0.0003046 3218.51831 3257.51294
3275.0 0.0003053 3218.33643 3267.51245
3196.0 0.0003129 3218.15479 3278.36328
3275.0 0.0003053 3217.97412 3289.23438
3369.0 0.0002968 3217.79370 3296.43872
3214.0 0.0003111 3217.61401 3301.38892
3279.0 0.0003050 3217.43506 3307.87402
3298.0 0.0003032 3217.25635 3320.67554
3346.0 0.0002989 3217.07837 3343.29565
3281.0 0.0003048 3216.90112 3376.88940
3445.0 0.0002903 3216.72437 3419.31616
3522.0 0.0002839 3216.54810 3462.16919
3450.0 0.0002899 3216.37256 3496.20459
3449.0 0.0002899 3216.19775 3507.31494
3538.0 0.0002826 3216.02344 3494.67114
3436.0 0.0002910 3215.84961 3469.66846
3443.0 0.0002904 3215.67676 3443.24170
3467.0 0.0002884 3215.50415 3418.74780
3347.0 0.0002988 3215.33252 3393.36768
3464.0 0.0002887 3215.16138 3365.38086
3404.0 0.0002938 3214.99072 3336.09448
3292.0 0.0003038 3214.82080 3308.73438
3337.0 0.0002997 3214.65161 3285.54077
3132.0 0.0003193 3214.48315 3267.33960
3308.0 0.0003023 3214.31543 3253.92236
3244.0 0.0003083 3214.14819 3244.49829
3284.0 0.0003045 3213.98169 3238.07031
3186.0 0.0003139 3213.81567 3233.69751
3223.0 0.0003103 3213.65063 3230.64746
3202.0 0.0003123 3213.48608 3228.41992
3176.0 0.0003149 3213.32227 3226.70752
3181.0 0.0003144 3213.15918 3225.33276
3165.0 0.0003160 3212.99683 3224.19507
3155.0 0.0003170 3212.83521 3223.23389
3225.0 0.0003101 3212.67432 3222.41187
3250.0 0.0003077 3212.51416 3221.70190
3175.0 0.0003150 3212.35449 3221.08472
3201.0 0.0003124 3212.19580 3220.54565
3154.0 0.0003171 3212.03784 3220.07251
3258.0 0.0003069 3211.88037 3219.65625
3179.0 0.0003146 3211.72388 3219.28979
3207.0 0.0003118 3211.56812 3218.96777
3226.0 0.0003100 3211.41309 3218.68506
3287.0 0.0003042 3211.25879 3218.43726
3121.0 0.0003204 3211.10522 3218.22241
3195.0 0.0003130 3210.95264 3218.03809
3186.0 0.0003139 3210.80078 3217.88232
3082.0 0.0003245 3210.64966 3217.75366
3209.0 0.0003116 3210.49927 3217.65186
3172.0 0.0003153 3210.34961 3217.57593
3184.0 0.0003141 3210.20093 3217.52539
3197.0 0.0003128 3210.05273 3217.50146
3234.0 0.0003092 3209.90576 3217.50293
3219.0 0.0003107 3209.75928 3217.53247
3259.0 0.0003068 3209.61377 3217.59082
3256.0 0.0003071 3209.46924 3217.67798
3234.0 0.0003092 3209.32520 3217.79663
3250.0 0.0003077 3209.18237 3217.95044
3194.0 0.0003131 3209.04028 3218.13989
3169.0 0.0003156 3208.89893 3218.37012
3207.0 0.0003118 3208.75830 3218.64453
3247.0 0.0003080 3208.61865 3218.96729
3171.0 0.0003154 3208.47998 3219.34448
3142.0 0.0003183 3208.34229 3219.78296
3181.0 0.0003144 3208.20532 3220.29053
3158.0 0.0003167 3208.06909 3220.87720
3253.0 0.0003074 3207.93384 3221.55396
3209.0 0.0003116 3207.79956 3222.33618
3244.0 0.0003083 3207.66626 3223.24048
3160.0 0.0003165 3207.53369 3224.28931
3246.0 0.0003081 3207.40210 3225.50928
3187.0 0.0003138 3207.27148 3226.96191
3168.0 0.0003157 3207.14185 3228.64038
3332.0 0.0003001 3207.01294 3230.63208
3298.0 0.0003032 3206.88501 3233.02637
3169.0 0.0003156 3206.75806 3235.96680
3167.0 0.0003158 3206.63208 3239.70654
3217.0 0.0003108 3206.50708 3244.71021
3161.0 0.0003164 3206.38306 3251.81641
3261.0 0.0003067 3206.26001 3262.42773
3294.0 0.0003036 3206.13794 3278.62183
3279.0 0.0003050 3206.01660 3302.99805
3342.0 0.0002992 3205.89648 3338.06396
3349.0 0.0002986 3205.77734 3385.12476
3455.0 0.0002894 3205.65918 3442.84937
3546.0 0.0002820 3205.54199 3504.95972
3590.0 0.0002786 3205.42578 3558.82666
3611.0 0.0002769 3205.31055 3585.76587
3542.0 0.0002823 3205.19653 3575.58179
3580.0 0.0002793 3205.08325 3537.32300
3373.0 0.0002965 3204.97119 3490.37158
3538.0 0.0002826 3204.86011 3450.79663
3541.0 0.0002824 3204.75024 3429.09570
3522.0 0.0002839 3204.64111 3432.95898
3452.0 0.0002897 3204.53320 3469.54785
3428.0 0.0002917 3204.42627 3546.12573
3614.0 0.0002767 3204.32056 3668.50757
3859.0 0.0002591 3204.21582 3837.23267
4068.0 0.0002458 3204.11206 4041.82886
4360.0 0.0002294 3204.00952 4252.96826
4635.0 0.0002157 3203.90796 4415.18701
4384.0 0.0002281 3203.80762 4461.21338
4300.0 0.0002326 3203.70825 4366.32715
4055.0 0.0002466 3203.61011 4176.08154
3779.0 0.0002646 3203.51294 3957.82129
3640.0 0.0002747 3203.41699 3757.38501
3609.0 0.0002771 3203.32202 3595.63745
3590.0 0.0002786 3203.22827 3476.86646
3495.0 0.0002861 3203.13550 3395.85205
3493.0 0.0002863 3203.04419 3343.33521
3462.0 0.0002889 3202.95386 3309.96826
3413.0 0.0002930 3202.86450 3288.25269
3398.0 0.0002943 3202.77637 3273.61694
3270.0 0.0003058 3202.68945 3263.02515
3232.0 0.0003094 3202.60376 3254.90430
3250.0 0.0003077 3202.51904 3248.41650
3188.0 0.0003137 3202.43579 3243.02563
3256.0 0.0003071 3202.35352 3238.58740
3173.0 0.0003152 3202.27246 3234.83130
3212.0 0.0003113 3202.19263 3231.63965
3212.0 0.0003113 3202.11377 3228.89478
3220.0 0.0003106 3202.03638 3226.51880
3154.0 0.0003171 3201.95996 3224.44800
3180.0 0.0003145 3201.88501 3222.63403
3121.0 0.0003204 3201.81104 3221.04614
3239.0 0.0003087 3201.73828 3219.63086
3164.0 0.0003161 3201.66699 3218.37207
3187.0 0.0003138 3201.59668 3217.24805
3241.0 0.0003085 3201.52759 3216.24146
3250.0 0.0003077 3201.45996 3215.33765
3204.0 0.0003121 3201.39331 3214.52295
3105.0 0.0003221 3201.32813 3213.78735
3215.0 0.0003110 3201.26416 3213.12280
3209.0 0.0003116 3201.20117 3212.52173
3272.0 0.0003056 3201.13965 3211.97681
3251.0 0.0003076 3201.07959 3211.48315
3242.0 0.0003085 3201.02051 3211.03711
3107.0 0.0003219 3200.96265 3210.63330
3253.0 0.0003074 3200.90625 3210.27002
3253.0 0.0003074 3200.85107 3209.94409
3147.0 0.0003178 3200.79712 3209.65259
3165.0 0.0003160 3200.74463 3209.39429
3258.0 0.0003069 3200.69312 3209.16821
3213.0 0.0003112 3200.64307 3208.97241
3131.0 0.0003194 3200.59448 3208.80737
3224.0 0.0003102 3200.54688 3208.67163
3160.0 0.0003165 3200.50073 3208.56592
3203.0 0.0003122 3200.45605 3208.49121
3205.0 0.0003120 3200.41260 3208.44800
3204.0 0.0003121 3200.37036 3208.43750
3132.0 0.0003193 3200.32935 3208.46143
3084.0 0.0003243 3200.28979 3208.52368
3298.0 0.0003032 3200.25146 3208.62793
3199.0 0.0003126 3200.21460 3208.77783
3196.0 0.0003129 3200.17920 3208.98071
3242.0 0.0003085 3200.14478 3209.24390
3212.0 0.0003113 3200.11182 3209.58179
3165.0 0.0003160 3200.08032 3210.01318
3216.0 0.0003109 3200.05005 3210.57300
3241.0 0.0003085 3200.02124 3211.36133
3238.0 0.0003088 3199.99365 3212.40454
3209.0 0.0003116 3199.96753 3213.90601
3137.0 0.0003188 3199.94263 3216.09692
3227.0 0.0003099 3199.91919 3219.24243
3293.0 0.0003037 3199.89697 3223.57446
3268.0 0.0003060 3199.87622 3229.16992
3227.0 0.0003099 3199.85693 3235.79712
3288.0 0.0003041 3199.83887 3242.71240
3242.0 0.0003085 3199.82202 3248.48267
3331.0 0.0003002 3199.80688 3251.41455
3370.0 0.0002967 3199.79297 3251.00684
3380.0 0.0002959 3199.78027 3248.65796
3247.0 0.0003080 3199.76904 3246.43481
3247.0 0.0003080 3199.75928 3246.06396
3352.0 0.0002983 3199.75098 3249.02393
3330.0 0.0003003 3199.74390 3256.97339
3260.0 0.0003067 3199.73828 3272.08472
3261.0 0.0003067 3199.73389 3297.09302
3364.0 0.0002973 3199.73096 3334.86475
3431.0 0.0002915 3199.72949 3387.32007
3407.0 0.0002935 3199.72925 3453.71094
3577.0 0.0002796 3199.73047 3528.32495
3596.0 0.0002781 3199.73315 3598.46143
3542.0 0.0002823 3199.73730 3645.50977
3646.0 0.0002743 3199.74268 3652.00024
3547.0 0.0002819 3199.74927 3613.45630
3584.0 0.0002790 3199.75757 3545.14966
3469.0 0.0002883 3199.76709 3468.37158
3400.0 0.0002941 3199.77808 3398.25317
3276.0 0.0003053 3199.79028 3341.67358
3352.0 0.0002983 3199.80420 3299.94507
3237.0 0.0003089 3199.81934 3271.26221
3267.0 0.0003061 3199.83569 3252.50781
3233.0 0.0003093 3199.85376 3240.52466
3324.0 0.0003008 3199.87305 3232.79810
3253.0 0.0003074 3199.89355 3227.62354
3226.0 0.0003100 3199.91577 3223.97705
3210.0 0.0003115 3199.93921 3221.29785
3130.0 0.0003195 3199.96387 3219.29883
3270.0 0.0003058 3199.99023 3216.92139
3161.0 0.0003164 3200.01782 3216.02954
3092.0 0.0003234 3200.04663 3215.74341
3207.0 0.0003118 3200.07690 3216.22095
3164.0 0.0003161 3200.10864 3217.68018
3141.0 0.0003184 3200.14185 3220.33716
3191.0 0.0003134 3200.17627 3224.29248
3253.0 0.0003074 3200.21216 3229.38501
3151.0 0.0003174 3200.24951 3234.99951
3266.0 0.0003062 3200.28809 3239.84302
3228.0 0.0003098 3200.32788 3242.07056
3239.0 0.0003087 3200.36938 3240.49854
3233.0 0.0003093 3200.41211 3235.86206
3176.0 0.0003149 3200.45605 3230.02881
3212.0 0.0003113 3200.50146 3224.53516
3169.0 0.0003156 3200.54810 3220.20239
3148.0 0.0003177 3200.59644 3217.32178
3166.0 0.0003159 3200.64575 3215.84229
3211.0 0.0003114 3200.69653 3215.50464
3195.0 0.0003130 3200.74878 3215.98511
3118.0 0.0003207 3200.80225 3217.04517
3155.0 0.0003170 3200.85718 3218.49512
3258.0 0.0003069 3200.91333 3219.96777
3232.0 0.0003094 3200.97070 3220.79126
3177.0 0.0003148 3201.02954 3220.27979
3204.0 0.0003121 3201.08984 3218.37866
3164.0 0.0003161 3201.15112 3215.71655
3191.0 0.0003134 3201.21387 3212.98853
3072.0 0.0003255 3201.27808 3210.60669
3262.0 0.0003066 3201.34351 3208.73511
3237.0 0.0003089 3201.41016 3207.37891
3258.0 0.0003069 3201.47803 3210.28662
3156.0 0.0003169 3201.54736 3209.77246
3213.0 0.0003112 3201.61792 3209.48291
3244.0 0.0003083 3201.68994 3209.33887
3284.0 0.0003045 3201.76294 3209.28833
3221.0 0.0003105 3201.83740 3209.30103
3267.0 0.0003061 3201.91309 3209.36060
3197.0 0.0003128 3201.98999 3209.45898
3199.0 0.0003126 3202.06812 3209.59204
3215.0 0.0003110 3202.14746 3209.75928
3097.0 0.0003229 3202.22827 3209.96069
3129.0 0.0003196 3202.31006 3210.19800
3189.0 0.0003136 3202.39331 3210.47559
3225.0 0.0003101 3202.47754 3217.30029
3229.0 0.0003097 3202.56323 3217.81519
3175.0 0.0003150 3202.64990 3218.40576
3174.0 0.0003151 3202.73804 3219.10522
3050.0 0.0003279 3202.82715 3219.96777
3192.0 0.0003133 3202.91748 3221.09644
3203.0 0.0003122 3203.00928 3222.66357
3143.0 0.0003182 3203.10181 3224.92822
3222.0 0.0003104 3203.19580 3228.22705
3193.0 0.0003132 3203.29102 3232.90820
3198.0 0.0003127 3203.38721 3239.20264
3300.0 0.0003030 3203.48462 3247.04175
3257.0 0.0003070 3203.58301 3255.81763
3257.0 0.0003070 3203.68286 3264.07324
3261.0 0.0003067 3203.78345 3269.41553
3211.0 0.0003114 3203.88550 3269.67456
3377.0 0.0002961 3203.98853 3264.96875
3214.0 0.0003111 3204.09253 3257.57544
3408.0 0.0002934 3204.19775 3249.83032
3220.0 0.0003106 3204.30420 3243.10864
3260.0 0.0003067 3204.41138 3237.95996
3301.0 0.0003029 3204.52002 3234.42334
3270.0 0.0003058 3204.62939 3232.25122
3204.0 0.0003121 3204.73999 3231.09326
3244.0 0.0003083 3204.85156 3230.59644
3178.0 0.0003147 3204.96411 3230.55957
3152.0 0.0003173 3205.07764 3230.79419
3229.0 0.0003097 3205.19238 3231.20459
3229.0 0.0003097 3205.30811 3231.73877
3216.0 0.0003109 3205.42456 3232.36963
3242.0 0.0003085 3205.54224 3233.08398
3162.0 0.0003163 3205.66089 3233.87256
3169.0 0.0003156 3205.78052 3234.73242
3246.0 0.0003081 3205.90088 3235.66040
3190.0 0.0003135 3206.02246 3236.68188
3232.0 0.0003094 3206.14478 3237.74707
3265.0 0.0003063 3206.26807 3238.88281
3208.0 0.0003117 3206.39209 3240.00220
3318.0 0.0003014 3206.51733 3241.28833
3208.0 0.0003117 3206.64331 3242.38892
3080.0 0.0003247 3206.77026 3243.84546
3174.0 0.0003151 3206.89795 3245.39185
3246.0 0.0003081 3207.02661 3247.03442
3247.0 0.0003080 3207.15601 3248.78101
3308.0 0.0003023 3207.28613 3250.63965
3184.0 0.0003141 3207.41724 3252.61938
3286.0 0.0003043 3207.54907 3254.73096
3213.0 0.0003112 3207.68188 3256.98633
3216.0 0.0003109 3207.81519 3259.39844
3252.0 0.0003075 3207.94946 3261.98291
3319.0 0.0003013 3208.08447 3264.75708
3213.0 0.0003112 3208.22021 3267.74048
3256.0 0.0003071 3208.35669 3270.95483
3258.0 0.0003069 3208.49390 3274.42603
3182.0 0.0003143 3208.63184 3278.18384
3325.0 0.0003008 3208.77051 3282.26172
3374.0 0.0002964 3208.90991 3286.69849
3373.0 0.0002965 3209.04980 3291.53979
3184.0 0.0003141 3209.19043 3296.83887
3260.0 0.0003067 3209.33179 3302.65771
3269.0 0.0003059 3209.47363 3309.06982
3410.0 0.0002933 3209.61621 3316.16235
3294.0 0.0003036 3209.75928 3324.04102
3325.0 0.0003008 3209.90308 3332.82910
3272.0 0.0003056 3210.04736 3342.65332
3333.0 0.0003000 3210.19238 3354.09155
3412.0 0.0002931 3210.33765 3366.67993
3460.0 0.0002890 3210.48364 3381.03369
3420.0 0.0002924 3210.63013 3397.51416
3464.0 0.0002887 3210.77710 3416.58521
3529.0 0.0002834 3210.92480 3438.85840
3447.0 0.0002901 3211.07275 3465.18164
3490.0 0.0002865 3211.22119 3496.82617
3569.0 0.0002802 3211.37012 3535.87451
3542.0 0.0002823 3211.51953 3586.01099
3688.0 0.0002711 3211.66943 3653.87500
3699.0 0.0002703 3211.81958 3751.07275
3775.0 0.0002649 3211.97021 3896.31372
4108.0 0.0002434 3212.12109 4116.33643
4405.0 0.0002270 3212.27246 4443.56543
4792.0 0.0002087 3212.42432 4908.41602
5578.0 0.0001793 3212.57642 5526.17920
6423.0 0.0001557 3212.72876 6279.20313
7153.0 0.0001398 3212.88135 7093.29395
7961.0 0.0001256 3213.03442 7809.57080
8295.0 0.0001206 3213.18774 8197.19141
7982.0 0.0001253 3213.34106 8098.17041
7331.0 0.0001364 3213.49487 7593.14258
6553.0 0.0001526 3213.64893 6921.70752
6057.0 0.0001651 3213.80322 6299.22656
5858.0 0.0001707 3213.95752 5862.20752
5849.0 0.0001710 3214.11230 5692.10400
6020.0 0.0001661 3214.26709 5838.62598
6469.0 0.0001546 3214.42188 6327.57715
7387.0 0.0001354 3214.57715 7154.64648
8467.0 0.0001181 3214.73218 8266.14551
10245.0 0.0000976 3214.88745 9524.71973
11323.0 0.0000883 3215.04297 10661.38574
11529.0 0.0000867 3215.19849 11281.07422
10710.0 0.0000934 3215.35400 11080.30664
9326.0 0.0001072 3215.50952 10142.22266
7968.0 0.0001255 3215.66528 8841.47754
6784.0 0.0001474 3215.82104 7522.68066
6016.0 0.0001662 3215.97656 6379.05420
5621.0 0.0001779 3216.13208 5483.65430
5545.0 0.0001803 3216.28784 4835.43408
5590.0 0.0001789 3216.44336 4393.46777
5258.0 0.0001902 3216.59888 4103.14160
4936.0 0.0002026 3216.75415 3913.87158
4603.0 0.0002172 3216.90942 3787.36914
4255.0 0.0002350 3217.06470 3698.49854
3955.0 0.0002528 3217.21973 3632.36670
3789.0 0.0002639 3217.37451 3580.67285
3605.0 0.0002774 3217.52930 3538.79663
3471.0 0.0002881 3217.68384 3504.16943
3587.0 0.0002788 3217.83813 3475.08643
3427.0 0.0002918 3217.99219 3450.40503
3480.0 0.0002874 3218.14624 3429.28833
3365.0 0.0002972 3218.29980 3411.09912
3395.0 0.0002946 3218.45313 3395.34399
3352.0 0.0002983 3218.60620 3381.63867
3421.0 0.0002923 3218.75903 3369.68726
3309.0 0.0003022 3218.91162 3359.27222
3248.0 0.0003079 3219.06372 3350.25293
3398.0 0.0002943 3219.21558 3342.56982
3332.0 0.0003001 3219.36694 3336.24609
3329.0 0.0003004 3219.51807 3331.37085
3367.0 0.0002970 3219.66870 3328.05713
3441.0 0.0002906 3219.81909 3326.36279
3297.0 0.0003033 3219.96875 3326.18652
3308.0 0.0003023 3220.11816 3327.12598
3332.0 0.0003001 3220.26709 3328.28687
3314.0 0.0003018 3220.41553 3328.24609
3269.0 0.0003059 3220.56372 3325.74707
3357.0 0.0002979 3220.71094 3320.85547
3230.0 0.0003096 3220.85791 3314.77441
3318.0 0.0003014 3221.00439 3308.56494
3223.0 0.0003103 3221.15015 3302.57715
3228.0 0.0003098 3221.29541 3296.78931
3315.0 0.0003017 3221.43994 3291.31787
3301.0 0.0003029 3221.58398 3286.44727
3311.0 0.0003020 3221.72729 3282.36523
3195.0 0.0003130 3221.87012 3279.09717
3224.0 0.0003102 3222.01221 3276.57764
3307.0 0.0003024 3222.15356 3274.71265
3280.0 0.0003049 3222.29443 3273.40771
3223.0 0.0003103 3222.43433 3272.58594
3290.0 0.0003040 3222.57373 3272.20044
3318.0 0.0003014 3222.71216 3272.23901
3252.0 0.0003075 3222.84985 3272.73145
3273.0 0.0003055 3222.98706 3276.46436
3380.0 0.0002959 3223.12305 3278.25830
3299.0 0.0003031 3223.25854 3281.08691
3245.0 0.0003082 3223.39307 3285.54980
3250.0 0.0003077 3223.52686 3292.68701
3210.0 0.0003115 3223.65991 3304.13599
3300.0 0.0003030 3223.79175 3322.17163
3417.0 0.0002927 3223.92285 3349.44019
3461.0 0.0002889 3224.05322 3388.27100
3400.0 0.0002941 3224.18262 3439.55786
3429.0 0.0002916 3224.31104 3501.27539
3604.0 0.0002775 3224.43848 3566.47437
3623.0 0.0002760 3224.56494 3621.04663
3607.0 0.0002772 3224.69043 3645.63867
3536.0 0.0002828 3224.81494 3628.54102
3548.0 0.0002818 3224.93823 3577.76538
3528.0 0.0002834 3225.06079 3512.48560
3410.0 0.0002933 3225.18213 3448.36963
3359.0 0.0002977 3225.30249 3393.70483
3404.0 0.0002938 3225.42188 3351.35303
3368.0 0.0002969 3225.54004 3320.89209
3399.0 0.0002942 3225.65723 3300.18091
3262.0 0.0003066 3225.77319 3286.56348
3315.0 0.0003017 3225.88818 3277.64624
3283.0 0.0003046 3226.00195 3271.64648
3210.0 0.0003115 3226.11450 3267.40479
3275.0 0.0003053 3226.22583 3264.23340
3227.0 0.0003099 3226.33594 3261.75024
3250.0 0.0003077 3226.44482 3259.74268
3222.0 0.0003104 3226.55273 3258.08765
3291.0 0.0003039 3226.65942 3256.75708
3191.0 0.0003134 3226.76465 3255.59692
3170.0 0.0003155 3226.86865 3254.61743
3280.0 0.0003049 3226.97144 3249.92993
3171.0 0.0003154 3227.07300 3249.30591
3190.0 0.0003135 3227.17310 3248.78857
3235.0 0.0003091 3227.27197 3248.36206
3208.0 0.0003117 3227.36938 3248.01660
3199.0 0.0003126 3227.46582 3247.74219
3192.0 0.0003133 3227.56055 3247.53052
3219.0 0.0003107 3227.65405 3247.37671
3120.0 0.0003205 3227.74609 3247.27539
3254.0 0.0003073 3227.83691 3247.22290
3187.0 0.0003138 3227.92603 3247.21606
3242.0 0.0003085 3228.01392 3247.25220
3226.0 0.0003100 3228.10034 3247.33008
3215.0 0.0003110 3228.18555 3240.86841
3185.0 0.0003140 3228.26904 3241.15894
3313.0 0.0003018 3228.35107 3241.48486
3279.0 0.0003050 3228.43164 3241.84692
3210.0 0.0003115 3228.51074 3242.24536
3213.0 0.0003112 3228.58838 3242.68188
3236.0 0.0003090 3228.66455 3243.15723
3206.0 0.0003119 3228.73901 3243.67358
3239.0 0.0003087 3228.81201 3244.23315
3212.0 0.0003113 3228.88354 3244.83936
3224.0 0.0003102 3228.95337 3245.49463
3152.0 0.0003173 3229.02173 3246.20313
3190.0 0.0003135 3229.08862 3246.96924
3249.0 0.0003078 3229.15381 3247.79810
3236.0 0.0003090 3229.21729 3248.69507
3288.0 0.0003041 3229.27930 3249.66772
3263.0 0.0003065 3229.33960 3250.72266
3217.0 0.0003108 3229.39819 3251.87012
3191.0 0.0003134 3229.45532 3253.11938
3341.0 0.0002993 3229.51050 3254.48218
3364.0 0.0002973 3229.56421 3255.97314
3237.0 0.0003089 3229.61621 3257.60791
3180.0 0.0003145 3229.66675 3259.40430
3267.0 0.0003061 3229.71533 3261.38550
3338.0 0.0002996 3229.76221 3263.57642
3306.0 0.0003025 3229.80737 3266.00781
3239.0 0.0003087 3229.85107 3268.71582
3304.0 0.0003027 3229.89282 3271.74414
3288.0 0.0003041 3229.93286 3275.14429
3218.0 0.0003108 3229.97095 3278.97949
3268.0 0.0003060 3230.00757 3283.41797
3213.0 0.0003112 3230.04248 3288.37427
3252.0 0.0003075 3230.07544 3294.05469
3292.0 0.0003038 3230.10669 3300.60571
3226.0 0.0003100 3230.13599 3308.18677
3295.0 0.0003035 3230.16357 3317.08813
3174.0 0.0003151 3230.18945 3328.01904
3259.0 0.0003068 3230.21338 3340.56885
3306.0 0.0003025 3230.23560 3355.77856
3290.0 0.0003040 3230.25610 3374.63696
3361.0 0.0002975 3230.27466 3398.87109
3360.0 0.0002976 3230.29126 3431.54126
3441.0 0.0002906 3230.30615 3478.06470
3369.0 0.0002968 3230.31909 3547.46533
3504.0 0.0002854 3230.33032 3653.36084
3545.0 0.0002821 3230.33960 3813.71655
3932.0 0.0002543 3230.34717 4048.15723
4139.0 0.0002416 3230.35254 4372.14209
4674.0 0.0002139 3230.35620 4788.22949
5291.0 0.0001890 3230.35815 5274.59717
6113.0 0.0001636 3230.35791 5769.27881
6424.0 0.0001557 3230.35596 6155.68701
6581.0 0.0001520 3230.35205 6290.36719
6128.0 0.0001632 3230.34644 6109.91992
5432.0 0.0001841 3230.33862 5697.60059
4884.0 0.0002048 3230.32910 5198.10986
4623.0 0.0002163 3230.31763 4719.71729
4413.0 0.0002266 3230.30420 4317.08398
4273.0 0.0002340 3230.28882 4007.42651
4172.0 0.0002397 3230.27148 3785.55615
4080.0 0.0002451 3230.25220 3634.88135
3918.0 0.0002552 3230.23120 3535.73242
3802.0 0.0002630 3230.20801 3470.70752
3617.0 0.0002765 3230.18311 3426.91821
3506.0 0.0002852 3230.15625 3395.97461
3437.0 0.0002910 3230.12720 3372.56079
3439.0 0.0002908 3230.09644 3354.56104
3400.0 0.0002941 3230.06372 3340.06665
3332.0 0.0003001 3230.02905 3328.16626
3320.0 0.0003012 3229.99243 3318.29126
3301.0 0.0003029 3229.95361 3310.06641
3320.0 0.0003012 3229.91309 3303.24658
3233.0 0.0003093 3229.87061 3297.70093
3297.0 0.0003033 3229.82617 3293.41162
3312.0 0.0003019 3229.77979 3290.48193
3260.0 0.0003067 3229.73145 3289.12134
3198.0 0.0003127 3229.68115 3289.59692
3319.0 0.0003013 3229.62891 3292.12378
3346.0 0.0002989 3229.57471 3296.70923
3229.0 0.0003097 3229.51855 3302.94556
3361.0 0.0002975 3229.46045 3309.72852
3228.0 0.0003098 3229.40039 3314.97314
3242.0 0.0003085 3229.33838 3316.01270
3309.0 0.0003022 3229.27441 3311.45044
3414.0 0.0002929 3229.20850 3302.57373
3403.0 0.0002939 3229.14063 3291.99902
3153.0 0.0003172 3229.07080 3281.78784
3333.0 0.0003000 3228.99902 3273.01294
3304.0 0.0003027 3228.92529 3266.03564
3233.0 0.0003093 3228.84961 3260.78589
3209.0 0.0003116 3228.77222 3256.97144
3219.0 0.0003107 3228.69263 3254.22632
3292.0 0.0003038 3228.61133 3252.21704
3321.0 0.0003011 3228.52783 3250.68970
3232.0 0.0003094 3228.44263 3249.47217
3346.0 0.0002989 3228.35547 3248.45483
3201.0 0.0003124 3228.26636 3247.57983
3102.0 0.0003224 3228.17554 3246.86572
3308.0 0.0003023 3228.08252 3246.20386
3205.0 0.0003120 3227.98779 3245.63306
3293.0 0.0003037 3227.89111 3245.14746
3302.0 0.0003028 3227.79248 3244.74194
3166.0 0.0003159 3227.69189 3244.41333
3307.0 0.0003024 3227.58960 3244.15918
3191.0 0.0003134 3227.48535 3243.97900
3282.0 0.0003047 3227.37915 3243.88037
3228.0 0.0003098 3227.27124 3243.85229
3260.0 0.0003067 3227.16138 3243.90723
3191.0 0.0003134 3227.04980 3244.05200
3201.0 0.0003124 3226.93628 3244.29614
3121.0 0.0003204 3226.82080 3244.65210
3137.0 0.0003188 3226.70361 3245.13965
3177.0 0.0003148 3226.58447 3245.77295
3283.0 0.0003046 3226.46362 3246.58521
3217.0 0.0003108 3226.34106 3247.61475
3203.0 0.0003122 3226.21631 3248.92114
3244.0 0.0003083 3226.09009 3250.59790
3223.0 0.0003103 3225.96216 3252.79541
3280.0 0.0003049 3225.83228 3255.76172
3245.0 0.0003082 3225.70068 3259.88330
3138.0 0.0003187 3225.56714 3265.72144
3279.0 0.0003050 3225.43188 3274.01074
3279.0 0.0003050 3225.29492 3285.60547
3366.0 0.0002971 3225.15625 3301.37012
3303.0 0.0003028 3225.01587 3322.04126
3347.0 0.0002988 3224.87378 3348.02881
3350.0 0.0002985 3224.72998 3379.03833
3397.0 0.0002944 3224.58447 3413.71338
3469.0 0.0002883 3224.43726 3450.64551
3523.0 0.0002838 3224.28809 3491.05615
3537.0 0.0002827 3224.13770 3538.67236
3661.0 0.0002731 3223.98535 3594.93872
3739.0 0.0002675 3223.83130 3654.22412
3786.0 0.0002641 3223.67578 3701.40894
3695.0 0.0002706 3223.51855 3715.80811
3621.0 0.0002762 3223.35962 3686.03638
3657.0 0.0002734 3223.19922 3622.11377
3405.0 0.0002937 3223.03735 3544.58765
3354.0 0.0002982 3222.87354 3469.71924
3354.0 0.0002982 3222.70825 3405.98315
3342.0 0.0002992 3222.54150 3356.24146
3392.0 0.0002948 3222.37329 3319.96533
3396.0 0.0002945 3222.20337 3294.86206
3364.0 0.0002973 3222.03198 3277.97925
3295.0 0.0003035 3221.85889 3266.68213
3330.0 0.0003003 3221.68457 3258.93481
3372.0 0.0002966 3221.50854 3253.36768
3230.0 0.0003096 3221.33105 3249.14819
3300.0 0.0003030 3221.15210 3245.79517
3169.0 0.0003156 3220.97192 3243.03784
3171.0 0.0003154 3220.79004 3238.02100
3213.0 0.0003112 3220.60669 3236.08740
3237.0 0.0003089 3220.42212 3234.41699
3307.0 0.0003024 3220.23608 3232.96045
3159.0 0.0003166 3220.04883 3231.67847
3228.0 0.0003098 3219.85986 3230.54150
3302.0 0.0003028 3219.66968 3229.52515
3323.0 0.0003009 3219.47827 3228.61035
3299.0 0.0003031 3219.28540 3227.78247
3222.0 0.0003104 3219.09131 3227.02905
3184.0 0.0003141 3218.89575 3226.33911
3131.0 0.0003194 3218.69897 3225.70361
3187.0 0.0003138 3218.50098 3225.11719
3160.0 0.0003165 3218.30176 3224.57275
3204.0 0.0003121 3218.10132 3224.06616
3146.0 0.0003179 3217.89941 3223.59253
3222.0 0.0003104 3217.69653 3223.15015
3205.0 0.0003120 3217.49219 3222.73535
3273.0 0.0003055 3217.28687 3222.34619
3225.0 0.0003101 3217.08057 3221.98169
3147.0 0.0003178 3216.87280 3221.63916
3225.0 0.0003101 3216.66406 3221.32837
3136.0 0.0003189 3216.45410 3221.02905
3232.0 0.0003094 3216.24316 3220.75269
3192.0 0.0003133 3216.03101 3220.49927
3148.0 0.0003177 3215.81787 3220.26904
3234.0 0.0003092 3215.60352 3220.06348
3201.0 0.0003124 3215.38843 3219.88672
3204.0 0.0003121 3215.17212 3219.74194
3234.0 0.0003092 3214.95483 3219.63403
3288.0 0.0003041 3214.73657 3219.52026
3224.0 0.0003102 3214.51733 3219.51416
3299.0 0.0003031 3214.29712 3219.58447
3280.0 0.0003049 3214.07617 3220.72729
3268.0 0.0003060 3213.85425 3221.09229
3242.0 0.0003085 3213.63110 3221.72461
3181.0 0.0003144 3213.40747 3222.78662
3240.0 0.0003086 3213.18286 3224.51123
3237.0 0.0003089 3212.95728 3227.18945
3038.0 0.0003292 3212.73096 3231.12671
3233.0 0.0003093 3212.50391 3236.53955
3225.0 0.0003101 3212.27588 3243.42578
3127.0 0.0003198 3212.04712 3251.37939
3217.0 0.0003108 3211.81787 3259.34546
3274.0 0.0003054 3211.58765 3265.42188
3205.0 0.0003120 3211.35669 3267.40259
3206.0 0.0003119 3211.12524 3264.47705
3230.0 0.0003096 3210.89282 3258.10718
3347.0 0.0002988 3210.65991 3250.61035
3162.0 0.0003163 3210.42627 3243.67969
3249.0 0.0003078 3210.19214 3238.11523
3317.0 0.0003015 3209.95728 3234.03809
3237.0 0.0003089 3209.72192 3231.10620
3202.0 0.0003123 3209.48608 3228.79175
3272.0 0.0003056 3209.24951 3226.75269
3324.0 0.0003008 3209.01245 3224.96191
3278.0 0.0003051 3208.77490 3223.49854
3239.0 0.0003087 3208.53687 3222.35645
3207.0 0.0003118 3208.29834 3221.41382
3260.0 0.0003067 3208.05933 3220.48438
3228.0 0.0003098 3207.81982 3219.46167
3146.0 0.0003179 3207.58008 3218.39673
3237.0 0.0003089 3207.33984 3217.40723
3130.0 0.0003195 3207.09912 3216.58032
3234.0 0.0003092 3206.85840 3215.95557
3082.0 0.0003245 3206.61694 3215.54004
3183.0 0.0003142 3206.37549 3215.32666
3309.0 0.0003022 3206.13354 3215.30469
3285.0 0.0003044 3205.89136 3215.47021
3264.0 0.0003064 3205.64893 3215.83643
3314.0 0.0003018 3205.40625 3216.44824
3181.0 0.0003144 3205.16333 3217.40405
3190.0 0.0003135 3204.92017 3218.88550
3299.0 0.0003031 3204.67700 3221.19507
3218.0 0.0003108 3204.43359 3224.77808
3136.0 0.0003189 3204.18994 3230.21167
3276.0 0.0003053 3203.94629 3238.02734
3275.0 0.0003053 3203.70239 3248.89575
3309.0 0.0003022 3203.45874 3262.84253
3330.0 0.0003003 3203.21460 3279.22266
3201.0 0.0003124 3202.97070 3296.23584
3238.0 0.0003088 3202.72656 3310.39771
3204.0 0.0003121 3202.48267 3316.77881
3236.0 0.0003090 3202.23877 3313.79102
3265.0 0.0003063 3201.99463 3303.17725
3267.0 0.0003061 3201.75073 3289.62671
3352.0 0.0002983 3201.50708 3276.99097
3284.0 0.0003045 3201.26343 3267.00391
3279.0 0.0003050 3201.01978 3259.92383
3374.0 0.0002964 3200.77612 3254.70752
3222.0 0.0003104 3200.53296 3249.81226
3197.0 0.0003128 3200.28979 3244.10181
3180.0 0.0003145 3200.04688 3237.84180
3270.0 0.0003058 3199.80420 3231.77246
3168.0 0.0003157 3199.56152 3226.45239
3233.0 0.0003093 3199.31934 3222.12964
3176.0 0.0003149 3199.07739 3218.83105
3210.0 0.0003115 3198.83569 3216.45776
3246.0 0.0003081 3198.59424 3214.84253
3192.0 0.0003133 3198.35327 3213.80688
3268.0 0.0003060 3198.11255 3213.19189
3181.0 0.0003144 3197.87231 3212.88257
3192.0 0.0003133 3197.63232 3212.80078
3292.0 0.0003038 3197.39282 3212.90381
3252.0 0.0003075 3197.15381 3213.17041
3234.0 0.0003092 3196.91528 3213.59521
3178.0 0.0003147 3196.67700 3214.18188
3242.0 0.0003085 3196.43921 3214.94678
3224.0 0.0003102 3196.20215 3215.91187
3182.0 0.0003143 3195.96533 3217.11621
3183.0 0.0003142 3195.72925 3218.61279
3233.0 0.0003093 3195.49365 3220.47632
3228.0 0.0003098 3195.25879 3222.80151
3182.0 0.0003143 3195.02441 3225.69946
3291.0 0.0003039 3194.79077 3229.28491
3153.0 0.0003172 3194.55762 3233.66162
3237.0 0.0003089 3194.32495 3238.90210
3199.0 0.0003126 3194.09326 3245.03369
3228.0 0.0003098 3193.86206 3252.04028
3234.0 0.0003092 3193.63184 3260.01489
3263.0 0.0003065 3193.40210 3269.60010
3265.0 0.0003063 3193.17334 3282.48267
3190.0 0.0003135 3192.94507 3301.55078
3259.0 0.0003068 3192.71777 3330.88574
3329.0 0.0003004 3192.49097 3375.67383
3383.0 0.0002956 3192.26538 3441.67334
3482.0 0.0002872 3192.04028 3533.90039
3556.0 0.0002812 3191.81641 3654.64941
3734.0 0.0002678 3191.59326 3800.15747
3933.0 0.0002543 3191.37085 3957.46289
4139.0 0.0002416 3191.14941 4098.95947
4222.0 0.0002369 3190.92896 4183.02637
4113.0 0.0002431 3190.70947 4174.97363
3872.0 0.0002583 3190.49097 4078.31567
3753.0 0.0002665 3190.27319 3931.12280
3723.0 0.0002686 3190.05664 3773.50317
3546.0 0.0002820 3189.84106 3630.46265
3467.0 0.0002884 3189.62646 3513.20288
3388.0 0.0002952 3189.41284 3424.06177
3470.0 0.0002882 3189.20044 3360.22046
3511.0 0.0002848 3188.98901 3316.43530
3480.0 0.0002874 3188.77881 3287.06030
3364.0 0.0002973 3188.56934 3267.27466
3314.0 0.0003018 3188.36133 3253.50000
3262.0 0.0003066 3188.15454 3243.52197
3314.0 0.0003018 3187.94873 3235.89795
3282.0 0.0003047 3187.74414 3229.82324
3166.0 0.0003159 3187.54053 3224.83472
3227.0 0.0003099 3187.33838 3220.65405
3229.0 0.0003097 3187.13721 3217.10083
3159.0 0.0003166 3186.93750 3214.04858
3257.0 0.0003070 3186.73901 3211.39746
3208.0 0.0003117 3186.54175 3209.08862
3266.0 0.0003062 3186.34570 3207.06055
3175.0 0.0003150 3186.15088 3205.26611
3242.0 0.0003085 3185.95752 3203.66992
3180.0 0.0003145 3185.76538 3202.24390
3118.0 0.0003207 3185.57471 3200.95874
3206.0 0.0003119 3185.38525 3199.80322
3140.0 0.0003185 3185.19702 3198.75684
3202.0 0.0003123 3185.01025 3197.80664
3217.0 0.0003108 3184.82520 3196.94092
3225.0 0.0003101 3184.64111 3196.14990
3202.0 0.0003123 3184.45874 3195.42651
3123.0 0.0003202 3184.27759 3194.76343
3209.0 0.0003116 3184.09790 3194.91846
3161.0 0.0003164 3183.91992 3194.37500
3246.0 0.0003081 3183.74316 3193.87842
3210.0 0.0003115 3183.56787 3193.42627
3235.0 0.0003091 3183.39404 3193.01538
3260.0 0.0003067 3183.22192 3192.64526
3212.0 0.0003113 3183.05127 3192.31323
3146.0 0.0003179 3182.88184 3192.02026
3167.0 0.0003158 3182.71436 3191.76538
3257.0 0.0003070 3182.54810 3191.55005
3248.0 0.0003079 3182.38379 3191.37524
3134.0 0.0003191 3182.22070 3191.24316
3197.0 0.0003128 3182.05933 3191.15869
3235.0 0.0003091 3181.89941 3191.12573
3215.0 0.0003110 3181.74121 3191.15283
3234.0 0.0003092 3181.58472 3191.14966
3204.0 0.0003121 3181.42969 3191.34082
3140.0 0.0003185 3181.27661 3191.65356
3219.0 0.0003107 3181.12476 3192.13672
3217.0 0.0003108 3180.97485 3192.86108
3121.0 0.0003204 3180.82642 3193.92261
3145.0 0.0003180 3180.67993 3195.43604
3218.0 0.0003108 3180.53491 3197.52222
3274.0 0.0003054 3180.39160 3200.25122
3181.0 0.0003144 3180.25000 3203.72681
3242.0 0.0003085 3180.11011 3207.88330
3193.0 0.0003132 3179.97192 3212.54443
3145.0 0.0003180 3179.83545 3217.39600
3239.0 0.0003087 3179.70093 3222.27417
3217.0 0.0003108 3179.56787 3227.65649
3255.0 0.0003072 3179.43677 3234.64404
3327.0 0.0003006 3179.30737 3244.31055
3144.0 0.0003181 3179.17969 3257.12549
3398.0 0.0002943 3179.05371 3272.58716
3340.0 0.0002994 3178.92969 3288.85474
3340.0 0.0002994 3178.80737 3302.91846
3368.0 0.0002969 3178.68701 3312.35791
3245.0 0.0003082 3178.56836 3317.17725
3262.0 0.0003066 3178.45142 3318.50806
3381.0 0.0002958 3178.33643 3315.92822
3347.0 0.0002988 3178.22314 3307.50562
3335.0 0.0002999 3178.11157 3292.75391
3264.0 0.0003064 3178.00220 3274.19434
3334.0 0.0002999 3177.89429 3255.31641
3252.0 0.0003075 3177.78857 3238.48511
3210.0 0.0003115 3177.68457 3224.71167
3315.0 0.0003017 3177.58228 3214.13208
3273.0 0.0003055 3177.48193 3206.40967
3182.0 0.0003143 3177.38354 3200.99268
3218.0 0.0003108 3177.28711 3197.28589
3046.0 0.0003283 3177.19238 3194.76929
3277.0 0.0003052 3177.09961 3193.04565
3234.0 0.0003092 3177.00854 3191.83276
3168.0 0.0003157 3176.91943 3190.98022
3180.0 0.0003145 3176.83252 3190.37793
3220.0 0.0003106 3176.74707 3189.96973
3129.0 0.0003196 3176.66382 3189.72412
3258.0 0.0003069 3176.58228 3189.62671
3235.0 0.0003091 3176.50293 3189.67041
3199.0 0.0003126 3176.42505 3189.85742
3204.0 0.0003121 3176.34937 3190.19678
3207.0 0.0003118 3176.27563 3190.70728
3171.0 0.0003154 3176.20361 3191.42114
3260.0 0.0003067 3176.13379 3192.39697
3133.0 0.0003192 3176.06567 3192.75195
3266.0 0.0003062 3175.99951 3194.64453
3237.0 0.0003089 3175.93530 3197.36938
3115.0 0.0003210 3175.87305 3201.39355
3248.0 0.0003079 3175.81250 3207.38818
3238.0 0.0003088 3175.75415 3216.20508
3305.0 0.0003026 3175.69751 3228.74878
3172.0 0.0003153 3175.64282 3245.73022
3147.0 0.0003178 3175.59033 3267.31226
3360.0 0.0002976 3175.53955 3292.63940
3344.0 0.0002990 3175.49072 3319.16943
3298.0 0.0003032 3175.44360 3341.90820
3240.0 0.0003086 3175.39868 3353.92578
3327.0 0.0003006 3175.35571 3350.33862
3315.0 0.0003017 3175.31445 3332.82886
3347.0 0.0002988 3175.27539 3307.96338
3261.0 0.0003067 3175.23804 3282.02856
3308.0 0.0003023 3175.20264 3258.80835
3260.0 0.0003067 3175.16919 3239.95752
3167.0 0.0003158 3175.13745 3225.78003
3258.0 0.0003069 3175.10791 3215.79761
3305.0 0.0003026 3175.08008 3209.16675
3115.0 0.0003210 3175.05444 3204.98853
3221.0 0.0003105 3175.03052 3202.49512
3120.0 0.0003205 3175.00854 3201.12524
3265.0 0.0003063 3174.98828 3200.51392
3170.0 0.0003155 3174.97021 3200.44653
3140.0 0.0003185 3174.95386 3200.80957
3210.0 0.0003115 3174.93945 3201.55176
3208.0 0.0003117 3174.92676 3202.65894
3267.0 0.0003061 3174.91626 3204.15698
3212.0 0.0003113 3174.90747 3206.04834
3142.0 0.0003183 3174.90063 3208.39795
3154.0 0.0003171 3174.89551 3211.27979
3165.0 0.0003160 3174.89233 3214.79956
3192.0 0.0003133 3174.89111 3219.11255
3300.0 0.0003030 3174.89160 3224.45654
3256.0 0.0003071 3174.89404 3231.22632
3308.0 0.0003023 3174.89844 3240.11768
3244.0 0.0003083 3174.90454 3252.23950
3278.0 0.0003051 3174.91235 3269.52588
3281.0 0.0003048 3174.92212 3294.92505
3359.0 0.0002977 3174.93384 3332.54980
3364.0 0.0002973 3174.94727 3387.42896
3475.0 0.0002878 3174.96240 3464.64844
3451.0 0.0002898 3174.97949 3567.81006
3711.0 0.0002695 3174.99854 3696.87842
3817.0 0.0002620 3175.01904 3845.30103
3979.0 0.0002513 3175.04150 3995.94116
4142.0 0.0002414 3175.06592 4117.27393
4182.0 0.0002391 3175.09180 4169.53857
4134.0 0.0002419 3175.11963 4130.66992
3939.0 0.0002539 3175.14917 4017.35107
3805.0 0.0002628 3175.18042 3868.71289
3578.0 0.0002795 3175.21362 3718.41284
3450.0 0.0002899 3175.24829 3585.63599
3474.0 0.0002879 3175.28491 3478.26221
3417.0 0.0002927 3175.32324 3397.11890
3437.0 0.0002910 3175.36304 3339.00464
3538.0 0.0002826 3175.40479 3298.94507
3484.0 0.0002870 3175.44824 3271.82690
3409.0 0.0002933 3175.49316 3253.36499
3409.0 0.0002933 3175.54004 3240.43091
3239.0 0.0003087 3175.58838 3230.96875
3317.0 0.0003015 3175.63843 3223.72144
3172.0 0.0003153 3175.69019 3217.95313
3297.0 0.0003033 3175.74365 3214.01514
3155.0 0.0003170 3175.79858 3210.09253
3159.0 0.0003166 3175.85522 3206.78174
3233.0 0.0003093 3175.91357 3203.96143
3289.0 0.0003040 3175.97363 3201.54199
3291.0 0.0003039 3176.03491 3199.45313
3156.0 0.0003169 3176.09814 3197.64063
3281.0 0.0003048 3176.16284 3196.06030
3254.0 0.0003073 3176.22900 3194.67627
3246.0 0.0003081 3176.29688 3193.45972
3178.0 0.0003147 3176.36621 3192.38672
3244.0 0.0003083 3176.43701 3191.43799
3217.0 0.0003108 3176.50928 3190.62744
3256.0 0.0003071 3176.58325 3189.88135
3237.0 0.0003089 3176.65869 3189.21655
3151.0 0.0003174 3176.73584 3188.62524
3225.0 0.0003101 3176.81421 3188.09790
3225.0 0.0003101 3176.89404 3187.62769
3215.0 0.0003110 3176.97534 3187.20825
3216.0 0.0003109 3177.05811 3186.83472
3232.0 0.0003094 3177.14258 3186.44360
3181.0 0.0003144 3177.22803 3186.14966
3203.0 0.0003122 3177.31519 3185.88867
3185.0 0.0003140 3177.40381 3185.65771
3143.0 0.0003182 3177.49365 3185.38794
3208.0 0.0003117 3177.58496 3185.21191
3128.0 0.0003197 3177.67749 3185.05933
3206.0 0.0003119 3177.77148 3184.92822
3116.0 0.0003209 3177.86694 3184.81738
3151.0 0.0003174 3177.96362 3184.72461
3222.0 0.0003104 3178.06152 3184.64966
3167.0 0.0003158 3178.16089 3184.59033
3172.0 0.0003153 3178.26147 3184.54688
3157.0 0.0003168 3178.36353 3184.51733
3206.0 0.0003119 3178.46655 3184.50122
3157.0 0.0003168 3178.57104 3184.49805
3135.0 0.0003190 3178.67676 3184.50684
3205.0 0.0003120 3178.78369 3184.52783
3144.0 0.0003181 3178.89185 3184.55981
3172.0 0.0003153 3179.00122 3184.60303
3228.0 0.0003098 3179.11182 3184.65649
3162.0 0.0003163 3179.22339 3184.71973
3205.0 0.0003120 3179.33618 3184.79346
3238.0 0.0003088 3179.45044 3184.87671
3223.0 0.0003103 3179.56543 3184.97046
3219.0 0.0003107 3179.68188 3185.07349
3150.0 0.0003175 3179.79932 3185.18604
3256.0 0.0003071 3179.91797 3185.30835
3164.0 0.0003161 3180.03760 3185.44019
3142.0 0.0003183 3180.15820 3185.58276
3206.0 0.0003119 3180.28003 3185.73462
3122.0 0.0003203 3180.40283 3185.89722
3154.0 0.0003171 3180.52661 3186.07104
3215.0 0.0003110 3180.65161 3186.25659
3123.0 0.0003202 3180.77734 3186.45337
3132.0 0.0003193 3180.90430 3186.66357
3130.0 0.0003195 3181.03223 3186.88623
3299.0 0.0003031 3181.16089 3187.12427
3146.0 0.0003179 3181.29077 3187.37793
3210.0 0.0003115 3181.42139 3187.64917
3179.0 0.0003146 3181.55322 3187.94019
3255.0 0.0003072 3181.68579 3188.64966
3146.0 0.0003179 3181.81909 3188.99805
3244.0 0.0003083 3181.95361 3189.37476
3138.0 0.0003187 3182.08862 3189.78589
3185.0 0.0003140 3182.22485 3190.23877
3120.0 0.0003205 3182.36182 3190.74536
3165.0 0.0003160 3182.49951 3191.32568
3208.0 0.0003117 3182.63794 3192.01196
3148.0 0.0003177 3182.77734 3192.85278
3239.0 0.0003087 3182.91748 3193.91895
3264.0 0.0003064 3183.05859 3195.30054
3253.0 0.0003074 3183.20020 3197.10107
3233.0 0.0003093 3183.34253 3199.41553
3291.0 0.0003039 3183.48584 3202.30176
3173.0 0.0003152 3183.62964 3205.74414
3216.0 0.0003109 3183.77417 3209.59717
3234.0 0.0003092 3183.91943 3213.51807
3229.0 0.0003097 3184.06543 3216.94946
3221.0 0.0003105 3184.21216 3219.38379
3124.0 0.0003201 3184.35938 3220.86011
3214.0 0.0003111 3184.50732 3222.02271
3307.0 0.0003024 3184.65576 3223.58569
3268.0 0.0003060 3184.80493 3225.87646
3186.0 0.0003139 3184.95459 3228.68872
3305.0 0.0003026 3185.10498 3231.80640
3235.0 0.0003091 3185.25586 3233.02417
3219.0 0.0003107 3185.40723 3232.17480
3180.0 0.0003145 3185.55908 3229.57861
3282.0 0.0003047 3185.71167 3226.23047
3257.0 0.0003070 3185.86450 3223.03955
3232.0 0.0003094 3186.01807 3220.54492
3170.0 0.0003155 3186.17212 3218.98950
3249.0 0.0003078 3186.32642 3218.42896
3314.0 0.0003018 3186.48145 3218.81787
3251.0 0.0003076 3186.63672 3220.06787
3188.0 0.0003137 3186.79248 3222.09497
3290.0 0.0003040 3186.94873 3224.85571
3225.0 0.0003101 3187.10522 3227.59668
3288.0 0.0003041 3187.26221 3231.94556
3273.0 0.0003055 3187.41943 3237.30981
3179.0 0.0003146 3187.57715 3244.02222
3416.0 0.0002927 3187.73535 3252.66992
3307.0 0.0003024 3187.89355 3264.25488
3298.0 0.0003032 3188.05249 3280.42725
3226.0 0.0003100 3188.21143 3303.72559
3310.0 0.0003021 3188.37085 3337.71875
3327.0 0.0003006 3188.53027 3386.86426
3381.0 0.0002958 3188.69019 3455.79150
3558.0 0.0002811 3188.85034 3548.22021
3649.0 0.0002740 3189.01074 3665.13257
3783.0 0.0002643 3189.17139 3802.49219
3891.0 0.0002570 3189.33228 3947.97803
4094.0 0.0002443 3189.49316 4077.06201
4140.0 0.0002415 3189.65454 4154.19678
4041.0 0.0002475 3189.81592 4150.27295
3922.0 0.0002550 3189.97754 4067.40308
3870.0 0.0002584 3190.13916 3936.97241
3568.0 0.0002803 3190.30127 3794.03955
3611.0 0.0002769 3190.46313 3661.94458
3584.0 0.0002790 3190.62549 3552.10571
3530.0 0.0002833 3190.78760 3468.09351
3460.0 0.0002890 3190.94995 3408.56982
3422.0 0.0002922 3191.11255 3369.41016
3439.0 0.0002908 3191.27490 3345.21533
3370.0 0.0002967 3191.43750 3330.24023
3430.0 0.0002915 3191.60034 3319.08203
3397.0 0.0002944 3191.76294 3307.79028
3254.0 0.0003073 3191.92554 3295.02173
3376.0 0.0002962 3192.08838 3281.57153
3300.0 0.0003030 3192.25122 3268.74512
3318.0 0.0003014 3192.41382 3257.41919
3253.0 0.0003074 3192.57666 3248.07324
3249.0 0.0003078 3192.73926 3240.51221
3331.0 0.0003002 3192.90186 3234.65894
3272.0 0.0003056 3193.06445 3230.22119
3257.0 0.0003070 3193.22705 3226.88330
3252.0 0.0003075 3193.38965 3224.36353
3225.0 0.0003101 3193.55200 3222.43994
3336.0 0.0002998 3193.71436 3220.95093
3121.0 0.0003204 3193.87646 3219.78955
3152.0 0.0003173 3194.03857 3218.88647
3089.0 0.0003237 3194.20044 3218.19556
3147.0 0.0003178 3194.36255 3217.68823
3190.0 0.0003135 3194.52417 3217.34448
3235.0 0.0003091 3194.68579 3217.14990
3125.0 0.0003200 3194.84717 3217.09619
3204.0 0.0003121 3195.00830 3217.17822
3179.0 0.0003146 3195.16943 3217.39380
3157.0 0.0003168 3195.33032 3217.74292
3229.0 0.0003097 3195.49097 3218.95996
3307.0 0.0003024 3195.65137 3219.60522
3160.0 0.0003165 3195.81177 3220.40674
3245.0 0.0003082 3195.97168 3221.37842
3119.0 0.0003206 3196.13159 3222.54077
3185.0 0.0003140 3196.29102 3223.91650
3120.0 0.0003205 3196.45044 3225.53955
3153.0 0.0003172 3196.60938 3227.45239
3230.0 0.0003096 3196.76831 3229.70850
3274.0 0.0003054 3196.92676 3232.38281
3265.0 0.0003063 3197.08496 3235.58276
3173.0 0.0003152 3197.24292 3239.47095
3190.0 0.0003135 3197.40063 3244.30957
3138.0 0.0003187 3197.55786 3250.53906
3171.0 0.0003154 3197.71509 3258.89160
3174.0 0.0003151 3197.87183 3270.54224
3266.0 0.0003062 3198.02808 3287.24927
3267.0 0.0003061 3198.18408 3311.40552
3257.0 0.0003070 3198.33984 3345.88232
3385.0 0.0002954 3198.49512 3393.55786
3373.0 0.0002965 3198.65015 3456.50879
3483.0 0.0002871 3198.80493 3534.87256
3598.0 0.0002779 3198.95923 3625.34351
3681.0 0.0002717 3199.11304 3719.01172
3835.0 0.0002608 3199.26660 3799.05371
3781.0 0.0002645 3199.41968 3842.63184
3874.0 0.0002581 3199.57251 3833.35059
3772.0 0.0002651 3199.72485 3775.54004
3734.0 0.0002678 3199.87671 3690.13916
3549.0 0.0002818 3200.02832 3598.58130
3456.0 0.0002894 3200.17944 3514.57813
3448.0 0.0002900 3200.33008 3444.67285
3458.0 0.0002892 3200.48022 3390.72681
3366.0 0.0002971 3200.63013 3351.80908
3349.0 0.0002986 3200.77954 3325.55200
3381.0 0.0002958 3200.92847 3309.20142
3417.0 0.0002927 3201.07690 3300.35254
3371.0 0.0002966 3201.22510 3297.38110
3388.0 0.0002952 3201.37256 3299.64063
3241.0 0.0003085 3201.51978 3307.51929
3300.0 0.0003030 3201.66650 3322.41528
3234.0 0.0003092 3201.81250 3346.59717
3302.0 0.0003028 3201.95825 3382.85742
3442.0 0.0002905 3202.10352 3433.85742
3397.0 0.0002944 3202.24829 3501.22510
3567.0 0.0002803 3202.39258 3584.20239
3638.0 0.0002749 3202.53638 3678.00586
3730.0 0.0002681 3202.67969 3771.40601
3908.0 0.0002559 3202.82251 3844.84619
3892.0 0.0002569 3202.96460 3874.85474
3792.0 0.0002637 3203.10645 3849.12378
3624.0 0.0002759 3203.24780 3777.79614
3513.0 0.0002847 3203.38867 3683.96094
3452.0 0.0002897 3203.52881 3587.92871
3435.0 0.0002911 3203.66870 3501.73267
3422.0 0.0002922 3203.80786 3430.66064
3400.0 0.0002941 3203.94678 3375.72803
3373.0 0.0002965 3204.08496 3335.43262
3362.0 0.0002974 3204.22241 3307.03735
3295.0 0.0003035 3204.35962 3287.53760
3352.0 0.0002983 3204.49634 3274.27515
3388.0 0.0002952 3204.63257 3265.22559
3313.0 0.0003018 3204.76807 3259.02441
3326.0 0.0003007 3204.90308 3254.92700
3296.0 0.0003034 3205.03760 3252.32446
3305.0 0.0003026 3205.17163 3251.06909
3294.0 0.0003036 3205.30518 3251.02808
3328.0 0.0003005 3205.43799 3252.06006
3317.0 0.0003015 3205.57031 3253.92896
3255.0 0.0003072 3205.70215 3256.19263
3232.0 0.0003094 3205.83350 3258.13281
3242.0 0.0003085 3205.96436 3258.86133
3210.0 0.0003115 3206.09448 3257.86353
3271.0 0.0003057 3206.22412 3255.46655
3294.0 0.0003036 3206.35327 3252.62891
3257.0 0.0003070 3206.48193 3250.18408
3257.0 0.0003070 3206.61011 3248.85327
3297.0 0.0003033 3206.73755 3248.87939
3260.0 0.0003067 3206.86450 3250.45117
3133.0 0.0003192 3206.99121 3252.70264
3183.0 0.0003142 3207.11694 3256.87207
3270.0 0.0003058 3207.24243 3261.50049
3294.0 0.0003036 3207.36719 3265.53442
3285.0 0.0003044 3207.49146 3267.80933
3221.0 0.0003105 3207.61523 3267.81592
3367.0 0.0002970 3207.73853 3266.22754
3261.0 0.0003067 3207.86133 3264.42627
3266.0 0.0003062 3207.98340 3263.76465
3257.0 0.0003070 3208.10522 3265.32251
3256.0 0.0003071 3208.22632 3269.90649
3370.0 0.0002967 3208.34692 3278.12524
3329.0 0.0003004 3208.46680 3290.22827
3262.0 0.0003066 3208.58643 3306.12402
3275.0 0.0003053 3208.70557 3324.86792
3297.0 0.0003033 3208.82397 3344.43286
3342.0 0.0002992 3208.94189 3361.27637
3352.0 0.0002983 3209.05933 3370.92920
3345.0 0.0002990 3209.17627 3370.59009
3411.0 0.0002932 3209.29272 3361.62622
3309.0 0.0003022 3209.40869 3348.40015
3250.0 0.0003077 3209.52417 3335.24805
3212.0 0.0003113 3209.63916 3325.16846
3258.0 0.0003069 3209.75342 3320.11133
3250.0 0.0003077 3209.86743 3321.61792
3356.0 0.0002980 3209.98096 3331.36011
3375.0 0.0002963 3210.09375 3351.52783
3435.0 0.0002911 3210.20630 3384.88062
3382.0 0.0002957 3210.31812 3434.61377
3496.0 0.0002860 3210.42944 3503.55054
3543.0 0.0002822 3210.54053 3592.99512
3665.0 0.0002729 3210.65112 3701.15454
3782.0 0.0002644 3210.76099 3820.86401
4038.0 0.0002476 3210.87061 3936.64771
4142.0 0.0002414 3210.97974 4022.97437
4093.0 0.0002443 3211.08838 4051.63843
4064.0 0.0002461 3211.19653 4011.06372
3758.0 0.0002661 3211.30420 3916.88306
3806.0 0.0002627 3211.41138 3797.94751
3518.0 0.0002843 3211.51831 3678.21680
3605.0 0.0002774 3211.62451 3571.49707
3510.0 0.0002849 3211.73047 3483.71240
3454.0 0.0002895 3211.83594 3415.80688
3427.0 0.0002918 3211.94092 3365.80664
3458.0 0.0002892 3212.04565 3330.31445
3310.0 0.0003021 3212.14966 3305.63599
3440.0 0.0002907 3212.25342 3288.49878
3343.0 0.0002991 3212.35669 3276.37305
3370.0 0.0002967 3212.45972 3267.49731
3285.0 0.0003044 3212.56226 3260.73291
3346.0 0.0002989 3212.66431 3255.38184
3321.0 0.0003011 3212.76587 3251.02295
3195.0 0.0003130 3212.86719 3247.39868
3308.0 0.0003023 3212.96826 3244.34253
3174.0 0.0003151 3213.06860 3241.88672
3203.0 0.0003122 3213.16895 3239.65820
3196.0 0.0003129 3213.26855 3237.73633
3215.0 0.0003110 3213.36792 3236.07275
3225.0 0.0003101 3213.46704 3234.62695
3204.0 0.0003121 3213.56567 3233.36792
3303.0 0.0003028 3213.66406 3232.26807
3322.0 0.0003010 3213.76196 3230.78516
3172.0 0.0003153 3213.85962 3229.95264
3255.0 0.0003072 3213.95679 3229.22803
3222.0 0.0003104 3214.05371 3228.59644
3190.0 0.0003135 3214.15015 3228.04980
3299.0 0.0003031 3214.24658 3227.57910
3154.0 0.0003171 3214.34229 3227.17773
3249.0 0.0003078 3214.43799 3226.84058
3193.0 0.0003132 3214.53320 3226.56519
3185.0 0.0003140 3214.62817 3226.34717
3261.0 0.0003067 3214.72290 3226.18506
3125.0 0.0003200 3214.81738 3226.07837
3263.0 0.0003065 3214.91138 3226.02954
3215.0 0.0003110 3215.00513 3226.04199
3171.0 0.0003154 3215.09863 3226.12280
3206.0 0.0003119 3215.19189 3226.28564
3291.0 0.0003039 3215.28491 3226.55151
3318.0 0.0003014 3215.37744 3226.95142
3173.0 0.0003152 3215.46997 3227.52905
3218.0 0.0003108 3215.56201 3228.33789
3209.0 0.0003116 3215.65381 3229.43677
3284.0 0.0003045 3215.74561 3230.87720
3253.0 0.0003074 3215.83691 3232.69238
3279.0 0.0003050 3215.92822 3234.32056
3248.0 0.0003079 3216.01904 3236.81689
3187.0 0.0003138 3216.10986 3239.46167
3233.0 0.0003093 3216.20020 3242.02124
3264.0 0.0003064 3216.29053 3244.33960
3246.0 0.0003081 3216.38062 3246.61401
3267.0 0.0003061 3216.47021 3249.46216
3239.0 0.0003087 3216.56006 3253.66211
3269.0 0.0003059 3216.64941 3259.85181
3295.0 0.0003035 3216.73853 3268.37671
3208.0 0.0003117 3216.82764 3279.16211
3188.0 0.0003137 3216.91650 3291.53711
3288.0 0.0003041 3217.00513 3303.96045
3268.0 0.0003060 3217.09375 3313.85083
3469.0 0.0002883 3217.18213 3318.28174
3308.0 0.0003023 3217.27026 3315.91577
3295.0 0.0003035 3217.35815 3308.29297
3315.0 0.0003017 3217.44604 3298.60474
3272.0 0.0003056 3217.53394 3289.77246
3230.0 0.0003096 3217.62134 3283.73804
3278.0 0.0003051 3217.70874 3281.59155
3179.0 0.0003146 3217.79614 3283.76147
3335.0 0.0002999 3217.88330 3290.09326
3421.0 0.0002923 3217.97021 3299.78320
3341.0 0.0002993 3218.05713 3311.29541
3418.0 0.0002926 3218.14404 3322.07690
3306.0 0.0003025 3218.23047 3328.94727
3380.0 0.0002959 3218.31714 3329.28491
3305.0 0.0003026 3218.40356 3322.52661
3303.0 0.0003028 3218.48999 3310.57056
3207.0 0.0003118 3218.57617 3296.38110
3227.0 0.0003099 3218.66235 3282.54077
3272.0 0.0003056 3218.74854 3270.57715
3275.0 0.0003053 3218.83447 3261.15161
3179.0 0.0003146 3218.92041 3254.32471
3283.0 0.0003046 3219.00610 3249.88306
3213.0 0.0003112 3219.09180 3247.29712
3248.0 0.0003079 3219.17749 3245.92383
3252.0 0.0003075 3219.26318 3245.03223
3247.0 0.0003080 3219.34863 3243.95825
3284.0 0.0003045 3219.43408 3242.40625
3188.0 0.0003137 3219.51978 3240.39087
3257.0 0.0003070 3219.60498 3238.26978
3275.0 0.0003053 3219.69043 3236.32202
3260.0 0.0003067 3219.77563 3234.72119
3248.0 0.0003079 3219.86084 3233.55835
3214.0 0.0003111 3219.94604 3232.88062
3161.0 0.0003164 3220.03125 3232.72144
3241.0 0.0003085 3220.11646 3233.01514
3146.0 0.0003179 3220.20142 3234.03857
3206.0 0.0003119 3220.28662 3235.75317
3175.0 0.0003150 3220.37158 3238.23462
3227.0 0.0003099 3220.45679 3241.49683
3266.0 0.0003062 3220.54175 3245.50000
3184.0 0.0003141 3220.62671 3249.98682
3319.0 0.0003013 3220.71167 3254.47485
3152.0 0.0003173 3220.79663 3258.22510
3248.0 0.0003079 3220.88159 3260.59253
3127.0 0.0003198 3220.96655 3261.45215
3249.0 0.0003078 3221.05151 3261.10059
3247.0 0.0003080 3221.13647 3259.73315
3279.0 0.0003050 3221.22144 3257.30371
3190.0 0.0003135 3221.30640 3253.89453
3274.0 0.0003054 3221.39111 3249.96826
3259.0 0.0003068 3221.47607 3246.12207
3326.0 0.0003007 3221.56104 3242.05737
3289.0 0.0003040 3221.64600 3239.44092
3220.0 0.0003106 3221.73096 3237.57568
3255.0 0.0003072 3221.81592 3236.42480
3230.0 0.0003096 3221.90088 3235.92432
3203.0 0.0003122 3221.98584 3236.01514
3279.0 0.0003050 3222.07104 3236.68115
3372.0 0.0002966 3222.15601 3237.97754
3190.0 0.0003135 3222.24097 3240.06641
3190.0 0.0003135 3222.32593 3243.23730
3347.0 0.0002988 3222.41113 3247.93506
3277.0 0.0003052 3222.49609 3254.72437
3443.0 0.0002904 3222.58130 3264.24341
3292.0 0.0003038 3222.66626 3277.05884
3246.0 0.0003081 3222.75146 3293.47241
3289.0 0.0003040 3222.83667 3313.26660
3312.0 0.0003019 3222.92163 3335.35132
3409.0 0.0002933 3223.00684 3357.26025
3401.0 0.0002940 3223.09204 3374.77368
3471.0 0.0002881 3223.17725 3382.78369
3390.0 0.0002950 3223.26245 3378.32471
3366.0 0.0002971 3223.34766 3363.10645
3393.0 0.0002947 3223.43286 3341.99023
3410.0 0.0002933 3223.51807 3319.64258
3311.0 0.0003020 3223.60327 3299.02148
3369.0 0.0002968 3223.68848 3281.56104
3264.0 0.0003064 3223.77393 3267.68652
3307.0 0.0003024 3223.85913 3257.21240
3280.0 0.0003049 3223.94434 3249.62036
3416.0 0.0002927 3224.02954 3244.26660
3188.0 0.0003137 3224.11499 3240.53613
3197.0 0.0003128 3224.20020 3237.91992
3254.0 0.0003073 3224.28540 3236.04297
3223.0 0.0003103 3224.37061 3234.65088
3228.0 0.0003098 3224.45605 3234.06372
3213.0 0.0003112 3224.54126 3233.22437
3228.0 0.0003098 3224.62646 3232.54517
3285.0 0.0003044 3224.71167 3231.98950
3234.0 0.0003092 3224.79688 3231.52979
3247.0 0.0003080 3224.88208 3231.14966
3189.0 0.0003136 3224.96729 3230.90747
3263.0 0.0003065 3225.05225 3230.64771
3215.0 0.0003110 3225.13745 3230.43579
3287.0 0.0003042 3225.22241 3230.26245
3149.0 0.0003176 3225.30762 3230.12524
3248.0 0.0003079 3225.39258 3230.01733
3289.0 0.0003040 3225.47754 3229.93579
3115.0 0.0003210 3225.56250 3229.87842
3207.0 0.0003118 3225.64722 3229.84277
3333.0 0.0003000 3225.73218 3229.82666
3224.0 0.0003102 3225.81689 3229.82788
3178.0 0.0003147 3225.90161 3229.84741
3284.0 0.0003045 3225.98608 3229.88281
3192.0 0.0003133 3226.07080 3229.92236
3176.0 0.0003149 3226.15527 3229.98804
3273.0 0.0003055 3226.23950 3230.07031
3157.0 0.0003168 3226.32397 3230.16675
3238.0 0.0003088 3226.40820 3230.28052
3250.0 0.0003077 3226.49219 3230.41138
3210.0 0.0003115 3226.57617 3230.56006
3236.0 0.0003090 3226.66016 3230.72998
3199.0 0.0003126 3226.74390 3230.92407
3380.0 0.0002959 3226.82764 3231.14429
3241.0 0.0003085 3226.91138 3231.31567
3262.0 0.0003066 3226.99463 3231.60962
3204.0 0.0003121 3227.07813 3231.95630
3248.0 0.0003079 3227.16113 3232.37549
3263.0 0.0003065 3227.24438 3232.89697
3166.0 0.0003159 3227.32715 3233.57178
3177.0 0.0003148 3227.40991 3234.46875
3194.0 0.0003131 3227.49243 3235.67700
3260.0 0.0003067 3227.57471 3237.30762
3313.0 0.0003018 3227.65698 3239.47266
3266.0 0.0003062 3227.73901 3242.26196
3160.0 0.0003165 3227.82080 3245.70679
3216.0 0.0003109 3227.90259 3249.70264
3150.0 0.0003175 3227.98389 3254.08838
3234.0 0.0003092 3228.06519 3258.29175
3225.0 0.0003101 3228.14624 3261.69263
3344.0 0.0002990 3228.22705 3263.52612
3255.0 0.0003072 3228.30737 3263.68066
3249.0 0.0003078 3228.38770 3262.84302
3286.0 0.0003043 3228.46777 3262.04980
3204.0 0.0003121 3228.54761 3262.14868
3178.0 0.0003147 3228.62720 3263.61206
3303.0 0.0003028 3228.70630 3266.53174
3334.0 0.0002999 3228.78540 3270.60107
3333.0 0.0003000 3228.86401 3275.04395
3367.0 0.0002970 3228.94238 3278.57446
3271.0 0.0003057 3229.02051 3279.79297
3255.0 0.0003072 3229.09839 3277.98901
3215.0 0.0003110 3229.17578 3273.73975
3275.0 0.0003053 3229.25293 3268.37793
3270.0 0.0003058 3229.32959 3263.14111
3188.0 0.0003137 3229.40601 3258.83374
3194.0 0.0003131 3229.48218 3255.87280
3327.0 0.0003006 3229.55786 3256.04614
3199.0 0.0003126 3229.63330 3256.00464
3252.0 0.0003075 3229.70801 3257.10425
3288.0 0.0003041 3229.78271 3258.87451
3301.0 0.0003029 3229.85693 3260.64746
3281.0 0.0003048 3229.93066 3261.65845
3275.0 0.0003053 3230.00391 3261.32471
3241.0 0.0003085 3230.07666 3259.54297
3247.0 0.0003080 3230.14917 3256.71753
3302.0 0.0003028 3230.22119 3253.46582
3356.0 0.0002980 3230.29272 3250.27905
3249.0 0.0003078 3230.36377 3247.50073
3404.0 0.0002938 3230.43433 3245.94653
3127.0 0.0003198 3230.50439 3244.22705
3232.0 0.0003094 3230.57397 3242.97559
3339.0 0.0002995 3230.64307 3242.14551
3202.0 0.0003123 3230.71143 3241.63501
3165.0 0.0003160 3230.77954 3241.36841
3313.0 0.0003018 3230.84692 3241.28857
3267.0 0.0003061 3230.91382 3241.36011
3161.0 0.0003164 3230.98022 3241.56421
3154.0 0.0003171 3231.04590 3241.89282
3256.0 0.0003071 3231.11108 3242.34570
3242.0 0.0003085 3231.17578 3242.91699
3175.0 0.0003150 3231.23975 3243.59229
3220.0 0.0003106 3231.30298 3244.34521
3227.0 0.0003099 3231.36572 3245.09888
3227.0 0.0003099 3231.42773 3245.76294
3140.0 0.0003185 3231.48926 3246.24048
3233.0 0.0003093 3231.55005 3246.49805
3226.0 0.0003100 3231.61011 3246.60132
3226.0 0.0003100 3231.66943 3246.65820
3307.0 0.0003024 3231.72827 3246.76489
3207.0 0.0003118 3231.78638 3246.97925
3170.0 0.0003155 3231.84351 3247.33643
3296.0 0.0003034 3231.90015 3247.85400
3310.0 0.0003021 3231.95581 3248.54272
3241.0 0.0003085 3232.01099 3249.26807
3235.0 0.0003091 3232.06519 3250.34863
3225.0 0.0003101 3232.11890 3251.67798
3307.0 0.0003024 3232.17163 3253.33350
3162.0 0.0003163 3232.22339 3255.44067
3247.0 0.0003080 3232.27466 3258.19800
3253.0 0.0003074 3232.32495 3261.86401
3273.0 0.0003055 3232.37427 3266.78125
3238.0 0.0003088 3232.42285 3273.32813
3290.0 0.0003040 3232.47070 3281.85815
3301.0 0.0003029 3232.51758 3292.58203
3255.0 0.0003072 3232.56348 3305.47070
3334.0 0.0002999 3232.60864 3320.04712
3401.0 0.0002940 3232.65283 3335.14624
3438.0 0.0002909 3232.69629 3348.64355
3430.0 0.0002915 3232.73853 3357.67798
3414.0 0.0002929 3232.78003 3360.03320
3407.0 0.0002935 3232.82056 3355.89673
3244.0 0.0003083 3232.85986 3347.80615
3375.0 0.0002963 3232.89844 3338.87915
3441.0 0.0002906 3232.93604 3331.58179
3372.0 0.0002966 3232.97266 3327.63574
3324.0 0.0003008 3233.00806 3328.38550
3303.0 0.0003028 3233.04272 3335.11865
3348.0 0.0002987 3233.07617 3349.26074
3302.0 0.0003028 3233.10840 3372.40283
3345.0 0.0002990 3233.13989 3406.13867
3441.0 0.0002906 3233.17017 3451.68872
3327.0 0.0003006 3233.19946 3509.33350
3539.0 0.0002826 3233.22754 3577.60376
3687.0 0.0002712 3233.25439 3652.10181
3731.0 0.0002680 3233.28027 3723.94165
3909.0 0.0002558 3233.30518 3779.26343
3793.0 0.0002636 3233.32886 3803.56348
3918.0 0.0002552 3233.35132 3791.21143
3864.0 0.0002588 3233.37256 3750.07007
3728.0 0.0002682 3233.39258 3694.43335
3641.0 0.0002746 3233.41162 3635.67212
3491.0 0.0002865 3233.42944 3579.14380
3587.0 0.0002788 3233.44580 3526.13354
3400.0 0.0002941 3233.46118 3477.14722
3410.0 0.0002933 3233.47534 3433.46191
3433.0 0.0002913 3233.48804 3396.36792
3396.0 0.0002945 3233.49951 3366.23413
3427.0 0.0002918 3233.51001 3342.59155
3441.0 0.0002906 3233.51880 3324.39966
3437.0 0.0002910 3233.52661 3310.67480
3391.0 0.0002949 3233.53296 3300.45898
3363.0 0.0002974 3233.53809 3292.92261
3282.0 0.0003047 3233.54199 3287.38379
3291.0 0.0003039 3233.54443 3283.30786
3304.0 0.0003027 3233.54541 3280.29712
3456.0 0.0002894 3233.54517 3278.06665
3360.0 0.0002976 3233.54370 3276.42188
3340.0 0.0002994 3233.54053 3275.23462
3459.0 0.0002891 3233.53613 3274.42017
3314.0 0.0003018 3233.53052 3273.92041
3165.0 0.0003160 3233.52319 3273.69873
3279.0 0.0003050 3233.51465 3273.73120
3365.0 0.0002972 3233.50464 3274.00000
3215.0 0.0003110 3233.49292 3274.46948
3246.0 0.0003081 3233.47998 3275.18945
3232.0 0.0003094 3233.46558 3276.13013
3375.0 0.0002963 3233.44971 3277.29907
3258.0 0.0003069 3233.43237 3278.70386
3338.0 0.0002996 3233.41357 3280.35840
3299.0 0.0003031 3233.39307 3282.28052
3194.0 0.0003131 3233.37134 3284.49390
3448.0 0.0002900 3233.34790 3287.02637
3306.0 0.0003025 3233.32275 3289.91553
3253.0 0.0003074 3233.29639 3293.16333
3320.0 0.0003012 3233.26831 3296.90747
3236.0 0.0003090 3233.23877 3301.17114
3198.0 0.0003127 3233.20752 3306.03540
3346.0 0.0002989 3233.17480 3311.59814
3296.0 0.0003034 3233.14038 3317.98315
3343.0 0.0002991 3233.10449 3325.34595
3303.0 0.0003028 3233.06689 3333.88770
3322.0 0.0003010 3233.02783 3343.88330
3272.0 0.0003056 3232.98706 3355.72168
3333.0 0.0003000 3232.94458 3369.99146
3318.0 0.0003014 3232.90063 3387.61084
3430.0 0.0002915 3232.85474 3410.03369
3284.0 0.0003045 3232.80737 3439.55713
3423.0 0.0002921 3232.75830 3479.65332
3417.0 0.0002927 3232.70776 3535.20337
3496.0 0.0002860 3232.65527 3612.59399
3583.0 0.0002791 3232.60107 3719.31665
3609.0 0.0002771 3232.54541 3862.96118
3799.0 0.0002632 3232.48779 4049.53271
4055.0 0.0002466 3232.42871 4281.13184
4399.0 0.0002273 3232.36768 4552.90576
4826.0 0.0002072 3232.30518 4849.69385
5110.0 0.0001957 3232.24072 5136.36035
5617.0 0.0001780 3232.17456 5360.71924
5583.0 0.0001791 3232.10669 5463.40039
5476.0 0.0001826 3232.03711 5415.01855
5292.0 0.0001890 3231.96558 5241.63330
4865.0 0.0002055 3231.89258 5004.94092
4690.0 0.0002132 3231.81763 4764.46436
4410.0 0.0002268 3231.74072 4559.83008
4336.0 0.0002306 3231.66235 4411.51221
4237.0 0.0002360 3231.58203 4325.65918
4343.0 0.0002303 3231.50000 4297.23340
4621.0 0.0002164 3231.41602 4311.08008
4858.0 0.0002058 3231.33032 4341.96143
4819.0 0.0002075 3231.24292 4357.17432
4852.0 0.0002061 3231.15356 4327.71094
4555.0 0.0002195 3231.06226 4244.60791
4410.0 0.0002268 3230.96924 4123.15918
4029.0 0.0002482 3230.87451 3985.09131
3869.0 0.0002585 3230.77783 3850.43652
3609.0 0.0002771 3230.67920 3730.34448
3646.0 0.0002743 3230.57910 3629.71436
3482.0 0.0002872 3230.47681 3549.39551
3483.0 0.0002871 3230.37280 3488.32446
3506.0 0.0002852 3230.26685 3442.40308
3524.0 0.0002838 3230.15894 3408.73779
3627.0 0.0002757 3230.04932 3384.00220
3485.0 0.0002869 3229.93774 3365.35742
3487.0 0.0002868 3229.82446 3350.64526
3421.0 0.0002923 3229.70923 3338.46851
3352.0 0.0002983 3229.59204 3328.07764
3382.0 0.0002957 3229.47314 3319.10718
3334.0 0.0002999 3229.35229 3311.35718
3265.0 0.0003063 3229.22925 3304.68408
3361.0 0.0002975 3229.10474 3298.96777
3336.0 0.0002998 3228.97803 3294.09570
3210.0 0.0003115 3228.84961 3289.96289
3278.0 0.0003051 3228.71924 3286.46899
3239.0 0.0003087 3228.58716 3283.52979
3287.0 0.0003042 3228.45288 3281.09277
3340.0 0.0002994 3228.31689 3279.13892
3251.0 0.0003076 3228.17896 3277.65259
3224.0 0.0003102 3228.03906 3276.58496
3305.0 0.0003026 3227.89746 3275.82471
3194.0 0.0003131 3227.75391 3275.19897
3213.0 0.0003112 3227.60840 3274.46045
3236.0 0.0003090 3227.46094 3273.47705
3297.0 0.0003033 3227.31152 3272.22437
3200.0 0.0003125 3227.16040 3270.71338
3243.0 0.0003084 3227.00732 3268.90308
3226.0 0.0003100 3226.85229 3266.75415
3214.0 0.0003111 3226.69531 3264.35010
3204.0 0.0003121 3226.53662 3261.87305
3194.0 0.0003131 3226.37573 3259.50806
3165.0 0.0003160 3226.21313 3257.37036
3255.0 0.0003072 3226.04883 3255.50586
3202.0 0.0003123 3225.88232 3253.91772
3265.0 0.0003063 3225.71411 3252.58423
3101.0 0.0003225 3225.54395 3251.47119
3233.0 0.0003093 3225.37183 3250.54419
3229.0 0.0003097 3225.19800 3249.76733
3300.0 0.0003030 3225.02222 3249.11377
3261.0 0.0003067 3224.84448 3248.56250
3273.0 0.0003055 3224.66479 3248.09717
3252.0 0.0003075 3224.48340 3247.71143
3188.0 0.0003137 3224.30005 3247.39966
3316.0 0.0003016 3224.11499 3247.16333
3327.0 0.0003006 3223.92798 3247.00586
3176.0 0.0003149 3223.73901 3246.93872
3226.0 0.0003100 3223.54834 3247.15942
3088.0 0.0003238 3223.35571 3247.33423
3208.0 0.0003117 3223.16138 3247.68945
3200.0 0.0003125 3222.96509 3248.29614
3195.0 0.0003130 3222.76709 3248.81812
3245.0 0.0003082 3222.56689 3250.29346
3298.0 0.0003032 3222.36523 3252.45752
3235.0 0.0003091 3222.16162 3255.51563
3273.0 0.0003055 3221.95630 3259.66797
3274.0 0.0003054 3221.74902 3265.05396
3243.0 0.0003084 3221.54004 3271.61694
3288.0 0.0003041 3221.32935 3279.30591
3286.0 0.0003043 3221.11670 3287.51172
3261.0 0.0003067 3220.90234 3295.20337
3240.0 0.0003086 3220.68604 3300.82178
3290.0 0.0003040 3220.46826 3302.76392
3379.0 0.0002959 3220.24854 3300.38379
3223.0 0.0003103 3220.02686 3294.52026
3301.0 0.0003029 3219.80371 3286.82959
3264.0 0.0003064 3219.57886 3278.81250
3248.0 0.0003079 3219.35205 3271.42773
3258.0 0.0003069 3219.12354 3265.15649
3219.0 0.0003107 3218.89355 3260.16333
3292.0 0.0003038 3218.66162 3256.44385
3175.0 0.0003150 3218.42822 3253.79346
3174.0 0.0003151 3218.19287 3252.04370
3295.0 0.0003035 3217.95581 3250.99341
3185.0 0.0003140 3217.71729 3250.47021
3298.0 0.0003032 3217.47681 3250.33960
3210.0 0.0003115 3217.23486 3250.50830
3221.0 0.0003105 3216.99121 3250.91602
3192.0 0.0003133 3216.74609 3251.53076
3204.0 0.0003121 3216.49902 3252.33569
3288.0 0.0003041 3216.25073 3253.32739
3282.0 0.0003047 3216.00049 3254.51196
3208.0 0.0003117 3215.74878 3255.89868
3252.0 0.0003075 3215.49536 3257.50537
3189.0 0.0003136 3215.24048 3259.35571
3267.0 0.0003061 3214.98389 3261.47534
3286.0 0.0003043 3214.72583 3263.90259
3212.0 0.0003113 3214.46631 3266.67871
3189.0 0.0003136 3214.20508 3269.85718
3256.0 0.0003071 3213.94238 3273.50562
3209.0 0.0003116 3213.67798 3277.70850
3262.0 0.0003066 3213.41235 3282.57397
3325.0 0.0003008 3213.14526 3288.25000
3273.0 0.0003055 3212.87646 3294.94653
3304.0 0.0003027 3212.60620 3302.97363
3385.0 0.0002954 3212.33447 3312.81348
3351.0 0.0002984 3212.06152 3325.22119
3316.0 0.0003016 3211.78687 3341.35913
3420.0 0.0002924 3211.51099 3362.95630
3380.0 0.0002959 3211.23364 3392.44116
3442.0 0.0002905 3210.95483 3432.96558
3377.0 0.0002961 3210.67456 3488.24414
3505.0 0.0002853 3210.39307 3562.10327
3491.0 0.0002865 3210.11011 3657.72363
3635.0 0.0002751 3209.82568 3776.58643
3792.0 0.0002637 3209.54028 3917.09180
3949.0 0.0002532 3209.25317 4072.63501
4054.0 0.0002467 3208.96509 4228.88916
4381.0 0.0002283 3208.67554 4361.52441
4462.0 0.0002241 3208.38452 4439.63867
4375.0 0.0002286 3208.09253 4440.49414
4340.0 0.0002304 3207.79907 4366.32373
4207.0 0.0002377 3207.50464 4242.79541
3926.0 0.0002547 3207.20874 4099.65625
3907.0 0.0002560 3206.91162 3964.28589
3856.0 0.0002593 3206.61328 3849.68115
3721.0 0.0002687 3206.31396 3763.84448
3608.0 0.0002772 3206.01343 3710.79077
3659.0 0.0002733 3205.71167 3692.35791
3723.0 0.0002686 3205.40894 3709.23706
3688.0 0.0002711 3205.10474 3761.45508
3702.0 0.0002701 3204.79980 3848.28687
3893.0 0.0002569 3204.49341 3967.55835
4188.0 0.0002388 3204.18628 4114.20898
4295.0 0.0002328 3203.87793 4277.14941
4555.0 0.0002195 3203.56836 4439.16846
4635.0 0.0002157 3203.25806 4572.75781
4618.0 0.0002165 3202.94653 4652.47754
4682.0 0.0002136 3202.63403 4670.43750
4533.0 0.0002206 3202.32056 4640.69727
4499.0 0.0002223 3202.00610 4584.25977
4497.0 0.0002224 3201.69067 4512.28174
4432.0 0.0002256 3201.37451 4422.40869
4289.0 0.0002332 3201.05737 4308.08691
4167.0 0.0002400 3200.73901 4170.86133
4046.0 0.0002472 3200.42017 4023.21802
3891.0 0.0002570 3200.10010 3880.10815
3868.0 0.0002585 3199.77954 3751.85449
3753.0 0.0002665 3199.45776 3643.22900
3720.0 0.0002688 3199.13550 3554.65332
3636.0 0.0002750 3198.81201 3484.78613
3518.0 0.0002843 3198.48804 3431.06592
3544.0 0.0002822 3198.16333 3390.51685
3600.0 0.0002778 3197.83765 3360.20386
3451.0 0.0002898 3197.51147 3337.53711
3469.0 0.0002883 3197.18433 3320.43921
3510.0 0.0002849 3196.85669 3307.38232
3350.0 0.0002985 3196.52832 3297.30981
3353.0 0.0002982 3196.19922 3289.51343
3308.0 0.0003023 3195.86963 3283.50610
3419.0 0.0002925 3195.53906 3278.91553
3337.0 0.0002997 3195.20801 3275.39355
3415.0 0.0002928 3194.87646 3272.53613
3256.0 0.0003071 3194.54419 3269.84570
3263.0 0.0003065 3194.21143 3266.81006
3270.0 0.0003058 3193.87817 3263.13672
3392.0 0.0002948 3193.54419 3258.93457
3324.0 0.0003008 3193.20996 3254.55811
3287.0 0.0003042 3192.87500 3250.37622
3302.0 0.0003028 3192.53979 3246.61597
3258.0 0.0003069 3192.20386 3243.38770
3166.0 0.0003159 3191.86768 3240.69873
3224.0 0.0003102 3191.53101 3238.53394
3286.0 0.0003043 3191.19385 3236.90942
3221.0 0.0003105 3190.85645 3235.88818
3219.0 0.0003107 3190.51831 3235.59033
3268.0 0.0003060 3190.18018 3236.19824
3208.0 0.0003117 3189.84155 3237.98779
3239.0 0.0003087 3189.50269 3241.35718
3233.0 0.0003093 3189.16357 3246.82935
3301.0 0.0003029 3188.82397 3255.02319
3288.0 0.0003041 3188.48413 3266.57935
3301.0 0.0003029 3188.14404 3282.02856
3327.0 0.0003006 3187.80396 3301.61304
3252.0 0.0003075 3187.46362 3325.05859
3373.0 0.0002965 3187.12280 3351.24609
3278.0 0.0003051 3186.78198 3377.75659
3265.0 0.0003063 3186.44092 3400.45532
3408.0 0.0002934 3186.09985 3413.94189
3397.0 0.0002944 3185.75830 3413.88477
3329.0 0.0003004 3185.41699 3400.02539
3306.0 0.0003025 3185.07544 3376.38281
3234.0 0.0003092 3184.73389 3348.38672
3291.0 0.0003039 3184.39233 3320.34888
3240.0 0.0003086 3184.05054 3294.84961
3255.0 0.0003072 3183.70898 3273.11768
3237.0 0.0003089 3183.36694 3255.49438
3235.0 0.0003091 3183.02539 3241.77881
3239.0 0.0003087 3182.68359 3231.46265
3231.0 0.0003095 3182.34204 3223.92310
3260.0 0.0003067 3182.00049 3218.55444
3178.0 0.0003147 3181.65894 3214.85864
3063.0 0.0003265 3181.31763 3212.47852
3176.0 0.0003149 3180.97632 3211.19312
3185.0 0.0003140 3180.63501 3210.83496
3203.0 0.0003122 3180.29395 3211.65356
3231.0 0.0003095 3179.95313 3213.13965
3210.0 0.0003115 3179.61255 3215.40454
3170.0 0.0003155 3179.27197 3218.24829
3206.0 0.0003119 3178.93188 3221.29199
3159.0 0.0003166 3178.59180 3223.90259
3265.0 0.0003063 3178.25195 3225.24414
3235.0 0.0003091 3177.91235 3224.60303
3239.0 0.0003087 3177.57324 3221.86084
3233.0 0.0003093 3177.23438 3217.57617
3107.0 0.0003219 3176.89575 3212.57666
3209.0 0.0003116 3176.55737 3207.54565
3172.0 0.0003153 3176.21948 3203.41431
3207.0 0.0003118 3175.88184 3199.37158
3236.0 0.0003090 3175.54468 3195.98438
3211.0 0.0003114 3175.20801 3193.22388
3263.0 0.0003065 3174.87134 3191.01245
3231.0 0.0003095 3174.53564 3189.24927
3210.0 0.0003115 3174.19995 3187.83130
3271.0 0.0003057 3173.86499 3186.66821
3219.0 0.0003107 3173.53027 3185.68872
3097.0 0.0003229 3173.19629 3184.83960
3185.0 0.0003140 3172.86279 3184.08496
3251.0 0.0003076 3172.52954 3183.40015
3102.0 0.0003224 3172.19727 3182.77002
3281.0 0.0003048 3171.86523 3182.18262
3127.0 0.0003198 3171.53369 3181.63281
3202.0 0.0003123 3171.20288 3181.11670
3116.0 0.0003209 3170.87280 3180.62915
3196.0 0.0003129 3170.54321 3180.16895
3210.0 0.0003115 3170.21411 3179.73364
3206.0 0.0003119 3169.88574 3179.32227
3185.0 0.0003140 3169.55811 3178.93481
3144.0 0.0003181 3169.23120 3178.57080
3140.0 0.0003185 3168.90479 3178.22949
3201.0 0.0003124 3168.57910 3177.91235
3125.0 0.0003200 3168.25415 3177.62085
3187.0 0.0003138 3167.93018 3177.35596
3166.0 0.0003159 3167.60669 3177.12207
3126.0 0.0003199 3167.28394 3176.92383
2969.0 0.0003368 3166.96216 3176.76904
3129.0 0.0003196 3166.64087 3176.66772
3124.0 0.0003201 3166.32056 3176.63501
3157.0 0.0003168 3166.00098 3176.68799
3206.0 0.0003119 3165.68237 3176.84937
3222.0 0.0003104 3165.36450 3177.13989
3038.0 0.0003292 3165.04736 3176.61353
3145.0 0.0003180 3164.73145 3177.22974
3214.0 0.0003111 3164.41602 3178.00488
3105.0 0.0003221 3164.10181 3178.91504
3245.0 0.0003082 3163.78809 3179.89917
3085.0 0.0003241 3163.47559 3180.85254
3144.0 0.0003181 3163.16406 3181.63354
3115.0 0.0003210 3162.85327 3182.12964
3197.0 0.0003128 3162.54370 3182.34839
3267.0 0.0003061 3162.23486 3182.43286
3239.0 0.0003087 3161.92700 3182.59814
3122.0 0.0003203 3161.62012 3183.05518
3172.0 0.0003153 3161.31421 3184.00879
3244.0 0.0003083 3161.00952 3185.67358
3102.0 0.0003224 3160.70557 3188.30151
3096.0 0.0003230 3160.40283 3192.19946
3206.0 0.0003119 3160.10107 3197.73193
3160.0 0.0003165 3159.80054 3205.31006
3230.0 0.0003096 3159.50073 3214.44336
3211.0 0.0003114 3159.20239 3227.32739
3302.0 0.0003028 3158.90479 3243.22192
3201.0 0.0003124 3158.60864 3261.94604
3290.0 0.0003040 3158.31323 3282.70874
3332.0 0.0003001 3158.01904 3303.43213
3300.0 0.0003030 3157.72607 3323.28735
3334.0 0.0002999 3157.43408 3340.03027
3313.0 0.0003018 3157.14355 3352.42603
3324.0 0.0003008 3156.85376 3358.94409
3419.0 0.0002925 3156.56543 3357.46851
3448.0 0.0002900 3156.27808 3346.70996
3277.0 0.0003052 3155.99219 3327.99512
3354.0 0.0002982 3155.70703 3304.52197
3246.0 0.0003081 3155.42358 3280.00220
3284.0 0.0003045 3155.14111 3256.99561
3134.0 0.0003191 3154.85962 3236.86792
3279.0 0.0003050 3154.57983 3220.12305
3215.0 0.0003110 3154.30078 3206.73291
3260.0 0.0003067 3154.02344 3196.36133
3311.0 0.0003020 3153.74707 3188.51807
3210.0 0.0003115 3153.47192 3182.67529
3166.0 0.0003159 3153.19800 3178.33789
3081.0 0.0003246 3152.92554 3175.09302
3160.0 0.0003165 3152.65430 3172.62158
3189.0 0.0003136 3152.38428 3170.69263
3350.0 0.0002985 3152.11572 3169.14722
3264.0 0.0003064 3151.84839 3167.86646
3113.0 0.0003212 3151.58228 3166.81152
3120.0 0.0003205 3151.31738 3165.92261
3151.0 0.0003174 3151.05420 3165.17139
3199.0 0.0003126 3150.79199 3164.53491
3312.0 0.0003019 3150.53125 3164.00073
3243.0 0.0003084 3150.27173 3163.55664
3093.0 0.0003233 3150.01367 3163.19409
3164.0 0.0003161 3149.75684 3162.91040
3278.0 0.0003051 3149.50146 3162.70068
3204.0 0.0003121 3149.24731 3162.56250
3159.0 0.0003166 3148.99487 3162.49414
3208.0 0.0003117 3148.74341 3162.49683
3123.0 0.0003202 3148.49365 3162.58447
3212.0 0.0003113 3148.24512 3162.73486
3117.0 0.0003208 3147.99780 3162.96631
3142.0 0.0003183 3147.75195 3163.28320
3206.0 0.0003119 3147.50757 3163.69385
3229.0 0.0003097 3147.26465 3164.20825
3263.0 0.0003065 3147.02319 3164.83813
3236.0 0.0003090 3146.78296 3165.60010
3182.0 0.0003143 3146.54419 3166.51172
3153.0 0.0003172 3146.30688 3167.59888
3195.0 0.0003130 3146.07080 3168.89453
3083.0 0.0003244 3145.83643 3170.27148
3249.0 0.0003078 3145.60327 3172.15186
3212.0 0.0003113 3145.37183 3174.45898
3170.0 0.0003155 3145.14136 3177.34619
3275.0 0.0003053 3144.91284 3181.03906
3220.0 0.0003106 3144.68530 3185.86011
3215.0 0.0003110 3144.45947 3192.24634
3164.0 0.0003161 3144.23511 3200.74976
3193.0 0.0003132 3144.01196 3212.00928
3213.0 0.0003112 3143.79028 3226.68872
3203.0 0.0003122 3143.57031 3245.36182
3259.0 0.0003068 3143.35156 3268.37158
3304.0 0.0003027 3143.13428 3295.76953
3428.0 0.0002917 3142.91846 3326.57031
3394.0 0.0002946 3142.70435 3359.10693
3431.0 0.0002915 3142.49146 3390.21777
3436.0 0.0002910 3142.28003 3415.55151
3450.0 0.0002899 3142.07007 3431.32275
3495.0 0.0002861 3141.86157 3437.16992
3423.0 0.0002921 3141.65454 3437.18530
3358.0 0.0002978 3141.44897 3437.94238
3403.0 0.0002939 3141.24487 3445.50610
3320.0 0.0003012 3141.04248 3463.98267
3526.0 0.0002836 3140.84131 3495.18896
3545.0 0.0002821 3140.64160 3538.65381
3583.0 0.0002791 3140.44336 3591.00659
3736.0 0.0002677 3140.24658 3645.28735
3743.0 0.0002672 3140.05127 3690.46216
3757.0 0.0002662 3139.85742 3713.40039
3766.0 0.0002655 3139.66528 3704.83496
3649.0 0.0002740 3139.47412 3665.37036
3508.0 0.0002851 3139.28491 3604.67969
3525.0 0.0002837 3139.09692 3534.93237
3487.0 0.0002868 3138.91040 3465.65430
3302.0 0.0003028 3138.72559 3402.58105
3440.0 0.0002907 3138.54199 3348.47876
3361.0 0.0002975 3138.35986 3304.15259
3354.0 0.0002982 3138.17920 3269.16724
3306.0 0.0003025 3138.00000 3242.36621
3332.0 0.0003001 3137.82227 3222.26196
3248.0 0.0003079 3137.64600 3207.33447
3288.0 0.0003041 3137.47144 3196.23462
3243.0 0.0003084 3137.29785 3187.86499
3242.0 0.0003085 3137.12598 3181.40723
3298.0 0.0003032 3136.95557 3176.28125
3254.0 0.0003073 3136.78662 3172.09692
3146.0 0.0003179 3136.61914 3168.59644
3174.0 0.0003151 3136.45313 3165.61206
3240.0 0.0003086 3136.28857 3163.02979
3146.0 0.0003179 3136.12524 3160.77246
3205.0 0.0003120 3135.96362 3158.78345
3203.0 0.0003122 3135.80322 3157.01978
3111.0 0.0003214 3135.64453 3155.44751
3103.0 0.0003223 3135.48706 3154.04150
3204.0 0.0003121 3135.33105 3152.77783
3205.0 0.0003120 3135.17651 3151.63965
3200.0 0.0003125 3135.02344 3150.61206
3078.0 0.0003249 3134.87158 3149.68213
3162.0 0.0003163 3134.72144 3148.83984
3260.0 0.0003067 3134.57251 3148.07666
3218.0 0.0003108 3134.42505 3147.38452
3098.0 0.0003228 3134.27905 3146.75977
3151.0 0.0003174 3134.13452 3146.19458
3079.0 0.0003248 3133.99121 3145.68774
3178.0 0.0003147 3133.84961 3145.23511
3179.0 0.0003146 3133.70898 3144.83643
3193.0 0.0003132 3133.57007 3144.48828
3135.0 0.0003190 3133.43237 3144.19214
3165.0 0.0003160 3133.29614 3143.94897
3171.0 0.0003154 3133.16138 3143.76123
3190.0 0.0003135 3133.02808 3143.62744
3128.0 0.0003197 3132.89600 3143.56519
3154.0 0.0003171 3132.76538 3143.57983
3135.0 0.0003190 3132.63599 3143.68506
3096.0 0.0003230 3132.50806 3143.90283
3162.0 0.0003163 3132.38159 3144.26245
3104.0 0.0003222 3132.25635 3144.80347
3096.0 0.0003230 3132.13232 3145.57593
3238.0 0.0003088 3132.01001 3146.64502
3190.0 0.0003135 3131.88892 3148.08984
3100.0 0.0003226 3131.76904 3150.00366
3113.0 0.0003212 3131.65063 3152.50171
3224.0 0.0003102 3131.53369 3155.70752
3241.0 0.0003085 3131.41772 3159.74341
3145.0 0.0003180 3131.30347 3164.70239
3211.0 0.0003114 3131.19043 3170.61865
3125.0 0.0003200 3131.07861 3177.50439
3168.0 0.0003157 3130.96802 3185.34009
3158.0 0.0003167 3130.85913 3194.32739
3243.0 0.0003084 3130.75122 3204.33984
3238.0 0.0003088 3130.64478 3214.90918
3201.0 0.0003124 3130.53955 3224.77808
3289.0 0.0003040 3130.43579 3232.39868
3275.0 0.0003053 3130.33301 3235.56323
3190.0 0.0003135 3130.23169 3233.03711
3197.0 0.0003128 3130.13184 3225.30176
3243.0 0.0003084 3130.03296 3214.19580
3179.0 0.0003146 3129.93555 3201.79150
3220.0 0.0003106 3129.83960 3189.64453
3214.0 0.0003111 3129.74463 3178.67114
3157.0 0.0003168 3129.65088 3169.29517
3259.0 0.0003068 3129.55859 3161.63501
3182.0 0.0003143 3129.46753 3155.60474
3106.0 0.0003220 3129.37769 3151.00488
3120.0 0.0003205 3129.28906 3147.58374
3078.0 0.0003249 3129.20166 3145.08594
3174.0 0.0003151 3129.11548 3143.28662
3133.0 0.0003192 3129.03076 3142.00537
3160.0 0.0003165 3128.94702 3141.10815
3105.0 0.0003221 3128.86475 3140.50586
3215.0 0.0003110 3128.78345 3140.14185
3111.0 0.0003214 3128.70337 3139.99463
3082.0 0.0003245 3128.62476 3140.06763
3025.0 0.0003306 3128.54712 3140.38257
3237.0 0.0003089 3128.47095 3140.96289
3053.0 0.0003275 3128.39575 3141.81665
3092.0 0.0003234 3128.32178 3142.92432
3169.0 0.0003156 3128.24902 3144.22192
3072.0 0.0003255 3128.17749 3145.58008
3004.0 0.0003329 3128.10718 3146.79102
3179.0 0.0003146 3128.03784 3147.59180
3105.0 0.0003221 3127.96997 3147.77783
3286.0 0.0003043 3127.90308 3147.33936
3083.0 0.0003244 3127.83740 3146.47607
3147.0 0.0003178 3127.77295 3145.47290
3104.0 0.0003222 3127.70972 3144.57129
3175.0 0.0003150 3127.64746 3143.91138
3086.0 0.0003240 3127.58643 3143.54614
3104.0 0.0003222 3127.52661 3143.46021
3217.0 0.0003108 3127.46777 3143.58936
3083.0 0.0003244 3127.41016 3143.82642
3120.0 0.0003205 3127.35376 3144.01636
3210.0 0.0003115 3127.29834 3143.99292
3130.0 0.0003195 3127.24414 3143.65894
3097.0 0.0003229 3127.19116 3143.05884
3150.0 0.0003175 3127.13916 3142.34717
3260.0 0.0003067 3127.08838 3141.70068
3161.0 0.0003164 3127.03857 3141.25757
3074.0 0.0003253 3126.98999 3141.10327
3075.0 0.0003252 3126.94238 3141.28271
3095.0 0.0003231 3126.89600 3141.80347
3171.0 0.0003154 3126.85083 3142.63208
3079.0 0.0003248 3126.80640 3143.70068
3077.0 0.0003250 3126.76343 3144.88696
3121.0 0.0003204 3126.72119 3146.03662
3112.0 0.0003213 3126.68042 3146.96997
3204.0 0.0003121 3126.64038 3147.63501
3106.0 0.0003220 3126.60156 3148.13379
3100.0 0.0003226 3126.56396 3148.70654
3104.0 0.0003222 3126.52710 3149.44531
3154.0 0.0003171 3126.49146 3151.07544
3047.0 0.0003282 3126.45703 3153.72070
3111.0 0.0003214 3126.42358 3157.74927
3014.0 0.0003318 3126.39111 3163.56421
3167.0 0.0003158 3126.35962 3171.58374
3104.0 0.0003222 3126.32935 3182.32227
3150.0 0.0003175 3126.30005 3195.76636
3138.0 0.0003187 3126.27173 3212.09131
3150.0 0.0003175 3126.24438 3230.96948
3137.0 0.0003188 3126.21826 3251.49707
3293.0 0.0003037 3126.19312 3271.40845
3258.0 0.0003069 3126.16895 3288.94531
3336.0 0.0002998 3126.14575 3300.22510
3273.0 0.0003055 3126.12378 3302.75488
3351.0 0.0002984 3126.10254 3296.47852
3356.0 0.0002980 3126.08252 3283.72510
3242.0 0.0003085 3126.06348 3267.55664
3273.0 0.0003055 3126.04541 3250.29590
3149.0 0.0003176 3126.02832 3233.19043
3182.0 0.0003143 3126.01221 3216.84424
3176.0 0.0003149 3125.99731 3201.71094
3205.0 0.0003120 3125.98315 3188.23486
3156.0 0.0003169 3125.96997 3176.71289
3160.0 0.0003165 3125.95801 3167.19849
3283.0 0.0003046 3125.94678 3159.54468
3104.0 0.0003222 3125.93677 3153.49634
3190.0 0.0003135 3125.92749 3148.77148
3230.0 0.0003096 3125.91943 3145.10010
3192.0 0.0003133 3125.91211 3142.25049
3217.0 0.0003108 3125.90601 3140.02808
3092.0 0.0003234 3125.90088 3138.27734
3242.0 0.0003085 3125.89648 3136.87939
3108.0 0.0003218 3125.89307 3135.74365
3078.0 0.0003249 3125.89087 3134.80444
3107.0 0.0003219 3125.88940 3134.01416
3171.0 0.0003154 3125.88892 3133.33936
3099.0 0.0003227 3125.88940 3132.75586
3136.0 0.0003189 3125.89087 3132.24683
3170.0 0.0003155 3125.89331 3131.79834
3117.0 0.0003208 3125.89648 3131.40186
3103.0 0.0003223 3125.90088 3131.05005
3106.0 0.0003220 3125.90601 3130.73560
3184.0 0.0003141 3125.91211 3130.45508
3085.0 0.0003241 3125.91919 3130.20288
3063.0 0.0003265 3125.92725 3129.97705
3151.0 0.0003174 3125.93628 3129.77319
3163.0 0.0003162 3125.94604 3129.59009
3124.0 0.0003201 3125.95679 3129.42383
3066.0 0.0003262 3125.96851 3129.27466
3138.0 0.0003187 3125.98120 3129.14038
3083.0 0.0003244 3125.99463 3129.01855
3129.0 0.0003196 3126.00903 3128.90894
3173.0 0.0003152 3126.02441 3128.80957
3230.0 0.0003096 3126.04077 3129.19312
3134.0 0.0003191 3126.05786 3129.11963
3210.0 0.0003115 3126.07593 3129.05444
3135.0 0.0003190 3126.09497 3128.99756
3083.0 0.0003244 3126.11475 3128.94824
3126.0 0.0003199 3126.13550 3128.90576
3090.0 0.0003236 3126.15723 3128.86890
3098.0 0.0003228 3126.17969 3128.83813
3166.0 0.0003159 3126.20313 3128.81372
3204.0 0.0003121 3126.22729 3128.79492
3197.0 0.0003128 3126.25244 3128.78027
3021.0 0.0003310 3126.27856 3128.77100
3107.0 0.0003219 3126.30542 3128.76660
3180.0 0.0003145 3126.33325 3128.76660
3106.0 0.0003220 3126.36182 3128.77075
3141.0 0.0003184 3126.39136 3128.76978
3131.0 0.0003194 3126.42188 3128.78296
3193.0 0.0003132 3126.45313 3128.79980
3147.0 0.0003178 3126.48511 3129.73120
3163.0 0.0003162 3126.51807 3129.76880
3150.0 0.0003175 3126.55176 3129.81030
3115.0 0.0003210 3126.58643 3129.85645
3154.0 0.0003171 3126.62183 3129.81323
3163.0 0.0003162 3126.65820 3129.87012
3033.0 0.0003297 3126.69531 3129.93140
3158.0 0.0003167 3126.73340 3129.99707
3182.0 0.0003143 3126.77222 3130.06909
3171.0 0.0003154 3126.81177 3130.14673
3114.0 0.0003211 3126.85229 3130.23047
3013.0 0.0003319 3126.89355 3130.32178
3033.0 0.0003297 3126.93579 3130.42212
3122.0 0.0003203 3126.97852 3130.53223
3105.0 0.0003221 3127.02222 3130.65796
3032.0 0.0003298 3127.06689 3130.80151
3061.0 0.0003267 3127.11230 3130.97070
3236.0 0.0003090 3127.15820 3131.17383
3107.0 0.0003219 3127.20508 3131.42017
3121.0 0.0003204 3127.25293 3131.72217
3181.0 0.0003144 3127.30127 3132.09082
3060.0 0.0003268 3127.35059 3132.53467
3188.0 0.0003137 3127.40063 3133.05908
3112.0 0.0003213 3127.45142 3133.66162
3288.0 0.0003041 3127.50317 3134.32471
3120.0 0.0003205 3127.55542 3135.01514
3097.0 0.0003229 3127.60864 3135.67188
3127.0 0.0003198 3127.66235 3136.20703
3085.0 0.0003241 3127.71704 3136.52539
3026.0 0.0003305 3127.77246 3136.57422
3097.0 0.0003229 3127.82837 3136.37500
3140.0 0.0003185 3127.88525 3135.99829
3132.0 0.0003193 3127.94287 3135.56421
2997.0 0.0003337 3128.00122 3135.13550
3117.0 0.0003208 3128.06006 3134.75684
3075.0 0.0003252 3128.11987 3134.45313
3110.0 0.0003215 3128.18042 3134.23267
3082.0 0.0003245 3128.24146 3134.09399
3054.0 0.0003274 3128.30322 3134.03052
3187.0 0.0003138 3128.36572 3134.03198
3109.0 0.0003216 3128.42896 3134.08887
3084.0 0.0003243 3128.49292 3134.19141
3176.0 0.0003149 3128.55737 3134.33081
3091.0 0.0003235 3128.62280 3134.49219
3152.0 0.0003173 3128.68872 3134.68848
3255.0 0.0003072 3128.75513 3134.90698
3181.0 0.0003144 3128.82251 3135.14673
3044.0 0.0003285 3128.89014 3135.40381
3079.0 0.0003248 3128.95874 3135.67651
3137.0 0.0003188 3129.02783 3135.96118
3128.0 0.0003197 3129.09766 3136.25562
3092.0 0.0003234 3129.16797 3136.55786
3240.0 0.0003086 3129.23877 3136.98071
3115.0 0.0003210 3129.31055 3137.31543
3168.0 0.0003157 3129.38257 3137.67554
3115.0 0.0003210 3129.45532 3138.06714
3144.0 0.0003181 3129.52881 3138.49780
3138.0 0.0003187 3129.60254 3138.97437
2981.0 0.0003355 3129.67700 3139.50366
3028.0 0.0003303 3129.75195 3140.10034
3069.0 0.0003258 3129.82764 3140.77710
3108.0 0.0003218 3129.90381 3141.55566
3170.0 0.0003155 3129.98022 3142.46069
3127.0 0.0003198 3130.05737 3143.52344
3088.0 0.0003238 3130.13501 3144.77979
3102.0 0.0003224 3130.21313 3146.26807
3032.0 0.0003298 3130.29199 3148.02686
3243.0 0.0003084 3130.37109 3150.09326
3120.0 0.0003205 3130.45068 3152.49805
3188.0 0.0003137 3130.53076 3155.26489
3120.0 0.0003205 3130.61133 3158.40796
3165.0 0.0003160 3130.69214 3161.91016
3124.0 0.0003201 3130.77368 3165.76367
3138.0 0.0003187 3130.85547 3170.00806
3143.0 0.0003182 3130.93774 3174.83691
3159.0 0.0003166 3131.02026 3180.65674
3209.0 0.0003116 3131.10327 3188.16895
3148.0 0.0003177 3131.18677 3197.63184
3268.0 0.0003060 3131.27075 3209.59033
3240.0 0.0003086 3131.35474 3224.18799
3247.0 0.0003080 3131.43945 3241.20288
3276.0 0.0003053 3131.52417 3259.89111
3341.0 0.0002993 3131.60938 3278.76831
3259.0 0.0003068 3131.69482 3295.43213
3301.0 0.0003029 3131.78052 3306.77515
3352.0 0.0002983 3131.86670 3310.03711
3377.0 0.0002961 3131.95313 3304.32959
3305.0 0.0003026 3132.03955 3291.21338
3284.0 0.0003045 3132.12646 3273.68042
3257.0 0.0003070 3132.21362 3254.65649
3263.0 0.0003065 3132.30103 3236.23853
3158.0 0.0003167 3132.38843 3219.65527
3187.0 0.0003138 3132.47632 3205.36572
3200.0 0.0003125 3132.56421 3193.79346
3197.0 0.0003128 3132.65234 3184.69604
3165.0 0.0003160 3132.74048 3177.79517
3232.0 0.0003094 3132.82886 3172.73608
3102.0 0.0003224 3132.91748 3169.14868
3129.0 0.0003196 3133.00610 3166.67505
3218.0 0.0003108 3133.09497 3165.07471
3179.0 0.0003146 3133.18384 3164.10962
3268.0 0.0003060 3133.27271 3163.62158
3178.0 0.0003147 3133.36157 3163.50122
3160.0 0.0003165 3133.45068 3163.67896
3197.0 0.0003128 3133.53979 3164.11182
3145.0 0.0003180 3133.62866 3164.77515
3153.0 0.0003172 3133.71777 3165.65845
3128.0 0.0003197 3133.80688 3166.76123
3173.0 0.0003152 3133.89575 3168.08716
3147.0 0.0003178 3133.98486 3169.65454
3297.0 0.0003033 3134.07373 3171.47632
3178.0 0.0003147 3134.16235 3173.58325
3205.0 0.0003120 3134.25098 3176.01221
3180.0 0.0003145 3134.33960 3178.81641
3218.0 0.0003108 3134.42798 3182.06665
3293.0 0.0003037 3134.51636 3185.86816
3167.0 0.0003158 3134.60449 3190.37305
3136.0 0.0003189 3134.69238 3195.80591
3173.0 0.0003152 3134.78003 3202.49365
3201.0 0.0003124 3134.86743 3210.90649
3213.0 0.0003112 3134.95459 3221.68921
3216.0 0.0003109 3135.04175 3235.68823
3158.0 0.0003167 3135.12817 3253.94312
3193.0 0.0003132 3135.21460 3277.63916
3328.0 0.0003005 3135.30078 3307.99854
3365.0 0.0002972 3135.38647 3346.10181
3356.0 0.0002980 3135.47192 3392.65771
3394.0 0.0002946 3135.55688 3447.69580
3411.0 0.0002932 3135.64136 3510.17480
3583.0 0.0002791 3135.72559 3577.41455
3658.0 0.0002734 3135.80933 3644.35962
3681.0 0.0002717 3135.89258 3703.07373
3977.0 0.0002514 3135.97559 3743.68237
3892.0 0.0002569 3136.05786 3758.03589
3807.0 0.0002627 3136.13965 3744.25000
3786.0 0.0002641 3136.22095 3708.49609
3762.0 0.0002658 3136.30151 3661.31201
3686.0 0.0002713 3136.38184 3613.08813
3486.0 0.0002869 3136.46143 3571.85742
3480.0 0.0002874 3136.54028 3543.27710
3558.0 0.0002811 3136.61865 3531.29126
3510.0 0.0002849 3136.69629 3538.66333
3588.0 0.0002787 3136.77319 3567.18140
3574.0 0.0002798 3136.84937 3617.62158
3719.0 0.0002689 3136.92505 3689.52368
3713.0 0.0002693 3136.99976 3780.75464
3822.0 0.0002616 3137.07373 3886.80664
3908.0 0.0002559 3137.14697 3999.50757
4234.0 0.0002362 3137.21948 4105.89063
4438.0 0.0002253 3137.29102 4188.04541
4540.0 0.0002203 3137.36182 4227.13037
4418.0 0.0002263 3137.43164 4211.84131
4217.0 0.0002371 3137.50073 4145.21143
4181.0 0.0002392 3137.56860 4042.47510
4042.0 0.0002474 3137.63574 3922.37378
3786.0 0.0002641 3137.70190 3800.22314
3550.0 0.0002817 3137.76709 3685.93652
3561.0 0.0002808 3137.83105 3584.87939
3553.0 0.0002815 3137.89429 3499.26514
3422.0 0.0002922 3137.95630 3429.21411
3331.0 0.0003002 3138.01709 3373.53833
3420.0 0.0002924 3138.07715 3330.29956
3509.0 0.0002850 3138.13574 3297.25757
3420.0 0.0002924 3138.19336 3272.20801
3467.0 0.0002884 3138.24976 3253.19629
3404.0 0.0002938 3138.30493 3238.62158
3473.0 0.0002879 3138.35889 3227.25537
3434.0 0.0002912 3138.41162 3218.20239
3422.0 0.0002922 3138.46313 3210.84424
3351.0 0.0002984 3138.51318 3204.73364
3357.0 0.0002979 3138.56201 3199.58887
3326.0 0.0003007 3138.60962 3195.21338
3273.0 0.0003055 3138.65576 3191.46655
3337.0 0.0002997 3138.70044 3188.24414
3216.0 0.0003109 3138.74390 3185.46362
3279.0 0.0003050 3138.78589 3183.06689
3216.0 0.0003109 3138.82617 3180.95630
3051.0 0.0003278 3138.86523 3179.07983
3171.0 0.0003154 3138.90259 3177.38062
3246.0 0.0003081 3138.93872 3175.81958
3151.0 0.0003174 3138.97290 3174.51099
3137.0 0.0003188 3139.00586 3173.24487
3057.0 0.0003271 3139.03711 3172.15063
3162.0 0.0003163 3139.06665 3171.24976
3313.0 0.0003018 3139.09448 3170.55859
3135.0 0.0003190 3139.12085 3170.09839
3162.0 0.0003163 3139.14551 3169.89624
3132.0 0.0003193 3139.16821 3169.99438
3209.0 0.0003116 3139.18945 3170.45874
3117.0 0.0003208 3139.20874 3171.38379
3147.0 0.0003178 3139.22632 3172.90112
3107.0 0.0003219 3139.24219 3175.18701
3122.0 0.0003203 3139.25610 3178.45190
3085.0 0.0003241 3139.26807 3182.93701
3218.0 0.0003108 3139.27832 3188.88208
3098.0 0.0003228 3139.28662 3196.49414
3182.0 0.0003143 3139.29297 3205.89331
3233.0 0.0003093 3139.29736 3217.05566
3154.0 0.0003171 3139.29980 3229.72607
3169.0 0.0003156 3139.30029 3243.30151
3315.0 0.0003017 3139.29883 3256.67944
3182.0 0.0003143 3139.29517 3268.16772
3207.0 0.0003118 3139.28955 3275.68677
3336.0 0.0002998 3139.28174 3277.50806
3230.0 0.0003096 3139.27197 3273.20215
3330.0 0.0003003 3139.26001 3263.91846
3206.0 0.0003119 3139.24585 3251.69507
3266.0 0.0003062 3139.22949 3238.51807
3110.0 0.0003215 3139.21118 3225.84302
3180.0 0.0003145 3139.19043 3214.57129
3110.0 0.0003215 3139.16748 3205.19922
3221.0 0.0003105 3139.14233 3197.95850
3221.0 0.0003105 3139.11475 3192.92896
3146.0 0.0003179 3139.08521 3190.11719
3133.0 0.0003192 3139.05298 3189.51392
3157.0 0.0003168 3139.01855 3191.15625
3160.0 0.0003165 3138.98193 3195.06055
3201.0 0.0003124 3138.94263 3201.32959
3253.0 0.0003074 3138.90112 3210.03516
3215.0 0.0003110 3138.85718 3221.17358
3293.0 0.0003037 3138.81079 3234.60986
3239.0 0.0003087 3138.76196 3250.02637
3104.0 0.0003222 3138.71069 3266.81104
3160.0 0.0003165 3138.65698 3283.87427
3310.0 0.0003021 3138.60059 3299.39990
3316.0 0.0003016 3138.54175 3310.88062
3322.0 0.0003010 3138.48047 3315.69629
3294.0 0.0003036 3138.41650 3312.37524
3361.0 0.0002975 3138.34985 3301.50269
3266.0 0.0003062 3138.28076 3285.36108
3217.0 0.0003108 3138.20923 3266.69580
3275.0 0.0003053 3138.13477 3247.74854
3275.0 0.0003053 3138.05786 3229.98145
3156.0 0.0003169 3137.97803 3214.19360
3159.0 0.0003166 3137.89575 3200.72534
3163.0 0.0003162 3137.81079 3189.46851
3113.0 0.0003212 3137.72290 3180.53906
3161.0 0.0003164 3137.63257 3173.51953
3193.0 0.0003132 3137.53931 3168.08130
3257.0 0.0003070 3137.44336 3163.89819
3150.0 0.0003175 3137.34473 3160.67554
3162.0 0.0003163 3137.24316 3158.16675
3190.0 0.0003135 3137.13892 3156.18140
3206.0 0.0003119 3137.03174 3154.57715
3174.0 0.0003151 3136.92188 3153.31396
3168.0 0.0003157 3136.80933 3152.20288
3222.0 0.0003104 3136.69360 3151.25928
3223.0 0.0003103 3136.57520 3150.45337
3230.0 0.0003096 3136.45386 3149.76733
3192.0 0.0003133 3136.32983 3149.19189
3127.0 0.0003198 3136.20288 3148.72046
3294.0 0.0003036 3136.07275 3148.35449
3137.0 0.0003188 3135.94019 3148.08569
3128.0 0.0003197 3135.80444 3147.91577
3106.0 0.0003220 3135.66577 3147.83838
3108.0 0.0003218 3135.52417 3147.84937
3117.0 0.0003208 3135.37964 3147.91797
3244.0 0.0003083 3135.23218 3148.01660
3147.0 0.0003178 3135.08179 3148.09937
3067.0 0.0003261 3134.92847 3148.10718
3031.0 0.0003299 3134.77222 3147.99219
3221.0 0.0003105 3134.61279 3147.74072
3137.0 0.0003188 3134.45068 3147.38525
3268.0 0.0003060 3134.28540 3146.98608
3098.0 0.0003228 3134.11719 3146.60645
3076.0 0.0003251 3133.94604 3146.29590
3084.0 0.0003243 3133.77173 3146.11377
3107.0 0.0003219 3133.59473 3146.10400
3145.0 0.0003180 3133.41455 3146.27417
3092.0 0.0003234 3133.23145 3146.63550
3141.0 0.0003184 3133.04517 3147.28076
3188.0 0.0003137 3132.85596 3148.28198
3057.0 0.0003271 3132.66382 3149.73022
3123.0 0.0003202 3132.46875 3151.73022
3224.0 0.0003102 3132.27051 3154.39551
3118.0 0.0003207 3132.06934 3157.83301
3233.0 0.0003093 3131.86523 3162.12573
3088.0 0.0003238 3131.65820 3167.30225
3213.0 0.0003112 3131.44800 3173.30493
3170.0 0.0003155 3131.23486 3179.94434
3256.0 0.0003071 3131.01880 3186.83374
3139.0 0.0003186 3130.79980 3193.33032
3179.0 0.0003146 3130.57764 3198.53320
3176.0 0.0003149 3130.35254 3201.01147
3200.0 0.0003125 3130.12451 3201.13086
3095.0 0.0003231 3129.89355 3198.55347
3104.0 0.0003222 3129.65967 3194.09814
3176.0 0.0003149 3129.42285 3188.83496
3174.0 0.0003151 3129.18311 3183.70117
3258.0 0.0003069 3128.94019 3179.34473
3077.0 0.0003250 3128.69458 3176.13330
3165.0 0.0003160 3128.44604 3174.21191
3272.0 0.0003056 3128.19434 3173.53125
3115.0 0.0003210 3127.94019 3173.86401
3123.0 0.0003202 3127.68286 3174.79590
3187.0 0.0003138 3127.42261 3175.73120
3219.0 0.0003107 3127.15967 3175.99414
3133.0 0.0003192 3126.89380 3175.05127
3118.0 0.0003207 3126.62500 3172.75098
3143.0 0.0003182 3126.35352 3169.37085
3082.0 0.0003245 3126.07910 3165.41748
3097.0 0.0003229 3125.80176 3160.47998
3114.0 0.0003211 3125.52197 3156.75269
3094.0 0.0003232 3125.23926 3153.50195
3107.0 0.0003219 3124.95386 3150.83740
3186.0 0.0003139 3124.66553 3148.77124
3068.0 0.0003259 3124.37476 3147.24683
3111.0 0.0003214 3124.08105 3146.16260
3197.0 0.0003128 3123.78467 3145.40259
3142.0 0.0003183 3123.48560 3144.87549
3030.0 0.0003300 3123.18408 3144.55981
3038.0 0.0003292 3122.87988 3144.49561
3134.0 0.0003191 3122.57300 3144.75488
3123.0 0.0003202 3122.26367 3145.41138
3213.0 0.0003112 3121.95142 3146.52515
3200.0 0.0003125 3121.63696 3148.13843
3188.0 0.0003137 3121.31982 3150.27393
3236.0 0.0003090 3121.00024 3152.93359
3179.0 0.0003146 3120.67822 3156.12573
3144.0 0.0003181 3120.35376 3159.90967
3067.0 0.0003261 3120.02686 3164.45386
3055.0 0.0003273 3119.69751 3170.02515
3082.0 0.0003245 3119.36572 3176.89331
3131.0 0.0003194 3119.03174 3185.22168
3209.0 0.0003116 3118.69531 3194.96948
3201.0 0.0003124 3118.35669 3205.84082
3095.0 0.0003231 3118.01563 3217.28784
3240.0 0.0003086 3117.67261 3228.51074
3112.0 0.0003213 3117.32715 3238.40137
3167.0 0.0003158 3116.97949 3245.51123
3267.0 0.0003061 3116.62988 3248.27588
3254.0 0.0003073 3116.27808 3245.66821
3185.0 0.0003140 3115.92383 3237.85254
3201.0 0.0003124 3115.56812 3226.15967
3282.0 0.0003047 3115.20996 3212.41431
3177.0 0.0003148 3114.84985 3198.21313
3155.0 0.0003170 3114.48804 3184.67603
3270.0 0.0003058 3114.12402 3172.44897
3144.0 0.0003181 3113.75806 3161.83569
3213.0 0.0003112 3113.39038 3152.90674
3202.0 0.0003123 3113.02075 3145.58789
3081.0 0.0003246 3112.64941 3139.70288
3222.0 0.0003104 3112.27637 3135.03857
3067.0 0.0003261 3111.90161 3131.36987
3004.0 0.0003329 3111.52490 3128.48193
3110.0 0.0003215 3111.14673 3126.19116
3238.0 0.0003088 3110.76685 3124.34863
3065.0 0.0003263 3110.38550 3122.84229
3066.0 0.0003262 3110.00244 3121.59106
3175.0 0.0003150 3109.61816 3120.53979
3160.0 0.0003165 3109.23218 3119.65674
3138.0 0.0003187 3108.84497 3118.92700
3122.0 0.0003203 3108.45630 3118.34741
3156.0 0.0003169 3108.06592 3117.82227
3189.0 0.0003136 3107.67480 3117.58911
3146.0 0.0003179 3107.28198 3117.56641
3111.0 0.0003214 3106.88818 3117.78613
3118.0 0.0003207 3106.49316 3118.28345
3115.0 0.0003210 3106.09692 3119.08398
3118.0 0.0003207 3105.69946 3120.20117
3072.0 0.0003255 3105.30127 3121.62256
3190.0 0.0003135 3104.90186 3123.30347
3115.0 0.0003210 3104.50146 3125.14185
3201.0 0.0003124 3104.10010 3126.95923
3207.0 0.0003118 3103.69775 3128.48486
3217.0 0.0003108 3103.29492 3129.38843
3114.0 0.0003211 3102.89087 3129.37329
3074.0 0.0003253 3102.48633 3128.32471
3166.0 0.0003159 3102.08105 3126.37524
3205.0 0.0003120 3101.67505 3123.82910
3065.0 0.0003263 3101.26855 3121.01563
3086.0 0.0003240 3100.86133 3118.18799
3114.0 0.0003211 3100.45361 3115.52612
3107.0 0.0003219 3100.04517 3113.11646
3135.0 0.0003190 3099.63672 3111.49438
3170.0 0.0003155 3099.22754 3109.68457
3098.0 0.0003228 3098.81812 3108.15674
3179.0 0.0003146 3098.40869 3106.73218
3139.0 0.0003186 3097.99854 3105.66772
3132.0 0.0003193 3097.58838 3104.77759
3053.0 0.0003275 3097.17798 3104.02417
3055.0 0.0003273 3096.76758 3103.37939
3200.0 0.0003125 3096.35693 3102.81836
3145.0 0.0003180 3095.94653 3102.32471
3103.0 0.0003223 3095.53589 3101.88672
3049.0 0.0003280 3095.12549 3101.49463
3133.0 0.0003192 3094.71533 3101.14941
3135.0 0.0003190 3094.30493 3100.84741
3088.0 0.0003238 3093.89502 3100.59229
3111.0 0.0003214 3093.48535 3100.38794
3078.0 0.0003249 3093.07593 3100.24048
3108.0 0.0003218 3092.66699 3100.15942
3119.0 0.0003206 3092.25830 3100.15234
3100.0 0.0003226 3091.85034 3100.22974
3154.0 0.0003171 3091.44263 3100.40137
3156.0 0.0003169 3091.03564 3100.67749
3022.0 0.0003309 3090.62891 3101.06543
3113.0 0.0003212 3090.22314 3101.57642
3201.0 0.0003124 3089.81787 3102.59839
3143.0 0.0003182 3089.41357 3103.37109
3182.0 0.0003143 3089.00977 3104.28345
3096.0 0.0003230 3088.60718 3105.35889
2989.0 0.0003346 3088.20532 3106.65845
3082.0 0.0003245 3087.80420 3108.29883
3259.0 0.0003068 3087.40430 3110.44507
3138.0 0.0003187 3087.00513 3113.28198
3185.0 0.0003140 3086.60718 3116.97876
3094.0 0.0003232 3086.21045 3121.66260
3102.0 0.0003224 3085.81494 3127.39355
3096.0 0.0003230 3085.42041 3134.13354
3084.0 0.0003243 3085.02710 3142.35547
3091.0 0.0003235 3084.63550 3150.39185
3157.0 0.0003168 3084.24487 3158.23608
3077.0 0.0003250 3083.85571 3164.94409
3184.0 0.0003141 3083.46802 3169.40747
3141.0 0.0003184 3083.08179 3170.73071
3127.0 0.0003198 3082.69702 3168.68604
3143.0 0.0003182 3082.31396 3163.85962
3195.0 0.0003130 3081.93262 3157.32813
3144.0 0.0003181 3081.55249 3150.19287
2911.0 0.0003435 3081.17456 3143.30664
3139.0 0.0003186 3080.79810 3137.21509
3074.0 0.0003253 3080.42358 3132.21777
3167.0 0.0003158 3080.05054 3128.43604
3093.0 0.0003233 3079.67969 3125.88477
3053.0 0.0003275 3079.31079 3124.51660
3112.0 0.0003213 3078.94360 3124.34033
3127.0 0.0003198 3078.57861 3125.44214
3105.0 0.0003221 3078.21558 3127.98242
3117.0 0.0003208 3077.85474 3132.13599
3053.0 0.0003275 3077.49585 3138.02466
3052.0 0.0003277 3077.13916 3145.66431
3142.0 0.0003183 3076.78467 3154.91528
3185.0 0.0003140 3076.43237 3165.41504
3271.0 0.0003057 3076.08228 3176.42676
3260.0 0.0003067 3075.73462 3186.99121
3196.0 0.0003129 3075.38940 3195.58862
3256.0 0.0003071 3075.04639 3200.64746
3235.0 0.0003091 3074.70581 3201.00806
3145.0 0.0003180 3074.36768 3196.43066
3169.0 0.0003156 3074.03198 3187.68701
3211.0 0.0003114 3073.69873 3176.18945
3211.0 0.0003114 3073.36816 3163.44189
3222.0 0.0003104 3073.04028 3150.66284
3128.0 0.0003197 3072.71484 3138.67090
3127.0 0.0003198 3072.39209 3127.93115
3163.0 0.0003162 3072.07202 3118.64893
3164.0 0.0003161 3071.75439 3110.84546
3063.0 0.0003265 3071.43970 3104.45654
3180.0 0.0003145 3071.12793 3099.31592
3091.0 0.0003235 3070.81860 3095.23560
3112.0 0.0003213 3070.51245 3092.02222
3135.0 0.0003190 3070.20898 3089.49487
3142.0 0.0003183 3069.90820 3087.49829
3114.0 0.0003211 3069.61060 3085.90894
3037.0 0.0003293 3069.31567 3084.63354
3119.0 0.0003206 3069.02368 3083.60352
3067.0 0.0003261 3068.73462 3082.77490
3143.0 0.0003182 3068.44873 3082.12427
3057.0 0.0003271 3068.16577 3081.63574
3111.0 0.0003214 3067.88574 3081.32056
3097.0 0.0003229 3067.60889 3081.18799
3129.0 0.0003196 3067.33496 3081.25220
3159.0 0.0003166 3067.06421 3081.53320
3168.0 0.0003157 3066.79639 3082.05054
3056.0 0.0003272 3066.53174 3082.81519
3068.0 0.0003259 3066.27026 3083.82251
3000.0 0.0003333 3066.01172 3085.05396
3140.0 0.0003185 3065.75659 3086.45728
3025.0 0.0003306 3065.50439 3087.93433
3124.0 0.0003201 3065.25562 3089.36719
3109.0 0.0003216 3065.00977 3090.60864
3138.0 0.0003187 3064.76733 3091.30859
3109.0 0.0003216 3064.52783 3091.32666
3156.0 0.0003169 3064.29175 3090.59546
3068.0 0.0003259 3064.05884 3089.21655
3086.0 0.0003240 3063.82910 3087.41113
3097.0 0.0003229 3063.60254 3085.39990
3118.0 0.0003207 3063.37915 3083.40356
3055.0 0.0003273 3063.15918 3081.53271
3112.0 0.0003213 3062.94238 3079.85938
2936.0 0.0003406 3062.72876 3078.30640
3081.0 0.0003246 3062.51831 3077.10425
3042.0 0.0003287 3062.31128 3076.46753
3163.0 0.0003162 3062.10742 3075.70483
3007.0 0.0003326 3061.90674 3075.12402
3096.0 0.0003230 3061.70923 3074.69922
3068.0 0.0003259 3061.51489 3074.40601
3059.0 0.0003269 3061.32397 3074.22461
3074.0 0.0003253 3061.13599 3074.14258
3118.0 0.0003207 3060.95142 3074.15210
3110.0 0.0003215 3060.76978 3074.25049
3008.0 0.0003324 3060.59155 3074.44507
3163.0 0.0003162 3060.41650 3074.74292
3037.0 0.0003293 3060.24438 3075.15454
3055.0 0.0003273 3060.07568 3075.69702
3152.0 0.0003173 3059.90991 3076.38110
3237.0 0.0003089 3059.74707 3077.21777
3135.0 0.0003190 3059.58765 3078.21167
3055.0 0.0003273 3059.43115 3079.35596
3103.0 0.0003223 3059.27759 3080.62939
3116.0 0.0003209 3059.12720 3081.98682
3061.0 0.0003267 3058.97998 3083.35083
3058.0 0.0003270 3058.83545 3084.61987
3071.0 0.0003256 3058.69409 3085.68652
3037.0 0.0003293 3058.55566 3086.48438
3143.0 0.0003182 3058.42017 3087.01514
3132.0 0.0003193 3058.28735 3087.33667
3091.0 0.0003235 3058.15771 3087.51733
3071.0 0.0003256 3058.03076 3087.59961
3107.0 0.0003219 3057.90649 3087.59692
3075.0 0.0003252 3057.78516 3087.52490
3085.0 0.0003241 3057.66675 3087.42114
3183.0 0.0003142 3057.55078 3087.35010
3089.0 0.0003237 3057.43750 3087.38501
3197.0 0.0003128 3057.32690 3087.58423
3073.0 0.0003254 3057.21899 3087.99146
3019.0 0.0003312 3057.11377 3088.60938
3150.0 0.0003175 3057.01074 3089.49780
3051.0 0.0003278 3056.91064 3090.64893
3098.0 0.0003228 3056.81274 3092.07471
3043.0 0.0003286 3056.71729 3093.79004
3133.0 0.0003192 3056.62427 3095.81958
3091.0 0.0003235 3056.53345 3098.19751
3052.0 0.0003277 3056.44507 3100.97559
3083.0 0.0003244 3056.35889 3104.23340
3099.0 0.0003227 3056.27515 3108.08252
3142.0 0.0003183 3056.19336 3112.68896
3195.0 0.0003130 3056.11353 3118.29004
3103.0 0.0003223 3056.03613 3125.21118
3036.0 0.0003294 3055.96045 3133.88965
3205.0 0.0003120 3055.88696 3144.89526
3154.0 0.0003171 3055.81519 3158.92432
3111.0 0.0003214 3055.74536 3176.78979
3181.0 0.0003144 3055.67749 3199.37305
3128.0 0.0003197 3055.61108 3227.55176
3209.0 0.0003116 3055.54663 3262.08081
3210.0 0.0003115 3055.48389 3303.46216
3344.0 0.0002990 3055.42261 3351.75586
3367.0 0.0002970 3055.36279 3406.35938
3369.0 0.0002968 3055.30469 3465.69189
3356.0 0.0002980 3055.24780 3526.77026
3455.0 0.0002894 3055.19238 3584.76318
3594.0 0.0002782 3055.13818 3632.95044
3701.0 0.0002702 3055.08521 3663.80762
3694.0 0.0002707 3055.03369 3671.56885
3743.0 0.0002672 3054.98291 3655.01855
3723.0 0.0002686 3054.93359 3618.18530
3597.0 0.0002780 3054.88501 3568.24854
3576.0 0.0002796 3054.83740 3512.61816
3465.0 0.0002886 3054.79077 3457.14868
3380.0 0.0002959 3054.74487 3405.77637
3383.0 0.0002956 3054.69946 3360.86963
3351.0 0.0002984 3054.65503 3323.70386
3316.0 0.0003016 3054.61108 3294.84448
3291.0 0.0003039 3054.56787 3274.42139
3351.0 0.0002984 3054.52490 3262.33081
3266.0 0.0003062 3054.48242 3258.38672
3271.0 0.0003057 3054.44019 3262.40527
3409.0 0.0002933 3054.39819 3274.26001
3289.0 0.0003040 3054.35669 3293.85669
3294.0 0.0003036 3054.31494 3321.07080
3357.0 0.0002979 3054.27344 3355.63794
3388.0 0.0002952 3054.23169 3396.99048
3464.0 0.0002887 3054.18994 3444.04077
3469.0 0.0002883 3054.14819 3494.86938
3612.0 0.0002769 3054.10596 3546.39746
3513.0 0.0002847 3054.06372 3594.28882
3686.0 0.0002713 3054.02075 3633.60791
3638.0 0.0002749 3053.97754 3660.57666
3716.0 0.0002691 3053.93359 3674.69434
3636.0 0.0002750 3053.88916 3679.47974
3645.0 0.0002743 3053.84399 3681.05566
3580.0 0.0002793 3053.79810 3685.75049
3506.0 0.0002852 3053.75122 3698.35059
3447.0 0.0002901 3053.70361 3721.38940
3632.0 0.0002753 3053.65479 3754.98169
3659.0 0.0002733 3053.60498 3796.66016
3840.0 0.0002604 3053.55420 3841.10400
3845.0 0.0002601 3053.50195 3880.11157
3922.0 0.0002550 3053.44849 3903.70898
3892.0 0.0002569 3053.39355 3903.06958
3870.0 0.0002584 3053.33740 3874.26367
3957.0 0.0002527 3053.27954 3820.07275
3826.0 0.0002614 3053.21997 3748.21606
3771.0 0.0002652 3053.15894 3667.65381
3542.0 0.0002823 3053.09619 3586.09131
3556.0 0.0002812 3053.03125 3508.68750
3434.0 0.0002912 3052.96460 3438.54126
3478.0 0.0002875 3052.89600 3377.17627
3368.0 0.0002969 3052.82544 3325.02173
3264.0 0.0003064 3052.75244 3281.75928
3238.0 0.0003088 3052.67725 3246.56714
3279.0 0.0003050 3052.60010 3218.33081
3210.0 0.0003115 3052.52026 3195.82373
3364.0 0.0002973 3052.43799 3177.85986
3227.0 0.0003099 3052.35327 3163.41138
3157.0 0.0003168 3052.26611 3151.68188
3313.0 0.0003018 3052.17603 3142.05273
3203.0 0.0003122 3052.08325 3134.06860
3170.0 0.0003155 3051.98779 3127.39209
3233.0 0.0003093 3051.88940 3121.77881
3305.0 0.0003026 3051.78809 3117.04956
3208.0 0.0003117 3051.68359 3113.07886
3178.0 0.0003147 3051.57617 3109.77710
3269.0 0.0003059 3051.46533 3107.08447
3102.0 0.0003224 3051.35156 3104.96509
3121.0 0.0003204 3051.23413 3103.56470
3098.0 0.0003228 3051.11353 3102.49585
3046.0 0.0003283 3050.98950 3101.98975
3139.0 0.0003186 3050.86206 3102.05029
3171.0 0.0003154 3050.73071 3102.60034
3126.0 0.0003199 3050.59595 3103.57007
3042.0 0.0003287 3050.45728 3104.83960
3080.0 0.0003247 3050.31494 3106.22339
3109.0 0.0003216 3050.16895 3107.45728
3056.0 0.0003272 3050.01880 3108.21899
3090.0 0.0003236 3049.86475 3108.21094
3114.0 0.0003211 3049.70654 3107.28076
3105.0 0.0003221 3049.54443 3105.49683
3075.0 0.0003252 3049.37817 3103.11157
3121.0 0.0003204 3049.20752 3100.44727
3104.0 0.0003222 3049.03271 3097.79712
3081.0 0.0003246 3048.85352 3095.38062
3069.0 0.0003258 3048.67017 3093.35156
3063.0 0.0003265 3048.48218 3091.81274
3109.0 0.0003216 3048.28979 3091.02197
3115.0 0.0003210 3048.09277 3090.67700
3067.0 0.0003261 3047.89136 3091.01758
3042.0 0.0003287 3047.68506 3092.10522
3031.0 0.0003299 3047.47412 3094.01001
3122.0 0.0003203 3047.25854 3096.81079
3065.0 0.0003263 3047.03809 3100.58960
3080.0 0.0003247 3046.81299 3105.42798
3007.0 0.0003326 3046.58301 3111.39307
3154.0 0.0003171 3046.34790 3118.53271
3108.0 0.0003218 3046.10791 3126.85229
3117.0 0.0003208 3045.86304 3136.29321
3125.0 0.0003200 3045.61304 3146.69751
3124.0 0.0003201 3045.35791 3157.78149
3087.0 0.0003239 3045.09790 3169.15894
3208.0 0.0003117 3044.83252 3180.48511
3183.0 0.0003142 3044.56226 3191.72217
3236.0 0.0003090 3044.28662 3203.34570
3148.0 0.0003177 3044.00562 3216.36206
3224.0 0.0003102 3043.71948 3231.92236
3199.0 0.0003126 3043.42798 3251.01172
3111.0 0.0003214 3043.13135 3274.17627
3212.0 0.0003113 3042.82910 3301.32446
3292.0 0.0003038 3042.52173 3331.63818
3307.0 0.0003024 3042.20898 3363.33276
3352.0 0.0002983 3041.89087 3393.47656
3465.0 0.0002886 3041.56714 3418.02930
3409.0 0.0002933 3041.23804 3432.52441
3517.0 0.0002843 3040.90356 3433.52979
3515.0 0.0002845 3040.56348 3420.18335
3424.0 0.0002921 3040.21826 3394.60962
3386.0 0.0002953 3039.86719 3360.81836
3340.0 0.0002994 3039.51099 3323.07959
3294.0 0.0003036 3039.14893 3284.84863
3222.0 0.0003104 3038.78149 3248.48267
3122.0 0.0003203 3038.40869 3215.38574
3152.0 0.0003173 3038.03027 3186.25513
3193.0 0.0003132 3037.64648 3161.30908
3114.0 0.0003211 3037.25708 3140.43091
3190.0 0.0003135 3036.86230 3123.28589
2973.0 0.0003364 3036.46191 3109.41089
3117.0 0.0003208 3036.05615 3098.29028
3019.0 0.0003312 3035.64502 3089.41309
3138.0 0.0003187 3035.22827 3082.30859
3111.0 0.0003214 3034.80615 3076.57495
3070.0 0.0003257 3034.37842 3071.88062
3141.0 0.0003184 3033.94556 3067.99463
3127.0 0.0003198 3033.50708 3064.67114
3215.0 0.0003110 3033.06372 3061.79248
3036.0 0.0003294 3032.61450 3059.24780
2984.0 0.0003351 3032.16016 3056.97681
3110.0 0.0003215 3031.70068 3054.91895
3044.0 0.0003285 3031.23560 3053.03662
3117.0 0.0003208 3030.76563 3051.29858
3096.0 0.0003230 3030.29028 3049.70532
3067.0 0.0003261 3029.80981 3048.19238
3010.0 0.0003322 3029.32422 3046.77344
2970.0 0.0003367 3028.83350 3045.43481
2995.0 0.0003339 3028.33765 3044.18579
3119.0 0.0003206 3027.83716 3042.97778
2992.0 0.0003342 3027.33154 3041.82446
2968.0 0.0003369 3026.82080 3040.71875
3003.0 0.0003330 3026.30542 3039.65503
2995.0 0.0003339 3025.78516 3038.62866
2970.0 0.0003367 3025.26001 3037.63672
3008.0 0.0003324 3024.73022 3036.67432
3074.0 0.0003253 3024.19580 3035.73901
2976.0 0.0003360 3023.65698 3034.82813
3006.0 0.0003327 3023.11328 3033.93896
3063.0 0.0003265 3022.56543 3033.06934
3027.0 0.0003304 3022.01270 3032.21802
3040.0 0.0003289 3021.45605 3031.38159
3056.0 0.0003272 3020.89478 3030.56567
2965.0 0.0003373 3020.32959 3029.75806
3013.0 0.0003319 3019.75977 3028.96216
3089.0 0.0003237 3019.18628 3028.17749
2989.0 0.0003346 3018.60889 3027.40332
2876.0 0.0003477 3018.02710 3026.63745
3002.0 0.0003331 3017.44165 3025.88208
3051.0 0.0003278 3016.85254 3025.13354
3023.0 0.0003308 3016.25952 3024.39209
3015.0 0.0003317 3015.66284 3023.65771
2979.0 0.0003357 3015.06274 3022.93091
3041.0 0.0003288 3014.45898 3022.20874
3072.0 0.0003255 3013.85229 3021.49316
3045.0 0.0003284 3013.24194 3020.78296
2994.0 0.0003340 3012.62842 3020.07788
3017.0 0.0003315 3012.01196 3019.37915
3049.0 0.0003280 3011.39209 3018.68457
3032.0 0.0003298 3010.76953 3017.50098
2955.0 0.0003384 3010.14404 3016.82178
3050.0 0.0003279 3009.51587 3016.15234
3072.0 0.0003255 3008.88525 3015.48389
3055.0 0.0003273 3008.25171 3014.81934
2996.0 0.0003338 3007.61597 3014.16162
2971.0 0.0003366 3006.97754 3013.50708
3009.0 0.0003323 3006.33716 3012.87207
3073.0 0.0003254 3005.69434 3012.22778
3055.0 0.0003273 3005.04980 3011.59009
2934.0 0.0003408 3004.40308 3010.95654
2866.0 0.0003489 3003.75464 3010.32886
2982.0 0.0003353 3003.10449 3009.70508
3047.0 0.0003282 3002.45239 3009.08691
2980.0 0.0003356 3001.79932 3008.47437
2960.0 0.0003378 3001.14429 3007.86792
3055.0 0.0003273 3000.48828 3007.27026
2943.0 0.0003398 2999.83081 3006.67798
2950.0 0.0003390 2999.17261 3006.09619
2949.0 0.0003391 2998.51318 3005.52490
2954.0 0.0003385 2997.85303 3004.96289
2940.0 0.0003401 2997.19214 3004.41309
3012.0 0.0003320 2996.53052 3003.87598
2994.0 0.0003340 2995.86865 3003.35156
2996.0 0.0003338 2995.20605 3002.45361
2961.0 0.0003377 2994.54321 3001.96460
2996.0 0.0003338 2993.88013 3001.49341
3015.0 0.0003317 2993.21753 3001.04053
3109.0 0.0003216 2992.55469 3000.60864
2998.0 0.0003336 2991.89185 3000.19946
3071.0 0.0003256 2991.22949 2999.81714
2991.0 0.0003343 2990.56738 2999.46118
2991.0 0.0003343 2989.90625 2999.29639
2949.0 0.0003391 2989.24536 2999.01099
2984.0 0.0003351 2988.58545 2998.76538
3013.0 0.0003319 2987.92627 2998.56665
2964.0 0.0003374 2987.26855 2998.41992
2949.0 0.0003391 2986.61182 2997.68066
2979.0 0.0003357 2985.95605 2997.67114
3001.0 0.0003332 2985.30176 2997.74243
3050.0 0.0003279 2984.64893 2997.90771
3058.0 0.0003270 2983.99805 2998.18481
3069.0 0.0003258 2983.34863 2998.59644
3101.0 0.0003225 2982.70117 2999.17383
2972.0 0.0003365 2982.05566 2999.95654
3009.0 0.0003323 2981.41235 3000.99878
3048.0 0.0003281 2980.77124 3002.37280
3022.0 0.0003309 2980.13208 3004.17188
3066.0 0.0003262 2979.49585 3006.51514
3018.0 0.0003313 2978.86182 3009.55005
3003.0 0.0003330 2978.23071 3013.45142
3076.0 0.0003251 2977.60229 3018.43652
3118.0 0.0003207 2976.97681 3024.71631
3063.0 0.0003265 2976.35425 3032.49316
2955.0 0.0003384 2975.73486 3041.93115
2986.0 0.0003349 2975.11890 3053.12231
3031.0 0.0003299 2974.50586 3066.04395
3121.0 0.0003204 2973.89673 3080.51147
3114.0 0.0003211 2973.29077 3096.11401
3002.0 0.0003331 2972.68872 3112.11841
3191.0 0.0003134 2972.09033 3127.38770
3176.0 0.0003149 2971.49585 3140.38501
3162.0 0.0003163 2970.90552 3149.38940
3219.0 0.0003107 2970.31909 3153.00488
3119.0 0.0003206 2969.73706 3150.76367
3138.0 0.0003187 2969.15894 3143.38965
3189.0 0.0003136 2968.58545 3132.49609
3132.0 0.0003193 2968.01611 3119.99292
3089.0 0.0003237 2967.45190 3107.59863
3147.0 0.0003178 2966.89185 3096.63647
3075.0 0.0003252 2966.33691 3088.04395
3012.0 0.0003320 2965.78662 3082.44214
3077.0 0.0003250 2965.24121 3080.19873
2976.0 0.0003360 2964.70093 3081.44678
3062.0 0.0003266 2964.16577 3086.18848
3077.0 0.0003250 2963.63574 3094.14648
3073.0 0.0003254 2963.11084 3104.82886
3122.0 0.0003203 2962.59131 3117.44556
3123.0 0.0003202 2962.07739 3130.82959
3123.0 0.0003202 2961.56885 3143.37183
3234.0 0.0003092 2961.06592 3153.10498
3185.0 0.0003140 2960.56836 3158.05273
3219.0 0.0003107 2960.07690 3156.85229
3211.0 0.0003114 2959.59082 3149.30371
3265.0 0.0003063 2959.11084 3136.42847
3148.0 0.0003177 2958.63647 3119.97827
3047.0 0.0003282 2958.16821 3101.78223
3218.0 0.0003108 2957.70605 3083.33569
3058.0 0.0003270 2957.24976 3065.67773
3079.0 0.0003248 2956.79956 3049.45068
3051.0 0.0003278 2956.35547 3034.99365
2964.0 0.0003374 2955.91797 3022.43286
3076.0 0.0003251 2955.48608 3011.74609
3058.0 0.0003270 2955.06104 3002.81201
3010.0 0.0003322 2954.64185 2995.44507
2928.0 0.0003415 2954.22925 2989.42920
2946.0 0.0003394 2953.82324 2984.54102
2932.0 0.0003411 2953.42310 2980.50977
2970.0 0.0003367 2953.02979 2977.26782
3078.0 0.0003249 2952.64282 2974.59546
3149.0 0.0003176 2952.26245 2972.36646
2923.0 0.0003421 2951.88843 2970.47974
3032.0 0.0003298 2951.52100 2968.86182
2963.0 0.0003375 2951.16016 2967.45923
3062.0 0.0003266 2950.80566 2966.23218
2989.0 0.0003346 2950.45776 2965.15649
2962.0 0.0003376 2950.11646 2964.21460
2990.0 0.0003344 2949.78174 2963.39990
2928.0 0.0003415 2949.45337 2962.70825
3004.0 0.0003329 2949.13159 2961.80249
2964.0 0.0003374 2948.81641 2961.37354
2938.0 0.0003404 2948.50781 2961.08765
2883.0 0.0003469 2948.20581 2960.95703
2956.0 0.0003383 2947.90991 2960.99121
3079.0 0.0003248 2947.62085 2961.20264
2962.0 0.0003376 2947.33789 2961.59692
2973.0 0.0003364 2947.06152 2962.17383
2916.0 0.0003429 2946.79150 2962.97974
2988.0 0.0003347 2946.52808 2963.87183
2954.0 0.0003385 2946.27051 2964.85962
2933.0 0.0003409 2946.01953 2965.86646
3040.0 0.0003289 2945.77490 2966.78198
2994.0 0.0003340 2945.53613 2967.50342
2984.0 0.0003351 2945.30371 2967.83008
2946.0 0.0003394 2945.07715 2967.71436
2995.0 0.0003339 2944.85693 2967.16113
3002.0 0.0003331 2944.64233 2966.26367
2924.0 0.0003420 2944.43384 2965.16895
2896.0 0.0003453 2944.23120 2964.02490
3039.0 0.0003291 2944.03442 2962.95410
2980.0 0.0003356 2943.84326 2962.04492
3051.0 0.0003278 2943.65771 2961.35596
2940.0 0.0003401 2943.47778 2960.92432
3007.0 0.0003326 2943.30322 2960.76855
3003.0 0.0003330 2943.13428 2960.88989
2919.0 0.0003426 2942.97046 2961.28125
2920.0 0.0003425 2942.81201 2961.92358
2957.0 0.0003382 2942.65869 2962.80054
2916.0 0.0003429 2942.51025 2963.90845
2920.0 0.0003425 2942.36694 2965.26978
2928.0 0.0003415 2942.22852 2966.92969
2919.0 0.0003426 2942.09473 2968.94116
2926.0 0.0003418 2941.96558 2971.34619
2968.0 0.0003369 2941.84106 2974.15454
2981.0 0.0003355 2941.72095 2977.33105
3061.0 0.0003267 2941.60522 2980.77344
2968.0 0.0003369 2941.49365 2984.31079
3005.0 0.0003328 2941.38623 2987.71143
3037.0 0.0003293 2941.28271 2990.73486
2987.0 0.0003348 2941.18311 2993.21069
3005.0 0.0003328 2941.08716 2995.12646
2990.0 0.0003344 2940.99487 2996.61157
2994.0 0.0003340 2940.90625 2997.85620
3004.0 0.0003329 2940.82080 2999.00049
3013.0 0.0003319 2940.73853 3000.06177
3090.0 0.0003236 2940.65967 3000.92505
2914.0 0.0003432 2940.58350 3001.39453
2953.0 0.0003386 2940.51025 3001.28320
3088.0 0.0003238 2940.43970 3000.47388
2893.0 0.0003457 2940.37158 2998.92773
3029.0 0.0003301 2940.30591 2996.65210
3013.0 0.0003319 2940.24268 2993.68921
3057.0 0.0003271 2940.18140 2990.10645
2943.0 0.0003398 2940.12207 2986.08740
3033.0 0.0003297 2940.06470 2981.87158
2974.0 0.0003362 2940.00879 2977.70776
2966.0 0.0003372 2939.95459 2973.80347
3027.0 0.0003304 2939.90161 2970.29785
2956.0 0.0003383 2939.85010 2967.26807
3016.0 0.0003316 2939.79956 2964.73462
2875.0 0.0003478 2939.74976 2962.68140
2890.0 0.0003460 2939.70093 2961.05981
2989.0 0.0003346 2939.65259 2959.79736
2979.0 0.0003357 2939.60474 2958.80200
3007.0 0.0003326 2939.55737 2957.97510
3034.0 0.0003296 2939.51001 2957.57129
2907.0 0.0003440 2939.46265 2956.83423
2945.0 0.0003396 2939.41504 2956.08716
2865.0 0.0003490 2939.36694 2955.34302
2923.0 0.0003421 2939.31860 2954.63892
2942.0 0.0003399 2939.26953 2954.01440
2880.0 0.0003472 2939.21973 2953.50879
2972.0 0.0003365 2939.16895 2953.14941
2956.0 0.0003383 2939.11719 2952.96069
3002.0 0.0003331 2939.06396 2952.96411
2988.0 0.0003347 2939.00928 2953.17407
3050.0 0.0003279 2938.95313 2953.60620
2995.0 0.0003339 2938.89526 2954.26660
2955.0 0.0003384 2938.83545 2955.16113
2939.0 0.0003403 2938.77368 2956.28296
2891.0 0.0003459 2938.70947 2957.61279
2896.0 0.0003453 2938.64307 2959.11548
3012.0 0.0003320 2938.57422 2960.73413
2959.0 0.0003380 2938.50269 2962.39600
2943.0 0.0003398 2938.42847 2964.01245
3040.0 0.0003289 2938.35107 2965.55249
2952.0 0.0003388 2938.27100 2966.81641
3006.0 0.0003327 2938.18726 2967.77441
2958.0 0.0003381 2938.10034 2968.34424
2956.0 0.0003383 2938.01001 2968.47437
2929.0 0.0003414 2937.91602 2968.17725
2931.0 0.0003412 2937.81812 2967.71826
2870.0 0.0003484 2937.71655 2966.90503
2887.0 0.0003464 2937.61084 2966.08350
2946.0 0.0003394 2937.50073 2965.41431
2956.0 0.0003383 2937.38672 2965.04102
2925.0 0.0003419 2937.26807 2965.08887
2918.0 0.0003427 2937.14502 2965.67554
2977.0 0.0003359 2937.01733 2966.92554
2935.0 0.0003407 2936.88477 2968.97363
2910.0 0.0003436 2936.74731 2971.97217
3008.0 0.0003324 2936.60498 2976.08423
2864.0 0.0003492 2936.45776 2981.48389
2967.0 0.0003370 2936.30518 2988.34009
2949.0 0.0003391 2936.14722 2996.80396
3002.0 0.0003331 2935.98389 3006.97778
2986.0 0.0003349 2935.81519 3018.89917
2980.0 0.0003356 2935.64087 3032.49316
2952.0 0.0003388 2935.46094 3047.53955
2996.0 0.0003338 2935.27539 3063.59961
3044.0 0.0003285 2935.08398 3079.94263
3034.0 0.0003296 2934.88672 3095.47339
3038.0 0.0003292 2934.68335 3108.72339
3243.0 0.0003084 2934.47412 3118.02588
3230.0 0.0003096 2934.25854 3121.93262
3144.0 0.0003181 2934.03711 3119.73169
3103.0 0.0003223 2933.80957 3111.75244
3118.0 0.0003207 2933.57568 3099.22266
3172.0 0.0003153 2933.33545 3083.78369
3139.0 0.0003186 2933.08887 3067.00684
3008.0 0.0003324 2932.83618 3050.12891
2984.0 0.0003351 2932.57666 3034.00806
3081.0 0.0003246 2932.31104 3019.17334
2958.0 0.0003381 2932.03882 3005.90942
3041.0 0.0003288 2931.76025 2994.16602
2961.0 0.0003377 2931.47534 2984.25635
2828.0 0.000354 2931.18384 2975.91626
2928.0 0.0003415 2930.88574 2968.99121
2846.0 0.000351 2930.58105 2963.29956
2945.0 0.0003396 2930.27002 2958.64648
2943.0 0.0003398 2929.95264 2954.84644
3041.0 0.0003288 2929.62866 2951.73071
2885.0 0.0003466 2929.29810 2949.15259
3018.0 0.0003313 2928.96118 2946.99194
3008.0 0.0003324 2928.61792 2945.15161
3042.0 0.0003287 2928.26831 2943.55688
2926.0 0.0003418 2927.91235 2942.15112
2955.0 0.0003384 2927.54980 2940.89307
2895.0 0.0003454 2927.18140 2939.75098
2943.0 0.0003398 2926.80664 2938.70142
2942.0 0.0003399 2926.42578 2937.72754
2997.0 0.0003337 2926.03857 2936.81738
2926.0 0.0003418 2925.64575 2935.77832
3002.0 0.0003331 2925.24683 2934.97070
2891.0 0.0003459 2924.84180 2934.20239
2911.0 0.0003435 2924.43115 2933.46875
2867.0 0.0003488 2924.01465 2932.77271
2942.0 0.0003399 2923.59277 2932.09814
2925.0 0.0003419 2923.16504 2931.44971
2884.0 0.0003467 2922.73218 2930.82349
2984.0 0.0003351 2922.29370 2930.21997
2982.0 0.0003353 2921.85010 2929.63477
2884.0 0.0003467 2921.40137 2929.07007
2949.0 0.0003391 2920.94751 2928.52295
3021.0 0.0003310 2920.48877 2927.99487
2946.0 0.0003394 2920.02515 2927.48340
2918.0 0.0003427 2919.55688 2926.98975
2878.0 0.0003475 2919.08423 2926.51172
2886.0 0.0003465 2918.60693 2926.05151
2901.0 0.0003447 2918.12549 2925.60571
2797.0 0.000358 2917.63989 2925.17358
2930.0 0.0003413 2917.15015 2924.75635
2948.0 0.0003392 2916.65649 2924.34546
2904.0 0.0003444 2916.15942 2923.94092
2935.0 0.0003407 2915.65845 2923.53687
3004.0 0.0003329 2915.15405 2923.13232
3024.0 0.0003307 2914.64648 2922.72559
2883.0 0.0003469 2914.13599 2922.31982
2909.0 0.0003438 2913.62231 2921.91968
2973.0 0.0003364 2913.10571 2921.53052
2942.0 0.0003399 2912.58667 2921.16016
2821.0 0.000354 2912.06494 2920.81396
2844.0 0.000352 2911.54126 2920.49805
2883.0 0.0003469 2911.01514 2920.21484
2960.0 0.0003378 2910.48706 2919.97266
2961.0 0.0003377 2909.95728 2919.77661
2965.0 0.0003373 2909.42603 2919.63525
2888.0 0.0003463 2908.89307 2919.55933
2966.0 0.0003372 2908.35889 2919.56226
2983.0 0.0003352 2907.82373 2919.66431
2991.0 0.0003343 2907.28735 2919.88574
3013.0 0.0003319 2906.75049 2920.27148
2866.0 0.0003489 2906.21289 2920.84497
3058.0 0.0003270 2905.67505 2921.66357
2865.0 0.0003490 2905.13696 2922.78931
2971.0 0.0003366 2904.59888 2924.29443
2904.0 0.0003444 2904.06079 2926.40405
2909.0 0.0003438 2903.52295 2928.90869
2821.0 0.000354 2902.98584 2932.03687
3040.0 0.0003289 2902.44897 2935.86523
2931.0 0.0003412 2901.91333 2940.45410
2983.0 0.0003352 2901.37842 2945.83154
2871.0 0.0003483 2900.84473 2951.98730
2962.0 0.0003376 2900.31250 2958.84546
3039.0 0.0003291 2899.78149 2966.23853
2970.0 0.0003367 2899.25244 2973.88110
2948.0 0.0003392 2898.72485 2981.34839
2942.0 0.0003399 2898.19971 2988.08765
2890.0 0.0003460 2897.67627 2993.50220
3100.0 0.0003226 2897.15527 2997.08960
3042.0 0.0003287 2896.63672 2998.56763
3067.0 0.0003261 2896.12085 2997.91284
3168.0 0.0003157 2895.60742 2995.27808
3038.0 0.0003292 2895.09692 2990.89844
3071.0 0.0003256 2894.58960 2985.05103
3001.0 0.0003332 2894.08521 2978.06763
2994.0 0.0003340 2893.58423 2970.38770
3035.0 0.0003295 2893.08667 2962.44238
3062.0 0.0003266 2892.59253 2954.63135
3005.0 0.0003328 2892.10205 2947.25928
2895.0 0.0003454 2891.61523 2940.52490
2952.0 0.0003388 2891.13257 2934.53442
2906.0 0.0003441 2890.65332 2929.32202
2946.0 0.0003394 2890.17847 2925.04688
2989.0 0.0003346 2889.70776 2921.32153
3041.0 0.0003288 2889.24121 2918.25244
2861.0 0.0003495 2888.77905 2915.76978
2980.0 0.0003356 2888.32129 2913.80078
3023.0 0.0003308 2887.86792 2912.27661
2938.0 0.0003404 2887.41919 2911.13110
2957.0 0.0003382 2886.97485 2910.31787
2864.0 0.0003492 2886.53540 2909.78784
2967.0 0.0003370 2886.10059 2909.50586
2934.0 0.0003408 2885.67065 2909.44067
2930.0 0.0003413 2885.24561 2909.56934
2999.0 0.0003334 2884.82520 2909.87061
2983.0 0.0003352 2884.40967 2910.32959
2923.0 0.0003421 2883.99927 2910.91772
2888.0 0.0003463 2883.59375 2911.62231
2883.0 0.0003469 2883.19312 2912.43359
2898.0 0.0003451 2882.79736 2913.33398
2935.0 0.0003407 2882.40698 2914.39868
2847.0 0.000351 2882.02124 2915.64893
2928.0 0.0003415 2881.64063 2917.14600
2890.0 0.0003460 2881.26489 2918.95703
2935.0 0.0003407 2880.89429 2921.15283
2863.0 0.0003493 2880.52856 2923.80859
2905.0 0.0003442 2880.16772 2927.00488
2935.0 0.0003407 2879.81201 2930.81055
2852.0 0.0003506 2879.46094 2935.37061
2877.0 0.0003476 2879.11499 2940.78467
2828.0 0.000354 2878.77368 2947.20117
3019.0 0.0003312 2878.43726 2954.81714
2998.0 0.0003336 2878.10571 2963.87793
2884.0 0.0003467 2877.77856 2974.75586
2923.0 0.0003421 2877.45654 2987.81372
2946.0 0.0003394 2877.13867 3003.42896
2917.0 0.0003428 2876.82568 3021.91504
3018.0 0.0003313 2876.51733 3043.46045
2950.0 0.0003390 2876.21338 3068.07080
3041.0 0.0003288 2875.91357 3095.50806
3089.0 0.0003237 2875.61865 3125.20093
3095.0 0.0003231 2875.32788 3156.13818
3130.0 0.0003195 2875.04126 3186.74536
3183.0 0.0003142 2874.75903 3214.81104
3153.0 0.0003172 2874.48096 3237.61255
3249.0 0.0003078 2874.20703 3252.35571
3237.0 0.0003089 2873.93701 3256.94751
3283.0 0.0003046 2873.67139 3250.77612
3217.0 0.0003108 2873.40967 3234.94263
3212.0 0.0003113 2873.15186 3211.86353
3163.0 0.0003162 2872.89819 3184.44580
3083.0 0.0003244 2872.64844 3155.39551
3170.0 0.0003155 2872.40259 3126.86230
3135.0 0.0003190 2872.16040 3100.38843
3067.0 0.0003261 2871.92236 3077.00122
2906.0 0.0003441 2871.68823 3057.34253
2987.0 0.0003348 2871.45776 3041.76465
3000.0 0.0003333 2871.23145 3030.40698
3011.0 0.0003321 2871.00903 3023.24438
3124.0 0.0003201 2870.79053 3020.12036
2928.0 0.0003415 2870.57593 3020.75537
3024.0 0.0003307 2870.36548 3024.75684
3059.0 0.0003269 2870.15894 3031.59912
3096.0 0.0003230 2869.95679 3040.63379
2986.0 0.0003349 2869.75879 3051.10864
3013.0 0.0003319 2869.56519 3062.24316
3136.0 0.0003189 2869.37573 3073.33032
3086.0 0.0003240 2869.19116 3083.75708
3170.0 0.0003155 2869.01099 3092.94629
3120.0 0.0003205 2868.83569 3100.20825
3170.0 0.0003155 2868.66553 3104.63770
3141.0 0.0003184 2868.50024 3105.44312
3089.0 0.0003237 2868.34033 3101.44775
3075.0 0.0003252 2868.18579 3092.60742
3072.0 0.0003255 2868.03711 3079.43994
3068.0 0.0003259 2867.89429 3063.05640
3024.0 0.0003307 2867.75757 3044.81030
3059.0 0.0003269 2867.62720 3025.95996
2957.0 0.0003382 2867.50342 3007.48853
2889.0 0.0003461 2867.38672 2990.07104
2909.0 0.0003438 2867.27710 2974.11963
3007.0 0.0003326 2867.17529 2959.84521
2942.0 0.0003399 2867.08105 2947.31299
2936.0 0.0003406 2866.99512 2936.49121
2937.0 0.0003405 2866.91748 2927.27905
2885.0 0.0003466 2866.84888 2919.52783
2865.0 0.0003490 2866.78955 2913.06787
2917.0 0.0003428 2866.73975 2907.71924
3004.0 0.0003329 2866.69995 2903.30933
2868.0 0.0003487 2866.67041 2899.67188
2886.0 0.0003465 2866.65161 2896.66626
3027.0 0.0003304 2866.64429 2894.16821
2911.0 0.0003435 2866.64819 2892.07593
2981.0 0.0003355 2866.66431 2890.30835
2959.0 0.0003380 2866.69287 2888.80151
2955.0 0.0003384 2866.73413 2887.34595
3116.0 0.0003209 2866.78857 2886.24585
2879.0 0.0003473 2866.85669 2885.26904
2837.0 0.000352 2866.93872 2884.65186
2844.0 0.000352 2867.03516 2883.90820
2959.0 0.0003380 2867.14648 2883.25879
2941.0 0.0003400 2867.27271 2882.69312
2764.0 0.000362 2867.41431 2882.20508
2858.0 0.0003499 2867.57178 2881.78638
2826.0 0.000354 2867.74512 2881.43311
2853.0 0.0003505 2867.93457 2881.13892
2908.0 0.0003439 2868.14038 2880.90137
2840.0 0.000352 2868.36255 2880.71631
2883.0 0.0003469 2868.60156 2880.58081
2825.0 0.000354 2868.85693 2880.49219
2929.0 0.0003414 2869.12915 2880.44849
2893.0 0.0003457 2869.41772 2880.44678
2933.0 0.0003409 2869.72266 2880.48657
2870.0 0.0003484 2870.04370 2880.56421
2874.0 0.0003479 2870.38037 2880.67725
2915.0 0.0003431 2870.73218 2880.82568
2976.0 0.0003360 2871.09888 2881.00732
2879.0 0.0003473 2871.47949 2881.22046
3002.0 0.0003331 2871.87329 2881.46387
2871.0 0.0003483 2872.27930 2881.73560
2879.0 0.0003473 2872.69653 2882.03345
2889.0 0.0003461 2873.12378 2882.35693
2777.0 0.000360 2873.55908 2882.70337
3032.0 0.0003298 2874.00146 2883.07178
2829.0 0.000353 2874.44873 2883.46021
2917.0 0.0003428 2874.89893 2883.86597
3006.0 0.0003327 2875.34961 2884.28833
2895.0 0.0003454 2875.79858 2884.72583
2847.0 0.000351 2876.24292 2885.17627
2845.0 0.000351 2876.67920 2885.63843
2892.0 0.0003458 2877.10449 2886.11133
2857.0 0.0003500 2877.51489 2886.59521
2893.0 0.0003457 2877.90625 2887.08887
2896.0 0.0003453 2878.27441 2887.59473
2962.0 0.0003376 2878.61426 2888.11108
2832.0 0.000353 2878.92090 2888.63770
2883.0 0.0003469 2879.18848 2889.17676
2936.0 0.0003406 2879.41089 2889.72900
2860.0 0.0003497 2879.58179 2890.31104
2701.0 0.000370 2879.69360 2890.88232
2852.0 0.0003506 2879.73901 2891.45654
2891.0 0.0003459 2879.70972 2892.02393
2915.0 0.0003431 2879.59668 2892.57227
2861.0 0.0003495 2879.39063 2893.08228
2926.0 0.0003418 2879.08130 2893.52539
2837.0 0.000352 2878.65796 2893.86670
2802.0 0.000357 2878.10840 2894.05566
2889.0 0.0003461 2877.42090 2894.03491
2929.0 0.0003414 2876.58154 2893.74316
2798.0 0.000357 2875.57690 2893.12720
2902.0 0.0003446 2874.39136 2892.15601
2831.0 0.000353 2873.00854 2890.82861
2886.0 0.0003465 2871.41235 2889.17041
2864.0 0.0003492 2869.58301 2887.21582
2961.0 0.0003377 2867.50317 2884.99878
2872.0 0.0003482 2865.15063 2882.54541
2921.0 0.0003423 2862.50537 2879.86548
2914.0 0.0003432 2859.54321 2876.95947
2982.0 0.0003353 2856.23901 2873.81665
2902.0 0.0003446 2852.56909 2870.41772
2759.0 0.000362 2848.50342 2866.73315
2805.0 0.000357 2844.01611 2862.73315
2968.0 0.0003369 2839.07349 2858.37427
2879.0 0.0003473 2833.64648 2853.62012
2849.0 . . .
loop_
_refln_index_h
_refln_index_k
_refln_index_l
_refln_observed_status
_refln_F_squared_meas
_refln_F_squared_calc
_refln_phase_calc
_refln_d_spacing
_gsas_i100_meas
1 1 0 o 9433.408 9865.491 180.00 7.01511 12.76
0 0 1 o -161.352 608.402 180.00 4.98655 0.30
2 0 0 o 1333.476 1946.035 0.00 4.96043 1.27
1 1 1 o 25936.889 26353.174 0.00 4.06435 26.95
2 0 1 o 2010.921 2041.729 180.00 3.51675 1.95
2 2 0 o 341.953 418.218 0.00 3.50756 0.64
2 1 1 o 257.101 44.797 0.00 3.31466 0.46
3 1 0 o 14852.357 14009.738 0.00 3.13725 8.80
2 2 1 o 182505.25 183832.45 180.00 2.86891 100.00
3 1 1 o 5645.475 4053.860 180.00 2.65543 4.73
0 0 2 o 91929.68 95646.57 0.00 2.49327 8.83
4 0 0 o 109822.51 112189.41 0.00 2.48022 21.60
3 2 1 o 4927.041 4804.086 0.00 2.40913 4.83
1 1 2 o 2822.427 2798.952 180.00 2.34930 0.75
3 3 0 o 21450.918 21240.064 180.00 2.33837 3.72
2 0 2 o 327.117 430.938 0.00 2.22770 0.14
4 0 1 o 4964.482 5728.218 180.00 2.22069 1.10
4 2 0 o 715.473 919.544 0.00 2.21837 0.28
2 1 2 o 710.102 613.364 0.00 2.17358 0.58
4 1 1 o 2628.509 2026.470 0.00 2.16707 2.11
3 3 1 o 1062.043 903.062 0.00 2.11715 0.24
2 2 2 o 5133.692 5109.948 0.00 2.03218 1.09
4 2 1 o 246.916 257.133 180.00 2.02685 0.18
3 1 2 o 15451.677 15584.044 0.00 1.95193 7.76
5 1 0 o 3906.067 3799.533 180.00 1.94564 0.87
3 2 2 o 521.048 496.437 0.00 1.84759 0.32
4 3 1 o 185.969 278.330 180.00 1.84359 0.11
5 1 1 o 16153.376 15978.453 0.00 1.81256 7.01
4 0 2 o 111110.16 113278.26 0.00 1.75838 24.43
4 4 0 o 114381.57 109254.20 0.00 1.75378 12.72
4 1 2 o 21.426 26.209 180.00 1.73139 0.01
5 2 1 o 47.418 48.472 180.00 1.72810 0.03
3 3 2 o 20964.799 19539.592 180.00 1.70561 4.34
5 3 0 o 5059.533 4364.178 0.00 1.70141 0.93
0 0 3 o 2607.642 3218.481 180.00 1.66218 0.08
4 2 2 o 1132.206 1308.104 0.00 1.65733 0.55
4 4 1 o 1229.540 1316.674 180.00 1.65444 0.22
6 0 0 o 168.639 197.080 0.00 1.65348 0.03
1 1 3 o 5192.721 5410.264 0.00 1.61740 0.80
5 3 1 o 8956.448 9146.325 180.00 1.61026 3.10
2 0 3 o 671.802 381.140 180.00 1.57605 0.15
6 0 1 o 1344.935 1372.061 180.00 1.56945 0.29
6 2 0 o 6144.408 6358.320 0.00 1.56863 0.86
2 1 3 o -5.110 197.384 0.00 1.55653 0.00
4 3 2 o -0.431 16.593 0.00 1.55255 0.00
6 1 1 o -2.148 82.617 180.00 1.55017 0.00
5 1 2 o -19.568 0.020 180.00 1.53388 0.12
2 2 3 o 73283.77 73595.72 180.00 1.50206 12.32
6 2 1 o 65836.35 63427.36 180.00 1.49634 22.06
5 2 2 o 162.763 187.361 0.00 1.48167 0.07
5 4 1 o 42.206 56.580 180.00 1.47960 0.02
3 1 3 o 3590.461 3787.343 180.00 1.46877 0.98
4 4 2 o 54432.20 54142.14 0.00 1.43445 8.42
3 2 3 o 356.812 375.386 180.00 1.42274 0.15
6 3 1 o 0.883 0.902 180.00 1.41787 0.00
5 3 2 o 1217.367 1278.731 0.00 1.40537 0.25
5 5 0 o 3437.670 3619.733 0.00 1.40302 0.48
7 1 0 o 5802.016 5944.941 0.00 1.40302 0.76
4 0 3 o -260.996 116.920 180.00 1.38078 0.07
6 0 2 o 214.296 116.650 180.00 1.37799 0.04
6 4 0 o 47.123 42.682 0.00 1.37578 0.01
4 1 3 o 661.133 753.656 180.00 1.36760 0.26
6 1 2 o 191.398 197.517 180.00 1.36489 0.08
3 3 3 o -2.645 43.409 0.00 1.35478 0.02
7 1 1 o 628.926 640.346 180.00 1.35058 0.12
5 5 1 o 17826.057 18310.715 0.00 1.35058 2.63
4 2 3 o 126.427 118.157 180.00 1.33021 0.05
6 2 2 o 589.141 453.279 0.00 1.32771 0.28
6 4 1 o 910.696 717.177 180.00 1.32623 0.33
5 4 2 o 2.572 2.427 180.00 1.31598 0.00
7 2 1 o 1276.274 1305.433 180.00 1.31453 0.49
7 3 0 o 21150.408 19842.244 180.00 1.30267 3.16
4 3 3 o 207.575 151.528 0.00 1.27417 0.08
6 3 2 o 298.547 232.401 0.00 1.27198 0.11
5 1 3 o 10512.018 10665.031 0.00 1.26379 2.86
7 3 1 o 251.556 98.072 180.00 1.26038 0.21
0 0 4 o 51214.32 55154.30 0.00 1.24664 1.75
8 0 0 o 29843.650 30912.053 0.00 1.24011 1.91
5 2 3 o 253.954 207.020 0.00 1.23411 0.09
6 5 1 o 277.506 277.512 0.00 1.23093 0.10
1 1 4 o 2920.052 3214.475 180.00 1.22741 0.34
7 1 2 o 9735.282 9479.099 0.00 1.22272 2.63
5 5 2 o 504.026 493.591 180.00 1.22272 0.05
2 0 4 o 216.378 194.234 0.00 1.20904 0.04
4 4 3 o 2532.005 2670.680 180.00 1.20642 0.26
6 4 2 o 0.102 0.136 0.00 1.20456 0.00
8 0 1 o 1182.434 1164.422 180.00 1.20345 0.13
8 2 0 o 1169.794 1221.491 0.00 1.20308 0.19
2 1 4 o 97.555 103.913 180.00 1.20016 0.04
7 2 2 o 49.575 204.635 180.00 1.19578 0.02
7 4 1 o 80.611 94.108 0.00 1.19469 0.03
8 1 1 o 57.462 67.083 180.00 1.19469 0.02
5 3 3 o 2936.003 2357.260 180.00 1.18897 0.71
2 2 4 o -129.889 101.310 0.00 1.17465 0.05
6 0 3 o 823.954 846.452 180.00 1.17225 0.14
8 2 1 o 145.556 115.582 0.00 1.16952 0.04
6 6 0 o 935.285 674.174 0.00 1.16919 0.07
6 1 3 o -1.126 31.446 180.00 1.16415 0.00
7 3 2 o 7271.389 6986.740 180.00 1.15458 1.82
3 1 4 o 1753.981 1628.118 0.00 1.15852 0.37
7 5 0 o 3135.958 2806.228 0.00 1.15328 0.38
6 2 3 o 27302.979 27989.721 180.00 1.14083 6.96
6 6 1 o 26905.102 24095.986 180.00 1.13831 3.55
3 2 4 o 102.047 72.886 180.00 1.13553 0.04
5 4 3 o 8.990 10.812 0.00 1.13336 0.00
6 5 2 o 23.448 65.507 0.00 1.13182 0.01
8 3 1 o 3.958 67.764 180.00 1.13089 0.00
7 5 1 o 906.398 1072.697 180.00 1.12362 0.15
4 0 4 o 28679.873 30765.072 0.00 1.11385 3.69
8 0 2 o 29187.254 28885.791 0.00 1.11035 3.89
8 4 0 o 20117.088 18879.777 0.00 1.10919 2.57
4 1 4 o 18.410 10.820 0.00 1.10690 0.01
6 3 3 o 258.188 161.595 0.00 1.10489 0.09
8 1 2 o 18.171 15.045 0.00 1.10346 0.01
7 4 2 o 4.285 3.548 0.00 1.10346 0.00
3 3 4 o 4969.367 5879.942 180.00 1.10007 0.59
9 1 0 o 138.880 261.635 0.00 1.09558 0.10
4 2 4 o 1.316 62.858 0.00 1.08679 0.00
8 2 2 o 714.725 752.157 0.00 1.08353 0.24
8 4 1 o 2730.432 2594.664 180.00 1.08272 0.60
7 1 3 o 121.165 109.715 180.00 1.07214 0.03
5 5 3 o 6731.625 6131.825 0.00 1.07214 0.89
9 1 1 o 8279.948 7426.401 0.00 1.07005 2.31
6 4 3 o 128.897 108.889 180.00 1.05983 0.05
6 6 2 o 3328.988 3195.611 0.00 1.05857 0.39
4 3 4 o -0.221 5.516 180.00 1.05558 0.00
7 2 3 o -5.004 124.665 0.00 1.05384 0.00
8 3 2 o 5.137 11.772 180.00 1.05260 0.00
7 6 1 o 24.714 38.846 0.00 1.05186 0.01
9 2 1 o 25.475 40.043 180.00 1.05186 0.01
7 5 2 o 2039.515 2477.238 0.00 1.04672 0.46
5 1 4 o 46.956 131.507 180.00 1.04966 0.00
9 3 0 o 924.161 900.949 0.00 1.04575 0.11
5 2 4 o -1.985 48.337 180.00 1.03246 0.00
8 5 1 o -0.085 2.065 0.00 1.02898 0.00
7 3 3 o -67.909 0.358 180.00 1.02531 0.02
9 3 1 o 2489.775 2590.048 180.00 1.02349 0.62
4 4 4 o 16559.518 16086.112 0.00 1.01609 2.32
8 4 2 o 16629.492 15094.047 0.00 1.01343 4.84
6 5 3 o 22.196 16.978 180.00 1.00927 0.01
5 3 4 o 1483.125 1815.678 0.00 1.00559 0.36
9 1 2 o 75.974 85.254 180.00 1.00301 0.02
7 7 0 o 8356.880 8746.069 180.00 1.00216 0.63
0 0 5 o 21.545 170.714 180.00 0.99731 0.01
6 0 4 o 4.665 7.411 180.00 0.99542 0.00
8 0 3 o 1653.480 2071.165 180.00 0.99396 0.17
10 0 0 o 601.391 1326.759 180.00 0.99209 0.05
8 6 0 o 46.170 113.327 0.00 0.99209 0.01
6 1 4 o 6.575 49.816 0.00 0.99045 0.00
8 1 3 o 53.957 73.476 0.00 0.98901 0.02
7 4 3 o 16.859 22.958 180.00 0.98901 0.01
7 6 2 o 80.318 124.010 0.00 0.98798 0.04
9 2 2 o 16.702 25.788 180.00 0.98798 0.01
1 1 5 o 1886.157 2101.564 0.00 0.98738 0.25
9 4 1 o 382.801 453.197 0.00 0.98737 0.17
7 7 1 o 618.648 210.489 180.00 0.98251 0.18
6 2 4 o 1137.161 1291.915 0.00 0.97596 0.27
2 0 5 o 122.839 61.908 180.00 0.97774 0.03
8 2 3 o 83.522 110.098 0.00 0.97458 0.03
2 1 5 o 222.651 187.829 180.00 0.97303 0.10
10 0 1 o 1287.131 1100.971 180.00 0.97302 0.27
8 6 1 o 7.770 6.866 0.00 0.97302 0.00
10 2 0 o 1869.988 1642.853 0.00 0.97282 0.26
5 4 4 o 0.735 0.399 0.00 0.97127 0.00
8 5 2 o 8.832 5.610 180.00 0.96895 0.00
10 1 1 o 228.478 164.679 0.00 0.96837 0.11
9 3 2 o 190.975 149.562 0.00 0.96436 0.06
9 5 0 o 43.025 3.783 0.00 0.96360 0.03
2 2 5 o 15606.729 15676.463 180.00 0.95929 2.60
6 6 3 o 12212.150 12259.067 180.00 0.95630 2.03
10 2 1 o 10813.197 10490.300 180.00 0.95482 3.60
6 3 4 o 102.238 67.809 180.00 0.95317 0.05
8 3 3 o 11.443 6.937 0.00 0.95189 0.01
3 1 5 o 453.424 469.167 180.00 0.95044 0.11
7 5 3 o 884.777 1011.028 180.00 0.94754 0.25
9 5 1 o 4693.195 4953.647 0.00 0.94610 1.61
3 2 5 o -0.014 0.304 0.00 0.93762 0.00
9 4 2 o 0.052 0.028 180.00 0.93397 0.00
10 3 1 o 14.553 8.711 0.00 0.93345 0.01
5 5 4 o 198.148 171.333 0.00 0.93191 0.11
7 1 4 o 2106.312 2019.119 0.00 0.93191 0.75
7 7 2 o 5213.599 4678.608 180.00 0.92986 1.04
4 0 5 o 425.713 322.751 180.00 0.92530 0.10
6 4 4 o 20.243 28.736 0.00 0.92380 0.02
8 4 3 o 325.109 326.705 180.00 0.92263 0.15
8 6 2 o 239.192 227.882 0.00 0.92179 0.14
10 0 2 o 19.207 18.970 180.00 0.92179 0.00
4 1 5 o 211.659 198.001 0.00 0.92131 0.12
10 4 0 o 21.670 21.139 180.00 0.92113 0.00
7 2 4 o 38.757 48.667 0.00 0.91982 0.02
10 1 2 o 38.989 45.865 0.00 0.91784 0.02
3 3 5 o 60.353 85.692 0.00 0.91736 0.01
8 7 1 o 50.301 97.947 0.00 0.91735 0.03
9 1 3 o 2204.313 2403.763 0.00 0.91475 0.82
4 2 5 o 2.350 1.485 180.00 0.90961 0.00
10 2 2 o 1162.950 946.618 0.00 0.90628 0.48
10 4 1 o 530.019 349.968 180.00 0.90580 0.32
7 6 3 o 34.296 26.949 0.00 0.90330 0.02
9 2 3 o 0.001 0.001 0.00 0.90330 0.00
9 6 1 o 62.982 88.898 0.00 0.90205 0.04
7 3 4 o 3770.808 4036.786 180.00 0.90066 1.78
9 5 2 o 291.008 264.195 0.00 0.89881 0.34
11 1 0 o 4036.459 3809.981 0.00 0.89819 1.04
4 3 5 o 15.545 53.774 180.00 0.89108 0.01
