#------------------------------------------------------------------------------
#$Date: 2021-12-04 04:46:03 +0200 (Sat, 04 Dec 2021) $
#$Revision: 271104 $
#$URL: file:///home/coder/svn-repositories/cod/cif/1/56/55/1565524.cif $
#------------------------------------------------------------------------------
#
# This file is available in the Crystallography Open Database (COD),
# http://www.crystallography.net/
#
# All data on this site have been placed in the public domain by the
# contributors.
#
data_1565524
loop_
_publ_author_name
'Caubergh, St\'ephane'
'Matsubara, Nami'
'Damay, Fran\,coise'
'Fauth, Fran\,cois'
'Khalyavin, Dmitry D.'
'Manuel, Pascal'
'Mahmoud, Abdelfattah'
'Poelman, Dirk'
'Martin, Christine'
'Vertruyen, B\'en\'edicte'
_publ_section_title
;
 Cationic Ordering, Solid Solution Domain, and Diffuse Reflectance in
 Fe2WO6 Polymorphs
;
_journal_issue                   46
_journal_name_full               'The Journal of Physical Chemistry C'
_journal_page_first              25907
_journal_page_last               25916
_journal_paper_doi               10.1021/acs.jpcc.1c08314
_journal_volume                  125
_journal_year                    2021
_chemical_compound_source        Synthesized
_chemical_formula_moiety         'Fe2.67 O8 W1.33'
_chemical_formula_sum            'Fe2.67 O8 W1.33'
_chemical_formula_weight         522.04
_chemical_name_common            Alpha-Fe2WO6
_chemical_name_systematic        'Iron tungsten oxide'
_chemical_properties_physical    semiconductor
_space_group_crystal_system      orthorhombic
_space_group_IT_number           60
_space_group_name_Hall           '-P 2n 2ab'
_space_group_name_H-M_alt        'P b c n'
_cell_angle_alpha                90.0000
_cell_angle_beta                 90.0000
_cell_angle_gamma                90.0000
_cell_formula_units_Z            1
_cell_length_a                   4.58111(5)
_cell_length_b                   5.59297(6)
_cell_length_c                   4.96249(5)
_cell_measurement_temperature    295
_cell_volume                     127.149(2)
_computing_structure_refinement  FULLPROF
_diffrn_ambient_temperature      295
_diffrn_measurement_device_type  'BL-04 diffractometer, ALBA'
_diffrn_measurement_method       x-ray
_diffrn_radiation_probe          x-ray
_diffrn_radiation_type           synchrotron
_diffrn_radiation_wavelength     0.44304
_diffrn_source                   synchrotron
_diffrn_source_type              'BL-04 (MSPD)'
_exptl_crystal_colour            'light brown'
_exptl_crystal_description       block
_pd_calc_method                  '   Rietveld Refinement'
_pd_instr_location               ' ALBA-CELLS Synchrotron, Barcelona, Spain'
_pd_meas_2theta_range_inc        0.006001
_pd_meas_2theta_range_max        52.14390
_pd_meas_2theta_range_min        0.387900
_pd_meas_number_of_points        3972
_pd_meas_scan_method             fixed
_pd_proc_2theta_range_inc        0.006001
_pd_proc_2theta_range_max        52.14390
_pd_proc_2theta_range_min        0.38790
_pd_proc_ls_peak_cutoff          0.00500
_pd_proc_ls_pref_orient_corr     ' ?'
_pd_proc_ls_prof_R_factor        5.9849
_pd_proc_ls_prof_wR_expected     0.6578
_pd_proc_ls_prof_wR_factor       8.8243
_pd_proc_number_of_points        8627
_pd_proc_wavelength              0.443040
_pd_spec_mounting                ' Vanadium can'
_pd_spec_shape                   cylinder
_refine_ls_goodness_of_fit_all   0.27115
_refine_ls_number_parameters     21
_refine_ls_number_reflns         545
_refine_ls_number_restraints     0
_refine_ls_R_I_factor            5.7481
_refine_ls_shift/su_max          0.0
_refine_ls_shift/su_mean         0.0
_cod_data_source_file            jp1c08314_si_002.cif
_cod_data_source_block           ALPHA_SD_295K
_cod_database_code               1565524
_pd_proc_ls_prof_cr_factor       15.4925
_pd_proc_ls_prof_cwr_factor      17.2142
_pd_proc_ls_prof_cwr_expected    1.2832
_pd_proc_ls_prof_chi2            179.9739
_pd_proc_ls_prof_echi2           203.8503
loop_
_symmetry_equiv_pos_as_xyz
x,y,z
x+1/2,-y+1/2,-z
-x,y,-z+1/2
-x+1/2,-y+1/2,z+1/2
-x,-y,-z
-x+1/2,y+1/2,z
x,-y,z+1/2
x+1/2,y+1/2,-z+1/2
loop_
_atom_site_label
_atom_site_fract_x
_atom_site_fract_y
_atom_site_fract_z
_atom_site_U_iso_or_equiv
_atom_site_occupancy
_atom_site_adp_type
_atom_site_type_symbol
W1 0.00000 0.33428(19) 0.25000 0.00783(16) 0.33334 Uiso W
Fe1 0.00000 0.33428(19) 0.25000 0.00783(16) 0.66666 Uiso Fe
O1 0.2701(5) 0.1183(5) 0.0845(6) 0.0005(8) 1.00000 Uiso O
loop_
_atom_type_symbol
_atom_type_scat_Cromer_Mann_a1
_atom_type_scat_Cromer_Mann_b1
_atom_type_scat_Cromer_Mann_a2
_atom_type_scat_Cromer_Mann_b2
_atom_type_scat_Cromer_Mann_a3
_atom_type_scat_Cromer_Mann_b3
_atom_type_scat_Cromer_Mann_a4
_atom_type_scat_Cromer_Mann_b4
_atom_type_scat_Cromer_Mann_c
_atom_type_scat_dispersion_real
_atom_type_scat_dispersion_imag
_atom_type_scat_source
w 29.08180 1.72029 15.43000 9.22590 14.43270 0.32170 5.11982 57.05600 9.88750
-0.99300 4.64300
International_Tables_for_Crystallography_Vol.C(1991)_Tables_6.1.1.4_and_6.1.1.5
fe 11.76950 4.76110 7.35730 0.30720 3.52220 15.35350 2.30450 76.88050 1.03690
0.24400 0.54500
International_Tables_for_Crystallography_Vol.C(1991)_Tables_6.1.1.4_and_6.1.1.5
o 3.04850 13.27710 2.28680 5.70110 1.54630 0.32390 0.86700 32.90890 0.25080
0.00300 0.00400
International_Tables_for_Crystallography_Vol.C(1991)_Tables_6.1.1.4_and_6.1.1.5
loop_
_geom_angle_atom_site_label_1
_geom_angle_atom_site_label_2
_geom_angle_atom_site_label_3
_geom_angle
_geom_angle_site_symmetry_1
_geom_angle_site_symmetry_3
_geom_angle_publ_flag
W1 W1 W1 64.544(14) 1_445 1_454 ?
W1 W1 W1 50.680(17) 1_445 1_455 ?
W1 W1 W1 64.544(14) 1_445 1_456 ?
W1 W1 W1 101.36(2) 1_445 1_465 ?
W1 W1 W1 90.000(16) 1_445 1_554 ?
W1 W1 W1 90.000(16) 1_445 1_556 ?
W1 W1 W1 140.68(3) 1_445 1_565 ?
W1 W1 W1 78.641(13) 1_445 1_645 ?
W1 W1 W1 115.456(14) 1_445 1_654 ?
W1 W1 W1 129.320(17) 1_445 1_655 ?
W1 W1 W1 115.456(14) 1_445 1_656 ?
W1 W1 W1 180.00(2) 1_445 1_665 ?
W1 W1 W1 46.362(12) 1_445 2_355 ?
W1 W1 W1 46.362(12) 1_445 2_356 ?
W1 W1 W1 51.537(19) 1_445 2_455 ?
W1 W1 W1 51.537(19) 1_445 2_456 ?
W1 W1 W1 111.93(3) 1_445 2_465 ?
W1 W1 W1 111.93(3) 1_445 2_466 ?
W1 W1 W1 60.659(14) 1_445 2_545 ?
W1 W1 W1 60.659(14) 1_445 2_546 ?
W1 W1 W1 101.886(19) 1_445 2_555 ?
W1 W1 W1 101.886(19) 1_445 2_556 ?
W1 W1 W1 151.47(3) 1_445 2_565 ?
W1 W1 W1 151.47(3) 1_445 2_566 ?
W1 W1 W1 119.478(12) 1_445 2_655 ?
W1 W1 W1 119.478(12) 1_445 2_656 ?
W1 W1 W1 74.597(19) 1_445 5_465 ?
W1 W1 W1 74.597(19) 1_445 5_466 ?
W1 W1 W1 49.864(19) 1_445 5_555 ?
W1 W1 W1 49.864(19) 1_445 5_556 ?
W1 W1 W1 117.58(3) 1_445 5_565 ?
W1 W1 W1 117.58(3) 1_445 5_566 ?
W1 W1 W1 90.090(13) 1_445 5_655 ?
W1 W1 W1 90.090(13) 1_445 5_656 ?
W1 W1 W1 141.653(19) 1_445 5_665 ?
W1 W1 W1 141.653(19) 1_445 5_666 ?
W1 W1 W1 72.824(17) 1_445 6_355 ?
W1 W1 W1 53.929(12) 1_445 6_444 ?
W1 W1 W1 53.929(12) 1_445 6_446 ?
W1 W1 W1 96.659(20) 1_445 6_454 ?
W1 W1 W1 101.36(3) 1_445 6_455 ?
W1 W1 W1 96.659(20) 1_445 6_456 ?
W1 W1 W1 83.341(12) 1_445 6_544 ?
W1 W1 W1 78.64(2) 1_445 6_545 ?
W1 W1 W1 83.341(12) 1_445 6_546 ?
W1 W1 W1 126.071(20) 1_445 6_554 ?
W1 W1 W1 180.00(3) 1_445 6_555 ?
W1 W1 W1 126.071(20) 1_445 6_556 ?
W1 W1 W1 107.176(11) 1_445 6_645 ?
W1 W1 W1 151.465(17) 1_445 6_655 ?
W1 W1 Fe1 64.544(14) 1_445 1_454 ?
W1 W1 Fe1 50.680(17) 1_445 1_455 ?
W1 W1 Fe1 64.544(14) 1_445 1_456 ?
W1 W1 Fe1 101.36(2) 1_445 1_465 ?
W1 W1 Fe1 90.000(16) 1_445 1_554 ?
W1 W1 Fe1 90.000(16) 1_445 1_556 ?
W1 W1 Fe1 140.68(3) 1_445 1_565 ?
W1 W1 Fe1 78.641(13) 1_445 1_645 ?
W1 W1 Fe1 115.456(14) 1_445 1_654 ?
W1 W1 Fe1 129.320(17) 1_445 1_655 ?
W1 W1 Fe1 115.456(14) 1_445 1_656 ?
W1 W1 Fe1 180.00(2) 1_445 1_665 ?
W1 W1 Fe1 46.362(12) 1_445 2_355 ?
W1 W1 Fe1 46.362(12) 1_445 2_356 ?
W1 W1 Fe1 51.537(19) 1_445 2_455 ?
W1 W1 Fe1 51.537(19) 1_445 2_456 ?
W1 W1 Fe1 111.93(3) 1_445 2_465 ?
W1 W1 Fe1 111.93(3) 1_445 2_466 ?
W1 W1 Fe1 60.659(14) 1_445 2_545 ?
W1 W1 Fe1 60.659(14) 1_445 2_546 ?
W1 W1 Fe1 101.886(19) 1_445 2_555 ?
W1 W1 Fe1 101.886(19) 1_445 2_556 ?
W1 W1 Fe1 151.47(3) 1_445 2_565 ?
W1 W1 Fe1 151.47(3) 1_445 2_566 ?
W1 W1 Fe1 119.478(12) 1_445 2_655 ?
W1 W1 Fe1 119.478(12) 1_445 2_656 ?
W1 W1 Fe1 74.597(19) 1_445 5_465 ?
W1 W1 Fe1 74.597(19) 1_445 5_466 ?
W1 W1 Fe1 49.864(19) 1_445 5_555 ?
W1 W1 Fe1 49.864(19) 1_445 5_556 ?
W1 W1 Fe1 117.58(3) 1_445 5_565 ?
W1 W1 Fe1 117.58(3) 1_445 5_566 ?
W1 W1 Fe1 90.090(13) 1_445 5_655 ?
W1 W1 Fe1 90.090(13) 1_445 5_656 ?
W1 W1 Fe1 141.653(19) 1_445 5_665 ?
W1 W1 Fe1 141.653(19) 1_445 5_666 ?
W1 W1 Fe1 72.824(17) 1_445 6_355 ?
W1 W1 Fe1 53.929(12) 1_445 6_444 ?
W1 W1 Fe1 53.929(12) 1_445 6_446 ?
W1 W1 Fe1 96.659(20) 1_445 6_454 ?
W1 W1 Fe1 101.36(3) 1_445 6_455 ?
W1 W1 Fe1 96.659(20) 1_445 6_456 ?
W1 W1 Fe1 83.341(12) 1_445 6_544 ?
W1 W1 Fe1 78.64(2) 1_445 6_545 ?
W1 W1 Fe1 83.341(12) 1_445 6_546 ?
W1 W1 Fe1 126.071(20) 1_445 6_554 ?
W1 W1 Fe1 180.00(3) 1_445 6_555 ?
W1 W1 Fe1 126.071(20) 1_445 6_556 ?
W1 W1 Fe1 107.176(11) 1_445 6_645 ?
W1 W1 Fe1 151.465(17) 1_445 6_655 ?
W1 W1 O1 63.27(4) 1_445 1_454 ?
W1 W1 O1 55.98(4) 1_445 1_456 ?
W1 W1 O1 103.20(5) 1_445 1_465 ?
W1 W1 O1 100.64(5) 1_445 1_466 ?
W1 W1 O1 49.97(3) 1_445 1_545 ?
W1 W1 O1 88.57(4) 1_445 1_554 ?
W1 W1 O1 85.49(11) 1_445 1_555 ?
W1 W1 O1 88.08(6) 1_445 1_556 ?
W1 W1 O1 124.56(5) 1_445 1_564 ?
W1 W1 O1 154.43(7) 1_445 1_565 ?
W1 W1 O1 132.71(5) 1_445 1_566 ?
W1 W1 O1 117.31(4) 1_445 1_655 ?
W1 W1 O1 112.33(4) 1_445 1_656 ?
W1 W1 O1 164.91(5) 1_445 1_665 ?
W1 W1 O1 55.09(3) 1_445 2_355 ?
W1 W1 O1 59.01(3) 1_445 2_356 ?
W1 W1 O1 86.05(4) 1_445 2_454 ?
W1 W1 O1 76.53(11) 1_445 2_455 ?
W1 W1 O1 82.36(7) 1_445 2_456 ?
W1 W1 O1 128.71(5) 1_445 2_465 ?
W1 W1 O1 124.59(5) 1_445 2_466 ?
W1 W1 O1 73.40(3) 1_445 2_545 ?
W1 W1 O1 74.80(3) 1_445 2_546 ?
W1 W1 O1 128.65(6) 1_445 2_555 ?
W1 W1 O1 120.28(6) 1_445 2_556 ?
W1 W1 O1 164.09(5) 1_445 2_565 ?
W1 W1 O1 50.35(3) 1_445 3_454 ?
W1 W1 O1 87.70(4) 1_445 3_465 ?
W1 W1 O1 67.48(5) 1_445 3_554 ?
W1 W1 O1 73.46(4) 1_445 3_556 ?
W1 W1 O1 115.06(5) 1_445 3_564 ?
W1 W1 O1 124.29(6) 1_445 3_565 ?
W1 W1 O1 110.75(5) 1_445 3_566 ?
W1 W1 O1 102.53(5) 1_445 3_654 ?
W1 W1 O1 108.94(6) 1_445 3_655 ?
W1 W1 O1 100.05(4) 1_445 3_656 ?
W1 W1 O1 143.05(5) 1_445 3_664 ?
W1 W1 O1 171.30(6) 1_445 3_665 ?
W1 W1 O1 65.20(5) 1_445 4_454 ?
W1 W1 O1 58.70(5) 1_445 4_455 ?
W1 W1 O1 109.05(5) 1_445 4_465 ?
W1 W1 O1 57.08(3) 1_445 4_544 ?
W1 W1 O1 52.54(4) 1_445 4_545 ?
W1 W1 O1 104.54(7) 1_445 4_554 ?
W1 W1 O1 116.09(12) 1_445 4_555 ?
W1 W1 O1 97.47(4) 1_445 4_556 ?
W1 W1 O1 139.80(5) 1_445 4_564 ?
W1 W1 O1 147.29(6) 1_445 4_565 ?
W1 W1 O1 125.28(4) 1_445 4_654 ?
W1 W1 O1 129.95(5) 1_445 4_655 ?
W1 W1 O1 78.79(4) 1_445 5_465 ?
W1 W1 O1 79.68(4) 1_445 5_466 ?
W1 W1 O1 67.60(4) 1_445 5_554 ?
W1 W1 O1 50.82(5) 1_445 5_556 ?
W1 W1 O1 102.36(4) 1_445 5_564 ?
W1 W1 O1 115.39(7) 1_445 5_565 ?
W1 W1 O1 109.83(6) 1_445 5_566 ?
W1 W1 O1 92.04(5) 1_445 5_655 ?
W1 W1 O1 91.72(5) 1_445 5_656 ?
W1 W1 O1 158.35(6) 1_445 5_665 ?
W1 W1 O1 143.13(6) 1_445 5_666 ?
W1 W1 O1 81.68(4) 1_445 6_454 ?
W1 W1 O1 75.26(6) 1_445 6_455 ?
W1 W1 O1 79.77(5) 1_445 6_456 ?
W1 W1 O1 70.02(4) 1_445 6_544 ?
W1 W1 O1 54.85(5) 1_445 6_545 ?
W1 W1 O1 65.48(4) 1_445 6_546 ?
W1 W1 O1 108.14(5) 1_445 6_554 ?
W1 W1 O1 156.02(12) 1_445 6_555 ?
W1 W1 O1 114.58(6) 1_445 6_556 ?
W1 W1 O1 148.42(5) 1_445 6_565 ?
W1 W1 O1 93.89(4) 1_445 6_645 ?
W1 W1 O1 144.28(5) 1_445 6_655 ?
W1 W1 O1 132.01(4) 1_445 6_656 ?
W1 W1 O1 92.55(5) 1_445 7_464 ?
W1 W1 O1 92.97(5) 1_445 7_465 ?
W1 W1 O1 74.31(5) 1_445 7_554 ?
W1 W1 O1 68.96(7) 1_445 7_555 ?
W1 W1 O1 80.61(4) 1_445 7_556 ?
W1 W1 O1 132.46(6) 1_445 7_564 ?
W1 W1 O1 148.54(8) 1_445 7_565 ?
W1 W1 O1 115.22(5) 1_445 7_566 ?
W1 W1 O1 103.98(4) 1_445 7_654 ?
W1 W1 O1 105.28(4) 1_445 7_655 ?
W1 W1 O1 145.39(5) 1_445 7_664 ?
W1 W1 O1 153.25(5) 1_445 7_665 ?
W1 W1 O1 70.94(4) 1_445 8_354 ?
W1 W1 O1 66.67(4) 1_445 8_355 ?
W1 W1 O1 49.99(4) 1_445 8_444 ?
W1 W1 O1 58.04(3) 1_445 8_446 ?
W1 W1 O1 97.08(6) 1_445 8_454 ?
W1 W1 O1 105.70(12) 1_445 8_455 ?
W1 W1 O1 95.29(5) 1_445 8_456 ?
W1 W1 O1 132.01(5) 1_445 8_465 ?
W1 W1 O1 82.67(4) 1_445 8_544 ?
W1 W1 O1 80.81(4) 1_445 8_545 ?
W1 W1 O1 127.68(5) 1_445 8_554 ?
W1 W1 O1 151.15(7) 1_445 8_555 ?
W1 W1 O1 119.86(5) 1_445 8_556 ?
W1 W1 W1 47.2884(9) 1_454 1_455 ?
W1 W1 W1 94.5769(14) 1_454 1_456 ?
W1 W1 W1 64.544(14) 1_454 1_465 ?
W1 W1 W1 90.00(2) 1_454 1_545 ?
W1 W1 W1 137.2884(19) 1_454 1_556 ?
W1 W1 W1 90.00(2) 1_454 1_565 ?
W1 W1 W1 115.456(14) 1_454 1_645 ?
W1 W1 W1 85.4231(13) 1_454 1_654 ?
W1 W1 W1 132.7116(19) 1_454 1_655 ?
W1 W1 W1 180.0000(18) 1_454 1_656 ?
W1 W1 W1 115.456(14) 1_454 1_665 ?
W1 W1 W1 67.341(2) 1_454 2_356 ?
W1 W1 W1 62.676(15) 1_454 2_445 ?
W1 W1 W1 92.099(15) 1_454 2_446 ?
W1 W1 W1 94.408(8) 1_454 2_456 ?
W1 W1 W1 54.014(16) 1_454 2_465 ?
W1 W1 W1 92.687(16) 1_454 2_466 ?
W1 W1 W1 87.901(15) 1_454 2_545 ?
W1 W1 W1 117.324(15) 1_454 2_546 ?
W1 W1 W1 85.592(8) 1_454 2_555 ?
W1 W1 W1 164.401(8) 1_454 2_556 ?
W1 W1 W1 87.313(16) 1_454 2_565 ?
W1 W1 W1 125.986(16) 1_454 2_566 ?
W1 W1 W1 112.659(3) 1_454 2_655 ?
W1 W1 W1 151.671(3) 1_454 2_656 ?
W1 W1 W1 78.448(11) 1_454 5_456 ?
W1 W1 W1 76.571(7) 1_454 5_466 ?
W1 W1 W1 66.029(19) 1_454 5_555 ?
W1 W1 W1 113.971(19) 1_454 5_556 ?
W1 W1 W1 53.939(18) 1_454 5_565 ?
W1 W1 W1 126.061(18) 1_454 5_566 ?
W1 W1 W1 101.552(11) 1_454 5_655 ?
W1 W1 W1 140.251(11) 1_454 5_656 ?
W1 W1 W1 103.429(7) 1_454 5_665 ?
W1 W1 W1 153.078(7) 1_454 5_666 ?
W1 W1 W1 51.077(7) 1_454 6_345 ?
W1 W1 W1 51.077(7) 1_454 6_355 ?
W1 W1 W1 64.54(2) 1_454 6_445 ?
W1 W1 W1 109.928(9) 1_454 6_446 ?
W1 W1 W1 64.54(2) 1_454 6_455 ?
W1 W1 W1 109.928(9) 1_454 6_456 ?
W1 W1 W1 70.072(9) 1_454 6_544 ?
W1 W1 W1 115.46(2) 1_454 6_545 ?
W1 W1 W1 147.885(9) 1_454 6_546 ?
W1 W1 W1 70.072(9) 1_454 6_554 ?
W1 W1 W1 115.46(2) 1_454 6_555 ?
W1 W1 W1 147.885(9) 1_454 6_556 ?
W1 W1 W1 128.923(7) 1_454 6_645 ?
W1 W1 W1 128.923(7) 1_454 6_655 ?
W1 W1 Fe1 64.544(14) 1_454 1_445 ?
W1 W1 Fe1 47.2884(9) 1_454 1_455 ?
W1 W1 Fe1 94.5769(14) 1_454 1_456 ?
W1 W1 Fe1 64.544(14) 1_454 1_465 ?
W1 W1 Fe1 90.00(2) 1_454 1_545 ?
W1 W1 Fe1 137.2884(19) 1_454 1_556 ?
W1 W1 Fe1 90.00(2) 1_454 1_565 ?
W1 W1 Fe1 115.456(14) 1_454 1_645 ?
W1 W1 Fe1 85.4231(13) 1_454 1_654 ?
W1 W1 Fe1 132.7116(19) 1_454 1_655 ?
W1 W1 Fe1 180.0000(18) 1_454 1_656 ?
W1 W1 Fe1 115.456(14) 1_454 1_665 ?
W1 W1 Fe1 67.341(2) 1_454 2_356 ?
W1 W1 Fe1 62.676(15) 1_454 2_445 ?
W1 W1 Fe1 92.099(15) 1_454 2_446 ?
W1 W1 Fe1 94.408(8) 1_454 2_456 ?
W1 W1 Fe1 54.014(16) 1_454 2_465 ?
W1 W1 Fe1 92.687(16) 1_454 2_466 ?
W1 W1 Fe1 87.901(15) 1_454 2_545 ?
W1 W1 Fe1 117.324(15) 1_454 2_546 ?
W1 W1 Fe1 85.592(8) 1_454 2_555 ?
W1 W1 Fe1 164.401(8) 1_454 2_556 ?
W1 W1 Fe1 87.313(16) 1_454 2_565 ?
W1 W1 Fe1 125.986(16) 1_454 2_566 ?
W1 W1 Fe1 112.659(3) 1_454 2_655 ?
W1 W1 Fe1 151.671(3) 1_454 2_656 ?
W1 W1 Fe1 78.448(11) 1_454 5_456 ?
W1 W1 Fe1 76.571(7) 1_454 5_466 ?
W1 W1 Fe1 66.029(19) 1_454 5_555 ?
W1 W1 Fe1 113.971(19) 1_454 5_556 ?
W1 W1 Fe1 53.939(18) 1_454 5_565 ?
W1 W1 Fe1 126.061(18) 1_454 5_566 ?
W1 W1 Fe1 101.552(11) 1_454 5_655 ?
W1 W1 Fe1 140.251(11) 1_454 5_656 ?
W1 W1 Fe1 103.429(7) 1_454 5_665 ?
W1 W1 Fe1 153.078(7) 1_454 5_666 ?
W1 W1 Fe1 51.077(7) 1_454 6_345 ?
W1 W1 Fe1 51.077(7) 1_454 6_355 ?
W1 W1 Fe1 64.54(2) 1_454 6_445 ?
W1 W1 Fe1 109.928(9) 1_454 6_446 ?
W1 W1 Fe1 64.54(2) 1_454 6_455 ?
W1 W1 Fe1 109.928(9) 1_454 6_456 ?
W1 W1 Fe1 70.072(9) 1_454 6_544 ?
W1 W1 Fe1 115.46(2) 1_454 6_545 ?
W1 W1 Fe1 147.885(9) 1_454 6_546 ?
W1 W1 Fe1 70.072(9) 1_454 6_554 ?
W1 W1 Fe1 115.46(2) 1_454 6_555 ?
W1 W1 Fe1 147.885(9) 1_454 6_556 ?
W1 W1 Fe1 128.923(7) 1_454 6_645 ?
W1 W1 Fe1 128.923(7) 1_454 6_655 ?
W1 W1 O1 98.16(5) 1_454 1_456 ?
W1 W1 O1 59.00(4) 1_454 1_465 ?
W1 W1 O1 96.45(4) 1_454 1_466 ?
W1 W1 O1 91.94(4) 1_454 1_545 ?
W1 W1 O1 55.60(3) 1_454 1_554 ?
W1 W1 O1 97.08(12) 1_454 1_555 ?
W1 W1 O1 149.89(7) 1_454 1_556 ?
W1 W1 O1 62.41(3) 1_454 1_564 ?
W1 W1 O1 92.92(5) 1_454 1_565 ?
W1 W1 O1 129.09(5) 1_454 1_566 ?
W1 W1 O1 123.87(4) 1_454 1_655 ?
W1 W1 O1 164.79(5) 1_454 1_656 ?
W1 W1 O1 117.13(4) 1_454 1_665 ?
W1 W1 O1 77.68(4) 1_454 2_356 ?
W1 W1 O1 70.09(4) 1_454 2_445 ?
W1 W1 O1 105.63(5) 1_454 2_446 ?
W1 W1 O1 119.51(8) 1_454 2_456 ?
W1 W1 O1 71.76(4) 1_454 2_465 ?
W1 W1 O1 104.57(5) 1_454 2_466 ?
W1 W1 O1 100.24(4) 1_454 2_545 ?
W1 W1 O1 132.07(5) 1_454 2_546 ?
W1 W1 O1 107.47(6) 1_454 2_555 ?
W1 W1 O1 174.77(6) 1_454 2_556 ?
W1 W1 O1 99.60(4) 1_454 2_565 ?
W1 W1 O1 56.13(3) 1_454 3_455 ?
W1 W1 O1 62.87(3) 1_454 3_465 ?
W1 W1 O1 88.06(4) 1_454 3_545 ?
W1 W1 O1 82.92(12) 1_454 3_555 ?
W1 W1 O1 124.40(5) 1_454 3_556 ?
W1 W1 O1 50.91(3) 1_454 3_564 ?
W1 W1 O1 87.08(6) 1_454 3_565 ?
W1 W1 O1 117.59(5) 1_454 3_566 ?
W1 W1 O1 81.84(4) 1_454 3_654 ?
W1 W1 O1 141.90(7) 1_454 3_655 ?
W1 W1 O1 163.75(5) 1_454 3_656 ?
W1 W1 O1 83.55(4) 1_454 3_664 ?
W1 W1 O1 121.00(5) 1_454 3_665 ?
W1 W1 O1 47.93(3) 1_454 4_444 ?
W1 W1 O1 79.76(4) 1_454 4_445 ?
W1 W1 O1 72.53(6) 1_454 4_455 ?
W1 W1 O1 80.40(4) 1_454 4_465 ?
W1 W1 O1 74.37(4) 1_454 4_544 ?
W1 W1 O1 109.91(5) 1_454 4_545 ?
W1 W1 O1 60.49(6) 1_454 4_554 ?
W1 W1 O1 167.16(13) 1_454 4_555 ?
W1 W1 O1 146.26(5) 1_454 4_556 ?
W1 W1 O1 75.43(4) 1_454 4_564 ?
W1 W1 O1 108.24(5) 1_454 4_565 ?
W1 W1 O1 102.32(4) 1_454 4_654 ?
W1 W1 O1 149.03(5) 1_454 4_655 ?
W1 W1 O1 77.73(4) 1_454 5_456 ?
W1 W1 O1 78.08(4) 1_454 5_466 ?
W1 W1 O1 50.98(6) 1_454 5_555 ?
W1 W1 O1 111.45(7) 1_454 5_556 ?
W1 W1 O1 56.15(6) 1_454 5_565 ?
W1 W1 O1 109.87(6) 1_454 5_566 ?
W1 W1 O1 103.44(5) 1_454 5_655 ?
W1 W1 O1 151.58(6) 1_454 5_656 ?
W1 W1 O1 102.54(5) 1_454 5_665 ?
W1 W1 O1 146.82(6) 1_454 5_666 ?
W1 W1 O1 56.29(4) 1_454 6_445 ?
W1 W1 O1 95.52(4) 1_454 6_446 ?
W1 W1 O1 96.58(5) 1_454 6_456 ?
W1 W1 O1 60.20(3) 1_454 6_544 ?
W1 W1 O1 91.51(6) 1_454 6_545 ?
W1 W1 O1 129.91(6) 1_454 6_546 ?
W1 W1 O1 54.51(3) 1_454 6_554 ?
W1 W1 O1 93.06(11) 1_454 6_555 ?
W1 W1 O1 145.51(7) 1_454 6_556 ?
W1 W1 O1 90.87(4) 1_454 6_565 ?
W1 W1 O1 117.54(4) 1_454 6_645 ?
W1 W1 O1 122.99(4) 1_454 6_655 ?
W1 W1 O1 163.20(5) 1_454 6_656 ?
W1 W1 O1 76.56(5) 1_454 7_455 ?
W1 W1 O1 77.46(5) 1_454 7_465 ?
W1 W1 O1 68.55(5) 1_454 7_554 ?
W1 W1 O1 129.02(8) 1_454 7_555 ?
W1 W1 O1 142.44(5) 1_454 7_556 ?
W1 W1 O1 70.13(5) 1_454 7_564 ?
W1 W1 O1 123.85(7) 1_454 7_565 ?
W1 W1 O1 140.44(5) 1_454 7_566 ?
W1 W1 O1 102.27(4) 1_454 7_654 ?
W1 W1 O1 141.97(5) 1_454 7_655 ?
W1 W1 O1 101.92(4) 1_454 7_664 ?
W1 W1 O1 139.63(5) 1_454 7_665 ?
W1 W1 O1 62.46(3) 1_454 8_345 ?
W1 W1 O1 57.01(3) 1_454 8_355 ?
W1 W1 O1 50.09(4) 1_454 8_444 ?
W1 W1 O1 88.49(6) 1_454 8_445 ?
W1 W1 O1 119.80(5) 1_454 8_446 ?
W1 W1 O1 86.94(11) 1_454 8_455 ?
W1 W1 O1 125.49(5) 1_454 8_456 ?
W1 W1 O1 89.13(4) 1_454 8_465 ?
W1 W1 O1 84.48(4) 1_454 8_544 ?
W1 W1 O1 123.71(5) 1_454 8_545 ?
W1 W1 O1 83.42(4) 1_454 8_554 ?
W1 W1 O1 139.25(7) 1_454 8_555 ?
W1 W1 O1 162.67(5) 1_454 8_556 ?
W1 W1 W1 47.2884(9) 1_455 1_456 ?
W1 W1 W1 50.680(17) 1_455 1_465 ?
W1 W1 W1 90.00(2) 1_455 1_545 ?
W1 W1 W1 90.0000(12) 1_455 1_554 ?
W1 W1 W1 90.0000(12) 1_455 1_556 ?
W1 W1 W1 90.00(2) 1_455 1_565 ?
W1 W1 W1 129.320(17) 1_455 1_645 ?
W1 W1 W1 132.7116(19) 1_455 1_654 ?
W1 W1 W1 180.000(3) 1_455 1_655 ?
W1 W1 W1 132.7116(19) 1_455 1_656 ?
W1 W1 W1 129.320(17) 1_455 1_665 ?
W1 W1 W1 71.859(20) 1_455 2_445 ?
W1 W1 W1 71.859(20) 1_455 2_446 ?
W1 W1 W1 49.207(8) 1_455 2_455 ?
W1 W1 W1 49.207(8) 1_455 2_456 ?
W1 W1 W1 66.511(19) 1_455 2_465 ?
W1 W1 W1 66.511(19) 1_455 2_466 ?
W1 W1 W1 108.141(20) 1_455 2_545 ?
W1 W1 W1 108.141(20) 1_455 2_546 ?
W1 W1 W1 130.793(9) 1_455 2_555 ?
W1 W1 W1 130.793(9) 1_455 2_556 ?
W1 W1 W1 113.489(20) 1_455 2_565 ?
W1 W1 W1 113.489(20) 1_455 2_566 ?
W1 W1 W1 158.880(4) 1_455 2_655 ?
W1 W1 W1 158.880(4) 1_455 2_656 ?
W1 W1 W1 90.00(2) 1_455 5_555 ?
W1 W1 W1 90.00(2) 1_455 5_556 ?
W1 W1 W1 90.00(2) 1_455 5_565 ?
W1 W1 W1 90.00(2) 1_455 5_566 ?
W1 W1 W1 135.591(14) 1_455 5_655 ?
W1 W1 W1 135.591(14) 1_455 5_656 ?
W1 W1 W1 145.938(8) 1_455 5_665 ?
W1 W1 W1 145.938(8) 1_455 5_666 ?
W1 W1 W1 68.094(11) 1_455 6_444 ?
W1 W1 W1 50.68(2) 1_455 6_445 ?
W1 W1 W1 68.094(11) 1_455 6_446 ?
W1 W1 W1 68.094(11) 1_455 6_454 ?
W1 W1 W1 50.68(2) 1_455 6_455 ?
W1 W1 W1 68.094(11) 1_455 6_456 ?
W1 W1 W1 111.906(11) 1_455 6_544 ?
W1 W1 W1 129.32(2) 1_455 6_545 ?
W1 W1 W1 111.906(11) 1_455 6_546 ?
W1 W1 W1 111.906(11) 1_455 6_554 ?
W1 W1 W1 129.32(2) 1_455 6_555 ?
W1 W1 W1 111.906(11) 1_455 6_556 ?
W1 W1 W1 157.856(9) 1_455 6_645 ?
W1 W1 W1 157.856(9) 1_455 6_655 ?
W1 W1 Fe1 50.680(17) 1_455 1_445 ?
W1 W1 Fe1 47.2884(9) 1_455 1_454 ?
W1 W1 Fe1 47.2884(9) 1_455 1_456 ?
W1 W1 Fe1 50.680(17) 1_455 1_465 ?
W1 W1 Fe1 90.00(2) 1_455 1_545 ?
W1 W1 Fe1 90.0000(12) 1_455 1_554 ?
W1 W1 Fe1 90.0000(12) 1_455 1_556 ?
W1 W1 Fe1 90.00(2) 1_455 1_565 ?
W1 W1 Fe1 129.320(17) 1_455 1_645 ?
W1 W1 Fe1 132.7116(19) 1_455 1_654 ?
W1 W1 Fe1 180.000(3) 1_455 1_655 ?
W1 W1 Fe1 132.7116(19) 1_455 1_656 ?
W1 W1 Fe1 129.320(17) 1_455 1_665 ?
W1 W1 Fe1 71.859(20) 1_455 2_445 ?
W1 W1 Fe1 71.859(20) 1_455 2_446 ?
W1 W1 Fe1 49.207(8) 1_455 2_455 ?
W1 W1 Fe1 49.207(8) 1_455 2_456 ?
W1 W1 Fe1 66.511(19) 1_455 2_465 ?
W1 W1 Fe1 66.511(19) 1_455 2_466 ?
W1 W1 Fe1 108.141(20) 1_455 2_545 ?
W1 W1 Fe1 108.141(20) 1_455 2_546 ?
W1 W1 Fe1 130.793(9) 1_455 2_555 ?
W1 W1 Fe1 130.793(9) 1_455 2_556 ?
W1 W1 Fe1 113.489(20) 1_455 2_565 ?
W1 W1 Fe1 113.489(20) 1_455 2_566 ?
W1 W1 Fe1 158.880(4) 1_455 2_655 ?
W1 W1 Fe1 158.880(4) 1_455 2_656 ?
W1 W1 Fe1 90.00(2) 1_455 5_555 ?
W1 W1 Fe1 90.00(2) 1_455 5_556 ?
W1 W1 Fe1 90.00(2) 1_455 5_565 ?
W1 W1 Fe1 90.00(2) 1_455 5_566 ?
W1 W1 Fe1 135.591(14) 1_455 5_655 ?
W1 W1 Fe1 135.591(14) 1_455 5_656 ?
W1 W1 Fe1 145.938(8) 1_455 5_665 ?
W1 W1 Fe1 145.938(8) 1_455 5_666 ?
W1 W1 Fe1 68.094(11) 1_455 6_444 ?
W1 W1 Fe1 50.68(2) 1_455 6_445 ?
W1 W1 Fe1 68.094(11) 1_455 6_446 ?
W1 W1 Fe1 68.094(11) 1_455 6_454 ?
W1 W1 Fe1 50.68(2) 1_455 6_455 ?
W1 W1 Fe1 68.094(11) 1_455 6_456 ?
W1 W1 Fe1 111.906(11) 1_455 6_544 ?
W1 W1 Fe1 129.32(2) 1_455 6_545 ?
W1 W1 Fe1 111.906(11) 1_455 6_546 ?
W1 W1 Fe1 111.906(11) 1_455 6_554 ?
W1 W1 Fe1 129.32(2) 1_455 6_555 ?
W1 W1 Fe1 111.906(11) 1_455 6_556 ?
W1 W1 Fe1 157.856(9) 1_455 6_645 ?
W1 W1 Fe1 157.856(9) 1_455 6_655 ?
W1 W1 O1 60.49(4) 1_455 1_454 ?
W1 W1 O1 52.22(4) 1_455 1_456 ?
W1 W1 O1 53.15(4) 1_455 1_465 ?
W1 W1 O1 61.00(4) 1_455 1_466 ?
W1 W1 O1 100.24(5) 1_455 1_545 ?
W1 W1 O1 101.83(5) 1_455 1_554 ?
W1 W1 O1 130.27(12) 1_455 1_555 ?
W1 W1 O1 106.00(6) 1_455 1_556 ?
W1 W1 O1 99.67(5) 1_455 1_564 ?
W1 W1 O1 105.50(6) 1_455 1_565 ?
W1 W1 O1 101.59(5) 1_455 1_566 ?
W1 W1 O1 165.91(6) 1_455 1_655 ?
W1 W1 O1 143.45(5) 1_455 1_656 ?
W1 W1 O1 142.52(5) 1_455 1_665 ?
W1 W1 O1 79.31(5) 1_455 2_445 ?
W1 W1 O1 80.46(5) 1_455 2_446 ?
W1 W1 O1 80.97(5) 1_455 2_454 ?
W1 W1 O1 57.93(10) 1_455 2_455 ?
W1 W1 O1 72.37(7) 1_455 2_456 ?
W1 W1 O1 80.19(5) 1_455 2_465 ?
W1 W1 O1 81.10(5) 1_455 2_466 ?
W1 W1 O1 122.30(5) 1_455 2_545 ?
W1 W1 O1 119.37(5) 1_455 2_546 ?
W1 W1 O1 154.52(7) 1_455 2_555 ?
W1 W1 O1 136.80(6) 1_455 2_556 ?
W1 W1 O1 120.09(5) 1_455 2_565 ?
W1 W1 O1 79.76(5) 1_455 3_545 ?
W1 W1 O1 74.00(6) 1_455 3_554 ?
W1 W1 O1 49.73(10) 1_455 3_555 ?
W1 W1 O1 78.17(5) 1_455 3_556 ?
W1 W1 O1 78.41(5) 1_455 3_564 ?
W1 W1 O1 74.50(6) 1_455 3_565 ?
W1 W1 O1 80.33(5) 1_455 3_566 ?
W1 W1 O1 127.78(6) 1_455 3_654 ?
W1 W1 O1 156.40(7) 1_455 3_655 ?
W1 W1 O1 119.51(5) 1_455 3_656 ?
W1 W1 O1 119.00(5) 1_455 3_664 ?
W1 W1 O1 126.85(6) 1_455 3_665 ?
W1 W1 O1 60.63(4) 1_455 4_444 ?
W1 W1 O1 57.70(4) 1_455 4_445 ?
W1 W1 O1 59.91(4) 1_455 4_465 ?
W1 W1 O1 99.54(5) 1_455 4_544 ?
W1 W1 O1 100.69(6) 1_455 4_545 ?
W1 W1 O1 107.63(8) 1_455 4_554 ?
W1 W1 O1 122.07(12) 1_455 4_555 ?
W1 W1 O1 99.03(5) 1_455 4_556 ?
W1 W1 O1 98.90(5) 1_455 4_564 ?
W1 W1 O1 99.81(5) 1_455 4_565 ?
W1 W1 O1 149.54(5) 1_455 4_654 ?
W1 W1 O1 163.39(6) 1_455 4_655 ?
W1 W1 O1 80.10(5) 1_455 5_554 ?
W1 W1 O1 67.77(7) 1_455 5_555 ?
W1 W1 O1 73.44(6) 1_455 5_556 ?
W1 W1 O1 80.37(5) 1_455 5_564 ?
W1 W1 O1 70.44(6) 1_455 5_565 ?
W1 W1 O1 74.64(5) 1_455 5_566 ?
W1 W1 O1 137.85(7) 1_455 5_655 ?
W1 W1 O1 128.79(6) 1_455 5_656 ?
W1 W1 O1 133.83(6) 1_455 5_665 ?
W1 W1 O1 126.59(6) 1_455 5_666 ?
W1 W1 O1 49.20(4) 1_455 6_445 ?
W1 W1 O1 58.52(4) 1_455 6_446 ?
W1 W1 O1 59.54(4) 1_455 6_454 ?
W1 W1 O1 51.50(4) 1_455 6_456 ?
W1 W1 O1 98.51(5) 1_455 6_544 ?
W1 W1 O1 104.45(7) 1_455 6_545 ?
W1 W1 O1 100.36(5) 1_455 6_546 ?
W1 W1 O1 99.96(5) 1_455 6_554 ?
W1 W1 O1 120.50(11) 1_455 6_555 ?
W1 W1 O1 103.36(6) 1_455 6_556 ?
W1 W1 O1 98.29(5) 1_455 6_565 ?
W1 W1 O1 144.04(5) 1_455 6_645 ?
W1 W1 O1 162.39(6) 1_455 6_655 ?
W1 W1 O1 141.79(5) 1_455 6_656 ?
W1 W1 O1 51.21(4) 1_455 7_454 ?
W1 W1 O1 53.41(4) 1_455 7_464 ?
W1 W1 O1 46.17(4) 1_455 7_465 ?
W1 W1 O1 106.56(7) 1_455 7_554 ?
W1 W1 O1 112.23(8) 1_455 7_555 ?
W1 W1 O1 99.90(5) 1_455 7_556 ?
W1 W1 O1 105.36(6) 1_455 7_564 ?
W1 W1 O1 109.56(7) 1_455 7_565 ?
W1 W1 O1 99.63(5) 1_455 7_566 ?
W1 W1 O1 144.43(5) 1_455 7_654 ?
W1 W1 O1 152.51(5) 1_455 7_655 ?
W1 W1 O1 142.26(5) 1_455 7_664 ?
W1 W1 O1 149.10(5) 1_455 7_665 ?
W1 W1 O1 79.64(5) 1_455 8_444 ?
W1 W1 O1 75.55(6) 1_455 8_445 ?
W1 W1 O1 81.49(5) 1_455 8_446 ?
W1 W1 O1 76.64(6) 1_455 8_454 ?
W1 W1 O1 59.50(10) 1_455 8_455 ?
W1 W1 O1 80.04(5) 1_455 8_456 ?
W1 W1 O1 81.71(5) 1_455 8_465 ?
W1 W1 O1 121.48(5) 1_455 8_544 ?
W1 W1 O1 130.80(6) 1_455 8_545 ?
W1 W1 O1 128.50(6) 1_455 8_554 ?
W1 W1 O1 153.12(7) 1_455 8_555 ?
W1 W1 O1 120.46(5) 1_455 8_556 ?
W1 W1 W1 64.544(14) 1_456 1_465 ?
W1 W1 W1 90.00(2) 1_456 1_545 ?
W1 W1 W1 137.2884(19) 1_456 1_554 ?
W1 W1 W1 90.00(2) 1_456 1_565 ?
W1 W1 W1 115.456(14) 1_456 1_645 ?
W1 W1 W1 180.0000(18) 1_456 1_654 ?
W1 W1 W1 132.7116(19) 1_456 1_655 ?
W1 W1 W1 85.4231(13) 1_456 1_656 ?
W1 W1 W1 115.456(14) 1_456 1_665 ?
W1 W1 W1 67.341(2) 1_456 2_355 ?
W1 W1 W1 92.099(15) 1_456 2_445 ?
W1 W1 W1 62.676(15) 1_456 2_446 ?
W1 W1 W1 94.408(8) 1_456 2_455 ?
W1 W1 W1 92.687(16) 1_456 2_465 ?
W1 W1 W1 54.014(16) 1_456 2_466 ?
W1 W1 W1 117.324(15) 1_456 2_545 ?
W1 W1 W1 87.901(15) 1_456 2_546 ?
W1 W1 W1 164.401(8) 1_456 2_555 ?
W1 W1 W1 85.592(8) 1_456 2_556 ?
W1 W1 W1 125.986(16) 1_456 2_565 ?
W1 W1 W1 87.313(16) 1_456 2_566 ?
W1 W1 W1 151.671(3) 1_456 2_655 ?
W1 W1 W1 112.659(3) 1_456 2_656 ?
W1 W1 W1 78.448(11) 1_456 5_455 ?
W1 W1 W1 76.571(7) 1_456 5_465 ?
W1 W1 W1 113.971(19) 1_456 5_555 ?
W1 W1 W1 66.029(19) 1_456 5_556 ?
W1 W1 W1 126.061(18) 1_456 5_565 ?
W1 W1 W1 53.939(18) 1_456 5_566 ?
W1 W1 W1 140.251(11) 1_456 5_655 ?
W1 W1 W1 101.552(11) 1_456 5_656 ?
W1 W1 W1 153.078(7) 1_456 5_665 ?
W1 W1 W1 103.429(7) 1_456 5_666 ?
W1 W1 W1 51.077(7) 1_456 6_345 ?
W1 W1 W1 51.077(7) 1_456 6_355 ?
W1 W1 W1 109.928(9) 1_456 6_444 ?
W1 W1 W1 64.54(2) 1_456 6_445 ?
W1 W1 W1 109.928(9) 1_456 6_454 ?
W1 W1 W1 64.54(2) 1_456 6_455 ?
W1 W1 W1 147.885(9) 1_456 6_544 ?
W1 W1 W1 115.46(2) 1_456 6_545 ?
W1 W1 W1 70.072(9) 1_456 6_546 ?
W1 W1 W1 147.885(9) 1_456 6_554 ?
W1 W1 W1 115.46(2) 1_456 6_555 ?
W1 W1 W1 70.072(9) 1_456 6_556 ?
W1 W1 W1 128.923(7) 1_456 6_645 ?
W1 W1 W1 128.923(7) 1_456 6_655 ?
W1 W1 Fe1 64.544(14) 1_456 1_445 ?
W1 W1 Fe1 94.5769(14) 1_456 1_454 ?
W1 W1 Fe1 47.2884(9) 1_456 1_455 ?
W1 W1 Fe1 64.544(14) 1_456 1_465 ?
W1 W1 Fe1 90.00(2) 1_456 1_545 ?
W1 W1 Fe1 137.2884(19) 1_456 1_554 ?
W1 W1 Fe1 90.00(2) 1_456 1_565 ?
W1 W1 Fe1 115.456(14) 1_456 1_645 ?
W1 W1 Fe1 180.0000(18) 1_456 1_654 ?
W1 W1 Fe1 132.7116(19) 1_456 1_655 ?
W1 W1 Fe1 85.4231(13) 1_456 1_656 ?
W1 W1 Fe1 115.456(14) 1_456 1_665 ?
W1 W1 Fe1 67.341(2) 1_456 2_355 ?
W1 W1 Fe1 92.099(15) 1_456 2_445 ?
W1 W1 Fe1 62.676(15) 1_456 2_446 ?
W1 W1 Fe1 94.408(8) 1_456 2_455 ?
W1 W1 Fe1 92.687(16) 1_456 2_465 ?
W1 W1 Fe1 54.014(16) 1_456 2_466 ?
W1 W1 Fe1 117.324(15) 1_456 2_545 ?
W1 W1 Fe1 87.901(15) 1_456 2_546 ?
W1 W1 Fe1 164.401(8) 1_456 2_555 ?
W1 W1 Fe1 85.592(8) 1_456 2_556 ?
W1 W1 Fe1 125.986(16) 1_456 2_565 ?
W1 W1 Fe1 87.313(16) 1_456 2_566 ?
W1 W1 Fe1 151.671(3) 1_456 2_655 ?
W1 W1 Fe1 112.659(3) 1_456 2_656 ?
W1 W1 Fe1 78.448(11) 1_456 5_455 ?
W1 W1 Fe1 76.571(7) 1_456 5_465 ?
W1 W1 Fe1 113.971(19) 1_456 5_555 ?
W1 W1 Fe1 66.029(19) 1_456 5_556 ?
W1 W1 Fe1 126.061(18) 1_456 5_565 ?
W1 W1 Fe1 53.939(18) 1_456 5_566 ?
W1 W1 Fe1 140.251(11) 1_456 5_655 ?
W1 W1 Fe1 101.552(11) 1_456 5_656 ?
W1 W1 Fe1 153.078(7) 1_456 5_665 ?
W1 W1 Fe1 103.429(7) 1_456 5_666 ?
W1 W1 Fe1 51.077(7) 1_456 6_345 ?
W1 W1 Fe1 51.077(7) 1_456 6_355 ?
W1 W1 Fe1 109.928(9) 1_456 6_444 ?
W1 W1 Fe1 64.54(2) 1_456 6_445 ?
W1 W1 Fe1 109.928(9) 1_456 6_454 ?
W1 W1 Fe1 64.54(2) 1_456 6_455 ?
W1 W1 Fe1 147.885(9) 1_456 6_544 ?
W1 W1 Fe1 115.46(2) 1_456 6_545 ?
W1 W1 Fe1 70.072(9) 1_456 6_546 ?
W1 W1 Fe1 147.885(9) 1_456 6_554 ?
W1 W1 Fe1 115.46(2) 1_456 6_555 ?
W1 W1 Fe1 70.072(9) 1_456 6_556 ?
W1 W1 Fe1 128.923(7) 1_456 6_645 ?
W1 W1 Fe1 128.923(7) 1_456 6_655 ?
W1 W1 O1 106.97(5) 1_456 1_454 ?
W1 W1 O1 62.86(6) 1_456 1_455 ?
W1 W1 O1 72.63(4) 1_456 1_465 ?
W1 W1 O1 101.96(4) 1_456 1_545 ?
W1 W1 O1 147.46(6) 1_456 1_554 ?
W1 W1 O1 138.91(13) 1_456 1_555 ?
W1 W1 O1 60.59(5) 1_456 1_556 ?
W1 W1 O1 133.72(5) 1_456 1_564 ?
W1 W1 O1 108.16(6) 1_456 1_565 ?
W1 W1 O1 69.03(4) 1_456 1_566 ?
W1 W1 O1 139.33(5) 1_456 1_655 ?
W1 W1 O1 97.17(3) 1_456 1_656 ?
W1 W1 O1 128.36(4) 1_456 1_665 ?
W1 W1 O1 63.73(4) 1_456 2_355 ?
W1 W1 O1 95.10(5) 1_456 2_445 ?
W1 W1 O1 60.39(4) 1_456 2_446 ?
W1 W1 O1 128.22(5) 1_456 2_454 ?
W1 W1 O1 104.76(12) 1_456 2_455 ?
W1 W1 O1 94.69(5) 1_456 2_465 ?
W1 W1 O1 62.52(4) 1_456 2_466 ?
W1 W1 O1 123.18(5) 1_456 2_545 ?
W1 W1 O1 89.73(4) 1_456 2_546 ?
W1 W1 O1 157.59(7) 1_456 2_555 ?
W1 W1 O1 89.60(5) 1_456 2_556 ?
W1 W1 O1 120.89(5) 1_456 2_565 ?
W1 W1 O1 82.83(4) 1_456 3_454 ?
W1 W1 O1 51.64(3) 1_456 3_465 ?
W1 W1 O1 78.04(4) 1_456 3_545 ?
W1 W1 O1 119.41(7) 1_456 3_554 ?
W1 W1 O1 110.97(5) 1_456 3_564 ?
W1 W1 O1 71.84(5) 1_456 3_565 ?
W1 W1 O1 46.28(3) 1_456 3_566 ?
W1 W1 O1 166.67(6) 1_456 3_654 ?
W1 W1 O1 117.14(6) 1_456 3_655 ?
W1 W1 O1 73.03(3) 1_456 3_656 ?
W1 W1 O1 140.36(5) 1_456 3_664 ?
W1 W1 O1 107.37(5) 1_456 3_665 ?
W1 W1 O1 90.27(4) 1_456 4_444 ?
W1 W1 O1 56.82(3) 1_456 4_445 ?
W1 W1 O1 90.40(5) 1_456 4_454 ?
W1 W1 O1 59.11(3) 1_456 4_465 ?
W1 W1 O1 119.61(5) 1_456 4_544 ?
W1 W1 O1 84.90(5) 1_456 4_545 ?
W1 W1 O1 154.62(8) 1_456 4_554 ?
W1 W1 O1 75.24(11) 1_456 4_555 ?
W1 W1 O1 51.78(3) 1_456 4_556 ?
W1 W1 O1 117.48(5) 1_456 4_564 ?
W1 W1 O1 85.31(4) 1_456 4_565 ?
W1 W1 O1 162.93(5) 1_456 4_654 ?
W1 W1 O1 116.27(4) 1_456 4_655 ?
W1 W1 O1 65.43(3) 1_456 5_455 ?
W1 W1 O1 66.29(3) 1_456 5_465 ?
W1 W1 O1 124.02(5) 1_456 5_554 ?
W1 W1 O1 96.68(8) 1_456 5_555 ?
W1 W1 O1 122.97(5) 1_456 5_564 ?
W1 W1 O1 95.91(7) 1_456 5_565 ?
W1 W1 O1 45.63(4) 1_456 5_566 ?
W1 W1 O1 140.65(6) 1_456 5_655 ?
W1 W1 O1 88.30(4) 1_456 5_656 ?
W1 W1 O1 136.25(6) 1_456 5_665 ?
W1 W1 O1 88.38(4) 1_456 5_666 ?
W1 W1 O1 70.65(4) 1_456 6_445 ?
W1 W1 O1 105.48(5) 1_456 6_454 ?
W1 W1 O1 63.10(5) 1_456 6_455 ?
W1 W1 O1 134.26(5) 1_456 6_544 ?
W1 W1 O1 108.19(6) 1_456 6_545 ?
W1 W1 O1 66.57(4) 1_456 6_546 ?
W1 W1 O1 144.60(6) 1_456 6_554 ?
W1 W1 O1 129.42(12) 1_456 6_555 ?
W1 W1 O1 59.28(5) 1_456 6_556 ?
W1 W1 O1 100.39(4) 1_456 6_565 ?
W1 W1 O1 129.47(4) 1_456 6_645 ?
W1 W1 O1 138.47(5) 1_456 6_655 ?
W1 W1 O1 96.24(4) 1_456 6_656 ?
W1 W1 O1 91.70(5) 1_456 7_454 ?
W1 W1 O1 91.62(5) 1_456 7_464 ?
W1 W1 O1 138.79(7) 1_456 7_554 ?
W1 W1 O1 83.32(7) 1_456 7_555 ?
W1 W1 O1 55.98(3) 1_456 7_556 ?
W1 W1 O1 134.37(6) 1_456 7_564 ?
W1 W1 O1 84.09(6) 1_456 7_565 ?
W1 W1 O1 57.03(3) 1_456 7_566 ?
W1 W1 O1 153.00(5) 1_456 7_654 ?
W1 W1 O1 114.57(4) 1_456 7_655 ?
W1 W1 O1 150.02(5) 1_456 7_664 ?
W1 W1 O1 113.71(4) 1_456 7_665 ?
W1 W1 O1 50.53(3) 1_456 8_345 ?
W1 W1 O1 83.76(4) 1_456 8_354 ?
W1 W1 O1 113.43(5) 1_456 8_444 ?
W1 W1 O1 71.81(6) 1_456 8_445 ?
W1 W1 O1 45.74(3) 1_456 8_446 ?
W1 W1 O1 120.72(6) 1_456 8_454 ?
W1 W1 O1 50.58(10) 1_456 8_455 ?
W1 W1 O1 79.61(4) 1_456 8_465 ?
W1 W1 O1 143.58(5) 1_456 8_544 ?
W1 W1 O1 109.35(5) 1_456 8_545 ?
W1 W1 O1 163.57(6) 1_456 8_554 ?
W1 W1 O1 116.90(6) 1_456 8_555 ?
W1 W1 O1 74.52(3) 1_456 8_556 ?
W1 W1 W1 140.68(3) 1_465 1_545 ?
W1 W1 W1 90.000(16) 1_465 1_554 ?
W1 W1 W1 90.000(16) 1_465 1_556 ?
W1 W1 W1 180.00(2) 1_465 1_645 ?
W1 W1 W1 115.456(14) 1_465 1_654 ?
W1 W1 W1 129.320(17) 1_465 1_655 ?
W1 W1 W1 115.456(14) 1_465 1_656 ?
W1 W1 W1 78.641(13) 1_465 1_665 ?
W1 W1 W1 60.522(14) 1_465 2_355 ?
W1 W1 W1 60.522(14) 1_465 2_356 ?
W1 W1 W1 119.34(2) 1_465 2_445 ?
W1 W1 W1 119.34(2) 1_465 2_446 ?
W1 W1 W1 78.11(2) 1_465 2_455 ?
W1 W1 W1 78.11(2) 1_465 2_456 ?
W1 W1 W1 152.20(2) 1_465 2_545 ?
W1 W1 W1 152.20(2) 1_465 2_546 ?
W1 W1 W1 128.46(2) 1_465 2_555 ?
W1 W1 W1 128.46(2) 1_465 2_556 ?
W1 W1 W1 68.073(15) 1_465 2_565 ?
W1 W1 W1 68.073(15) 1_465 2_566 ?
W1 W1 W1 133.638(14) 1_465 2_655 ?
W1 W1 W1 133.638(14) 1_465 2_656 ?
W1 W1 W1 89.91(2) 1_465 5_455 ?
W1 W1 W1 89.91(2) 1_465 5_456 ?
W1 W1 W1 130.14(3) 1_465 5_555 ?
W1 W1 W1 130.14(3) 1_465 5_556 ?
W1 W1 W1 62.42(2) 1_465 5_565 ?
W1 W1 W1 62.42(2) 1_465 5_566 ?
W1 W1 W1 154.65(2) 1_465 5_655 ?
W1 W1 W1 154.65(2) 1_465 5_656 ?
W1 W1 W1 105.403(13) 1_465 5_665 ?
W1 W1 W1 105.403(13) 1_465 5_666 ?
W1 W1 W1 72.824(17) 1_465 6_345 ?
W1 W1 W1 96.659(20) 1_465 6_444 ?
W1 W1 W1 101.36(3) 1_465 6_445 ?
W1 W1 W1 96.659(20) 1_465 6_446 ?
W1 W1 W1 53.929(12) 1_465 6_454 ?
W1 W1 W1 53.929(12) 1_465 6_456 ?
W1 W1 W1 126.071(20) 1_465 6_544 ?
W1 W1 W1 180.00(3) 1_465 6_545 ?
W1 W1 W1 126.071(20) 1_465 6_546 ?
W1 W1 W1 83.341(12) 1_465 6_554 ?
W1 W1 W1 78.64(2) 1_465 6_555 ?
W1 W1 W1 83.341(12) 1_465 6_556 ?
W1 W1 W1 151.465(17) 1_465 6_645 ?
W1 W1 W1 107.176(11) 1_465 6_655 ?
W1 W1 Fe1 101.36(2) 1_465 1_445 ?
W1 W1 Fe1 64.544(14) 1_465 1_454 ?
W1 W1 Fe1 50.680(17) 1_465 1_455 ?
W1 W1 Fe1 64.544(14) 1_465 1_456 ?
W1 W1 Fe1 140.68(3) 1_465 1_545 ?
W1 W1 Fe1 90.000(16) 1_465 1_554 ?
W1 W1 Fe1 90.000(16) 1_465 1_556 ?
W1 W1 Fe1 180.00(2) 1_465 1_645 ?
W1 W1 Fe1 115.456(14) 1_465 1_654 ?
W1 W1 Fe1 129.320(17) 1_465 1_655 ?
W1 W1 Fe1 115.456(14) 1_465 1_656 ?
W1 W1 Fe1 78.641(13) 1_465 1_665 ?
W1 W1 Fe1 60.522(14) 1_465 2_355 ?
W1 W1 Fe1 60.522(14) 1_465 2_356 ?
W1 W1 Fe1 119.34(2) 1_465 2_445 ?
W1 W1 Fe1 119.34(2) 1_465 2_446 ?
W1 W1 Fe1 78.11(2) 1_465 2_455 ?
W1 W1 Fe1 78.11(2) 1_465 2_456 ?
W1 W1 Fe1 152.20(2) 1_465 2_545 ?
W1 W1 Fe1 152.20(2) 1_465 2_546 ?
W1 W1 Fe1 128.46(2) 1_465 2_555 ?
W1 W1 Fe1 128.46(2) 1_465 2_556 ?
W1 W1 Fe1 68.073(15) 1_465 2_565 ?
W1 W1 Fe1 68.073(15) 1_465 2_566 ?
W1 W1 Fe1 133.638(14) 1_465 2_655 ?
W1 W1 Fe1 133.638(14) 1_465 2_656 ?
W1 W1 Fe1 89.91(2) 1_465 5_455 ?
W1 W1 Fe1 89.91(2) 1_465 5_456 ?
W1 W1 Fe1 130.14(3) 1_465 5_555 ?
W1 W1 Fe1 130.14(3) 1_465 5_556 ?
W1 W1 Fe1 62.42(2) 1_465 5_565 ?
W1 W1 Fe1 62.42(2) 1_465 5_566 ?
W1 W1 Fe1 154.65(2) 1_465 5_655 ?
W1 W1 Fe1 154.65(2) 1_465 5_656 ?
W1 W1 Fe1 105.403(13) 1_465 5_665 ?
W1 W1 Fe1 105.403(13) 1_465 5_666 ?
W1 W1 Fe1 72.824(17) 1_465 6_345 ?
W1 W1 Fe1 96.659(20) 1_465 6_444 ?
W1 W1 Fe1 101.36(3) 1_465 6_445 ?
W1 W1 Fe1 96.659(20) 1_465 6_446 ?
W1 W1 Fe1 53.929(12) 1_465 6_454 ?
W1 W1 Fe1 53.929(12) 1_465 6_456 ?
W1 W1 Fe1 126.071(20) 1_465 6_544 ?
W1 W1 Fe1 180.00(3) 1_465 6_545 ?
W1 W1 Fe1 126.071(20) 1_465 6_546 ?
W1 W1 Fe1 83.341(12) 1_465 6_554 ?
W1 W1 Fe1 78.64(2) 1_465 6_555 ?
W1 W1 Fe1 83.341(12) 1_465 6_556 ?
W1 W1 Fe1 151.465(17) 1_465 6_645 ?
W1 W1 Fe1 107.176(11) 1_465 6_655 ?
W1 W1 O1 79.95(4) 1_465 1_454 ?
W1 W1 O1 71.06(6) 1_465 1_455 ?
W1 W1 O1 77.47(5) 1_465 1_456 ?
W1 W1 O1 150.28(5) 1_465 1_545 ?
W1 W1 O1 106.54(5) 1_465 1_554 ?
W1 W1 O1 153.86(13) 1_465 1_555 ?
W1 W1 O1 112.52(6) 1_465 1_556 ?
W1 W1 O1 69.25(3) 1_465 1_564 ?
W1 W1 O1 55.71(4) 1_465 1_565 ?
W1 W1 O1 64.94(4) 1_465 1_566 ?
W1 W1 O1 140.39(5) 1_465 1_655 ?
W1 W1 O1 129.65(4) 1_465 1_656 ?
W1 W1 O1 92.30(3) 1_465 1_665 ?
W1 W1 O1 50.05(3) 1_465 2_355 ?
W1 W1 O1 54.72(3) 1_465 2_356 ?
W1 W1 O1 127.46(6) 1_465 2_445 ?
W1 W1 O1 122.92(5) 1_465 2_446 ?
W1 W1 O1 82.53(4) 1_465 2_454 ?
W1 W1 O1 63.91(11) 1_465 2_455 ?
W1 W1 O1 75.46(7) 1_465 2_456 ?
W1 W1 O1 164.35(5) 1_465 2_545 ?
W1 W1 O1 152.10(5) 1_465 2_546 ?
W1 W1 O1 121.30(6) 1_465 2_555 ?
W1 W1 O1 114.80(5) 1_465 2_556 ?
W1 W1 O1 70.95(3) 1_465 2_565 ?
W1 W1 O1 67.67(3) 1_465 3_454 ?
W1 W1 O1 62.69(4) 1_465 3_455 ?
W1 W1 O1 130.03(5) 1_465 3_545 ?
W1 W1 O1 91.92(6) 1_465 3_554 ?
W1 W1 O1 94.51(12) 1_465 3_555 ?
W1 W1 O1 91.43(5) 1_465 3_556 ?
W1 W1 O1 47.29(3) 1_465 3_564 ?
W1 W1 O1 55.44(3) 1_465 3_566 ?
W1 W1 O1 124.02(5) 1_465 3_654 ?
W1 W1 O1 146.80(7) 1_465 3_655 ?
W1 W1 O1 116.73(5) 1_465 3_656 ?
W1 W1 O1 79.36(4) 1_465 3_664 ?
W1 W1 O1 76.80(4) 1_465 3_665 ?
W1 W1 O1 105.20(4) 1_465 4_444 ?
W1 W1 O1 106.60(5) 1_465 4_445 ?
W1 W1 O1 59.72(4) 1_465 4_454 ?
W1 W1 O1 51.35(5) 1_465 4_455 ?
W1 W1 O1 138.89(5) 1_465 4_544 ?
W1 W1 O1 147.49(6) 1_465 4_545 ?
W1 W1 O1 97.64(7) 1_465 4_554 ?
W1 W1 O1 103.47(12) 1_465 4_555 ?
W1 W1 O1 93.95(4) 1_465 4_556 ?
W1 W1 O1 55.41(3) 1_465 4_564 ?
W1 W1 O1 51.29(3) 1_465 4_565 ?
W1 W1 O1 120.99(4) 1_465 4_654 ?
W1 W1 O1 124.91(5) 1_465 4_655 ?
W1 W1 O1 74.72(4) 1_465 5_455 ?
W1 W1 O1 76.02(4) 1_465 5_456 ?
W1 W1 O1 99.39(4) 1_465 5_554 ?
W1 W1 O1 111.04(8) 1_465 5_555 ?
W1 W1 O1 105.69(6) 1_465 5_556 ?
W1 W1 O1 64.78(3) 1_465 5_564 ?
W1 W1 O1 47.54(4) 1_465 5_566 ?
W1 W1 O1 154.68(6) 1_465 5_655 ?
W1 W1 O1 139.80(6) 1_465 5_656 ?
W1 W1 O1 87.03(5) 1_465 5_665 ?
W1 W1 O1 87.45(4) 1_465 5_666 ?
W1 W1 O1 99.19(5) 1_465 6_445 ?
W1 W1 O1 97.33(4) 1_465 6_446 ?
W1 W1 O1 60.14(3) 1_465 6_454 ?
W1 W1 O1 52.32(4) 1_465 6_456 ?
W1 W1 O1 121.96(5) 1_465 6_544 ?
W1 W1 O1 153.12(7) 1_465 6_545 ?
W1 W1 O1 130.01(5) 1_465 6_546 ?
W1 W1 O1 84.71(4) 1_465 6_554 ?
W1 W1 O1 74.30(10) 1_465 6_555 ?
W1 W1 O1 82.92(5) 1_465 6_556 ?
W1 W1 O1 47.99(3) 1_465 6_565 ?
W1 W1 O1 163.32(5) 1_465 6_645 ?
W1 W1 O1 113.33(4) 1_465 6_655 ?
W1 W1 O1 109.06(4) 1_465 6_656 ?
W1 W1 O1 88.28(5) 1_465 7_454 ?
W1 W1 O1 87.96(6) 1_465 7_455 ?
W1 W1 O1 129.18(7) 1_465 7_554 ?
W1 W1 O1 146.99(9) 1_465 7_555 ?
W1 W1 O1 112.40(5) 1_465 7_556 ?
W1 W1 O1 70.17(5) 1_465 7_564 ?
W1 W1 O1 64.61(6) 1_465 7_565 ?
W1 W1 O1 77.64(4) 1_465 7_566 ?
W1 W1 O1 142.11(5) 1_465 7_654 ?
W1 W1 O1 149.40(5) 1_465 7_655 ?
W1 W1 O1 100.32(4) 1_465 7_664 ?
W1 W1 O1 101.21(4) 1_465 7_665 ?
W1 W1 O1 86.11(4) 1_465 8_345 ?
W1 W1 O1 47.99(3) 1_465 8_354 ?
W1 W1 O1 114.52(5) 1_465 8_444 ?
W1 W1 O1 125.15(7) 1_465 8_445 ?
W1 W1 O1 109.98(5) 1_465 8_446 ?
W1 W1 O1 65.42(5) 1_465 8_454 ?
W1 W1 O1 71.86(4) 1_465 8_456 ?
W1 W1 O1 142.14(5) 1_465 8_544 ?
W1 W1 O1 171.01(6) 1_465 8_545 ?
W1 W1 O1 100.23(5) 1_465 8_554 ?
W1 W1 O1 104.74(6) 1_465 8_555 ?
W1 W1 O1 98.32(4) 1_465 8_556 ?
W1 W1 W1 90.00(2) 1_545 1_554 ?
W1 W1 W1 90.00(2) 1_545 1_556 ?
W1 W1 W1 180.00(4) 1_545 1_565 ?
W1 W1 W1 90.00(2) 1_545 1_654 ?
W1 W1 W1 90.00(2) 1_545 1_655 ?
W1 W1 W1 90.00(2) 1_545 1_656 ?
W1 W1 W1 140.68(3) 1_545 1_665 ?
W1 W1 W1 82.647(18) 1_545 2_355 ?
W1 W1 W1 82.647(18) 1_545 2_356 ?
W1 W1 W1 74.40(3) 1_545 2_455 ?
W1 W1 W1 74.40(3) 1_545 2_456 ?
W1 W1 W1 144.01(3) 1_545 2_465 ?
W1 W1 W1 144.01(3) 1_545 2_466 ?
W1 W1 W1 74.40(3) 1_545 2_555 ?
W1 W1 W1 74.40(3) 1_545 2_556 ?
W1 W1 W1 144.01(3) 1_545 2_565 ?
W1 W1 W1 144.01(3) 1_545 2_566 ?
W1 W1 W1 82.647(18) 1_545 2_655 ?
W1 W1 W1 82.647(18) 1_545 2_656 ?
W1 W1 W1 54.332(18) 1_545 5_455 ?
W1 W1 W1 54.332(18) 1_545 5_456 ?
W1 W1 W1 109.59(3) 1_545 5_465 ?
W1 W1 W1 109.59(3) 1_545 5_466 ?
W1 W1 W1 126.76(4) 1_545 5_565 ?
W1 W1 W1 126.76(4) 1_545 5_566 ?
W1 W1 W1 54.332(18) 1_545 5_655 ?
W1 W1 W1 54.332(18) 1_545 5_656 ?
W1 W1 W1 109.59(3) 1_545 5_665 ?
W1 W1 W1 109.59(3) 1_545 5_666 ?
W1 W1 W1 67.856(17) 1_545 6_345 ?
W1 W1 W1 112.14(2) 1_545 6_355 ?
W1 W1 W1 62.903(18) 1_545 6_444 ?
W1 W1 W1 62.903(18) 1_545 6_446 ?
W1 W1 W1 117.10(3) 1_545 6_454 ?
W1 W1 W1 140.68(4) 1_545 6_455 ?
W1 W1 W1 117.10(3) 1_545 6_456 ?
W1 W1 W1 62.903(18) 1_545 6_544 ?
W1 W1 W1 62.903(18) 1_545 6_546 ?
W1 W1 W1 117.10(3) 1_545 6_554 ?
W1 W1 W1 140.68(4) 1_545 6_555 ?
W1 W1 W1 117.10(3) 1_545 6_556 ?
W1 W1 W1 67.856(17) 1_545 6_645 ?
W1 W1 W1 112.14(2) 1_545 6_655 ?
W1 W1 Fe1 90.00(2) 1_545 1_454 ?
W1 W1 Fe1 90.00(2) 1_545 1_455 ?
W1 W1 Fe1 90.00(2) 1_545 1_456 ?
W1 W1 Fe1 140.68(3) 1_545 1_465 ?
W1 W1 Fe1 90.00(2) 1_545 1_554 ?
W1 W1 Fe1 90.00(2) 1_545 1_556 ?
W1 W1 Fe1 180.00(4) 1_545 1_565 ?
W1 W1 Fe1 90.00(2) 1_545 1_654 ?
W1 W1 Fe1 90.00(2) 1_545 1_655 ?
W1 W1 Fe1 90.00(2) 1_545 1_656 ?
W1 W1 Fe1 140.68(3) 1_545 1_665 ?
W1 W1 Fe1 82.647(18) 1_545 2_355 ?
W1 W1 Fe1 82.647(18) 1_545 2_356 ?
W1 W1 Fe1 74.40(3) 1_545 2_455 ?
W1 W1 Fe1 74.40(3) 1_545 2_456 ?
W1 W1 Fe1 144.01(3) 1_545 2_465 ?
W1 W1 Fe1 144.01(3) 1_545 2_466 ?
W1 W1 Fe1 74.40(3) 1_545 2_555 ?
W1 W1 Fe1 74.40(3) 1_545 2_556 ?
W1 W1 Fe1 144.01(3) 1_545 2_565 ?
W1 W1 Fe1 144.01(3) 1_545 2_566 ?
W1 W1 Fe1 82.647(18) 1_545 2_655 ?
W1 W1 Fe1 82.647(18) 1_545 2_656 ?
W1 W1 Fe1 54.332(18) 1_545 5_455 ?
W1 W1 Fe1 54.332(18) 1_545 5_456 ?
W1 W1 Fe1 109.59(3) 1_545 5_465 ?
W1 W1 Fe1 109.59(3) 1_545 5_466 ?
W1 W1 Fe1 126.76(4) 1_545 5_565 ?
W1 W1 Fe1 126.76(4) 1_545 5_566 ?
W1 W1 Fe1 54.332(18) 1_545 5_655 ?
W1 W1 Fe1 54.332(18) 1_545 5_656 ?
W1 W1 Fe1 109.59(3) 1_545 5_665 ?
W1 W1 Fe1 109.59(3) 1_545 5_666 ?
W1 W1 Fe1 67.856(17) 1_545 6_345 ?
W1 W1 Fe1 112.14(2) 1_545 6_355 ?
W1 W1 Fe1 62.903(18) 1_545 6_444 ?
W1 W1 Fe1 62.903(18) 1_545 6_446 ?
W1 W1 Fe1 117.10(3) 1_545 6_454 ?
W1 W1 Fe1 140.68(4) 1_545 6_455 ?
W1 W1 Fe1 117.10(3) 1_545 6_456 ?
W1 W1 Fe1 62.903(18) 1_545 6_544 ?
W1 W1 Fe1 62.903(18) 1_545 6_546 ?
W1 W1 Fe1 117.10(3) 1_545 6_554 ?
W1 W1 Fe1 140.68(4) 1_545 6_555 ?
W1 W1 Fe1 117.10(3) 1_545 6_556 ?
W1 W1 Fe1 67.856(17) 1_545 6_645 ?
W1 W1 Fe1 112.14(2) 1_545 6_655 ?
W1 W1 O1 79.75(4) 1_545 1_454 ?
W1 W1 O1 70.67(6) 1_545 1_455 ?
W1 W1 O1 77.21(5) 1_545 1_456 ?
W1 W1 O1 141.86(7) 1_545 1_465 ?
W1 W1 O1 129.48(6) 1_545 1_466 ?
W1 W1 O1 78.46(5) 1_545 1_554 ?
W1 W1 O1 50.88(11) 1_545 1_555 ?
W1 W1 O1 74.39(6) 1_545 1_556 ?
W1 W1 O1 126.55(6) 1_545 1_564 ?
W1 W1 O1 161.29(8) 1_545 1_565 ?
W1 W1 O1 135.41(6) 1_545 1_566 ?
W1 W1 O1 78.38(4) 1_545 1_655 ?
W1 W1 O1 80.40(4) 1_545 1_656 ?
W1 W1 O1 126.73(5) 1_545 1_665 ?
W1 W1 O1 92.59(5) 1_545 2_355 ?
W1 W1 O1 92.33(5) 1_545 2_356 ?
W1 W1 O1 92.26(5) 1_545 2_454 ?
W1 W1 O1 97.68(13) 1_545 2_455 ?
W1 W1 O1 94.38(8) 1_545 2_456 ?
W1 W1 O1 161.45(7) 1_545 2_465 ?
W1 W1 O1 149.39(6) 1_545 2_466 ?
W1 W1 O1 93.89(7) 1_545 2_555 ?
W1 W1 O1 93.14(6) 1_545 2_556 ?
W1 W1 O1 146.35(6) 1_545 2_565 ?
W1 W1 O1 80.40(4) 1_545 3_454 ?
W1 W1 O1 78.38(4) 1_545 3_455 ?
W1 W1 O1 126.73(5) 1_545 3_465 ?
W1 W1 O1 74.39(6) 1_545 3_554 ?
W1 W1 O1 50.88(11) 1_545 3_555 ?
W1 W1 O1 78.46(5) 1_545 3_556 ?
W1 W1 O1 135.41(6) 1_545 3_564 ?
W1 W1 O1 161.29(8) 1_545 3_565 ?
W1 W1 O1 126.55(6) 1_545 3_566 ?
W1 W1 O1 77.21(5) 1_545 3_654 ?
W1 W1 O1 70.67(6) 1_545 3_655 ?
W1 W1 O1 79.75(4) 1_545 3_656 ?
W1 W1 O1 129.48(6) 1_545 3_664 ?
W1 W1 O1 141.86(7) 1_545 3_665 ?
W1 W1 O1 93.14(6) 1_545 4_454 ?
W1 W1 O1 93.89(7) 1_545 4_455 ?
W1 W1 O1 146.35(6) 1_545 4_465 ?
W1 W1 O1 94.38(8) 1_545 4_554 ?
W1 W1 O1 97.68(13) 1_545 4_555 ?
W1 W1 O1 92.26(5) 1_545 4_556 ?
W1 W1 O1 149.39(6) 1_545 4_564 ?
W1 W1 O1 161.45(7) 1_545 4_565 ?
W1 W1 O1 92.33(5) 1_545 4_654 ?
W1 W1 O1 92.59(5) 1_545 4_655 ?
W1 W1 O1 67.30(4) 1_545 5_455 ?
W1 W1 O1 69.28(4) 1_545 5_456 ?
W1 W1 O1 116.84(5) 1_545 5_465 ?
W1 W1 O1 114.59(5) 1_545 5_466 ?
W1 W1 O1 69.41(4) 1_545 5_554 ?
W1 W1 O1 54.33(5) 1_545 5_556 ?
W1 W1 O1 114.44(5) 1_545 5_564 ?
W1 W1 O1 145.93(9) 1_545 5_565 ?
W1 W1 O1 130.96(7) 1_545 5_566 ?
W1 W1 O1 55.86(5) 1_545 5_655 ?
W1 W1 O1 61.69(4) 1_545 5_656 ?
W1 W1 O1 129.36(7) 1_545 5_665 ?
W1 W1 O1 123.08(6) 1_545 5_666 ?
W1 W1 O1 53.64(4) 1_545 6_446 ?
W1 W1 O1 103.20(5) 1_545 6_454 ?
W1 W1 O1 113.68(7) 1_545 6_455 ?
W1 W1 O1 106.28(6) 1_545 6_456 ?
W1 W1 O1 55.74(4) 1_545 6_544 ?
W1 W1 O1 46.86(4) 1_545 6_546 ?
W1 W1 O1 105.12(6) 1_545 6_554 ?
W1 W1 O1 139.94(13) 1_545 6_555 ?
W1 W1 O1 110.39(7) 1_545 6_556 ?
W1 W1 O1 169.46(6) 1_545 6_565 ?
W1 W1 O1 54.88(3) 1_545 6_645 ?
W1 W1 O1 105.59(5) 1_545 6_655 ?
W1 W1 O1 102.80(5) 1_545 6_656 ?
W1 W1 O1 61.69(4) 1_545 7_454 ?
W1 W1 O1 55.86(5) 1_545 7_455 ?
W1 W1 O1 123.08(6) 1_545 7_464 ?
W1 W1 O1 129.36(7) 1_545 7_465 ?
W1 W1 O1 54.33(5) 1_545 7_554 ?
W1 W1 O1 69.41(4) 1_545 7_556 ?
W1 W1 O1 130.96(7) 1_545 7_564 ?
W1 W1 O1 145.93(9) 1_545 7_565 ?
W1 W1 O1 114.44(5) 1_545 7_566 ?
W1 W1 O1 69.28(4) 1_545 7_654 ?
W1 W1 O1 67.30(4) 1_545 7_655 ?
W1 W1 O1 114.59(5) 1_545 7_664 ?
W1 W1 O1 116.84(5) 1_545 7_665 ?
W1 W1 O1 54.88(3) 1_545 8_345 ?
W1 W1 O1 102.80(5) 1_545 8_354 ?
W1 W1 O1 105.59(5) 1_545 8_355 ?
W1 W1 O1 46.86(4) 1_545 8_444 ?
W1 W1 O1 55.74(4) 1_545 8_446 ?
W1 W1 O1 110.39(7) 1_545 8_454 ?
W1 W1 O1 139.94(13) 1_545 8_455 ?
W1 W1 O1 105.12(6) 1_545 8_456 ?
W1 W1 O1 169.46(6) 1_545 8_465 ?
W1 W1 O1 53.64(4) 1_545 8_544 ?
W1 W1 O1 106.28(6) 1_545 8_554 ?
W1 W1 O1 113.68(7) 1_545 8_555 ?
W1 W1 O1 103.20(5) 1_545 8_556 ?
W1 W1 W1 180.000(2) 1_554 1_556 ?
W1 W1 W1 90.00(2) 1_554 1_565 ?
W1 W1 W1 90.000(16) 1_554 1_645 ?
W1 W1 W1 90.0000(12) 1_554 1_655 ?
W1 W1 W1 137.2884(19) 1_554 1_656 ?
W1 W1 W1 90.000(16) 1_554 1_665 ?
W1 W1 W1 70.316(3) 1_554 2_355 ?
W1 W1 W1 109.684(3) 1_554 2_356 ?
W1 W1 W1 70.289(19) 1_554 2_445 ?
W1 W1 W1 109.711(19) 1_554 2_446 ?
W1 W1 W1 135.049(8) 1_554 2_456 ?
W1 W1 W1 64.421(19) 1_554 2_465 ?
W1 W1 W1 115.579(19) 1_554 2_466 ?
W1 W1 W1 70.289(19) 1_554 2_545 ?
W1 W1 W1 109.711(19) 1_554 2_546 ?
W1 W1 W1 135.049(8) 1_554 2_556 ?
W1 W1 W1 64.421(19) 1_554 2_565 ?
W1 W1 W1 115.579(19) 1_554 2_566 ?
W1 W1 W1 70.316(3) 1_554 2_655 ?
W1 W1 W1 109.684(3) 1_554 2_656 ?
W1 W1 W1 67.237(13) 1_554 5_455 ?
W1 W1 W1 112.763(13) 1_554 5_456 ?
W1 W1 W1 63.340(8) 1_554 5_465 ?
W1 W1 W1 116.660(8) 1_554 5_466 ?
W1 W1 W1 56.43(2) 1_554 5_555 ?
W1 W1 W1 123.57(2) 1_554 5_556 ?
W1 W1 W1 143.237(20) 1_554 5_566 ?
W1 W1 W1 67.237(13) 1_554 5_655 ?
W1 W1 W1 112.763(13) 1_554 5_656 ?
W1 W1 W1 63.340(8) 1_554 5_665 ?
W1 W1 W1 116.660(8) 1_554 5_666 ?
W1 W1 W1 90.000(8) 1_554 6_345 ?
W1 W1 W1 90.000(8) 1_554 6_355 ?
W1 W1 W1 90.00(2) 1_554 6_445 ?
W1 W1 W1 143.929(10) 1_554 6_446 ?
W1 W1 W1 90.00(2) 1_554 6_455 ?
W1 W1 W1 143.929(10) 1_554 6_456 ?
W1 W1 W1 90.00(2) 1_554 6_545 ?
W1 W1 W1 143.929(10) 1_554 6_546 ?
W1 W1 W1 90.00(2) 1_554 6_555 ?
W1 W1 W1 143.929(10) 1_554 6_556 ?
W1 W1 W1 90.000(8) 1_554 6_645 ?
W1 W1 W1 90.000(8) 1_554 6_655 ?
W1 W1 Fe1 90.000(16) 1_554 1_445 ?
W1 W1 Fe1 90.0000(12) 1_554 1_455 ?
W1 W1 Fe1 137.2884(19) 1_554 1_456 ?
W1 W1 Fe1 90.000(16) 1_554 1_465 ?
W1 W1 Fe1 90.00(2) 1_554 1_545 ?
W1 W1 Fe1 180.000(2) 1_554 1_556 ?
W1 W1 Fe1 90.00(2) 1_554 1_565 ?
W1 W1 Fe1 90.000(16) 1_554 1_645 ?
W1 W1 Fe1 90.0000(12) 1_554 1_655 ?
W1 W1 Fe1 137.2884(19) 1_554 1_656 ?
W1 W1 Fe1 90.000(16) 1_554 1_665 ?
W1 W1 Fe1 70.316(3) 1_554 2_355 ?
W1 W1 Fe1 109.684(3) 1_554 2_356 ?
W1 W1 Fe1 70.289(19) 1_554 2_445 ?
W1 W1 Fe1 109.711(19) 1_554 2_446 ?
W1 W1 Fe1 135.049(8) 1_554 2_456 ?
W1 W1 Fe1 64.421(19) 1_554 2_465 ?
W1 W1 Fe1 115.579(19) 1_554 2_466 ?
W1 W1 Fe1 70.289(19) 1_554 2_545 ?
W1 W1 Fe1 109.711(19) 1_554 2_546 ?
W1 W1 Fe1 135.049(8) 1_554 2_556 ?
W1 W1 Fe1 64.421(19) 1_554 2_565 ?
W1 W1 Fe1 115.579(19) 1_554 2_566 ?
W1 W1 Fe1 70.316(3) 1_554 2_655 ?
W1 W1 Fe1 109.684(3) 1_554 2_656 ?
W1 W1 Fe1 67.237(13) 1_554 5_455 ?
W1 W1 Fe1 112.763(13) 1_554 5_456 ?
W1 W1 Fe1 63.340(8) 1_554 5_465 ?
W1 W1 Fe1 116.660(8) 1_554 5_466 ?
W1 W1 Fe1 56.43(2) 1_554 5_555 ?
W1 W1 Fe1 123.57(2) 1_554 5_556 ?
W1 W1 Fe1 143.237(20) 1_554 5_566 ?
W1 W1 Fe1 67.237(13) 1_554 5_655 ?
W1 W1 Fe1 112.763(13) 1_554 5_656 ?
W1 W1 Fe1 63.340(8) 1_554 5_665 ?
W1 W1 Fe1 116.660(8) 1_554 5_666 ?
W1 W1 Fe1 90.000(8) 1_554 6_345 ?
W1 W1 Fe1 90.000(8) 1_554 6_355 ?
W1 W1 Fe1 90.00(2) 1_554 6_445 ?
W1 W1 Fe1 143.929(10) 1_554 6_446 ?
W1 W1 Fe1 90.00(2) 1_554 6_455 ?
W1 W1 Fe1 143.929(10) 1_554 6_456 ?
W1 W1 Fe1 90.00(2) 1_554 6_545 ?
W1 W1 Fe1 143.929(10) 1_554 6_546 ?
W1 W1 Fe1 90.00(2) 1_554 6_555 ?
W1 W1 Fe1 143.929(10) 1_554 6_556 ?
W1 W1 Fe1 90.000(8) 1_554 6_645 ?
W1 W1 Fe1 90.000(8) 1_554 6_655 ?
W1 W1 O1 76.99(6) 1_554 1_455 ?
W1 W1 O1 139.35(7) 1_554 1_456 ?
W1 W1 O1 81.53(5) 1_554 1_465 ?
W1 W1 O1 126.91(6) 1_554 1_466 ?
W1 W1 O1 83.22(5) 1_554 1_545 ?
W1 W1 O1 64.59(11) 1_554 1_555 ?
W1 W1 O1 157.34(8) 1_554 1_556 ?
W1 W1 O1 79.78(6) 1_554 1_565 ?
W1 W1 O1 132.27(6) 1_554 1_566 ?
W1 W1 O1 82.13(4) 1_554 1_655 ?
W1 W1 O1 124.87(5) 1_554 1_656 ?
W1 W1 O1 83.57(4) 1_554 1_665 ?
W1 W1 O1 73.60(4) 1_554 2_355 ?
W1 W1 O1 120.35(5) 1_554 2_356 ?
W1 W1 O1 73.00(5) 1_554 2_445 ?
W1 W1 O1 121.30(6) 1_554 2_446 ?
W1 W1 O1 161.80(10) 1_554 2_456 ?
W1 W1 O1 74.42(5) 1_554 2_465 ?
W1 W1 O1 119.02(6) 1_554 2_466 ?
W1 W1 O1 75.44(4) 1_554 2_545 ?
W1 W1 O1 117.33(5) 1_554 2_546 ?
W1 W1 O1 64.86(5) 1_554 2_555 ?
W1 W1 O1 133.03(7) 1_554 2_556 ?
W1 W1 O1 76.36(4) 1_554 2_565 ?
W1 W1 O1 55.13(3) 1_554 3_454 ?
W1 W1 O1 97.87(5) 1_554 3_455 ?
W1 W1 O1 96.43(4) 1_554 3_465 ?
W1 W1 O1 96.78(5) 1_554 3_545 ?
W1 W1 O1 115.41(13) 1_554 3_555 ?
W1 W1 O1 163.35(7) 1_554 3_556 ?
W1 W1 O1 47.73(4) 1_554 3_564 ?
W1 W1 O1 100.22(7) 1_554 3_565 ?
W1 W1 O1 141.77(6) 1_554 3_566 ?
W1 W1 O1 103.01(7) 1_554 3_655 ?
W1 W1 O1 148.42(6) 1_554 3_656 ?
W1 W1 O1 53.09(3) 1_554 3_664 ?
W1 W1 O1 98.47(6) 1_554 3_665 ?
W1 W1 O1 62.67(4) 1_554 4_444 ?
W1 W1 O1 104.56(5) 1_554 4_445 ?
W1 W1 O1 46.97(4) 1_554 4_454 ?
W1 W1 O1 115.14(7) 1_554 4_455 ?
W1 W1 O1 103.64(5) 1_554 4_465 ?
W1 W1 O1 58.70(4) 1_554 4_544 ?
W1 W1 O1 107.00(6) 1_554 4_545 ?
W1 W1 O1 146.80(14) 1_554 4_555 ?
W1 W1 O1 170.69(6) 1_554 4_556 ?
W1 W1 O1 60.98(4) 1_554 4_564 ?
W1 W1 O1 105.58(6) 1_554 4_565 ?
W1 W1 O1 59.65(3) 1_554 4_654 ?
W1 W1 O1 106.40(5) 1_554 4_655 ?
W1 W1 O1 75.34(4) 1_554 5_455 ?
W1 W1 O1 117.50(5) 1_554 5_456 ?
W1 W1 O1 75.83(4) 1_554 5_465 ?
W1 W1 O1 116.67(5) 1_554 5_466 ?
W1 W1 O1 59.50(7) 1_554 5_555 ?
W1 W1 O1 139.53(8) 1_554 5_556 ?
W1 W1 O1 63.31(6) 1_554 5_565 ?
W1 W1 O1 135.00(7) 1_554 5_566 ?
W1 W1 O1 68.41(5) 1_554 5_655 ?
W1 W1 O1 128.22(7) 1_554 5_656 ?
W1 W1 O1 69.89(5) 1_554 5_665 ?
W1 W1 O1 126.07(6) 1_554 5_666 ?
W1 W1 O1 81.25(5) 1_554 6_445 ?
W1 W1 O1 127.81(6) 1_554 6_446 ?
W1 W1 O1 78.02(6) 1_554 6_455 ?
W1 W1 O1 136.95(6) 1_554 6_456 ?
W1 W1 O1 78.78(6) 1_554 6_545 ?
W1 W1 O1 135.00(7) 1_554 6_546 ?
W1 W1 O1 66.69(11) 1_554 6_555 ?
W1 W1 O1 155.29(8) 1_554 6_556 ?
W1 W1 O1 83.54(5) 1_554 6_565 ?
W1 W1 O1 83.22(4) 1_554 6_645 ?
W1 W1 O1 82.01(4) 1_554 6_655 ?
W1 W1 O1 125.28(5) 1_554 6_656 ?
W1 W1 O1 51.78(4) 1_554 7_454 ?
W1 W1 O1 111.59(7) 1_554 7_455 ?
W1 W1 O1 53.93(4) 1_554 7_464 ?
W1 W1 O1 110.11(6) 1_554 7_465 ?
W1 W1 O1 120.50(9) 1_554 7_555 ?
W1 W1 O1 156.95(6) 1_554 7_556 ?
W1 W1 O1 116.69(8) 1_554 7_565 ?
W1 W1 O1 153.50(6) 1_554 7_566 ?
W1 W1 O1 62.50(3) 1_554 7_654 ?
W1 W1 O1 104.66(5) 1_554 7_655 ?
W1 W1 O1 63.33(3) 1_554 7_664 ?
W1 W1 O1 104.17(5) 1_554 7_665 ?
W1 W1 O1 96.78(5) 1_554 8_345 ?
W1 W1 O1 54.72(3) 1_554 8_354 ?
W1 W1 O1 97.99(5) 1_554 8_355 ?
W1 W1 O1 101.22(7) 1_554 8_445 ?
W1 W1 O1 144.40(6) 1_554 8_446 ?
W1 W1 O1 113.31(13) 1_554 8_455 ?
W1 W1 O1 161.76(7) 1_554 8_456 ?
W1 W1 O1 96.46(5) 1_554 8_465 ?
W1 W1 O1 52.19(3) 1_554 8_544 ?
W1 W1 O1 98.75(6) 1_554 8_545 ?
W1 W1 O1 101.98(7) 1_554 8_555 ?
W1 W1 O1 146.22(6) 1_554 8_556 ?
W1 W1 W1 90.00(2) 1_556 1_565 ?
W1 W1 W1 90.000(16) 1_556 1_645 ?
W1 W1 W1 137.2884(19) 1_556 1_654 ?
W1 W1 W1 90.0000(12) 1_556 1_655 ?
W1 W1 W1 90.000(16) 1_556 1_665 ?
W1 W1 W1 109.684(3) 1_556 2_355 ?
W1 W1 W1 70.316(3) 1_556 2_356 ?
W1 W1 W1 109.711(19) 1_556 2_445 ?
W1 W1 W1 70.289(19) 1_556 2_446 ?
W1 W1 W1 135.049(8) 1_556 2_455 ?
W1 W1 W1 115.579(19) 1_556 2_465 ?
W1 W1 W1 64.421(19) 1_556 2_466 ?
W1 W1 W1 109.711(19) 1_556 2_545 ?
W1 W1 W1 70.289(19) 1_556 2_546 ?
W1 W1 W1 135.049(8) 1_556 2_555 ?
W1 W1 W1 115.579(19) 1_556 2_565 ?
W1 W1 W1 64.421(19) 1_556 2_566 ?
W1 W1 W1 109.684(3) 1_556 2_655 ?
W1 W1 W1 70.316(3) 1_556 2_656 ?
W1 W1 W1 112.763(13) 1_556 5_455 ?
W1 W1 W1 67.237(13) 1_556 5_456 ?
W1 W1 W1 116.660(8) 1_556 5_465 ?
W1 W1 W1 63.340(8) 1_556 5_466 ?
W1 W1 W1 123.57(2) 1_556 5_555 ?
W1 W1 W1 56.43(2) 1_556 5_556 ?
W1 W1 W1 143.237(20) 1_556 5_565 ?
W1 W1 W1 112.763(13) 1_556 5_655 ?
W1 W1 W1 67.237(13) 1_556 5_656 ?
W1 W1 W1 116.660(8) 1_556 5_665 ?
W1 W1 W1 63.340(8) 1_556 5_666 ?
W1 W1 W1 90.000(8) 1_556 6_345 ?
W1 W1 W1 90.000(8) 1_556 6_355 ?
W1 W1 W1 143.929(10) 1_556 6_444 ?
W1 W1 W1 90.00(2) 1_556 6_445 ?
W1 W1 W1 143.929(10) 1_556 6_454 ?
W1 W1 W1 90.00(2) 1_556 6_455 ?
W1 W1 W1 143.929(10) 1_556 6_544 ?
W1 W1 W1 90.00(2) 1_556 6_545 ?
W1 W1 W1 143.929(10) 1_556 6_554 ?
W1 W1 W1 90.00(2) 1_556 6_555 ?
W1 W1 W1 90.000(8) 1_556 6_645 ?
W1 W1 W1 90.000(8) 1_556 6_655 ?
W1 W1 Fe1 90.000(16) 1_556 1_445 ?
W1 W1 Fe1 137.2884(19) 1_556 1_454 ?
W1 W1 Fe1 90.0000(12) 1_556 1_455 ?
W1 W1 Fe1 90.000(16) 1_556 1_465 ?
W1 W1 Fe1 90.00(2) 1_556 1_545 ?
W1 W1 Fe1 180.000(2) 1_556 1_554 ?
W1 W1 Fe1 90.00(2) 1_556 1_565 ?
W1 W1 Fe1 90.000(16) 1_556 1_645 ?
W1 W1 Fe1 137.2884(19) 1_556 1_654 ?
W1 W1 Fe1 90.0000(12) 1_556 1_655 ?
W1 W1 Fe1 90.000(16) 1_556 1_665 ?
W1 W1 Fe1 109.684(3) 1_556 2_355 ?
W1 W1 Fe1 70.316(3) 1_556 2_356 ?
W1 W1 Fe1 109.711(19) 1_556 2_445 ?
W1 W1 Fe1 70.289(19) 1_556 2_446 ?
W1 W1 Fe1 135.049(8) 1_556 2_455 ?
W1 W1 Fe1 115.579(19) 1_556 2_465 ?
W1 W1 Fe1 64.421(19) 1_556 2_466 ?
W1 W1 Fe1 109.711(19) 1_556 2_545 ?
W1 W1 Fe1 70.289(19) 1_556 2_546 ?
W1 W1 Fe1 135.049(8) 1_556 2_555 ?
W1 W1 Fe1 115.579(19) 1_556 2_565 ?
W1 W1 Fe1 64.421(19) 1_556 2_566 ?
W1 W1 Fe1 109.684(3) 1_556 2_655 ?
W1 W1 Fe1 70.316(3) 1_556 2_656 ?
W1 W1 Fe1 112.763(13) 1_556 5_455 ?
W1 W1 Fe1 67.237(13) 1_556 5_456 ?
W1 W1 Fe1 116.660(8) 1_556 5_465 ?
W1 W1 Fe1 63.340(8) 1_556 5_466 ?
W1 W1 Fe1 123.57(2) 1_556 5_555 ?
W1 W1 Fe1 56.43(2) 1_556 5_556 ?
W1 W1 Fe1 143.237(20) 1_556 5_565 ?
W1 W1 Fe1 112.763(13) 1_556 5_655 ?
W1 W1 Fe1 67.237(13) 1_556 5_656 ?
W1 W1 Fe1 116.660(8) 1_556 5_665 ?
W1 W1 Fe1 63.340(8) 1_556 5_666 ?
W1 W1 Fe1 90.000(8) 1_556 6_345 ?
W1 W1 Fe1 90.000(8) 1_556 6_355 ?
W1 W1 Fe1 143.929(10) 1_556 6_444 ?
W1 W1 Fe1 90.00(2) 1_556 6_445 ?
W1 W1 Fe1 143.929(10) 1_556 6_454 ?
W1 W1 Fe1 90.00(2) 1_556 6_455 ?
W1 W1 Fe1 143.929(10) 1_556 6_544 ?
W1 W1 Fe1 90.00(2) 1_556 6_545 ?
W1 W1 Fe1 143.929(10) 1_556 6_554 ?
W1 W1 Fe1 90.00(2) 1_556 6_555 ?
W1 W1 Fe1 90.000(8) 1_556 6_645 ?
W1 W1 Fe1 90.000(8) 1_556 6_655 ?
W1 W1 O1 148.42(6) 1_556 1_454 ?
W1 W1 O1 103.01(7) 1_556 1_455 ?
W1 W1 O1 98.47(6) 1_556 1_465 ?
W1 W1 O1 53.09(3) 1_556 1_466 ?
W1 W1 O1 96.78(5) 1_556 1_545 ?
W1 W1 O1 163.35(7) 1_556 1_554 ?
W1 W1 O1 115.41(13) 1_556 1_555 ?
W1 W1 O1 141.77(6) 1_556 1_564 ?
W1 W1 O1 100.22(7) 1_556 1_565 ?
W1 W1 O1 47.73(4) 1_556 1_566 ?
W1 W1 O1 97.87(5) 1_556 1_655 ?
W1 W1 O1 55.13(3) 1_556 1_656 ?
W1 W1 O1 96.43(4) 1_556 1_665 ?
W1 W1 O1 106.40(5) 1_556 2_355 ?
W1 W1 O1 59.65(3) 1_556 2_356 ?
W1 W1 O1 107.00(6) 1_556 2_445 ?
W1 W1 O1 58.70(4) 1_556 2_446 ?
W1 W1 O1 170.69(6) 1_556 2_454 ?
W1 W1 O1 146.80(14) 1_556 2_455 ?
W1 W1 O1 105.58(6) 1_556 2_465 ?
W1 W1 O1 60.98(4) 1_556 2_466 ?
W1 W1 O1 104.56(5) 1_556 2_545 ?
W1 W1 O1 62.67(4) 1_556 2_546 ?
W1 W1 O1 115.14(7) 1_556 2_555 ?
W1 W1 O1 46.97(4) 1_556 2_556 ?
W1 W1 O1 103.64(5) 1_556 2_565 ?
W1 W1 O1 124.87(5) 1_556 3_454 ?
W1 W1 O1 82.13(4) 1_556 3_455 ?
W1 W1 O1 83.57(4) 1_556 3_465 ?
W1 W1 O1 83.22(5) 1_556 3_545 ?
W1 W1 O1 157.34(8) 1_556 3_554 ?
W1 W1 O1 64.59(11) 1_556 3_555 ?
W1 W1 O1 132.27(6) 1_556 3_564 ?
W1 W1 O1 79.78(6) 1_556 3_565 ?
W1 W1 O1 139.35(7) 1_556 3_654 ?
W1 W1 O1 76.99(6) 1_556 3_655 ?
W1 W1 O1 126.91(6) 1_556 3_664 ?
W1 W1 O1 81.53(5) 1_556 3_665 ?
W1 W1 O1 117.33(5) 1_556 4_444 ?
W1 W1 O1 75.44(4) 1_556 4_445 ?
W1 W1 O1 133.03(7) 1_556 4_454 ?
W1 W1 O1 64.86(5) 1_556 4_455 ?
W1 W1 O1 76.36(4) 1_556 4_465 ?
W1 W1 O1 121.30(6) 1_556 4_544 ?
W1 W1 O1 73.00(5) 1_556 4_545 ?
W1 W1 O1 161.80(10) 1_556 4_554 ?
W1 W1 O1 119.02(6) 1_556 4_564 ?
W1 W1 O1 74.42(5) 1_556 4_565 ?
W1 W1 O1 120.35(5) 1_556 4_654 ?
W1 W1 O1 73.60(4) 1_556 4_655 ?
W1 W1 O1 104.66(5) 1_556 5_455 ?
W1 W1 O1 62.50(3) 1_556 5_456 ?
W1 W1 O1 104.17(5) 1_556 5_465 ?
W1 W1 O1 63.33(3) 1_556 5_466 ?
W1 W1 O1 156.95(6) 1_556 5_554 ?
W1 W1 O1 120.50(9) 1_556 5_555 ?
W1 W1 O1 153.50(6) 1_556 5_564 ?
W1 W1 O1 116.69(8) 1_556 5_565 ?
W1 W1 O1 111.59(7) 1_556 5_655 ?
W1 W1 O1 51.78(4) 1_556 5_656 ?
W1 W1 O1 110.11(6) 1_556 5_665 ?
W1 W1 O1 53.93(4) 1_556 5_666 ?
W1 W1 O1 98.75(6) 1_556 6_445 ?
W1 W1 O1 52.19(3) 1_556 6_446 ?
W1 W1 O1 146.22(6) 1_556 6_454 ?
W1 W1 O1 101.98(7) 1_556 6_455 ?
W1 W1 O1 144.40(6) 1_556 6_544 ?
W1 W1 O1 101.22(7) 1_556 6_545 ?
W1 W1 O1 161.76(7) 1_556 6_554 ?
W1 W1 O1 113.31(13) 1_556 6_555 ?
W1 W1 O1 96.46(5) 1_556 6_565 ?
W1 W1 O1 96.78(5) 1_556 6_645 ?
W1 W1 O1 97.99(5) 1_556 6_655 ?
W1 W1 O1 54.72(3) 1_556 6_656 ?
W1 W1 O1 128.22(7) 1_556 7_454 ?
W1 W1 O1 68.41(5) 1_556 7_455 ?
W1 W1 O1 126.07(6) 1_556 7_464 ?
W1 W1 O1 69.89(5) 1_556 7_465 ?
W1 W1 O1 139.53(8) 1_556 7_554 ?
W1 W1 O1 59.50(7) 1_556 7_555 ?
W1 W1 O1 135.00(7) 1_556 7_564 ?
W1 W1 O1 63.31(6) 1_556 7_565 ?
W1 W1 O1 117.50(5) 1_556 7_654 ?
W1 W1 O1 75.34(4) 1_556 7_655 ?
W1 W1 O1 116.67(5) 1_556 7_664 ?
W1 W1 O1 75.83(4) 1_556 7_665 ?
W1 W1 O1 83.22(4) 1_556 8_345 ?
W1 W1 O1 125.28(5) 1_556 8_354 ?
W1 W1 O1 82.01(4) 1_556 8_355 ?
W1 W1 O1 135.00(7) 1_556 8_444 ?
W1 W1 O1 78.78(6) 1_556 8_445 ?
W1 W1 O1 155.29(8) 1_556 8_454 ?
W1 W1 O1 66.69(11) 1_556 8_455 ?
W1 W1 O1 83.54(5) 1_556 8_465 ?
W1 W1 O1 127.81(6) 1_556 8_544 ?
W1 W1 O1 81.25(5) 1_556 8_545 ?
W1 W1 O1 136.95(6) 1_556 8_554 ?
W1 W1 O1 78.02(6) 1_556 8_555 ?
W1 W1 W1 140.68(3) 1_565 1_645 ?
W1 W1 W1 90.00(2) 1_565 1_654 ?
W1 W1 W1 90.00(2) 1_565 1_655 ?
W1 W1 W1 90.00(2) 1_565 1_656 ?
W1 W1 W1 97.35(2) 1_565 2_355 ?
W1 W1 W1 97.35(2) 1_565 2_356 ?
W1 W1 W1 152.68(3) 1_565 2_445 ?
W1 W1 W1 152.68(3) 1_565 2_446 ?
W1 W1 W1 105.60(3) 1_565 2_455 ?
W1 W1 W1 105.60(3) 1_565 2_456 ?
W1 W1 W1 152.68(3) 1_565 2_545 ?
W1 W1 W1 152.68(3) 1_565 2_546 ?
W1 W1 W1 105.60(3) 1_565 2_555 ?
W1 W1 W1 105.60(3) 1_565 2_556 ?
W1 W1 W1 97.35(2) 1_565 2_655 ?
W1 W1 W1 97.35(2) 1_565 2_656 ?
W1 W1 W1 125.67(3) 1_565 5_455 ?
W1 W1 W1 125.67(3) 1_565 5_456 ?
W1 W1 W1 70.414(19) 1_565 5_465 ?
W1 W1 W1 70.414(19) 1_565 5_466 ?
W1 W1 W1 146.43(4) 1_565 5_555 ?
W1 W1 W1 146.43(4) 1_565 5_556 ?
W1 W1 W1 53.24(3) 1_565 5_565 ?
W1 W1 W1 53.24(3) 1_565 5_566 ?
W1 W1 W1 125.67(3) 1_565 5_655 ?
W1 W1 W1 125.67(3) 1_565 5_656 ?
W1 W1 W1 70.414(19) 1_565 5_665 ?
W1 W1 W1 70.414(19) 1_565 5_666 ?
W1 W1 W1 112.14(2) 1_565 6_345 ?
W1 W1 W1 67.856(17) 1_565 6_355 ?
W1 W1 W1 117.10(3) 1_565 6_444 ?
W1 W1 W1 140.68(4) 1_565 6_445 ?
W1 W1 W1 117.10(3) 1_565 6_446 ?
W1 W1 W1 62.903(18) 1_565 6_454 ?
W1 W1 W1 62.903(18) 1_565 6_456 ?
W1 W1 W1 117.10(3) 1_565 6_544 ?
W1 W1 W1 140.68(4) 1_565 6_545 ?
W1 W1 W1 117.10(3) 1_565 6_546 ?
W1 W1 W1 62.903(18) 1_565 6_554 ?
W1 W1 W1 62.903(18) 1_565 6_556 ?
W1 W1 W1 112.14(2) 1_565 6_645 ?
W1 W1 W1 67.856(17) 1_565 6_655 ?
W1 W1 Fe1 140.68(3) 1_565 1_445 ?
W1 W1 Fe1 90.00(2) 1_565 1_454 ?
W1 W1 Fe1 90.00(2) 1_565 1_455 ?
W1 W1 Fe1 90.00(2) 1_565 1_456 ?
W1 W1 Fe1 180.00(4) 1_565 1_545 ?
W1 W1 Fe1 90.00(2) 1_565 1_554 ?
W1 W1 Fe1 90.00(2) 1_565 1_556 ?
W1 W1 Fe1 140.68(3) 1_565 1_645 ?
W1 W1 Fe1 90.00(2) 1_565 1_654 ?
W1 W1 Fe1 90.00(2) 1_565 1_655 ?
W1 W1 Fe1 90.00(2) 1_565 1_656 ?
W1 W1 Fe1 97.35(2) 1_565 2_355 ?
W1 W1 Fe1 97.35(2) 1_565 2_356 ?
W1 W1 Fe1 152.68(3) 1_565 2_445 ?
W1 W1 Fe1 152.68(3) 1_565 2_446 ?
W1 W1 Fe1 105.60(3) 1_565 2_455 ?
W1 W1 Fe1 105.60(3) 1_565 2_456 ?
W1 W1 Fe1 152.68(3) 1_565 2_545 ?
W1 W1 Fe1 152.68(3) 1_565 2_546 ?
W1 W1 Fe1 105.60(3) 1_565 2_555 ?
W1 W1 Fe1 105.60(3) 1_565 2_556 ?
W1 W1 Fe1 97.35(2) 1_565 2_655 ?
W1 W1 Fe1 97.35(2) 1_565 2_656 ?
W1 W1 Fe1 125.67(3) 1_565 5_455 ?
W1 W1 Fe1 125.67(3) 1_565 5_456 ?
W1 W1 Fe1 70.414(19) 1_565 5_465 ?
W1 W1 Fe1 70.414(19) 1_565 5_466 ?
W1 W1 Fe1 146.43(4) 1_565 5_555 ?
W1 W1 Fe1 146.43(4) 1_565 5_556 ?
W1 W1 Fe1 53.24(3) 1_565 5_565 ?
W1 W1 Fe1 53.24(3) 1_565 5_566 ?
W1 W1 Fe1 125.67(3) 1_565 5_655 ?
W1 W1 Fe1 125.67(3) 1_565 5_656 ?
W1 W1 Fe1 70.414(19) 1_565 5_665 ?
W1 W1 Fe1 70.414(19) 1_565 5_666 ?
W1 W1 Fe1 112.14(2) 1_565 6_345 ?
W1 W1 Fe1 67.856(17) 1_565 6_355 ?
W1 W1 Fe1 117.10(3) 1_565 6_444 ?
W1 W1 Fe1 140.68(4) 1_565 6_445 ?
W1 W1 Fe1 117.10(3) 1_565 6_446 ?
W1 W1 Fe1 62.903(18) 1_565 6_454 ?
W1 W1 Fe1 62.903(18) 1_565 6_456 ?
W1 W1 Fe1 117.10(3) 1_565 6_544 ?
W1 W1 Fe1 140.68(4) 1_565 6_545 ?
W1 W1 Fe1 117.10(3) 1_565 6_546 ?
W1 W1 Fe1 62.903(18) 1_565 6_554 ?
W1 W1 Fe1 62.903(18) 1_565 6_556 ?
W1 W1 Fe1 112.14(2) 1_565 6_645 ?
W1 W1 Fe1 67.856(17) 1_565 6_655 ?
W1 W1 O1 100.25(5) 1_565 1_454 ?
W1 W1 O1 109.33(7) 1_565 1_455 ?
W1 W1 O1 102.79(6) 1_565 1_456 ?
W1 W1 O1 50.52(4) 1_565 1_466 ?
W1 W1 O1 167.68(6) 1_565 1_545 ?
W1 W1 O1 101.54(6) 1_565 1_554 ?
W1 W1 O1 129.12(14) 1_565 1_555 ?
W1 W1 O1 105.61(7) 1_565 1_556 ?
W1 W1 O1 53.45(4) 1_565 1_564 ?
W1 W1 O1 101.62(5) 1_565 1_655 ?
W1 W1 O1 99.60(5) 1_565 1_656 ?
W1 W1 O1 53.27(3) 1_565 1_665 ?
W1 W1 O1 87.41(5) 1_565 2_355 ?
W1 W1 O1 87.67(4) 1_565 2_356 ?
W1 W1 O1 159.75(7) 1_565 2_445 ?
W1 W1 O1 146.95(6) 1_565 2_446 ?
W1 W1 O1 87.74(5) 1_565 2_454 ?
W1 W1 O1 82.32(12) 1_565 2_455 ?
W1 W1 O1 85.62(8) 1_565 2_456 ?
W1 W1 O1 143.80(6) 1_565 2_545 ?
W1 W1 O1 137.79(6) 1_565 2_546 ?
W1 W1 O1 86.11(6) 1_565 2_555 ?
W1 W1 O1 86.86(6) 1_565 2_556 ?
W1 W1 O1 99.60(5) 1_565 3_454 ?
W1 W1 O1 101.62(5) 1_565 3_455 ?
W1 W1 O1 53.27(3) 1_565 3_465 ?
W1 W1 O1 167.68(6) 1_565 3_545 ?
W1 W1 O1 105.61(7) 1_565 3_554 ?
W1 W1 O1 129.12(14) 1_565 3_555 ?
W1 W1 O1 101.54(6) 1_565 3_556 ?
W1 W1 O1 53.45(4) 1_565 3_566 ?
W1 W1 O1 102.79(6) 1_565 3_654 ?
W1 W1 O1 109.33(7) 1_565 3_655 ?
W1 W1 O1 100.25(5) 1_565 3_656 ?
W1 W1 O1 50.52(4) 1_565 3_664 ?
W1 W1 O1 137.79(6) 1_565 4_444 ?
W1 W1 O1 143.80(6) 1_565 4_445 ?
W1 W1 O1 86.86(6) 1_565 4_454 ?
W1 W1 O1 86.11(6) 1_565 4_455 ?
W1 W1 O1 146.95(6) 1_565 4_544 ?
W1 W1 O1 159.75(7) 1_565 4_545 ?
W1 W1 O1 85.62(8) 1_565 4_554 ?
W1 W1 O1 82.32(12) 1_565 4_555 ?
W1 W1 O1 87.74(5) 1_565 4_556 ?
W1 W1 O1 87.67(4) 1_565 4_654 ?
W1 W1 O1 87.41(5) 1_565 4_655 ?
W1 W1 O1 112.70(5) 1_565 5_455 ?
W1 W1 O1 110.72(5) 1_565 5_456 ?
W1 W1 O1 63.16(4) 1_565 5_465 ?
W1 W1 O1 65.41(4) 1_565 5_466 ?
W1 W1 O1 110.59(5) 1_565 5_554 ?
W1 W1 O1 140.72(9) 1_565 5_555 ?
W1 W1 O1 125.67(7) 1_565 5_556 ?
W1 W1 O1 65.56(4) 1_565 5_564 ?
W1 W1 O1 49.04(5) 1_565 5_566 ?
W1 W1 O1 124.14(7) 1_565 5_655 ?
W1 W1 O1 118.31(6) 1_565 5_656 ?
W1 W1 O1 50.64(4) 1_565 5_665 ?
W1 W1 O1 56.92(4) 1_565 5_666 ?
W1 W1 O1 137.87(7) 1_565 6_445 ?
W1 W1 O1 126.36(6) 1_565 6_446 ?
W1 W1 O1 76.80(4) 1_565 6_454 ?
W1 W1 O1 66.32(5) 1_565 6_455 ?
W1 W1 O1 73.72(5) 1_565 6_456 ?
W1 W1 O1 124.26(6) 1_565 6_544 ?
W1 W1 O1 161.56(8) 1_565 6_545 ?
W1 W1 O1 133.14(6) 1_565 6_546 ?
W1 W1 O1 74.88(5) 1_565 6_554 ?
W1 W1 O1 69.61(6) 1_565 6_556 ?
W1 W1 O1 125.12(5) 1_565 6_645 ?
W1 W1 O1 74.41(4) 1_565 6_655 ?
W1 W1 O1 77.20(4) 1_565 6_656 ?
W1 W1 O1 118.31(6) 1_565 7_454 ?
W1 W1 O1 124.14(7) 1_565 7_455 ?
W1 W1 O1 56.92(4) 1_565 7_464 ?
W1 W1 O1 50.64(4) 1_565 7_465 ?
W1 W1 O1 125.67(7) 1_565 7_554 ?
W1 W1 O1 140.72(9) 1_565 7_555 ?
W1 W1 O1 110.59(5) 1_565 7_556 ?
W1 W1 O1 49.04(5) 1_565 7_564 ?
W1 W1 O1 65.56(4) 1_565 7_566 ?
W1 W1 O1 110.72(5) 1_565 7_654 ?
W1 W1 O1 112.70(5) 1_565 7_655 ?
W1 W1 O1 65.41(4) 1_565 7_664 ?
W1 W1 O1 63.16(4) 1_565 7_665 ?
W1 W1 O1 125.12(5) 1_565 8_345 ?
W1 W1 O1 77.20(4) 1_565 8_354 ?
W1 W1 O1 74.41(4) 1_565 8_355 ?
W1 W1 O1 133.14(6) 1_565 8_444 ?
W1 W1 O1 161.56(8) 1_565 8_445 ?
W1 W1 O1 124.26(6) 1_565 8_446 ?
W1 W1 O1 69.61(6) 1_565 8_454 ?
W1 W1 O1 74.88(5) 1_565 8_456 ?
W1 W1 O1 126.36(6) 1_565 8_544 ?
W1 W1 O1 137.87(7) 1_565 8_545 ?
W1 W1 O1 73.72(5) 1_565 8_554 ?
W1 W1 O1 66.32(5) 1_565 8_555 ?
W1 W1 O1 76.80(4) 1_565 8_556 ?
W1 W1 W1 64.544(14) 1_645 1_654 ?
W1 W1 W1 50.680(17) 1_645 1_655 ?
W1 W1 W1 64.544(14) 1_645 1_656 ?
W1 W1 W1 101.36(2) 1_645 1_665 ?
W1 W1 W1 119.478(12) 1_645 2_355 ?
W1 W1 W1 119.478(12) 1_645 2_356 ?
W1 W1 W1 60.659(14) 1_645 2_445 ?
W1 W1 W1 60.659(14) 1_645 2_446 ?
W1 W1 W1 101.886(19) 1_645 2_455 ?
W1 W1 W1 101.886(19) 1_645 2_456 ?
W1 W1 W1 151.47(3) 1_645 2_465 ?
W1 W1 W1 151.47(3) 1_645 2_466 ?
W1 W1 W1 51.537(19) 1_645 2_555 ?
W1 W1 W1 51.537(19) 1_645 2_556 ?
W1 W1 W1 111.93(3) 1_645 2_565 ?
W1 W1 W1 111.93(3) 1_645 2_566 ?
W1 W1 W1 46.362(12) 1_645 2_655 ?
W1 W1 W1 46.362(12) 1_645 2_656 ?
W1 W1 W1 90.090(13) 1_645 5_455 ?
W1 W1 W1 90.090(13) 1_645 5_456 ?
W1 W1 W1 141.653(19) 1_645 5_465 ?
W1 W1 W1 141.653(19) 1_645 5_466 ?
W1 W1 W1 49.864(19) 1_645 5_555 ?
W1 W1 W1 49.864(19) 1_645 5_556 ?
W1 W1 W1 117.58(3) 1_645 5_565 ?
W1 W1 W1 117.58(3) 1_645 5_566 ?
W1 W1 W1 74.597(19) 1_645 5_665 ?
W1 W1 W1 74.597(19) 1_645 5_666 ?
W1 W1 W1 107.176(11) 1_645 6_345 ?
W1 W1 W1 151.465(17) 1_645 6_355 ?
W1 W1 W1 83.341(12) 1_645 6_444 ?
W1 W1 W1 78.64(2) 1_645 6_445 ?
W1 W1 W1 83.341(12) 1_645 6_446 ?
W1 W1 W1 126.071(20) 1_645 6_454 ?
W1 W1 W1 180.00(3) 1_645 6_455 ?
W1 W1 W1 126.071(20) 1_645 6_456 ?
W1 W1 W1 53.929(12) 1_645 6_544 ?
W1 W1 W1 53.929(12) 1_645 6_546 ?
W1 W1 W1 96.659(20) 1_645 6_554 ?
W1 W1 W1 101.36(3) 1_645 6_555 ?
W1 W1 W1 96.659(20) 1_645 6_556 ?
W1 W1 W1 72.824(17) 1_645 6_655 ?
W1 W1 Fe1 78.641(13) 1_645 1_445 ?
W1 W1 Fe1 115.456(14) 1_645 1_454 ?
W1 W1 Fe1 129.320(17) 1_645 1_455 ?
W1 W1 Fe1 115.456(14) 1_645 1_456 ?
W1 W1 Fe1 180.00(2) 1_645 1_465 ?
W1 W1 Fe1 90.000(16) 1_645 1_554 ?
W1 W1 Fe1 90.000(16) 1_645 1_556 ?
W1 W1 Fe1 140.68(3) 1_645 1_565 ?
W1 W1 Fe1 64.544(14) 1_645 1_654 ?
W1 W1 Fe1 50.680(17) 1_645 1_655 ?
W1 W1 Fe1 64.544(14) 1_645 1_656 ?
W1 W1 Fe1 101.36(2) 1_645 1_665 ?
W1 W1 Fe1 119.478(12) 1_645 2_355 ?
W1 W1 Fe1 119.478(12) 1_645 2_356 ?
W1 W1 Fe1 60.659(14) 1_645 2_445 ?
W1 W1 Fe1 60.659(14) 1_645 2_446 ?
W1 W1 Fe1 101.886(19) 1_645 2_455 ?
W1 W1 Fe1 101.886(19) 1_645 2_456 ?
W1 W1 Fe1 151.47(3) 1_645 2_465 ?
W1 W1 Fe1 151.47(3) 1_645 2_466 ?
W1 W1 Fe1 51.537(19) 1_645 2_555 ?
W1 W1 Fe1 51.537(19) 1_645 2_556 ?
W1 W1 Fe1 111.93(3) 1_645 2_565 ?
W1 W1 Fe1 111.93(3) 1_645 2_566 ?
W1 W1 Fe1 46.362(12) 1_645 2_655 ?
W1 W1 Fe1 46.362(12) 1_645 2_656 ?
W1 W1 Fe1 90.090(13) 1_645 5_455 ?
W1 W1 Fe1 90.090(13) 1_645 5_456 ?
W1 W1 Fe1 141.653(19) 1_645 5_465 ?
W1 W1 Fe1 141.653(19) 1_645 5_466 ?
W1 W1 Fe1 49.864(19) 1_645 5_555 ?
W1 W1 Fe1 49.864(19) 1_645 5_556 ?
W1 W1 Fe1 117.58(3) 1_645 5_565 ?
W1 W1 Fe1 117.58(3) 1_645 5_566 ?
W1 W1 Fe1 74.597(19) 1_645 5_665 ?
W1 W1 Fe1 74.597(19) 1_645 5_666 ?
W1 W1 Fe1 107.176(11) 1_645 6_345 ?
W1 W1 Fe1 151.465(17) 1_645 6_355 ?
W1 W1 Fe1 83.341(12) 1_645 6_444 ?
W1 W1 Fe1 78.64(2) 1_645 6_445 ?
W1 W1 Fe1 83.341(12) 1_645 6_446 ?
W1 W1 Fe1 126.071(20) 1_645 6_454 ?
W1 W1 Fe1 180.00(3) 1_645 6_455 ?
W1 W1 Fe1 126.071(20) 1_645 6_456 ?
W1 W1 Fe1 53.929(12) 1_645 6_544 ?
W1 W1 Fe1 53.929(12) 1_645 6_546 ?
W1 W1 Fe1 96.659(20) 1_645 6_554 ?
W1 W1 Fe1 101.36(3) 1_645 6_555 ?
W1 W1 Fe1 96.659(20) 1_645 6_556 ?
W1 W1 Fe1 72.824(17) 1_645 6_655 ?
W1 W1 O1 100.05(4) 1_645 1_454 ?
W1 W1 O1 108.94(6) 1_645 1_455 ?
W1 W1 O1 102.53(5) 1_645 1_456 ?
W1 W1 O1 171.30(6) 1_645 1_465 ?
W1 W1 O1 143.05(5) 1_645 1_466 ?
W1 W1 O1 73.46(4) 1_645 1_554 ?
W1 W1 O1 67.48(5) 1_645 1_556 ?
W1 W1 O1 110.75(5) 1_645 1_564 ?
W1 W1 O1 124.29(6) 1_645 1_565 ?
W1 W1 O1 115.06(5) 1_645 1_566 ?
W1 W1 O1 50.35(3) 1_645 1_656 ?
W1 W1 O1 87.70(4) 1_645 1_665 ?
W1 W1 O1 129.95(5) 1_645 2_355 ?
W1 W1 O1 125.28(4) 1_645 2_356 ?
W1 W1 O1 52.54(4) 1_645 2_445 ?
W1 W1 O1 57.08(3) 1_645 2_446 ?
W1 W1 O1 97.47(4) 1_645 2_454 ?
W1 W1 O1 116.09(12) 1_645 2_455 ?
W1 W1 O1 104.54(7) 1_645 2_456 ?
W1 W1 O1 147.29(6) 1_645 2_465 ?
W1 W1 O1 139.80(5) 1_645 2_466 ?
W1 W1 O1 58.70(5) 1_645 2_555 ?
W1 W1 O1 65.20(5) 1_645 2_556 ?
W1 W1 O1 109.05(5) 1_645 2_565 ?
W1 W1 O1 112.33(4) 1_645 3_454 ?
W1 W1 O1 117.31(4) 1_645 3_455 ?
W1 W1 O1 164.91(5) 1_645 3_465 ?
W1 W1 O1 49.97(3) 1_645 3_545 ?
W1 W1 O1 88.08(6) 1_645 3_554 ?
W1 W1 O1 85.49(11) 1_645 3_555 ?
W1 W1 O1 88.57(4) 1_645 3_556 ?
W1 W1 O1 132.71(5) 1_645 3_564 ?
W1 W1 O1 154.43(7) 1_645 3_565 ?
W1 W1 O1 124.56(5) 1_645 3_566 ?
W1 W1 O1 55.98(4) 1_645 3_654 ?
W1 W1 O1 63.27(4) 1_645 3_656 ?
W1 W1 O1 100.64(5) 1_645 3_664 ?
W1 W1 O1 103.20(5) 1_645 3_665 ?
W1 W1 O1 74.80(3) 1_645 4_444 ?
W1 W1 O1 73.40(3) 1_645 4_445 ?
W1 W1 O1 120.28(6) 1_645 4_454 ?
W1 W1 O1 128.65(6) 1_645 4_455 ?
W1 W1 O1 164.09(5) 1_645 4_465 ?
W1 W1 O1 82.36(7) 1_645 4_554 ?
W1 W1 O1 76.53(11) 1_645 4_555 ?
W1 W1 O1 86.05(4) 1_645 4_556 ?
W1 W1 O1 124.59(5) 1_645 4_564 ?
W1 W1 O1 128.71(5) 1_645 4_565 ?
W1 W1 O1 59.01(3) 1_645 4_654 ?
W1 W1 O1 55.09(3) 1_645 4_655 ?
W1 W1 O1 105.28(4) 1_645 5_455 ?
W1 W1 O1 103.98(4) 1_645 5_456 ?
W1 W1 O1 153.25(5) 1_645 5_465 ?
W1 W1 O1 145.39(5) 1_645 5_466 ?
W1 W1 O1 80.61(4) 1_645 5_554 ?
W1 W1 O1 68.96(7) 1_645 5_555 ?
W1 W1 O1 74.31(5) 1_645 5_556 ?
W1 W1 O1 115.22(5) 1_645 5_564 ?
W1 W1 O1 148.54(8) 1_645 5_565 ?
W1 W1 O1 132.46(6) 1_645 5_566 ?
W1 W1 O1 92.97(5) 1_645 5_665 ?
W1 W1 O1 92.55(5) 1_645 5_666 ?
W1 W1 O1 80.81(4) 1_645 6_445 ?
W1 W1 O1 82.67(4) 1_645 6_446 ?
W1 W1 O1 119.86(5) 1_645 6_454 ?
W1 W1 O1 151.15(7) 1_645 6_455 ?
W1 W1 O1 127.68(5) 1_645 6_456 ?
W1 W1 O1 58.04(3) 1_645 6_544 ?
W1 W1 O1 49.99(4) 1_645 6_546 ?
W1 W1 O1 95.29(5) 1_645 6_554 ?
W1 W1 O1 105.70(12) 1_645 6_555 ?
W1 W1 O1 97.08(6) 1_645 6_556 ?
W1 W1 O1 132.01(5) 1_645 6_565 ?
W1 W1 O1 66.67(4) 1_645 6_655 ?
W1 W1 O1 70.94(4) 1_645 6_656 ?
W1 W1 O1 91.72(5) 1_645 7_454 ?
W1 W1 O1 92.04(5) 1_645 7_455 ?
W1 W1 O1 143.13(6) 1_645 7_464 ?
W1 W1 O1 158.35(6) 1_645 7_465 ?
W1 W1 O1 50.82(5) 1_645 7_554 ?
W1 W1 O1 67.60(4) 1_645 7_556 ?
W1 W1 O1 109.83(6) 1_645 7_564 ?
W1 W1 O1 115.39(7) 1_645 7_565 ?
W1 W1 O1 102.36(4) 1_645 7_566 ?
W1 W1 O1 79.68(4) 1_645 7_664 ?
W1 W1 O1 78.79(4) 1_645 7_665 ?
W1 W1 O1 93.89(4) 1_645 8_345 ?
W1 W1 O1 132.01(4) 1_645 8_354 ?
W1 W1 O1 144.28(5) 1_645 8_355 ?
W1 W1 O1 65.48(4) 1_645 8_444 ?
W1 W1 O1 54.85(5) 1_645 8_445 ?
W1 W1 O1 70.02(4) 1_645 8_446 ?
W1 W1 O1 114.58(6) 1_645 8_454 ?
W1 W1 O1 156.02(12) 1_645 8_455 ?
W1 W1 O1 108.14(5) 1_645 8_456 ?
W1 W1 O1 148.42(5) 1_645 8_465 ?
W1 W1 O1 79.77(5) 1_645 8_554 ?
W1 W1 O1 75.26(6) 1_645 8_555 ?
W1 W1 O1 81.68(4) 1_645 8_556 ?
W1 W1 W1 47.2884(9) 1_654 1_655 ?
W1 W1 W1 94.5769(14) 1_654 1_656 ?
W1 W1 W1 64.544(14) 1_654 1_665 ?
W1 W1 W1 112.659(3) 1_654 2_355 ?
W1 W1 W1 151.671(3) 1_654 2_356 ?
W1 W1 W1 87.901(15) 1_654 2_445 ?
W1 W1 W1 117.324(15) 1_654 2_446 ?
W1 W1 W1 85.592(8) 1_654 2_455 ?
W1 W1 W1 164.401(8) 1_654 2_456 ?
W1 W1 W1 87.313(16) 1_654 2_465 ?
W1 W1 W1 125.986(16) 1_654 2_466 ?
W1 W1 W1 62.676(15) 1_654 2_545 ?
W1 W1 W1 92.099(15) 1_654 2_546 ?
W1 W1 W1 94.408(8) 1_654 2_556 ?
W1 W1 W1 54.014(16) 1_654 2_565 ?
W1 W1 W1 92.687(16) 1_654 2_566 ?
W1 W1 W1 67.341(2) 1_654 2_656 ?
W1 W1 W1 101.552(11) 1_654 5_455 ?
W1 W1 W1 140.251(11) 1_654 5_456 ?
W1 W1 W1 103.429(7) 1_654 5_465 ?
W1 W1 W1 153.078(7) 1_654 5_466 ?
W1 W1 W1 66.029(19) 1_654 5_555 ?
W1 W1 W1 113.971(19) 1_654 5_556 ?
W1 W1 W1 53.939(18) 1_654 5_565 ?
W1 W1 W1 126.061(18) 1_654 5_566 ?
W1 W1 W1 78.448(11) 1_654 5_656 ?
W1 W1 W1 76.571(7) 1_654 5_666 ?
W1 W1 W1 128.923(7) 1_654 6_345 ?
W1 W1 W1 128.923(7) 1_654 6_355 ?
W1 W1 W1 70.072(9) 1_654 6_444 ?
W1 W1 W1 115.46(2) 1_654 6_445 ?
W1 W1 W1 147.885(9) 1_654 6_446 ?
W1 W1 W1 70.072(9) 1_654 6_454 ?
W1 W1 W1 115.46(2) 1_654 6_455 ?
W1 W1 W1 147.885(9) 1_654 6_456 ?
W1 W1 W1 64.54(2) 1_654 6_545 ?
W1 W1 W1 109.928(9) 1_654 6_546 ?
W1 W1 W1 64.54(2) 1_654 6_555 ?
W1 W1 W1 109.928(9) 1_654 6_556 ?
W1 W1 W1 51.077(7) 1_654 6_645 ?
W1 W1 W1 51.077(7) 1_654 6_655 ?
W1 W1 Fe1 115.456(14) 1_654 1_445 ?
W1 W1 Fe1 85.4231(13) 1_654 1_454 ?
W1 W1 Fe1 132.7116(19) 1_654 1_455 ?
W1 W1 Fe1 180.0000(18) 1_654 1_456 ?
W1 W1 Fe1 115.456(14) 1_654 1_465 ?
W1 W1 Fe1 90.00(2) 1_654 1_545 ?
W1 W1 Fe1 137.2884(19) 1_654 1_556 ?
W1 W1 Fe1 90.00(2) 1_654 1_565 ?
W1 W1 Fe1 64.544(14) 1_654 1_645 ?
W1 W1 Fe1 47.2884(9) 1_654 1_655 ?
W1 W1 Fe1 94.5769(14) 1_654 1_656 ?
W1 W1 Fe1 64.544(14) 1_654 1_665 ?
W1 W1 Fe1 112.659(3) 1_654 2_355 ?
W1 W1 Fe1 151.671(3) 1_654 2_356 ?
W1 W1 Fe1 87.901(15) 1_654 2_445 ?
W1 W1 Fe1 117.324(15) 1_654 2_446 ?
W1 W1 Fe1 85.592(8) 1_654 2_455 ?
W1 W1 Fe1 164.401(8) 1_654 2_456 ?
W1 W1 Fe1 87.313(16) 1_654 2_465 ?
W1 W1 Fe1 125.986(16) 1_654 2_466 ?
W1 W1 Fe1 62.676(15) 1_654 2_545 ?
W1 W1 Fe1 92.099(15) 1_654 2_546 ?
W1 W1 Fe1 94.408(8) 1_654 2_556 ?
W1 W1 Fe1 54.014(16) 1_654 2_565 ?
W1 W1 Fe1 92.687(16) 1_654 2_566 ?
W1 W1 Fe1 67.341(2) 1_654 2_656 ?
W1 W1 Fe1 101.552(11) 1_654 5_455 ?
W1 W1 Fe1 140.251(11) 1_654 5_456 ?
W1 W1 Fe1 103.429(7) 1_654 5_465 ?
W1 W1 Fe1 153.078(7) 1_654 5_466 ?
W1 W1 Fe1 66.029(19) 1_654 5_555 ?
W1 W1 Fe1 113.971(19) 1_654 5_556 ?
W1 W1 Fe1 53.939(18) 1_654 5_565 ?
W1 W1 Fe1 126.061(18) 1_654 5_566 ?
W1 W1 Fe1 78.448(11) 1_654 5_656 ?
W1 W1 Fe1 76.571(7) 1_654 5_666 ?
W1 W1 Fe1 128.923(7) 1_654 6_345 ?
W1 W1 Fe1 128.923(7) 1_654 6_355 ?
W1 W1 Fe1 70.072(9) 1_654 6_444 ?
W1 W1 Fe1 115.46(2) 1_654 6_445 ?
W1 W1 Fe1 147.885(9) 1_654 6_446 ?
W1 W1 Fe1 70.072(9) 1_654 6_454 ?
W1 W1 Fe1 115.46(2) 1_654 6_455 ?
W1 W1 Fe1 147.885(9) 1_654 6_456 ?
W1 W1 Fe1 64.54(2) 1_654 6_545 ?
W1 W1 Fe1 109.928(9) 1_654 6_546 ?
W1 W1 Fe1 64.54(2) 1_654 6_555 ?
W1 W1 Fe1 109.928(9) 1_654 6_556 ?
W1 W1 Fe1 51.077(7) 1_654 6_645 ?
W1 W1 Fe1 51.077(7) 1_654 6_655 ?
W1 W1 O1 73.03(3) 1_654 1_454 ?
W1 W1 O1 117.14(6) 1_654 1_455 ?
W1 W1 O1 166.67(6) 1_654 1_456 ?
W1 W1 O1 107.37(5) 1_654 1_465 ?
W1 W1 O1 140.36(5) 1_654 1_466 ?
W1 W1 O1 78.04(4) 1_654 1_545 ?
W1 W1 O1 119.41(7) 1_654 1_556 ?
W1 W1 O1 46.28(3) 1_654 1_564 ?
W1 W1 O1 71.84(5) 1_654 1_565 ?
W1 W1 O1 110.97(5) 1_654 1_566 ?
W1 W1 O1 82.83(4) 1_654 1_656 ?
W1 W1 O1 51.64(3) 1_654 1_665 ?
W1 W1 O1 116.27(4) 1_654 2_355 ?
W1 W1 O1 162.93(5) 1_654 2_356 ?
W1 W1 O1 84.90(5) 1_654 2_445 ?
W1 W1 O1 119.61(5) 1_654 2_446 ?
W1 W1 O1 51.78(3) 1_654 2_454 ?
W1 W1 O1 75.24(11) 1_654 2_455 ?
W1 W1 O1 154.62(8) 1_654 2_456 ?
W1 W1 O1 85.31(4) 1_654 2_465 ?
W1 W1 O1 117.48(5) 1_654 2_466 ?
W1 W1 O1 56.82(3) 1_654 2_545 ?
W1 W1 O1 90.27(4) 1_654 2_546 ?
W1 W1 O1 90.40(5) 1_654 2_556 ?
W1 W1 O1 59.11(3) 1_654 2_565 ?
W1 W1 O1 97.17(3) 1_654 3_454 ?
W1 W1 O1 139.33(5) 1_654 3_455 ?
W1 W1 O1 128.36(4) 1_654 3_465 ?
W1 W1 O1 101.96(4) 1_654 3_545 ?
W1 W1 O1 60.59(5) 1_654 3_554 ?
W1 W1 O1 138.91(13) 1_654 3_555 ?
W1 W1 O1 147.46(6) 1_654 3_556 ?
W1 W1 O1 69.03(4) 1_654 3_564 ?
W1 W1 O1 108.16(6) 1_654 3_565 ?
W1 W1 O1 133.72(5) 1_654 3_566 ?
W1 W1 O1 62.86(6) 1_654 3_655 ?
W1 W1 O1 106.97(5) 1_654 3_656 ?
W1 W1 O1 72.63(4) 1_654 3_665 ?
W1 W1 O1 89.73(4) 1_654 4_444 ?
W1 W1 O1 123.18(5) 1_654 4_445 ?
W1 W1 O1 89.60(5) 1_654 4_454 ?
W1 W1 O1 157.59(7) 1_654 4_455 ?
W1 W1 O1 120.89(5) 1_654 4_465 ?
W1 W1 O1 60.39(4) 1_654 4_544 ?
W1 W1 O1 95.10(5) 1_654 4_545 ?
W1 W1 O1 104.76(12) 1_654 4_555 ?
W1 W1 O1 128.22(5) 1_654 4_556 ?
W1 W1 O1 62.52(4) 1_654 4_564 ?
W1 W1 O1 94.69(5) 1_654 4_565 ?
W1 W1 O1 63.73(4) 1_654 4_655 ?
W1 W1 O1 114.57(4) 1_654 5_455 ?
W1 W1 O1 153.00(5) 1_654 5_456 ?
W1 W1 O1 113.71(4) 1_654 5_465 ?
W1 W1 O1 150.02(5) 1_654 5_466 ?
W1 W1 O1 55.98(3) 1_654 5_554 ?
W1 W1 O1 83.32(7) 1_654 5_555 ?
W1 W1 O1 138.79(7) 1_654 5_556 ?
W1 W1 O1 57.03(3) 1_654 5_564 ?
W1 W1 O1 84.09(6) 1_654 5_565 ?
W1 W1 O1 134.37(6) 1_654 5_566 ?
W1 W1 O1 91.70(5) 1_654 5_656 ?
W1 W1 O1 91.62(5) 1_654 5_666 ?
W1 W1 O1 109.35(5) 1_654 6_445 ?
W1 W1 O1 143.58(5) 1_654 6_446 ?
W1 W1 O1 74.52(3) 1_654 6_454 ?
W1 W1 O1 116.90(6) 1_654 6_455 ?
W1 W1 O1 163.57(6) 1_654 6_456 ?
W1 W1 O1 45.74(3) 1_654 6_544 ?
W1 W1 O1 71.81(6) 1_654 6_545 ?
W1 W1 O1 113.43(5) 1_654 6_546 ?
W1 W1 O1 50.58(10) 1_654 6_555 ?
W1 W1 O1 120.72(6) 1_654 6_556 ?
W1 W1 O1 79.61(4) 1_654 6_565 ?
W1 W1 O1 50.53(3) 1_654 6_645 ?
W1 W1 O1 83.76(4) 1_654 6_656 ?
W1 W1 O1 88.30(4) 1_654 7_454 ?
W1 W1 O1 140.65(6) 1_654 7_455 ?
W1 W1 O1 88.38(4) 1_654 7_464 ?
W1 W1 O1 136.25(6) 1_654 7_465 ?
W1 W1 O1 96.68(8) 1_654 7_555 ?
W1 W1 O1 124.02(5) 1_654 7_556 ?
W1 W1 O1 45.63(4) 1_654 7_564 ?
W1 W1 O1 95.91(7) 1_654 7_565 ?
W1 W1 O1 122.97(5) 1_654 7_566 ?
W1 W1 O1 65.43(3) 1_654 7_655 ?
W1 W1 O1 66.29(3) 1_654 7_665 ?
W1 W1 O1 129.47(4) 1_654 8_345 ?
W1 W1 O1 96.24(4) 1_654 8_354 ?
W1 W1 O1 138.47(5) 1_654 8_355 ?
W1 W1 O1 66.57(4) 1_654 8_444 ?
W1 W1 O1 108.19(6) 1_654 8_445 ?
W1 W1 O1 134.26(5) 1_654 8_446 ?
W1 W1 O1 59.28(5) 1_654 8_454 ?
W1 W1 O1 129.42(12) 1_654 8_455 ?
W1 W1 O1 144.60(6) 1_654 8_456 ?
W1 W1 O1 100.39(4) 1_654 8_465 ?
W1 W1 O1 70.65(4) 1_654 8_545 ?
W1 W1 O1 63.10(5) 1_654 8_555 ?
W1 W1 O1 105.48(5) 1_654 8_556 ?
W1 W1 W1 47.2884(9) 1_655 1_656 ?
W1 W1 W1 50.680(17) 1_655 1_665 ?
W1 W1 W1 158.880(4) 1_655 2_355 ?
W1 W1 W1 158.880(4) 1_655 2_356 ?
W1 W1 W1 108.141(20) 1_655 2_445 ?
W1 W1 W1 108.141(20) 1_655 2_446 ?
W1 W1 W1 130.793(9) 1_655 2_455 ?
W1 W1 W1 130.793(9) 1_655 2_456 ?
W1 W1 W1 113.489(20) 1_655 2_465 ?
W1 W1 W1 113.489(20) 1_655 2_466 ?
W1 W1 W1 71.859(20) 1_655 2_545 ?
W1 W1 W1 71.859(20) 1_655 2_546 ?
W1 W1 W1 49.207(8) 1_655 2_555 ?
W1 W1 W1 49.207(8) 1_655 2_556 ?
W1 W1 W1 66.511(19) 1_655 2_565 ?
W1 W1 W1 66.511(19) 1_655 2_566 ?
W1 W1 W1 135.591(14) 1_655 5_455 ?
W1 W1 W1 135.591(14) 1_655 5_456 ?
W1 W1 W1 145.938(8) 1_655 5_465 ?
W1 W1 W1 145.938(8) 1_655 5_466 ?
W1 W1 W1 90.00(2) 1_655 5_555 ?
W1 W1 W1 90.00(2) 1_655 5_556 ?
W1 W1 W1 90.00(2) 1_655 5_565 ?
W1 W1 W1 90.00(2) 1_655 5_566 ?
W1 W1 W1 157.856(9) 1_655 6_345 ?
W1 W1 W1 157.856(9) 1_655 6_355 ?
W1 W1 W1 111.906(11) 1_655 6_444 ?
W1 W1 W1 129.32(2) 1_655 6_445 ?
W1 W1 W1 111.906(11) 1_655 6_446 ?
W1 W1 W1 111.906(11) 1_655 6_454 ?
W1 W1 W1 129.32(2) 1_655 6_455 ?
W1 W1 W1 111.906(11) 1_655 6_456 ?
W1 W1 W1 68.094(11) 1_655 6_544 ?
W1 W1 W1 50.68(2) 1_655 6_545 ?
W1 W1 W1 68.094(11) 1_655 6_546 ?
W1 W1 W1 68.094(11) 1_655 6_554 ?
W1 W1 W1 50.68(2) 1_655 6_555 ?
W1 W1 W1 68.094(11) 1_655 6_556 ?
W1 W1 Fe1 129.320(17) 1_655 1_445 ?
W1 W1 Fe1 132.7116(19) 1_655 1_454 ?
W1 W1 Fe1 180.000(3) 1_655 1_455 ?
W1 W1 Fe1 132.7116(19) 1_655 1_456 ?
W1 W1 Fe1 129.320(17) 1_655 1_465 ?
W1 W1 Fe1 90.00(2) 1_655 1_545 ?
W1 W1 Fe1 90.0000(12) 1_655 1_554 ?
W1 W1 Fe1 90.0000(12) 1_655 1_556 ?
W1 W1 Fe1 90.00(2) 1_655 1_565 ?
W1 W1 Fe1 50.680(17) 1_655 1_645 ?
W1 W1 Fe1 47.2884(9) 1_655 1_654 ?
W1 W1 Fe1 47.2884(9) 1_655 1_656 ?
W1 W1 Fe1 50.680(17) 1_655 1_665 ?
W1 W1 Fe1 158.880(4) 1_655 2_355 ?
W1 W1 Fe1 158.880(4) 1_655 2_356 ?
W1 W1 Fe1 108.141(20) 1_655 2_445 ?
W1 W1 Fe1 108.141(20) 1_655 2_446 ?
W1 W1 Fe1 130.793(9) 1_655 2_455 ?
W1 W1 Fe1 130.793(9) 1_655 2_456 ?
W1 W1 Fe1 113.489(20) 1_655 2_465 ?
W1 W1 Fe1 113.489(20) 1_655 2_466 ?
W1 W1 Fe1 71.859(20) 1_655 2_545 ?
W1 W1 Fe1 71.859(20) 1_655 2_546 ?
W1 W1 Fe1 49.207(8) 1_655 2_555 ?
W1 W1 Fe1 49.207(8) 1_655 2_556 ?
W1 W1 Fe1 66.511(19) 1_655 2_565 ?
W1 W1 Fe1 66.511(19) 1_655 2_566 ?
W1 W1 Fe1 135.591(14) 1_655 5_455 ?
W1 W1 Fe1 135.591(14) 1_655 5_456 ?
W1 W1 Fe1 145.938(8) 1_655 5_465 ?
W1 W1 Fe1 145.938(8) 1_655 5_466 ?
W1 W1 Fe1 90.00(2) 1_655 5_555 ?
W1 W1 Fe1 90.00(2) 1_655 5_556 ?
W1 W1 Fe1 90.00(2) 1_655 5_565 ?
W1 W1 Fe1 90.00(2) 1_655 5_566 ?
W1 W1 Fe1 157.856(9) 1_655 6_345 ?
W1 W1 Fe1 157.856(9) 1_655 6_355 ?
W1 W1 Fe1 111.906(11) 1_655 6_444 ?
W1 W1 Fe1 129.32(2) 1_655 6_445 ?
W1 W1 Fe1 111.906(11) 1_655 6_446 ?
W1 W1 Fe1 111.906(11) 1_655 6_454 ?
W1 W1 Fe1 129.32(2) 1_655 6_455 ?
W1 W1 Fe1 111.906(11) 1_655 6_456 ?
W1 W1 Fe1 68.094(11) 1_655 6_544 ?
W1 W1 Fe1 50.68(2) 1_655 6_545 ?
W1 W1 Fe1 68.094(11) 1_655 6_546 ?
W1 W1 Fe1 68.094(11) 1_655 6_554 ?
W1 W1 Fe1 50.68(2) 1_655 6_555 ?
W1 W1 Fe1 68.094(11) 1_655 6_556 ?
W1 W1 O1 119.51(5) 1_655 1_454 ?
W1 W1 O1 156.40(7) 1_655 1_455 ?
W1 W1 O1 127.78(6) 1_655 1_456 ?
W1 W1 O1 126.85(6) 1_655 1_465 ?
W1 W1 O1 119.00(5) 1_655 1_466 ?
W1 W1 O1 79.76(5) 1_655 1_545 ?
W1 W1 O1 78.17(5) 1_655 1_554 ?
W1 W1 O1 49.73(10) 1_655 1_555 ?
W1 W1 O1 74.00(6) 1_655 1_556 ?
W1 W1 O1 80.33(5) 1_655 1_564 ?
W1 W1 O1 74.50(6) 1_655 1_565 ?
W1 W1 O1 78.41(5) 1_655 1_566 ?
W1 W1 O1 163.39(6) 1_655 2_355 ?
W1 W1 O1 149.54(5) 1_655 2_356 ?
W1 W1 O1 100.69(6) 1_655 2_445 ?
W1 W1 O1 99.54(5) 1_655 2_446 ?
W1 W1 O1 99.03(5) 1_655 2_454 ?
W1 W1 O1 122.07(12) 1_655 2_455 ?
W1 W1 O1 107.63(8) 1_655 2_456 ?
W1 W1 O1 99.81(5) 1_655 2_465 ?
W1 W1 O1 98.90(5) 1_655 2_466 ?
W1 W1 O1 57.70(4) 1_655 2_545 ?
W1 W1 O1 60.63(4) 1_655 2_546 ?
W1 W1 O1 59.91(4) 1_655 2_565 ?
W1 W1 O1 143.45(5) 1_655 3_454 ?
W1 W1 O1 165.91(6) 1_655 3_455 ?
W1 W1 O1 142.52(5) 1_655 3_465 ?
W1 W1 O1 100.24(5) 1_655 3_545 ?
W1 W1 O1 106.00(6) 1_655 3_554 ?
W1 W1 O1 130.27(12) 1_655 3_555 ?
W1 W1 O1 101.83(5) 1_655 3_556 ?
W1 W1 O1 101.59(5) 1_655 3_564 ?
W1 W1 O1 105.50(6) 1_655 3_565 ?
W1 W1 O1 99.67(5) 1_655 3_566 ?
W1 W1 O1 52.22(4) 1_655 3_654 ?
W1 W1 O1 60.49(4) 1_655 3_656 ?
W1 W1 O1 61.00(4) 1_655 3_664 ?
W1 W1 O1 53.15(4) 1_655 3_665 ?
W1 W1 O1 119.37(5) 1_655 4_444 ?
W1 W1 O1 122.30(5) 1_655 4_445 ?
W1 W1 O1 136.80(6) 1_655 4_454 ?
W1 W1 O1 154.52(7) 1_655 4_455 ?
W1 W1 O1 120.09(5) 1_655 4_465 ?
W1 W1 O1 80.46(5) 1_655 4_544 ?
W1 W1 O1 79.31(5) 1_655 4_545 ?
W1 W1 O1 72.37(7) 1_655 4_554 ?
W1 W1 O1 57.93(10) 1_655 4_555 ?
W1 W1 O1 80.97(5) 1_655 4_556 ?
W1 W1 O1 81.10(5) 1_655 4_564 ?
W1 W1 O1 80.19(5) 1_655 4_565 ?
W1 W1 O1 152.51(5) 1_655 5_455 ?
W1 W1 O1 144.43(5) 1_655 5_456 ?
W1 W1 O1 149.10(5) 1_655 5_465 ?
W1 W1 O1 142.26(5) 1_655 5_466 ?
W1 W1 O1 99.90(5) 1_655 5_554 ?
W1 W1 O1 112.23(8) 1_655 5_555 ?
W1 W1 O1 106.56(7) 1_655 5_556 ?
W1 W1 O1 99.63(5) 1_655 5_564 ?
W1 W1 O1 109.56(7) 1_655 5_565 ?
W1 W1 O1 105.36(6) 1_655 5_566 ?
W1 W1 O1 51.21(4) 1_655 5_656 ?
W1 W1 O1 46.17(4) 1_655 5_665 ?
W1 W1 O1 53.41(4) 1_655 5_666 ?
W1 W1 O1 130.80(6) 1_655 6_445 ?
W1 W1 O1 121.48(5) 1_655 6_446 ?
W1 W1 O1 120.46(5) 1_655 6_454 ?
W1 W1 O1 153.12(7) 1_655 6_455 ?
W1 W1 O1 128.50(6) 1_655 6_456 ?
W1 W1 O1 81.49(5) 1_655 6_544 ?
W1 W1 O1 75.55(6) 1_655 6_545 ?
W1 W1 O1 79.64(5) 1_655 6_546 ?
W1 W1 O1 80.04(5) 1_655 6_554 ?
W1 W1 O1 59.50(10) 1_655 6_555 ?
W1 W1 O1 76.64(6) 1_655 6_556 ?
W1 W1 O1 81.71(5) 1_655 6_565 ?
W1 W1 O1 128.79(6) 1_655 7_454 ?
W1 W1 O1 137.85(7) 1_655 7_455 ?
W1 W1 O1 126.59(6) 1_655 7_464 ?
W1 W1 O1 133.83(6) 1_655 7_465 ?
W1 W1 O1 73.44(6) 1_655 7_554 ?
W1 W1 O1 67.77(7) 1_655 7_555 ?
W1 W1 O1 80.10(5) 1_655 7_556 ?
W1 W1 O1 74.64(5) 1_655 7_564 ?
W1 W1 O1 70.44(6) 1_655 7_565 ?
W1 W1 O1 80.37(5) 1_655 7_566 ?
W1 W1 O1 144.04(5) 1_655 8_345 ?
W1 W1 O1 141.79(5) 1_655 8_354 ?
W1 W1 O1 162.39(6) 1_655 8_355 ?
W1 W1 O1 100.36(5) 1_655 8_444 ?
W1 W1 O1 104.45(7) 1_655 8_445 ?
W1 W1 O1 98.51(5) 1_655 8_446 ?
W1 W1 O1 103.36(6) 1_655 8_454 ?
W1 W1 O1 120.50(11) 1_655 8_455 ?
W1 W1 O1 99.96(5) 1_655 8_456 ?
W1 W1 O1 98.29(5) 1_655 8_465 ?
W1 W1 O1 58.52(4) 1_655 8_544 ?
W1 W1 O1 49.20(4) 1_655 8_545 ?
W1 W1 O1 51.50(4) 1_655 8_554 ?
W1 W1 O1 59.54(4) 1_655 8_556 ?
W1 W1 W1 64.544(14) 1_656 1_665 ?
W1 W1 W1 151.671(3) 1_656 2_355 ?
W1 W1 W1 112.659(3) 1_656 2_356 ?
W1 W1 W1 117.324(15) 1_656 2_445 ?
W1 W1 W1 87.901(15) 1_656 2_446 ?
W1 W1 W1 164.401(8) 1_656 2_455 ?
W1 W1 W1 85.592(8) 1_656 2_456 ?
W1 W1 W1 125.986(16) 1_656 2_465 ?
W1 W1 W1 87.313(16) 1_656 2_466 ?
W1 W1 W1 92.099(15) 1_656 2_545 ?
W1 W1 W1 62.676(15) 1_656 2_546 ?
W1 W1 W1 94.408(8) 1_656 2_555 ?
W1 W1 W1 92.687(16) 1_656 2_565 ?
W1 W1 W1 54.014(16) 1_656 2_566 ?
W1 W1 W1 67.341(2) 1_656 2_655 ?
W1 W1 W1 140.251(11) 1_656 5_455 ?
W1 W1 W1 101.552(11) 1_656 5_456 ?
W1 W1 W1 153.078(7) 1_656 5_465 ?
W1 W1 W1 103.429(7) 1_656 5_466 ?
W1 W1 W1 113.971(19) 1_656 5_555 ?
W1 W1 W1 66.029(19) 1_656 5_556 ?
W1 W1 W1 126.061(18) 1_656 5_565 ?
W1 W1 W1 53.939(18) 1_656 5_566 ?
W1 W1 W1 78.448(11) 1_656 5_655 ?
W1 W1 W1 76.571(7) 1_656 5_665 ?
W1 W1 W1 128.923(7) 1_656 6_345 ?
W1 W1 W1 128.923(7) 1_656 6_355 ?
W1 W1 W1 147.885(9) 1_656 6_444 ?
W1 W1 W1 115.46(2) 1_656 6_445 ?
W1 W1 W1 70.072(9) 1_656 6_446 ?
W1 W1 W1 147.885(9) 1_656 6_454 ?
W1 W1 W1 115.46(2) 1_656 6_455 ?
W1 W1 W1 70.072(9) 1_656 6_456 ?
W1 W1 W1 109.928(9) 1_656 6_544 ?
W1 W1 W1 64.54(2) 1_656 6_545 ?
W1 W1 W1 109.928(9) 1_656 6_554 ?
W1 W1 W1 64.54(2) 1_656 6_555 ?
W1 W1 W1 51.077(7) 1_656 6_645 ?
W1 W1 W1 51.077(7) 1_656 6_655 ?
W1 W1 Fe1 115.456(14) 1_656 1_445 ?
W1 W1 Fe1 180.0000(18) 1_656 1_454 ?
W1 W1 Fe1 132.7116(19) 1_656 1_455 ?
W1 W1 Fe1 85.4231(13) 1_656 1_456 ?
W1 W1 Fe1 115.456(14) 1_656 1_465 ?
W1 W1 Fe1 90.00(2) 1_656 1_545 ?
W1 W1 Fe1 137.2884(19) 1_656 1_554 ?
W1 W1 Fe1 90.00(2) 1_656 1_565 ?
W1 W1 Fe1 64.544(14) 1_656 1_645 ?
W1 W1 Fe1 94.5769(14) 1_656 1_654 ?
W1 W1 Fe1 47.2884(9) 1_656 1_655 ?
W1 W1 Fe1 64.544(14) 1_656 1_665 ?
W1 W1 Fe1 151.671(3) 1_656 2_355 ?
W1 W1 Fe1 112.659(3) 1_656 2_356 ?
W1 W1 Fe1 117.324(15) 1_656 2_445 ?
W1 W1 Fe1 87.901(15) 1_656 2_446 ?
W1 W1 Fe1 164.401(8) 1_656 2_455 ?
W1 W1 Fe1 85.592(8) 1_656 2_456 ?
W1 W1 Fe1 125.986(16) 1_656 2_465 ?
W1 W1 Fe1 87.313(16) 1_656 2_466 ?
W1 W1 Fe1 92.099(15) 1_656 2_545 ?
W1 W1 Fe1 62.676(15) 1_656 2_546 ?
W1 W1 Fe1 94.408(8) 1_656 2_555 ?
W1 W1 Fe1 92.687(16) 1_656 2_565 ?
W1 W1 Fe1 54.014(16) 1_656 2_566 ?
W1 W1 Fe1 67.341(2) 1_656 2_655 ?
W1 W1 Fe1 140.251(11) 1_656 5_455 ?
W1 W1 Fe1 101.552(11) 1_656 5_456 ?
W1 W1 Fe1 153.078(7) 1_656 5_465 ?
W1 W1 Fe1 103.429(7) 1_656 5_466 ?
W1 W1 Fe1 113.971(19) 1_656 5_555 ?
W1 W1 Fe1 66.029(19) 1_656 5_556 ?
W1 W1 Fe1 126.061(18) 1_656 5_565 ?
W1 W1 Fe1 53.939(18) 1_656 5_566 ?
W1 W1 Fe1 78.448(11) 1_656 5_655 ?
W1 W1 Fe1 76.571(7) 1_656 5_665 ?
W1 W1 Fe1 128.923(7) 1_656 6_345 ?
W1 W1 Fe1 128.923(7) 1_656 6_355 ?
W1 W1 Fe1 147.885(9) 1_656 6_444 ?
W1 W1 Fe1 115.46(2) 1_656 6_445 ?
W1 W1 Fe1 70.072(9) 1_656 6_446 ?
W1 W1 Fe1 147.885(9) 1_656 6_454 ?
W1 W1 Fe1 115.46(2) 1_656 6_455 ?
W1 W1 Fe1 70.072(9) 1_656 6_456 ?
W1 W1 Fe1 109.928(9) 1_656 6_544 ?
W1 W1 Fe1 64.54(2) 1_656 6_545 ?
W1 W1 Fe1 109.928(9) 1_656 6_554 ?
W1 W1 Fe1 64.54(2) 1_656 6_555 ?
W1 W1 Fe1 51.077(7) 1_656 6_645 ?
W1 W1 Fe1 51.077(7) 1_656 6_655 ?
W1 W1 O1 163.75(5) 1_656 1_454 ?
W1 W1 O1 141.90(7) 1_656 1_455 ?
W1 W1 O1 81.84(4) 1_656 1_456 ?
W1 W1 O1 121.00(5) 1_656 1_465 ?
W1 W1 O1 83.55(4) 1_656 1_466 ?
W1 W1 O1 88.06(4) 1_656 1_545 ?
W1 W1 O1 124.40(5) 1_656 1_554 ?
W1 W1 O1 82.92(12) 1_656 1_555 ?
W1 W1 O1 117.59(5) 1_656 1_564 ?
W1 W1 O1 87.08(6) 1_656 1_565 ?
W1 W1 O1 50.91(3) 1_656 1_566 ?
W1 W1 O1 56.13(3) 1_656 1_655 ?
W1 W1 O1 62.87(3) 1_656 1_665 ?
W1 W1 O1 149.03(5) 1_656 2_355 ?
W1 W1 O1 102.32(4) 1_656 2_356 ?
W1 W1 O1 109.91(5) 1_656 2_445 ?
W1 W1 O1 74.37(4) 1_656 2_446 ?
W1 W1 O1 146.26(5) 1_656 2_454 ?
W1 W1 O1 167.16(13) 1_656 2_455 ?
W1 W1 O1 60.49(6) 1_656 2_456 ?
W1 W1 O1 108.24(5) 1_656 2_465 ?
W1 W1 O1 75.43(4) 1_656 2_466 ?
W1 W1 O1 79.76(4) 1_656 2_545 ?
W1 W1 O1 47.93(3) 1_656 2_546 ?
W1 W1 O1 72.53(6) 1_656 2_555 ?
W1 W1 O1 80.40(4) 1_656 2_565 ?
W1 W1 O1 164.79(5) 1_656 3_454 ?
W1 W1 O1 123.87(4) 1_656 3_455 ?
W1 W1 O1 117.13(4) 1_656 3_465 ?
W1 W1 O1 91.94(4) 1_656 3_545 ?
W1 W1 O1 149.89(7) 1_656 3_554 ?
W1 W1 O1 97.08(12) 1_656 3_555 ?
W1 W1 O1 55.60(3) 1_656 3_556 ?
W1 W1 O1 129.09(5) 1_656 3_564 ?
W1 W1 O1 92.92(5) 1_656 3_565 ?
W1 W1 O1 62.41(3) 1_656 3_566 ?
W1 W1 O1 98.16(5) 1_656 3_654 ?
W1 W1 O1 96.45(4) 1_656 3_664 ?
W1 W1 O1 59.00(4) 1_656 3_665 ?
W1 W1 O1 132.07(5) 1_656 4_444 ?
W1 W1 O1 100.24(4) 1_656 4_445 ?
W1 W1 O1 174.77(6) 1_656 4_454 ?
W1 W1 O1 107.47(6) 1_656 4_455 ?
W1 W1 O1 99.60(4) 1_656 4_465 ?
W1 W1 O1 105.63(5) 1_656 4_544 ?
W1 W1 O1 70.09(4) 1_656 4_545 ?
W1 W1 O1 119.51(8) 1_656 4_554 ?
W1 W1 O1 104.57(5) 1_656 4_564 ?
W1 W1 O1 71.76(4) 1_656 4_565 ?
W1 W1 O1 77.68(4) 1_656 4_654 ?
W1 W1 O1 141.97(5) 1_656 5_455 ?
W1 W1 O1 102.27(4) 1_656 5_456 ?
W1 W1 O1 139.63(5) 1_656 5_465 ?
W1 W1 O1 101.92(4) 1_656 5_466 ?
W1 W1 O1 142.44(5) 1_656 5_554 ?
W1 W1 O1 129.02(8) 1_656 5_555 ?
W1 W1 O1 68.55(5) 1_656 5_556 ?
W1 W1 O1 140.44(5) 1_656 5_564 ?
W1 W1 O1 123.85(7) 1_656 5_565 ?
W1 W1 O1 70.13(5) 1_656 5_566 ?
W1 W1 O1 76.56(5) 1_656 5_655 ?
W1 W1 O1 77.46(5) 1_656 5_665 ?
W1 W1 O1 123.71(5) 1_656 6_445 ?
W1 W1 O1 84.48(4) 1_656 6_446 ?
W1 W1 O1 162.67(5) 1_656 6_454 ?
W1 W1 O1 139.25(7) 1_656 6_455 ?
W1 W1 O1 83.42(4) 1_656 6_456 ?
W1 W1 O1 119.80(5) 1_656 6_544 ?
W1 W1 O1 88.49(6) 1_656 6_545 ?
W1 W1 O1 50.09(4) 1_656 6_546 ?
W1 W1 O1 125.49(5) 1_656 6_554 ?
W1 W1 O1 86.94(11) 1_656 6_555 ?
W1 W1 O1 89.13(4) 1_656 6_565 ?
W1 W1 O1 62.46(3) 1_656 6_645 ?
W1 W1 O1 57.01(3) 1_656 6_655 ?
W1 W1 O1 151.58(6) 1_656 7_454 ?
W1 W1 O1 103.44(5) 1_656 7_455 ?
W1 W1 O1 146.82(6) 1_656 7_464 ?
W1 W1 O1 102.54(5) 1_656 7_465 ?
W1 W1 O1 111.45(7) 1_656 7_554 ?
W1 W1 O1 50.98(6) 1_656 7_555 ?
W1 W1 O1 109.87(6) 1_656 7_564 ?
W1 W1 O1 56.15(6) 1_656 7_565 ?
W1 W1 O1 77.73(4) 1_656 7_654 ?
W1 W1 O1 78.08(4) 1_656 7_664 ?
W1 W1 O1 117.54(4) 1_656 8_345 ?
W1 W1 O1 163.20(5) 1_656 8_354 ?
W1 W1 O1 122.99(4) 1_656 8_355 ?
W1 W1 O1 129.91(6) 1_656 8_444 ?
W1 W1 O1 91.51(6) 1_656 8_445 ?
W1 W1 O1 60.20(3) 1_656 8_446 ?
W1 W1 O1 145.51(7) 1_656 8_454 ?
W1 W1 O1 93.06(11) 1_656 8_455 ?
W1 W1 O1 54.51(3) 1_656 8_456 ?
W1 W1 O1 90.87(4) 1_656 8_465 ?
W1 W1 O1 95.52(4) 1_656 8_544 ?
W1 W1 O1 56.29(4) 1_656 8_545 ?
W1 W1 O1 96.58(5) 1_656 8_554 ?
W1 W1 W1 133.638(14) 1_665 2_355 ?
W1 W1 W1 133.638(14) 1_665 2_356 ?
W1 W1 W1 152.20(2) 1_665 2_445 ?
W1 W1 W1 152.20(2) 1_665 2_446 ?
W1 W1 W1 128.46(2) 1_665 2_455 ?
W1 W1 W1 128.46(2) 1_665 2_456 ?
W1 W1 W1 68.073(15) 1_665 2_465 ?
W1 W1 W1 68.073(15) 1_665 2_466 ?
W1 W1 W1 119.34(2) 1_665 2_545 ?
W1 W1 W1 119.34(2) 1_665 2_546 ?
W1 W1 W1 78.11(2) 1_665 2_555 ?
W1 W1 W1 78.11(2) 1_665 2_556 ?
W1 W1 W1 60.522(14) 1_665 2_655 ?
W1 W1 W1 60.522(14) 1_665 2_656 ?
W1 W1 W1 154.65(2) 1_665 5_455 ?
W1 W1 W1 154.65(2) 1_665 5_456 ?
W1 W1 W1 105.403(13) 1_665 5_465 ?
W1 W1 W1 105.403(13) 1_665 5_466 ?
W1 W1 W1 130.14(3) 1_665 5_555 ?
W1 W1 W1 130.14(3) 1_665 5_556 ?
W1 W1 W1 62.42(2) 1_665 5_565 ?
W1 W1 W1 62.42(2) 1_665 5_566 ?
W1 W1 W1 89.91(2) 1_665 5_655 ?
W1 W1 W1 89.91(2) 1_665 5_656 ?
W1 W1 W1 151.465(17) 1_665 6_345 ?
W1 W1 W1 107.176(11) 1_665 6_355 ?
W1 W1 W1 126.071(20) 1_665 6_444 ?
W1 W1 W1 180.00(3) 1_665 6_445 ?
W1 W1 W1 126.071(20) 1_665 6_446 ?
W1 W1 W1 83.341(12) 1_665 6_454 ?
W1 W1 W1 78.64(2) 1_665 6_455 ?
W1 W1 W1 83.341(12) 1_665 6_456 ?
W1 W1 W1 96.659(20) 1_665 6_544 ?
W1 W1 W1 101.36(3) 1_665 6_545 ?
W1 W1 W1 96.659(20) 1_665 6_546 ?
W1 W1 W1 53.929(12) 1_665 6_554 ?
W1 W1 W1 53.929(12) 1_665 6_556 ?
W1 W1 W1 72.824(17) 1_665 6_645 ?
W1 W1 Fe1 180.00(2) 1_665 1_445 ?
W1 W1 Fe1 115.456(14) 1_665 1_454 ?
W1 W1 Fe1 129.320(17) 1_665 1_455 ?
W1 W1 Fe1 115.456(14) 1_665 1_456 ?
W1 W1 Fe1 78.641(13) 1_665 1_465 ?
W1 W1 Fe1 140.68(3) 1_665 1_545 ?
W1 W1 Fe1 90.000(16) 1_665 1_554 ?
W1 W1 Fe1 90.000(16) 1_665 1_556 ?
W1 W1 Fe1 101.36(2) 1_665 1_645 ?
W1 W1 Fe1 64.544(14) 1_665 1_654 ?
W1 W1 Fe1 50.680(17) 1_665 1_655 ?
W1 W1 Fe1 64.544(14) 1_665 1_656 ?
W1 W1 Fe1 133.638(14) 1_665 2_355 ?
W1 W1 Fe1 133.638(14) 1_665 2_356 ?
W1 W1 Fe1 152.20(2) 1_665 2_445 ?
W1 W1 Fe1 152.20(2) 1_665 2_446 ?
W1 W1 Fe1 128.46(2) 1_665 2_455 ?
W1 W1 Fe1 128.46(2) 1_665 2_456 ?
W1 W1 Fe1 68.073(15) 1_665 2_465 ?
W1 W1 Fe1 68.073(15) 1_665 2_466 ?
W1 W1 Fe1 119.34(2) 1_665 2_545 ?
W1 W1 Fe1 119.34(2) 1_665 2_546 ?
W1 W1 Fe1 78.11(2) 1_665 2_555 ?
W1 W1 Fe1 78.11(2) 1_665 2_556 ?
W1 W1 Fe1 60.522(14) 1_665 2_655 ?
W1 W1 Fe1 60.522(14) 1_665 2_656 ?
W1 W1 Fe1 154.65(2) 1_665 5_455 ?
W1 W1 Fe1 154.65(2) 1_665 5_456 ?
W1 W1 Fe1 105.403(13) 1_665 5_465 ?
W1 W1 Fe1 105.403(13) 1_665 5_466 ?
W1 W1 Fe1 130.14(3) 1_665 5_555 ?
W1 W1 Fe1 130.14(3) 1_665 5_556 ?
W1 W1 Fe1 62.42(2) 1_665 5_565 ?
W1 W1 Fe1 62.42(2) 1_665 5_566 ?
W1 W1 Fe1 89.91(2) 1_665 5_655 ?
W1 W1 Fe1 89.91(2) 1_665 5_656 ?
W1 W1 Fe1 151.465(17) 1_665 6_345 ?
W1 W1 Fe1 107.176(11) 1_665 6_355 ?
W1 W1 Fe1 126.071(20) 1_665 6_444 ?
W1 W1 Fe1 180.00(3) 1_665 6_445 ?
W1 W1 Fe1 126.071(20) 1_665 6_446 ?
W1 W1 Fe1 83.341(12) 1_665 6_454 ?
W1 W1 Fe1 78.64(2) 1_665 6_455 ?
W1 W1 Fe1 83.341(12) 1_665 6_456 ?
W1 W1 Fe1 96.659(20) 1_665 6_544 ?
W1 W1 Fe1 101.36(3) 1_665 6_545 ?
W1 W1 Fe1 96.659(20) 1_665 6_546 ?
W1 W1 Fe1 53.929(12) 1_665 6_554 ?
W1 W1 Fe1 53.929(12) 1_665 6_556 ?
W1 W1 Fe1 72.824(17) 1_665 6_645 ?
W1 W1 O1 116.73(5) 1_665 1_454 ?
W1 W1 O1 146.80(7) 1_665 1_455 ?
W1 W1 O1 124.02(5) 1_665 1_456 ?
W1 W1 O1 76.80(4) 1_665 1_465 ?
W1 W1 O1 79.36(4) 1_665 1_466 ?
W1 W1 O1 130.03(5) 1_665 1_545 ?
W1 W1 O1 91.43(5) 1_665 1_554 ?
W1 W1 O1 94.51(12) 1_665 1_555 ?
W1 W1 O1 91.92(6) 1_665 1_556 ?
W1 W1 O1 55.44(3) 1_665 1_564 ?
W1 W1 O1 47.29(3) 1_665 1_566 ?
W1 W1 O1 62.69(4) 1_665 1_655 ?
W1 W1 O1 67.67(3) 1_665 1_656 ?
W1 W1 O1 124.91(5) 1_665 2_355 ?
W1 W1 O1 120.99(4) 1_665 2_356 ?
W1 W1 O1 147.49(6) 1_665 2_445 ?
W1 W1 O1 138.89(5) 1_665 2_446 ?
W1 W1 O1 93.95(4) 1_665 2_454 ?
W1 W1 O1 103.47(12) 1_665 2_455 ?
W1 W1 O1 97.64(7) 1_665 2_456 ?
W1 W1 O1 51.29(3) 1_665 2_465 ?
W1 W1 O1 55.41(3) 1_665 2_466 ?
W1 W1 O1 106.60(5) 1_665 2_545 ?
W1 W1 O1 105.20(4) 1_665 2_546 ?
W1 W1 O1 51.35(5) 1_665 2_555 ?
W1 W1 O1 59.72(4) 1_665 2_556 ?
W1 W1 O1 129.65(4) 1_665 3_454 ?
W1 W1 O1 140.39(5) 1_665 3_455 ?
W1 W1 O1 92.30(3) 1_665 3_465 ?
W1 W1 O1 150.28(5) 1_665 3_545 ?
W1 W1 O1 112.52(6) 1_665 3_554 ?
W1 W1 O1 153.86(13) 1_665 3_555 ?
W1 W1 O1 106.54(5) 1_665 3_556 ?
W1 W1 O1 64.94(4) 1_665 3_564 ?
W1 W1 O1 55.71(4) 1_665 3_565 ?
W1 W1 O1 69.25(3) 1_665 3_566 ?
W1 W1 O1 77.47(5) 1_665 3_654 ?
W1 W1 O1 71.06(6) 1_665 3_655 ?
W1 W1 O1 79.95(4) 1_665 3_656 ?
W1 W1 O1 152.10(5) 1_665 4_444 ?
W1 W1 O1 164.35(5) 1_665 4_445 ?
W1 W1 O1 114.80(5) 1_665 4_454 ?
W1 W1 O1 121.30(6) 1_665 4_455 ?
W1 W1 O1 70.95(3) 1_665 4_465 ?
W1 W1 O1 122.92(5) 1_665 4_544 ?
W1 W1 O1 127.46(6) 1_665 4_545 ?
W1 W1 O1 75.46(7) 1_665 4_554 ?
W1 W1 O1 63.91(11) 1_665 4_555 ?
W1 W1 O1 82.53(4) 1_665 4_556 ?
W1 W1 O1 54.72(3) 1_665 4_654 ?
W1 W1 O1 50.05(3) 1_665 4_655 ?
W1 W1 O1 149.40(5) 1_665 5_455 ?
W1 W1 O1 142.11(5) 1_665 5_456 ?
W1 W1 O1 101.21(4) 1_665 5_465 ?
W1 W1 O1 100.32(4) 1_665 5_466 ?
W1 W1 O1 112.40(5) 1_665 5_554 ?
W1 W1 O1 146.99(9) 1_665 5_555 ?
W1 W1 O1 129.18(7) 1_665 5_556 ?
W1 W1 O1 77.64(4) 1_665 5_564 ?
W1 W1 O1 64.61(6) 1_665 5_565 ?
W1 W1 O1 70.17(5) 1_665 5_566 ?
W1 W1 O1 87.96(6) 1_665 5_655 ?
W1 W1 O1 88.28(5) 1_665 5_656 ?
W1 W1 O1 171.01(6) 1_665 6_445 ?
W1 W1 O1 142.14(5) 1_665 6_446 ?
W1 W1 O1 98.32(4) 1_665 6_454 ?
W1 W1 O1 104.74(6) 1_665 6_455 ?
W1 W1 O1 100.23(5) 1_665 6_456 ?
W1 W1 O1 109.98(5) 1_665 6_544 ?
W1 W1 O1 125.15(7) 1_665 6_545 ?
W1 W1 O1 114.52(5) 1_665 6_546 ?
W1 W1 O1 71.86(4) 1_665 6_554 ?
W1 W1 O1 65.42(5) 1_665 6_556 ?
W1 W1 O1 86.11(4) 1_665 6_645 ?
W1 W1 O1 47.99(3) 1_665 6_656 ?
W1 W1 O1 139.80(6) 1_665 7_454 ?
W1 W1 O1 154.68(6) 1_665 7_455 ?
W1 W1 O1 87.45(4) 1_665 7_464 ?
W1 W1 O1 87.03(5) 1_665 7_465 ?
W1 W1 O1 105.69(6) 1_665 7_554 ?
W1 W1 O1 111.04(8) 1_665 7_555 ?
W1 W1 O1 99.39(4) 1_665 7_556 ?
W1 W1 O1 47.54(4) 1_665 7_564 ?
W1 W1 O1 64.78(3) 1_665 7_566 ?
W1 W1 O1 76.02(4) 1_665 7_654 ?
W1 W1 O1 74.72(4) 1_665 7_655 ?
W1 W1 O1 163.32(5) 1_665 8_345 ?
W1 W1 O1 109.06(4) 1_665 8_354 ?
W1 W1 O1 113.33(4) 1_665 8_355 ?
W1 W1 O1 130.01(5) 1_665 8_444 ?
W1 W1 O1 153.12(7) 1_665 8_445 ?
W1 W1 O1 121.96(5) 1_665 8_446 ?
W1 W1 O1 82.92(5) 1_665 8_454 ?
W1 W1 O1 74.30(10) 1_665 8_455 ?
W1 W1 O1 84.71(4) 1_665 8_456 ?
W1 W1 O1 47.99(3) 1_665 8_465 ?
W1 W1 O1 97.33(4) 1_665 8_544 ?
W1 W1 O1 99.19(5) 1_665 8_545 ?
W1 W1 O1 52.32(4) 1_665 8_554 ?
W1 W1 O1 60.14(3) 1_665 8_556 ?
W1 W1 W1 58.818(14) 2_355 2_445 ?
W1 W1 W1 73.110(14) 2_355 2_446 ?
W1 W1 W1 66.079(7) 2_355 2_456 ?
W1 W1 W1 65.565(17) 2_355 2_465 ?
W1 W1 W1 82.945(17) 2_355 2_466 ?
W1 W1 W1 93.620(14) 2_355 2_545 ?
W1 W1 W1 106.879(14) 2_355 2_546 ?
W1 W1 W1 109.673(7) 2_355 2_555 ?
W1 W1 W1 144.430(7) 2_355 2_556 ?
W1 W1 W1 109.264(17) 2_355 2_565 ?
W1 W1 W1 128.373(17) 2_355 2_566 ?
W1 W1 W1 137.760(3) 2_355 2_655 ?
W1 W1 W1 165.294(3) 2_355 2_656 ?
W1 W1 W1 52.362(9) 2_355 5_456 ?
W1 W1 W1 54.638(8) 2_355 5_466 ?
W1 W1 W1 72.970(18) 2_355 5_555 ?
W1 W1 W1 94.566(18) 2_355 5_556 ?
W1 W1 W1 78.858(20) 2_355 5_565 ?
W1 W1 W1 110.269(20) 2_355 5_566 ?
W1 W1 W1 117.479(10) 2_355 5_655 ?
W1 W1 W1 136.226(10) 2_355 5_656 ?
W1 W1 W1 131.648(8) 2_355 5_665 ?
W1 W1 W1 165.199(8) 2_355 5_666 ?
W1 W1 W1 47.268(7) 2_355 6_444 ?
W1 W1 W1 46.362(19) 2_355 6_445 ?
W1 W1 W1 82.296(8) 2_355 6_446 ?
W1 W1 W1 55.807(10) 2_355 6_454 ?
W1 W1 W1 60.52(2) 2_355 6_455 ?
W1 W1 W1 88.999(10) 2_355 6_456 ?
W1 W1 W1 91.001(8) 2_355 6_544 ?
W1 W1 W1 119.478(20) 2_355 6_545 ?
W1 W1 W1 124.193(8) 2_355 6_546 ?
W1 W1 W1 97.704(10) 2_355 6_554 ?
W1 W1 W1 133.64(2) 2_355 6_555 ?
W1 W1 W1 132.732(10) 2_355 6_556 ?
W1 W1 W1 144.665(6) 2_355 6_645 ?
W1 W1 W1 155.820(8) 2_355 6_655 ?
W1 W1 Fe1 46.362(12) 2_355 1_445 ?
W1 W1 Fe1 67.341(2) 2_355 1_456 ?
W1 W1 Fe1 60.522(14) 2_355 1_465 ?
W1 W1 Fe1 82.647(18) 2_355 1_545 ?
W1 W1 Fe1 70.316(3) 2_355 1_554 ?
W1 W1 Fe1 109.684(3) 2_355 1_556 ?
W1 W1 Fe1 97.35(2) 2_355 1_565 ?
W1 W1 Fe1 119.478(12) 2_355 1_645 ?
W1 W1 Fe1 112.659(3) 2_355 1_654 ?
W1 W1 Fe1 158.880(4) 2_355 1_655 ?
W1 W1 Fe1 151.671(3) 2_355 1_656 ?
W1 W1 Fe1 133.638(14) 2_355 1_665 ?
W1 W1 Fe1 58.818(14) 2_355 2_445 ?
W1 W1 Fe1 73.110(14) 2_355 2_446 ?
W1 W1 Fe1 66.079(7) 2_355 2_456 ?
W1 W1 Fe1 65.565(17) 2_355 2_465 ?
W1 W1 Fe1 82.945(17) 2_355 2_466 ?
W1 W1 Fe1 93.620(14) 2_355 2_545 ?
W1 W1 Fe1 106.879(14) 2_355 2_546 ?
W1 W1 Fe1 109.673(7) 2_355 2_555 ?
W1 W1 Fe1 144.430(7) 2_355 2_556 ?
W1 W1 Fe1 109.264(17) 2_355 2_565 ?
W1 W1 Fe1 128.373(17) 2_355 2_566 ?
W1 W1 Fe1 137.760(3) 2_355 2_655 ?
W1 W1 Fe1 165.294(3) 2_355 2_656 ?
W1 W1 Fe1 52.362(9) 2_355 5_456 ?
W1 W1 Fe1 54.638(8) 2_355 5_466 ?
W1 W1 Fe1 72.970(18) 2_355 5_555 ?
W1 W1 Fe1 94.566(18) 2_355 5_556 ?
W1 W1 Fe1 78.858(20) 2_355 5_565 ?
W1 W1 Fe1 110.269(20) 2_355 5_566 ?
W1 W1 Fe1 117.479(10) 2_355 5_655 ?
W1 W1 Fe1 136.226(10) 2_355 5_656 ?
W1 W1 Fe1 131.648(8) 2_355 5_665 ?
W1 W1 Fe1 165.199(8) 2_355 5_666 ?
W1 W1 Fe1 47.268(7) 2_355 6_444 ?
W1 W1 Fe1 46.362(19) 2_355 6_445 ?
W1 W1 Fe1 82.296(8) 2_355 6_446 ?
W1 W1 Fe1 55.807(10) 2_355 6_454 ?
W1 W1 Fe1 60.52(2) 2_355 6_455 ?
W1 W1 Fe1 88.999(10) 2_355 6_456 ?
W1 W1 Fe1 91.001(8) 2_355 6_544 ?
W1 W1 Fe1 119.478(20) 2_355 6_545 ?
W1 W1 Fe1 124.193(8) 2_355 6_546 ?
W1 W1 Fe1 97.704(10) 2_355 6_554 ?
W1 W1 Fe1 133.64(2) 2_355 6_555 ?
W1 W1 Fe1 132.732(10) 2_355 6_556 ?
W1 W1 Fe1 144.665(6) 2_355 6_645 ?
W1 W1 Fe1 155.820(8) 2_355 6_655 ?
W1 W1 O1 69.86(4) 2_355 1_456 ?
W1 W1 O1 59.44(4) 2_355 1_465 ?
W1 W1 O1 80.29(4) 2_355 1_466 ?
W1 W1 O1 90.06(4) 2_355 1_545 ?
W1 W1 O1 80.96(4) 2_355 1_554 ?
W1 W1 O1 112.19(11) 2_355 1_555 ?
W1 W1 O1 122.25(6) 2_355 1_556 ?
W1 W1 O1 88.19(4) 2_355 1_564 ?
W1 W1 O1 108.11(6) 2_355 1_565 ?
W1 W1 O1 120.34(5) 2_355 1_566 ?
W1 W1 O1 146.39(4) 2_355 1_655 ?
W1 W1 O1 157.01(4) 2_355 1_656 ?
W1 W1 O1 141.18(4) 2_355 1_665 ?
W1 W1 O1 51.04(3) 2_355 2_356 ?
W1 W1 O1 66.95(4) 2_355 2_445 ?
W1 W1 O1 85.02(4) 2_355 2_446 ?
W1 W1 O1 61.72(3) 2_355 2_454 ?
W1 W1 O1 92.70(7) 2_355 2_456 ?
W1 W1 O1 82.64(4) 2_355 2_465 ?
W1 W1 O1 97.43(4) 2_355 2_466 ?
W1 W1 O1 108.09(4) 2_355 2_545 ?
W1 W1 O1 121.16(4) 2_355 2_546 ?
W1 W1 O1 135.05(6) 2_355 2_555 ?
W1 W1 O1 156.47(6) 2_355 2_556 ?
W1 W1 O1 119.65(4) 2_355 2_565 ?
W1 W1 O1 51.24(3) 2_355 3_465 ?
W1 W1 O1 75.46(4) 2_355 3_545 ?
W1 W1 O1 52.95(4) 2_355 3_554 ?
W1 W1 O1 57.37(10) 2_355 3_555 ?
W1 W1 O1 96.08(5) 2_355 3_556 ?
W1 W1 O1 71.16(4) 2_355 3_564 ?
W1 W1 O1 86.08(5) 2_355 3_565 ?
W1 W1 O1 100.61(4) 2_355 3_566 ?
W1 W1 O1 106.71(4) 2_355 3_654 ?
W1 W1 O1 152.66(7) 2_355 3_655 ?
W1 W1 O1 136.35(5) 2_355 3_656 ?
W1 W1 O1 109.35(4) 2_355 3_664 ?
W1 W1 O1 135.21(5) 2_355 3_665 ?
W1 W1 O1 45.01(3) 2_355 4_444 ?
W1 W1 O1 58.86(3) 2_355 4_445 ?
W1 W1 O1 46.34(5) 2_355 4_455 ?
W1 W1 O1 73.64(4) 2_355 4_465 ?
W1 W1 O1 82.66(4) 2_355 4_544 ?
W1 W1 O1 98.71(5) 2_355 4_545 ?
W1 W1 O1 88.42(6) 2_355 4_554 ?
W1 W1 O1 142.58(12) 2_355 4_555 ?
W1 W1 O1 118.94(5) 2_355 4_556 ?
W1 W1 O1 95.22(4) 2_355 4_564 ?
W1 W1 O1 111.77(5) 2_355 4_565 ?
W1 W1 O1 129.73(4) 2_355 4_654 ?
W1 W1 O1 174.13(5) 2_355 4_655 ?
W1 W1 O1 49.57(3) 2_355 5_456 ?
W1 W1 O1 57.78(3) 2_355 5_466 ?
W1 W1 O1 58.98(3) 2_355 5_554 ?
W1 W1 O1 51.46(6) 2_355 5_555 ?
W1 W1 O1 85.17(6) 2_355 5_556 ?
W1 W1 O1 66.14(3) 2_355 5_564 ?
W1 W1 O1 69.05(6) 2_355 5_565 ?
W1 W1 O1 94.30(5) 2_355 5_566 ?
W1 W1 O1 119.72(5) 2_355 5_655 ?
W1 W1 O1 137.06(5) 2_355 5_656 ?
W1 W1 O1 127.69(5) 2_355 5_665 ?
W1 W1 O1 145.51(5) 2_355 5_666 ?
W1 W1 O1 69.11(4) 2_355 6_446 ?
W1 W1 O1 72.62(4) 2_355 6_456 ?
W1 W1 O1 78.01(3) 2_355 6_544 ?
W1 W1 O1 92.63(6) 2_355 6_545 ?
W1 W1 O1 108.57(5) 2_355 6_546 ?
W1 W1 O1 82.81(4) 2_355 6_554 ?
W1 W1 O1 115.98(11) 2_355 6_555 ?
W1 W1 O1 124.48(6) 2_355 6_556 ?
W1 W1 O1 102.85(4) 2_355 6_565 ?
W1 W1 O1 129.92(4) 2_355 6_645 ?
W1 W1 O1 151.25(5) 2_355 6_655 ?
W1 W1 O1 162.91(4) 2_355 6_656 ?
W1 W1 O1 50.25(4) 2_355 7_455 ?
W1 W1 O1 46.80(3) 2_355 7_464 ?
W1 W1 O1 63.32(4) 2_355 7_465 ?
W1 W1 O1 86.27(5) 2_355 7_554 ?
W1 W1 O1 115.14(7) 2_355 7_555 ?
W1 W1 O1 115.17(4) 2_355 7_556 ?
W1 W1 O1 95.33(5) 2_355 7_564 ?
W1 W1 O1 124.72(7) 2_355 7_565 ?
W1 W1 O1 120.69(4) 2_355 7_566 ?
W1 W1 O1 123.92(4) 2_355 7_654 ?
W1 W1 O1 149.70(4) 2_355 7_655 ?
W1 W1 O1 129.77(4) 2_355 7_664 ?
W1 W1 O1 160.16(4) 2_355 7_665 ?
W1 W1 O1 60.43(4) 2_355 8_444 ?
W1 W1 O1 73.23(5) 2_355 8_445 ?
W1 W1 O1 93.65(4) 2_355 8_446 ?
W1 W1 O1 61.52(5) 2_355 8_454 ?
W1 W1 O1 75.99(10) 2_355 8_455 ?
W1 W1 O1 101.07(5) 2_355 8_456 ?
W1 W1 O1 91.67(4) 2_355 8_465 ?
W1 W1 O1 101.82(4) 2_355 8_544 ?
W1 W1 O1 124.46(5) 2_355 8_545 ?
W1 W1 O1 111.74(4) 2_355 8_554 ?
W1 W1 O1 162.44(6) 2_355 8_555 ?
W1 W1 O1 141.45(5) 2_355 8_556 ?
W1 W1 W1 73.110(14) 2_356 2_445 ?
W1 W1 W1 58.818(14) 2_356 2_446 ?
W1 W1 W1 66.079(7) 2_356 2_455 ?
W1 W1 W1 82.945(17) 2_356 2_465 ?
W1 W1 W1 65.565(17) 2_356 2_466 ?
W1 W1 W1 106.879(14) 2_356 2_545 ?
W1 W1 W1 93.620(14) 2_356 2_546 ?
W1 W1 W1 144.430(7) 2_356 2_555 ?
W1 W1 W1 109.673(7) 2_356 2_556 ?
W1 W1 W1 128.373(17) 2_356 2_565 ?
W1 W1 W1 109.264(17) 2_356 2_566 ?
W1 W1 W1 165.294(3) 2_356 2_655 ?
W1 W1 W1 137.760(3) 2_356 2_656 ?
W1 W1 W1 52.362(9) 2_356 5_455 ?
W1 W1 W1 54.638(8) 2_356 5_465 ?
W1 W1 W1 94.566(18) 2_356 5_555 ?
W1 W1 W1 72.970(18) 2_356 5_556 ?
W1 W1 W1 110.269(20) 2_356 5_565 ?
W1 W1 W1 78.858(20) 2_356 5_566 ?
W1 W1 W1 136.226(10) 2_356 5_655 ?
W1 W1 W1 117.479(10) 2_356 5_656 ?
W1 W1 W1 165.199(8) 2_356 5_665 ?
W1 W1 W1 131.648(8) 2_356 5_666 ?
W1 W1 W1 82.296(8) 2_356 6_444 ?
W1 W1 W1 46.362(19) 2_356 6_445 ?
W1 W1 W1 47.268(7) 2_356 6_446 ?
W1 W1 W1 88.999(10) 2_356 6_454 ?
W1 W1 W1 60.52(2) 2_356 6_455 ?
W1 W1 W1 55.807(10) 2_356 6_456 ?
W1 W1 W1 124.193(8) 2_356 6_544 ?
W1 W1 W1 119.478(20) 2_356 6_545 ?
W1 W1 W1 91.001(8) 2_356 6_546 ?
W1 W1 W1 132.732(10) 2_356 6_554 ?
W1 W1 W1 133.64(2) 2_356 6_555 ?
W1 W1 W1 97.704(10) 2_356 6_556 ?
W1 W1 W1 144.665(6) 2_356 6_645 ?
W1 W1 W1 155.820(8) 2_356 6_655 ?
W1 W1 Fe1 46.362(12) 2_356 1_445 ?
W1 W1 Fe1 67.341(2) 2_356 1_454 ?
W1 W1 Fe1 60.522(14) 2_356 1_465 ?
W1 W1 Fe1 82.647(18) 2_356 1_545 ?
W1 W1 Fe1 109.684(3) 2_356 1_554 ?
W1 W1 Fe1 70.316(3) 2_356 1_556 ?
W1 W1 Fe1 97.35(2) 2_356 1_565 ?
W1 W1 Fe1 119.478(12) 2_356 1_645 ?
W1 W1 Fe1 151.671(3) 2_356 1_654 ?
W1 W1 Fe1 158.880(4) 2_356 1_655 ?
W1 W1 Fe1 112.659(3) 2_356 1_656 ?
W1 W1 Fe1 133.638(14) 2_356 1_665 ?
W1 W1 Fe1 73.110(14) 2_356 2_445 ?
W1 W1 Fe1 58.818(14) 2_356 2_446 ?
W1 W1 Fe1 66.079(7) 2_356 2_455 ?
W1 W1 Fe1 82.945(17) 2_356 2_465 ?
W1 W1 Fe1 65.565(17) 2_356 2_466 ?
W1 W1 Fe1 106.879(14) 2_356 2_545 ?
W1 W1 Fe1 93.620(14) 2_356 2_546 ?
W1 W1 Fe1 144.430(7) 2_356 2_555 ?
W1 W1 Fe1 109.673(7) 2_356 2_556 ?
W1 W1 Fe1 128.373(17) 2_356 2_565 ?
W1 W1 Fe1 109.264(17) 2_356 2_566 ?
W1 W1 Fe1 165.294(3) 2_356 2_655 ?
W1 W1 Fe1 137.760(3) 2_356 2_656 ?
W1 W1 Fe1 52.362(9) 2_356 5_455 ?
W1 W1 Fe1 54.638(8) 2_356 5_465 ?
W1 W1 Fe1 94.566(18) 2_356 5_555 ?
W1 W1 Fe1 72.970(18) 2_356 5_556 ?
W1 W1 Fe1 110.269(20) 2_356 5_565 ?
W1 W1 Fe1 78.858(20) 2_356 5_566 ?
W1 W1 Fe1 136.226(10) 2_356 5_655 ?
W1 W1 Fe1 117.479(10) 2_356 5_656 ?
W1 W1 Fe1 165.199(8) 2_356 5_665 ?
W1 W1 Fe1 131.648(8) 2_356 5_666 ?
W1 W1 Fe1 82.296(8) 2_356 6_444 ?
W1 W1 Fe1 46.362(19) 2_356 6_445 ?
W1 W1 Fe1 47.268(7) 2_356 6_446 ?
W1 W1 Fe1 88.999(10) 2_356 6_454 ?
W1 W1 Fe1 60.52(2) 2_356 6_455 ?
W1 W1 Fe1 55.807(10) 2_356 6_456 ?
W1 W1 Fe1 124.193(8) 2_356 6_544 ?
W1 W1 Fe1 119.478(20) 2_356 6_545 ?
W1 W1 Fe1 91.001(8) 2_356 6_546 ?
W1 W1 Fe1 132.732(10) 2_356 6_554 ?
W1 W1 Fe1 133.64(2) 2_356 6_555 ?
W1 W1 Fe1 97.704(10) 2_356 6_556 ?
W1 W1 Fe1 144.665(6) 2_356 6_645 ?
W1 W1 Fe1 155.820(8) 2_356 6_655 ?
W1 W1 O1 78.74(4) 2_356 1_454 ?
W1 W1 O1 65.85(4) 2_356 1_465 ?
W1 W1 O1 55.03(3) 2_356 1_466 ?
W1 W1 O1 94.62(4) 2_356 1_545 ?
W1 W1 O1 119.23(5) 2_356 1_554 ?
W1 W1 O1 131.81(12) 2_356 1_555 ?
W1 W1 O1 84.95(5) 2_356 1_556 ?
W1 W1 O1 119.84(4) 2_356 1_564 ?
W1 W1 O1 115.49(6) 2_356 1_565 ?
W1 W1 O1 92.98(4) 2_356 1_566 ?
W1 W1 O1 157.68(5) 2_356 1_655 ?
W1 W1 O1 122.37(4) 2_356 1_656 ?
W1 W1 O1 148.71(4) 2_356 1_665 ?
W1 W1 O1 78.78(4) 2_356 2_445 ?
W1 W1 O1 64.10(4) 2_356 2_446 ?
W1 W1 O1 101.01(4) 2_356 2_454 ?
W1 W1 O1 78.68(11) 2_356 2_455 ?
W1 W1 O1 53.64(6) 2_356 2_456 ?
W1 W1 O1 93.03(4) 2_356 2_465 ?
W1 W1 O1 78.60(4) 2_356 2_466 ?
W1 W1 O1 118.68(4) 2_356 2_545 ?
W1 W1 O1 102.01(4) 2_356 2_546 ?
W1 W1 O1 173.66(6) 2_356 2_555 ?
W1 W1 O1 117.20(5) 2_356 2_556 ?
W1 W1 O1 130.82(4) 2_356 2_565 ?
W1 W1 O1 54.68(3) 2_356 3_454 ?
W1 W1 O1 45.46(3) 2_356 3_465 ?
W1 W1 O1 70.70(3) 2_356 3_545 ?
W1 W1 O1 91.10(6) 2_356 3_554 ?
W1 W1 O1 57.35(4) 2_356 3_556 ?
W1 W1 O1 97.48(5) 2_356 3_564 ?
W1 W1 O1 79.17(5) 2_356 3_565 ?
W1 W1 O1 69.81(3) 2_356 3_566 ?
W1 W1 O1 143.01(5) 2_356 3_654 ?
W1 W1 O1 137.45(6) 2_356 3_655 ?
W1 W1 O1 98.61(4) 2_356 3_656 ?
W1 W1 O1 137.39(5) 2_356 3_664 ?
W1 W1 O1 127.63(5) 2_356 3_665 ?
W1 W1 O1 66.57(3) 2_356 4_444 ?
W1 W1 O1 46.65(3) 2_356 4_445 ?
W1 W1 O1 63.70(4) 2_356 4_454 ?
W1 W1 O1 63.86(3) 2_356 4_465 ?
W1 W1 O1 102.84(4) 2_356 4_544 ?
W1 W1 O1 87.39(4) 2_356 4_545 ?
W1 W1 O1 127.76(7) 2_356 4_554 ?
W1 W1 O1 103.33(11) 2_356 4_555 ?
W1 W1 O1 79.58(4) 2_356 4_556 ?
W1 W1 O1 114.70(4) 2_356 4_564 ?
W1 W1 O1 100.94(4) 2_356 4_565 ?
W1 W1 O1 168.37(5) 2_356 4_654 ?
W1 W1 O1 143.57(4) 2_356 4_655 ?
W1 W1 O1 48.69(3) 2_356 5_465 ?
W1 W1 O1 96.00(4) 2_356 5_554 ?
W1 W1 O1 73.68(7) 2_356 5_555 ?
W1 W1 O1 53.36(5) 2_356 5_556 ?
W1 W1 O1 101.44(4) 2_356 5_564 ?
W1 W1 O1 86.85(6) 2_356 5_565 ?
W1 W1 O1 66.33(5) 2_356 5_566 ?
W1 W1 O1 138.05(6) 2_356 5_655 ?
W1 W1 O1 108.38(5) 2_356 5_656 ?
W1 W1 O1 147.46(6) 2_356 5_665 ?
W1 W1 O1 115.32(5) 2_356 5_666 ?
W1 W1 O1 49.22(4) 2_356 6_445 ?
W1 W1 O1 80.58(4) 2_356 6_454 ?
W1 W1 O1 109.87(4) 2_356 6_544 ?
W1 W1 O1 100.19(6) 2_356 6_545 ?
W1 W1 O1 80.91(4) 2_356 6_546 ?
W1 W1 O1 120.97(5) 2_356 6_554 ?
W1 W1 O1 134.80(11) 2_356 6_555 ?
W1 W1 O1 87.37(5) 2_356 6_556 ?
W1 W1 O1 107.35(4) 2_356 6_565 ?
W1 W1 O1 136.15(4) 2_356 6_645 ?
W1 W1 O1 166.00(5) 2_356 6_655 ?
W1 W1 O1 124.53(4) 2_356 6_656 ?
W1 W1 O1 64.11(4) 2_356 7_454 ?
W1 W1 O1 73.27(4) 2_356 7_464 ?
W1 W1 O1 47.10(4) 2_356 7_465 ?
W1 W1 O1 116.58(6) 2_356 7_554 ?
W1 W1 O1 94.76(7) 2_356 7_555 ?
W1 W1 O1 78.78(3) 2_356 7_556 ?
W1 W1 O1 124.70(6) 2_356 7_564 ?
W1 W1 O1 105.49(7) 2_356 7_565 ?
W1 W1 O1 84.69(4) 2_356 7_566 ?
W1 W1 O1 150.34(4) 2_356 7_654 ?
W1 W1 O1 133.86(4) 2_356 7_655 ?
W1 W1 O1 160.41(4) 2_356 7_664 ?
W1 W1 O1 140.87(4) 2_356 7_665 ?
W1 W1 O1 59.33(3) 2_356 8_354 ?
W1 W1 O1 89.02(4) 2_356 8_444 ?
W1 W1 O1 65.19(5) 2_356 8_445 ?
W1 W1 O1 61.05(3) 2_356 8_446 ?
W1 W1 O1 97.76(6) 2_356 8_454 ?
W1 W1 O1 59.42(10) 2_356 8_455 ?
W1 W1 O1 63.39(4) 2_356 8_456 ?
W1 W1 O1 87.33(4) 2_356 8_465 ?
W1 W1 O1 128.16(4) 2_356 8_544 ?
W1 W1 O1 117.60(5) 2_356 8_545 ?
W1 W1 O1 149.62(5) 2_356 8_554 ?
W1 W1 O1 144.44(6) 2_356 8_555 ?
W1 W1 O1 102.84(4) 2_356 8_556 ?
W1 W1 W1 47.08(2) 2_445 2_455 ?
W1 W1 W1 78.25(2) 2_445 2_456 ?
W1 W1 W1 116.69(3) 2_445 2_465 ?
W1 W1 W1 137.77(3) 2_445 2_466 ?
W1 W1 W1 54.649(15) 2_445 2_546 ?
W1 W1 W1 74.09(2) 2_445 2_555 ?
W1 W1 W1 101.73(2) 2_445 2_556 ?
W1 W1 W1 134.21(3) 2_445 2_565 ?
W1 W1 W1 171.34(3) 2_445 2_566 ?
W1 W1 W1 93.620(14) 2_445 2_655 ?
W1 W1 W1 106.879(14) 2_445 2_656 ?
W1 W1 W1 52.414(14) 2_445 5_456 ?
W1 W1 W1 83.60(2) 2_445 5_465 ?
W1 W1 W1 101.02(2) 2_445 5_466 ?
W1 W1 W1 56.37(2) 2_445 5_556 ?
W1 W1 W1 105.16(4) 2_445 5_565 ?
W1 W1 W1 143.32(4) 2_445 5_566 ?
W1 W1 W1 64.780(14) 2_445 5_655 ?
W1 W1 W1 80.497(14) 2_445 5_656 ?
W1 W1 W1 113.85(2) 2_445 5_665 ?
W1 W1 W1 135.00(2) 2_445 5_666 ?
W1 W1 W1 51.444(13) 2_445 6_345 ?
W1 W1 W1 92.664(19) 2_445 6_355 ?
W1 W1 W1 75.628(14) 2_445 6_446 ?
W1 W1 W1 90.91(2) 2_445 6_454 ?
W1 W1 W1 119.34(4) 2_445 6_455 ?
W1 W1 W1 124.13(2) 2_445 6_456 ?
W1 W1 W1 55.866(14) 2_445 6_544 ?
W1 W1 W1 60.66(2) 2_445 6_545 ?
W1 W1 W1 89.090(14) 2_445 6_546 ?
W1 W1 W1 104.37(2) 2_445 6_554 ?
W1 W1 W1 152.20(4) 2_445 6_555 ?
W1 W1 W1 142.51(2) 2_445 6_556 ?
W1 W1 W1 87.336(13) 2_445 6_645 ?
W1 W1 W1 128.556(19) 2_445 6_655 ?
W1 W1 Fe1 62.676(15) 2_445 1_454 ?
W1 W1 Fe1 71.859(20) 2_445 1_455 ?
W1 W1 Fe1 92.099(15) 2_445 1_456 ?
W1 W1 Fe1 119.34(2) 2_445 1_465 ?
W1 W1 Fe1 70.289(19) 2_445 1_554 ?
W1 W1 Fe1 109.711(19) 2_445 1_556 ?
W1 W1 Fe1 152.68(3) 2_445 1_565 ?
W1 W1 Fe1 60.659(14) 2_445 1_645 ?
W1 W1 Fe1 87.901(15) 2_445 1_654 ?
W1 W1 Fe1 108.141(20) 2_445 1_655 ?
W1 W1 Fe1 117.324(15) 2_445 1_656 ?
W1 W1 Fe1 152.20(2) 2_445 1_665 ?
W1 W1 Fe1 58.818(14) 2_445 2_355 ?
W1 W1 Fe1 73.110(14) 2_445 2_356 ?
W1 W1 Fe1 47.08(2) 2_445 2_455 ?
W1 W1 Fe1 78.25(2) 2_445 2_456 ?
W1 W1 Fe1 116.69(3) 2_445 2_465 ?
W1 W1 Fe1 137.77(3) 2_445 2_466 ?
W1 W1 Fe1 54.649(15) 2_445 2_546 ?
W1 W1 Fe1 74.09(2) 2_445 2_555 ?
W1 W1 Fe1 101.73(2) 2_445 2_556 ?
W1 W1 Fe1 134.21(3) 2_445 2_565 ?
W1 W1 Fe1 171.34(3) 2_445 2_566 ?
W1 W1 Fe1 93.620(14) 2_445 2_655 ?
W1 W1 Fe1 106.879(14) 2_445 2_656 ?
W1 W1 Fe1 52.414(14) 2_445 5_456 ?
W1 W1 Fe1 83.60(2) 2_445 5_465 ?
W1 W1 Fe1 101.02(2) 2_445 5_466 ?
W1 W1 Fe1 56.37(2) 2_445 5_556 ?
W1 W1 Fe1 105.16(4) 2_445 5_565 ?
W1 W1 Fe1 143.32(4) 2_445 5_566 ?
W1 W1 Fe1 64.780(14) 2_445 5_655 ?
W1 W1 Fe1 80.497(14) 2_445 5_656 ?
W1 W1 Fe1 113.85(2) 2_445 5_665 ?
W1 W1 Fe1 135.00(2) 2_445 5_666 ?
W1 W1 Fe1 51.444(13) 2_445 6_345 ?
W1 W1 Fe1 92.664(19) 2_445 6_355 ?
W1 W1 Fe1 75.628(14) 2_445 6_446 ?
W1 W1 Fe1 90.91(2) 2_445 6_454 ?
W1 W1 Fe1 119.34(4) 2_445 6_455 ?
W1 W1 Fe1 124.13(2) 2_445 6_456 ?
W1 W1 Fe1 55.866(14) 2_445 6_544 ?
W1 W1 Fe1 60.66(2) 2_445 6_545 ?
W1 W1 Fe1 89.090(14) 2_445 6_546 ?
W1 W1 Fe1 104.37(2) 2_445 6_554 ?
W1 W1 Fe1 152.20(4) 2_445 6_555 ?
W1 W1 Fe1 142.51(2) 2_445 6_556 ?
W1 W1 Fe1 87.336(13) 2_445 6_645 ?
W1 W1 Fe1 128.556(19) 2_445 6_655 ?
W1 W1 O1 53.22(3) 2_445 1_454 ?
W1 W1 O1 49.05(5) 2_445 1_455 ?
W1 W1 O1 82.45(5) 2_445 1_456 ?
W1 W1 O1 117.54(6) 2_445 1_465 ?
W1 W1 O1 128.06(5) 2_445 1_466 ?
W1 W1 O1 64.08(4) 2_445 1_554 ?
W1 W1 O1 59.73(11) 2_445 1_555 ?
W1 W1 O1 99.09(6) 2_445 1_556 ?
W1 W1 O1 108.45(4) 2_445 1_564 ?
W1 W1 O1 149.87(7) 2_445 1_565 ?
W1 W1 O1 157.24(6) 2_445 1_566 ?
W1 W1 O1 94.41(4) 2_445 1_655 ?
W1 W1 O1 107.15(4) 2_445 1_656 ?
W1 W1 O1 137.79(5) 2_445 1_665 ?
W1 W1 O1 69.30(4) 2_445 2_355 ?
W1 W1 O1 86.45(4) 2_445 2_356 ?
W1 W1 O1 51.61(4) 2_445 2_446 ?
W1 W1 O1 69.72(4) 2_445 2_454 ?
W1 W1 O1 70.81(12) 2_445 2_455 ?
W1 W1 O1 107.09(8) 2_445 2_456 ?
W1 W1 O1 134.31(6) 2_445 2_465 ?
W1 W1 O1 151.65(5) 2_445 2_466 ?
W1 W1 O1 50.55(3) 2_445 2_545 ?
W1 W1 O1 69.48(3) 2_445 2_546 ?
W1 W1 O1 101.43(6) 2_445 2_555 ?
W1 W1 O1 120.38(6) 2_445 2_556 ?
W1 W1 O1 144.70(5) 2_445 2_565 ?
W1 W1 O1 53.76(3) 2_445 3_454 ?
W1 W1 O1 64.23(4) 2_445 3_455 ?
W1 W1 O1 108.79(4) 2_445 3_465 ?
W1 W1 O1 50.49(5) 2_445 3_554 ?
W1 W1 O1 51.89(11) 2_445 3_555 ?
W1 W1 O1 94.68(5) 2_445 3_556 ?
W1 W1 O1 110.08(5) 2_445 3_564 ?
W1 W1 O1 144.89(7) 2_445 3_565 ?
W1 W1 O1 137.88(5) 2_445 3_566 ?
W1 W1 O1 74.82(4) 2_445 3_654 ?
W1 W1 O1 93.85(6) 2_445 3_655 ?
W1 W1 O1 106.42(5) 2_445 3_656 ?
W1 W1 O1 120.89(5) 2_445 3_664 ?
W1 W1 O1 159.26(6) 2_445 3_665 ?
W1 W1 O1 65.89(5) 2_445 4_454 ?
W1 W1 O1 85.55(6) 2_445 4_455 ?
W1 W1 O1 131.53(5) 2_445 4_465 ?
W1 W1 O1 47.38(4) 2_445 4_545 ?
W1 W1 O1 80.89(7) 2_445 4_554 ?
W1 W1 O1 124.49(13) 2_445 4_555 ?
W1 W1 O1 114.63(5) 2_445 4_556 ?
W1 W1 O1 130.48(5) 2_445 4_564 ?
W1 W1 O1 170.38(6) 2_445 4_565 ?
W1 W1 O1 97.70(4) 2_445 4_654 ?
W1 W1 O1 115.70(5) 2_445 4_655 ?
W1 W1 O1 45.21(3) 2_445 5_455 ?
W1 W1 O1 65.67(3) 2_445 5_456 ?
W1 W1 O1 92.95(4) 2_445 5_465 ?
W1 W1 O1 105.95(4) 2_445 5_466 ?
W1 W1 O1 47.44(3) 2_445 5_554 ?
W1 W1 O1 69.50(6) 2_445 5_556 ?
W1 W1 O1 90.78(4) 2_445 5_564 ?
W1 W1 O1 118.70(8) 2_445 5_565 ?
W1 W1 O1 137.60(7) 2_445 5_566 ?
W1 W1 O1 66.93(5) 2_445 5_655 ?
W1 W1 O1 88.99(5) 2_445 5_656 ?
W1 W1 O1 131.53(6) 2_445 5_665 ?
W1 W1 O1 150.36(6) 2_445 5_666 ?
W1 W1 O1 61.15(4) 2_445 6_446 ?
W1 W1 O1 76.39(4) 2_445 6_454 ?
W1 W1 O1 90.52(6) 2_445 6_455 ?
W1 W1 O1 107.56(5) 2_445 6_456 ?
W1 W1 O1 71.76(4) 2_445 6_546 ?
W1 W1 O1 88.01(5) 2_445 6_554 ?
W1 W1 O1 134.79(13) 2_445 6_555 ?
W1 W1 O1 133.46(7) 2_445 6_556 ?
W1 W1 O1 151.69(5) 2_445 6_565 ?
W1 W1 O1 72.61(3) 2_445 6_645 ?
W1 W1 O1 119.25(5) 2_445 6_655 ?
W1 W1 O1 129.51(5) 2_445 6_656 ?
W1 W1 O1 52.75(5) 2_445 7_455 ?
W1 W1 O1 95.78(5) 2_445 7_464 ?
W1 W1 O1 117.63(6) 2_445 7_465 ?
W1 W1 O1 46.70(5) 2_445 7_554 ?
W1 W1 O1 66.51(7) 2_445 7_555 ?
W1 W1 O1 92.95(4) 2_445 7_556 ?
W1 W1 O1 115.24(6) 2_445 7_564 ?
W1 W1 O1 172.60(8) 2_445 7_565 ?
W1 W1 O1 136.18(5) 2_445 7_566 ?
W1 W1 O1 77.48(3) 2_445 7_654 ?
W1 W1 O1 91.07(4) 2_445 7_655 ?
W1 W1 O1 117.68(4) 2_445 7_664 ?
W1 W1 O1 138.66(5) 2_445 7_665 ?
W1 W1 O1 75.96(4) 2_445 8_354 ?
W1 W1 O1 89.36(4) 2_445 8_355 ?
W1 W1 O1 74.22(4) 2_445 8_446 ?
W1 W1 O1 86.06(6) 2_445 8_454 ?
W1 W1 O1 130.96(13) 2_445 8_455 ?
W1 W1 O1 119.88(5) 2_445 8_456 ?
W1 W1 O1 150.05(5) 2_445 8_465 ?
W1 W1 O1 55.19(3) 2_445 8_544 ?
W1 W1 O1 66.16(4) 2_445 8_545 ?
W1 W1 O1 101.33(5) 2_445 8_554 ?
W1 W1 O1 134.79(7) 2_445 8_555 ?
W1 W1 O1 129.87(5) 2_445 8_556 ?
W1 W1 W1 78.25(2) 2_446 2_455 ?
W1 W1 W1 47.08(2) 2_446 2_456 ?
W1 W1 W1 137.77(3) 2_446 2_465 ?
W1 W1 W1 116.69(3) 2_446 2_466 ?
W1 W1 W1 54.649(15) 2_446 2_545 ?
W1 W1 W1 101.73(2) 2_446 2_555 ?
W1 W1 W1 74.09(2) 2_446 2_556 ?
W1 W1 W1 171.34(3) 2_446 2_565 ?
W1 W1 W1 134.21(3) 2_446 2_566 ?
W1 W1 W1 106.879(14) 2_446 2_655 ?
W1 W1 W1 93.620(14) 2_446 2_656 ?
W1 W1 W1 52.414(14) 2_446 5_455 ?
W1 W1 W1 101.02(2) 2_446 5_465 ?
W1 W1 W1 83.60(2) 2_446 5_466 ?
W1 W1 W1 56.37(2) 2_446 5_555 ?
W1 W1 W1 143.32(4) 2_446 5_565 ?
W1 W1 W1 105.16(4) 2_446 5_566 ?
W1 W1 W1 80.497(14) 2_446 5_655 ?
W1 W1 W1 64.780(14) 2_446 5_656 ?
W1 W1 W1 135.00(2) 2_446 5_665 ?
W1 W1 W1 113.85(2) 2_446 5_666 ?
W1 W1 W1 51.444(13) 2_446 6_345 ?
W1 W1 W1 92.664(19) 2_446 6_355 ?
W1 W1 W1 75.628(14) 2_446 6_444 ?
W1 W1 W1 124.13(2) 2_446 6_454 ?
W1 W1 W1 119.34(4) 2_446 6_455 ?
W1 W1 W1 90.91(2) 2_446 6_456 ?
W1 W1 W1 89.090(14) 2_446 6_544 ?
W1 W1 W1 60.66(2) 2_446 6_545 ?
W1 W1 W1 55.866(14) 2_446 6_546 ?
W1 W1 W1 142.51(2) 2_446 6_554 ?
W1 W1 W1 152.20(4) 2_446 6_555 ?
W1 W1 W1 104.37(2) 2_446 6_556 ?
W1 W1 W1 87.336(13) 2_446 6_645 ?
W1 W1 W1 128.556(19) 2_446 6_655 ?
W1 W1 Fe1 92.099(15) 2_446 1_454 ?
W1 W1 Fe1 71.859(20) 2_446 1_455 ?
W1 W1 Fe1 62.676(15) 2_446 1_456 ?
W1 W1 Fe1 119.34(2) 2_446 1_465 ?
W1 W1 Fe1 109.711(19) 2_446 1_554 ?
W1 W1 Fe1 70.289(19) 2_446 1_556 ?
W1 W1 Fe1 152.68(3) 2_446 1_565 ?
W1 W1 Fe1 60.659(14) 2_446 1_645 ?
W1 W1 Fe1 117.324(15) 2_446 1_654 ?
W1 W1 Fe1 108.141(20) 2_446 1_655 ?
W1 W1 Fe1 87.901(15) 2_446 1_656 ?
W1 W1 Fe1 152.20(2) 2_446 1_665 ?
W1 W1 Fe1 73.110(14) 2_446 2_355 ?
W1 W1 Fe1 58.818(14) 2_446 2_356 ?
W1 W1 Fe1 78.25(2) 2_446 2_455 ?
W1 W1 Fe1 47.08(2) 2_446 2_456 ?
W1 W1 Fe1 137.77(3) 2_446 2_465 ?
W1 W1 Fe1 116.69(3) 2_446 2_466 ?
W1 W1 Fe1 54.649(15) 2_446 2_545 ?
W1 W1 Fe1 101.73(2) 2_446 2_555 ?
W1 W1 Fe1 74.09(2) 2_446 2_556 ?
W1 W1 Fe1 171.34(3) 2_446 2_565 ?
W1 W1 Fe1 134.21(3) 2_446 2_566 ?
W1 W1 Fe1 106.879(14) 2_446 2_655 ?
W1 W1 Fe1 93.620(14) 2_446 2_656 ?
W1 W1 Fe1 52.414(14) 2_446 5_455 ?
W1 W1 Fe1 101.02(2) 2_446 5_465 ?
W1 W1 Fe1 83.60(2) 2_446 5_466 ?
W1 W1 Fe1 56.37(2) 2_446 5_555 ?
W1 W1 Fe1 143.32(4) 2_446 5_565 ?
W1 W1 Fe1 105.16(4) 2_446 5_566 ?
W1 W1 Fe1 80.497(14) 2_446 5_655 ?
W1 W1 Fe1 64.780(14) 2_446 5_656 ?
W1 W1 Fe1 135.00(2) 2_446 5_665 ?
W1 W1 Fe1 113.85(2) 2_446 5_666 ?
W1 W1 Fe1 51.444(13) 2_446 6_345 ?
W1 W1 Fe1 92.664(19) 2_446 6_355 ?
W1 W1 Fe1 75.628(14) 2_446 6_444 ?
W1 W1 Fe1 124.13(2) 2_446 6_454 ?
W1 W1 Fe1 119.34(4) 2_446 6_455 ?
W1 W1 Fe1 90.91(2) 2_446 6_456 ?
W1 W1 Fe1 89.090(14) 2_446 6_544 ?
W1 W1 Fe1 60.66(2) 2_446 6_545 ?
W1 W1 Fe1 55.866(14) 2_446 6_546 ?
W1 W1 Fe1 142.51(2) 2_446 6_554 ?
W1 W1 Fe1 152.20(4) 2_446 6_555 ?
W1 W1 Fe1 104.37(2) 2_446 6_556 ?
W1 W1 Fe1 87.336(13) 2_446 6_645 ?
W1 W1 Fe1 128.556(19) 2_446 6_655 ?
W1 W1 O1 88.62(4) 2_446 1_454 ?
W1 W1 O1 59.77(6) 2_446 1_455 ?
W1 W1 O1 49.96(4) 2_446 1_456 ?
W1 W1 O1 124.17(6) 2_446 1_465 ?
W1 W1 O1 102.20(5) 2_446 1_466 ?
W1 W1 O1 102.08(5) 2_446 1_554 ?
W1 W1 O1 77.61(12) 2_446 1_555 ?
W1 W1 O1 62.32(5) 2_446 1_556 ?
W1 W1 O1 147.82(5) 2_446 1_564 ?
W1 W1 O1 169.91(7) 2_446 1_565 ?
W1 W1 O1 117.93(5) 2_446 1_566 ?
W1 W1 O1 99.75(4) 2_446 1_655 ?
W1 W1 O1 84.79(4) 2_446 1_656 ?
W1 W1 O1 144.71(5) 2_446 1_665 ?
W1 W1 O1 80.61(4) 2_446 2_355 ?
W1 W1 O1 66.25(4) 2_446 2_356 ?
W1 W1 O1 108.61(5) 2_446 2_454 ?
W1 W1 O1 103.63(12) 2_446 2_455 ?
W1 W1 O1 69.70(7) 2_446 2_456 ?
W1 W1 O1 151.62(6) 2_446 2_465 ?
W1 W1 O1 123.56(5) 2_446 2_466 ?
W1 W1 O1 62.24(3) 2_446 2_545 ?
W1 W1 O1 48.69(3) 2_446 2_546 ?
W1 W1 O1 118.99(7) 2_446 2_555 ?
W1 W1 O1 92.61(5) 2_446 2_556 ?
W1 W1 O1 167.23(5) 2_446 2_565 ?
W1 W1 O1 78.14(4) 2_446 3_454 ?
W1 W1 O1 58.19(3) 2_446 3_455 ?
W1 W1 O1 104.27(4) 2_446 3_465 ?
W1 W1 O1 89.21(6) 2_446 3_554 ?
W1 W1 O1 55.62(4) 2_446 3_556 ?
W1 W1 O1 142.85(6) 2_446 3_564 ?
W1 W1 O1 134.30(7) 2_446 3_565 ?
W1 W1 O1 102.23(4) 2_446 3_566 ?
W1 W1 O1 104.48(5) 2_446 3_654 ?
W1 W1 O1 85.14(6) 2_446 3_655 ?
W1 W1 O1 73.02(4) 2_446 3_656 ?
W1 W1 O1 156.69(5) 2_446 3_664 ?
W1 W1 O1 146.70(6) 2_446 3_665 ?
W1 W1 O1 49.01(3) 2_446 4_444 ?
W1 W1 O1 92.97(5) 2_446 4_454 ?
W1 W1 O1 68.65(6) 2_446 4_455 ?
W1 W1 O1 120.26(5) 2_446 4_465 ?
W1 W1 O1 58.81(4) 2_446 4_544 ?
W1 W1 O1 118.85(8) 2_446 4_554 ?
W1 W1 O1 90.11(12) 2_446 4_555 ?
W1 W1 O1 75.59(4) 2_446 4_556 ?
W1 W1 O1 167.53(5) 2_446 4_564 ?
W1 W1 O1 143.58(6) 2_446 4_565 ?
W1 W1 O1 118.35(5) 2_446 4_654 ?
W1 W1 O1 104.08(4) 2_446 4_655 ?
W1 W1 O1 57.74(3) 2_446 5_455 ?
W1 W1 O1 102.51(4) 2_446 5_465 ?
W1 W1 O1 88.40(4) 2_446 5_466 ?
W1 W1 O1 86.81(4) 2_446 5_554 ?
W1 W1 O1 50.63(7) 2_446 5_555 ?
W1 W1 O1 128.12(5) 2_446 5_564 ?
W1 W1 O1 141.55(8) 2_446 5_565 ?
W1 W1 O1 105.15(6) 2_446 5_566 ?
W1 W1 O1 81.74(5) 2_446 5_655 ?
W1 W1 O1 64.22(4) 2_446 5_656 ?
W1 W1 O1 153.51(6) 2_446 5_665 ?
W1 W1 O1 118.16(5) 2_446 5_666 ?
W1 W1 O1 108.98(5) 2_446 6_454 ?
W1 W1 O1 98.58(6) 2_446 6_455 ?
W1 W1 O1 78.97(5) 2_446 6_456 ?
W1 W1 O1 79.64(4) 2_446 6_544 ?
W1 W1 O1 45.61(5) 2_446 6_545 ?
W1 W1 O1 127.30(5) 2_446 6_554 ?
W1 W1 O1 166.29(13) 2_446 6_555 ?
W1 W1 O1 94.31(6) 2_446 6_556 ?
W1 W1 O1 162.99(5) 2_446 6_565 ?
W1 W1 O1 77.33(3) 2_446 6_645 ?
W1 W1 O1 125.62(5) 2_446 6_655 ?
W1 W1 O1 104.28(4) 2_446 6_656 ?
W1 W1 O1 65.94(4) 2_446 7_454 ?
W1 W1 O1 119.86(6) 2_446 7_464 ?
W1 W1 O1 103.40(6) 2_446 7_465 ?
W1 W1 O1 80.06(6) 2_446 7_554 ?
W1 W1 O1 55.30(3) 2_446 7_556 ?
W1 W1 O1 154.61(7) 2_446 7_564 ?
W1 W1 O1 133.53(8) 2_446 7_565 ?
W1 W1 O1 96.76(4) 2_446 7_566 ?
W1 W1 O1 95.43(4) 2_446 7_654 ?
W1 W1 O1 81.26(4) 2_446 7_655 ?
W1 W1 O1 140.11(5) 2_446 7_664 ?
W1 W1 O1 125.85(5) 2_446 7_665 ?
W1 W1 O1 98.45(4) 2_446 8_354 ?
W1 W1 O1 83.98(4) 2_446 8_355 ?
W1 W1 O1 64.85(4) 2_446 8_444 ?
W1 W1 O1 122.96(7) 2_446 8_454 ?
W1 W1 O1 112.86(12) 2_446 8_455 ?
W1 W1 O1 81.81(4) 2_446 8_456 ?
W1 W1 O1 142.24(5) 2_446 8_465 ?
W1 W1 O1 80.95(4) 2_446 8_544 ?
W1 W1 O1 59.55(4) 2_446 8_545 ?
W1 W1 O1 133.57(6) 2_446 8_554 ?
W1 W1 O1 124.37(7) 2_446 8_555 ?
W1 W1 O1 94.61(4) 2_446 8_556 ?
W1 W1 W1 90.099(9) 2_455 2_456 ?
W1 W1 W1 69.61(3) 2_455 2_465 ?
W1 W1 W1 105.23(3) 2_455 2_466 ?
W1 W1 W1 74.09(2) 2_455 2_545 ?
W1 W1 W1 101.73(2) 2_455 2_546 ?
W1 W1 W1 81.586(9) 2_455 2_555 ?
W1 W1 W1 148.803(9) 2_455 2_556 ?
W1 W1 W1 99.93(3) 2_455 2_565 ?
W1 W1 W1 141.58(3) 2_455 2_566 ?
W1 W1 W1 109.673(7) 2_455 2_655 ?
W1 W1 W1 144.430(7) 2_455 2_656 ?
W1 W1 W1 69.533(15) 2_455 5_456 ?
W1 W1 W1 82.326(15) 2_455 5_466 ?
W1 W1 W1 52.02(2) 2_455 5_555 ?
W1 W1 W1 99.63(2) 2_455 5_556 ?
W1 W1 W1 66.04(3) 2_455 5_565 ?
W1 W1 W1 136.71(3) 2_455 5_566 ?
W1 W1 W1 92.069(15) 2_455 5_655 ?
W1 W1 W1 125.715(15) 2_455 5_656 ?
W1 W1 W1 108.290(15) 2_455 5_665 ?
W1 W1 W1 161.609(15) 2_455 5_666 ?
W1 W1 W1 45.050(10) 2_455 6_345 ?
W1 W1 W1 59.750(15) 2_455 6_355 ?
W1 W1 W1 51.54(2) 2_455 6_445 ?
W1 W1 W1 101.877(12) 2_455 6_446 ?
W1 W1 W1 46.108(18) 2_455 6_454 ?
W1 W1 W1 78.11(3) 2_455 6_455 ?
W1 W1 W1 116.793(18) 2_455 6_456 ?
W1 W1 W1 63.207(12) 2_455 6_544 ?
W1 W1 W1 101.89(2) 2_455 6_545 ?
W1 W1 W1 133.892(12) 2_455 6_546 ?
W1 W1 W1 78.123(18) 2_455 6_554 ?
W1 W1 W1 128.46(3) 2_455 6_555 ?
W1 W1 W1 159.762(18) 2_455 6_556 ?
W1 W1 W1 120.250(10) 2_455 6_645 ?
W1 W1 W1 134.950(15) 2_455 6_655 ?
W1 W1 Fe1 51.537(19) 2_455 1_445 ?
W1 W1 Fe1 49.207(8) 2_455 1_455 ?
W1 W1 Fe1 94.408(8) 2_455 1_456 ?
W1 W1 Fe1 78.11(2) 2_455 1_465 ?
W1 W1 Fe1 74.40(3) 2_455 1_545 ?
W1 W1 Fe1 135.049(8) 2_455 1_556 ?
W1 W1 Fe1 105.60(3) 2_455 1_565 ?
W1 W1 Fe1 101.886(19) 2_455 1_645 ?
W1 W1 Fe1 85.592(8) 2_455 1_654 ?
W1 W1 Fe1 130.793(9) 2_455 1_655 ?
W1 W1 Fe1 164.401(8) 2_455 1_656 ?
W1 W1 Fe1 128.46(2) 2_455 1_665 ?
W1 W1 Fe1 66.079(7) 2_455 2_356 ?
W1 W1 Fe1 47.08(2) 2_455 2_445 ?
W1 W1 Fe1 78.25(2) 2_455 2_446 ?
W1 W1 Fe1 90.099(9) 2_455 2_456 ?
W1 W1 Fe1 69.61(3) 2_455 2_465 ?
W1 W1 Fe1 105.23(3) 2_455 2_466 ?
W1 W1 Fe1 74.09(2) 2_455 2_545 ?
W1 W1 Fe1 101.73(2) 2_455 2_546 ?
W1 W1 Fe1 81.586(9) 2_455 2_555 ?
W1 W1 Fe1 148.803(9) 2_455 2_556 ?
W1 W1 Fe1 99.93(3) 2_455 2_565 ?
W1 W1 Fe1 141.58(3) 2_455 2_566 ?
W1 W1 Fe1 109.673(7) 2_455 2_655 ?
W1 W1 Fe1 144.430(7) 2_455 2_656 ?
W1 W1 Fe1 69.533(15) 2_455 5_456 ?
W1 W1 Fe1 82.326(15) 2_455 5_466 ?
W1 W1 Fe1 52.02(2) 2_455 5_555 ?
W1 W1 Fe1 99.63(2) 2_455 5_556 ?
W1 W1 Fe1 66.04(3) 2_455 5_565 ?
W1 W1 Fe1 136.71(3) 2_455 5_566 ?
W1 W1 Fe1 92.069(15) 2_455 5_655 ?
W1 W1 Fe1 125.715(15) 2_455 5_656 ?
W1 W1 Fe1 108.290(15) 2_455 5_665 ?
W1 W1 Fe1 161.609(15) 2_455 5_666 ?
W1 W1 Fe1 45.050(10) 2_455 6_345 ?
W1 W1 Fe1 59.750(15) 2_455 6_355 ?
W1 W1 Fe1 51.54(2) 2_455 6_445 ?
W1 W1 Fe1 101.877(12) 2_455 6_446 ?
W1 W1 Fe1 46.108(18) 2_455 6_454 ?
W1 W1 Fe1 78.11(3) 2_455 6_455 ?
W1 W1 Fe1 116.793(18) 2_455 6_456 ?
W1 W1 Fe1 63.207(12) 2_455 6_544 ?
W1 W1 Fe1 101.89(2) 2_455 6_545 ?
W1 W1 Fe1 133.892(12) 2_455 6_546 ?
W1 W1 Fe1 78.123(18) 2_455 6_554 ?
W1 W1 Fe1 128.46(3) 2_455 6_555 ?
W1 W1 Fe1 159.762(18) 2_455 6_556 ?
W1 W1 Fe1 120.250(10) 2_455 6_645 ?
W1 W1 Fe1 134.950(15) 2_455 6_655 ?
W1 W1 O1 94.43(7) 2_455 1_456 ?
W1 W1 O1 73.47(6) 2_455 1_465 ?
W1 W1 O1 106.21(7) 2_455 1_466 ?
W1 W1 O1 76.70(5) 2_455 1_545 ?
W1 W1 O1 53.28(4) 2_455 1_554 ?
W1 W1 O1 87.08(12) 2_455 1_555 ?
W1 W1 O1 139.54(9) 2_455 1_556 ?
W1 W1 O1 73.38(5) 2_455 1_564 ?
W1 W1 O1 107.68(8) 2_455 1_565 ?
W1 W1 O1 143.02(8) 2_455 1_566 ?
W1 W1 O1 118.86(6) 2_455 1_655 ?
W1 W1 O1 152.20(6) 2_455 1_656 ?
W1 W1 O1 126.87(6) 2_455 1_665 ?
W1 W1 O1 78.77(5) 2_455 2_356 ?
W1 W1 O1 54.53(5) 2_455 2_445 ?
W1 W1 O1 91.95(6) 2_455 2_446 ?
W1 W1 O1 119.66(10) 2_455 2_456 ?
W1 W1 O1 87.33(6) 2_455 2_465 ?
W1 W1 O1 118.27(7) 2_455 2_466 ?
W1 W1 O1 87.37(5) 2_455 2_545 ?
W1 W1 O1 116.50(6) 2_455 2_546 ?
W1 W1 O1 107.90(7) 2_455 2_555 ?
W1 W1 O1 166.88(8) 2_455 2_556 ?
W1 W1 O1 112.61(6) 2_455 2_565 ?
W1 W1 O1 53.78(4) 2_455 3_455 ?
W1 W1 O1 73.84(5) 2_455 3_465 ?
W1 W1 O1 72.82(5) 2_455 3_545 ?
W1 W1 O1 73.24(12) 2_455 3_555 ?
W1 W1 O1 119.36(7) 2_455 3_556 ?
W1 W1 O1 65.43(5) 2_455 3_564 ?
W1 W1 O1 101.87(8) 2_455 3_565 ?
W1 W1 O1 127.32(7) 2_455 3_566 ?
W1 W1 O1 78.68(5) 2_455 3_654 ?
W1 W1 O1 131.99(8) 2_455 3_655 ?
W1 W1 O1 151.26(7) 2_455 3_656 ?
W1 W1 O1 93.60(6) 2_455 3_664 ?
W1 W1 O1 135.04(7) 2_455 3_665 ?
W1 W1 O1 67.16(5) 2_455 4_445 ?
W1 W1 O1 74.28(7) 2_455 4_455 ?
W1 W1 O1 93.63(6) 2_455 4_465 ?
W1 W1 O1 61.00(5) 2_455 4_544 ?
W1 W1 O1 94.34(6) 2_455 4_545 ?
W1 W1 O1 63.01(6) 2_455 4_554 ?
W1 W1 O1 167.17(15) 2_455 4_555 ?
W1 W1 O1 144.25(7) 2_455 4_556 ?
W1 W1 O1 89.38(6) 2_455 4_564 ?
W1 W1 O1 123.81(7) 2_455 4_565 ?
W1 W1 O1 102.50(5) 2_455 4_654 ?
W1 W1 O1 146.93(7) 2_455 4_655 ?
W1 W1 O1 72.55(5) 2_455 5_456 ?
W1 W1 O1 52.24(4) 2_455 5_465 ?
W1 W1 O1 85.00(5) 2_455 5_466 ?
W1 W1 O1 101.27(8) 2_455 5_556 ?
W1 W1 O1 50.85(5) 2_455 5_564 ?
W1 W1 O1 71.71(7) 2_455 5_565 ?
W1 W1 O1 120.24(8) 2_455 5_566 ?
W1 W1 O1 94.18(6) 2_455 5_655 ?
W1 W1 O1 136.02(7) 2_455 5_656 ?
W1 W1 O1 112.31(7) 2_455 5_665 ?
W1 W1 O1 162.35(8) 2_455 5_666 ?
W1 W1 O1 86.17(6) 2_455 6_446 ?
W1 W1 O1 51.56(5) 2_455 6_455 ?
W1 W1 O1 100.71(7) 2_455 6_456 ?
W1 W1 O1 50.94(4) 2_455 6_544 ?
W1 W1 O1 76.72(6) 2_455 6_545 ?
W1 W1 O1 115.73(7) 2_455 6_546 ?
W1 W1 O1 60.72(5) 2_455 6_554 ?
W1 W1 O1 104.91(12) 2_455 6_555 ?
W1 W1 O1 152.56(9) 2_455 6_556 ?
W1 W1 O1 106.20(6) 2_455 6_565 ?
W1 W1 O1 106.90(5) 2_455 6_645 ?
W1 W1 O1 126.63(6) 2_455 6_655 ?
W1 W1 O1 169.00(7) 2_455 6_656 ?
W1 W1 O1 67.99(6) 2_455 7_455 ?
W1 W1 O1 48.75(5) 2_455 7_464 ?
W1 W1 O1 87.79(7) 2_455 7_465 ?
W1 W1 O1 59.40(5) 2_455 7_554 ?
W1 W1 O1 113.47(9) 2_455 7_555 ?
W1 W1 O1 131.99(7) 2_455 7_556 ?
W1 W1 O1 81.31(6) 2_455 7_564 ?
W1 W1 O1 139.40(10) 2_455 7_565 ?
W1 W1 O1 148.63(7) 2_455 7_566 ?
W1 W1 O1 96.29(5) 2_455 7_654 ?
W1 W1 O1 130.91(6) 2_455 7_655 ?
W1 W1 O1 108.11(5) 2_455 7_664 ?
W1 W1 O1 148.78(6) 2_455 7_665 ?
W1 W1 O1 53.13(4) 2_455 8_345 ?
W1 W1 O1 63.12(5) 2_455 8_355 ?
W1 W1 O1 73.72(7) 2_455 8_445 ?
W1 W1 O1 109.11(7) 2_455 8_446 ?
W1 W1 O1 45.56(5) 2_455 8_454 ?
W1 W1 O1 98.88(13) 2_455 8_455 ?
W1 W1 O1 129.00(8) 2_455 8_456 ?
W1 W1 O1 104.46(6) 2_455 8_465 ?
W1 W1 O1 75.40(5) 2_455 8_544 ?
W1 W1 O1 109.58(6) 2_455 8_545 ?
W1 W1 O1 87.99(5) 2_455 8_554 ?
W1 W1 O1 146.90(8) 2_455 8_555 ?
W1 W1 O1 168.77(7) 2_455 8_556 ?
W1 W1 W1 105.23(3) 2_456 2_465 ?
W1 W1 W1 69.61(3) 2_456 2_466 ?
W1 W1 W1 101.73(2) 2_456 2_545 ?
W1 W1 W1 74.09(2) 2_456 2_546 ?
W1 W1 W1 148.803(9) 2_456 2_555 ?
W1 W1 W1 81.586(9) 2_456 2_556 ?
W1 W1 W1 141.58(3) 2_456 2_565 ?
W1 W1 W1 99.93(3) 2_456 2_566 ?
W1 W1 W1 144.430(7) 2_456 2_655 ?
W1 W1 W1 109.673(7) 2_456 2_656 ?
W1 W1 W1 69.533(15) 2_456 5_455 ?
W1 W1 W1 82.326(15) 2_456 5_465 ?
W1 W1 W1 99.63(2) 2_456 5_555 ?
W1 W1 W1 52.02(2) 2_456 5_556 ?
W1 W1 W1 136.71(3) 2_456 5_565 ?
W1 W1 W1 66.04(3) 2_456 5_566 ?
W1 W1 W1 125.715(15) 2_456 5_655 ?
W1 W1 W1 92.069(15) 2_456 5_656 ?
W1 W1 W1 161.609(15) 2_456 5_665 ?
W1 W1 W1 108.290(15) 2_456 5_666 ?
W1 W1 W1 45.050(10) 2_456 6_345 ?
W1 W1 W1 59.750(15) 2_456 6_355 ?
W1 W1 W1 101.877(12) 2_456 6_444 ?
W1 W1 W1 51.54(2) 2_456 6_445 ?
W1 W1 W1 116.793(18) 2_456 6_454 ?
W1 W1 W1 78.11(3) 2_456 6_455 ?
W1 W1 W1 46.108(18) 2_456 6_456 ?
W1 W1 W1 133.892(12) 2_456 6_544 ?
W1 W1 W1 101.89(2) 2_456 6_545 ?
W1 W1 W1 63.207(12) 2_456 6_546 ?
W1 W1 W1 159.762(18) 2_456 6_554 ?
W1 W1 W1 128.46(3) 2_456 6_555 ?
W1 W1 W1 78.123(18) 2_456 6_556 ?
W1 W1 W1 120.250(10) 2_456 6_645 ?
W1 W1 W1 134.950(15) 2_456 6_655 ?
W1 W1 Fe1 51.537(19) 2_456 1_445 ?
W1 W1 Fe1 94.408(8) 2_456 1_454 ?
W1 W1 Fe1 49.207(8) 2_456 1_455 ?
W1 W1 Fe1 78.11(2) 2_456 1_465 ?
W1 W1 Fe1 74.40(3) 2_456 1_545 ?
W1 W1 Fe1 135.049(8) 2_456 1_554 ?
W1 W1 Fe1 105.60(3) 2_456 1_565 ?
W1 W1 Fe1 101.886(19) 2_456 1_645 ?
W1 W1 Fe1 164.401(8) 2_456 1_654 ?
W1 W1 Fe1 130.793(9) 2_456 1_655 ?
W1 W1 Fe1 85.592(8) 2_456 1_656 ?
W1 W1 Fe1 128.46(2) 2_456 1_665 ?
W1 W1 Fe1 66.079(7) 2_456 2_355 ?
W1 W1 Fe1 78.25(2) 2_456 2_445 ?
W1 W1 Fe1 47.08(2) 2_456 2_446 ?
W1 W1 Fe1 90.099(9) 2_456 2_455 ?
W1 W1 Fe1 105.23(3) 2_456 2_465 ?
W1 W1 Fe1 69.61(3) 2_456 2_466 ?
W1 W1 Fe1 101.73(2) 2_456 2_545 ?
W1 W1 Fe1 74.09(2) 2_456 2_546 ?
W1 W1 Fe1 148.803(9) 2_456 2_555 ?
W1 W1 Fe1 81.586(9) 2_456 2_556 ?
W1 W1 Fe1 141.58(3) 2_456 2_565 ?
W1 W1 Fe1 99.93(3) 2_456 2_566 ?
W1 W1 Fe1 144.430(7) 2_456 2_655 ?
W1 W1 Fe1 109.673(7) 2_456 2_656 ?
W1 W1 Fe1 69.533(15) 2_456 5_455 ?
W1 W1 Fe1 82.326(15) 2_456 5_465 ?
W1 W1 Fe1 99.63(2) 2_456 5_555 ?
W1 W1 Fe1 52.02(2) 2_456 5_556 ?
W1 W1 Fe1 136.71(3) 2_456 5_565 ?
W1 W1 Fe1 66.04(3) 2_456 5_566 ?
W1 W1 Fe1 125.715(15) 2_456 5_655 ?
W1 W1 Fe1 92.069(15) 2_456 5_656 ?
W1 W1 Fe1 161.609(15) 2_456 5_665 ?
W1 W1 Fe1 108.290(15) 2_456 5_666 ?
W1 W1 Fe1 45.050(10) 2_456 6_345 ?
W1 W1 Fe1 59.750(15) 2_456 6_355 ?
W1 W1 Fe1 101.877(12) 2_456 6_444 ?
W1 W1 Fe1 51.54(2) 2_456 6_445 ?
W1 W1 Fe1 116.793(18) 2_456 6_454 ?
W1 W1 Fe1 78.11(3) 2_456 6_455 ?
W1 W1 Fe1 46.108(18) 2_456 6_456 ?
W1 W1 Fe1 133.892(12) 2_456 6_544 ?
W1 W1 Fe1 101.89(2) 2_456 6_545 ?
W1 W1 Fe1 63.207(12) 2_456 6_546 ?
W1 W1 Fe1 159.762(18) 2_456 6_554 ?
W1 W1 Fe1 128.46(3) 2_456 6_555 ?
W1 W1 Fe1 78.123(18) 2_456 6_556 ?
W1 W1 Fe1 120.250(10) 2_456 6_645 ?
W1 W1 Fe1 134.950(15) 2_456 6_655 ?
W1 W1 O1 103.49(6) 2_456 1_454 ?
W1 W1 O1 58.10(6) 2_456 1_455 ?
W1 W1 O1 85.64(6) 2_456 1_465 ?
W1 W1 O1 55.20(5) 2_456 1_466 ?
W1 W1 O1 86.38(6) 2_456 1_545 ?
W1 W1 O1 139.30(8) 2_456 1_554 ?
W1 W1 O1 123.80(14) 2_456 1_555 ?
W1 W1 O1 56.95(5) 2_456 1_556 ?
W1 W1 O1 145.68(7) 2_456 1_564 ?
W1 W1 O1 123.70(8) 2_456 1_565 ?
W1 W1 O1 81.19(6) 2_456 1_566 ?
W1 W1 O1 132.56(6) 2_456 1_655 ?
W1 W1 O1 94.32(5) 2_456 1_656 ?
W1 W1 O1 139.34(6) 2_456 1_665 ?
W1 W1 O1 65.54(5) 2_456 2_355 ?
W1 W1 O1 80.41(6) 2_456 2_445 ?
W1 W1 O1 45.46(4) 2_456 2_446 ?
W1 W1 O1 127.34(7) 2_456 2_454 ?
W1 W1 O1 106.34(14) 2_456 2_455 ?
W1 W1 O1 109.49(7) 2_456 2_465 ?
W1 W1 O1 77.70(6) 2_456 2_466 ?
W1 W1 O1 108.06(6) 2_456 2_545 ?
W1 W1 O1 78.25(5) 2_456 2_546 ?
W1 W1 O1 155.32(9) 2_456 2_555 ?
W1 W1 O1 90.46(6) 2_456 2_556 ?
W1 W1 O1 135.92(7) 2_456 2_565 ?
W1 W1 O1 80.50(5) 2_456 3_454 ?
W1 W1 O1 64.09(5) 2_456 3_465 ?
W1 W1 O1 62.46(5) 2_456 3_545 ?
W1 W1 O1 113.61(8) 2_456 3_554 ?
W1 W1 O1 122.43(7) 2_456 3_564 ?
W1 W1 O1 87.39(7) 2_456 3_565 ?
W1 W1 O1 59.63(5) 2_456 3_566 ?
W1 W1 O1 151.37(8) 2_456 3_654 ?
W1 W1 O1 110.51(7) 2_456 3_655 ?
W1 W1 O1 70.79(5) 2_456 3_656 ?
W1 W1 O1 155.89(7) 2_456 3_664 ?
W1 W1 O1 119.94(7) 2_456 3_665 ?
W1 W1 O1 78.77(5) 2_456 4_444 ?
W1 W1 O1 91.23(7) 2_456 4_454 ?
W1 W1 O1 74.30(5) 2_456 4_465 ?
W1 W1 O1 104.51(7) 2_456 4_544 ?
W1 W1 O1 70.25(5) 2_456 4_545 ?
W1 W1 O1 152.96(10) 2_456 4_554 ?
W1 W1 O1 77.91(11) 2_456 4_555 ?
W1 W1 O1 54.18(4) 2_456 4_556 ?
W1 W1 O1 132.52(7) 2_456 4_564 ?
W1 W1 O1 100.15(6) 2_456 4_565 ?
W1 W1 O1 158.70(7) 2_456 4_654 ?
W1 W1 O1 116.00(6) 2_456 4_655 ?
W1 W1 O1 59.72(4) 2_456 5_455 ?
W1 W1 O1 74.58(5) 2_456 5_465 ?
W1 W1 O1 116.38(7) 2_456 5_554 ?
W1 W1 O1 84.49(8) 2_456 5_555 ?
W1 W1 O1 129.45(7) 2_456 5_564 ?
W1 W1 O1 108.78(9) 2_456 5_565 ?
W1 W1 O1 60.18(6) 2_456 5_566 ?
W1 W1 O1 126.43(8) 2_456 5_655 ?
W1 W1 O1 81.02(5) 2_456 5_656 ?
W1 W1 O1 150.03(8) 2_456 5_665 ?
W1 W1 O1 96.87(6) 2_456 5_666 ?
W1 W1 O1 58.76(5) 2_456 6_445 ?
W1 W1 O1 108.57(7) 2_456 6_454 ?
W1 W1 O1 70.87(6) 2_456 6_455 ?
W1 W1 O1 121.39(7) 2_456 6_544 ?
W1 W1 O1 92.61(7) 2_456 6_545 ?
W1 W1 O1 55.47(5) 2_456 6_546 ?
W1 W1 O1 148.79(8) 2_456 6_554 ?
W1 W1 O1 144.83(14) 2_456 6_555 ?
W1 W1 O1 66.53(6) 2_456 6_556 ?
W1 W1 O1 115.98(7) 2_456 6_565 ?
W1 W1 O1 117.23(6) 2_456 6_645 ?
W1 W1 O1 142.49(7) 2_456 6_655 ?
W1 W1 O1 99.45(5) 2_456 6_656 ?
W1 W1 O1 84.32(6) 2_456 7_454 ?
W1 W1 O1 100.02(7) 2_456 7_464 ?
W1 W1 O1 58.31(5) 2_456 7_465 ?
W1 W1 O1 124.60(8) 2_456 7_554 ?
W1 W1 O1 71.33(7) 2_456 7_555 ?
W1 W1 O1 50.69(4) 2_456 7_556 ?
W1 W1 O1 148.19(9) 2_456 7_564 ?
W1 W1 O1 97.10(8) 2_456 7_565 ?
W1 W1 O1 65.62(5) 2_456 7_566 ?
W1 W1 O1 139.73(6) 2_456 7_654 ?
W1 W1 O1 107.26(5) 2_456 7_655 ?
W1 W1 O1 161.12(7) 2_456 7_664 ?
W1 W1 O1 120.58(6) 2_456 7_665 ?
W1 W1 O1 87.42(6) 2_456 8_354 ?
W1 W1 O1 49.55(4) 2_456 8_355 ?
W1 W1 O1 101.48(7) 2_456 8_444 ?
W1 W1 O1 56.24(6) 2_456 8_445 ?
W1 W1 O1 125.85(9) 2_456 8_454 ?
W1 W1 O1 66.06(11) 2_456 8_455 ?
W1 W1 O1 95.20(6) 2_456 8_465 ?
W1 W1 O1 128.00(7) 2_456 8_544 ?
W1 W1 O1 96.88(6) 2_456 8_545 ?
W1 W1 O1 177.70(8) 2_456 8_554 ?
W1 W1 O1 122.94(8) 2_456 8_555 ?
W1 W1 O1 78.72(5) 2_456 8_556 ?
W1 W1 W1 51.157(17) 2_465 2_466 ?
W1 W1 W1 134.21(3) 2_465 2_545 ?
W1 W1 W1 171.34(3) 2_465 2_546 ?
W1 W1 W1 99.93(3) 2_465 2_555 ?
W1 W1 W1 141.58(3) 2_465 2_556 ?
W1 W1 W1 46.977(17) 2_465 2_565 ?
W1 W1 W1 71.972(17) 2_465 2_566 ?
W1 W1 W1 109.264(17) 2_465 2_655 ?
W1 W1 W1 128.373(17) 2_465 2_656 ?
W1 W1 W1 91.15(2) 2_465 5_455 ?
W1 W1 W1 110.74(2) 2_465 5_456 ?
W1 W1 W1 65.939(15) 2_465 5_466 ?
W1 W1 W1 115.82(3) 2_465 5_555 ?
W1 W1 W1 155.92(3) 2_465 5_556 ?
W1 W1 W1 82.04(2) 2_465 5_566 ?
W1 W1 W1 126.12(2) 2_465 5_655 ?
W1 W1 W1 157.45(2) 2_465 5_656 ?
W1 W1 W1 82.254(15) 2_465 5_665 ?
W1 W1 W1 104.635(15) 2_465 5_666 ?
W1 W1 W1 86.321(20) 2_465 6_345 ?
W1 W1 W1 47.610(13) 2_465 6_355 ?
W1 W1 W1 82.58(2) 2_465 6_444 ?
W1 W1 W1 111.93(4) 2_465 6_445 ?
W1 W1 W1 124.67(2) 2_465 6_446 ?
W1 W1 W1 80.312(14) 2_465 6_456 ?
W1 W1 W1 99.69(2) 2_465 6_544 ?
W1 W1 W1 151.47(4) 2_465 6_545 ?
W1 W1 W1 150.02(2) 2_465 6_546 ?
W1 W1 W1 55.330(14) 2_465 6_554 ?
W1 W1 W1 68.07(2) 2_465 6_555 ?
W1 W1 W1 97.418(14) 2_465 6_556 ?
W1 W1 W1 132.390(20) 2_465 6_645 ?
W1 W1 W1 93.679(13) 2_465 6_655 ?
W1 W1 Fe1 111.93(3) 2_465 1_445 ?
W1 W1 Fe1 54.014(16) 2_465 1_454 ?
W1 W1 Fe1 66.511(19) 2_465 1_455 ?
W1 W1 Fe1 92.687(16) 2_465 1_456 ?
W1 W1 Fe1 144.01(3) 2_465 1_545 ?
W1 W1 Fe1 64.421(19) 2_465 1_554 ?
W1 W1 Fe1 115.579(19) 2_465 1_556 ?
W1 W1 Fe1 151.47(3) 2_465 1_645 ?
W1 W1 Fe1 87.313(16) 2_465 1_654 ?
W1 W1 Fe1 113.489(20) 2_465 1_655 ?
W1 W1 Fe1 125.986(16) 2_465 1_656 ?
W1 W1 Fe1 68.073(15) 2_465 1_665 ?
W1 W1 Fe1 65.565(17) 2_465 2_355 ?
W1 W1 Fe1 82.945(17) 2_465 2_356 ?
W1 W1 Fe1 116.69(3) 2_465 2_445 ?
W1 W1 Fe1 137.77(3) 2_465 2_446 ?
W1 W1 Fe1 69.61(3) 2_465 2_455 ?
W1 W1 Fe1 105.23(3) 2_465 2_456 ?
W1 W1 Fe1 51.157(17) 2_465 2_466 ?
W1 W1 Fe1 134.21(3) 2_465 2_545 ?
W1 W1 Fe1 171.34(3) 2_465 2_546 ?
W1 W1 Fe1 99.93(3) 2_465 2_555 ?
W1 W1 Fe1 141.58(3) 2_465 2_556 ?
W1 W1 Fe1 46.977(17) 2_465 2_565 ?
W1 W1 Fe1 71.972(17) 2_465 2_566 ?
W1 W1 Fe1 109.264(17) 2_465 2_655 ?
W1 W1 Fe1 128.373(17) 2_465 2_656 ?
W1 W1 Fe1 91.15(2) 2_465 5_455 ?
W1 W1 Fe1 110.74(2) 2_465 5_456 ?
W1 W1 Fe1 65.939(15) 2_465 5_466 ?
W1 W1 Fe1 115.82(3) 2_465 5_555 ?
W1 W1 Fe1 155.92(3) 2_465 5_556 ?
W1 W1 Fe1 82.04(2) 2_465 5_566 ?
W1 W1 Fe1 126.12(2) 2_465 5_655 ?
W1 W1 Fe1 157.45(2) 2_465 5_656 ?
W1 W1 Fe1 82.254(15) 2_465 5_665 ?
W1 W1 Fe1 104.635(15) 2_465 5_666 ?
W1 W1 Fe1 86.321(20) 2_465 6_345 ?
W1 W1 Fe1 47.610(13) 2_465 6_355 ?
W1 W1 Fe1 82.58(2) 2_465 6_444 ?
W1 W1 Fe1 111.93(4) 2_465 6_445 ?
W1 W1 Fe1 124.67(2) 2_465 6_446 ?
W1 W1 Fe1 80.312(14) 2_465 6_456 ?
W1 W1 Fe1 99.69(2) 2_465 6_544 ?
W1 W1 Fe1 151.47(4) 2_465 6_545 ?
W1 W1 Fe1 150.02(2) 2_465 6_546 ?
W1 W1 Fe1 55.330(14) 2_465 6_554 ?
W1 W1 Fe1 68.07(2) 2_465 6_555 ?
W1 W1 Fe1 97.418(14) 2_465 6_556 ?
W1 W1 Fe1 132.390(20) 2_465 6_645 ?
W1 W1 Fe1 93.679(13) 2_465 6_655 ?
W1 W1 O1 65.16(4) 2_465 1_454 ?
W1 W1 O1 78.78(6) 2_465 1_455 ?
W1 W1 O1 105.22(6) 2_465 1_456 ?
W1 W1 O1 63.35(4) 2_465 1_466 ?
W1 W1 O1 144.14(6) 2_465 1_545 ?
W1 W1 O1 80.21(5) 2_465 1_554 ?
W1 W1 O1 125.66(13) 2_465 1_555 ?
W1 W1 O1 136.56(7) 2_465 1_556 ?
W1 W1 O1 78.12(5) 2_465 1_566 ?
W1 W1 O1 119.37(5) 2_465 1_655 ?
W1 W1 O1 134.58(5) 2_465 1_656 ?
W1 W1 O1 77.53(4) 2_465 1_665 ?
W1 W1 O1 57.29(4) 2_465 2_355 ?
W1 W1 O1 80.89(4) 2_465 2_356 ?
W1 W1 O1 123.99(6) 2_465 2_445 ?
W1 W1 O1 146.77(6) 2_465 2_446 ?
W1 W1 O1 58.63(4) 2_465 2_454 ?
W1 W1 O1 47.07(11) 2_465 2_455 ?
W1 W1 O1 103.16(8) 2_465 2_456 ?
W1 W1 O1 56.73(4) 2_465 2_466 ?
W1 W1 O1 139.24(6) 2_465 2_545 ?
W1 W1 O1 173.24(6) 2_465 2_546 ?
W1 W1 O1 96.98(6) 2_465 2_555 ?
W1 W1 O1 122.74(6) 2_465 2_556 ?
W1 W1 O1 54.86(3) 2_465 2_565 ?
W1 W1 O1 64.40(4) 2_465 3_454 ?
W1 W1 O1 80.53(4) 2_465 3_455 ?
W1 W1 O1 140.41(6) 2_465 3_545 ?
W1 W1 O1 73.11(6) 2_465 3_554 ?
W1 W1 O1 115.99(13) 2_465 3_555 ?
W1 W1 O1 119.60(6) 2_465 3_556 ?
W1 W1 O1 77.89(4) 2_465 3_566 ?
W1 W1 O1 95.49(5) 2_465 3_654 ?
W1 W1 O1 136.91(8) 2_465 3_655 ?
W1 W1 O1 135.08(6) 2_465 3_656 ?
W1 W1 O1 54.51(3) 2_465 3_664 ?
W1 W1 O1 70.50(4) 2_465 3_665 ?
W1 W1 O1 101.87(5) 2_465 4_444 ?
W1 W1 O1 123.27(6) 2_465 4_445 ?
W1 W1 O1 50.99(4) 2_465 4_454 ?
W1 W1 O1 76.62(6) 2_465 4_455 ?
W1 W1 O1 121.33(6) 2_465 4_544 ?
W1 W1 O1 163.59(7) 2_465 4_545 ?
W1 W1 O1 69.44(7) 2_465 4_554 ?
W1 W1 O1 117.69(13) 2_465 4_555 ?
W1 W1 O1 117.17(5) 2_465 4_556 ?
W1 W1 O1 54.32(4) 2_465 4_565 ?
W1 W1 O1 95.31(4) 2_465 4_654 ?
W1 W1 O1 117.86(5) 2_465 4_655 ?
W1 W1 O1 81.34(4) 2_465 5_455 ?
W1 W1 O1 99.29(5) 2_465 5_456 ?
W1 W1 O1 62.74(4) 2_465 5_466 ?
W1 W1 O1 79.56(4) 2_465 5_554 ?
W1 W1 O1 104.85(8) 2_465 5_555 ?
W1 W1 O1 133.37(8) 2_465 5_556 ?
W1 W1 O1 70.69(5) 2_465 5_566 ?
W1 W1 O1 126.21(7) 2_465 5_655 ?
W1 W1 O1 154.22(7) 2_465 5_656 ?
W1 W1 O1 67.32(4) 2_465 5_665 ?
W1 W1 O1 92.87(5) 2_465 5_666 ?
W1 W1 O1 105.90(6) 2_465 6_445 ?
W1 W1 O1 122.43(6) 2_465 6_446 ?
W1 W1 O1 80.83(5) 2_465 6_456 ?
W1 W1 O1 99.41(5) 2_465 6_544 ?
W1 W1 O1 141.54(8) 2_465 6_545 ?
W1 W1 O1 158.48(7) 2_465 6_546 ?
W1 W1 O1 56.48(4) 2_465 6_554 ?
W1 W1 O1 53.99(10) 2_465 6_555 ?
W1 W1 O1 101.67(6) 2_465 6_556 ?
W1 W1 O1 137.49(5) 2_465 6_645 ?
W1 W1 O1 95.88(4) 2_465 6_655 ?
W1 W1 O1 112.54(5) 2_465 6_656 ?
W1 W1 O1 82.35(5) 2_465 7_454 ?
W1 W1 O1 108.51(7) 2_465 7_455 ?
W1 W1 O1 50.15(4) 2_465 7_465 ?
W1 W1 O1 104.89(7) 2_465 7_554 ?
W1 W1 O1 175.07(10) 2_465 7_555 ?
W1 W1 O1 138.63(6) 2_465 7_556 ?
W1 W1 O1 69.94(6) 2_465 7_565 ?
W1 W1 O1 96.79(5) 2_465 7_566 ?
W1 W1 O1 114.28(5) 2_465 7_654 ?
W1 W1 O1 140.82(5) 2_465 7_655 ?
W1 W1 O1 77.57(4) 2_465 7_664 ?
W1 W1 O1 94.72(4) 2_465 7_665 ?
W1 W1 O1 101.18(5) 2_465 8_345 ?
W1 W1 O1 57.50(4) 2_465 8_355 ?
W1 W1 O1 100.16(6) 2_465 8_444 ?
W1 W1 O1 138.78(8) 2_465 8_445 ?
W1 W1 O1 138.38(6) 2_465 8_446 ?
W1 W1 O1 49.40(10) 2_465 8_455 ?
W1 W1 O1 97.47(5) 2_465 8_456 ?
W1 W1 O1 115.03(5) 2_465 8_544 ?
W1 W1 O1 157.84(6) 2_465 8_545 ?
W1 W1 O1 72.89(4) 2_465 8_554 ?
W1 W1 O1 96.90(6) 2_465 8_555 ?
W1 W1 O1 112.10(5) 2_465 8_556 ?
W1 W1 W1 171.34(3) 2_466 2_545 ?
W1 W1 W1 134.21(3) 2_466 2_546 ?
W1 W1 W1 141.58(3) 2_466 2_555 ?
W1 W1 W1 99.93(3) 2_466 2_556 ?
W1 W1 W1 71.972(17) 2_466 2_565 ?
W1 W1 W1 46.977(17) 2_466 2_566 ?
W1 W1 W1 128.373(17) 2_466 2_655 ?
W1 W1 W1 109.264(17) 2_466 2_656 ?
W1 W1 W1 110.74(2) 2_466 5_455 ?
W1 W1 W1 91.15(2) 2_466 5_456 ?
W1 W1 W1 65.939(15) 2_466 5_465 ?
W1 W1 W1 155.92(3) 2_466 5_555 ?
W1 W1 W1 115.82(3) 2_466 5_556 ?
W1 W1 W1 82.04(2) 2_466 5_565 ?
W1 W1 W1 157.45(2) 2_466 5_655 ?
W1 W1 W1 126.12(2) 2_466 5_656 ?
W1 W1 W1 104.635(15) 2_466 5_665 ?
W1 W1 W1 82.254(15) 2_466 5_666 ?
W1 W1 W1 86.321(20) 2_466 6_345 ?
W1 W1 W1 47.610(13) 2_466 6_355 ?
W1 W1 W1 124.67(2) 2_466 6_444 ?
W1 W1 W1 111.93(4) 2_466 6_445 ?
W1 W1 W1 82.58(2) 2_466 6_446 ?
W1 W1 W1 80.312(14) 2_466 6_454 ?
W1 W1 W1 150.02(2) 2_466 6_544 ?
W1 W1 W1 151.47(4) 2_466 6_545 ?
W1 W1 W1 99.69(2) 2_466 6_546 ?
W1 W1 W1 97.418(14) 2_466 6_554 ?
W1 W1 W1 68.07(2) 2_466 6_555 ?
W1 W1 W1 55.330(14) 2_466 6_556 ?
W1 W1 W1 132.390(20) 2_466 6_645 ?
W1 W1 W1 93.679(13) 2_466 6_655 ?
W1 W1 Fe1 111.93(3) 2_466 1_445 ?
W1 W1 Fe1 92.687(16) 2_466 1_454 ?
W1 W1 Fe1 66.511(19) 2_466 1_455 ?
W1 W1 Fe1 54.014(16) 2_466 1_456 ?
W1 W1 Fe1 144.01(3) 2_466 1_545 ?
W1 W1 Fe1 115.579(19) 2_466 1_554 ?
W1 W1 Fe1 64.421(19) 2_466 1_556 ?
W1 W1 Fe1 151.47(3) 2_466 1_645 ?
W1 W1 Fe1 125.986(16) 2_466 1_654 ?
W1 W1 Fe1 113.489(20) 2_466 1_655 ?
W1 W1 Fe1 87.313(16) 2_466 1_656 ?
W1 W1 Fe1 68.073(15) 2_466 1_665 ?
W1 W1 Fe1 82.945(17) 2_466 2_355 ?
W1 W1 Fe1 65.565(17) 2_466 2_356 ?
W1 W1 Fe1 137.77(3) 2_466 2_445 ?
W1 W1 Fe1 116.69(3) 2_466 2_446 ?
W1 W1 Fe1 105.23(3) 2_466 2_455 ?
W1 W1 Fe1 69.61(3) 2_466 2_456 ?
W1 W1 Fe1 51.157(17) 2_466 2_465 ?
W1 W1 Fe1 171.34(3) 2_466 2_545 ?
W1 W1 Fe1 134.21(3) 2_466 2_546 ?
W1 W1 Fe1 141.58(3) 2_466 2_555 ?
W1 W1 Fe1 99.93(3) 2_466 2_556 ?
W1 W1 Fe1 71.972(17) 2_466 2_565 ?
W1 W1 Fe1 46.977(17) 2_466 2_566 ?
W1 W1 Fe1 128.373(17) 2_466 2_655 ?
W1 W1 Fe1 109.264(17) 2_466 2_656 ?
W1 W1 Fe1 110.74(2) 2_466 5_455 ?
W1 W1 Fe1 91.15(2) 2_466 5_456 ?
W1 W1 Fe1 65.939(15) 2_466 5_465 ?
W1 W1 Fe1 155.92(3) 2_466 5_555 ?
W1 W1 Fe1 115.82(3) 2_466 5_556 ?
W1 W1 Fe1 82.04(2) 2_466 5_565 ?
W1 W1 Fe1 157.45(2) 2_466 5_655 ?
W1 W1 Fe1 126.12(2) 2_466 5_656 ?
W1 W1 Fe1 104.635(15) 2_466 5_665 ?
W1 W1 Fe1 82.254(15) 2_466 5_666 ?
W1 W1 Fe1 86.321(20) 2_466 6_345 ?
W1 W1 Fe1 47.610(13) 2_466 6_355 ?
W1 W1 Fe1 124.67(2) 2_466 6_444 ?
W1 W1 Fe1 111.93(4) 2_466 6_445 ?
W1 W1 Fe1 82.58(2) 2_466 6_446 ?
W1 W1 Fe1 80.312(14) 2_466 6_454 ?
W1 W1 Fe1 150.02(2) 2_466 6_544 ?
W1 W1 Fe1 151.47(4) 2_466 6_545 ?
W1 W1 Fe1 99.69(2) 2_466 6_546 ?
W1 W1 Fe1 97.418(14) 2_466 6_554 ?
W1 W1 Fe1 68.07(2) 2_466 6_555 ?
W1 W1 Fe1 55.330(14) 2_466 6_556 ?
W1 W1 Fe1 132.390(20) 2_466 6_645 ?
W1 W1 Fe1 93.679(13) 2_466 6_655 ?
W1 W1 O1 108.39(5) 2_466 1_454 ?
W1 W1 O1 89.99(7) 2_466 1_455 ?
W1 W1 O1 66.88(5) 2_466 1_456 ?
W1 W1 O1 155.83(6) 2_466 1_545 ?
W1 W1 O1 131.09(6) 2_466 1_554 ?
W1 W1 O1 162.44(14) 2_466 1_555 ?
W1 W1 O1 85.95(6) 2_466 1_556 ?
W1 W1 O1 85.65(4) 2_466 1_564 ?
W1 W1 O1 54.32(5) 2_466 1_565 ?
W1 W1 O1 127.49(5) 2_466 1_655 ?
W1 W1 O1 102.02(4) 2_466 1_656 ?
W1 W1 O1 83.15(4) 2_466 1_665 ?
W1 W1 O1 72.75(4) 2_466 2_355 ?
W1 W1 O1 53.52(3) 2_466 2_356 ?
W1 W1 O1 144.23(7) 2_466 2_445 ?
W1 W1 O1 112.82(6) 2_466 2_446 ?
W1 W1 O1 109.36(5) 2_466 2_454 ?
W1 W1 O1 92.38(12) 2_466 2_455 ?
W1 W1 O1 53.66(6) 2_466 2_456 ?
W1 W1 O1 167.04(6) 2_466 2_545 ?
W1 W1 O1 126.63(5) 2_466 2_546 ?
W1 W1 O1 119.23(7) 2_466 2_555 ?
W1 W1 O1 87.22(5) 2_466 2_556 ?
W1 W1 O1 68.16(4) 2_466 2_565 ?
W1 W1 O1 93.53(4) 2_466 3_454 ?
W1 W1 O1 73.58(4) 2_466 3_455 ?
W1 W1 O1 131.97(6) 2_466 3_545 ?
W1 W1 O1 120.42(7) 2_466 3_554 ?
W1 W1 O1 93.88(13) 2_466 3_555 ?
W1 W1 O1 70.52(5) 2_466 3_556 ?
W1 W1 O1 68.53(4) 2_466 3_564 ?
W1 W1 O1 138.66(6) 2_466 3_654 ?
W1 W1 O1 122.41(7) 2_466 3_655 ?
W1 W1 O1 88.42(4) 2_466 3_656 ?
W1 W1 O1 86.45(4) 2_466 3_664 ?
W1 W1 O1 62.55(4) 2_466 3_665 ?
W1 W1 O1 127.02(5) 2_466 4_444 ?
W1 W1 O1 109.36(5) 2_466 4_445 ?
W1 W1 O1 87.69(6) 2_466 4_454 ?
W1 W1 O1 53.26(5) 2_466 4_455 ?
W1 W1 O1 165.61(6) 2_466 4_544 ?
W1 W1 O1 134.98(6) 2_466 4_545 ?
W1 W1 O1 117.98(8) 2_466 4_554 ?
W1 W1 O1 75.06(11) 2_466 4_555 ?
W1 W1 O1 66.70(4) 2_466 4_556 ?
W1 W1 O1 64.83(4) 2_466 4_564 ?
W1 W1 O1 121.93(5) 2_466 4_654 ?
W1 W1 O1 102.92(5) 2_466 4_655 ?
W1 W1 O1 93.90(5) 2_466 5_455 ?
W1 W1 O1 76.28(4) 2_466 5_456 ?
W1 W1 O1 53.01(3) 2_466 5_465 ?
W1 W1 O1 127.83(5) 2_466 5_554 ?
W1 W1 O1 134.00(9) 2_466 5_555 ?
W1 W1 O1 91.71(6) 2_466 5_556 ?
W1 W1 O1 89.14(5) 2_466 5_564 ?
W1 W1 O1 52.42(6) 2_466 5_565 ?
W1 W1 O1 155.30(7) 2_466 5_655 ?
W1 W1 O1 111.48(6) 2_466 5_656 ?
W1 W1 O1 84.91(5) 2_466 5_665 ?
W1 W1 O1 62.72(4) 2_466 5_666 ?
W1 W1 O1 113.91(6) 2_466 6_445 ?
W1 W1 O1 90.39(5) 2_466 6_446 ?
W1 W1 O1 88.40(5) 2_466 6_454 ?
W1 W1 O1 53.78(5) 2_466 6_455 ?
W1 W1 O1 149.95(6) 2_466 6_544 ?
W1 W1 O1 162.00(8) 2_466 6_545 ?
W1 W1 O1 108.64(6) 2_466 6_546 ?
W1 W1 O1 105.54(5) 2_466 6_554 ?
W1 W1 O1 75.75(11) 2_466 6_555 ?
W1 W1 O1 54.40(5) 2_466 6_556 ?
W1 W1 O1 46.41(3) 2_466 6_565 ?
W1 W1 O1 147.04(5) 2_466 6_645 ?
W1 W1 O1 102.85(5) 2_466 6_655 ?
W1 W1 O1 83.37(4) 2_466 6_656 ?
W1 W1 O1 113.65(6) 2_466 7_454 ?
W1 W1 O1 89.98(6) 2_466 7_455 ?
W1 W1 O1 64.84(4) 2_466 7_464 ?
W1 W1 O1 156.05(8) 2_466 7_554 ?
W1 W1 O1 123.92(9) 2_466 7_555 ?
W1 W1 O1 87.47(4) 2_466 7_556 ?
W1 W1 O1 83.13(6) 2_466 7_564 ?
W1 W1 O1 49.12(3) 2_466 7_566 ?
W1 W1 O1 144.08(5) 2_466 7_654 ?
W1 W1 O1 123.82(5) 2_466 7_655 ?
W1 W1 O1 99.92(4) 2_466 7_664 ?
W1 W1 O1 82.59(4) 2_466 7_665 ?
W1 W1 O1 95.28(5) 2_466 8_345 ?
W1 W1 O1 75.93(4) 2_466 8_354 ?
W1 W1 O1 48.90(3) 2_466 8_355 ?
W1 W1 O1 141.90(6) 2_466 8_444 ?
W1 W1 O1 125.74(8) 2_466 8_445 ?
W1 W1 O1 92.61(5) 2_466 8_446 ?
W1 W1 O1 91.04(6) 2_466 8_454 ?
W1 W1 O1 46.37(4) 2_466 8_456 ?
W1 W1 O1 162.27(6) 2_466 8_544 ?
W1 W1 O1 142.64(6) 2_466 8_545 ?
W1 W1 O1 109.68(5) 2_466 8_554 ?
W1 W1 O1 86.61(6) 2_466 8_555 ?
W1 W1 O1 70.03(4) 2_466 8_556 ?
W1 W1 W1 47.08(2) 2_545 2_555 ?
W1 W1 W1 78.25(2) 2_545 2_556 ?
W1 W1 W1 116.69(3) 2_545 2_565 ?
W1 W1 W1 137.77(3) 2_545 2_566 ?
W1 W1 W1 58.818(14) 2_545 2_655 ?
W1 W1 W1 73.110(14) 2_545 2_656 ?
W1 W1 W1 64.780(14) 2_545 5_455 ?
W1 W1 W1 80.497(14) 2_545 5_456 ?
W1 W1 W1 113.85(2) 2_545 5_465 ?
W1 W1 W1 135.00(2) 2_545 5_466 ?
W1 W1 W1 56.37(2) 2_545 5_556 ?
W1 W1 W1 105.16(4) 2_545 5_565 ?
W1 W1 W1 143.32(4) 2_545 5_566 ?
W1 W1 W1 52.414(14) 2_545 5_656 ?
W1 W1 W1 83.60(2) 2_545 5_665 ?
W1 W1 W1 101.02(2) 2_545 5_666 ?
W1 W1 W1 87.336(13) 2_545 6_345 ?
W1 W1 W1 128.556(19) 2_545 6_355 ?
W1 W1 W1 55.866(14) 2_545 6_444 ?
W1 W1 W1 60.66(2) 2_545 6_445 ?
W1 W1 W1 89.090(14) 2_545 6_446 ?
W1 W1 W1 104.37(2) 2_545 6_454 ?
W1 W1 W1 152.20(4) 2_545 6_455 ?
W1 W1 W1 142.51(2) 2_545 6_456 ?
W1 W1 W1 75.628(14) 2_545 6_546 ?
W1 W1 W1 90.91(2) 2_545 6_554 ?
W1 W1 W1 119.34(4) 2_545 6_555 ?
W1 W1 W1 124.13(2) 2_545 6_556 ?
W1 W1 W1 51.444(13) 2_545 6_645 ?
W1 W1 W1 92.664(19) 2_545 6_655 ?
W1 W1 Fe1 60.659(14) 2_545 1_445 ?
W1 W1 Fe1 87.901(15) 2_545 1_454 ?
W1 W1 Fe1 108.141(20) 2_545 1_455 ?
W1 W1 Fe1 117.324(15) 2_545 1_456 ?
W1 W1 Fe1 152.20(2) 2_545 1_465 ?
W1 W1 Fe1 70.289(19) 2_545 1_554 ?
W1 W1 Fe1 109.711(19) 2_545 1_556 ?
W1 W1 Fe1 152.68(3) 2_545 1_565 ?
W1 W1 Fe1 62.676(15) 2_545 1_654 ?
W1 W1 Fe1 71.859(20) 2_545 1_655 ?
W1 W1 Fe1 92.099(15) 2_545 1_656 ?
W1 W1 Fe1 119.34(2) 2_545 1_665 ?
W1 W1 Fe1 93.620(14) 2_545 2_355 ?
W1 W1 Fe1 106.879(14) 2_545 2_356 ?
W1 W1 Fe1 54.649(15) 2_545 2_446 ?
W1 W1 Fe1 74.09(2) 2_545 2_455 ?
W1 W1 Fe1 101.73(2) 2_545 2_456 ?
W1 W1 Fe1 134.21(3) 2_545 2_465 ?
W1 W1 Fe1 171.34(3) 2_545 2_466 ?
W1 W1 Fe1 47.08(2) 2_545 2_555 ?
W1 W1 Fe1 78.25(2) 2_545 2_556 ?
W1 W1 Fe1 116.69(3) 2_545 2_565 ?
W1 W1 Fe1 137.77(3) 2_545 2_566 ?
W1 W1 Fe1 58.818(14) 2_545 2_655 ?
W1 W1 Fe1 73.110(14) 2_545 2_656 ?
W1 W1 Fe1 64.780(14) 2_545 5_455 ?
W1 W1 Fe1 80.497(14) 2_545 5_456 ?
W1 W1 Fe1 113.85(2) 2_545 5_465 ?
W1 W1 Fe1 135.00(2) 2_545 5_466 ?
W1 W1 Fe1 56.37(2) 2_545 5_556 ?
W1 W1 Fe1 105.16(4) 2_545 5_565 ?
W1 W1 Fe1 143.32(4) 2_545 5_566 ?
W1 W1 Fe1 52.414(14) 2_545 5_656 ?
W1 W1 Fe1 83.60(2) 2_545 5_665 ?
W1 W1 Fe1 101.02(2) 2_545 5_666 ?
W1 W1 Fe1 87.336(13) 2_545 6_345 ?
W1 W1 Fe1 128.556(19) 2_545 6_355 ?
W1 W1 Fe1 55.866(14) 2_545 6_444 ?
W1 W1 Fe1 60.66(2) 2_545 6_445 ?
W1 W1 Fe1 89.090(14) 2_545 6_446 ?
W1 W1 Fe1 104.37(2) 2_545 6_454 ?
W1 W1 Fe1 152.20(4) 2_545 6_455 ?
W1 W1 Fe1 142.51(2) 2_545 6_456 ?
W1 W1 Fe1 75.628(14) 2_545 6_546 ?
W1 W1 Fe1 90.91(2) 2_545 6_554 ?
W1 W1 Fe1 119.34(4) 2_545 6_555 ?
W1 W1 Fe1 124.13(2) 2_545 6_556 ?
W1 W1 Fe1 51.444(13) 2_545 6_645 ?
W1 W1 Fe1 92.664(19) 2_545 6_655 ?
W1 W1 O1 73.02(4) 2_545 1_454 ?
W1 W1 O1 85.14(6) 2_545 1_455 ?
W1 W1 O1 104.48(5) 2_545 1_456 ?
W1 W1 O1 146.70(6) 2_545 1_465 ?
W1 W1 O1 156.69(5) 2_545 1_466 ?
W1 W1 O1 55.62(4) 2_545 1_554 ?
W1 W1 O1 89.21(6) 2_545 1_556 ?
W1 W1 O1 102.23(4) 2_545 1_564 ?
W1 W1 O1 134.30(7) 2_545 1_565 ?
W1 W1 O1 142.85(6) 2_545 1_566 ?
W1 W1 O1 58.19(3) 2_545 1_655 ?
W1 W1 O1 78.14(4) 2_545 1_656 ?
W1 W1 O1 104.27(4) 2_545 1_665 ?
W1 W1 O1 104.08(4) 2_545 2_355 ?
W1 W1 O1 118.35(5) 2_545 2_356 ?
W1 W1 O1 58.81(4) 2_545 2_446 ?
W1 W1 O1 75.59(4) 2_545 2_454 ?
W1 W1 O1 90.11(12) 2_545 2_455 ?
W1 W1 O1 118.85(8) 2_545 2_456 ?
W1 W1 O1 143.58(6) 2_545 2_465 ?
W1 W1 O1 167.53(5) 2_545 2_466 ?
W1 W1 O1 49.01(3) 2_545 2_546 ?
W1 W1 O1 68.65(6) 2_545 2_555 ?
W1 W1 O1 92.97(5) 2_545 2_556 ?
W1 W1 O1 120.26(5) 2_545 2_565 ?
W1 W1 O1 84.79(4) 2_545 3_454 ?
W1 W1 O1 99.75(4) 2_545 3_455 ?
W1 W1 O1 144.71(5) 2_545 3_465 ?
W1 W1 O1 62.32(5) 2_545 3_554 ?
W1 W1 O1 77.61(12) 2_545 3_555 ?
W1 W1 O1 102.08(5) 2_545 3_556 ?
W1 W1 O1 117.93(5) 2_545 3_564 ?
W1 W1 O1 169.91(7) 2_545 3_565 ?
W1 W1 O1 147.82(5) 2_545 3_566 ?
W1 W1 O1 49.96(4) 2_545 3_654 ?
W1 W1 O1 59.77(6) 2_545 3_655 ?
W1 W1 O1 88.62(4) 2_545 3_656 ?
W1 W1 O1 102.20(5) 2_545 3_664 ?
W1 W1 O1 124.17(6) 2_545 3_665 ?
W1 W1 O1 48.69(3) 2_545 4_444 ?
W1 W1 O1 62.24(3) 2_545 4_445 ?
W1 W1 O1 92.61(5) 2_545 4_454 ?
W1 W1 O1 118.99(7) 2_545 4_455 ?
W1 W1 O1 167.23(5) 2_545 4_465 ?
W1 W1 O1 69.70(7) 2_545 4_554 ?
W1 W1 O1 103.63(12) 2_545 4_555 ?
W1 W1 O1 108.61(5) 2_545 4_556 ?
W1 W1 O1 123.56(5) 2_545 4_564 ?
W1 W1 O1 151.62(6) 2_545 4_565 ?
W1 W1 O1 66.25(4) 2_545 4_654 ?
W1 W1 O1 80.61(4) 2_545 4_655 ?
W1 W1 O1 81.26(4) 2_545 5_455 ?
W1 W1 O1 95.43(4) 2_545 5_456 ?
W1 W1 O1 125.85(5) 2_545 5_465 ?
W1 W1 O1 140.11(5) 2_545 5_466 ?
W1 W1 O1 55.30(3) 2_545 5_554 ?
W1 W1 O1 80.06(6) 2_545 5_556 ?
W1 W1 O1 96.76(4) 2_545 5_564 ?
W1 W1 O1 133.53(8) 2_545 5_565 ?
W1 W1 O1 154.61(7) 2_545 5_566 ?
W1 W1 O1 65.94(4) 2_545 5_656 ?
W1 W1 O1 103.40(6) 2_545 5_665 ?
W1 W1 O1 119.86(6) 2_545 5_666 ?
W1 W1 O1 59.55(4) 2_545 6_445 ?
W1 W1 O1 80.95(4) 2_545 6_446 ?
W1 W1 O1 94.61(4) 2_545 6_454 ?
W1 W1 O1 124.37(7) 2_545 6_455 ?
W1 W1 O1 133.57(6) 2_545 6_456 ?
W1 W1 O1 64.85(4) 2_545 6_546 ?
W1 W1 O1 81.81(4) 2_545 6_554 ?
W1 W1 O1 112.86(12) 2_545 6_555 ?
W1 W1 O1 122.96(7) 2_545 6_556 ?
W1 W1 O1 142.24(5) 2_545 6_565 ?
W1 W1 O1 83.98(4) 2_545 6_655 ?
W1 W1 O1 98.45(4) 2_545 6_656 ?
W1 W1 O1 64.22(4) 2_545 7_454 ?
W1 W1 O1 81.74(5) 2_545 7_455 ?
W1 W1 O1 118.16(5) 2_545 7_464 ?
W1 W1 O1 153.51(6) 2_545 7_465 ?
W1 W1 O1 50.63(7) 2_545 7_555 ?
W1 W1 O1 86.81(4) 2_545 7_556 ?
W1 W1 O1 105.15(6) 2_545 7_564 ?
W1 W1 O1 141.55(8) 2_545 7_565 ?
W1 W1 O1 128.12(5) 2_545 7_566 ?
W1 W1 O1 57.74(3) 2_545 7_655 ?
W1 W1 O1 88.40(4) 2_545 7_664 ?
W1 W1 O1 102.51(4) 2_545 7_665 ?
W1 W1 O1 77.33(3) 2_545 8_345 ?
W1 W1 O1 104.28(4) 2_545 8_354 ?
W1 W1 O1 125.62(5) 2_545 8_355 ?
W1 W1 O1 45.61(5) 2_545 8_445 ?
W1 W1 O1 79.64(4) 2_545 8_446 ?
W1 W1 O1 94.31(6) 2_545 8_454 ?
W1 W1 O1 166.29(13) 2_545 8_455 ?
W1 W1 O1 127.30(5) 2_545 8_456 ?
W1 W1 O1 162.99(5) 2_545 8_465 ?
W1 W1 O1 78.97(5) 2_545 8_554 ?
W1 W1 O1 98.58(6) 2_545 8_555 ?
W1 W1 O1 108.98(5) 2_545 8_556 ?
W1 W1 W1 78.25(2) 2_546 2_555 ?
W1 W1 W1 47.08(2) 2_546 2_556 ?
W1 W1 W1 137.77(3) 2_546 2_565 ?
W1 W1 W1 116.69(3) 2_546 2_566 ?
W1 W1 W1 73.110(14) 2_546 2_655 ?
W1 W1 W1 58.818(14) 2_546 2_656 ?
W1 W1 W1 80.497(14) 2_546 5_455 ?
W1 W1 W1 64.780(14) 2_546 5_456 ?
W1 W1 W1 135.00(2) 2_546 5_465 ?
W1 W1 W1 113.85(2) 2_546 5_466 ?
W1 W1 W1 56.37(2) 2_546 5_555 ?
W1 W1 W1 143.32(4) 2_546 5_565 ?
W1 W1 W1 105.16(4) 2_546 5_566 ?
W1 W1 W1 52.414(14) 2_546 5_655 ?
W1 W1 W1 101.02(2) 2_546 5_665 ?
W1 W1 W1 83.60(2) 2_546 5_666 ?
W1 W1 W1 87.336(13) 2_546 6_345 ?
W1 W1 W1 128.556(19) 2_546 6_355 ?
W1 W1 W1 89.090(14) 2_546 6_444 ?
W1 W1 W1 60.66(2) 2_546 6_445 ?
W1 W1 W1 55.866(14) 2_546 6_446 ?
W1 W1 W1 142.51(2) 2_546 6_454 ?
W1 W1 W1 152.20(4) 2_546 6_455 ?
W1 W1 W1 104.37(2) 2_546 6_456 ?
W1 W1 W1 75.628(14) 2_546 6_544 ?
W1 W1 W1 124.13(2) 2_546 6_554 ?
W1 W1 W1 119.34(4) 2_546 6_555 ?
W1 W1 W1 90.91(2) 2_546 6_556 ?
W1 W1 W1 51.444(13) 2_546 6_645 ?
W1 W1 W1 92.664(19) 2_546 6_655 ?
W1 W1 Fe1 60.659(14) 2_546 1_445 ?
W1 W1 Fe1 117.324(15) 2_546 1_454 ?
W1 W1 Fe1 108.141(20) 2_546 1_455 ?
W1 W1 Fe1 87.901(15) 2_546 1_456 ?
W1 W1 Fe1 152.20(2) 2_546 1_465 ?
W1 W1 Fe1 109.711(19) 2_546 1_554 ?
W1 W1 Fe1 70.289(19) 2_546 1_556 ?
W1 W1 Fe1 152.68(3) 2_546 1_565 ?
W1 W1 Fe1 92.099(15) 2_546 1_654 ?
W1 W1 Fe1 71.859(20) 2_546 1_655 ?
W1 W1 Fe1 62.676(15) 2_546 1_656 ?
W1 W1 Fe1 119.34(2) 2_546 1_665 ?
W1 W1 Fe1 106.879(14) 2_546 2_355 ?
W1 W1 Fe1 93.620(14) 2_546 2_356 ?
W1 W1 Fe1 54.649(15) 2_546 2_445 ?
W1 W1 Fe1 101.73(2) 2_546 2_455 ?
W1 W1 Fe1 74.09(2) 2_546 2_456 ?
W1 W1 Fe1 171.34(3) 2_546 2_465 ?
W1 W1 Fe1 134.21(3) 2_546 2_466 ?
W1 W1 Fe1 78.25(2) 2_546 2_555 ?
W1 W1 Fe1 47.08(2) 2_546 2_556 ?
W1 W1 Fe1 137.77(3) 2_546 2_565 ?
W1 W1 Fe1 116.69(3) 2_546 2_566 ?
W1 W1 Fe1 73.110(14) 2_546 2_655 ?
W1 W1 Fe1 58.818(14) 2_546 2_656 ?
W1 W1 Fe1 80.497(14) 2_546 5_455 ?
W1 W1 Fe1 64.780(14) 2_546 5_456 ?
W1 W1 Fe1 135.00(2) 2_546 5_465 ?
W1 W1 Fe1 113.85(2) 2_546 5_466 ?
W1 W1 Fe1 56.37(2) 2_546 5_555 ?
W1 W1 Fe1 143.32(4) 2_546 5_565 ?
W1 W1 Fe1 105.16(4) 2_546 5_566 ?
W1 W1 Fe1 52.414(14) 2_546 5_655 ?
W1 W1 Fe1 101.02(2) 2_546 5_665 ?
W1 W1 Fe1 83.60(2) 2_546 5_666 ?
W1 W1 Fe1 87.336(13) 2_546 6_345 ?
W1 W1 Fe1 128.556(19) 2_546 6_355 ?
W1 W1 Fe1 89.090(14) 2_546 6_444 ?
W1 W1 Fe1 60.66(2) 2_546 6_445 ?
W1 W1 Fe1 55.866(14) 2_546 6_446 ?
W1 W1 Fe1 142.51(2) 2_546 6_454 ?
W1 W1 Fe1 152.20(4) 2_546 6_455 ?
W1 W1 Fe1 104.37(2) 2_546 6_456 ?
W1 W1 Fe1 75.628(14) 2_546 6_544 ?
W1 W1 Fe1 124.13(2) 2_546 6_554 ?
W1 W1 Fe1 119.34(4) 2_546 6_555 ?
W1 W1 Fe1 90.91(2) 2_546 6_556 ?
W1 W1 Fe1 51.444(13) 2_546 6_645 ?
W1 W1 Fe1 92.664(19) 2_546 6_655 ?
W1 W1 O1 106.42(5) 2_546 1_454 ?
W1 W1 O1 93.85(6) 2_546 1_455 ?
W1 W1 O1 74.82(4) 2_546 1_456 ?
W1 W1 O1 159.26(6) 2_546 1_465 ?
W1 W1 O1 120.89(5) 2_546 1_466 ?
W1 W1 O1 94.68(5) 2_546 1_554 ?
W1 W1 O1 51.89(11) 2_546 1_555 ?
W1 W1 O1 50.49(5) 2_546 1_556 ?
W1 W1 O1 137.88(5) 2_546 1_564 ?
W1 W1 O1 144.89(7) 2_546 1_565 ?
W1 W1 O1 110.08(5) 2_546 1_566 ?
W1 W1 O1 64.23(4) 2_546 1_655 ?
W1 W1 O1 53.76(3) 2_546 1_656 ?
W1 W1 O1 108.79(4) 2_546 1_665 ?
W1 W1 O1 115.70(5) 2_546 2_355 ?
W1 W1 O1 97.70(4) 2_546 2_356 ?
W1 W1 O1 47.38(4) 2_546 2_445 ?
W1 W1 O1 114.63(5) 2_546 2_454 ?
W1 W1 O1 124.49(13) 2_546 2_455 ?
W1 W1 O1 80.89(7) 2_546 2_456 ?
W1 W1 O1 170.38(6) 2_546 2_465 ?
W1 W1 O1 130.48(5) 2_546 2_466 ?
W1 W1 O1 85.55(6) 2_546 2_555 ?
W1 W1 O1 65.89(5) 2_546 2_556 ?
W1 W1 O1 131.53(5) 2_546 2_565 ?
W1 W1 O1 107.15(4) 2_546 3_454 ?
W1 W1 O1 94.41(4) 2_546 3_455 ?
W1 W1 O1 137.79(5) 2_546 3_465 ?
W1 W1 O1 99.09(6) 2_546 3_554 ?
W1 W1 O1 59.73(11) 2_546 3_555 ?
W1 W1 O1 64.08(4) 2_546 3_556 ?
W1 W1 O1 157.24(6) 2_546 3_564 ?
W1 W1 O1 149.87(7) 2_546 3_565 ?
W1 W1 O1 108.45(4) 2_546 3_566 ?
W1 W1 O1 82.45(5) 2_546 3_654 ?
W1 W1 O1 49.05(5) 2_546 3_655 ?
W1 W1 O1 53.22(3) 2_546 3_656 ?
W1 W1 O1 128.06(5) 2_546 3_664 ?
W1 W1 O1 117.54(6) 2_546 3_665 ?
W1 W1 O1 69.48(3) 2_546 4_444 ?
W1 W1 O1 50.55(3) 2_546 4_445 ?
W1 W1 O1 120.38(6) 2_546 4_454 ?
W1 W1 O1 101.43(6) 2_546 4_455 ?
W1 W1 O1 144.70(5) 2_546 4_465 ?
W1 W1 O1 51.61(4) 2_546 4_544 ?
W1 W1 O1 107.09(8) 2_546 4_554 ?
W1 W1 O1 70.81(12) 2_546 4_555 ?
W1 W1 O1 69.72(4) 2_546 4_556 ?
W1 W1 O1 151.65(5) 2_546 4_564 ?
W1 W1 O1 134.31(6) 2_546 4_565 ?
W1 W1 O1 86.45(4) 2_546 4_654 ?
W1 W1 O1 69.30(4) 2_546 4_655 ?
W1 W1 O1 91.07(4) 2_546 5_455 ?
W1 W1 O1 77.48(3) 2_546 5_456 ?
W1 W1 O1 138.66(5) 2_546 5_465 ?
W1 W1 O1 117.68(4) 2_546 5_466 ?
W1 W1 O1 92.95(4) 2_546 5_554 ?
W1 W1 O1 66.51(7) 2_546 5_555 ?
W1 W1 O1 46.70(5) 2_546 5_556 ?
W1 W1 O1 136.18(5) 2_546 5_564 ?
W1 W1 O1 172.60(8) 2_546 5_565 ?
W1 W1 O1 115.24(6) 2_546 5_566 ?
W1 W1 O1 52.75(5) 2_546 5_655 ?
W1 W1 O1 117.63(6) 2_546 5_665 ?
W1 W1 O1 95.78(5) 2_546 5_666 ?
W1 W1 O1 66.16(4) 2_546 6_445 ?
W1 W1 O1 55.19(3) 2_546 6_446 ?
W1 W1 O1 129.87(5) 2_546 6_454 ?
W1 W1 O1 134.79(7) 2_546 6_455 ?
W1 W1 O1 101.33(5) 2_546 6_456 ?
W1 W1 O1 74.22(4) 2_546 6_544 ?
W1 W1 O1 119.88(5) 2_546 6_554 ?
W1 W1 O1 130.96(13) 2_546 6_555 ?
W1 W1 O1 86.06(6) 2_546 6_556 ?
W1 W1 O1 150.05(5) 2_546 6_565 ?
W1 W1 O1 89.36(4) 2_546 6_655 ?
W1 W1 O1 75.96(4) 2_546 6_656 ?
W1 W1 O1 88.99(5) 2_546 7_454 ?
W1 W1 O1 66.93(5) 2_546 7_455 ?
W1 W1 O1 150.36(6) 2_546 7_464 ?
W1 W1 O1 131.53(6) 2_546 7_465 ?
W1 W1 O1 69.50(6) 2_546 7_554 ?
W1 W1 O1 47.44(3) 2_546 7_556 ?
W1 W1 O1 137.60(7) 2_546 7_564 ?
W1 W1 O1 118.70(8) 2_546 7_565 ?
W1 W1 O1 90.78(4) 2_546 7_566 ?
W1 W1 O1 65.67(3) 2_546 7_654 ?
W1 W1 O1 45.21(3) 2_546 7_655 ?
W1 W1 O1 105.95(4) 2_546 7_664 ?
W1 W1 O1 92.95(4) 2_546 7_665 ?
W1 W1 O1 72.61(3) 2_546 8_345 ?
W1 W1 O1 129.51(5) 2_546 8_354 ?
W1 W1 O1 119.25(5) 2_546 8_355 ?
W1 W1 O1 71.76(4) 2_546 8_444 ?
W1 W1 O1 133.46(7) 2_546 8_454 ?
W1 W1 O1 134.79(13) 2_546 8_455 ?
W1 W1 O1 88.01(5) 2_546 8_456 ?
W1 W1 O1 151.69(5) 2_546 8_465 ?
W1 W1 O1 61.15(4) 2_546 8_544 ?
W1 W1 O1 107.56(5) 2_546 8_554 ?
W1 W1 O1 90.52(6) 2_546 8_555 ?
W1 W1 O1 76.39(4) 2_546 8_556 ?
W1 W1 W1 90.099(9) 2_555 2_556 ?
W1 W1 W1 69.61(3) 2_555 2_565 ?
W1 W1 W1 105.23(3) 2_555 2_566 ?
W1 W1 W1 66.079(7) 2_555 2_656 ?
W1 W1 W1 92.069(15) 2_555 5_455 ?
W1 W1 W1 125.715(15) 2_555 5_456 ?
W1 W1 W1 108.290(15) 2_555 5_465 ?
W1 W1 W1 161.609(15) 2_555 5_466 ?
W1 W1 W1 52.02(2) 2_555 5_555 ?
W1 W1 W1 99.63(2) 2_555 5_556 ?
W1 W1 W1 66.04(3) 2_555 5_565 ?
W1 W1 W1 136.71(3) 2_555 5_566 ?
W1 W1 W1 69.533(15) 2_555 5_656 ?
W1 W1 W1 82.326(15) 2_555 5_666 ?
W1 W1 W1 120.250(10) 2_555 6_345 ?
W1 W1 W1 134.950(15) 2_555 6_355 ?
W1 W1 W1 63.207(12) 2_555 6_444 ?
W1 W1 W1 101.89(2) 2_555 6_445 ?
W1 W1 W1 133.892(12) 2_555 6_446 ?
W1 W1 W1 78.123(18) 2_555 6_454 ?
W1 W1 W1 128.46(3) 2_555 6_455 ?
W1 W1 W1 159.762(18) 2_555 6_456 ?
W1 W1 W1 51.54(2) 2_555 6_545 ?
W1 W1 W1 101.877(12) 2_555 6_546 ?
W1 W1 W1 46.108(18) 2_555 6_554 ?
W1 W1 W1 78.11(3) 2_555 6_555 ?
W1 W1 W1 116.793(18) 2_555 6_556 ?
W1 W1 W1 45.050(10) 2_555 6_645 ?
W1 W1 W1 59.750(15) 2_555 6_655 ?
W1 W1 Fe1 101.886(19) 2_555 1_445 ?
W1 W1 Fe1 85.592(8) 2_555 1_454 ?
W1 W1 Fe1 130.793(9) 2_555 1_455 ?
W1 W1 Fe1 164.401(8) 2_555 1_456 ?
W1 W1 Fe1 128.46(2) 2_555 1_465 ?
W1 W1 Fe1 74.40(3) 2_555 1_545 ?
W1 W1 Fe1 135.049(8) 2_555 1_556 ?
W1 W1 Fe1 105.60(3) 2_555 1_565 ?
W1 W1 Fe1 51.537(19) 2_555 1_645 ?
W1 W1 Fe1 49.207(8) 2_555 1_655 ?
W1 W1 Fe1 94.408(8) 2_555 1_656 ?
W1 W1 Fe1 78.11(2) 2_555 1_665 ?
W1 W1 Fe1 109.673(7) 2_555 2_355 ?
W1 W1 Fe1 144.430(7) 2_555 2_356 ?
W1 W1 Fe1 74.09(2) 2_555 2_445 ?
W1 W1 Fe1 101.73(2) 2_555 2_446 ?
W1 W1 Fe1 81.586(9) 2_555 2_455 ?
W1 W1 Fe1 148.803(9) 2_555 2_456 ?
W1 W1 Fe1 99.93(3) 2_555 2_465 ?
W1 W1 Fe1 141.58(3) 2_555 2_466 ?
W1 W1 Fe1 47.08(2) 2_555 2_545 ?
W1 W1 Fe1 78.25(2) 2_555 2_546 ?
W1 W1 Fe1 90.099(9) 2_555 2_556 ?
W1 W1 Fe1 69.61(3) 2_555 2_565 ?
W1 W1 Fe1 105.23(3) 2_555 2_566 ?
W1 W1 Fe1 66.079(7) 2_555 2_656 ?
W1 W1 Fe1 92.069(15) 2_555 5_455 ?
W1 W1 Fe1 125.715(15) 2_555 5_456 ?
W1 W1 Fe1 108.290(15) 2_555 5_465 ?
W1 W1 Fe1 161.609(15) 2_555 5_466 ?
W1 W1 Fe1 52.02(2) 2_555 5_555 ?
W1 W1 Fe1 99.63(2) 2_555 5_556 ?
W1 W1 Fe1 66.04(3) 2_555 5_565 ?
W1 W1 Fe1 136.71(3) 2_555 5_566 ?
W1 W1 Fe1 69.533(15) 2_555 5_656 ?
W1 W1 Fe1 82.326(15) 2_555 5_666 ?
W1 W1 Fe1 120.250(10) 2_555 6_345 ?
W1 W1 Fe1 134.950(15) 2_555 6_355 ?
W1 W1 Fe1 63.207(12) 2_555 6_444 ?
W1 W1 Fe1 101.89(2) 2_555 6_445 ?
W1 W1 Fe1 133.892(12) 2_555 6_446 ?
W1 W1 Fe1 78.123(18) 2_555 6_454 ?
W1 W1 Fe1 128.46(3) 2_555 6_455 ?
W1 W1 Fe1 159.762(18) 2_555 6_456 ?
W1 W1 Fe1 51.54(2) 2_555 6_545 ?
W1 W1 Fe1 101.877(12) 2_555 6_546 ?
W1 W1 Fe1 46.108(18) 2_555 6_554 ?
W1 W1 Fe1 78.11(3) 2_555 6_555 ?
W1 W1 Fe1 116.793(18) 2_555 6_556 ?
W1 W1 Fe1 45.050(10) 2_555 6_645 ?
W1 W1 Fe1 59.750(15) 2_555 6_655 ?
W1 W1 O1 70.79(5) 2_555 1_454 ?
W1 W1 O1 110.51(7) 2_555 1_455 ?
W1 W1 O1 151.37(8) 2_555 1_456 ?
W1 W1 O1 119.94(7) 2_555 1_465 ?
W1 W1 O1 155.89(7) 2_555 1_466 ?
W1 W1 O1 62.46(5) 2_555 1_545 ?
W1 W1 O1 113.61(8) 2_555 1_556 ?
W1 W1 O1 59.63(5) 2_555 1_564 ?
W1 W1 O1 87.39(7) 2_555 1_565 ?
W1 W1 O1 122.43(7) 2_555 1_566 ?
W1 W1 O1 80.50(5) 2_555 1_656 ?
W1 W1 O1 64.09(5) 2_555 1_665 ?
W1 W1 O1 116.00(6) 2_555 2_355 ?
W1 W1 O1 158.70(7) 2_555 2_356 ?
W1 W1 O1 70.25(5) 2_555 2_445 ?
W1 W1 O1 104.51(7) 2_555 2_446 ?
W1 W1 O1 54.18(4) 2_555 2_454 ?
W1 W1 O1 77.91(11) 2_555 2_455 ?
W1 W1 O1 152.96(10) 2_555 2_456 ?
W1 W1 O1 100.15(6) 2_555 2_465 ?
W1 W1 O1 132.52(7) 2_555 2_466 ?
W1 W1 O1 78.77(5) 2_555 2_546 ?
W1 W1 O1 91.23(7) 2_555 2_556 ?
W1 W1 O1 74.30(5) 2_555 2_565 ?
W1 W1 O1 94.32(5) 2_555 3_454 ?
W1 W1 O1 132.56(6) 2_555 3_455 ?
W1 W1 O1 139.34(6) 2_555 3_465 ?
W1 W1 O1 86.38(6) 2_555 3_545 ?
W1 W1 O1 56.95(5) 2_555 3_554 ?
W1 W1 O1 123.80(14) 2_555 3_555 ?
W1 W1 O1 139.30(8) 2_555 3_556 ?
W1 W1 O1 81.19(6) 2_555 3_564 ?
W1 W1 O1 123.70(8) 2_555 3_565 ?
W1 W1 O1 145.68(7) 2_555 3_566 ?
W1 W1 O1 58.10(6) 2_555 3_655 ?
W1 W1 O1 103.49(6) 2_555 3_656 ?
W1 W1 O1 55.20(5) 2_555 3_664 ?
W1 W1 O1 85.64(6) 2_555 3_665 ?
W1 W1 O1 78.25(5) 2_555 4_444 ?
W1 W1 O1 108.06(6) 2_555 4_445 ?
W1 W1 O1 90.46(6) 2_555 4_454 ?
W1 W1 O1 155.32(9) 2_555 4_455 ?
W1 W1 O1 135.92(7) 2_555 4_465 ?
W1 W1 O1 45.46(4) 2_555 4_544 ?
W1 W1 O1 80.41(6) 2_555 4_545 ?
W1 W1 O1 106.34(14) 2_555 4_555 ?
W1 W1 O1 127.34(7) 2_555 4_556 ?
W1 W1 O1 77.70(6) 2_555 4_564 ?
W1 W1 O1 109.49(7) 2_555 4_565 ?
W1 W1 O1 65.54(5) 2_555 4_655 ?
W1 W1 O1 107.26(5) 2_555 5_455 ?
W1 W1 O1 139.73(6) 2_555 5_456 ?
W1 W1 O1 120.58(6) 2_555 5_465 ?
W1 W1 O1 161.12(7) 2_555 5_466 ?
W1 W1 O1 50.69(4) 2_555 5_554 ?
W1 W1 O1 71.33(7) 2_555 5_555 ?
W1 W1 O1 124.60(8) 2_555 5_556 ?
W1 W1 O1 65.62(5) 2_555 5_564 ?
W1 W1 O1 97.10(8) 2_555 5_565 ?
W1 W1 O1 148.19(9) 2_555 5_566 ?
W1 W1 O1 84.32(6) 2_555 5_656 ?
W1 W1 O1 58.31(5) 2_555 5_665 ?
W1 W1 O1 100.02(7) 2_555 5_666 ?
W1 W1 O1 96.88(6) 2_555 6_445 ?
W1 W1 O1 128.00(7) 2_555 6_446 ?
W1 W1 O1 78.72(5) 2_555 6_454 ?
W1 W1 O1 122.94(8) 2_555 6_455 ?
W1 W1 O1 177.70(8) 2_555 6_456 ?
W1 W1 O1 56.24(6) 2_555 6_545 ?
W1 W1 O1 101.48(7) 2_555 6_546 ?
W1 W1 O1 66.06(11) 2_555 6_555 ?
W1 W1 O1 125.85(9) 2_555 6_556 ?
W1 W1 O1 95.20(6) 2_555 6_565 ?
W1 W1 O1 49.55(4) 2_555 6_655 ?
W1 W1 O1 87.42(6) 2_555 6_656 ?
W1 W1 O1 81.02(5) 2_555 7_454 ?
W1 W1 O1 126.43(8) 2_555 7_455 ?
W1 W1 O1 96.87(6) 2_555 7_464 ?
W1 W1 O1 150.03(8) 2_555 7_465 ?
W1 W1 O1 84.49(8) 2_555 7_555 ?
W1 W1 O1 116.38(7) 2_555 7_556 ?
W1 W1 O1 60.18(6) 2_555 7_564 ?
W1 W1 O1 108.78(9) 2_555 7_565 ?
W1 W1 O1 129.45(7) 2_555 7_566 ?
W1 W1 O1 59.72(4) 2_555 7_655 ?
W1 W1 O1 74.58(5) 2_555 7_665 ?
W1 W1 O1 117.23(6) 2_555 8_345 ?
W1 W1 O1 99.45(5) 2_555 8_354 ?
W1 W1 O1 142.49(7) 2_555 8_355 ?
W1 W1 O1 55.47(5) 2_555 8_444 ?
W1 W1 O1 92.61(7) 2_555 8_445 ?
W1 W1 O1 121.39(7) 2_555 8_446 ?
W1 W1 O1 66.53(6) 2_555 8_454 ?
W1 W1 O1 144.83(14) 2_555 8_455 ?
W1 W1 O1 148.79(8) 2_555 8_456 ?
W1 W1 O1 115.98(7) 2_555 8_465 ?
W1 W1 O1 58.76(5) 2_555 8_545 ?
W1 W1 O1 70.87(6) 2_555 8_555 ?
W1 W1 O1 108.57(7) 2_555 8_556 ?
W1 W1 W1 105.23(3) 2_556 2_565 ?
W1 W1 W1 69.61(3) 2_556 2_566 ?
W1 W1 W1 66.079(7) 2_556 2_655 ?
W1 W1 W1 125.715(15) 2_556 5_455 ?
W1 W1 W1 92.069(15) 2_556 5_456 ?
W1 W1 W1 161.609(15) 2_556 5_465 ?
W1 W1 W1 108.290(15) 2_556 5_466 ?
W1 W1 W1 99.63(2) 2_556 5_555 ?
W1 W1 W1 52.02(2) 2_556 5_556 ?
W1 W1 W1 136.71(3) 2_556 5_565 ?
W1 W1 W1 66.04(3) 2_556 5_566 ?
W1 W1 W1 69.533(15) 2_556 5_655 ?
W1 W1 W1 82.326(15) 2_556 5_665 ?
W1 W1 W1 120.250(10) 2_556 6_345 ?
W1 W1 W1 134.950(15) 2_556 6_355 ?
W1 W1 W1 133.892(12) 2_556 6_444 ?
W1 W1 W1 101.89(2) 2_556 6_445 ?
W1 W1 W1 63.207(12) 2_556 6_446 ?
W1 W1 W1 159.762(18) 2_556 6_454 ?
W1 W1 W1 128.46(3) 2_556 6_455 ?
W1 W1 W1 78.123(18) 2_556 6_456 ?
W1 W1 W1 101.877(12) 2_556 6_544 ?
W1 W1 W1 51.54(2) 2_556 6_545 ?
W1 W1 W1 116.793(18) 2_556 6_554 ?
W1 W1 W1 78.11(3) 2_556 6_555 ?
W1 W1 W1 46.108(18) 2_556 6_556 ?
W1 W1 W1 45.050(10) 2_556 6_645 ?
W1 W1 W1 59.750(15) 2_556 6_655 ?
W1 W1 Fe1 101.886(19) 2_556 1_445 ?
W1 W1 Fe1 164.401(8) 2_556 1_454 ?
W1 W1 Fe1 130.793(9) 2_556 1_455 ?
W1 W1 Fe1 85.592(8) 2_556 1_456 ?
W1 W1 Fe1 128.46(2) 2_556 1_465 ?
W1 W1 Fe1 74.40(3) 2_556 1_545 ?
W1 W1 Fe1 135.049(8) 2_556 1_554 ?
W1 W1 Fe1 105.60(3) 2_556 1_565 ?
W1 W1 Fe1 51.537(19) 2_556 1_645 ?
W1 W1 Fe1 94.408(8) 2_556 1_654 ?
W1 W1 Fe1 49.207(8) 2_556 1_655 ?
W1 W1 Fe1 78.11(2) 2_556 1_665 ?
W1 W1 Fe1 144.430(7) 2_556 2_355 ?
W1 W1 Fe1 109.673(7) 2_556 2_356 ?
W1 W1 Fe1 101.73(2) 2_556 2_445 ?
W1 W1 Fe1 74.09(2) 2_556 2_446 ?
W1 W1 Fe1 148.803(9) 2_556 2_455 ?
W1 W1 Fe1 81.586(9) 2_556 2_456 ?
W1 W1 Fe1 141.58(3) 2_556 2_465 ?
W1 W1 Fe1 99.93(3) 2_556 2_466 ?
W1 W1 Fe1 78.25(2) 2_556 2_545 ?
W1 W1 Fe1 47.08(2) 2_556 2_546 ?
W1 W1 Fe1 90.099(9) 2_556 2_555 ?
W1 W1 Fe1 105.23(3) 2_556 2_565 ?
W1 W1 Fe1 69.61(3) 2_556 2_566 ?
W1 W1 Fe1 66.079(7) 2_556 2_655 ?
W1 W1 Fe1 125.715(15) 2_556 5_455 ?
W1 W1 Fe1 92.069(15) 2_556 5_456 ?
W1 W1 Fe1 161.609(15) 2_556 5_465 ?
W1 W1 Fe1 108.290(15) 2_556 5_466 ?
W1 W1 Fe1 99.63(2) 2_556 5_555 ?
W1 W1 Fe1 52.02(2) 2_556 5_556 ?
W1 W1 Fe1 136.71(3) 2_556 5_565 ?
W1 W1 Fe1 66.04(3) 2_556 5_566 ?
W1 W1 Fe1 69.533(15) 2_556 5_655 ?
W1 W1 Fe1 82.326(15) 2_556 5_665 ?
W1 W1 Fe1 120.250(10) 2_556 6_345 ?
W1 W1 Fe1 134.950(15) 2_556 6_355 ?
W1 W1 Fe1 133.892(12) 2_556 6_444 ?
W1 W1 Fe1 101.89(2) 2_556 6_445 ?
W1 W1 Fe1 63.207(12) 2_556 6_446 ?
W1 W1 Fe1 159.762(18) 2_556 6_454 ?
W1 W1 Fe1 128.46(3) 2_556 6_455 ?
W1 W1 Fe1 78.123(18) 2_556 6_456 ?
W1 W1 Fe1 101.877(12) 2_556 6_544 ?
W1 W1 Fe1 51.54(2) 2_556 6_545 ?
W1 W1 Fe1 116.793(18) 2_556 6_554 ?
W1 W1 Fe1 78.11(3) 2_556 6_555 ?
W1 W1 Fe1 46.108(18) 2_556 6_556 ?
W1 W1 Fe1 45.050(10) 2_556 6_645 ?
W1 W1 Fe1 59.750(15) 2_556 6_655 ?
W1 W1 O1 151.26(7) 2_556 1_454 ?
W1 W1 O1 131.99(8) 2_556 1_455 ?
W1 W1 O1 78.68(5) 2_556 1_456 ?
W1 W1 O1 135.04(7) 2_556 1_465 ?
W1 W1 O1 93.60(6) 2_556 1_466 ?
W1 W1 O1 72.82(5) 2_556 1_545 ?
W1 W1 O1 119.36(7) 2_556 1_554 ?
W1 W1 O1 73.24(12) 2_556 1_555 ?
W1 W1 O1 127.32(7) 2_556 1_564 ?
W1 W1 O1 101.87(8) 2_556 1_565 ?
W1 W1 O1 65.43(5) 2_556 1_566 ?
W1 W1 O1 53.78(4) 2_556 1_655 ?
W1 W1 O1 73.84(5) 2_556 1_665 ?
W1 W1 O1 146.93(7) 2_556 2_355 ?
W1 W1 O1 102.50(5) 2_556 2_356 ?
W1 W1 O1 94.34(6) 2_556 2_445 ?
W1 W1 O1 61.00(5) 2_556 2_446 ?
W1 W1 O1 144.25(7) 2_556 2_454 ?
W1 W1 O1 167.17(15) 2_556 2_455 ?
W1 W1 O1 63.01(6) 2_556 2_456 ?
W1 W1 O1 123.81(7) 2_556 2_465 ?
W1 W1 O1 89.38(6) 2_556 2_466 ?
W1 W1 O1 67.16(5) 2_556 2_545 ?
W1 W1 O1 74.28(7) 2_556 2_555 ?
W1 W1 O1 93.63(6) 2_556 2_565 ?
W1 W1 O1 152.20(6) 2_556 3_454 ?
W1 W1 O1 118.86(6) 2_556 3_455 ?
W1 W1 O1 126.87(6) 2_556 3_465 ?
W1 W1 O1 76.70(5) 2_556 3_545 ?
W1 W1 O1 139.54(9) 2_556 3_554 ?
W1 W1 O1 87.08(12) 2_556 3_555 ?
W1 W1 O1 53.28(4) 2_556 3_556 ?
W1 W1 O1 143.02(8) 2_556 3_564 ?
W1 W1 O1 107.68(8) 2_556 3_565 ?
W1 W1 O1 73.38(5) 2_556 3_566 ?
W1 W1 O1 94.43(7) 2_556 3_654 ?
W1 W1 O1 106.21(7) 2_556 3_664 ?
W1 W1 O1 73.47(6) 2_556 3_665 ?
W1 W1 O1 116.50(6) 2_556 4_444 ?
W1 W1 O1 87.37(5) 2_556 4_445 ?
W1 W1 O1 166.88(8) 2_556 4_454 ?
W1 W1 O1 107.90(7) 2_556 4_455 ?
W1 W1 O1 112.61(6) 2_556 4_465 ?
W1 W1 O1 91.95(6) 2_556 4_544 ?
W1 W1 O1 54.53(5) 2_556 4_545 ?
W1 W1 O1 119.66(10) 2_556 4_554 ?
W1 W1 O1 118.27(7) 2_556 4_564 ?
W1 W1 O1 87.33(6) 2_556 4_565 ?
W1 W1 O1 78.77(5) 2_556 4_654 ?
W1 W1 O1 130.91(6) 2_556 5_455 ?
W1 W1 O1 96.29(5) 2_556 5_456 ?
W1 W1 O1 148.78(6) 2_556 5_465 ?
W1 W1 O1 108.11(5) 2_556 5_466 ?
W1 W1 O1 131.99(7) 2_556 5_554 ?
W1 W1 O1 113.47(9) 2_556 5_555 ?
W1 W1 O1 59.40(5) 2_556 5_556 ?
W1 W1 O1 148.63(7) 2_556 5_564 ?
W1 W1 O1 139.40(10) 2_556 5_565 ?
W1 W1 O1 81.31(6) 2_556 5_566 ?
W1 W1 O1 67.99(6) 2_556 5_655 ?
W1 W1 O1 87.79(7) 2_556 5_665 ?
W1 W1 O1 48.75(5) 2_556 5_666 ?
W1 W1 O1 109.58(6) 2_556 6_445 ?
W1 W1 O1 75.40(5) 2_556 6_446 ?
W1 W1 O1 168.77(7) 2_556 6_454 ?
W1 W1 O1 146.90(8) 2_556 6_455 ?
W1 W1 O1 87.99(5) 2_556 6_456 ?
W1 W1 O1 109.11(7) 2_556 6_544 ?
W1 W1 O1 73.72(7) 2_556 6_545 ?
W1 W1 O1 129.00(8) 2_556 6_554 ?
W1 W1 O1 98.88(13) 2_556 6_555 ?
W1 W1 O1 45.56(5) 2_556 6_556 ?
W1 W1 O1 104.46(6) 2_556 6_565 ?
W1 W1 O1 53.13(4) 2_556 6_645 ?
W1 W1 O1 63.12(5) 2_556 6_655 ?
W1 W1 O1 136.02(7) 2_556 7_454 ?
W1 W1 O1 94.18(6) 2_556 7_455 ?
W1 W1 O1 162.35(8) 2_556 7_464 ?
W1 W1 O1 112.31(7) 2_556 7_465 ?
W1 W1 O1 101.27(8) 2_556 7_554 ?
W1 W1 O1 120.24(8) 2_556 7_564 ?
W1 W1 O1 71.71(7) 2_556 7_565 ?
W1 W1 O1 50.85(5) 2_556 7_566 ?
W1 W1 O1 72.55(5) 2_556 7_654 ?
W1 W1 O1 85.00(5) 2_556 7_664 ?
W1 W1 O1 52.24(4) 2_556 7_665 ?
W1 W1 O1 106.90(5) 2_556 8_345 ?
W1 W1 O1 169.00(7) 2_556 8_354 ?
W1 W1 O1 126.63(6) 2_556 8_355 ?
W1 W1 O1 115.73(7) 2_556 8_444 ?
W1 W1 O1 76.72(6) 2_556 8_445 ?
W1 W1 O1 50.94(4) 2_556 8_446 ?
W1 W1 O1 152.56(9) 2_556 8_454 ?
W1 W1 O1 104.91(12) 2_556 8_455 ?
W1 W1 O1 60.72(5) 2_556 8_456 ?
W1 W1 O1 106.20(6) 2_556 8_465 ?
W1 W1 O1 86.17(6) 2_556 8_544 ?
W1 W1 O1 100.71(7) 2_556 8_554 ?
W1 W1 O1 51.56(5) 2_556 8_555 ?
W1 W1 W1 51.157(17) 2_565 2_566 ?
W1 W1 W1 65.565(17) 2_565 2_655 ?
W1 W1 W1 82.945(17) 2_565 2_656 ?
W1 W1 W1 126.12(2) 2_565 5_455 ?
W1 W1 W1 157.45(2) 2_565 5_456 ?
W1 W1 W1 82.254(15) 2_565 5_465 ?
W1 W1 W1 104.635(15) 2_565 5_466 ?
W1 W1 W1 115.82(3) 2_565 5_555 ?
W1 W1 W1 155.92(3) 2_565 5_556 ?
W1 W1 W1 82.04(2) 2_565 5_566 ?
W1 W1 W1 91.15(2) 2_565 5_655 ?
W1 W1 W1 110.74(2) 2_565 5_656 ?
W1 W1 W1 65.939(15) 2_565 5_666 ?
W1 W1 W1 132.390(20) 2_565 6_345 ?
W1 W1 W1 93.679(13) 2_565 6_355 ?
W1 W1 W1 99.69(2) 2_565 6_444 ?
W1 W1 W1 151.47(4) 2_565 6_445 ?
W1 W1 W1 150.02(2) 2_565 6_446 ?
W1 W1 W1 55.330(14) 2_565 6_454 ?
W1 W1 W1 68.07(2) 2_565 6_455 ?
W1 W1 W1 97.418(14) 2_565 6_456 ?
W1 W1 W1 82.58(2) 2_565 6_544 ?
W1 W1 W1 111.93(4) 2_565 6_545 ?
W1 W1 W1 124.67(2) 2_565 6_546 ?
W1 W1 W1 80.312(14) 2_565 6_556 ?
W1 W1 W1 86.321(20) 2_565 6_645 ?
W1 W1 W1 47.610(13) 2_565 6_655 ?
W1 W1 Fe1 151.47(3) 2_565 1_445 ?
W1 W1 Fe1 87.313(16) 2_565 1_454 ?
W1 W1 Fe1 113.489(20) 2_565 1_455 ?
W1 W1 Fe1 125.986(16) 2_565 1_456 ?
W1 W1 Fe1 68.073(15) 2_565 1_465 ?
W1 W1 Fe1 144.01(3) 2_565 1_545 ?
W1 W1 Fe1 64.421(19) 2_565 1_554 ?
W1 W1 Fe1 115.579(19) 2_565 1_556 ?
W1 W1 Fe1 111.93(3) 2_565 1_645 ?
W1 W1 Fe1 54.014(16) 2_565 1_654 ?
W1 W1 Fe1 66.511(19) 2_565 1_655 ?
W1 W1 Fe1 92.687(16) 2_565 1_656 ?
W1 W1 Fe1 109.264(17) 2_565 2_355 ?
W1 W1 Fe1 128.373(17) 2_565 2_356 ?
W1 W1 Fe1 134.21(3) 2_565 2_445 ?
W1 W1 Fe1 171.34(3) 2_565 2_446 ?
W1 W1 Fe1 99.93(3) 2_565 2_455 ?
W1 W1 Fe1 141.58(3) 2_565 2_456 ?
W1 W1 Fe1 46.977(17) 2_565 2_465 ?
W1 W1 Fe1 71.972(17) 2_565 2_466 ?
W1 W1 Fe1 116.69(3) 2_565 2_545 ?
W1 W1 Fe1 137.77(3) 2_565 2_546 ?
W1 W1 Fe1 69.61(3) 2_565 2_555 ?
W1 W1 Fe1 105.23(3) 2_565 2_556 ?
W1 W1 Fe1 51.157(17) 2_565 2_566 ?
W1 W1 Fe1 65.565(17) 2_565 2_655 ?
W1 W1 Fe1 82.945(17) 2_565 2_656 ?
W1 W1 Fe1 126.12(2) 2_565 5_455 ?
W1 W1 Fe1 157.45(2) 2_565 5_456 ?
W1 W1 Fe1 82.254(15) 2_565 5_465 ?
W1 W1 Fe1 104.635(15) 2_565 5_466 ?
W1 W1 Fe1 115.82(3) 2_565 5_555 ?
W1 W1 Fe1 155.92(3) 2_565 5_556 ?
W1 W1 Fe1 82.04(2) 2_565 5_566 ?
W1 W1 Fe1 91.15(2) 2_565 5_655 ?
W1 W1 Fe1 110.74(2) 2_565 5_656 ?
W1 W1 Fe1 65.939(15) 2_565 5_666 ?
W1 W1 Fe1 132.390(20) 2_565 6_345 ?
W1 W1 Fe1 93.679(13) 2_565 6_355 ?
W1 W1 Fe1 99.69(2) 2_565 6_444 ?
W1 W1 Fe1 151.47(4) 2_565 6_445 ?
W1 W1 Fe1 150.02(2) 2_565 6_446 ?
W1 W1 Fe1 55.330(14) 2_565 6_454 ?
W1 W1 Fe1 68.07(2) 2_565 6_455 ?
W1 W1 Fe1 97.418(14) 2_565 6_456 ?
W1 W1 Fe1 82.58(2) 2_565 6_544 ?
W1 W1 Fe1 111.93(4) 2_565 6_545 ?
W1 W1 Fe1 124.67(2) 2_565 6_546 ?
W1 W1 Fe1 80.312(14) 2_565 6_556 ?
W1 W1 Fe1 86.321(20) 2_565 6_645 ?
W1 W1 Fe1 47.610(13) 2_565 6_655 ?
W1 W1 O1 88.42(4) 2_565 1_454 ?
W1 W1 O1 122.41(7) 2_565 1_455 ?
W1 W1 O1 138.66(6) 2_565 1_456 ?
W1 W1 O1 62.55(4) 2_565 1_465 ?
W1 W1 O1 86.45(4) 2_565 1_466 ?
W1 W1 O1 131.97(6) 2_565 1_545 ?
W1 W1 O1 70.52(5) 2_565 1_554 ?
W1 W1 O1 93.88(13) 2_565 1_555 ?
W1 W1 O1 120.42(7) 2_565 1_556 ?
W1 W1 O1 68.53(4) 2_565 1_566 ?
W1 W1 O1 73.58(4) 2_565 1_655 ?
W1 W1 O1 93.53(4) 2_565 1_656 ?
W1 W1 O1 102.92(5) 2_565 2_355 ?
W1 W1 O1 121.93(5) 2_565 2_356 ?
W1 W1 O1 134.98(6) 2_565 2_445 ?
W1 W1 O1 165.61(6) 2_565 2_446 ?
W1 W1 O1 66.70(4) 2_565 2_454 ?
W1 W1 O1 75.06(11) 2_565 2_455 ?
W1 W1 O1 117.98(8) 2_565 2_456 ?
W1 W1 O1 64.83(4) 2_565 2_466 ?
W1 W1 O1 109.36(5) 2_565 2_545 ?
W1 W1 O1 127.02(5) 2_565 2_546 ?
W1 W1 O1 53.26(5) 2_565 2_555 ?
W1 W1 O1 87.69(6) 2_565 2_556 ?
W1 W1 O1 102.02(4) 2_565 3_454 ?
W1 W1 O1 127.49(5) 2_565 3_455 ?
W1 W1 O1 83.15(4) 2_565 3_465 ?
W1 W1 O1 155.83(6) 2_565 3_545 ?
W1 W1 O1 85.95(6) 2_565 3_554 ?
W1 W1 O1 162.44(14) 2_565 3_555 ?
W1 W1 O1 131.09(6) 2_565 3_556 ?
W1 W1 O1 54.32(5) 2_565 3_565 ?
W1 W1 O1 85.65(4) 2_565 3_566 ?
W1 W1 O1 66.88(5) 2_565 3_654 ?
W1 W1 O1 89.99(7) 2_565 3_655 ?
W1 W1 O1 108.39(5) 2_565 3_656 ?
W1 W1 O1 126.63(5) 2_565 4_444 ?
W1 W1 O1 167.04(6) 2_565 4_445 ?
W1 W1 O1 87.22(5) 2_565 4_454 ?
W1 W1 O1 119.23(7) 2_565 4_455 ?
W1 W1 O1 68.16(4) 2_565 4_465 ?
W1 W1 O1 112.82(6) 2_565 4_544 ?
W1 W1 O1 144.23(7) 2_565 4_545 ?
W1 W1 O1 53.66(6) 2_565 4_554 ?
W1 W1 O1 92.38(12) 2_565 4_555 ?
W1 W1 O1 109.36(5) 2_565 4_556 ?
W1 W1 O1 53.52(3) 2_565 4_654 ?
W1 W1 O1 72.75(4) 2_565 4_655 ?
W1 W1 O1 123.82(5) 2_565 5_455 ?
W1 W1 O1 144.08(5) 2_565 5_456 ?
W1 W1 O1 82.59(4) 2_565 5_465 ?
W1 W1 O1 99.92(4) 2_565 5_466 ?
W1 W1 O1 87.47(4) 2_565 5_554 ?
W1 W1 O1 123.92(9) 2_565 5_555 ?
W1 W1 O1 156.05(8) 2_565 5_556 ?
W1 W1 O1 49.12(3) 2_565 5_564 ?
W1 W1 O1 83.13(6) 2_565 5_566 ?
W1 W1 O1 89.98(6) 2_565 5_655 ?
W1 W1 O1 113.65(6) 2_565 5_656 ?
W1 W1 O1 64.84(4) 2_565 5_666 ?
W1 W1 O1 142.64(6) 2_565 6_445 ?
W1 W1 O1 162.27(6) 2_565 6_446 ?
W1 W1 O1 70.03(4) 2_565 6_454 ?
W1 W1 O1 86.61(6) 2_565 6_455 ?
W1 W1 O1 109.68(5) 2_565 6_456 ?
W1 W1 O1 92.61(5) 2_565 6_544 ?
W1 W1 O1 125.74(8) 2_565 6_545 ?
W1 W1 O1 141.90(6) 2_565 6_546 ?
W1 W1 O1 46.37(4) 2_565 6_554 ?
W1 W1 O1 91.04(6) 2_565 6_556 ?
W1 W1 O1 95.28(5) 2_565 6_645 ?
W1 W1 O1 48.90(3) 2_565 6_655 ?
W1 W1 O1 75.93(4) 2_565 6_656 ?
W1 W1 O1 111.48(6) 2_565 7_454 ?
W1 W1 O1 155.30(7) 2_565 7_455 ?
W1 W1 O1 62.72(4) 2_565 7_464 ?
W1 W1 O1 84.91(5) 2_565 7_465 ?
W1 W1 O1 91.71(6) 2_565 7_554 ?
W1 W1 O1 134.00(9) 2_565 7_555 ?
W1 W1 O1 127.83(5) 2_565 7_556 ?
W1 W1 O1 52.42(6) 2_565 7_565 ?
W1 W1 O1 89.14(5) 2_565 7_566 ?
W1 W1 O1 76.28(4) 2_565 7_654 ?
W1 W1 O1 93.90(5) 2_565 7_655 ?
W1 W1 O1 53.01(3) 2_565 7_665 ?
W1 W1 O1 147.04(5) 2_565 8_345 ?
W1 W1 O1 83.37(4) 2_565 8_354 ?
W1 W1 O1 102.85(5) 2_565 8_355 ?
W1 W1 O1 108.64(6) 2_565 8_444 ?
W1 W1 O1 162.00(8) 2_565 8_445 ?
W1 W1 O1 149.95(6) 2_565 8_446 ?
W1 W1 O1 54.40(5) 2_565 8_454 ?
W1 W1 O1 75.75(11) 2_565 8_455 ?
W1 W1 O1 105.54(5) 2_565 8_456 ?
W1 W1 O1 46.41(3) 2_565 8_465 ?
W1 W1 O1 90.39(5) 2_565 8_544 ?
W1 W1 O1 113.91(6) 2_565 8_545 ?
W1 W1 O1 53.78(5) 2_565 8_555 ?
W1 W1 O1 88.40(5) 2_565 8_556 ?
W1 W1 W1 82.945(17) 2_566 2_655 ?
W1 W1 W1 65.565(17) 2_566 2_656 ?
W1 W1 W1 157.45(2) 2_566 5_455 ?
W1 W1 W1 126.12(2) 2_566 5_456 ?
W1 W1 W1 104.635(15) 2_566 5_465 ?
W1 W1 W1 82.254(15) 2_566 5_466 ?
W1 W1 W1 155.92(3) 2_566 5_555 ?
W1 W1 W1 115.82(3) 2_566 5_556 ?
W1 W1 W1 82.04(2) 2_566 5_565 ?
W1 W1 W1 110.74(2) 2_566 5_655 ?
W1 W1 W1 91.15(2) 2_566 5_656 ?
W1 W1 W1 65.939(15) 2_566 5_665 ?
W1 W1 W1 132.390(20) 2_566 6_345 ?
W1 W1 W1 93.679(13) 2_566 6_355 ?
W1 W1 W1 150.02(2) 2_566 6_444 ?
W1 W1 W1 151.47(4) 2_566 6_445 ?
W1 W1 W1 99.69(2) 2_566 6_446 ?
W1 W1 W1 97.418(14) 2_566 6_454 ?
W1 W1 W1 68.07(2) 2_566 6_455 ?
W1 W1 W1 55.330(14) 2_566 6_456 ?
W1 W1 W1 124.67(2) 2_566 6_544 ?
W1 W1 W1 111.93(4) 2_566 6_545 ?
W1 W1 W1 82.58(2) 2_566 6_546 ?
W1 W1 W1 80.312(14) 2_566 6_554 ?
W1 W1 W1 86.321(20) 2_566 6_645 ?
W1 W1 W1 47.610(13) 2_566 6_655 ?
W1 W1 Fe1 151.47(3) 2_566 1_445 ?
W1 W1 Fe1 125.986(16) 2_566 1_454 ?
W1 W1 Fe1 113.489(20) 2_566 1_455 ?
W1 W1 Fe1 87.313(16) 2_566 1_456 ?
W1 W1 Fe1 68.073(15) 2_566 1_465 ?
W1 W1 Fe1 144.01(3) 2_566 1_545 ?
W1 W1 Fe1 115.579(19) 2_566 1_554 ?
W1 W1 Fe1 64.421(19) 2_566 1_556 ?
W1 W1 Fe1 111.93(3) 2_566 1_645 ?
W1 W1 Fe1 92.687(16) 2_566 1_654 ?
W1 W1 Fe1 66.511(19) 2_566 1_655 ?
W1 W1 Fe1 54.014(16) 2_566 1_656 ?
W1 W1 Fe1 128.373(17) 2_566 2_355 ?
W1 W1 Fe1 109.264(17) 2_566 2_356 ?
W1 W1 Fe1 171.34(3) 2_566 2_445 ?
W1 W1 Fe1 134.21(3) 2_566 2_446 ?
W1 W1 Fe1 141.58(3) 2_566 2_455 ?
W1 W1 Fe1 99.93(3) 2_566 2_456 ?
W1 W1 Fe1 71.972(17) 2_566 2_465 ?
W1 W1 Fe1 46.977(17) 2_566 2_466 ?
W1 W1 Fe1 137.77(3) 2_566 2_545 ?
W1 W1 Fe1 116.69(3) 2_566 2_546 ?
W1 W1 Fe1 105.23(3) 2_566 2_555 ?
W1 W1 Fe1 69.61(3) 2_566 2_556 ?
W1 W1 Fe1 51.157(17) 2_566 2_565 ?
W1 W1 Fe1 82.945(17) 2_566 2_655 ?
W1 W1 Fe1 65.565(17) 2_566 2_656 ?
W1 W1 Fe1 157.45(2) 2_566 5_455 ?
W1 W1 Fe1 126.12(2) 2_566 5_456 ?
W1 W1 Fe1 104.635(15) 2_566 5_465 ?
W1 W1 Fe1 82.254(15) 2_566 5_466 ?
W1 W1 Fe1 155.92(3) 2_566 5_555 ?
W1 W1 Fe1 115.82(3) 2_566 5_556 ?
W1 W1 Fe1 82.04(2) 2_566 5_565 ?
W1 W1 Fe1 110.74(2) 2_566 5_655 ?
W1 W1 Fe1 91.15(2) 2_566 5_656 ?
W1 W1 Fe1 65.939(15) 2_566 5_665 ?
W1 W1 Fe1 132.390(20) 2_566 6_345 ?
W1 W1 Fe1 93.679(13) 2_566 6_355 ?
W1 W1 Fe1 150.02(2) 2_566 6_444 ?
W1 W1 Fe1 151.47(4) 2_566 6_445 ?
W1 W1 Fe1 99.69(2) 2_566 6_446 ?
W1 W1 Fe1 97.418(14) 2_566 6_454 ?
W1 W1 Fe1 68.07(2) 2_566 6_455 ?
W1 W1 Fe1 55.330(14) 2_566 6_456 ?
W1 W1 Fe1 124.67(2) 2_566 6_544 ?
W1 W1 Fe1 111.93(4) 2_566 6_545 ?
W1 W1 Fe1 82.58(2) 2_566 6_546 ?
W1 W1 Fe1 80.312(14) 2_566 6_554 ?
W1 W1 Fe1 86.321(20) 2_566 6_645 ?
W1 W1 Fe1 47.610(13) 2_566 6_655 ?
W1 W1 O1 135.08(6) 2_566 1_454 ?
W1 W1 O1 136.91(8) 2_566 1_455 ?
W1 W1 O1 95.49(5) 2_566 1_456 ?
W1 W1 O1 70.50(4) 2_566 1_465 ?
W1 W1 O1 54.51(3) 2_566 1_466 ?
W1 W1 O1 140.41(6) 2_566 1_545 ?
W1 W1 O1 119.60(6) 2_566 1_554 ?
W1 W1 O1 115.99(13) 2_566 1_555 ?
W1 W1 O1 73.11(6) 2_566 1_556 ?
W1 W1 O1 77.89(4) 2_566 1_564 ?
W1 W1 O1 80.53(4) 2_566 1_655 ?
W1 W1 O1 64.40(4) 2_566 1_656 ?
W1 W1 O1 117.86(5) 2_566 2_355 ?
W1 W1 O1 95.31(4) 2_566 2_356 ?
W1 W1 O1 163.59(7) 2_566 2_445 ?
W1 W1 O1 121.33(6) 2_566 2_446 ?
W1 W1 O1 117.17(5) 2_566 2_454 ?
W1 W1 O1 117.69(13) 2_566 2_455 ?
W1 W1 O1 69.44(7) 2_566 2_456 ?
W1 W1 O1 54.32(4) 2_566 2_465 ?
W1 W1 O1 123.27(6) 2_566 2_545 ?
W1 W1 O1 101.87(5) 2_566 2_546 ?
W1 W1 O1 76.62(6) 2_566 2_555 ?
W1 W1 O1 50.99(4) 2_566 2_556 ?
W1 W1 O1 134.58(5) 2_566 3_454 ?
W1 W1 O1 119.37(5) 2_566 3_455 ?
W1 W1 O1 77.53(4) 2_566 3_465 ?
W1 W1 O1 144.14(6) 2_566 3_545 ?
W1 W1 O1 136.56(7) 2_566 3_554 ?
W1 W1 O1 125.66(13) 2_566 3_555 ?
W1 W1 O1 80.21(5) 2_566 3_556 ?
W1 W1 O1 78.12(5) 2_566 3_564 ?
W1 W1 O1 105.22(6) 2_566 3_654 ?
W1 W1 O1 78.78(6) 2_566 3_655 ?
W1 W1 O1 65.16(4) 2_566 3_656 ?
W1 W1 O1 63.35(4) 2_566 3_664 ?
W1 W1 O1 173.24(6) 2_566 4_444 ?
W1 W1 O1 139.24(6) 2_566 4_445 ?
W1 W1 O1 122.74(6) 2_566 4_454 ?
W1 W1 O1 96.98(6) 2_566 4_455 ?
W1 W1 O1 54.86(3) 2_566 4_465 ?
W1 W1 O1 146.77(6) 2_566 4_544 ?
W1 W1 O1 123.99(6) 2_566 4_545 ?
W1 W1 O1 103.16(8) 2_566 4_554 ?
W1 W1 O1 47.07(11) 2_566 4_555 ?
W1 W1 O1 58.63(4) 2_566 4_556 ?
W1 W1 O1 56.73(4) 2_566 4_564 ?
W1 W1 O1 80.89(4) 2_566 4_654 ?
W1 W1 O1 57.29(4) 2_566 4_655 ?
W1 W1 O1 140.82(5) 2_566 5_455 ?
W1 W1 O1 114.28(5) 2_566 5_456 ?
W1 W1 O1 94.72(4) 2_566 5_465 ?
W1 W1 O1 77.57(4) 2_566 5_466 ?
W1 W1 O1 138.63(6) 2_566 5_554 ?
W1 W1 O1 175.07(10) 2_566 5_555 ?
W1 W1 O1 104.89(7) 2_566 5_556 ?
W1 W1 O1 96.79(5) 2_566 5_564 ?
W1 W1 O1 69.94(6) 2_566 5_565 ?
W1 W1 O1 108.51(7) 2_566 5_655 ?
W1 W1 O1 82.35(5) 2_566 5_656 ?
W1 W1 O1 50.15(4) 2_566 5_665 ?
W1 W1 O1 157.84(6) 2_566 6_445 ?
W1 W1 O1 115.03(5) 2_566 6_446 ?
W1 W1 O1 112.10(5) 2_566 6_454 ?
W1 W1 O1 96.90(6) 2_566 6_455 ?
W1 W1 O1 72.89(4) 2_566 6_456 ?
W1 W1 O1 138.38(6) 2_566 6_544 ?
W1 W1 O1 138.78(8) 2_566 6_545 ?
W1 W1 O1 100.16(6) 2_566 6_546 ?
W1 W1 O1 97.47(5) 2_566 6_554 ?
W1 W1 O1 49.40(10) 2_566 6_555 ?
W1 W1 O1 101.18(5) 2_566 6_645 ?
W1 W1 O1 57.50(4) 2_566 6_655 ?
W1 W1 O1 154.22(7) 2_566 7_454 ?
W1 W1 O1 126.21(7) 2_566 7_455 ?
W1 W1 O1 92.87(5) 2_566 7_464 ?
W1 W1 O1 67.32(4) 2_566 7_465 ?
W1 W1 O1 133.37(8) 2_566 7_554 ?
W1 W1 O1 104.85(8) 2_566 7_555 ?
W1 W1 O1 79.56(4) 2_566 7_556 ?
W1 W1 O1 70.69(5) 2_566 7_564 ?
W1 W1 O1 99.29(5) 2_566 7_654 ?
W1 W1 O1 81.34(4) 2_566 7_655 ?
W1 W1 O1 62.74(4) 2_566 7_664 ?
W1 W1 O1 137.49(5) 2_566 8_345 ?
W1 W1 O1 112.54(5) 2_566 8_354 ?
W1 W1 O1 95.88(4) 2_566 8_355 ?
W1 W1 O1 158.48(7) 2_566 8_444 ?
W1 W1 O1 141.54(8) 2_566 8_445 ?
W1 W1 O1 99.41(5) 2_566 8_446 ?
W1 W1 O1 101.67(6) 2_566 8_454 ?
W1 W1 O1 53.99(10) 2_566 8_455 ?
W1 W1 O1 56.48(4) 2_566 8_456 ?
W1 W1 O1 122.43(6) 2_566 8_544 ?
W1 W1 O1 105.90(6) 2_566 8_545 ?
W1 W1 O1 80.83(5) 2_566 8_554 ?
W1 W1 W1 117.479(10) 2_655 5_455 ?
W1 W1 W1 136.226(10) 2_655 5_456 ?
W1 W1 W1 131.648(8) 2_655 5_465 ?
W1 W1 W1 165.199(8) 2_655 5_466 ?
W1 W1 W1 72.970(18) 2_655 5_555 ?
W1 W1 W1 94.566(18) 2_655 5_556 ?
W1 W1 W1 78.858(20) 2_655 5_565 ?
W1 W1 W1 110.269(20) 2_655 5_566 ?
W1 W1 W1 52.362(9) 2_655 5_656 ?
W1 W1 W1 54.638(8) 2_655 5_666 ?
W1 W1 W1 144.665(6) 2_655 6_345 ?
W1 W1 W1 155.820(8) 2_655 6_355 ?
W1 W1 W1 91.001(8) 2_655 6_444 ?
W1 W1 W1 119.478(20) 2_655 6_445 ?
W1 W1 W1 124.193(8) 2_655 6_446 ?
W1 W1 W1 97.704(10) 2_655 6_454 ?
W1 W1 W1 133.64(2) 2_655 6_455 ?
W1 W1 W1 132.732(10) 2_655 6_456 ?
W1 W1 W1 47.268(7) 2_655 6_544 ?
W1 W1 W1 46.362(19) 2_655 6_545 ?
W1 W1 W1 82.296(8) 2_655 6_546 ?
W1 W1 W1 55.807(10) 2_655 6_554 ?
W1 W1 W1 60.52(2) 2_655 6_555 ?
W1 W1 W1 88.999(10) 2_655 6_556 ?
W1 W1 Fe1 119.478(12) 2_655 1_445 ?
W1 W1 Fe1 112.659(3) 2_655 1_454 ?
W1 W1 Fe1 158.880(4) 2_655 1_455 ?
W1 W1 Fe1 151.671(3) 2_655 1_456 ?
W1 W1 Fe1 133.638(14) 2_655 1_465 ?
W1 W1 Fe1 82.647(18) 2_655 1_545 ?
W1 W1 Fe1 70.316(3) 2_655 1_554 ?
W1 W1 Fe1 109.684(3) 2_655 1_556 ?
W1 W1 Fe1 97.35(2) 2_655 1_565 ?
W1 W1 Fe1 46.362(12) 2_655 1_645 ?
W1 W1 Fe1 67.341(2) 2_655 1_656 ?
W1 W1 Fe1 60.522(14) 2_655 1_665 ?
W1 W1 Fe1 137.760(3) 2_655 2_355 ?
W1 W1 Fe1 165.294(3) 2_655 2_356 ?
W1 W1 Fe1 93.620(14) 2_655 2_445 ?
W1 W1 Fe1 106.879(14) 2_655 2_446 ?
W1 W1 Fe1 109.673(7) 2_655 2_455 ?
W1 W1 Fe1 144.430(7) 2_655 2_456 ?
W1 W1 Fe1 109.264(17) 2_655 2_465 ?
W1 W1 Fe1 128.373(17) 2_655 2_466 ?
W1 W1 Fe1 58.818(14) 2_655 2_545 ?
W1 W1 Fe1 73.110(14) 2_655 2_546 ?
W1 W1 Fe1 66.079(7) 2_655 2_556 ?
W1 W1 Fe1 65.565(17) 2_655 2_565 ?
W1 W1 Fe1 82.945(17) 2_655 2_566 ?
W1 W1 Fe1 117.479(10) 2_655 5_455 ?
W1 W1 Fe1 136.226(10) 2_655 5_456 ?
W1 W1 Fe1 131.648(8) 2_655 5_465 ?
W1 W1 Fe1 165.199(8) 2_655 5_466 ?
W1 W1 Fe1 72.970(18) 2_655 5_555 ?
W1 W1 Fe1 94.566(18) 2_655 5_556 ?
W1 W1 Fe1 78.858(20) 2_655 5_565 ?
W1 W1 Fe1 110.269(20) 2_655 5_566 ?
W1 W1 Fe1 52.362(9) 2_655 5_656 ?
W1 W1 Fe1 54.638(8) 2_655 5_666 ?
W1 W1 Fe1 144.665(6) 2_655 6_345 ?
W1 W1 Fe1 155.820(8) 2_655 6_355 ?
W1 W1 Fe1 91.001(8) 2_655 6_444 ?
W1 W1 Fe1 119.478(20) 2_655 6_445 ?
W1 W1 Fe1 124.193(8) 2_655 6_446 ?
W1 W1 Fe1 97.704(10) 2_655 6_454 ?
W1 W1 Fe1 133.64(2) 2_655 6_455 ?
W1 W1 Fe1 132.732(10) 2_655 6_456 ?
W1 W1 Fe1 47.268(7) 2_655 6_544 ?
W1 W1 Fe1 46.362(19) 2_655 6_545 ?
W1 W1 Fe1 82.296(8) 2_655 6_546 ?
W1 W1 Fe1 55.807(10) 2_655 6_554 ?
W1 W1 Fe1 60.52(2) 2_655 6_555 ?
W1 W1 Fe1 88.999(10) 2_655 6_556 ?
W1 W1 O1 98.61(4) 2_655 1_454 ?
W1 W1 O1 137.45(6) 2_655 1_455 ?
W1 W1 O1 143.01(5) 2_655 1_456 ?
W1 W1 O1 127.63(5) 2_655 1_465 ?
W1 W1 O1 137.39(5) 2_655 1_466 ?
W1 W1 O1 70.70(3) 2_655 1_545 ?
W1 W1 O1 57.35(4) 2_655 1_554 ?
W1 W1 O1 91.10(6) 2_655 1_556 ?
W1 W1 O1 69.81(3) 2_655 1_564 ?
W1 W1 O1 79.17(5) 2_655 1_565 ?
W1 W1 O1 97.48(5) 2_655 1_566 ?
W1 W1 O1 54.68(3) 2_655 1_656 ?
W1 W1 O1 45.46(3) 2_655 1_665 ?
W1 W1 O1 143.57(4) 2_655 2_355 ?
W1 W1 O1 168.37(5) 2_655 2_356 ?
W1 W1 O1 87.39(4) 2_655 2_445 ?
W1 W1 O1 102.84(4) 2_655 2_446 ?
W1 W1 O1 79.58(4) 2_655 2_454 ?
W1 W1 O1 103.33(11) 2_655 2_455 ?
W1 W1 O1 127.76(7) 2_655 2_456 ?
W1 W1 O1 100.94(4) 2_655 2_465 ?
W1 W1 O1 114.70(4) 2_655 2_466 ?
W1 W1 O1 46.65(3) 2_655 2_545 ?
W1 W1 O1 66.57(3) 2_655 2_546 ?
W1 W1 O1 63.70(4) 2_655 2_556 ?
W1 W1 O1 63.86(3) 2_655 2_565 ?
W1 W1 O1 122.37(4) 2_655 3_454 ?
W1 W1 O1 157.68(5) 2_655 3_455 ?
W1 W1 O1 148.71(4) 2_655 3_465 ?
W1 W1 O1 94.62(4) 2_655 3_545 ?
W1 W1 O1 84.95(5) 2_655 3_554 ?
W1 W1 O1 131.81(12) 2_655 3_555 ?
W1 W1 O1 119.23(5) 2_655 3_556 ?
W1 W1 O1 92.98(4) 2_655 3_564 ?
W1 W1 O1 115.49(6) 2_655 3_565 ?
W1 W1 O1 119.84(4) 2_655 3_566 ?
W1 W1 O1 78.74(4) 2_655 3_656 ?
W1 W1 O1 55.03(3) 2_655 3_664 ?
W1 W1 O1 65.85(4) 2_655 3_665 ?
W1 W1 O1 102.01(4) 2_655 4_444 ?
W1 W1 O1 118.68(4) 2_655 4_445 ?
W1 W1 O1 117.20(5) 2_655 4_454 ?
W1 W1 O1 173.66(6) 2_655 4_455 ?
W1 W1 O1 130.82(4) 2_655 4_465 ?
W1 W1 O1 64.10(4) 2_655 4_544 ?
W1 W1 O1 78.78(4) 2_655 4_545 ?
W1 W1 O1 53.64(6) 2_655 4_554 ?
W1 W1 O1 78.68(11) 2_655 4_555 ?
W1 W1 O1 101.01(4) 2_655 4_556 ?
W1 W1 O1 78.60(4) 2_655 4_564 ?
W1 W1 O1 93.03(4) 2_655 4_565 ?
W1 W1 O1 133.86(4) 2_655 5_455 ?
W1 W1 O1 150.34(4) 2_655 5_456 ?
W1 W1 O1 140.87(4) 2_655 5_465 ?
W1 W1 O1 160.41(4) 2_655 5_466 ?
W1 W1 O1 78.78(3) 2_655 5_554 ?
W1 W1 O1 94.76(7) 2_655 5_555 ?
W1 W1 O1 116.58(6) 2_655 5_556 ?
W1 W1 O1 84.69(4) 2_655 5_564 ?
W1 W1 O1 105.49(7) 2_655 5_565 ?
W1 W1 O1 124.70(6) 2_655 5_566 ?
W1 W1 O1 64.11(4) 2_655 5_656 ?
W1 W1 O1 47.10(4) 2_655 5_665 ?
W1 W1 O1 73.27(4) 2_655 5_666 ?
W1 W1 O1 117.60(5) 2_655 6_445 ?
W1 W1 O1 128.16(4) 2_655 6_446 ?
W1 W1 O1 102.84(4) 2_655 6_454 ?
W1 W1 O1 144.44(6) 2_655 6_455 ?
W1 W1 O1 149.62(5) 2_655 6_456 ?
W1 W1 O1 61.05(3) 2_655 6_544 ?
W1 W1 O1 65.19(5) 2_655 6_545 ?
W1 W1 O1 89.02(4) 2_655 6_546 ?
W1 W1 O1 63.39(4) 2_655 6_554 ?
W1 W1 O1 59.42(10) 2_655 6_555 ?
W1 W1 O1 97.76(6) 2_655 6_556 ?
W1 W1 O1 87.33(4) 2_655 6_565 ?
W1 W1 O1 59.33(3) 2_655 6_656 ?
W1 W1 O1 108.38(5) 2_655 7_454 ?
W1 W1 O1 138.05(6) 2_655 7_455 ?
W1 W1 O1 115.32(5) 2_655 7_464 ?
W1 W1 O1 147.46(6) 2_655 7_465 ?
W1 W1 O1 53.36(5) 2_655 7_554 ?
W1 W1 O1 73.68(7) 2_655 7_555 ?
W1 W1 O1 96.00(4) 2_655 7_556 ?
W1 W1 O1 66.33(5) 2_655 7_564 ?
W1 W1 O1 86.85(6) 2_655 7_565 ?
W1 W1 O1 101.44(4) 2_655 7_566 ?
W1 W1 O1 48.69(3) 2_655 7_665 ?
W1 W1 O1 136.15(4) 2_655 8_345 ?
W1 W1 O1 124.53(4) 2_655 8_354 ?
W1 W1 O1 166.00(5) 2_655 8_355 ?
W1 W1 O1 80.91(4) 2_655 8_444 ?
W1 W1 O1 100.19(6) 2_655 8_445 ?
W1 W1 O1 109.87(4) 2_655 8_446 ?
W1 W1 O1 87.37(5) 2_655 8_454 ?
W1 W1 O1 134.80(11) 2_655 8_455 ?
W1 W1 O1 120.97(5) 2_655 8_456 ?
W1 W1 O1 107.35(4) 2_655 8_465 ?
W1 W1 O1 49.22(4) 2_655 8_545 ?
W1 W1 O1 80.58(4) 2_655 8_556 ?
W1 W1 W1 136.226(10) 2_656 5_455 ?
W1 W1 W1 117.479(10) 2_656 5_456 ?
W1 W1 W1 165.199(8) 2_656 5_465 ?
W1 W1 W1 131.648(8) 2_656 5_466 ?
W1 W1 W1 94.566(18) 2_656 5_555 ?
W1 W1 W1 72.970(18) 2_656 5_556 ?
W1 W1 W1 110.269(20) 2_656 5_565 ?
W1 W1 W1 78.858(20) 2_656 5_566 ?
W1 W1 W1 52.362(9) 2_656 5_655 ?
W1 W1 W1 54.638(8) 2_656 5_665 ?
W1 W1 W1 144.665(6) 2_656 6_345 ?
W1 W1 W1 155.820(8) 2_656 6_355 ?
W1 W1 W1 124.193(8) 2_656 6_444 ?
W1 W1 W1 119.478(20) 2_656 6_445 ?
W1 W1 W1 91.001(8) 2_656 6_446 ?
W1 W1 W1 132.732(10) 2_656 6_454 ?
W1 W1 W1 133.64(2) 2_656 6_455 ?
W1 W1 W1 97.704(10) 2_656 6_456 ?
W1 W1 W1 82.296(8) 2_656 6_544 ?
W1 W1 W1 46.362(19) 2_656 6_545 ?
W1 W1 W1 47.268(7) 2_656 6_546 ?
W1 W1 W1 88.999(10) 2_656 6_554 ?
W1 W1 W1 60.52(2) 2_656 6_555 ?
W1 W1 W1 55.807(10) 2_656 6_556 ?
W1 W1 Fe1 119.478(12) 2_656 1_445 ?
W1 W1 Fe1 151.671(3) 2_656 1_454 ?
W1 W1 Fe1 158.880(4) 2_656 1_455 ?
W1 W1 Fe1 112.659(3) 2_656 1_456 ?
W1 W1 Fe1 133.638(14) 2_656 1_465 ?
W1 W1 Fe1 82.647(18) 2_656 1_545 ?
W1 W1 Fe1 109.684(3) 2_656 1_554 ?
W1 W1 Fe1 70.316(3) 2_656 1_556 ?
W1 W1 Fe1 97.35(2) 2_656 1_565 ?
W1 W1 Fe1 46.362(12) 2_656 1_645 ?
W1 W1 Fe1 67.341(2) 2_656 1_654 ?
W1 W1 Fe1 60.522(14) 2_656 1_665 ?
W1 W1 Fe1 165.294(3) 2_656 2_355 ?
W1 W1 Fe1 137.760(3) 2_656 2_356 ?
W1 W1 Fe1 106.879(14) 2_656 2_445 ?
W1 W1 Fe1 93.620(14) 2_656 2_446 ?
W1 W1 Fe1 144.430(7) 2_656 2_455 ?
W1 W1 Fe1 109.673(7) 2_656 2_456 ?
W1 W1 Fe1 128.373(17) 2_656 2_465 ?
W1 W1 Fe1 109.264(17) 2_656 2_466 ?
W1 W1 Fe1 73.110(14) 2_656 2_545 ?
W1 W1 Fe1 58.818(14) 2_656 2_546 ?
W1 W1 Fe1 66.079(7) 2_656 2_555 ?
W1 W1 Fe1 82.945(17) 2_656 2_565 ?
W1 W1 Fe1 65.565(17) 2_656 2_566 ?
W1 W1 Fe1 136.226(10) 2_656 5_455 ?
W1 W1 Fe1 117.479(10) 2_656 5_456 ?
W1 W1 Fe1 165.199(8) 2_656 5_465 ?
W1 W1 Fe1 131.648(8) 2_656 5_466 ?
W1 W1 Fe1 94.566(18) 2_656 5_555 ?
W1 W1 Fe1 72.970(18) 2_656 5_556 ?
W1 W1 Fe1 110.269(20) 2_656 5_565 ?
W1 W1 Fe1 78.858(20) 2_656 5_566 ?
W1 W1 Fe1 52.362(9) 2_656 5_655 ?
W1 W1 Fe1 54.638(8) 2_656 5_665 ?
W1 W1 Fe1 144.665(6) 2_656 6_345 ?
W1 W1 Fe1 155.820(8) 2_656 6_355 ?
W1 W1 Fe1 124.193(8) 2_656 6_444 ?
W1 W1 Fe1 119.478(20) 2_656 6_445 ?
W1 W1 Fe1 91.001(8) 2_656 6_446 ?
W1 W1 Fe1 132.732(10) 2_656 6_454 ?
W1 W1 Fe1 133.64(2) 2_656 6_455 ?
W1 W1 Fe1 97.704(10) 2_656 6_456 ?
W1 W1 Fe1 82.296(8) 2_656 6_544 ?
W1 W1 Fe1 46.362(19) 2_656 6_545 ?
W1 W1 Fe1 47.268(7) 2_656 6_546 ?
W1 W1 Fe1 88.999(10) 2_656 6_554 ?
W1 W1 Fe1 60.52(2) 2_656 6_555 ?
W1 W1 Fe1 55.807(10) 2_656 6_556 ?
W1 W1 O1 136.35(5) 2_656 1_454 ?
W1 W1 O1 152.66(7) 2_656 1_455 ?
W1 W1 O1 106.71(4) 2_656 1_456 ?
W1 W1 O1 135.21(5) 2_656 1_465 ?
W1 W1 O1 109.35(4) 2_656 1_466 ?
W1 W1 O1 75.46(4) 2_656 1_545 ?
W1 W1 O1 96.08(5) 2_656 1_554 ?
W1 W1 O1 57.37(10) 2_656 1_555 ?
W1 W1 O1 52.95(4) 2_656 1_556 ?
W1 W1 O1 100.61(4) 2_656 1_564 ?
W1 W1 O1 86.08(5) 2_656 1_565 ?
W1 W1 O1 71.16(4) 2_656 1_566 ?
W1 W1 O1 51.24(3) 2_656 1_665 ?
W1 W1 O1 174.13(5) 2_656 2_355 ?
W1 W1 O1 129.73(4) 2_656 2_356 ?
W1 W1 O1 98.71(5) 2_656 2_445 ?
W1 W1 O1 82.66(4) 2_656 2_446 ?
W1 W1 O1 118.94(5) 2_656 2_454 ?
W1 W1 O1 142.58(12) 2_656 2_455 ?
W1 W1 O1 88.42(6) 2_656 2_456 ?
W1 W1 O1 111.77(5) 2_656 2_465 ?
W1 W1 O1 95.22(4) 2_656 2_466 ?
W1 W1 O1 58.86(3) 2_656 2_545 ?
W1 W1 O1 45.01(3) 2_656 2_546 ?
W1 W1 O1 46.34(5) 2_656 2_555 ?
W1 W1 O1 73.64(4) 2_656 2_565 ?
W1 W1 O1 157.01(4) 2_656 3_454 ?
W1 W1 O1 146.39(4) 2_656 3_455 ?
W1 W1 O1 141.18(4) 2_656 3_465 ?
W1 W1 O1 90.06(4) 2_656 3_545 ?
W1 W1 O1 122.25(6) 2_656 3_554 ?
W1 W1 O1 112.19(11) 2_656 3_555 ?
W1 W1 O1 80.96(4) 2_656 3_556 ?
W1 W1 O1 120.34(5) 2_656 3_564 ?
W1 W1 O1 108.11(6) 2_656 3_565 ?
W1 W1 O1 88.19(4) 2_656 3_566 ?
W1 W1 O1 69.86(4) 2_656 3_654 ?
W1 W1 O1 80.29(4) 2_656 3_664 ?
W1 W1 O1 59.44(4) 2_656 3_665 ?
W1 W1 O1 121.16(4) 2_656 4_444 ?
W1 W1 O1 108.09(4) 2_656 4_445 ?
W1 W1 O1 156.47(6) 2_656 4_454 ?
W1 W1 O1 135.05(6) 2_656 4_455 ?
W1 W1 O1 119.65(4) 2_656 4_465 ?
W1 W1 O1 85.02(4) 2_656 4_544 ?
W1 W1 O1 66.95(4) 2_656 4_545 ?
W1 W1 O1 92.70(7) 2_656 4_554 ?
W1 W1 O1 61.72(3) 2_656 4_556 ?
W1 W1 O1 97.43(4) 2_656 4_564 ?
W1 W1 O1 82.64(4) 2_656 4_565 ?
W1 W1 O1 51.04(3) 2_656 4_654 ?
W1 W1 O1 149.70(4) 2_656 5_455 ?
W1 W1 O1 123.92(4) 2_656 5_456 ?
W1 W1 O1 160.16(4) 2_656 5_465 ?
W1 W1 O1 129.77(4) 2_656 5_466 ?
W1 W1 O1 115.17(4) 2_656 5_554 ?
W1 W1 O1 115.14(7) 2_656 5_555 ?
W1 W1 O1 86.27(5) 2_656 5_556 ?
W1 W1 O1 120.69(4) 2_656 5_564 ?
W1 W1 O1 124.72(7) 2_656 5_565 ?
W1 W1 O1 95.33(5) 2_656 5_566 ?
W1 W1 O1 50.25(4) 2_656 5_655 ?
W1 W1 O1 63.32(4) 2_656 5_665 ?
W1 W1 O1 46.80(3) 2_656 5_666 ?
W1 W1 O1 124.46(5) 2_656 6_445 ?
W1 W1 O1 101.82(4) 2_656 6_446 ?
W1 W1 O1 141.45(5) 2_656 6_454 ?
W1 W1 O1 162.44(6) 2_656 6_455 ?
W1 W1 O1 111.74(4) 2_656 6_456 ?
W1 W1 O1 93.65(4) 2_656 6_544 ?
W1 W1 O1 73.23(5) 2_656 6_545 ?
W1 W1 O1 60.43(4) 2_656 6_546 ?
W1 W1 O1 101.07(5) 2_656 6_554 ?
W1 W1 O1 75.99(10) 2_656 6_555 ?
W1 W1 O1 61.52(5) 2_656 6_556 ?
W1 W1 O1 91.67(4) 2_656 6_565 ?
W1 W1 O1 137.06(5) 2_656 7_454 ?
W1 W1 O1 119.72(5) 2_656 7_455 ?
W1 W1 O1 145.51(5) 2_656 7_464 ?
W1 W1 O1 127.69(5) 2_656 7_465 ?
W1 W1 O1 85.17(6) 2_656 7_554 ?
W1 W1 O1 51.46(6) 2_656 7_555 ?
W1 W1 O1 58.98(3) 2_656 7_556 ?
W1 W1 O1 94.30(5) 2_656 7_564 ?
W1 W1 O1 69.05(6) 2_656 7_565 ?
W1 W1 O1 66.14(3) 2_656 7_566 ?
W1 W1 O1 49.57(3) 2_656 7_654 ?
W1 W1 O1 57.78(3) 2_656 7_664 ?
W1 W1 O1 129.92(4) 2_656 8_345 ?
W1 W1 O1 162.91(4) 2_656 8_354 ?
W1 W1 O1 151.25(5) 2_656 8_355 ?
W1 W1 O1 108.57(5) 2_656 8_444 ?
W1 W1 O1 92.63(6) 2_656 8_445 ?
W1 W1 O1 78.01(3) 2_656 8_446 ?
W1 W1 O1 124.48(6) 2_656 8_454 ?
W1 W1 O1 115.98(11) 2_656 8_455 ?
W1 W1 O1 82.81(4) 2_656 8_456 ?
W1 W1 O1 102.85(4) 2_656 8_465 ?
W1 W1 O1 69.11(4) 2_656 8_544 ?
W1 W1 O1 72.62(4) 2_656 8_554 ?
W1 W1 W1 45.525(11) 5_455 5_456 ?
W1 W1 W1 55.254(17) 5_455 5_465 ?
W1 W1 W1 77.131(17) 5_455 5_466 ?
W1 W1 W1 45.591(18) 5_455 5_555 ?
W1 W1 W1 74.222(18) 5_455 5_556 ?
W1 W1 W1 92.24(3) 5_455 5_565 ?
W1 W1 W1 131.22(3) 5_455 5_566 ?
W1 W1 W1 91.182(11) 5_455 5_655 ?
W1 W1 W1 108.665(11) 5_455 5_656 ?
W1 W1 W1 127.854(17) 5_455 5_665 ?
W1 W1 W1 163.918(17) 5_455 5_666 ?
W1 W1 W1 63.776(15) 5_455 6_355 ?
W1 W1 W1 77.328(10) 5_455 6_446 ?
W1 W1 W1 71.719(18) 5_455 6_454 ?
W1 W1 W1 89.91(3) 5_455 6_455 ?
W1 W1 W1 108.168(18) 5_455 6_456 ?
W1 W1 W1 71.832(10) 5_455 6_544 ?
W1 W1 W1 90.09(2) 5_455 6_545 ?
W1 W1 W1 108.280(10) 5_455 6_546 ?
W1 W1 W1 102.672(18) 5_455 6_554 ?
W1 W1 W1 154.65(3) 5_455 6_555 ?
W1 W1 W1 147.656(18) 5_455 6_556 ?
W1 W1 W1 116.224(9) 5_455 6_645 ?
W1 W1 W1 151.818(15) 5_455 6_655 ?
W1 W1 Fe1 78.448(11) 5_455 1_456 ?
W1 W1 Fe1 89.91(2) 5_455 1_465 ?
W1 W1 Fe1 54.332(18) 5_455 1_545 ?
W1 W1 Fe1 67.237(13) 5_455 1_554 ?
W1 W1 Fe1 112.763(13) 5_455 1_556 ?
W1 W1 Fe1 125.67(3) 5_455 1_565 ?
W1 W1 Fe1 90.090(13) 5_455 1_645 ?
W1 W1 Fe1 101.552(11) 5_455 1_654 ?
W1 W1 Fe1 135.591(14) 5_455 1_655 ?
W1 W1 Fe1 140.251(11) 5_455 1_656 ?
W1 W1 Fe1 154.65(2) 5_455 1_665 ?
W1 W1 Fe1 52.362(9) 5_455 2_356 ?
W1 W1 Fe1 52.414(14) 5_455 2_446 ?
W1 W1 Fe1 69.533(15) 5_455 2_456 ?
W1 W1 Fe1 91.15(2) 5_455 2_465 ?
W1 W1 Fe1 110.74(2) 5_455 2_466 ?
W1 W1 Fe1 64.780(14) 5_455 2_545 ?
W1 W1 Fe1 80.497(14) 5_455 2_546 ?
W1 W1 Fe1 92.069(15) 5_455 2_555 ?
W1 W1 Fe1 125.715(15) 5_455 2_556 ?
W1 W1 Fe1 126.12(2) 5_455 2_565 ?
W1 W1 Fe1 157.45(2) 5_455 2_566 ?
W1 W1 Fe1 117.479(10) 5_455 2_655 ?
W1 W1 Fe1 136.226(10) 5_455 2_656 ?
W1 W1 Fe1 45.525(11) 5_455 5_456 ?
W1 W1 Fe1 55.254(17) 5_455 5_465 ?
W1 W1 Fe1 77.131(17) 5_455 5_466 ?
W1 W1 Fe1 45.591(18) 5_455 5_555 ?
W1 W1 Fe1 74.222(18) 5_455 5_556 ?
W1 W1 Fe1 92.24(3) 5_455 5_565 ?
W1 W1 Fe1 131.22(3) 5_455 5_566 ?
W1 W1 Fe1 91.182(11) 5_455 5_655 ?
W1 W1 Fe1 108.665(11) 5_455 5_656 ?
W1 W1 Fe1 127.854(17) 5_455 5_665 ?
W1 W1 Fe1 163.918(17) 5_455 5_666 ?
W1 W1 Fe1 63.776(15) 5_455 6_355 ?
W1 W1 Fe1 77.328(10) 5_455 6_446 ?
W1 W1 Fe1 71.719(18) 5_455 6_454 ?
W1 W1 Fe1 89.91(3) 5_455 6_455 ?
W1 W1 Fe1 108.168(18) 5_455 6_456 ?
W1 W1 Fe1 71.832(10) 5_455 6_544 ?
W1 W1 Fe1 90.09(2) 5_455 6_545 ?
W1 W1 Fe1 108.280(10) 5_455 6_546 ?
W1 W1 Fe1 102.672(18) 5_455 6_554 ?
W1 W1 Fe1 154.65(3) 5_455 6_555 ?
W1 W1 Fe1 147.656(18) 5_455 6_556 ?
W1 W1 Fe1 116.224(9) 5_455 6_645 ?
W1 W1 Fe1 151.818(15) 5_455 6_655 ?
W1 W1 O1 74.15(5) 5_455 1_456 ?
W1 W1 O1 88.46(5) 5_455 1_465 ?
W1 W1 O1 104.88(5) 5_455 1_466 ?
W1 W1 O1 60.77(3) 5_455 1_545 ?
W1 W1 O1 70.06(4) 5_455 1_554 ?
W1 W1 O1 85.86(11) 5_455 1_555 ?
W1 W1 O1 113.39(6) 5_455 1_556 ?
W1 W1 O1 99.40(4) 5_455 1_564 ?
W1 W1 O1 132.42(7) 5_455 1_565 ?
W1 W1 O1 144.99(6) 5_455 1_566 ?
W1 W1 O1 121.50(4) 5_455 1_655 ?
W1 W1 O1 134.25(4) 5_455 1_656 ?
W1 W1 O1 150.73(5) 5_455 1_665 ?
W1 W1 O1 66.63(4) 5_455 2_356 ?
W1 W1 O1 66.04(4) 5_455 2_446 ?
W1 W1 O1 61.91(4) 5_455 2_454 ?
W1 W1 O1 51.31(10) 5_455 2_455 ?
W1 W1 O1 101.28(8) 5_455 2_456 ?
W1 W1 O1 109.09(5) 5_455 2_465 ?
W1 W1 O1 125.38(5) 5_455 2_466 ?
W1 W1 O1 79.28(4) 5_455 2_545 ?
W1 W1 O1 95.52(4) 5_455 2_546 ?
W1 W1 O1 121.34(6) 5_455 2_555 ?
W1 W1 O1 144.76(6) 5_455 2_556 ?
W1 W1 O1 138.79(5) 5_455 2_565 ?
W1 W1 O1 79.93(4) 5_455 3_465 ?
W1 W1 O1 49.38(3) 5_455 3_545 ?
W1 W1 O1 48.42(11) 5_455 3_555 ?
W1 W1 O1 96.18(5) 5_455 3_556 ?
W1 W1 O1 90.66(5) 5_455 3_564 ?
W1 W1 O1 115.47(6) 5_455 3_565 ?
W1 W1 O1 122.08(5) 5_455 3_566 ?
W1 W1 O1 90.86(4) 5_455 3_654 ?
W1 W1 O1 123.28(7) 5_455 3_655 ?
W1 W1 O1 125.29(5) 5_455 3_656 ?
W1 W1 O1 119.00(5) 5_455 3_664 ?
W1 W1 O1 160.74(6) 5_455 3_665 ?
W1 W1 O1 63.83(5) 5_455 4_455 ?
W1 W1 O1 102.62(5) 5_455 4_465 ?
W1 W1 O1 55.15(3) 5_455 4_544 ?
W1 W1 O1 72.46(4) 5_455 4_545 ?
W1 W1 O1 83.88(7) 5_455 4_554 ?
W1 W1 O1 141.35(13) 5_455 4_555 ?
W1 W1 O1 121.13(5) 5_455 4_556 ?
W1 W1 O1 115.13(5) 5_455 4_564 ?
W1 W1 O1 141.12(6) 5_455 4_565 ?
W1 W1 O1 116.36(4) 5_455 4_654 ?
W1 W1 O1 145.09(5) 5_455 4_655 ?
W1 W1 O1 52.50(3) 5_455 5_456 ?
W1 W1 O1 63.62(4) 5_455 5_465 ?
W1 W1 O1 81.45(4) 5_455 5_466 ?
W1 W1 O1 46.85(3) 5_455 5_554 ?
W1 W1 O1 75.57(6) 5_455 5_556 ?
W1 W1 O1 77.03(4) 5_455 5_564 ?
W1 W1 O1 94.02(7) 5_455 5_565 ?
W1 W1 O1 117.81(6) 5_455 5_566 ?
W1 W1 O1 93.44(5) 5_455 5_655 ?
W1 W1 O1 114.23(5) 5_455 5_656 ?
W1 W1 O1 137.01(6) 5_455 5_665 ?
W1 W1 O1 166.40(6) 5_455 5_666 ?
W1 W1 O1 61.21(4) 5_455 6_446 ?
W1 W1 O1 56.59(3) 5_455 6_454 ?
W1 W1 O1 61.10(5) 5_455 6_455 ?
W1 W1 O1 90.08(5) 5_455 6_456 ?
W1 W1 O1 57.51(3) 5_455 6_544 ?
W1 W1 O1 63.24(5) 5_455 6_545 ?
W1 W1 O1 90.19(5) 5_455 6_546 ?
W1 W1 O1 84.73(4) 5_455 6_554 ?
W1 W1 O1 130.97(12) 5_455 6_555 ?
W1 W1 O1 136.03(7) 5_455 6_556 ?
W1 W1 O1 129.25(5) 5_455 6_565 ?
W1 W1 O1 101.37(4) 5_455 6_645 ?
W1 W1 O1 141.61(5) 5_455 6_655 ?
W1 W1 O1 156.05(5) 5_455 6_656 ?
W1 W1 O1 70.40(4) 5_455 7_464 ?
W1 W1 O1 90.46(6) 5_455 7_465 ?
W1 W1 O1 64.49(5) 5_455 7_554 ?
W1 W1 O1 90.88(7) 5_455 7_555 ?
W1 W1 O1 105.89(5) 5_455 7_556 ?
W1 W1 O1 107.33(6) 5_455 7_564 ?
W1 W1 O1 153.63(8) 5_455 7_565 ?
W1 W1 O1 134.99(5) 5_455 7_566 ?
W1 W1 O1 101.31(4) 5_455 7_654 ?
W1 W1 O1 120.44(4) 5_455 7_655 ?
W1 W1 O1 129.34(4) 5_455 7_664 ?
W1 W1 O1 166.15(5) 5_455 7_665 ?
W1 W1 O1 49.04(3) 5_455 8_354 ?
W1 W1 O1 61.94(4) 5_455 8_355 ?
W1 W1 O1 49.00(5) 5_455 8_445 ?
W1 W1 O1 83.14(4) 5_455 8_446 ?
W1 W1 O1 71.74(5) 5_455 8_454 ?
W1 W1 O1 103.70(12) 5_455 8_455 ?
W1 W1 O1 113.33(5) 5_455 8_456 ?
W1 W1 O1 120.91(5) 5_455 8_465 ?
W1 W1 O1 77.89(4) 5_455 8_544 ?
W1 W1 O1 95.35(5) 5_455 8_545 ?
W1 W1 O1 108.99(5) 5_455 8_554 ?
W1 W1 O1 162.12(7) 5_455 8_555 ?
W1 W1 O1 144.77(5) 5_455 8_556 ?
W1 W1 W1 77.131(17) 5_456 5_465 ?
W1 W1 W1 55.254(17) 5_456 5_466 ?
W1 W1 W1 74.222(18) 5_456 5_555 ?
W1 W1 W1 45.591(18) 5_456 5_556 ?
W1 W1 W1 131.22(3) 5_456 5_565 ?
W1 W1 W1 92.24(3) 5_456 5_566 ?
W1 W1 W1 108.665(11) 5_456 5_655 ?
W1 W1 W1 91.182(11) 5_456 5_656 ?
W1 W1 W1 163.918(17) 5_456 5_665 ?
W1 W1 W1 127.854(17) 5_456 5_666 ?
W1 W1 W1 63.776(15) 5_456 6_355 ?
W1 W1 W1 77.328(10) 5_456 6_444 ?
W1 W1 W1 108.168(18) 5_456 6_454 ?
W1 W1 W1 89.91(3) 5_456 6_455 ?
W1 W1 W1 71.719(18) 5_456 6_456 ?
W1 W1 W1 108.280(10) 5_456 6_544 ?
W1 W1 W1 90.09(2) 5_456 6_545 ?
W1 W1 W1 71.832(10) 5_456 6_546 ?
W1 W1 W1 147.656(18) 5_456 6_554 ?
W1 W1 W1 154.65(3) 5_456 6_555 ?
W1 W1 W1 102.672(18) 5_456 6_556 ?
W1 W1 W1 116.224(9) 5_456 6_645 ?
W1 W1 W1 151.818(15) 5_456 6_655 ?
W1 W1 Fe1 78.448(11) 5_456 1_454 ?
W1 W1 Fe1 89.91(2) 5_456 1_465 ?
W1 W1 Fe1 54.332(18) 5_456 1_545 ?
W1 W1 Fe1 112.763(13) 5_456 1_554 ?
W1 W1 Fe1 67.237(13) 5_456 1_556 ?
W1 W1 Fe1 125.67(3) 5_456 1_565 ?
W1 W1 Fe1 90.090(13) 5_456 1_645 ?
W1 W1 Fe1 140.251(11) 5_456 1_654 ?
W1 W1 Fe1 135.591(14) 5_456 1_655 ?
W1 W1 Fe1 101.552(11) 5_456 1_656 ?
W1 W1 Fe1 154.65(2) 5_456 1_665 ?
W1 W1 Fe1 52.362(9) 5_456 2_355 ?
W1 W1 Fe1 52.414(14) 5_456 2_445 ?
W1 W1 Fe1 69.533(15) 5_456 2_455 ?
W1 W1 Fe1 110.74(2) 5_456 2_465 ?
W1 W1 Fe1 91.15(2) 5_456 2_466 ?
W1 W1 Fe1 80.497(14) 5_456 2_545 ?
W1 W1 Fe1 64.780(14) 5_456 2_546 ?
W1 W1 Fe1 125.715(15) 5_456 2_555 ?
W1 W1 Fe1 92.069(15) 5_456 2_556 ?
W1 W1 Fe1 157.45(2) 5_456 2_565 ?
W1 W1 Fe1 126.12(2) 5_456 2_566 ?
W1 W1 Fe1 136.226(10) 5_456 2_655 ?
W1 W1 Fe1 117.479(10) 5_456 2_656 ?
W1 W1 Fe1 45.525(11) 5_456 5_455 ?
W1 W1 Fe1 77.131(17) 5_456 5_465 ?
W1 W1 Fe1 55.254(17) 5_456 5_466 ?
W1 W1 Fe1 74.222(18) 5_456 5_555 ?
W1 W1 Fe1 45.591(18) 5_456 5_556 ?
W1 W1 Fe1 131.22(3) 5_456 5_565 ?
W1 W1 Fe1 92.24(3) 5_456 5_566 ?
W1 W1 Fe1 108.665(11) 5_456 5_655 ?
W1 W1 Fe1 91.182(11) 5_456 5_656 ?
W1 W1 Fe1 163.918(17) 5_456 5_665 ?
W1 W1 Fe1 127.854(17) 5_456 5_666 ?
W1 W1 Fe1 63.776(15) 5_456 6_355 ?
W1 W1 Fe1 77.328(10) 5_456 6_444 ?
W1 W1 Fe1 108.168(18) 5_456 6_454 ?
W1 W1 Fe1 89.91(3) 5_456 6_455 ?
W1 W1 Fe1 71.719(18) 5_456 6_456 ?
W1 W1 Fe1 108.280(10) 5_456 6_544 ?
W1 W1 Fe1 90.09(2) 5_456 6_545 ?
W1 W1 Fe1 71.832(10) 5_456 6_546 ?
W1 W1 Fe1 147.656(18) 5_456 6_554 ?
W1 W1 Fe1 154.65(3) 5_456 6_555 ?
W1 W1 Fe1 102.672(18) 5_456 6_556 ?
W1 W1 Fe1 116.224(9) 5_456 6_645 ?
W1 W1 Fe1 151.818(15) 5_456 6_655 ?
W1 W1 O1 82.76(4) 5_456 1_454 ?
W1 W1 O1 95.00(5) 5_456 1_465 ?
W1 W1 O1 78.00(4) 5_456 1_466 ?
W1 W1 O1 66.61(4) 5_456 1_545 ?
W1 W1 O1 113.61(5) 5_456 1_554 ?
W1 W1 O1 105.06(12) 5_456 1_555 ?
W1 W1 O1 71.52(5) 5_456 1_556 ?
W1 W1 O1 140.47(5) 5_456 1_564 ?
W1 W1 O1 144.28(7) 5_456 1_565 ?
W1 W1 O1 107.37(5) 5_456 1_566 ?
W1 W1 O1 128.93(5) 5_456 1_655 ?
W1 W1 O1 104.80(4) 5_456 1_656 ?
W1 W1 O1 163.53(5) 5_456 1_665 ?
W1 W1 O1 56.70(4) 5_456 2_355 ?
W1 W1 O1 55.50(4) 5_456 2_445 ?
W1 W1 O1 107.02(5) 5_456 2_454 ?
W1 W1 O1 91.29(12) 5_456 2_455 ?
W1 W1 O1 57.35(6) 5_456 2_456 ?
W1 W1 O1 122.34(5) 5_456 2_465 ?
W1 W1 O1 101.75(5) 5_456 2_466 ?
W1 W1 O1 90.49(4) 5_456 2_545 ?
W1 W1 O1 74.98(3) 5_456 2_546 ?
W1 W1 O1 148.08(7) 5_456 2_555 ?
W1 W1 O1 106.78(5) 5_456 2_556 ?
W1 W1 O1 159.20(5) 5_456 2_565 ?
W1 W1 O1 63.26(3) 5_456 3_454 ?
W1 W1 O1 74.84(4) 5_456 3_465 ?
W1 W1 O1 90.18(6) 5_456 3_554 ?
W1 W1 O1 50.67(4) 5_456 3_556 ?
W1 W1 O1 122.14(5) 5_456 3_564 ?
W1 W1 O1 107.02(6) 5_456 3_565 ?
W1 W1 O1 85.60(4) 5_456 3_566 ?
W1 W1 O1 127.03(5) 5_456 3_654 ?
W1 W1 O1 111.99(6) 5_456 3_655 ?
W1 W1 O1 85.32(4) 5_456 3_656 ?
W1 W1 O1 161.71(5) 5_456 3_664 ?
W1 W1 O1 146.10(6) 5_456 3_665 ?
W1 W1 O1 52.80(3) 5_456 4_444 ?
W1 W1 O1 77.01(5) 5_456 4_454 ?
W1 W1 O1 92.06(4) 5_456 4_465 ?
W1 W1 O1 80.25(4) 5_456 4_544 ?
W1 W1 O1 58.15(4) 5_456 4_545 ?
W1 W1 O1 128.94(8) 5_456 4_554 ?
W1 W1 O1 97.67(11) 5_456 4_555 ?
W1 W1 O1 75.72(4) 5_456 4_556 ?
W1 W1 O1 143.14(5) 5_456 4_564 ?
W1 W1 O1 124.79(5) 5_456 4_565 ?
W1 W1 O1 146.61(5) 5_456 4_654 ?
W1 W1 O1 126.99(5) 5_456 4_655 ?
W1 W1 O1 75.23(4) 5_456 5_465 ?
W1 W1 O1 60.27(3) 5_456 5_466 ?
W1 W1 O1 91.61(4) 5_456 5_554 ?
W1 W1 O1 58.32(7) 5_456 5_555 ?
W1 W1 O1 117.91(5) 5_456 5_564 ?
W1 W1 O1 114.69(8) 5_456 5_565 ?
W1 W1 O1 85.38(6) 5_456 5_566 ?
W1 W1 O1 110.17(6) 5_456 5_655 ?
W1 W1 O1 86.08(4) 5_456 5_656 ?
W1 W1 O1 175.97(6) 5_456 5_665 ?
W1 W1 O1 121.09(5) 5_456 5_666 ?
W1 W1 O1 95.31(5) 5_456 6_454 ?
W1 W1 O1 71.18(6) 5_456 6_455 ?
W1 W1 O1 55.67(4) 5_456 6_456 ?
W1 W1 O1 95.29(4) 5_456 6_544 ?
W1 W1 O1 72.57(5) 5_456 6_545 ?
W1 W1 O1 57.05(4) 5_456 6_546 ?
W1 W1 O1 130.02(6) 5_456 6_554 ?
W1 W1 O1 164.14(13) 5_456 6_555 ?
W1 W1 O1 90.96(6) 5_456 6_556 ?
W1 W1 O1 136.03(5) 5_456 6_565 ?
W1 W1 O1 106.76(4) 5_456 6_645 ?
W1 W1 O1 153.04(5) 5_456 6_655 ?
W1 W1 O1 117.84(4) 5_456 6_656 ?
W1 W1 O1 61.01(4) 5_456 7_454 ?
W1 W1 O1 96.91(5) 5_456 7_464 ?
W1 W1 O1 75.05(5) 5_456 7_465 ?
W1 W1 O1 99.09(6) 5_456 7_554 ?
W1 W1 O1 67.82(6) 5_456 7_555 ?
W1 W1 O1 64.00(3) 5_456 7_556 ?
W1 W1 O1 147.68(7) 5_456 7_564 ?
W1 W1 O1 123.26(7) 5_456 7_565 ?
W1 W1 O1 90.83(4) 5_456 7_566 ?
W1 W1 O1 123.60(4) 5_456 7_654 ?
W1 W1 O1 108.11(4) 5_456 7_655 ?
W1 W1 O1 168.88(5) 5_456 7_664 ?
W1 W1 O1 141.40(5) 5_456 7_665 ?
W1 W1 O1 77.95(4) 5_456 8_354 ?
W1 W1 O1 54.69(4) 5_456 8_355 ?
W1 W1 O1 75.31(4) 5_456 8_444 ?
W1 W1 O1 112.93(6) 5_456 8_454 ?
W1 W1 O1 86.02(11) 5_456 8_455 ?
W1 W1 O1 70.19(4) 5_456 8_456 ?
W1 W1 O1 115.26(5) 5_456 8_465 ?
W1 W1 O1 105.34(4) 5_456 8_544 ?
W1 W1 O1 88.59(4) 5_456 8_545 ?
W1 W1 O1 152.98(6) 5_456 8_554 ?
W1 W1 O1 142.28(7) 5_456 8_555 ?
W1 W1 O1 100.00(4) 5_456 8_556 ?
W1 W1 W1 53.320(7) 5_465 5_466 ?
W1 W1 W1 91.79(3) 5_465 5_555 ?
W1 W1 W1 121.83(3) 5_465 5_556 ?
W1 W1 W1 55.938(17) 5_465 5_565 ?
W1 W1 W1 99.139(17) 5_465 5_566 ?
W1 W1 W1 127.854(17) 5_465 5_655 ?
W1 W1 W1 163.918(17) 5_465 5_656 ?
W1 W1 W1 111.876(8) 5_465 5_665 ?
W1 W1 W1 140.828(8) 5_465 5_666 ?
W1 W1 W1 50.136(12) 5_465 6_345 ?
W1 W1 W1 58.731(14) 5_465 6_444 ?
W1 W1 W1 74.60(3) 5_465 6_445 ?
W1 W1 W1 101.905(14) 5_465 6_446 ?
W1 W1 W1 84.313(9) 5_465 6_456 ?
W1 W1 W1 95.687(14) 5_465 6_544 ?
W1 W1 W1 141.65(3) 5_465 6_545 ?
W1 W1 W1 145.532(14) 5_465 6_546 ?
W1 W1 W1 78.095(9) 5_465 6_554 ?
W1 W1 W1 105.403(20) 5_465 6_555 ?
W1 W1 W1 121.269(9) 5_465 6_556 ?
W1 W1 W1 153.340(12) 5_465 6_645 ?
W1 W1 W1 129.864(7) 5_465 6_655 ?
W1 W1 Fe1 74.597(19) 5_465 1_445 ?
W1 W1 Fe1 76.571(7) 5_465 1_456 ?
W1 W1 Fe1 109.59(3) 5_465 1_545 ?
W1 W1 Fe1 63.340(8) 5_465 1_554 ?
W1 W1 Fe1 116.660(8) 5_465 1_556 ?
W1 W1 Fe1 70.414(19) 5_465 1_565 ?
W1 W1 Fe1 141.653(19) 5_465 1_645 ?
W1 W1 Fe1 103.429(7) 5_465 1_654 ?
W1 W1 Fe1 145.938(8) 5_465 1_655 ?
W1 W1 Fe1 153.078(7) 5_465 1_656 ?
W1 W1 Fe1 105.403(13) 5_465 1_665 ?
W1 W1 Fe1 54.638(8) 5_465 2_356 ?
W1 W1 Fe1 83.60(2) 5_465 2_445 ?
W1 W1 Fe1 101.02(2) 5_465 2_446 ?
W1 W1 Fe1 82.326(15) 5_465 2_456 ?
W1 W1 Fe1 65.939(15) 5_465 2_466 ?
W1 W1 Fe1 113.85(2) 5_465 2_545 ?
W1 W1 Fe1 135.00(2) 5_465 2_546 ?
W1 W1 Fe1 108.290(15) 5_465 2_555 ?
W1 W1 Fe1 161.609(15) 5_465 2_556 ?
W1 W1 Fe1 82.254(15) 5_465 2_565 ?
W1 W1 Fe1 104.635(15) 5_465 2_566 ?
W1 W1 Fe1 131.648(8) 5_465 2_655 ?
W1 W1 Fe1 165.199(8) 5_465 2_656 ?
W1 W1 Fe1 55.254(17) 5_465 5_455 ?
W1 W1 Fe1 77.131(17) 5_465 5_456 ?
W1 W1 Fe1 53.320(7) 5_465 5_466 ?
W1 W1 Fe1 91.79(3) 5_465 5_555 ?
W1 W1 Fe1 121.83(3) 5_465 5_556 ?
W1 W1 Fe1 55.938(17) 5_465 5_565 ?
W1 W1 Fe1 99.139(17) 5_465 5_566 ?
W1 W1 Fe1 127.854(17) 5_465 5_655 ?
W1 W1 Fe1 163.918(17) 5_465 5_656 ?
W1 W1 Fe1 111.876(8) 5_465 5_665 ?
W1 W1 Fe1 140.828(8) 5_465 5_666 ?
W1 W1 Fe1 50.136(12) 5_465 6_345 ?
W1 W1 Fe1 58.731(14) 5_465 6_444 ?
W1 W1 Fe1 74.60(3) 5_465 6_445 ?
W1 W1 Fe1 101.905(14) 5_465 6_446 ?
W1 W1 Fe1 84.313(9) 5_465 6_456 ?
W1 W1 Fe1 95.687(14) 5_465 6_544 ?
W1 W1 Fe1 141.65(3) 5_465 6_545 ?
W1 W1 Fe1 145.532(14) 5_465 6_546 ?
W1 W1 Fe1 78.095(9) 5_465 6_554 ?
W1 W1 Fe1 105.403(20) 5_465 6_555 ?
W1 W1 Fe1 121.269(9) 5_465 6_556 ?
W1 W1 Fe1 153.340(12) 5_465 6_645 ?
W1 W1 Fe1 129.864(7) 5_465 6_655 ?
W1 W1 O1 84.67(5) 5_465 1_456 ?
W1 W1 O1 69.79(4) 5_465 1_466 ?
W1 W1 O1 114.95(5) 5_465 1_545 ?
W1 W1 O1 78.87(4) 5_465 1_554 ?
W1 W1 O1 123.68(12) 5_465 1_555 ?
W1 W1 O1 137.11(7) 5_465 1_556 ?
W1 W1 O1 65.61(3) 5_465 1_564 ?
W1 W1 O1 79.88(5) 5_465 1_565 ?
W1 W1 O1 103.27(5) 5_465 1_566 ?
W1 W1 O1 144.05(5) 5_465 1_655 ?
W1 W1 O1 167.94(5) 5_465 1_656 ?
W1 W1 O1 114.00(4) 5_465 1_665 ?
W1 W1 O1 59.93(4) 5_465 2_356 ?
W1 W1 O1 91.70(5) 5_465 2_445 ?
W1 W1 O1 112.14(5) 5_465 2_446 ?
W1 W1 O1 54.12(4) 5_465 2_454 ?
W1 W1 O1 98.61(8) 5_465 2_456 ?
W1 W1 O1 54.58(4) 5_465 2_465 ?
W1 W1 O1 78.52(4) 5_465 2_466 ?
W1 W1 O1 126.90(5) 5_465 2_545 ?
W1 W1 O1 149.39(5) 5_465 2_546 ?
W1 W1 O1 122.31(6) 5_465 2_555 ?
W1 W1 O1 153.09(6) 5_465 2_556 ?
loop_
_geom_bond_atom_site_label_1
_geom_bond_atom_site_label_2
_geom_bond_distance
_geom_bond_site_symmetry_2
_geom_bond_publ_flag
W1 W1 7.2297(12) 1_445 ?
W1 W1 6.75373(5) 1_454 ?
W1 W1 4.58111(5) 1_455 ?
W1 W1 6.75373(5) 1_456 ?
W1 W1 7.2297(12) 1_465 ?
W1 W1 5.5930(15) 1_545 ?
W1 W1 4.96249(5) 1_554 ?
W1 W1 4.96249(5) 1_556 ?
W1 W1 5.5930(15) 1_565 ?
W1 W1 7.2297(12) 1_645 ?
W1 W1 6.75373(5) 1_654 ?
W1 W1 4.58111(5) 1_655 ?
W1 W1 6.75373(5) 1_656 ?
W1 W1 7.2297(12) 1_665 ?
W1 W1 7.3665(2) 2_355 ?
W1 W1 7.3665(2) 2_356 ?
W1 W1 7.3566(13) 2_445 ?
W1 W1 7.3566(13) 2_446 ?
W1 W1 3.5060(4) 2_455 ?
W1 W1 3.5060(4) 2_456 ?
W1 W1 5.7470(12) 2_465 ?
W1 W1 5.7470(12) 2_466 ?
W1 W1 7.3566(13) 2_545 ?
W1 W1 7.3566(13) 2_546 ?
W1 W1 3.5060(4) 2_555 ?
W1 W1 3.5060(4) 2_556 ?
W1 W1 5.7470(12) 2_565 ?
W1 W1 5.7470(12) 2_566 ?
W1 W1 7.3665(2) 2_655 ?
W1 W1 7.3665(2) 2_656 ?
W1 W1 6.4129(9) 5_455 ?
W1 W1 6.4129(9) 5_456 ?
W1 W1 5.5299(5) 5_465 ?
W1 W1 5.5299(5) 5_466 ?
W1 W1 4.4876(13) 5_555 ?
W1 W1 4.4876(13) 5_556 ?
W1 W1 3.0972(9) 5_565 ?
W1 W1 3.0972(9) 5_566 ?
W1 W1 6.4129(9) 5_655 ?
W1 W1 6.4129(9) 5_656 ?
W1 W1 5.5299(5) 5_665 ?
W1 W1 5.5299(5) 5_666 ?
W1 W1 7.4189(6) 6_345 ?
W1 W1 7.4189(6) 6_355 ?
W1 W1 6.1395(7) 6_444 ?
W1 W1 3.6148(12) 6_445 ?
W1 W1 6.1395(7) 6_446 ?
W1 W1 6.1395(7) 6_454 ?
W1 W1 3.6148(12) 6_455 ?
W1 W1 6.1395(7) 6_456 ?
W1 W1 6.1395(7) 6_544 ?
W1 W1 3.6148(12) 6_545 ?
W1 W1 6.1395(7) 6_546 ?
W1 W1 6.1395(7) 6_554 ?
W1 W1 3.6148(12) 6_555 ?
W1 W1 6.1395(7) 6_556 ?
W1 W1 7.4189(6) 6_645 ?
W1 W1 7.4189(6) 6_655 ?
W1 Fe1 7.2297(12) 1_445 ?
W1 Fe1 6.75373(5) 1_454 ?
W1 Fe1 4.58111(5) 1_455 ?
W1 Fe1 6.75373(5) 1_456 ?
W1 Fe1 7.2297(12) 1_465 ?
W1 Fe1 5.5930(15) 1_545 ?
W1 Fe1 4.96249(5) 1_554 ?
W1 Fe1 4.96249(5) 1_556 ?
W1 Fe1 5.5930(15) 1_565 ?
W1 Fe1 7.2297(12) 1_645 ?
W1 Fe1 6.75373(5) 1_654 ?
W1 Fe1 4.58111(5) 1_655 ?
W1 Fe1 6.75373(5) 1_656 ?
W1 Fe1 7.2297(12) 1_665 ?
W1 Fe1 7.3665(2) 2_355 ?
W1 Fe1 7.3665(2) 2_356 ?
W1 Fe1 7.3566(13) 2_445 ?
W1 Fe1 7.3566(13) 2_446 ?
W1 Fe1 3.5060(4) 2_455 ?
W1 Fe1 3.5060(4) 2_456 ?
W1 Fe1 5.7470(12) 2_465 ?
W1 Fe1 5.7470(12) 2_466 ?
W1 Fe1 7.3566(13) 2_545 ?
W1 Fe1 7.3566(13) 2_546 ?
W1 Fe1 3.5060(4) 2_555 ?
W1 Fe1 3.5060(4) 2_556 ?
W1 Fe1 5.7470(12) 2_565 ?
W1 Fe1 5.7470(12) 2_566 ?
W1 Fe1 7.3665(2) 2_655 ?
W1 Fe1 7.3665(2) 2_656 ?
W1 Fe1 6.4129(9) 5_455 ?
W1 Fe1 6.4129(9) 5_456 ?
W1 Fe1 5.5299(5) 5_465 ?
W1 Fe1 5.5299(5) 5_466 ?
W1 Fe1 4.4876(13) 5_555 ?
W1 Fe1 4.4876(13) 5_556 ?
W1 Fe1 3.0972(9) 5_565 ?
W1 Fe1 3.0972(9) 5_566 ?
W1 Fe1 6.4129(9) 5_655 ?
W1 Fe1 6.4129(9) 5_656 ?
W1 Fe1 5.5299(5) 5_665 ?
W1 Fe1 5.5299(5) 5_666 ?
W1 Fe1 7.4189(6) 6_345 ?
W1 Fe1 7.4189(6) 6_355 ?
W1 Fe1 6.1395(7) 6_444 ?
W1 Fe1 3.6148(12) 6_445 ?
W1 Fe1 6.1395(7) 6_446 ?
W1 Fe1 6.1395(7) 6_454 ?
W1 Fe1 3.6148(12) 6_455 ?
W1 Fe1 6.1395(7) 6_456 ?
W1 Fe1 6.1395(7) 6_544 ?
W1 Fe1 3.6148(12) 6_545 ?
W1 Fe1 6.1395(7) 6_546 ?
W1 Fe1 6.1395(7) 6_554 ?
W1 Fe1 3.6148(12) 6_555 ?
W1 Fe1 6.1395(7) 6_556 ?
W1 Fe1 7.4189(6) 6_645 ?
W1 Fe1 7.4189(6) 6_655 ?
W1 O1 6.789(3) 1_454 ?
W1 O1 3.649(2) 1_455 ?
W1 O1 5.458(3) 1_456 ?
W1 O1 5.575(3) 1_465 ?
W1 O1 6.896(3) 1_466 ?
W1 O1 6.961(3) 1_545 ?
W1 O1 6.037(3) 1_554 ?
W1 O1 1.914(3) 1_555 ?
W1 O1 4.488(3) 1_556 ?
W1 O1 7.363(3) 1_564 ?
W1 O1 4.630(3) 1_565 ?
W1 O1 6.157(3) 1_566 ?
W1 O1 5.999(2) 1_655 ?
W1 O1 7.243(3) 1_656 ?
W1 O1 7.332(3) 1_665 ?
W1 O1 5.880(2) 2_355 ?
W1 O1 6.536(2) 2_356 ?
W1 O1 5.679(3) 2_445 ?
W1 O1 6.356(3) 2_446 ?
W1 O1 6.711(3) 2_454 ?
W1 O1 1.984(3) 2_455 ?
W1 O1 3.477(3) 2_456 ?
W1 O1 6.179(3) 2_465 ?
W1 O1 6.807(3) 2_466 ?
W1 O1 6.602(3) 2_545 ?
W1 O1 7.193(3) 2_546 ?
W1 O1 3.908(2) 2_555 ?
W1 O1 4.840(3) 2_556 ?
W1 O1 7.037(3) 2_565 ?
W1 O1 7.243(3) 3_454 ?
W1 O1 5.999(2) 3_455 ?
W1 O1 7.332(3) 3_465 ?
W1 O1 6.961(3) 3_545 ?
W1 O1 4.488(3) 3_554 ?
W1 O1 1.914(3) 3_555 ?
W1 O1 6.037(3) 3_556 ?
W1 O1 6.157(3) 3_564 ?
W1 O1 4.630(3) 3_565 ?
W1 O1 7.363(3) 3_566 ?
W1 O1 5.458(3) 3_654 ?
W1 O1 3.649(2) 3_655 ?
W1 O1 6.789(3) 3_656 ?
W1 O1 6.896(3) 3_664 ?
W1 O1 5.575(3) 3_665 ?
W1 O1 7.193(3) 4_444 ?
W1 O1 6.602(3) 4_445 ?
W1 O1 4.840(3) 4_454 ?
W1 O1 3.908(2) 4_455 ?
W1 O1 7.037(3) 4_465 ?
W1 O1 6.356(3) 4_544 ?
W1 O1 5.679(3) 4_545 ?
W1 O1 3.477(3) 4_554 ?
W1 O1 1.984(3) 4_555 ?
W1 O1 6.711(3) 4_556 ?
W1 O1 6.807(3) 4_564 ?
W1 O1 6.179(3) 4_565 ?
W1 O1 6.536(2) 4_654 ?
W1 O1 5.880(2) 4_655 ?
W1 O1 6.559(2) 5_455 ?
W1 O1 7.153(3) 5_456 ?
W1 O1 6.781(2) 5_465 ?
W1 O1 7.358(3) 5_466 ?
W1 O1 7.197(3) 5_554 ?
W1 O1 3.270(3) 5_555 ?
W1 O1 4.341(3) 5_556 ?
W1 O1 7.400(3) 5_564 ?
W1 O1 3.696(3) 5_565 ?
W1 O1 4.670(3) 5_566 ?
W1 O1 4.510(3) 5_655 ?
W1 O1 5.338(3) 5_656 ?
W1 O1 4.828(3) 5_665 ?
W1 O1 5.609(3) 5_666 ?
W1 O1 5.400(3) 6_445 ?
W1 O1 6.755(3) 6_446 ?
W1 O1 6.959(3) 6_454 ?
W1 O1 3.955(2) 6_455 ?
W1 O1 5.667(3) 6_456 ?
W1 O1 7.113(3) 6_544 ?
W1 O1 4.221(3) 6_545 ?
W1 O1 5.856(3) 6_546 ?
W1 O1 6.090(3) 6_554 ?
W1 O1 2.075(3) 6_555 ?
W1 O1 4.559(3) 6_556 ?
W1 O1 7.305(3) 6_565 ?
W1 O1 6.961(3) 6_645 ?
W1 O1 5.911(2) 6_655 ?
W1 O1 7.171(3) 6_656 ?
W1 O1 5.338(3) 7_454 ?
W1 O1 4.510(3) 7_455 ?
W1 O1 5.609(3) 7_464 ?
W1 O1 4.828(3) 7_465 ?
W1 O1 4.341(3) 7_554 ?
W1 O1 3.270(3) 7_555 ?
W1 O1 7.197(3) 7_556 ?
W1 O1 4.670(3) 7_564 ?
W1 O1 3.696(3) 7_565 ?
W1 O1 7.400(3) 7_566 ?
W1 O1 7.153(3) 7_654 ?
W1 O1 6.559(2) 7_655 ?
W1 O1 7.358(3) 7_664 ?
W1 O1 6.781(2) 7_665 ?
W1 O1 6.961(3) 8_345 ?
W1 O1 7.171(3) 8_354 ?
W1 O1 5.911(2) 8_355 ?
W1 O1 5.856(3) 8_444 ?
W1 O1 4.221(3) 8_445 ?
W1 O1 7.113(3) 8_446 ?
W1 O1 4.559(3) 8_454 ?
W1 O1 2.075(3) 8_455 ?
W1 O1 6.090(3) 8_456 ?
W1 O1 7.305(3) 8_465 ?
W1 O1 6.755(3) 8_544 ?
W1 O1 5.400(3) 8_545 ?
W1 O1 5.667(3) 8_554 ?
W1 O1 3.955(2) 8_555 ?
W1 O1 6.959(3) 8_556 ?
Fe1 W1 7.2297(12) 1_445 ?
Fe1 W1 6.75373(5) 1_454 ?
Fe1 W1 4.58111(5) 1_455 ?
Fe1 W1 6.75373(5) 1_456 ?
Fe1 W1 7.2297(12) 1_465 ?
Fe1 W1 5.5930(15) 1_545 ?
Fe1 W1 4.96249(5) 1_554 ?
Fe1 W1 4.96249(5) 1_556 ?
Fe1 W1 5.5930(15) 1_565 ?
Fe1 W1 7.2297(12) 1_645 ?
Fe1 W1 6.75373(5) 1_654 ?
Fe1 W1 4.58111(5) 1_655 ?
Fe1 W1 6.75373(5) 1_656 ?
Fe1 W1 7.2297(12) 1_665 ?
Fe1 W1 7.3665(2) 2_355 ?
Fe1 W1 7.3665(2) 2_356 ?
Fe1 W1 7.3566(13) 2_445 ?
Fe1 W1 7.3566(13) 2_446 ?
Fe1 W1 3.5060(4) 2_455 ?
Fe1 W1 3.5060(4) 2_456 ?
Fe1 W1 5.7470(12) 2_465 ?
Fe1 W1 5.7470(12) 2_466 ?
Fe1 W1 7.3566(13) 2_545 ?
Fe1 W1 7.3566(13) 2_546 ?
Fe1 W1 3.5060(4) 2_555 ?
Fe1 W1 3.5060(4) 2_556 ?
Fe1 W1 5.7470(12) 2_565 ?
Fe1 W1 5.7470(12) 2_566 ?
Fe1 W1 7.3665(2) 2_655 ?
Fe1 W1 7.3665(2) 2_656 ?
Fe1 W1 6.4129(9) 5_455 ?
Fe1 W1 6.4129(9) 5_456 ?
Fe1 W1 5.5299(5) 5_465 ?
Fe1 W1 5.5299(5) 5_466 ?
Fe1 W1 4.4876(13) 5_555 ?
Fe1 W1 4.4876(13) 5_556 ?
Fe1 W1 3.0972(9) 5_565 ?
Fe1 W1 3.0972(9) 5_566 ?
Fe1 W1 6.4129(9) 5_655 ?
Fe1 W1 6.4129(9) 5_656 ?
Fe1 W1 5.5299(5) 5_665 ?
Fe1 W1 5.5299(5) 5_666 ?
Fe1 W1 7.4189(6) 6_345 ?
Fe1 W1 7.4189(6) 6_355 ?
Fe1 W1 6.1395(7) 6_444 ?
Fe1 W1 3.6148(12) 6_445 ?
Fe1 W1 6.1395(7) 6_446 ?
Fe1 W1 6.1395(7) 6_454 ?
Fe1 W1 3.6148(12) 6_455 ?
Fe1 W1 6.1395(7) 6_456 ?
Fe1 W1 6.1395(7) 6_544 ?
Fe1 W1 3.6148(12) 6_545 ?
Fe1 W1 6.1395(7) 6_546 ?
Fe1 W1 6.1395(7) 6_554 ?
Fe1 W1 3.6148(12) 6_555 ?
Fe1 W1 6.1395(7) 6_556 ?
Fe1 W1 7.4189(6) 6_645 ?
Fe1 W1 7.4189(6) 6_655 ?
Fe1 Fe1 7.2297(12) 1_445 ?
Fe1 Fe1 6.75373(5) 1_454 ?
Fe1 Fe1 4.58111(5) 1_455 ?
Fe1 Fe1 6.75373(5) 1_456 ?
Fe1 Fe1 7.2297(12) 1_465 ?
Fe1 Fe1 5.5930(15) 1_545 ?
Fe1 Fe1 4.96249(5) 1_554 ?
Fe1 Fe1 4.96249(5) 1_556 ?
Fe1 Fe1 5.5930(15) 1_565 ?
Fe1 Fe1 7.2297(12) 1_645 ?
Fe1 Fe1 6.75373(5) 1_654 ?
Fe1 Fe1 4.58111(5) 1_655 ?
Fe1 Fe1 6.75373(5) 1_656 ?
Fe1 Fe1 7.2297(12) 1_665 ?
Fe1 Fe1 7.3665(2) 2_355 ?
Fe1 Fe1 7.3665(2) 2_356 ?
Fe1 Fe1 7.3566(13) 2_445 ?
Fe1 Fe1 7.3566(13) 2_446 ?
Fe1 Fe1 3.5060(4) 2_455 ?
Fe1 Fe1 3.5060(4) 2_456 ?
Fe1 Fe1 5.7470(12) 2_465 ?
Fe1 Fe1 5.7470(12) 2_466 ?
Fe1 Fe1 7.3566(13) 2_545 ?
Fe1 Fe1 7.3566(13) 2_546 ?
Fe1 Fe1 3.5060(4) 2_555 ?
Fe1 Fe1 3.5060(4) 2_556 ?
Fe1 Fe1 5.7470(12) 2_565 ?
Fe1 Fe1 5.7470(12) 2_566 ?
Fe1 Fe1 7.3665(2) 2_655 ?
Fe1 Fe1 7.3665(2) 2_656 ?
Fe1 Fe1 6.4129(9) 5_455 ?
Fe1 Fe1 6.4129(9) 5_456 ?
Fe1 Fe1 5.5299(5) 5_465 ?
Fe1 Fe1 5.5299(5) 5_466 ?
Fe1 Fe1 4.4876(13) 5_555 ?
Fe1 Fe1 4.4876(13) 5_556 ?
Fe1 Fe1 3.0972(9) 5_565 ?
Fe1 Fe1 3.0972(9) 5_566 ?
Fe1 Fe1 6.4129(9) 5_655 ?
Fe1 Fe1 6.4129(9) 5_656 ?
Fe1 Fe1 5.5299(5) 5_665 ?
Fe1 Fe1 5.5299(5) 5_666 ?
Fe1 Fe1 7.4189(6) 6_345 ?
Fe1 Fe1 7.4189(6) 6_355 ?
Fe1 Fe1 6.1395(7) 6_444 ?
Fe1 Fe1 3.6148(12) 6_445 ?
Fe1 Fe1 6.1395(7) 6_446 ?
Fe1 Fe1 6.1395(7) 6_454 ?
Fe1 Fe1 3.6148(12) 6_455 ?
Fe1 Fe1 6.1395(7) 6_456 ?
Fe1 Fe1 6.1395(7) 6_544 ?
Fe1 Fe1 3.6148(12) 6_545 ?
Fe1 Fe1 6.1395(7) 6_546 ?
Fe1 Fe1 6.1395(7) 6_554 ?
Fe1 Fe1 3.6148(12) 6_555 ?
Fe1 Fe1 6.1395(7) 6_556 ?
Fe1 Fe1 7.4189(6) 6_645 ?
Fe1 Fe1 7.4189(6) 6_655 ?
Fe1 O1 6.789(3) 1_454 ?
Fe1 O1 3.649(2) 1_455 ?
Fe1 O1 5.458(3) 1_456 ?
Fe1 O1 5.575(3) 1_465 ?
Fe1 O1 6.896(3) 1_466 ?
Fe1 O1 6.961(3) 1_545 ?
Fe1 O1 6.037(3) 1_554 ?
Fe1 O1 1.914(3) 1_555 ?
Fe1 O1 4.488(3) 1_556 ?
Fe1 O1 7.363(3) 1_564 ?
Fe1 O1 4.630(3) 1_565 ?
Fe1 O1 6.157(3) 1_566 ?
Fe1 O1 5.999(2) 1_655 ?
Fe1 O1 7.243(3) 1_656 ?
Fe1 O1 7.332(3) 1_665 ?
Fe1 O1 5.880(2) 2_355 ?
Fe1 O1 6.536(2) 2_356 ?
Fe1 O1 5.679(3) 2_445 ?
Fe1 O1 6.356(3) 2_446 ?
Fe1 O1 6.711(3) 2_454 ?
Fe1 O1 1.984(3) 2_455 ?
Fe1 O1 3.477(3) 2_456 ?
Fe1 O1 6.179(3) 2_465 ?
Fe1 O1 6.807(3) 2_466 ?
Fe1 O1 6.602(3) 2_545 ?
Fe1 O1 7.193(3) 2_546 ?
Fe1 O1 3.908(2) 2_555 ?
Fe1 O1 4.840(3) 2_556 ?
Fe1 O1 7.037(3) 2_565 ?
Fe1 O1 7.243(3) 3_454 ?
Fe1 O1 5.999(2) 3_455 ?
Fe1 O1 7.332(3) 3_465 ?
Fe1 O1 6.961(3) 3_545 ?
Fe1 O1 4.488(3) 3_554 ?
Fe1 O1 1.914(3) 3_555 ?
Fe1 O1 6.037(3) 3_556 ?
Fe1 O1 6.157(3) 3_564 ?
Fe1 O1 4.630(3) 3_565 ?
Fe1 O1 7.363(3) 3_566 ?
Fe1 O1 5.458(3) 3_654 ?
Fe1 O1 3.649(2) 3_655 ?
Fe1 O1 6.789(3) 3_656 ?
Fe1 O1 6.896(3) 3_664 ?
Fe1 O1 5.575(3) 3_665 ?
Fe1 O1 7.193(3) 4_444 ?
Fe1 O1 6.602(3) 4_445 ?
Fe1 O1 4.840(3) 4_454 ?
Fe1 O1 3.908(2) 4_455 ?
Fe1 O1 7.037(3) 4_465 ?
Fe1 O1 6.356(3) 4_544 ?
Fe1 O1 5.679(3) 4_545 ?
Fe1 O1 3.477(3) 4_554 ?
Fe1 O1 1.984(3) 4_555 ?
Fe1 O1 6.711(3) 4_556 ?
Fe1 O1 6.807(3) 4_564 ?
Fe1 O1 6.179(3) 4_565 ?
Fe1 O1 6.536(2) 4_654 ?
Fe1 O1 5.880(2) 4_655 ?
Fe1 O1 6.559(2) 5_455 ?
Fe1 O1 7.153(3) 5_456 ?
Fe1 O1 6.781(2) 5_465 ?
Fe1 O1 7.358(3) 5_466 ?
Fe1 O1 7.197(3) 5_554 ?
Fe1 O1 3.270(3) 5_555 ?
Fe1 O1 4.341(3) 5_556 ?
Fe1 O1 7.400(3) 5_564 ?
Fe1 O1 3.696(3) 5_565 ?
Fe1 O1 4.670(3) 5_566 ?
Fe1 O1 4.510(3) 5_655 ?
Fe1 O1 5.338(3) 5_656 ?
Fe1 O1 4.828(3) 5_665 ?
Fe1 O1 5.609(3) 5_666 ?
Fe1 O1 5.400(3) 6_445 ?
Fe1 O1 6.755(3) 6_446 ?
Fe1 O1 6.959(3) 6_454 ?
Fe1 O1 3.955(2) 6_455 ?
Fe1 O1 5.667(3) 6_456 ?
Fe1 O1 7.113(3) 6_544 ?
Fe1 O1 4.221(3) 6_545 ?
Fe1 O1 5.856(3) 6_546 ?
Fe1 O1 6.090(3) 6_554 ?
Fe1 O1 2.075(3) 6_555 ?
Fe1 O1 4.559(3) 6_556 ?
Fe1 O1 7.305(3) 6_565 ?
Fe1 O1 6.961(3) 6_645 ?
Fe1 O1 5.911(2) 6_655 ?
Fe1 O1 7.171(3) 6_656 ?
Fe1 O1 5.338(3) 7_454 ?
Fe1 O1 4.510(3) 7_455 ?
Fe1 O1 5.609(3) 7_464 ?
Fe1 O1 4.828(3) 7_465 ?
Fe1 O1 4.341(3) 7_554 ?
Fe1 O1 3.270(3) 7_555 ?
Fe1 O1 7.197(3) 7_556 ?
Fe1 O1 4.670(3) 7_564 ?
Fe1 O1 3.696(3) 7_565 ?
Fe1 O1 7.400(3) 7_566 ?
Fe1 O1 7.153(3) 7_654 ?
Fe1 O1 6.559(2) 7_655 ?
Fe1 O1 7.358(3) 7_664 ?
Fe1 O1 6.781(2) 7_665 ?
Fe1 O1 6.961(3) 8_345 ?
Fe1 O1 7.171(3) 8_354 ?
Fe1 O1 5.911(2) 8_355 ?
Fe1 O1 5.856(3) 8_444 ?
Fe1 O1 4.221(3) 8_445 ?
Fe1 O1 7.113(3) 8_446 ?
Fe1 O1 4.559(3) 8_454 ?
Fe1 O1 2.075(3) 8_455 ?
Fe1 O1 6.090(3) 8_456 ?
Fe1 O1 7.305(3) 8_465 ?
Fe1 O1 6.755(3) 8_544 ?
Fe1 O1 5.400(3) 8_545 ?
Fe1 O1 5.667(3) 8_554 ?
Fe1 O1 3.955(2) 8_555 ?
Fe1 O1 6.959(3) 8_556 ?
O1 W1 7.332(3) 1_445 ?
O1 W1 7.243(3) 1_454 ?
O1 W1 5.999(2) 1_455 ?
O1 W1 6.157(3) 1_544 ?
O1 W1 4.630(3) 1_545 ?
O1 W1 7.363(3) 1_546 ?
O1 W1 4.488(3) 1_554 ?
O1 W1 1.914(3) 1_555 ?
O1 W1 6.037(3) 1_556 ?
O1 W1 6.961(3) 1_565 ?
O1 W1 6.896(3) 1_644 ?
O1 W1 5.575(3) 1_645 ?
O1 W1 5.458(3) 1_654 ?
O1 W1 3.649(2) 1_655 ?
O1 W1 6.789(3) 1_656 ?
O1 W1 6.602(3) 2_445 ?
O1 W1 7.193(3) 2_446 ?
O1 W1 3.908(2) 2_455 ?
O1 W1 4.840(3) 2_456 ?
O1 W1 7.037(3) 2_465 ?
O1 W1 5.679(3) 2_545 ?
O1 W1 6.356(3) 2_546 ?
O1 W1 6.711(3) 2_554 ?
O1 W1 1.984(3) 2_555 ?
O1 W1 3.477(3) 2_556 ?
O1 W1 6.179(3) 2_565 ?
O1 W1 6.807(3) 2_566 ?
O1 W1 5.880(2) 2_655 ?
O1 W1 6.536(2) 2_656 ?
O1 W1 6.559(2) 5_455 ?
O1 W1 7.153(3) 5_456 ?
O1 W1 6.781(2) 5_465 ?
O1 W1 7.358(3) 5_466 ?
O1 W1 7.197(3) 5_554 ?
O1 W1 3.270(3) 5_555 ?
O1 W1 4.341(3) 5_556 ?
O1 W1 7.400(3) 5_564 ?
O1 W1 3.696(3) 5_565 ?
O1 W1 4.670(3) 5_566 ?
O1 W1 4.510(3) 5_655 ?
O1 W1 5.338(3) 5_656 ?
O1 W1 4.828(3) 5_665 ?
O1 W1 5.609(3) 5_666 ?
O1 W1 5.667(3) 6_444 ?
O1 W1 3.955(2) 6_445 ?
O1 W1 6.959(3) 6_446 ?
O1 W1 6.755(3) 6_454 ?
O1 W1 5.400(3) 6_455 ?
O1 W1 7.305(3) 6_535 ?
O1 W1 4.559(3) 6_544 ?
O1 W1 2.075(3) 6_545 ?
O1 W1 6.090(3) 6_546 ?
O1 W1 5.856(3) 6_554 ?
O1 W1 4.221(3) 6_555 ?
O1 W1 7.113(3) 6_556 ?
O1 W1 7.171(3) 6_644 ?
O1 W1 5.911(2) 6_645 ?
O1 W1 6.961(3) 6_655 ?
O1 Fe1 7.332(3) 1_445 ?
O1 Fe1 7.243(3) 1_454 ?
O1 Fe1 5.999(2) 1_455 ?
O1 Fe1 6.157(3) 1_544 ?
O1 Fe1 4.630(3) 1_545 ?
O1 Fe1 7.363(3) 1_546 ?
O1 Fe1 4.488(3) 1_554 ?
O1 Fe1 1.914(3) 1_555 ?
O1 Fe1 6.037(3) 1_556 ?
O1 Fe1 6.961(3) 1_565 ?
O1 Fe1 6.896(3) 1_644 ?
O1 Fe1 5.575(3) 1_645 ?
O1 Fe1 5.458(3) 1_654 ?
O1 Fe1 3.649(2) 1_655 ?
O1 Fe1 6.789(3) 1_656 ?
O1 Fe1 6.602(3) 2_445 ?
O1 Fe1 7.193(3) 2_446 ?
O1 Fe1 3.908(2) 2_455 ?
O1 Fe1 4.840(3) 2_456 ?
O1 Fe1 7.037(3) 2_465 ?
O1 Fe1 5.679(3) 2_545 ?
O1 Fe1 6.356(3) 2_546 ?
O1 Fe1 6.711(3) 2_554 ?
O1 Fe1 1.984(3) 2_555 ?
O1 Fe1 3.477(3) 2_556 ?
O1 Fe1 6.179(3) 2_565 ?
O1 Fe1 6.807(3) 2_566 ?
O1 Fe1 5.880(2) 2_655 ?
O1 Fe1 6.536(2) 2_656 ?
O1 Fe1 6.559(2) 5_455 ?
O1 Fe1 7.153(3) 5_456 ?
O1 Fe1 6.781(2) 5_465 ?
O1 Fe1 7.358(3) 5_466 ?
O1 Fe1 7.197(3) 5_554 ?
O1 Fe1 3.270(3) 5_555 ?
O1 Fe1 4.341(3) 5_556 ?
O1 Fe1 7.400(3) 5_564 ?
O1 Fe1 3.696(3) 5_565 ?
O1 Fe1 4.670(3) 5_566 ?
O1 Fe1 4.510(3) 5_655 ?
O1 Fe1 5.338(3) 5_656 ?
O1 Fe1 4.828(3) 5_665 ?
O1 Fe1 5.609(3) 5_666 ?
O1 Fe1 5.667(3) 6_444 ?
O1 Fe1 3.955(2) 6_445 ?
O1 Fe1 6.959(3) 6_446 ?
O1 Fe1 6.755(3) 6_454 ?
O1 Fe1 5.400(3) 6_455 ?
O1 Fe1 7.305(3) 6_535 ?
O1 Fe1 4.559(3) 6_544 ?
O1 Fe1 2.075(3) 6_545 ?
O1 Fe1 6.090(3) 6_546 ?
O1 Fe1 5.856(3) 6_554 ?
O1 Fe1 4.221(3) 6_555 ?
O1 Fe1 7.113(3) 6_556 ?
O1 Fe1 7.171(3) 6_644 ?
O1 Fe1 5.911(2) 6_645 ?
O1 Fe1 6.961(3) 6_655 ?
O1 O1 7.230(4) 1_445 ?
O1 O1 6.754(4) 1_454 ?
O1 O1 4.581(3) 1_455 ?
O1 O1 6.754(4) 1_456 ?
O1 O1 7.230(4) 1_465 ?
O1 O1 5.593(4) 1_545 ?
O1 O1 4.962(4) 1_554 ?
O1 O1 4.962(4) 1_556 ?
O1 O1 5.593(4) 1_565 ?
O1 O1 7.230(4) 1_645 ?
O1 O1 6.754(4) 1_654 ?
O1 O1 4.581(3) 1_655 ?
O1 O1 6.754(4) 1_656 ?
O1 O1 7.230(4) 1_665 ?
O1 O1 7.078(3) 2_355 ?
O1 O1 4.788(4) 2_445 ?
O1 O1 6.263(4) 2_446 ?
O1 O1 6.409(4) 2_454 ?
O1 O1 2.850(4) 2_455 ?
O1 O1 4.942(4) 2_456 ?
O1 O1 4.788(4) 2_545 ?
O1 O1 6.263(4) 2_546 ?
O1 O1 6.409(4) 2_554 ?
O1 O1 2.850(4) 2_555 ?
O1 O1 4.942(4) 2_556 ?
O1 O1 7.078(3) 2_655 ?
O1 O1 7.244(3) 3_455 ?
O1 O1 6.959(4) 3_544 ?
O1 O1 6.333(4) 3_545 ?
O1 O1 4.141(4) 3_554 ?
O1 O1 2.970(4) 3_555 ?
O1 O1 7.053(4) 3_556 ?
O1 O1 6.959(4) 3_564 ?
O1 O1 6.333(4) 3_565 ?
O1 O1 6.837(4) 3_644 ?
O1 O1 6.198(4) 3_645 ?
O1 O1 3.932(4) 3_654 ?
O1 O1 2.671(4) 3_655 ?
O1 O1 6.933(4) 3_656 ?
O1 O1 6.837(4) 3_664 ?
O1 O1 6.198(4) 3_665 ?
O1 O1 6.886(3) 3_755 ?
O1 O1 6.770(4) 4_444 ?
O1 O1 6.770(4) 4_445 ?
O1 O1 5.571(4) 4_454 ?
O1 O1 5.571(4) 4_455 ?
O1 O1 4.813(4) 4_544 ?
O1 O1 4.813(4) 4_545 ?
O1 O1 2.892(4) 4_554 ?
O1 O1 2.892(4) 4_555 ?
O1 O1 6.516(4) 4_644 ?
O1 O1 6.516(4) 4_645 ?
O1 O1 5.259(4) 4_654 ?
O1 O1 5.259(4) 4_655 ?
O1 O1 7.228(3) 5_455 ?
O1 O1 7.393(4) 5_545 ?
O1 O1 6.444(4) 5_554 ?
O1 O1 2.929(3) 5_555 ?
O1 O1 4.988(4) 5_556 ?
O1 O1 5.006(4) 5_565 ?
O1 O1 6.431(4) 5_566 ?
O1 O1 7.278(4) 5_645 ?
O1 O1 6.312(4) 5_654 ?
O1 O1 2.625(4) 5_655 ?
O1 O1 4.816(4) 5_656 ?
O1 O1 4.834(4) 5_665 ?
O1 O1 6.299(4) 5_666 ?
O1 O1 6.869(3) 5_755 ?
O1 O1 7.427(4) 6_444 ?
O1 O1 5.525(3) 6_445 ?
O1 O1 7.427(4) 6_446 ?
O1 O1 7.427(4) 6_454 ?
O1 O1 5.525(3) 6_455 ?
O1 O1 7.427(4) 6_456 ?
O1 O1 5.699(4) 6_544 ?
O1 O1 2.803(4) 6_545 ?
O1 O1 5.699(4) 6_546 ?
O1 O1 5.699(4) 6_554 ?
O1 O1 2.803(4) 6_555 ?
O1 O1 5.699(4) 6_556 ?
O1 O1 7.196(4) 6_644 ?
O1 O1 5.211(3) 6_645 ?
O1 O1 7.196(4) 6_646 ?
O1 O1 7.196(4) 6_654 ?
O1 O1 5.211(3) 6_655 ?
O1 O1 7.196(4) 6_656 ?
O1 O1 5.375(4) 7_454 ?
O1 O1 5.375(4) 7_455 ?
O1 O1 6.736(4) 7_464 ?
O1 O1 6.736(4) 7_465 ?
O1 O1 7.348(4) 7_544 ?
O1 O1 7.348(4) 7_545 ?
O1 O1 2.812(4) 7_554 ?
O1 O1 2.812(4) 7_555 ?
O1 O1 4.938(4) 7_564 ?
O1 O1 4.938(4) 7_565 ?
O1 O1 5.375(4) 7_654 ?
O1 O1 5.375(4) 7_655 ?
O1 O1 6.736(4) 7_664 ?
O1 O1 6.736(4) 7_665 ?
O1 O1 4.908(4) 8_444 ?
O1 O1 3.971(4) 8_445 ?
O1 O1 4.908(4) 8_454 ?
O1 O1 3.971(4) 8_455 ?
O1 O1 4.908(4) 8_544 ?
O1 O1 3.971(4) 8_545 ?
O1 O1 4.908(4) 8_554 ?
O1 O1 3.971(4) 8_555 ?
loop_
_pd_proc_point_id
_pd_proc_2theta_corrected
_pd_proc_intensity_total
_pd_calc_intensity_total
_pd_proc_intensity_bkg_calc
1 0.3879 32(5) 33.7287 33.7287
2 0.3939 44(6) 33.7287 33.7287
3 0.3999 50(7) 33.7287 33.7287
4 0.4059 39(6) 33.7287 33.7287
5 0.4119 30(5) 33.7287 33.7287
6 0.4179 26(5) 33.7287 33.7287
7 0.4239 37(6) 33.7287 33.7287
8 0.4299 39(6) 33.7287 33.7287
9 0.4359 42(6) 33.7287 33.7287
10 0.4419 50(7) 33.7287 33.7287
11 0.4479 42(6) 33.7287 33.7287
12 0.4539 44(6) 33.7287 33.7287
13 0.4599 45(6) 33.7287 33.7287
14 0.4659 38(6) 33.7287 33.7287
15 0.4719 34(6) 33.2985 33.2985
16 0.4779 26(5) 33.7287 33.7287
17 0.4839 42(6) 34.1589 34.1589
18 0.4899 36(6) 34.5892 34.5892
19 0.4959 38(6) 35.0194 35.0194
20 0.5019 43(6) 35.4497 35.4497
21 0.5079 43(6) 35.8799 35.8799
22 0.5139 30(5) 36.3102 36.3102
23 0.5199 40(6) 36.7404 36.7404
24 0.5259 40(6) 37.1707 37.1707
25 0.5319 41(6) 37.6009 37.6009
26 0.5379 38(6) 38.0312 38.0312
27 0.5439 38(6) 38.4614 38.4614
28 0.5499 41(6) 38.8917 38.8917
29 0.5559 31(5) 39.3219 39.3219
30 0.5619 38(6) 39.7521 39.7521
31 0.5679 47(7) 40.1824 40.1824
32 0.5739 49(7) 40.6126 40.6126
33 0.5799 37(6) 41.0429 41.0429
34 0.5859 34(6) 41.4731 41.4731
35 0.5919 39(6) 41.9034 41.9034
36 0.5979 49(7) 42.3336 42.3336
37 0.6039 50(7) 42.7639 42.7639
38 0.6099 46(7) 43.1941 43.1941
39 0.6159 54(7) 43.6244 43.6244
40 0.6219 44(6) 44.0546 44.0546
41 0.6279 48(7) 44.4849 44.4849
42 0.6339 46(7) 44.9151 44.9151
43 0.6399 43(6) 45.3453 45.3453
44 0.6459 46(7) 45.7756 45.7756
45 0.6519 35(6) 46.2058 46.2058
46 0.6579 49(7) 46.6361 46.6361
47 0.6639 36(6) 47.0663 47.0663
48 0.6699 58(7) 47.4966 47.4966
49 0.6759 58(7) 47.9268 47.9268
50 0.6819 47(7) 48.3571 48.3571
51 0.6879 53(7) 48.7873 48.7873
52 0.6939 58(7) 49.2176 49.2176
53 0.6999 54(7) 49.6478 49.6478
54 0.7059 59(7) 50.0781 50.0781
55 0.7119 50(7) 50.5083 50.5083
56 0.7179 45(7) 50.9385 50.9385
57 0.7239 57(7) 51.3688 51.3688
58 0.7299 53(7) 51.7990 51.7990
59 0.7359 53(7) 52.2293 52.2293
60 0.7419 45(7) 52.6595 52.6595
61 0.7479 49(7) 53.0898 53.0898
62 0.7539 52(7) 53.5200 53.5200
63 0.7599 52(7) 53.9503 53.9503
64 0.7659 44(6) 54.3805 54.3805
65 0.7719 53(7) 54.8108 54.8108
66 0.7779 55(7) 55.2410 55.2410
67 0.7839 63(8) 55.6713 55.6713
68 0.7899 55(7) 56.1015 56.1015
69 0.7959 61(8) 56.5317 56.5317
70 0.8019 62(8) 56.9620 56.9620
71 0.8079 51(7) 57.3922 57.3922
72 0.8139 58(7) 57.8225 57.8225
73 0.8199 49(7) 58.2527 58.2527
74 0.8259 67(8) 58.6830 58.6830
75 0.8319 52(7) 59.1132 59.1132
76 0.8379 53(7) 59.5435 59.5435
77 0.8439 58(7) 59.9737 59.9737
78 0.8499 59(7) 60.4040 60.4040
79 0.8559 61(8) 60.8342 60.8342
80 0.8619 56(7) 61.2645 61.2645
81 0.8679 55(7) 61.6947 61.6947
82 0.8739 56(7) 62.1249 62.1249
83 0.8799 53(7) 62.5552 62.5552
84 0.8859 52(7) 62.9854 62.9854
85 0.8919 56(7) 63.4157 63.4157
86 0.8979 56(7) 63.8459 63.8459
87 0.9039 62(8) 64.2762 64.2762
88 0.9099 58(7) 64.7064 64.7064
89 0.9159 65(8) 65.1367 65.1367
90 0.9219 61(8) 65.5669 65.5669
91 0.9279 62(8) 65.9972 65.9972
92 0.9339 59(7) 66.4274 66.4274
93 0.9399 66(8) 66.8577 66.8577
94 0.9459 60(7) 67.2879 67.2879
95 0.9519 76(8) 113.5784 113.5784
96 0.9579 107(10) 159.8688 159.8688
97 0.9639 159(12) 206.1597 206.1597
98 0.9699 177(13) 252.4501 252.4501
99 0.9759 230(15) 298.7406 298.7406
100 0.9819 264(16) 345.0310 345.0310
101 0.9879 374(19) 391.3220 391.3220
102 0.9939 425(20) 437.6124 437.6124
103 0.9999 515(22) 483.9028 483.9028
104 1.0059 587(23) 530.1937 530.1937
105 1.0119 654(25) 576.4838 576.4838
106 1.0179 717(26) 622.7747 622.7747
107 1.0239 807(28) 669.0656 669.0656
108 1.0299 902(29) 715.3555 715.3555
109 1.0359 923(30) 761.6464 761.6464
110 1.0419 973(30) 807.9374 807.9374
111 1.0479 1083(32) 854.2274 854.2274
112 1.0539 1128(33) 900.5182 900.5182
113 1.0599 1132(33) 946.8091 946.8091
114 1.0659 1216(34) 993.0991 993.0991
115 1.0719 1334(36) 1039.3901 1039.3901
116 1.0779 1384(37) 1085.6809 1085.6809
117 1.0839 1392(36) 1131.9709 1131.9709
118 1.0899 1446(37) 1178.2620 1178.2620
119 1.0959 1500(38) 1224.5527 1224.5527
120 1.1019 1573(39) 1270.8428 1270.8428
121 1.1079 1649(40) 1317.1335 1317.1335
122 1.1139 1700(40) 1363.4236 1363.4236
123 1.1199 1739(41) 1409.7146 1409.7146
124 1.1259 1861(42) 1456.0054 1456.0054
125 1.1319 1901(42) 1502.2954 1502.2954
126 1.1379 1949(43) 1548.5864 1548.5864
127 1.1439 1972(43) 1594.8772 1594.8772
128 1.1499 2048(44) 1641.1672 1641.1672
129 1.1559 2094(45) 1687.4583 1687.4583
130 1.1619 2168(46) 1733.7490 1733.7490
131 1.1679 2217(46) 1780.0391 1780.0391
132 1.1739 2271(46) 1826.3298 1826.3298
133 1.1799 2301(47) 1872.6208 1872.6208
134 1.1859 2392(48) 1918.9109 1918.9109
135 1.1919 2415(48) 1965.2017 1965.2017
136 1.1979 2467(49) 2011.4927 2011.4927
137 1.2039 2515(49) 2057.7827 2057.7827
138 1.2099 2550(49) 2104.0735 2104.0735
139 1.2159 2581(50) 2150.3635 2150.3635
140 1.2219 2610(50) 2196.6543 2196.6543
141 1.2279 2701(51) 2242.9453 2242.9453
142 1.2339 2713(51) 2289.2354 2289.2354
143 1.2399 2771(51) 2335.5261 2335.5261
144 1.2459 2871(52) 2381.8171 2381.8171
145 1.2519 2851(52) 2428.1072 2428.1072
146 1.2579 2898(52) 2474.3979 2474.3979
147 1.2639 2964(53) 2520.6890 2520.6890
148 1.2699 2991(53) 2566.9788 2566.9788
149 1.2759 3082(54) 2613.2698 2613.2698
150 1.2819 3057(54) 2659.5608 2659.5608
151 1.2879 3277(56) 2705.8506 2705.8506
152 1.2939 3199(55) 2752.1416 2752.1416
153 1.2999 3254(56) 2798.4324 2798.4324
154 1.3059 3248(56) 2844.7224 2844.7224
155 1.3119 3261(56) 2891.0134 2891.0134
156 1.3179 3313(56) 2937.3035 2937.3035
157 1.3239 3368(56) 2983.5942 2983.5942
158 1.3299 3418(57) 3029.8853 3029.8853
159 1.3359 3488(57) 3076.1750 3076.1750
160 1.3419 3443(58) 3122.4661 3122.4661
161 1.3479 3503(58) 3168.7571 3168.7571
162 1.3539 3572(58) 3215.0469 3215.0469
163 1.3599 3648(59) 3261.3379 3261.3379
164 1.3659 3668(59) 3307.6287 3307.6287
165 1.3719 3729(59) 3353.9187 3353.9187
166 1.3779 3728(60) 3400.2097 3400.2097
167 1.3839 3778(60) 3446.5005 3446.5005
168 1.3899 3800(60) 3492.7905 3492.7905
169 1.3959 3861(61) 3539.0815 3539.0815
170 1.4019 3888(61) 3585.3723 3585.3723
171 1.4079 3915(61) 3631.6624 3631.6624
172 1.4139 3945(62) 3677.9534 3677.9534
173 1.4199 4012(62) 3724.2432 3724.2432
174 1.4259 4065(62) 3770.5342 3770.5342
175 1.4319 4130(63) 3816.8252 3816.8252
176 1.4379 4027(62) 3863.1150 3863.1150
177 1.4439 4149(63) 3909.4060 3909.4060
178 1.4499 4170(63) 3955.6968 3955.6968
179 1.4559 4135(63) 4001.9868 4001.9868
180 1.4619 4215(63) 4048.2778 4048.2778
181 1.4679 4327(64) 4094.5686 4094.5686
182 1.4739 4275(64) 4140.8589 4140.8589
183 1.4799 4283(64) 4187.1499 4187.1499
184 1.4859 4353(64) 4233.4409 4233.4409
185 1.4919 4333(65) 4279.7305 4279.7305
186 1.4979 4358(65) 4326.0215 4326.0215
187 1.5039 4336(64) 4372.3125 4372.3125
188 1.5099 4423(65) 4393.5420 4393.5420
189 1.5159 4453(65) 4414.7720 4414.7720
190 1.5219 4473(65) 4436.0020 4436.0020
191 1.5279 4526(66) 4457.2319 4457.2319
192 1.5339 4519(66) 4478.4619 4478.4619
193 1.5399 4510(66) 4499.6914 4499.6914
194 1.5459 4570(66) 4520.9214 4520.9214
195 1.5519 4645(67) 4542.1514 4542.1514
196 1.5579 4603(67) 4563.3813 4563.3813
197 1.5639 4672(67) 4584.6113 4584.6113
198 1.5699 4698(67) 4605.8413 4605.8413
199 1.5759 4736(67) 4627.0708 4627.0708
200 1.5819 4745(68) 4648.3008 4648.3008
201 1.5879 4814(68) 4669.5308 4669.5308
202 1.5939 4885(68) 4690.7607 4690.7607
203 1.5999 4835(68) 4711.9907 4711.9907
204 1.6059 4882(68) 4733.2207 4733.2207
205 1.6119 4898(68) 4754.4502 4754.4502
206 1.6179 4997(69) 4775.6802 4775.6802
207 1.6239 4943(69) 4796.9102 4796.9102
208 1.6299 5007(69) 4818.1401 4818.1401
209 1.6359 5029(69) 4839.3701 4839.3701
210 1.6419 5014(69) 4860.5996 4860.5996
211 1.6479 5004(69) 4881.8296 4881.8296
212 1.6539 5091(70) 4903.0596 4903.0596
213 1.6599 5119(70) 4924.2891 4924.2891
214 1.6659 5100(70) 4945.5195 4945.5195
215 1.6719 5206(70) 4966.7495 4966.7495
216 1.6779 5178(70) 4987.9790 4987.9790
217 1.6839 5183(71) 5009.2090 5009.2090
218 1.6899 5199(70) 5030.4390 5030.4390
219 1.6959 5117(71) 5051.6685 5051.6685
220 1.7019 5210(70) 5072.8984 5072.8984
221 1.7079 5280(71) 5094.1289 5094.1289
222 1.7139 5320(71) 5115.3584 5115.3584
223 1.7199 5279(71) 5136.5884 5136.5884
224 1.7259 5297(72) 5157.8184 5157.8184
225 1.7319 5348(72) 5179.0479 5179.0479
226 1.7379 5390(72) 5200.2783 5200.2783
227 1.7439 5434(72) 5221.5078 5221.5078
228 1.7499 5462(72) 5242.7378 5242.7378
229 1.7559 5448(72) 5263.9678 5263.9678
230 1.7619 5510(73) 5285.1973 5285.1973
231 1.7679 5503(73) 5306.4272 5306.4272
232 1.7739 5442(72) 5327.6572 5327.6572
233 1.7799 5545(73) 5348.8872 5348.8872
234 1.7859 5535(73) 5370.1172 5370.1172
235 1.7919 5582(73) 5391.3472 5391.3472
236 1.7979 5607(73) 5412.5767 5412.5767
237 1.8039 5638(74) 5433.8066 5433.8066
238 1.8099 5634(73) 5455.0371 5455.0371
239 1.8159 5636(74) 5476.2666 5476.2666
240 1.8219 5579(73) 5497.4966 5497.4966
241 1.8279 5660(74) 5518.7266 5518.7266
242 1.8339 5676(74) 5539.9561 5539.9561
243 1.8399 5697(74) 5561.1860 5561.1860
244 1.8459 5655(74) 5582.4160 5582.4160
245 1.8519 5738(74) 5603.6460 5603.6460
246 1.8579 5707(74) 5624.8760 5624.8760
247 1.8639 5775(75) 5646.1055 5646.1055
248 1.8699 5789(75) 5667.3354 5667.3354
249 1.8759 5840(75) 5688.5654 5688.5654
250 1.8819 5811(75) 5709.7949 5709.7949
251 1.8879 5837(75) 5731.0254 5731.0254
252 1.8939 5891(75) 5752.2554 5752.2554
253 1.8999 5836(75) 5773.4849 5773.4849
254 1.9059 5810(75) 5794.7148 5794.7148
255 1.9119 5909(75) 5815.9448 5815.9448
256 1.9179 6004(76) 5837.1748 5837.1748
257 1.9239 5989(76) 5858.4048 5858.4048
258 1.9299 5971(76) 5879.6348 5879.6348
259 1.9359 5996(76) 5900.8643 5900.8643
260 1.9419 6011(76) 5922.0942 5922.0942
261 1.9479 6031(76) 5943.3242 5943.3242
262 1.9539 6049(76) 5964.5537 5964.5537
263 1.9599 6024(76) 5985.7842 5985.7842
264 1.9659 6083(76) 6007.0137 6007.0137
265 1.9719 6108(77) 6028.2437 6028.2437
266 1.9779 6141(77) 6049.4736 6049.4736
267 1.9839 6202(77) 6070.7031 6070.7031
268 1.9899 6183(77) 6091.9336 6091.9336
269 1.9959 6349(78) 6113.1636 6113.1636
270 2.0019 6204(77) 6134.3931 6134.3931
271 2.0079 6129(77) 6155.6230 6155.6230
272 2.0139 6212(77) 6176.8530 6176.8530
273 2.0199 6349(78) 6198.0830 6198.0830
274 2.0259 6247(77) 6219.3125 6219.3125
275 2.0319 6255(78) 6240.5425 6240.5425
276 2.0379 6219(78) 6261.7725 6261.7725
277 2.0439 6405(79) 6283.0024 6283.0024
278 2.0499 6400(78) 6304.2324 6304.2324
279 2.0559 6399(78) 6325.4624 6325.4624
280 2.0619 6332(78) 6346.6914 6346.6914
281 2.0679 6433(79) 6367.9219 6367.9219
282 2.0739 6432(79) 6389.1519 6389.1519
283 2.0799 6428(79) 6410.3818 6410.3818
284 2.0859 6412(79) 6431.6118 6431.6118
285 2.0919 6455(79) 6476.5645 6476.5645
286 2.0979 6472(79) 6521.5156 6521.5156
287 2.1039 6469(79) 6566.4688 6566.4688
288 2.1099 6583(80) 6611.4214 6611.4214
289 2.1159 6528(80) 6656.3740 6656.3740
290 2.1219 6582(80) 6701.3271 6701.3271
291 2.1279 6539(80) 6746.2783 6746.2783
292 2.1339 6615(80) 6791.2310 6791.2310
293 2.1399 6716(80) 6836.1836 6836.1836
294 2.1459 6568(80) 6881.1367 6881.1367
295 2.1519 6692(81) 6926.0894 6926.0894
296 2.1579 6785(81) 6971.0425 6971.0425
297 2.1639 6817(81) 7015.9932 7015.9932
298 2.1699 6826(81) 7060.9463 7060.9463
299 2.1759 6800(81) 7105.8989 7105.8989
300 2.1819 6840(81) 7150.8521 7150.8521
301 2.1879 6823(81) 7195.8047 7195.8047
302 2.1939 6891(82) 7240.7578 7240.7578
303 2.1999 6895(82) 7285.7090 7285.7090
304 2.2059 6959(82) 7330.6616 7330.6616
305 2.2119 7111(83) 7375.6143 7375.6143
306 2.2179 7143(83) 7420.5674 7420.5674
307 2.2239 7178(83) 7465.5200 7465.5200
308 2.2299 7282(84) 7510.4712 7510.4712
309 2.2359 7382(84) 7555.4238 7555.4238
310 2.2419 7462(85) 7600.3770 7600.3770
311 2.2479 7546(85) 7645.3296 7645.3296
312 2.2539 7645(86) 7690.2827 7690.2827
313 2.2599 7774(87) 7735.2354 7735.2354
314 2.2659 7899(88) 7780.1865 7780.1865
315 2.2719 7967(88) 7825.1392 7825.1392
316 2.2779 8068(88) 7870.0923 7870.0923
317 2.2839 8095(88) 7915.0449 7915.0449
318 2.2899 8243(89) 7959.9980 7959.9980
319 2.2959 8144(89) 8004.9507 8004.9507
320 2.3019 8320(90) 8049.9019 8049.9019
321 2.3079 8506(91) 8094.8545 8094.8545
322 2.3139 8514(91) 8139.8076 8139.8076
323 2.3199 8584(91) 8184.7603 8184.7603
324 2.3259 8597(92) 8229.7129 8229.7129
325 2.3319 8676(92) 8274.6641 8274.6641
326 2.3379 8957(94) 8319.6172 8319.6172
327 2.3439 8919(93) 8364.5703 8364.5703
328 2.3499 9007(94) 8409.5225 8409.5225
329 2.3559 9328(95) 8454.4756 8454.4756
330 2.3619 9208(95) 8499.4287 8499.4287
331 2.3679 9281(95) 8544.3789 8544.3789
332 2.3739 9429(96) 8589.3320 8589.3320
333 2.3799 9545(97) 8634.2852 8634.2852
334 2.3859 9664(97) 8679.2383 8679.2383
335 2.3919 9655(97) 8724.1914 8724.1914
336 2.3979 9978(99) 8769.1436 8769.1436
337 2.4039 9809(98) 8814.0947 8814.0947
338 2.4099 10081(99) 8859.0479 8859.0479
339 2.4159 10147(100) 8904.0000 8904.0000
340 2.4219 10253(100) 8948.9531 8948.9531
341 2.4279 10081(99) 8993.9062 8993.9062
342 2.4339 10140(100) 9038.8594 9038.8594
343 2.4399 10218(100) 9083.8105 9083.8105
344 2.4459 10265(100) 9128.7627 9128.7627
345 2.4519 10266(100) 9173.7158 9173.7158
346 2.4579 10410(101) 9218.6680 9218.6680
347 2.4639 10343(101) 9263.6211 9263.6211
348 2.4699 10203(100) 9308.5723 9308.5723
349 2.4759 10264(100) 9353.5254 9353.5254
350 2.4819 10305(101) 9398.4785 9398.4785
351 2.4879 10449(101) 9443.4307 9443.4307
352 2.4939 10273(100) 9488.3838 9488.3838
353 2.4999 10342(101) 9533.3369 9533.3369
354 2.5059 10367(101) 9578.2881 9578.2881
355 2.5119 10429(101) 9623.2402 9623.2402
356 2.5179 10345(100) 9668.1934 9668.1934
357 2.5239 10446(101) 9713.1465 9713.1465
358 2.5299 10387(100) 9758.0996 9758.0996
359 2.5359 10412(101) 9803.0518 9803.0518
360 2.5419 10347(100) 9848.0029 9848.0029
361 2.5479 10311(101) 9892.9561 9892.9561
362 2.5539 10527(102) 9937.9082 9937.9082
363 2.5599 10468(101) 9982.8613 9982.8613
364 2.5659 10528(101) 10027.8145 10027.8145
365 2.5719 10599(102) 10072.7656 10072.7656
366 2.5779 10755(103) 10117.7188 10117.7188
367 2.5839 10630(102) 10162.6709 10162.6709
368 2.5899 10479(101) 10207.6240 10207.6240
369 2.5959 10454(101) 10252.5771 10252.5771
370 2.6019 10567(102) 10297.5293 10297.5293
371 2.6079 10581(102) 10342.4805 10342.4805
372 2.6139 10652(102) 10387.4336 10387.4336
373 2.6199 10832(103) 10432.3867 10432.3867
374 2.6259 10531(101) 10477.3398 10477.3398
375 2.6319 10501(101) 10522.2920 10522.2920
376 2.6379 10535(101) 10532.5449 10532.5449
377 2.6439 10660(102) 10542.7979 10542.7979
378 2.6499 10734(102) 10553.0518 10553.0518
379 2.6559 10581(102) 10563.3047 10563.3047
380 2.6619 10604(102) 10573.5586 10573.5586
381 2.6679 10594(102) 10583.8115 10583.8115
382 2.6739 10559(102) 10594.0645 10594.0645
383 2.6799 10718(102) 10604.3184 10604.3184
384 2.6859 10760(102) 10614.5713 10614.5713
385 2.6919 10593(102) 10624.8242 10624.8242
386 2.6979 10713(102) 10635.0781 10635.0781
387 2.7039 10947(104) 10645.3311 10645.3311
388 2.7099 10843(103) 10655.5840 10655.5840
389 2.7159 10664(102) 10665.8379 10665.8379
390 2.7219 10670(102) 10676.0908 10676.0908
391 2.7279 10686(102) 10686.3438 10686.3438
392 2.7339 10761(103) 10696.5977 10696.5977
393 2.7399 10963(104) 10706.8506 10706.8506
394 2.7459 10877(103) 10717.1035 10717.1035
395 2.7519 10665(102) 10727.3574 10727.3574
396 2.7579 10885(103) 10737.6104 10737.6104
397 2.7639 10973(104) 10747.8643 10747.8643
398 2.7699 10930(104) 10758.1172 10758.1172
399 2.7759 10766(103) 10768.3701 10768.3701
400 2.7819 10915(103) 10778.6230 10778.6230
401 2.7879 10984(104) 10788.8770 10788.8770
402 2.7939 10997(104) 10799.1299 10799.1299
403 2.7999 10860(103) 10809.3838 10809.3838
404 2.8059 11111(104) 10819.6367 10819.6367
405 2.8119 10961(104) 10829.8896 10829.8896
406 2.8179 10838(103) 10840.1426 10840.1426
407 2.8239 10912(103) 10850.3965 10850.3965
408 2.8299 10902(103) 10860.6494 10860.6494
409 2.8359 10952(104) 10870.9033 10870.9033
410 2.8419 11020(104) 10881.1562 10881.1562
411 2.8479 10996(104) 10891.4092 10891.4092
412 2.8539 10955(104) 10901.6631 10901.6631
413 2.8599 10940(103) 10911.9160 10911.9160
414 2.8659 10806(103) 10922.1689 10922.1689
415 2.8719 10992(104) 10932.4229 10932.4229
416 2.8779 11059(104) 10942.6758 10942.6758
417 2.8839 10929(103) 10952.9287 10952.9287
418 2.8899 10886(103) 10963.1826 10963.1826
419 2.8959 11006(104) 10973.4355 10973.4355
420 2.9019 11140(105) 10983.6885 10983.6885
421 2.9079 10883(103) 10993.9424 10993.9424
422 2.9139 10912(103) 11004.1953 11004.1953
423 2.9199 11047(104) 11014.4482 11014.4482
424 2.9259 11226(105) 11024.7021 11024.7021
425 2.9319 10905(104) 11034.9551 11034.9551
426 2.9379 10853(103) 11045.2090 11045.2090
427 2.9439 10880(103) 11055.4619 11055.4619
428 2.9499 10924(103) 11065.7148 11065.7148
429 2.9559 11126(105) 11075.9678 11075.9678
430 2.9619 11078(104) 11086.2217 11086.2217
431 2.9679 11048(104) 11096.4746 11096.4746
432 2.9739 11005(104) 11106.7285 11106.7285
433 2.9799 10985(104) 11116.9814 11116.9814
434 2.9859 11040(104) 11127.2344 11127.2344
435 2.9919 11209(105) 11137.4883 11137.4883
436 2.9979 10985(104) 11147.7412 11147.7412
437 3.0039 11169(105) 11157.9941 11157.9941
438 3.0099 11338(106) 11168.2480 11168.2480
439 3.0159 11266(106) 11178.5010 11178.5010
440 3.0219 11271(106) 11188.7539 11188.7539
441 3.0279 11103(104) 11199.0078 11199.0078
442 3.0339 11011(104) 11209.2607 11209.2607
443 3.0399 11161(105) 11219.5137 11219.5137
444 3.0459 11396(106) 11229.7676 11229.7676
445 3.0519 11390(106) 11240.0205 11240.0205
446 3.0579 11667(108) 11250.2734 11250.2734
447 3.0639 11318(106) 11260.5273 11260.5273
448 3.0699 11344(106) 11270.7803 11270.7803
449 3.0759 11379(106) 11281.0332 11281.0332
450 3.0819 11305(106) 11291.2871 11291.2871
451 3.0879 11647(108) 11301.5400 11301.5400
452 3.0939 11359(106) 11311.7930 11311.7930
453 3.0999 11296(106) 11322.0469 11322.0469
454 3.1059 11299(106) 11332.2998 11332.2998
455 3.1119 11292(105) 11342.5537 11342.5537
456 3.1179 11217(105) 11352.8066 11352.8066
457 3.1239 11338(106) 11363.0596 11363.0596
458 3.1299 11509(107) 11373.3125 11373.3125
459 3.1359 11512(107) 11383.5664 11383.5664
460 3.1419 11372(106) 11393.8193 11393.8193
461 3.1479 11635(107) 11404.0732 11404.0732
462 3.1539 11514(107) 11414.3262 11414.3262
463 3.1599 11567(107) 11424.5791 11424.5791
464 3.1659 11406(106) 11434.8320 11434.8320
465 3.1719 11468(107) 11445.0859 11445.0859
466 3.1779 11412(106) 11455.3389 11455.3389
467 3.1839 11573(107) 11465.5928 11465.5928
468 3.1899 11615(107) 11475.8457 11475.8457
469 3.1959 11550(107) 11486.0986 11486.0986
470 3.2019 11546(107) 11496.3525 11496.3525
471 3.2079 11440(106) 11506.6055 11506.6055
472 3.2139 11534(107) 11521.1641 11521.1641
473 3.2199 11453(107) 11535.7227 11535.7227
474 3.2259 11768(108) 11550.2812 11550.2812
475 3.2319 11662(107) 11564.8408 11564.8408
476 3.2379 11489(106) 11579.3994 11579.3994
477 3.2439 11638(107) 11593.9580 11593.9580
478 3.2499 11738(108) 11608.5176 11608.5176
479 3.2559 11476(107) 11623.0752 11623.0752
480 3.2619 11465(106) 11637.6348 11637.6348
481 3.2679 11638(107) 11652.1934 11652.1934
482 3.2739 11576(107) 11666.7520 11666.7520
483 3.2799 11900(109) 11681.3115 11681.3115
484 3.2859 11712(108) 11695.8701 11695.8701
485 3.2919 11684(108) 11710.4287 11710.4287
486 3.2979 11670(107) 11724.9873 11724.9873
487 3.3039 11817(109) 11739.5469 11739.5469
488 3.3099 11677(108) 11754.1055 11754.1055
489 3.3159 11583(107) 11768.6641 11768.6641
490 3.3219 11655(107) 11783.2227 11783.2227
491 3.3279 11702(108) 11797.7812 11797.7812
492 3.3339 11586(107) 11812.3408 11812.3408
493 3.3399 11692(107) 11826.8994 11826.8994
494 3.3459 11603(107) 11841.4580 11841.4580
495 3.3519 11968(109) 11856.0176 11856.0176
496 3.3579 11867(109) 11870.5752 11870.5752
497 3.3639 11881(109) 11885.1348 11885.1348
498 3.3699 11795(109) 11899.6934 11899.6934
499 3.3759 11846(109) 11914.2520 11914.2520
500 3.3819 11953(109) 11928.8115 11928.8115
501 3.3879 11948(109) 11943.3701 11943.3701
502 3.3939 11956(109) 11957.9287 11957.9287
503 3.3999 11986(109) 11972.4873 11972.4873
504 3.4059 12019(109) 11987.0459 11987.0459
505 3.4119 12156(110) 12001.6055 12001.6055
506 3.4179 12156(110) 12016.1641 12016.1641
507 3.4239 12229(111) 12030.7227 12030.7227
508 3.4299 11978(109) 12045.2812 12045.2812
509 3.4359 12099(110) 12059.8398 12059.8398
510 3.4419 12084(109) 12074.3994 12074.3994
511 3.4479 12023(109) 12088.9580 12088.9580
512 3.4539 12107(110) 12103.5176 12103.5176
513 3.4599 12200(110) 12118.0752 12118.0752
514 3.4659 12017(109) 12132.6348 12132.6348
515 3.4719 11945(109) 12147.1934 12147.1934
516 3.4779 12189(110) 12161.7520 12161.7520
517 3.4839 12198(110) 12176.3115 12176.3115
518 3.4899 12013(109) 12190.8701 12190.8701
519 3.4959 12270(111) 12205.4287 12205.4287
520 3.5019 12119(110) 12219.9873 12219.9873
521 3.5079 12440(111) 12234.5459 12234.5459
522 3.5139 12075(109) 12249.1055 12249.1055
523 3.5199 12293(111) 12263.6641 12263.6641
524 3.5259 12324(111) 12278.2227 12278.2227
525 3.5319 12246(110) 12292.7812 12292.7812
526 3.5379 12310(111) 12307.3398 12307.3398
527 3.5439 12131(110) 12321.8994 12321.8994
528 3.5499 12239(111) 12336.4580 12336.4580
529 3.5559 12351(111) 12351.0166 12351.0166
530 3.5619 12162(111) 12365.5752 12365.5752
531 3.5679 12244(110) 12380.1338 12380.1338
532 3.5739 12512(112) 12394.6934 12394.6934
533 3.5799 12467(112) 12409.2520 12409.2520
534 3.5859 12313(110) 12423.8105 12423.8105
535 3.5919 12402(111) 12438.3701 12438.3701
536 3.5979 12533(112) 12452.9277 12452.9277
537 3.6039 12365(111) 12467.4873 12467.4873
538 3.6099 12278(110) 12482.0459 12482.0459
539 3.6159 12303(111) 12496.6055 12496.6055
540 3.6219 12298(110) 12511.1641 12511.1641
541 3.6279 12536(112) 12525.7227 12525.7227
542 3.6339 12259(110) 12540.2812 12540.2812
543 3.6399 12475(112) 12554.8398 12554.8398
544 3.6459 12488(112) 12569.3994 12569.3994
545 3.6519 12650(113) 12583.9580 12583.9580
546 3.6579 12341(111) 12598.5166 12598.5166
547 3.6639 12430(111) 12613.0752 12613.0752
548 3.6699 12516(112) 12627.6338 12627.6338
549 3.6759 12545(112) 12642.1934 12642.1934
550 3.6819 12631(112) 12656.7520 12656.7520
551 3.6879 12501(111) 12671.3105 12671.3105
552 3.6939 12445(112) 12685.8701 12685.8701
553 3.6999 12729(112) 12700.4277 12700.4277
554 3.7059 12609(112) 12714.9873 12714.9873
555 3.7119 12859(114) 12729.5459 12729.5459
556 3.7179 12885(114) 12744.1045 12744.1045
557 3.7239 12671(113) 12758.6641 12758.6641
558 3.7299 12743(113) 12773.2227 12773.2227
559 3.7359 12730(113) 12787.7812 12787.7812
560 3.7419 12538(112) 12802.3398 12802.3398
561 3.7479 12778(113) 12816.8984 12816.8984
562 3.7539 12804(114) 12831.4580 12831.4580
563 3.7599 12953(114) 12846.0166 12846.0166
564 3.7659 12947(114) 12860.5752 12860.5752
565 3.7719 13039(115) 12875.1338 12875.1338
566 3.7779 12895(114) 12889.6934 12889.6934
567 3.7839 13106(115) 12904.2520 12904.2520
568 3.7899 12810(114) 12918.8105 12918.8105
569 3.7959 13037(114) 12933.3691 12933.3691
570 3.8019 13251(116) 12947.9277 12947.9277
571 3.8079 12983(114) 12962.4873 12962.4873
572 3.8139 12792(114) 12977.0459 12977.0459
573 3.8199 13157(115) 13001.8154 13001.8154
574 3.8259 13005(114) 13026.5850 13026.5850
575 3.8319 13069(115) 13051.3545 13051.3545
576 3.8379 13065(115) 13076.1240 13076.1240
577 3.8439 13059(114) 13100.8936 13100.8936
578 3.8499 13316(116) 13125.6631 13125.6631
579 3.8559 13112(115) 13150.4326 13150.4326
580 3.8619 13189(115) 13175.2031 13175.2031
581 3.8679 13229(115) 13199.9717 13199.9717
582 3.8739 13174(115) 13224.7412 13224.7412
583 3.8799 13215(115) 13249.5107 13249.5107
584 3.8859 13311(116) 13274.2803 13274.2803
585 3.8919 13165(115) 13299.0498 13299.0498
586 3.8979 13271(115) 13323.8203 13323.8203
587 3.9039 13193(115) 13348.5889 13348.5889
588 3.9099 13393(116) 13373.3584 13373.3584
589 3.9159 13321(116) 13398.1279 13398.1279
590 3.9219 13291(115) 13422.8975 13422.8975
591 3.9279 13439(116) 13447.6680 13447.6680
592 3.9339 13647(117) 13472.4375 13472.4375
593 3.9399 13414(116) 13497.2061 13497.2061
594 3.9459 13467(117) 13521.9756 13521.9756
595 3.9519 13372(116) 13546.7451 13546.7451
596 3.9579 13519(117) 13571.5156 13571.5156
597 3.9639 13321(116) 13596.2852 13596.2852
598 3.9699 13537(116) 13621.0537 13621.0537
599 3.9759 13523(116) 13645.8232 13645.8232
600 3.9819 13562(116) 13670.5928 13670.5928
601 3.9879 13471(117) 13695.3633 13695.3633
602 3.9939 13707(117) 13720.1328 13720.1328
603 3.9999 13571(117) 13744.9023 13744.9023
604 4.0059 13788(118) 13769.6709 13769.6709
605 4.0119 13366(116) 13794.4404 13794.4404
606 4.0179 13566(117) 13819.2100 13819.2100
607 4.0239 13732(118) 13843.9805 13843.9805
608 4.0299 13771(117) 13868.7500 13868.7500
609 4.0359 13635(117) 13893.5195 13893.5195
610 4.0419 13728(117) 13918.2891 13918.2891
611 4.0479 13665(118) 13943.0586 13943.0586
612 4.0539 13789(117) 13967.8271 13967.8271
613 4.0599 13946(119) 13992.5967 13992.5967
614 4.0659 13678(118) 14017.3662 14017.3662
615 4.0719 13742(118) 14042.1357 14042.1357
616 4.0779 13950(119) 14066.9053 14066.9053
617 4.0839 13886(118) 14091.6758 14091.6758
618 4.0899 13749(118) 14116.4453 14116.4453
619 4.0959 13846(118) 14141.2148 14141.2148
620 4.1019 13858(118) 14165.9844 14165.9844
621 4.1079 14090(119) 14190.7539 14190.7539
622 4.1139 14028(119) 14215.5234 14215.5234
623 4.1199 14265(120) 14240.2939 14240.2939
624 4.1259 13982(119) 14265.0615 14265.0615
625 4.1319 14052(119) 14289.8311 14289.8311
626 4.1379 13988(118) 14314.6006 14314.6006
627 4.1439 14110(119) 14339.3701 14339.3701
628 4.1499 14197(120) 14364.1406 14364.1406
629 4.1559 14146(120) 14388.9102 14388.9102
630 4.1619 14275(120) 14413.6797 14413.6797
631 4.1679 14320(120) 14438.4492 14438.4492
632 4.1739 14388(121) 14463.2188 14463.2188
633 4.1799 14224(120) 14487.9883 14487.9883
634 4.1859 14498(121) 14512.7588 14512.7588
635 4.1919 14198(120) 14537.5264 14537.5264
636 4.1979 14371(120) 14562.2959 14562.2959
637 4.2039 14469(121) 14587.0654 14587.0654
638 4.2099 14382(120) 14611.8359 14611.8359
639 4.2159 14722(122) 14636.6055 14636.6055
640 4.2219 14612(121) 14661.3750 14661.3750
641 4.2279 14576(121) 14686.1445 14686.1445
642 4.2339 14704(122) 14710.9141 14710.9141
643 4.2399 14674(121) 14735.6836 14735.6836
644 4.2459 14539(121) 14760.4541 14760.4541
645 4.2519 14657(122) 14785.2236 14785.2236
646 4.2579 14927(123) 14809.9932 14809.9932
647 4.2639 14681(122) 14834.7607 14834.7607
648 4.2699 14612(121) 14859.5303 14859.5303
649 4.2759 14691(122) 14884.3008 14884.3008
650 4.2819 14853(122) 14909.0703 14909.0703
651 4.2879 14808(122) 14933.8398 14933.8398
652 4.2939 15134(124) 14958.6094 14958.6094
653 4.2999 14855(122) 14983.3789 14983.3789
654 4.3059 15176(124) 15008.1484 15008.1484
655 4.3119 15015(123) 15032.9189 15032.9189
656 4.3179 15074(123) 15057.6885 15057.6885
657 4.3239 14990(123) 15082.4580 15082.4580
658 4.3299 15183(124) 15128.3350 15128.3350
659 4.3359 15328(124) 15174.2148 15174.2148
660 4.3419 15480(125) 15220.0957 15220.0957
661 4.3479 15600(126) 15265.9756 15265.9756
662 4.3539 15372(125) 15311.8555 15311.8555
663 4.3599 15252(124) 15357.7363 15357.7363
664 4.3659 15778(127) 15403.6162 15403.6162
665 4.3719 15705(126) 15449.4971 15449.4971
666 4.3779 15793(127) 15495.3770 15495.3770
667 4.3839 15623(126) 15541.2578 15541.2578
668 4.3899 15779(127) 15587.1377 15587.1377
669 4.3959 15684(127) 15633.0146 15633.0146
670 4.4019 16036(128) 15678.8945 15678.8945
671 4.4079 16019(127) 15724.7754 15724.7754
672 4.4139 16057(128) 15770.6553 15770.6553
673 4.4199 16047(127) 15816.5352 15816.5352
674 4.4259 16199(128) 15862.4160 15862.4160
675 4.4319 16512(130) 15908.2959 15908.2959
676 4.4379 16342(129) 15954.1768 15954.1768
677 4.4439 16714(130) 16000.0566 16000.0566
678 4.4499 16500(129) 16045.9375 16045.9375
679 4.4559 16978(132) 16091.8174 16091.8174
680 4.4619 16885(131) 16137.6973 16137.6973
681 4.4679 17311(132) 16183.5742 16183.5742
682 4.4739 17190(132) 16229.4551 16229.4551
683 4.4799 17496(133) 16275.3350 16275.3350
684 4.4859 17623(134) 16321.2148 16321.2148
685 4.4919 17604(133) 16367.0957 16367.0957
686 4.4979 17633(134) 16412.9766 16412.9766
687 4.5039 18198(136) 16458.8555 16458.8555
688 4.5099 18036(136) 16504.7363 16504.7363
689 4.5159 17973(135) 16550.6172 16550.6172
690 4.5219 18262(136) 16596.4961 16596.4961
691 4.5279 18778(138) 16642.3770 16642.3770
692 4.5339 18306(136) 16688.2539 16688.2539
693 4.5399 18309(136) 16734.1348 16734.1348
694 4.5459 18139(136) 16780.0156 16780.0156
695 4.5519 18487(137) 16825.8945 16825.8945
696 4.5579 18073(136) 16871.7754 16871.7754
697 4.5639 17777(134) 16917.6562 16917.6562
698 4.5699 17904(135) 16963.5352 16963.5352
699 4.5759 17847(134) 17009.4160 17009.4160
700 4.5819 17889(136) 17055.2969 17055.2969
701 4.5879 17721(134) 17101.1758 17101.1758
702 4.5939 17635(134) 17147.0566 17147.0566
703 4.5999 17590(134) 17192.9336 17192.9336
704 4.6059 17599(134) 17238.8145 17238.8145
705 4.6119 17575(133) 17284.6953 17284.6953
706 4.6179 17596(133) 17330.5742 17330.5742
707 4.6239 17642(134) 17376.4551 17376.4551
708 4.6299 17583(134) 17422.3359 17422.3359
709 4.6359 17755(134) 17468.2148 17468.2148
710 4.6419 17665(134) 17514.0957 17514.0957
711 4.6479 17736(134) 17559.9766 17559.9766
712 4.6539 17695(134) 17605.8555 17605.8555
713 4.6599 17576(134) 17651.7363 17651.7363
714 4.6659 17868(134) 17697.6172 17697.6172
715 4.6719 17888(134) 17743.4941 17743.4941
716 4.6779 17660(134) 17789.3750 17789.3750
717 4.6839 17992(135) 17835.2539 17835.2539
718 4.6899 17978(135) 17881.1348 17881.1348
719 4.6959 18500(138) 17927.0156 17927.0156
720 4.7019 17883(135) 17972.8945 17972.8945
721 4.7079 18164(136) 18018.7754 18018.7754
722 4.7139 18267(137) 18064.6562 18064.6562
723 4.7199 18214(136) 18110.5352 18110.5352
724 4.7259 18683(138) 18156.4160 18156.4160
725 4.7319 18277(136) 18202.2969 18202.2969
726 4.7379 18262(136) 18248.1738 18248.1738
727 4.7439 18381(137) 18294.0547 18294.0547
728 4.7499 18469(137) 18339.9336 18339.9336
729 4.7559 18500(137) 18385.8145 18385.8145
730 4.7619 18464(137) 18431.6953 18431.6953
731 4.7679 18535(138) 18477.5742 18477.5742
732 4.7739 18579(137) 18535.2637 18535.2637
733 4.7799 18617(138) 18608.3906 18608.3906
734 4.7859 19029(139) 18681.5195 18681.5195
735 4.7919 18968(138) 18754.6465 18754.6465
736 4.7979 18789(138) 18827.7754 18827.7754
737 4.8039 18804(139) 18900.8965 18900.8965
738 4.8099 18999(139) 18974.0254 18974.0254
739 4.8159 19001(139) 19047.1523 19047.1523
740 4.8219 19166(140) 19120.2812 19120.2812
741 4.8279 19216(140) 19193.4082 19193.4082
742 4.8339 19402(140) 19266.5371 19266.5371
743 4.8399 19260(140) 19339.6641 19339.6641
744 4.8459 19291(140) 19412.7930 19412.7930
745 4.8519 19459(141) 19485.9199 19485.9199
746 4.8579 19767(142) 19559.0488 19559.0488
747 4.8639 19501(141) 19632.1758 19632.1758
748 4.8699 19709(141) 19705.3047 19705.3047
749 4.8759 20071(143) 19778.4258 19778.4258
750 4.8819 19861(142) 19851.5547 19851.5547
751 4.8879 20036(143) 19924.6816 19924.6816
752 4.8939 19907(142) 19997.8105 19997.8105
753 4.8999 19960(143) 20070.9375 20070.9375
754 4.9059 20014(143) 20144.0664 20144.0664
755 4.9119 20189(143) 20217.1934 20217.1934
756 4.9179 20394(144) 20290.3223 20290.3223
757 4.9239 20333(143) 20363.4492 20363.4492
758 4.9299 20282(144) 20436.5781 20436.5781
759 4.9359 20551(145) 20509.7051 20509.7051
760 4.9419 20561(144) 20582.8281 20582.8281
761 4.9479 20647(144) 20655.9551 20655.9551
762 4.9539 20792(145) 20729.0840 20729.0840
763 4.9599 20826(145) 20802.2109 20802.2109
764 4.9659 20790(145) 20875.3398 20875.3398
765 4.9719 21033(146) 20948.4668 20948.4668
766 4.9779 21096(146) 21021.5957 21021.5957
767 4.9839 21371(147) 21094.7227 21094.7227
768 4.9899 20886(145) 21167.8516 21167.8516
769 4.9959 21483(148) 21240.9785 21240.9785
770 5.0019 21301(148) 21314.1074 21314.1074
771 5.0079 21566(148) 21387.2344 21387.2344
772 5.0139 21682(148) 21460.3574 21460.3574
773 5.0199 21527(147) 21533.4844 21533.4844
774 5.0259 21935(150) 21657.2402 21657.2402
775 5.0319 21986(150) 21781.8574 21781.8574
776 5.0379 22055(150) 21906.4727 21906.4727
777 5.0439 22651(152) 22031.0879 22031.0879
778 5.0499 22644(152) 22155.7031 22155.7031
779 5.0559 22598(152) 22280.3184 22280.3184
780 5.0619 22670(152) 22404.9336 22404.9336
781 5.0679 22966(154) 22529.5508 22529.5508
782 5.0739 22933(153) 22654.1660 22654.1660
783 5.0799 23544(155) 22778.7715 22778.7715
784 5.0859 22869(153) 22903.3867 22903.3867
785 5.0919 23121(154) 23028.0020 23028.0020
786 5.0979 23523(155) 23152.6172 23152.6172
787 5.1039 23585(155) 23277.2344 23277.2344
788 5.1099 23411(155) 23401.8496 23401.8496
789 5.1159 23721(156) 23526.4648 23526.4648
790 5.1219 23837(156) 23651.0801 23651.0801
791 5.1279 23859(156) 23775.6953 23775.6953
792 5.1339 24319(158) 23900.3105 23900.3105
793 5.1399 24393(157) 24024.9277 24024.9277
794 5.1459 24192(157) 24149.5332 24149.5332
795 5.1519 24041(157) 24274.1484 24274.1484
796 5.1579 24613(159) 24398.7637 24398.7637
797 5.1639 24264(158) 24523.3789 24523.3789
798 5.1699 24619(159) 24647.9941 24647.9941
799 5.1759 24720(159) 24772.6113 24772.6113
800 5.1819 25058(160) 24897.2266 24897.2266
801 5.1879 25004(160) 25021.8418 25021.8418
802 5.1939 25302(160) 25146.4570 25146.4570
803 5.1999 25546(161) 25271.0723 25271.0723
804 5.2059 25630(161) 25402.5840 25402.5840
805 5.2119 25661(162) 25578.9043 25578.9043
806 5.2179 25904(162) 25755.2090 25755.2090
807 5.2239 25897(163) 25931.5293 25931.5293
808 5.2299 26229(164) 26107.8496 26107.8496
809 5.2359 26224(164) 26284.1699 26284.1699
810 5.2419 26073(163) 26460.4902 26460.4902
811 5.2479 26666(165) 26636.8105 26636.8105
812 5.2539 26251(164) 26813.1309 26813.1309
813 5.2599 27067(166) 26989.4512 26989.4512
814 5.2659 27042(166) 27165.7715 27165.7715
815 5.2719 27156(166) 27342.0918 27342.0918
816 5.2779 27452(168) 27518.4102 27518.4102
817 5.2839 27642(168) 27694.7168 27694.7168
818 5.2899 27961(169) 27871.0371 27871.0371
819 5.2959 27945(168) 28047.3574 28047.3574
820 5.3019 28124(168) 28223.6777 28223.6777
821 5.3079 28353(170) 28399.9980 28399.9980
822 5.3139 28627(171) 28576.3184 28576.3184
823 5.3199 29068(171) 28752.6387 28752.6387
824 5.3259 28962(172) 28928.9590 28928.9590
825 5.3319 29596(173) 29105.2793 29105.2793
826 5.3379 29543(173) 29281.5977 29281.5977
827 5.3439 29527(173) 29457.9180 29457.9180
828 5.3499 29617(174) 29649.0977 29649.0977
829 5.3559 29771(175) 29889.1543 29889.1543
830 5.3619 30064(175) 30129.2109 30129.2109
831 5.3679 30202(175) 30369.2695 30369.2695
832 5.3739 30982(177) 30609.3262 30609.3262
833 5.3799 31232(177) 30849.3848 30849.3848
834 5.3859 31325(177) 31089.4414 31089.4414
835 5.3919 31592(178) 31329.5000 31329.5000
836 5.3979 31901(180) 31569.5566 31569.5566
837 5.4039 32290(181) 31809.6152 31809.6152
838 5.4099 32858(181) 32049.6719 32049.6719
839 5.4159 32914(182) 32289.7305 32289.7305
840 5.4219 33166(182) 32529.7676 32529.7676
841 5.4279 33649(184) 32769.8242 32769.8242
842 5.4339 33729(184) 33009.8828 33009.8828
843 5.4399 34343(186) 33249.9414 33249.9414
844 5.4459 35197(187) 33490.0000 33490.0000
845 5.4519 35465(188) 33730.0547 33730.0547
846 5.4579 36178(191) 33970.1133 33970.1133
847 5.4639 36674(192) 34210.1719 34210.1719
848 5.4699 37388(193) 34450.2266 34450.2266
849 5.4759 38237(196) 34690.2852 34690.2852
850 5.4819 39532(198) 34930.3438 34930.3438
851 5.4879 40110(200) 35170.3828 35170.3828
852 5.4939 40685(202) 35410.4375 35410.4375
853 5.4999 41513(204) 35650.4961 35650.4961
854 5.5059 42338(206) 35890.5547 35890.5547
855 5.5119 42644(207) 36130.6133 36130.6133
856 5.5179 43354(207) 36370.6680 36370.6680
857 5.5239 43190(207) 36610.7266 36610.7266
858 5.5299 43440(209) 36850.7852 36850.7852
859 5.5359 43421(208) 37090.8438 37090.8438
860 5.5419 43468(208) 37330.8984 37330.8984
861 5.5479 43340(208) 37570.9570 37570.9570
862 5.5539 43065(208) 37810.9961 37810.9961
863 5.5599 43180(206) 38051.0547 38051.0547
864 5.5659 43118(208) 38291.1094 38291.1094
865 5.5719 42754(207) 38531.1680 38531.1680
866 5.5779 42681(207) 38771.2266 38771.2266
867 5.5839 42409(206) 39011.2812 39011.2812
868 5.5899 42171(207) 39251.3398 39251.3398
869 5.5959 42499(205) 39491.3984 39491.3984
870 5.6019 41768(205) 39731.4570 39731.4570
871 5.6079 42056(205) 39971.5156 39971.5156
872 5.6139 41930(204) 40211.5703 40211.5703
873 5.6199 42058(205) 40451.6289 40451.6289
874 5.6259 42052(206) 40691.6680 40691.6680
875 5.6319 42621(205) 40931.7266 40931.7266
876 5.6379 42319(206) 41171.7812 41171.7812
877 5.6439 42306(205) 41411.8398 41411.8398
878 5.6499 42361(206) 41651.8984 41651.8984
879 5.6559 42540(205) 41891.9531 41891.9531
880 5.6619 42851(208) 42088.9844 42088.9844
881 5.6679 42996(207) 42266.0742 42266.0742
882 5.6739 43258(208) 42443.1641 42443.1641
883 5.6799 43220(208) 42620.2539 42620.2539
884 5.6859 43227(208) 42797.3438 42797.3438
885 5.6919 43236(208) 42974.4219 42974.4219
886 5.6979 43688(209) 43151.5078 43151.5078
887 5.7039 43649(211) 43328.5977 43328.5977
888 5.7099 44376(210) 43505.6875 43505.6875
889 5.7159 43954(211) 43682.7773 43682.7773
890 5.7219 44106(211) 43859.8672 43859.8672
891 5.7279 44714(211) 44036.9570 44036.9570
892 5.7339 45086(211) 44214.0469 44214.0469
893 5.7399 45040(213) 44391.1367 44391.1367
894 5.7459 45601(211) 44568.2266 44568.2266
895 5.7519 45346(213) 44745.3164 44745.3164
896 5.7579 45828(213) 44922.4062 44922.4062
897 5.7639 45597(213) 45099.4805 45099.4805
898 5.7699 46055(213) 45276.5703 45276.5703
899 5.7759 46077(214) 45453.6602 45453.6602
900 5.7819 46264(215) 45630.7500 45630.7500
901 5.7879 46290(214) 45807.8398 45807.8398
902 5.7939 46544(215) 45984.9297 45984.9297
903 5.7999 46856(216) 46162.0195 46162.0195
904 5.8059 47037(215) 46339.1094 46339.1094
905 5.8119 46997(216) 46516.1953 46516.1953
906 5.8179 46996(217) 46693.2891 46693.2891
907 5.8239 47649(217) 46870.3750 46870.3750
908 5.8299 47374(217) 47047.4531 47047.4531
909 5.8359 47296(217) 47224.5430 47224.5430
910 5.8419 47800(217) 47401.6328 47401.6328
911 5.8479 47691(218) 47578.7188 47578.7188
912 5.8539 47766(218) 47755.8125 47755.8125
913 5.8599 48107(219) 47932.8984 47932.8984
914 5.8659 48193(219) 48109.9883 48109.9883
915 5.8719 48184(219) 48287.0781 48287.0781
916 5.8779 48343(219) 48464.1680 48464.1680
917 5.8839 48558(219) 48641.2578 48641.2578
918 5.8899 48630(219) 48694.3867 48694.3867
919 5.8959 48719(220) 48694.3867 48694.3867
920 5.9019 48817(220) 48694.3867 48694.3867
921 5.9079 48704(220) 48694.3867 48694.3867
922 5.9139 48562(220) 48694.3867 48694.3867
923 5.9199 49192(220) 48694.3867 48694.3867
924 5.9259 48869(220) 48694.3867 48694.3867
925 5.9319 49074(221) 48694.3867 48694.3867
926 5.9379 49443(222) 48694.3867 48694.3867
927 5.9439 49178(220) 48694.3867 48694.3867
928 5.9499 49000(220) 48694.3867 48694.3867
929 5.9559 49404(220) 48694.3867 48694.3867
930 5.9619 49483(222) 48694.3867 48694.3867
931 5.9679 49151(221) 48694.3867 48694.3867
932 5.9739 49698(221) 48694.3867 48694.3867
933 5.9799 49474(221) 48694.3867 48694.3867
934 5.9859 49574(221) 48694.3867 48694.3867
935 5.9919 49136(221) 48694.3867 48694.3867
936 5.9979 49286(220) 48694.3867 48694.3867
937 6.0039 49275(220) 48694.3867 48694.3867
938 6.0099 49106(221) 48694.3867 48694.3867
939 6.0159 48930(220) 48694.3867 48694.3867
940 6.0219 49087(220) 48694.3867 48694.3867
941 6.0279 48910(221) 48694.3867 48694.3867
942 6.0339 49160(220) 48694.3867 48694.3867
943 6.0399 48712(220) 48694.3867 48694.3867
944 6.0459 48175(219) 48694.3867 48694.3867
945 6.0519 48528(220) 48555.9922 48555.9922
946 6.0579 48041(219) 48318.7383 48318.7383
947 6.0639 48222(220) 48081.4883 48081.4883
948 6.0699 47917(217) 47844.2344 47844.2344
949 6.0759 47838(219) 47606.9844 47606.9844
950 6.0819 47908(218) 47369.7305 47369.7305
951 6.0879 47529(216) 47132.4805 47132.4805
952 6.0939 47664(216) 46895.2266 46895.2266
953 6.0999 47223(216) 46657.9961 46657.9961
954 6.1059 46994(215) 46420.7422 46420.7422
955 6.1119 46678(214) 46183.4922 46183.4922
956 6.1179 46719(215) 45946.2383 45946.2383
957 6.1239 46099(214) 45708.9883 45708.9883
958 6.1299 46127(213) 45471.7344 45471.7344
959 6.1359 45649(212) 45234.4844 45234.4844
960 6.1419 45427(212) 44997.2344 44997.2344
961 6.1479 45638(212) 44759.9805 44759.9805
962 6.1539 45171(211) 44522.7305 44522.7305
963 6.1599 44659(211) 44285.4766 44285.4766
964 6.1659 44538(210) 44048.2266 44048.2266
965 6.1719 44561(208) 43810.9922 43810.9922
966 6.1779 43707(208) 43573.7422 43573.7422
967 6.1839 43537(207) 43336.4883 43336.4883
968 6.1899 43395(207) 43099.2383 43099.2383
969 6.1959 42936(206) 42861.9844 42861.9844
970 6.2019 42773(206) 42624.7344 42624.7344
971 6.2079 42907(205) 42387.4805 42387.4805
972 6.2139 42274(204) 42150.2305 42150.2305
973 6.2199 42167(205) 41912.9766 41912.9766
974 6.2259 41912(202) 41675.7266 41675.7266
975 6.2319 41458(203) 41438.4727 41438.4727
976 6.2379 41227(202) 41201.2422 41201.2422
977 6.2439 40874(200) 40963.9883 40963.9883
978 6.2499 40931(201) 40726.7383 40726.7383
979 6.2559 40380(200) 40489.4844 40489.4844
980 6.2619 40081(199) 40252.2344 40252.2344
981 6.2679 40078(199) 40014.9844 40014.9844
982 6.2739 39645(198) 39777.7305 39777.7305
983 6.2799 39358(197) 39540.4766 39540.4766
984 6.2859 39260(197) 39303.2266 39303.2266
985 6.2919 38879(197) 39065.9766 39065.9766
986 6.2979 38866(195) 38828.7227 38828.7227
987 6.3039 38271(194) 38591.4922 38591.4922
988 6.3099 38156(195) 38354.2383 38354.2383
989 6.3159 37904(194) 38116.9844 38116.9844
990 6.3219 37969(193) 37879.7344 37879.7344
991 6.3279 37534(192) 37642.4844 37642.4844
992 6.3339 37639(193) 37405.2305 37405.2305
993 6.3399 37262(191) 37173.8047 37173.8047
994 6.3459 36653(191) 36943.5469 36943.5469
995 6.3519 36710(190) 36713.2891 36713.2891
996 6.3579 36568(189) 36483.0312 36483.0312
997 6.3639 36176(189) 36252.7695 36252.7695
998 6.3699 36251(190) 36022.5117 36022.5117
999 6.3759 35995(189) 35792.2734 35792.2734
1000 6.3819 35799(188) 35562.0117 35562.0117
1001 6.3879 35397(187) 35331.7539 35331.7539
1002 6.3939 35188(187) 35101.4961 35101.4961
1003 6.3999 34990(186) 34871.2383 34871.2383
1004 6.4059 34754(186) 34640.9766 34640.9766
1005 6.4119 35005(186) 34410.7188 34410.7188
1006 6.4179 34482(185) 34180.4609 34180.4609
1007 6.4239 34278(185) 33950.2031 33950.2031
1008 6.4299 34326(185) 33719.9414 33719.9414
1009 6.4359 34165(183) 33489.6836 33489.6836
1010 6.4419 34063(183) 33259.4453 33259.4453
1011 6.4479 33702(182) 33089.4023 33089.4023
1012 6.4539 33533(182) 33016.2461 33016.2461
1013 6.4599 33400(182) 32943.0898 32943.0898
1014 6.4659 33341(182) 32869.9375 32869.9375
1015 6.4719 33118(181) 32796.7812 32796.7812
1016 6.4779 32990(181) 32723.6270 32723.6270
1017 6.4839 32796(180) 32650.4707 32650.4707
1018 6.4899 32669(180) 32577.3164 32577.3164
1019 6.4959 32365(179) 32504.1621 32504.1621
1020 6.5019 32541(180) 32431.0059 32431.0059
1021 6.5079 32337(179) 32357.8516 32357.8516
1022 6.5139 32147(178) 32284.7031 32284.7031
1023 6.5199 31812(178) 32211.5469 32211.5469
1024 6.5259 31898(177) 32138.3926 32138.3926
1025 6.5319 31538(177) 32065.2363 32065.2363
1026 6.5379 31527(177) 32000.2656 31992.0820
1027 6.5439 31574(177) 31927.3926 31918.9277
1028 6.5499 31291(176) 31854.5293 31845.7715
1029 6.5559 31256(177) 31781.6855 31772.6172
1030 6.5619 31348(176) 31588.6348 31579.2383
1031 6.5679 30950(175) 31395.6016 31385.8594
1032 6.5739 30959(176) 31202.5879 31192.4824
1033 6.5799 30928(175) 31009.6113 30999.1191
1034 6.5859 31001(175) 30816.6387 30805.7402
1035 6.5919 30663(174) 30623.6914 30612.3613
1036 6.5979 30809(174) 30430.7715 30418.9824
1037 6.6039 30620(174) 30237.8789 30225.6035
1038 6.6099 30530(174) 30045.0176 30032.2266
1039 6.6159 30639(174) 29852.1895 29838.8477
1040 6.6219 30564(174) 29659.3965 29645.4688
1041 6.6279 30526(174) 29466.6445 29452.0898
1042 6.6339 30223(173) 29273.9336 29258.7109
1043 6.6399 30517(174) 29081.2695 29065.3320
1044 6.6459 30096(172) 28888.6738 28871.9688
1045 6.6519 30185(173) 28696.1211 28678.5918
1046 6.6579 30234(173) 28503.6270 28485.2129
1047 6.6639 29943(172) 28311.2031 28291.8340
1048 6.6699 30135(173) 28293.8047 28273.4062
1049 6.6759 30217(173) 28276.4941 28254.9805
1050 6.6819 30270(174) 28259.2734 28236.5527
1051 6.6879 30387(174) 28242.1602 28218.1270
1052 6.6939 30182(174) 28225.1602 28199.6992
1053 6.6999 30418(173) 28208.2930 28181.2734
1054 6.7059 30185(172) 28191.5703 28162.8457
1055 6.7119 30179(173) 28175.0117 28144.4180
1056 6.7179 30313(174) 28158.6465 28125.9941
1057 6.7239 30243(174) 28142.4902 28107.5664
1058 6.7299 30217(173) 28126.5762 28089.1387
1059 6.7359 30471(174) 28110.9453 28070.7129
1060 6.7419 30116(173) 28095.6328 28052.2852
1061 6.7479 30527(174) 28080.6953 28033.8594
1062 6.7539 30683(174) 28066.1875 28015.4316
1063 6.7599 30911(175) 28052.1914 27997.0059
1064 6.7659 31111(176) 28038.7891 27978.5781
1065 6.7719 31397(176) 28026.0957 27960.1504
1066 6.7779 31765(178) 28014.2520 27941.7246
1067 6.7839 32075(178) 28003.4238 27923.2988
1068 6.7899 32564(179) 27993.8262 27904.8711
1069 6.7959 33340(182) 27985.7422 27886.4453
1070 6.8019 33749(183) 27979.5234 27868.0176
1071 6.8079 34374(185) 27975.6426 27849.5918
1072 6.8139 35562(187) 29799.7871 27831.1641
1073 6.8199 35429(188) 29865.9570 27812.7383
1074 6.8259 36081(189) 29940.4648 27794.3105
1075 6.8319 36042(189) 30025.2383 27775.8828
1076 6.8379 35750(188) 30122.9238 27757.4570
1077 6.8439 35703(188) 30237.1133 27739.0293
1078 6.8499 35396(187) 30372.6016 27720.6055
1079 6.8559 34644(186) 30535.7305 27702.1777
1080 6.8619 34052(185) 30734.1777 27683.7500
1081 6.8679 33839(183) 30976.0684 27665.3242
1082 6.8739 33542(182) 31266.6289 27646.8965
1083 6.8799 33444(182) 31599.3438 27628.4707
1084 6.8859 33724(182) 31939.6855 27610.0430
1085 6.8919 33991(184) 32215.1270 27591.6172
1086 6.8979 34043(184) 32348.9180 27573.1895
1087 6.9039 33524(183) 32331.9805 27554.7617
1088 6.9099 33020(181) 32233.7598 27536.3359
1089 6.9159 32038(179) 32134.2031 27517.9082
1090 6.9219 31643(177) 32077.7617 27499.4824
1091 6.9279 31243(176) 32077.0898 27481.0566
1092 6.9339 31268(176) 32130.2949 27462.6289
1093 6.9399 31085(175) 32231.4238 27444.2031
1094 6.9459 30953(175) 32374.6875 27425.7754
1095 6.9519 30987(176) 32555.7598 27407.3496
1096 6.9579 30988(175) 32772.0234 27388.9219
1097 6.9639 31154(175) 33022.5469 27370.4941
1098 6.9699 31054(175) 33307.7812 27352.0684
1099 6.9759 31341(177) 33629.2656 27333.6406
1100 6.9819 31160(175) 33989.6211 27315.2148
1101 6.9879 31381(176) 34392.5742 27296.7891
1102 6.9939 31487(177) 34842.8945 27278.3613
1103 6.9999 31671(177) 35346.2500 27259.9355
1104 7.0059 32014(178) 35909.7773 27241.5078
1105 7.0119 32116(179) 36542.1367 27223.0820
1106 7.0179 32425(179) 37253.5625 27204.6543
1107 7.0239 33067(181) 38056.4297 27186.2266
1108 7.0299 33556(182) 38966.0273 27167.8008
1109 7.0359 34123(184) 40001.0820 27149.3730
1110 7.0419 34922(187) 41184.2734 27130.9473
1111 7.0479 35763(188) 42543.6055 27112.5195
1112 7.0539 36820(191) 44114.5195 27094.0938
1113 7.0599 38099(194) 45941.7266 27075.6680
1114 7.0659 39113(198) 48081.1367 27057.2402
1115 7.0719 41138(203) 50605.7109 27038.8145
1116 7.0779 43088(206) 53610.7344 27020.3867
1117 7.0839 45630(213) 57221.2422 27001.9590
1118 7.0899 48584(219) 61605.2188 26983.5332
1119 7.0959 52765(229) 66994.0547 26965.1055
1120 7.1019 57425(239) 73709.9531 26946.6797
1121 7.1079 63022(250) 82203.1641 26928.2520
1122 7.1139 72851(269) 93106.4141 26909.8262
1123 7.1199 86288(292) 107305.7031 26891.3984
1124 7.1259 103032(320) 126011.7812 26872.9727
1125 7.1319 127541(354) 150795.2344 26854.5469
1126 7.1379 159093(396) 183525.2344 26836.1191
1127 7.1439 197547(441) 225873.2969 26817.6914
1128 7.1499 259832(506) 277720.6562 26799.2656
1129 7.1559 331432(572) 333688.0312 26780.8379
1130 7.1619 387083(619) 379275.7188 26762.4121
1131 7.1679 421818(646) 394630.0625 26743.9844
1132 7.1739 419981(645) 371279.2500 26725.5586
1133 7.1799 387261(619) 321719.3750 26707.1309
1134 7.1859 326995(569) 265723.4375 26688.7031
1135 7.1919 261384(507) 215690.1250 26670.2793
1136 7.1979 200692(446) 175480.6250 26651.8516
1137 7.2039 159311(398) 144593.5000 26633.4258
1138 7.2099 129822(359) 121235.5234 26614.9980
1139 7.2159 107686(326) 103587.1562 26596.5703
1140 7.2219 94062(305) 90153.3281 26578.1445
1141 7.2279 80683(282) 79798.9766 26559.7168
1142 7.2339 70715(264) 71698.5000 26541.2910
1143 7.2399 63825(252) 65264.1055 26522.8633
1144 7.2459 58802(240) 60077.6641 26504.4355
1145 7.2519 53376(231) 55839.4336 26486.0098
1146 7.2579 49655(223) 52325.5234 26467.5820
1147 7.2639 47484(218) 49395.2734 26449.1562
1148 7.2699 45068(212) 46921.9570 26430.7305
1149 7.2759 42813(206) 44815.8867 26412.3027
1150 7.2819 41445(202) 43008.6562 26393.8770
1151 7.2879 39868(199) 41446.8359 26375.4492
1152 7.2939 38636(196) 40087.8750 26357.0234
1153 7.2999 37188(193) 38897.9531 26338.5957
1154 7.3059 36432(190) 37850.2695 26320.1680
1155 7.3119 35174(186) 36923.0547 26301.7422
1156 7.3179 34772(185) 36098.2578 26283.3145
1157 7.3239 34144(184) 35361.0742 26264.8887
1158 7.3299 33402(182) 34699.5508 26246.4629
1159 7.3359 32411(180) 34103.4102 26228.0352
1160 7.3419 32124(178) 33564.0703 26209.6094
1161 7.3479 31630(177) 33074.4297 26191.1816
1162 7.3539 31760(178) 32628.4766 26172.7559
1163 7.3599 31077(176) 32220.9355 26154.3281
1164 7.3659 30465(174) 31847.3105 26135.9023
1165 7.3719 30157(173) 31503.8398 26117.4746
1166 7.3779 30140(174) 31187.2656 26099.0469
1167 7.3839 29715(171) 30894.6738 26080.6211
1168 7.3899 29577(171) 30623.5273 26062.1934
1169 7.3959 29292(170) 30371.7305 26043.7676
1170 7.4019 29100(170) 30137.3320 26025.3418
1171 7.4079 28693(169) 29918.6133 26006.9141
1172 7.4139 28583(169) 29714.1348 25988.4883
1173 7.4199 28610(168) 29522.6016 25970.0605
1174 7.4259 28118(167) 29342.8242 25951.6328
1175 7.4319 28110(167) 29173.7402 25933.2070
1176 7.4379 27993(166) 29014.4473 25914.7793
1177 7.4439 27905(167) 28864.1406 25896.3535
1178 7.4499 27711(167) 28722.0527 25877.9258
1179 7.4559 27748(166) 28587.5000 25859.5000
1180 7.4619 27651(166) 28459.8984 25841.0723
1181 7.4679 27197(165) 28338.7402 25822.6465
1182 7.4739 27379(165) 28223.4688 25804.2207
1183 7.4799 27216(164) 28113.6680 25785.7930
1184 7.4859 26919(164) 28008.9531 25767.3672
1185 7.4919 27110(164) 27908.9375 25748.9395
1186 7.4979 27135(164) 27813.2754 25730.5117
1187 7.5039 26937(164) 27721.6797 25712.0859
1188 7.5099 27071(163) 27633.8730 25693.6582
1189 7.5159 26780(162) 27549.5938 25675.2324
1190 7.5219 26956(164) 25656.8047 25656.8047
1191 7.5279 26772(163) 25638.3789 25638.3789
1192 7.5339 26777(163) 25619.9531 25619.9531
1193 7.5399 26608(162) 25601.5254 25601.5254
1194 7.5459 26614(163) 25583.0996 25583.0996
1195 7.5519 26671(162) 25564.6719 25564.6719
1196 7.5579 26544(162) 25546.2461 25546.2461
1197 7.5639 26384(163) 25527.8184 25527.8184
1198 7.5699 26561(162) 25509.3906 25509.3906
1199 7.5759 26706(163) 25490.9648 25490.9648
1200 7.5819 26510(162) 25472.5371 25472.5371
1201 7.5879 26343(162) 25454.1113 25454.1113
1202 7.5939 26469(161) 25435.6836 25435.6836
1203 7.5999 26054(162) 25417.2578 25417.2578
1204 7.6059 26273(162) 25398.8320 25398.8320
1205 7.6119 26433(162) 25380.4043 25380.4043
1206 7.6179 26423(163) 25361.9766 25361.9766
1207 7.6239 26155(162) 25343.5508 25343.5508
1208 7.6299 26291(161) 25325.1230 25325.1230
1209 7.6359 25955(161) 25306.6973 25306.6973
1210 7.6419 26216(162) 25288.2695 25288.2695
1211 7.6479 26237(162) 25269.8438 25269.8438
1212 7.6539 26152(161) 25251.4160 25251.4160
1213 7.6599 26126(162) 25232.9883 25232.9883
1214 7.6659 26190(161) 25214.5625 25214.5625
1215 7.6719 26086(161) 25196.1367 25196.1367
1216 7.6779 25995(161) 25177.7109 25177.7109
1217 7.6839 26442(161) 25159.2832 25159.2832
1218 7.6899 26288(162) 25140.8555 25140.8555
1219 7.6959 26133(162) 25122.4297 25122.4297
1220 7.7019 26491(162) 25104.0020 25104.0020
1221 7.7079 26755(163) 25085.5762 25085.5762
1222 7.7139 26522(163) 25067.1484 25067.1484
1223 7.7199 26829(163) 25048.7227 25048.7227
1224 7.7259 27049(163) 25030.2949 25030.2949
1225 7.7319 27200(164) 25011.8672 25011.8672
1226 7.7379 27707(166) 24993.4414 24993.4414
1227 7.7439 27943(166) 24975.0156 24975.0156
1228 7.7499 28187(168) 24956.5879 24956.5879
1229 7.7559 28056(167) 24938.1621 24938.1621
1230 7.7619 28708(169) 24919.7344 24919.7344
1231 7.7679 28294(168) 24901.3086 24901.3086
1232 7.7739 27891(167) 24882.8809 24882.8809
1233 7.7799 27746(166) 24864.4531 24864.4531
1234 7.7859 27138(165) 24846.0273 24846.0273
1235 7.7919 26617(162) 24827.5996 24827.5996
1236 7.7979 26448(162) 24809.1738 24809.1738
1237 7.8039 26086(161) 24790.7480 24790.7480
1238 7.8099 25463(159) 24772.3203 24772.3203
1239 7.8159 25259(159) 24753.8945 24753.8945
1240 7.8219 25162(158) 24735.4668 24735.4668
1241 7.8279 24742(157) 24717.0410 24717.0410
1242 7.8339 24727(157) 24698.6133 24698.6133
1243 7.8399 24518(156) 24680.1875 24680.1875
1244 7.8459 24243(156) 24661.7598 24661.7598
1245 7.8519 24220(155) 24643.3320 24643.3320
1246 7.8579 24114(154) 24624.9062 24624.9062
1247 7.8639 24063(154) 24606.4785 24606.4785
1248 7.8699 23775(154) 24588.0527 24588.0527
1249 7.8759 23961(154) 24569.6270 24569.6270
1250 7.8819 23715(153) 24551.1992 24551.1992
1251 7.8879 23511(153) 24532.7734 24532.7734
1252 7.8939 23679(153) 24514.3457 24514.3457
1253 7.8999 23507(153) 24495.9199 24495.9199
1254 7.9059 23351(153) 24477.4922 24477.4922
1255 7.9119 23270(152) 24459.0645 24459.0645
1256 7.9179 23443(153) 24440.6387 24440.6387
1257 7.9239 22980(151) 24422.2109 24422.2109
1258 7.9299 23256(153) 24403.7852 24403.7852
1259 7.9359 22797(151) 24385.3574 24385.3574
1260 7.9419 22595(150) 24366.9316 24366.9316
1261 7.9479 22680(151) 24348.5059 24348.5059
1262 7.9539 22639(150) 24330.0781 24330.0781
1263 7.9599 22668(151) 24311.6523 24311.6523
1264 7.9659 22329(150) 24293.2246 24293.2246
1265 7.9719 22428(150) 24274.7969 24274.7969
1266 7.9779 22525(150) 24256.3711 24256.3711
1267 7.9839 22224(149) 24237.9434 24237.9434
1268 7.9899 22319(149) 24219.5176 24219.5176
1269 7.9959 22192(149) 24201.0898 24201.0898
1270 8.0019 22202(149) 24182.6641 24182.6641
1271 8.0079 22176(149) 24164.2363 24164.2363
1272 8.0139 22111(149) 24145.8105 24145.8105
1273 8.0199 21922(149) 24127.3828 24127.3828
1274 8.0259 21997(148) 24108.9570 24108.9570
1275 8.0319 22083(148) 24090.5293 24090.5293
1276 8.0379 21851(148) 24072.1035 24072.1035
1277 8.0439 21876(148) 24053.6777 24053.6777
1278 8.0499 22074(149) 24035.2500 24035.2500
1279 8.0559 21869(148) 24012.9551 24012.9551
1280 8.0619 21663(148) 23983.9688 23983.9688
1281 8.0679 21867(148) 23954.9863 23954.9863
1282 8.0739 21840(148) 23926.0020 23926.0020
1283 8.0799 21807(148) 23897.0195 23897.0195
1284 8.0859 21753(147) 23868.0332 23868.0332
1285 8.0919 21719(147) 23839.0527 23839.0527
1286 8.0979 21481(147) 23810.0664 23810.0664
1287 8.1039 21609(147) 23781.0840 23781.0840
1288 8.1099 21617(147) 23752.0977 23752.0977
1289 8.1159 21336(146) 23723.1172 23723.1172
1290 8.1219 21220(146) 23694.1348 23694.1348
1291 8.1279 21564(147) 23665.1484 23665.1484
1292 8.1339 21503(147) 23636.1680 23636.1680
1293 8.1399 21377(146) 23607.1816 23607.1816
1294 8.1459 21669(148) 23578.1992 23578.1992
1295 8.1519 21522(147) 23549.2148 23549.2148
1296 8.1579 21792(148) 23520.2324 23520.2324
1297 8.1639 21768(147) 23491.2461 23491.2461
1298 8.1699 21799(148) 23462.2656 23462.2656
1299 8.1759 21885(148) 23433.2793 23433.2793
1300 8.1819 22079(149) 23404.2969 23404.2969
1301 8.1879 21851(148) 23375.3164 23375.3164
1302 8.1939 21624(147) 23346.3301 23346.3301
1303 8.1999 21674(147) 23317.3477 23317.3477
1304 8.2059 21539(147) 23288.3613 23288.3613
1305 8.2119 21486(147) 23259.3809 23259.3809
1306 8.2179 21554(147) 23230.3945 23230.3945
1307 8.2239 21650(147) 23201.4121 23201.4121
1308 8.2299 21674(147) 23172.4277 23172.4277
1309 8.2359 21669(148) 23143.4453 23143.4453
1310 8.2419 21794(147) 23114.4590 23114.4590
1311 8.2479 21690(148) 23085.4785 23085.4785
1312 8.2539 21861(148) 23056.4961 23056.4961
1313 8.2599 21800(147) 23027.5098 23027.5098
1314 8.2659 22075(149) 22998.5293 22998.5293
1315 8.2719 22147(149) 22969.5430 22969.5430
1316 8.2779 22141(149) 22940.5605 22940.5605
1317 8.2839 22194(149) 22911.5742 22911.5742
1318 8.2899 22086(149) 22882.5938 22882.5938
1319 8.2959 22064(148) 22853.6074 22853.6074
1320 8.3019 22293(150) 22824.6250 22824.6250
1321 8.3079 22239(149) 22795.6406 22795.6406
1322 8.3139 22380(150) 22766.6582 22766.6582
1323 8.3199 22392(150) 22737.6758 22737.6758
1324 8.3259 22487(150) 22708.6914 22708.6914
1325 8.3319 22624(150) 22679.7090 22679.7090
1326 8.3379 22718(150) 22650.7227 22650.7227
1327 8.3439 22753(151) 22621.7422 22621.7422
1328 8.3499 22873(151) 22592.7559 22592.7559
1329 8.3559 23153(153) 22563.7734 22563.7734
1330 8.3619 23280(154) 22534.7871 22534.7871
1331 8.3679 23284(153) 22505.8066 22505.8066
1332 8.3739 23418(153) 22476.8203 22476.8203
1333 8.3799 23617(154) 22447.8379 22447.8379
1334 8.3859 23817(154) 22418.8574 22418.8574
1335 8.3919 23930(155) 22389.8711 22389.8711
1336 8.3979 24133(156) 22360.8906 22360.8906
1337 8.4039 24295(157) 22331.9043 22331.9043
1338 8.4099 24588(157) 22302.9219 22302.9219
1339 8.4159 24862(158) 22273.9355 22273.9355
1340 8.4219 25037(159) 22244.9551 22244.9551
1341 8.4279 25264(159) 22215.9688 22215.9688
1342 8.4339 25486(160) 22186.9863 22186.9863
1343 8.4399 25617(161) 22158.0000 22158.0000
1344 8.4459 26031(162) 22129.0195 22129.0195
1345 8.4519 26219(162) 22100.0371 22100.0371
1346 8.4579 26671(164) 22071.0508 22071.0508
1347 8.4639 26848(164) 22042.0703 22042.0703
1348 8.4699 26958(164) 27824.1816 22013.0840
1349 8.4759 27432(166) 28004.4922 21984.1016
1350 8.4819 27716(167) 28196.2930 21955.1172
1351 8.4879 28250(168) 28400.3672 21926.1348
1352 8.4939 28586(170) 28617.7910 21897.1484
1353 8.4999 28851(170) 28849.4453 21868.1680
1354 8.5059 29335(172) 29096.6133 21839.1816
1355 8.5119 29782(173) 29360.4590 21810.1992
1356 8.5179 30499(175) 29642.3438 21781.2129
1357 8.5239 30972(177) 29943.7891 21752.2324
1358 8.5299 31550(178) 30266.3398 21723.2500
1359 8.5359 31986(180) 30612.0742 21694.2656
1360 8.5419 32556(181) 30982.8086 21665.2832
1361 8.5479 33562(184) 31381.0859 21636.2969
1362 8.5539 34165(186) 31809.3535 21607.3164
1363 8.5599 34945(188) 32270.4590 21578.3301
1364 8.5659 35709(189) 32767.6270 21549.3477
1365 8.5719 36566(192) 33304.4609 21520.3613
1366 8.5779 37654(195) 33884.8438 21491.3809
1367 8.5839 38560(197) 34513.7500 21462.3945
1368 8.5899 39571(200) 35196.0156 21433.4121
1369 8.5959 40918(204) 35938.0273 21404.4316
1370 8.6019 41889(206) 36746.3672 21375.4453
1371 8.6079 43179(208) 37628.8281 21346.4629
1372 8.6139 44594(212) 38594.3750 21317.4766
1373 8.6199 46420(217) 39653.0117 21288.4961
1374 8.6259 47826(219) 40817.4102 21259.5098
1375 8.6319 49732(225) 42100.8125 21230.5273
1376 8.6379 51519(228) 43520.3984 21201.5430
1377 8.6439 53435(231) 45095.0312 21172.5605
1378 8.6499 55872(238) 46847.4414 21143.5742
1379 8.6559 58357(242) 48804.6953 21114.5938
1380 8.6619 61030(248) 50998.3516 21085.6113
1381 8.6679 63746(254) 53468.7188 21056.6250
1382 8.6739 68267(263) 56261.2969 21027.6445
1383 8.6799 71333(268) 59435.3125 20998.6582
1384 8.6859 75839(276) 63060.5898 20969.6758
1385 8.6919 81102(286) 67224.6328 20940.6914
1386 8.6979 84882(293) 72036.8906 20911.7090
1387 8.7039 91061(303) 77635.4297 20882.7227
1388 8.7099 99385(318) 84194.0625 20853.7422
1389 8.7159 106744(330) 91943.6172 20824.7559
1390 8.7219 115627(342) 101174.5469 20795.7734
1391 8.7279 126912(359) 112282.4531 20766.7930
1392 8.7339 142178(379) 125785.5078 20737.8066
1393 8.7399 156527(397) 142388.8281 20708.8242
1394 8.7459 184383(432) 163454.6875 20679.8379
1395 8.7519 207593(458) 189541.0312 20650.8574
1396 8.7579 237994(491) 222929.8281 20621.8711
1397 8.7639 282134(534) 266253.2500 20592.8887
1398 8.7699 343348(589) 323255.4062 20563.9023
1399 8.7759 404953(640) 398965.8750 20534.9219
1400 8.7819 487357(702) 499622.2500 20505.9355
1401 8.7879 628554(796) 631027.0000 20476.9531
1402 8.7939 711000(846) 792792.9375 20447.9727
1403 8.7999 810506(908) 965854.3750 20418.9863
1404 8.8059 902678(954) 1099204.2500 20390.0059
1405 8.8119 922290(968) 1128522.8750 20361.0195
1406 8.8179 892570(951) 1036467.3125 20332.0371
1407 8.8239 776266(886) 873495.3750 20303.0508
1408 8.8299 681161(829) 702341.4375 20274.0703
1409 8.8359 577360(763) 556112.8750 20245.0840
1410 8.8419 464026(684) 441866.3750 20216.1016
1411 8.8479 372572(613) 355465.3438 20187.1172
1412 8.8539 313581(563) 290563.8125 20158.1348
1413 8.8599 264439(516) 241461.1250 20129.1484
1414 8.8659 212448(463) 203875.5781 20100.1680
1415 8.8719 189563(438) 174700.6875 20071.1855
1416 8.8779 163441(407) 151729.9219 20042.1992
1417 8.8839 143452(381) 133400.6562 20013.2188
1418 8.8899 130250(363) 118578.4141 19984.2324
1419 8.8959 118623(346) 106459.4062 19955.2500
1420 8.9019 104859(327) 96438.8906 19926.2637
1421 8.9079 98973(317) 88077.1875 19897.2832
1422 8.9139 91809(305) 81040.1250 19868.2969
1423 8.9199 84864(294) 75073.0859 19839.3164
1424 8.9259 79070(283) 69980.1172 19810.3281
1425 8.9319 75001(276) 65610.0781 19781.3477
1426 8.9379 69092(265) 61841.8320 19752.3672
1427 8.9439 65904(259) 58580.1211 19723.3789
1428 8.9499 63088(253) 55751.4844 19694.3984
1429 8.9559 59730(246) 53296.7422 19665.4121
1430 8.9619 56913(241) 51168.9141 19636.4297
1431 8.9679 55074(236) 49331.5703 19607.4453
1432 8.9739 52945(231) 47757.3477 19578.4629
1433 8.9799 50630(227) 46424.9648 19549.4766
1434 8.9859 49513(224) 45322.6680 19520.4961
1435 8.9919 48261(221) 44443.8672 19491.5098
1436 8.9979 46677(218) 43790.9727 19462.5273
1437 9.0039 46109(216) 43375.0859 19433.5469
1438 9.0099 45528(214) 43218.3164 19404.5605
1439 9.0159 45160(215) 43356.5938 19375.5781
1440 9.0219 45507(215) 43844.0625 19346.5938
1441 9.0279 45999(216) 44762.2031 19317.6113
1442 9.0339 47285(219) 46228.3633 19288.6250
1443 9.0399 49426(224) 48411.7148 19259.6445
1444 9.0459 52139(231) 51555.5156 19230.6582
1445 9.0519 56709(240) 55988.5508 19201.6758
1446 9.0579 66058(259) 62130.1641 19172.6895
1447 9.0639 72675(272) 70381.4922 19143.7090
1448 9.0699 84149(292) 80804.0547 19114.7266
1449 9.0759 96223(313) 92163.4922 19085.7422
1450 9.0819 104487(325) 101182.0938 19056.7598
1451 9.0879 108680(332) 103418.1484 19027.7734
1452 9.0939 103866(324) 97315.4375 18998.7930
1453 9.0999 97111(314) 86047.4531 18969.8047
1454 9.1059 86797(296) 73970.4688 18940.8242
1455 9.1119 73280(273) 63512.4453 18911.8379
1456 9.1179 62021(252) 55249.5820 18882.8555
1457 9.1239 54257(234) 48934.3008 18853.8711
1458 9.1299 47281(219) 44131.9062 18824.8887
1459 9.1359 41675(206) 40447.2422 18795.9082
1460 9.1419 38797(198) 37578.4766 18766.9219
1461 9.1479 35732(191) 35308.7266 18737.9395
1462 9.1539 33367(184) 33482.5781 18708.9531
1463 9.1599 31857(180) 26479.9473 18679.9727
1464 9.1659 30104(175) 25424.4961 18650.9863
1465 9.1719 28769(171) 24556.7871 18622.0039
1466 9.1779 28057(169) 23834.5938 18593.0195
1467 9.1839 27104(166) 23227.3965 18564.0371
1468 9.1899 26016(162) 22711.5020 18535.0508
1469 9.1959 25457(161) 22269.3516 18506.0703
1470 9.2019 24859(159) 21887.2363 18477.0879
1471 9.2079 24168(157) 21554.4844 18448.1016
1472 9.2139 23843(156) 21262.7852 18419.1211
1473 9.2199 23551(155) 21005.2891 18390.1348
1474 9.2259 23055(154) 20776.8223 18361.1523
1475 9.2319 22555(152) 20572.9453 18332.1680
1476 9.2379 22346(151) 20390.2441 18303.1855
1477 9.2439 21930(149) 20225.8711 18274.1992
1478 9.2499 21835(149) 20077.5195 18245.2188
1479 9.2559 21730(149) 19943.2852 18216.2305
1480 9.2619 21278(147) 19821.6699 18187.2500
1481 9.2679 21054(146) 19711.3652 18158.2637
1482 9.2739 20781(146) 19611.4551 18129.2832
1483 9.2799 20689(145) 19521.1250 18100.3008
1484 9.2859 20362(145) 19439.8652 18071.3145
1485 9.2919 20209(144) 19367.3398 18042.3340
1486 9.2979 20138(143) 19303.4277 18013.3477
1487 9.3039 20066(143) 19248.2383 17984.3652
1488 9.3099 19673(142) 19202.0938 17955.3789
1489 9.3159 19735(142) 19165.6855 17926.3984
1490 9.3219 19787(142) 19139.9961 17897.4121
1491 9.3279 19434(141) 19126.5566 17868.4297
1492 9.3339 19445(140) 19127.5098 17839.4453
1493 9.3399 19356(141) 19145.8516 17810.4629
1494 9.3459 19387(141) 19185.8379 17781.4805
1495 9.3519 19128(140) 19253.4414 17752.4961
1496 9.3579 19131(140) 19357.0586 17723.5137
1497 9.3639 19309(141) 19508.5820 17694.5273
1498 9.3699 19409(141) 19724.9004 17665.5469
1499 9.3759 19547(142) 20029.4766 17636.5605
1500 9.3819 19535(141) 20453.2031 17607.5781
1501 9.3879 19899(143) 21032.0098 17578.5938
1502 9.3939 20655(146) 21789.6758 17549.6113
1503 9.3999 22268(151) 22692.9141 17520.6250
1504 9.4059 24633(159) 23567.0273 17491.6445
1505 9.4119 25985(164) 24068.0469 17462.6621
1506 9.4179 26492(165) 23900.3281 17433.6758
1507 9.4239 24653(158) 23136.9531 17404.6953
1508 9.4299 22883(153) 22131.4668 17375.7090
1509 9.4359 21061(147) 20801.6406 17346.7266
1510 9.4419 19751(142) 20028.5391 17317.7402
1511 9.4479 19342(141) 19428.3125 17288.7598
1512 9.4539 19142(140) 18969.4062 17259.7734
1513 9.4599 18577(138) 18616.8027 17230.7910
1514 9.4659 18305(137) 18341.9141 17201.8047
1515 9.4719 18329(137) 18123.6602 17172.8242
1516 9.4779 18214(136) 17946.8418 17143.8418
1517 9.4839 18144(136) 17800.7012 17114.8555
1518 9.4899 18021(136) 17677.6543 17085.8750
1519 9.4959 17744(135) 17572.1855 17056.8887
1520 9.5019 17733(135) 17480.2988 17027.9062
1521 9.5079 17650(134) 17399.0234 16998.9219
1522 9.5139 17573(134) 17326.1680 16969.9395
1523 9.5199 17504(134) 17260.0195 16940.9531
1524 9.5259 17600(135) 17199.3262 16911.9727
1525 9.5319 17405(134) 17143.0586 16882.9863
1526 9.5379 17355(133) 17090.4570 16854.0039
1527 9.5439 17342(133) 17040.9004 16825.0234
1528 9.5499 17101(132) 16993.8828 16796.0371
1529 9.5559 17265(133) 16949.0215 16767.0547
1530 9.5619 16787(131) 16905.9766 16738.0703
1531 9.5679 17058(132) 16864.4922 16709.0879
1532 9.5739 17167(133) 16824.3359 16680.1016
1533 9.5799 17052(132) 16785.3398 16651.1211
1534 9.5859 17028(132) 16747.3398 16622.1348
1535 9.5919 16774(131) 16710.2168 16593.1523
1536 9.5979 16957(132) 16673.8535 16564.1660
1537 9.6039 16792(131) 16638.1719 16535.1855
1538 9.6099 16756(131) 16603.0742 16506.1992
1539 9.6159 16740(131) 16568.5078 16477.2168
1540 9.6219 16675(130) 16534.4082 16448.2363
1541 9.6279 16529(130) 16500.7207 16419.2500
1542 9.6339 16649(131) 16467.4102 16390.2676
1543 9.6399 16459(130) 16434.4316 16361.2822
1544 9.6459 16404(130) 16401.7578 16332.3008
1545 9.6519 16333(130) 16369.3506 16303.3145
1546 9.6579 16298(129) 16337.1953 16274.3330
1547 9.6639 16424(130) 16305.2578 16245.3477
1548 9.6699 16215(129) 16273.5254 16216.3652
1549 9.6759 16377(130) 16241.9746 16187.3789
1550 9.6819 16354(129) 16210.5967 16158.3984
1551 9.6879 16193(129) 16179.3730 16129.4160
1552 9.6939 16291(129) 16148.2842 16100.4297
1553 9.6999 16173(129) 16117.3330 16071.4492
1554 9.7059 16101(129) 16086.4932 16042.4629
1555 9.7119 16111(129) 16055.7676 16013.4805
1556 9.7179 15864(128) 16025.1406 15984.4951
1557 9.7239 15908(128) 15994.6113 15955.5137
1558 9.7299 15989(128) 15964.1631 15926.5273
1559 9.7359 15796(127) 15933.8008 15897.5459
1560 9.7419 15751(127) 15903.5088 15868.5605
1561 9.7479 15675(127) 15897.5244 15839.5781
1562 9.7539 15578(126) 15868.2383 15810.5967
1563 9.7599 15603(127) 15807.6309 15781.6104
1564 9.7659 15598(127) 15779.6162 15752.6289
1565 9.7719 15455(126) 15751.6523 15723.6436
1566 9.7779 15535(126) 15723.7520 15694.6621
1567 9.7839 15536(126) 15695.9102 15665.6758
1568 9.7899 15568(126) 15668.1416 15636.6943
1569 9.7959 15414(126) 15640.4434 15607.7080
1570 9.8019 15491(126) 15612.8301 15578.7266
1571 9.8079 15502(126) 15585.2988 15549.7402
1572 9.8139 15155(125) 15557.8682 15520.7588
1573 9.8199 15381(126) 15530.5400 15491.7773
1574 9.8259 15362(126) 15503.3203 15462.7910
1575 9.8319 15207(125) 15476.2285 15433.8096
1576 9.8379 15288(125) 15449.2666 15404.8232
1577 9.8439 15347(126) 15422.4580 15375.8418
1578 9.8499 15161(125) 15395.8086 15346.8564
1579 9.8559 15221(125) 15369.3408 15317.8750
1580 9.8619 15134(125) 15343.0674 15288.8887
1581 9.8679 15168(125) 15317.0176 15259.9072
1582 9.8739 15366(126) 15291.2061 15230.9209
1583 9.8799 15418(126) 15265.6719 15201.9395
1584 9.8859 15229(125) 15240.4404 15172.9580
1585 9.8919 15110(124) 15215.5420 15143.9717
1586 9.8979 15119(125) 15195.1797 15119.1406
1587 9.9039 15172(125) 16132.8906 15094.3057
1588 9.9099 15249(125) 16147.9395 15069.4746
1589 9.9159 15302(125) 16165.4453 15044.6406
1590 9.9219 15347(126) 16185.6084 15019.8096
1591 9.9279 15362(126) 16208.6904 14994.9746
1592 9.9339 15653(127) 16234.9678 14970.1436
1593 9.9399 15326(125) 16264.7471 14945.3086
1594 9.9459 15277(125) 16298.3926 14920.4775
1595 9.9519 15483(126) 16336.3027 14895.6475
1596 9.9579 15627(127) 16378.9844 14870.8125
1597 9.9639 15625(126) 16426.9668 14845.9814
1598 9.9699 15574(126) 16480.9316 14821.1465
1599 9.9759 15605(127) 16541.6406 14796.3154
1600 9.9819 15811(128) 16610.0117 14771.4805
1601 9.9879 15563(126) 16687.1602 14746.6494
1602 9.9939 15754(127) 16774.4551 14721.8154
1603 9.9999 15915(128) 16873.5430 14696.9844
1604 10.0059 16054(128) 16986.6094 14672.1494
1605 10.0119 16203(129) 17116.2930 14647.3184
1606 10.0179 16240(129) 17266.1387 14622.4834
1607 10.0239 16399(130) 17440.7207 14597.6523
1608 10.0299 16594(131) 17646.1465 14572.8223
1609 10.0359 16739(131) 17890.8223 14547.9873
1610 10.0419 17126(133) 18186.0840 14523.1562
1611 10.0479 17458(134) 18547.8906 14498.3213
1612 10.0539 17521(135) 18997.4238 14473.4902
1613 10.0599 18079(136) 19561.8633 14448.6553
1614 10.0659 18851(140) 20269.6426 14423.8242
1615 10.0719 19630(142) 21132.7695 14398.9902
1616 10.0779 21048(148) 22101.5391 14374.1592
1617 10.0839 22522(152) 23003.3770 14349.3242
1618 10.0899 24376(159) 24831.6055 14324.4932
1619 10.0959 25315(162) 24958.2324 14299.6621
1620 10.1019 25021(160) 24761.1562 14274.8271
1621 10.1079 24238(158) 24523.6719 14249.9961
1622 10.1139 23273(155) 24432.2949 14225.1621
1623 10.1199 22931(153) 24551.6699 14200.3311
1624 10.1259 22829(153) 24886.8711 14175.4961
1625 10.1319 23328(155) 25430.1211 14150.6650
1626 10.1379 23753(156) 26179.8047 14125.8301
1627 10.1439 24248(158) 27145.2773 14100.9990
1628 10.1499 25292(161) 28350.9102 14076.1641
1629 10.1559 26477(165) 29835.5488 14051.3340
1630 10.1619 27480(168) 31657.1211 14026.5029
1631 10.1679 29580(175) 33897.2734 14001.6680
1632 10.1739 31932(181) 36668.8867 13976.8369
1633 10.1799 36211(193) 40132.0156 13952.0020
1634 10.1859 40827(204) 44505.9023 13927.1719
1635 10.1919 47322(220) 50105.2148 13902.3369
1636 10.1979 56243(240) 57368.8906 13877.5059
1637 10.2039 67944(264) 66913.2500 13852.6709
1638 10.2099 87270(298) 79572.5312 13827.8398
1639 10.2159 115411(344) 96373.3984 13803.0049
1640 10.2219 142153(381) 118246.1953 13778.1738
1641 10.2279 177635(427) 145081.4844 13753.3438
1642 10.2339 206325(461) 173612.0312 13728.5088
1643 10.2399 226737(483) 195334.1406 13703.6777
1644 10.2459 231329(488) 199768.9844 13678.8428
1645 10.2519 207023(461) 184432.3281 13654.0117
1646 10.2579 184907(435) 157801.4531 13629.1768
1647 10.2639 146918(388) 130084.6719 13604.3457
1648 10.2699 117913(348) 106552.3281 13579.5117
1649 10.2759 94216(311) 88302.5625 13554.6807
1650 10.2819 75482(279) 74643.8672 13529.8457
1651 10.2879 63170(254) 64540.6602 13505.0146
1652 10.2939 53367(233) 57079.8594 13480.1836
1653 10.2999 48055(221) 51571.9492 13455.3486
1654 10.3059 43273(211) 47526.6719 13430.5176
1655 10.3119 40788(205) 44599.0352 13405.6836
1656 10.3179 38795(199) 42557.2344 13380.8525
1657 10.3239 37706(197) 41243.7344 13356.0176
1658 10.3299 37179(196) 40560.0469 13331.1865
1659 10.3359 37408(196) 40452.9570 13306.3516
1660 10.3419 37941(197) 40905.7852 13281.5205
1661 10.3479 39265(201) 41937.5312 13256.6855
1662 10.3539 40921(206) 43604.5078 13231.8555
1663 10.3599 43848(212) 46005.1914 13207.0205
1664 10.3659 47075(220) 49292.3984 13182.1895
1665 10.3719 53031(233) 53693.0859 13157.3584
1666 10.3779 59148(245) 59537.7031 13132.5234
1667 10.3839 67920(261) 67295.8828 13107.6934
1668 10.3899 80391(285) 77638.2969 13082.8574
1669 10.3959 96292(313) 91500.5000 13058.0273
1670 10.4019 115697(344) 110118.3047 13033.1924
1671 10.4079 150844(390) 134891.5000 13008.3613
1672 10.4139 182127(429) 166757.3438 12983.5264
1673 10.4199 217763(468) 204244.5938 12958.6953
1674 10.4259 253161(508) 240265.4375 12933.8613
1675 10.4319 274304(527) 261073.8750 12909.0303
1676 10.4379 274775(529) 255208.0625 12884.1992
1677 10.4439 254194(508) 226032.8594 12859.3643
1678 10.4499 212163(461) 187650.1406 12834.5332
1679 10.4559 173461(416) 151497.1250 12809.6982
1680 10.4619 132859(367) 122027.9688 12784.8672
1681 10.4679 105103(326) 99384.8359 12760.0332
1682 10.4739 83765(290) 82315.7812 12735.2021
1683 10.4799 68302(263) 69437.0469 12710.3672
1684 10.4859 54774(235) 59623.4141 12685.5361
1685 10.4919 46590(216) 52043.0078 12660.7012
1686 10.4979 40641(203) 46102.6680 12635.8701
1687 10.5039 36069(191) 41377.6562 12611.0391
1688 10.5099 32808(182) 37565.9688 12586.2051
1689 10.5159 29844(174) 34452.2500 12561.3740
1690 10.5219 27715(168) 31878.2695 12536.5391
1691 10.5279 25597(161) 29727.1250 12511.7080
1692 10.5339 24341(156) 27911.2461 12486.8730
1693 10.5399 22880(152) 26364.7188 12462.0430
1694 10.5459 22085(150) 25035.6133 12437.2070
1695 10.5519 20987(146) 23885.2070 12412.3770
1696 10.5579 20314(144) 22881.7305 12387.5420
1697 10.5639 19514(141) 22000.9258 12362.7109
1698 10.5699 19096(138) 21223.0664 12337.8799
1699 10.5759 18469(137) 20532.1875 12313.0449
1700 10.5819 18219(136) 19915.5137 12288.2148
1701 10.5879 18053(136) 19362.0078 12263.3799
1702 10.5939 17557(133) 17957.0195 12238.5488
1703 10.5999 17124(132) 17535.4785 12213.7139
1704 10.6059 16861(130) 17153.5703 12188.8828
1705 10.6119 17092(132) 16806.2109 12164.0479
1706 10.6179 16768(131) 16489.1152 12139.2168
1707 10.6239 16478(129) 16198.6279 12114.3828
1708 10.6299 16331(129) 15931.7090 12089.5518
1709 10.6359 16258(128) 15685.5918 12064.7207
1710 10.6419 15949(127) 15457.9062 12039.8857
1711 10.6479 15811(126) 15246.7324 12015.0547
1712 10.6539 15557(125) 15050.3291 11990.2197
1713 10.6599 15699(126) 14867.1855 11965.3887
1714 10.6659 15365(125) 14695.9707 11940.5547
1715 10.6719 15492(126) 14535.5645 11915.7236
1716 10.6779 15271(125) 14384.8496 11890.8887
1717 10.6839 15086(123) 14243.0059 11866.0576
1718 10.6899 14971(123) 14109.1455 11841.2227
1719 10.6959 14915(123) 13982.6016 11816.3916
1720 10.7019 14706(122) 13862.7305 11791.5605
1721 10.7079 14721(122) 13748.9609 11766.7266
1722 10.7139 14968(124) 13640.8135 11741.8955
1723 10.7199 14623(121) 13537.7695 11717.0605
1724 10.7259 14751(122) 13439.4756 11692.2295
1725 10.7319 14424(120) 13345.5049 11667.3945
1726 10.7379 14374(120) 13255.5537 11642.5645
1727 10.7439 14565(121) 13169.3076 11617.7285
1728 10.7499 14379(120) 13086.5020 11592.8984
1729 10.7559 14324(120) 13512.5527 11568.0635
1730 10.7619 14284(120) 13453.9326 11543.2324
1731 10.7679 14370(120) 13399.0254 11518.3975
1732 10.7739 14268(120) 13347.7393 11493.5664
1733 10.7799 14360(120) 12052.7334 11468.7363
1734 10.7859 14160(120) 12050.3203 11443.9014
1735 10.7919 14253(120) 12049.2256 11419.0703
1736 10.7979 14178(119) 12049.5449 11394.2354
1737 10.8039 14290(120) 12051.3916 11369.4043
1738 10.8099 14151(119) 12054.9033 11344.5693
1739 10.8159 14242(120) 12060.2090 11319.7383
1740 10.8219 14149(119) 12067.4766 11294.9043
1741 10.8279 14151(120) 12076.8740 11270.0732
1742 10.8339 14138(119) 12088.5869 11245.2383
1743 10.8399 14120(119) 12102.8379 11220.4072
1744 10.8459 14222(120) 12216.6338 11292.3643
1745 10.8519 14209(120) 12333.4941 11364.3330
1746 10.8579 14278(119) 12453.6670 11436.2900
1747 10.8639 14338(120) 12577.5439 11508.2588
1748 10.8699 14481(121) 12705.4697 11580.2158
1749 10.8759 14247(119) 12837.9014 11652.1846
1750 10.8819 14407(120) 12975.3057 11724.1416
1751 10.8879 14345(120) 13118.2676 11796.1104
1752 10.8939 14390(119) 13267.3809 11868.0674
1753 10.8999 14513(121) 13423.4512 11940.0352
1754 10.9059 14539(121) 13587.2549 12011.9932
1755 10.9119 14589(121) 13759.8408 12083.9502
1756 10.9179 14752(122) 13942.3330 12155.9180
1757 10.9239 14722(121) 14136.0439 12227.8760
1758 10.9299 14813(122) 14342.5566 12299.8438
1759 10.9359 15035(123) 14563.6396 12371.8008
1760 10.9419 15173(124) 14801.5938 12443.7695
1761 10.9479 15280(123) 15058.8896 12515.7266
1762 10.9539 15208(123) 15338.7852 12587.6953
1763 10.9599 15716(126) 15644.9629 12659.6523
1764 10.9659 15760(126) 15982.0186 12731.6211
1765 10.9719 15929(126) 16355.5254 12803.5781
1766 10.9779 16217(128) 16772.2812 12875.5352
1767 10.9839 16775(129) 17241.1035 12947.5039
1768 10.9899 16891(130) 17772.4902 13019.4609
1769 10.9959 17205(131) 18380.4180 13091.4297
1770 11.0019 17753(133) 19082.2305 13163.3867
1771 11.0079 18433(135) 19900.6172 13235.3555
1772 11.0139 19051(138) 20865.2461 13307.3125
1773 11.0199 20004(142) 22015.5430 13379.2812
1774 11.0259 21147(146) 23403.9609 13451.2383
1775 11.0319 22939(152) 25103.4473 13523.2070
1776 11.0379 24394(156) 27212.3086 13595.1641
1777 11.0439 26691(164) 29870.5586 13667.1211
1778 11.0499 30465(175) 33272.7578 13739.0898
1779 11.0559 35108(188) 37693.3906 13811.0469
1780 11.0619 42416(206) 43512.5234 13883.0156
1781 11.0679 56160(237) 51226.3320 13954.9727
1782 11.0739 67082(258) 61402.5703 14026.9414
1783 11.0799 84880(292) 74388.1562 14098.8984
1784 11.0859 107298(325) 89564.0547 14170.8662
1785 11.0919 129485(359) 104002.9688 14242.8232
1786 11.0979 146178(382) 112184.0625 14314.7920
1787 11.1039 144580(380) 109674.5547 14386.7490
1788 11.1099 135121(364) 97992.2656 14458.7178
1789 11.1159 110924(332) 82804.8672 14530.6748
1790 11.1219 85675(290) 68593.7656 14602.6318
1791 11.1279 64689(253) 57052.4258 14674.6006
1792 11.1339 49292(221) 48221.7617 14746.5576
1793 11.1399 38421(196) 41593.4492 14818.5264
1794 11.1459 31322(176) 36618.3672 14890.4834
1795 11.1519 27660(166) 32851.8086 14962.4521
1796 11.1579 24688(157) 29966.3086 15034.4092
1797 11.1639 22620(150) 27725.3906 15106.3779
1798 11.1699 20945(144) 25963.9883 15178.3350
1799 11.1759 19834(140) 24568.0234 15250.3037
1800 11.1819 18654(136) 23440.9922 15322.2598
1801 11.1879 18168(134) 22526.1543 15394.2178
1802 11.1939 17663(132) 21777.3984 15466.1855
1803 11.1999 17320(131) 21160.3809 15538.1426
1804 11.2059 17065(131) 20648.5137 15610.1113
1805 11.2119 16806(130) 20222.0742 15682.0684
1806 11.2179 16518(128) 19865.1777 15754.0371
1807 11.2239 16271(127) 19565.7383 15825.9941
1808 11.2299 16173(127) 19314.0840 15897.9629
1809 11.2359 16006(126) 19102.4355 15969.9199
1810 11.2419 15825(125) 18924.5605 16041.8887
1811 11.2479 15777(125) 18775.4062 16113.8457
1812 11.2539 15686(125) 18650.7363 16185.8027
1813 11.2599 15523(124) 18547.0645 16257.7715
1814 11.2659 15564(125) 18461.5703 16329.7285
1815 11.2719 15488(124) 18391.8848 16401.6973
1816 11.2779 15316(124) 18335.9707 16473.6543
1817 11.2839 15256(123) 18292.1504 16545.6230
1818 11.2899 15358(124) 18258.9863 16617.5801
1819 11.2959 15248(123) 18235.1973 16689.5488
1820 11.3019 15192(123) 18219.7676 16761.5059
1821 11.3079 15329(123) 18155.6914 16777.4160
1822 11.3139 15192(123) 18250.2305 16793.3242
1823 11.3199 15194(123) 18204.2227 16809.2324
1824 11.3259 15319(124) 18163.8867 16825.1426
1825 11.3319 15397(123) 18128.7383 16841.0508
1826 11.3379 15531(124) 18098.3223 16856.9609
1827 11.3439 15338(124) 18072.3008 16872.8691
1828 11.3499 15529(124) 18050.3379 16888.7793
1829 11.3559 15286(123) 18032.1738 16904.6875
1830 11.3619 15436(124) 18017.5898 16920.5977
1831 11.3679 15625(125) 18006.3984 16936.5039
1832 11.3739 15563(125) 17998.4609 16952.4160
1833 11.3799 15628(125) 17993.6621 16968.3223
1834 11.3859 15685(125) 17991.9238 16984.2305
1835 11.3919 15719(125) 17993.2051 17000.1406
1836 11.3979 15711(125) 17997.5078 17016.0488
1837 11.4039 15777(126) 18004.8789 17031.9590
1838 11.4099 16021(126) 18015.4004 17047.8672
1839 11.4159 16034(127) 18029.2246 17063.7773
1840 11.4219 16085(127) 18046.5566 17079.6855
1841 11.4279 16251(128) 18067.7012 17095.5957
1842 11.4339 16163(127) 18093.0508 17111.5039
1843 11.4399 16347(128) 18123.1641 17127.4141
1844 11.4459 16459(128) 17661.0996 17143.3223
1845 11.4519 16384(128) 17719.9141 17159.2305
1846 11.4579 16609(129) 17785.7441 17175.1406
1847 11.4639 16915(130) 17860.4883 17191.0488
1848 11.4699 16823(129) 17946.8184 17206.9590
1849 11.4759 17038(131) 18320.4473 17222.8652
1850 11.4819 17185(131) 18451.7227 17238.7773
1851 11.4879 17310(131) 18610.0039 17254.6836
1852 11.4939 17558(133) 18802.3926 17270.5938
1853 11.4999 17973(134) 19033.1816 17286.5020
1854 11.5059 18118(135) 19294.3555 17302.4121
1855 11.5119 18822(137) 19550.2363 17318.3203
1856 11.5179 19407(139) 19737.1699 17334.2305
1857 11.5239 19868(141) 19809.7480 17350.1387
1858 11.5299 19649(140) 19793.5996 17366.0469
1859 11.5359 19661(140) 19757.3398 17381.9570
1860 11.5419 19568(140) 19752.9258 17397.8652
1861 11.5479 19530(140) 19801.3457 17413.7754
1862 11.5539 19579(140) 19906.6699 17429.6836
1863 11.5599 19949(141) 20068.8340 17445.5938
1864 11.5659 20229(142) 20289.1738 17461.5020
1865 11.5719 20576(144) 20572.9043 17477.4121
1866 11.5779 21123(145) 20929.7500 17493.3203
1867 11.5839 21748(148) 21375.2480 17509.2305
1868 11.5899 22523(150) 21932.3594 17525.1387
1869 11.5959 23367(152) 22633.9277 17541.0449
1870 11.6019 24642(157) 23527.5527 17556.9570
1871 11.6079 26450(163) 24679.6465 17572.8633
1872 11.6139 28621(169) 26185.1250 17588.7734
1873 11.6199 31164(177) 28172.0703 17604.6816
1874 11.6259 34989(187) 30800.9648 17620.5918
1875 11.6319 40164(199) 34226.5156 17636.5000
1876 11.6379 46768(216) 38461.0742 17652.4102
1877 11.6439 52311(228) 43057.9297 17668.3184
1878 11.6499 56844(238) 46763.3867 17684.2285
1879 11.6559 58256(241) 47882.3594 17700.1367
1880 11.6619 55969(237) 45815.9609 17716.0449
1881 11.6679 51125(226) 41767.2500 17731.9551
1882 11.6739 44986(211) 37400.7578 17747.8633
1883 11.6799 39383(198) 33652.8711 17763.7734
1884 11.6859 34531(185) 30752.6758 17779.6816
1885 11.6919 31545(178) 28609.6914 17795.5918
1886 11.6979 29842(173) 27063.4258 17811.5000
1887 11.7039 28500(169) 25967.0801 17827.4102
1888 11.7099 27553(165) 25211.4805 17843.3164
1889 11.7159 26882(164) 24719.9727 17859.2285
1890 11.7219 26916(164) 24441.7051 17875.1348
1891 11.7279 26969(164) 24345.8047 17891.0430
1892 11.7339 27116(165) 24416.3496 17906.9531
1893 11.7399 27351(165) 24650.6797 17922.8613
1894 11.7459 27863(167) 25058.0293 17938.7715
1895 11.7519 28536(169) 25661.0820 17954.6797
1896 11.7579 29465(171) 26498.2031 17970.5898
1897 11.7639 30992(176) 27627.8359 17986.4980
1898 11.7699 32818(181) 29137.6953 18002.4082
1899 11.7759 34790(187) 31152.4102 18018.3164
1900 11.7819 38083(195) 33851.4141 18034.2266
1901 11.7879 42370(205) 37476.7266 18050.1348
1902 11.7939 48341(220) 42326.7344 18066.0430
1903 11.7999 56836(238) 48671.1641 18081.9531
1904 11.8059 64824(254) 56461.6094 18097.8613
1905 11.8119 73049(270) 64720.0938 18113.7715
1906 11.8179 80573(284) 70934.6875 18129.6797
1907 11.8239 84556(290) 72057.9375 18145.5898
1908 11.8299 82050(286) 67408.3750 18161.4961
1909 11.8359 75086(274) 59488.5703 18177.4082
1910 11.8419 64911(254) 51267.4141 18193.3145
1911 11.8479 56408(237) 44272.9609 18209.2266
1912 11.8539 48309(220) 38813.8789 18225.1328
1913 11.8599 42018(205) 34683.8906 18241.0430
1914 11.8659 36591(191) 31573.0918 18256.9512
1915 11.8719 33312(182) 29221.7266 18272.8594
1916 11.8779 30547(175) 27420.2734 18288.7695
1917 11.8839 28621(169) 26020.9805 18304.6777
1918 11.8899 27439(166) 24919.4766 18320.5879
1919 11.8959 26132(162) 24039.9258 18336.4961
1920 11.9019 25347(159) 23328.8145 18352.4062
1921 11.9079 24474(157) 22747.6953 18368.3145
1922 11.9139 24070(155) 22267.5840 18384.2246
1923 11.9199 23393(153) 21867.3633 18400.1328
1924 11.9259 23072(152) 21530.9395 18416.0430
1925 11.9319 22741(151) 21246.0137 18431.9512
1926 11.9379 22577(150) 21003.1523 18447.8594
1927 11.9439 22130(149) 20794.7637 18463.7695
1928 11.9499 22018(149) 20615.1133 18479.6758
1929 11.9559 21644(147) 20459.3965 18495.5859
1930 11.9619 21630(147) 20323.9043 18511.4941
1931 11.9679 21646(147) 20205.5762 18527.4043
1932 11.9739 21546(147) 20101.9004 18543.3125
1933 11.9799 21204(145) 20010.8184 18559.2227
1934 11.9859 21157(146) 19930.6367 18575.1309
1935 11.9919 21040(145) 19859.8711 18591.0410
1936 11.9979 21033(145) 19797.3672 18606.9492
1937 12.0039 20928(144) 19597.1465 18622.8574
1938 12.0099 20687(144) 19553.0312 18638.7676
1939 12.0159 20585(143) 19514.2949 18654.6758
1940 12.0219 20514(143) 19480.3262 18670.5859
1941 12.0279 20532(143) 19450.5996 18686.4941
1942 12.0339 20496(143) 19424.6328 18702.4043
1943 12.0399 20559(143) 19402.0469 18718.3125
1944 12.0459 20521(144) 19382.4785 18734.2227
1945 12.0519 20326(142) 19365.6328 18750.1309
1946 12.0579 20352(143) 19351.2461 18766.0410
1947 12.0639 20170(142) 19339.0840 18781.9492
1948 12.0699 20381(143) 19328.9473 18797.8555
1949 12.0759 20202(142) 19320.6465 18813.7656
1950 12.0819 20285(142) 19314.0293 18829.6738
1951 12.0879 20153(142) 19308.9453 18845.5840
1952 12.0939 20112(142) 19305.2754 18861.4922
1953 12.0999 20143(142) 19302.9121 18877.4023
1954 12.1059 20079(142) 19301.7559 18893.3105
1955 12.1119 20105(142) 19301.7266 18909.2207
1956 12.1179 20203(143) 19302.7539 18925.1289
1957 12.1239 20038(142) 19304.7695 18941.0391
1958 12.1299 20159(141) 19307.7285 18956.9473
1959 12.1359 20052(142) 19311.5898 18972.8555
1960 12.1419 20096(142) 19316.3359 18988.7656
1961 12.1479 20216(142) 19321.9531 19004.6738
1962 12.1539 20158(142) 19328.4590 19020.5840
1963 12.1599 20369(143) 19335.8828 19036.4922
1964 12.1659 20390(142) 19344.2949 19052.4023
1965 12.1719 20377(143) 19849.0566 19068.3105
1966 12.1779 20407(143) 19896.0430 19084.2207
1967 12.1839 20621(143) 19945.6230 19100.1289
1968 12.1899 20650(144) 19998.3242 19116.0391
1969 12.1959 20568(143) 20054.8184 19131.9453
1970 12.2019 20679(144) 20115.9414 19147.8535
1971 12.2079 20672(144) 20182.5527 19163.7637
1972 12.2139 20784(144) 20254.9102 19179.6719
1973 12.2199 20933(144) 20331.4414 19195.5820
1974 12.2259 21076(145) 20406.9922 19211.4902
1975 12.2319 21273(146) 20474.2441 19227.4004
1976 12.2379 21436(146) 20530.2305 19243.3086
1977 12.2439 21482(146) 20580.1387 19259.2188
1978 12.2499 21472(147) 20631.6992 19275.1270
1979 12.2559 21563(147) 20689.6855 19291.0371
1980 12.2619 21831(148) 20755.5840 19306.9453
1981 12.2679 21756(148) 20829.4961 19322.8555
1982 12.2739 21904(149) 20911.1387 19338.7637
1983 12.2799 21981(148) 21000.3613 19354.6719
1984 12.2859 22154(149) 21097.2422 19370.5820
1985 12.2919 22418(150) 21202.0371 19386.4883
1986 12.2979 22596(150) 21315.3145 19402.4004
1987 12.3039 22777(151) 21437.6797 19418.3086
1988 12.3099 22987(152) 21570.0703 19434.2188
1989 12.3159 23205(152) 21713.5020 19450.1250
1990 12.3219 23435(153) 21869.2344 19466.0352
1991 12.3279 23722(154) 22038.7461 19481.9434
1992 12.3339 23787(154) 22223.7910 19497.8535
1993 12.3399 24208(156) 22426.3652 19513.7617
1994 12.3459 24376(156) 22648.9531 19529.6699
1995 12.3519 24780(158) 22894.5176 19545.5801
1996 12.3579 25113(159) 23166.4199 19561.4883
1997 12.3639 25410(159) 23468.7695 19577.3984
1998 12.3699 25859(161) 23806.5000 19593.3066
1999 12.3759 26155(161) 24185.5859 19609.2168
2000 12.3819 26941(165) 24613.1660 19625.1250
2001 12.3879 27176(165) 25098.4336 19641.0352
2002 12.3939 28120(167) 25652.1367 19656.9434
2003 12.3999 28539(169) 26288.4141 19672.8535
2004 12.4059 29063(171) 27024.4766 19688.7617
2005 12.4119 29900(173) 27882.4238 19704.6680
2006 12.4179 31062(177) 28890.6758 19720.5801
2007 12.4239 31922(179) 30085.7422 19736.4863
2008 12.4299 33362(182) 31516.9648 19752.3984
2009 12.4359 34977(187) 33248.1250 19768.3047
2010 12.4419 36594(191) 35367.6797 19784.2148
2011 12.4479 38673(197) 37994.6250 19800.1230
2012 12.4539 41698(205) 41294.4531 19816.0332
2013 12.4599 44400(210) 45498.7344 19831.9414
2014 12.4659 47952(220) 50933.4688 19847.8516
2015 12.4719 52977(230) 58053.0469 19863.7598
2016 12.4779 59611(244) 67482.7734 19879.6680
2017 12.4839 65472(256) 80016.8594 19895.5781
2018 12.4899 73302(270) 96450.6484 19911.4863
2019 12.4959 83817(290) 116981.3438 19927.3965
2020 12.5019 90845(302) 139731.1875 19943.3047
2021 12.5079 99216(313) 158870.2969 19959.2148
2022 12.5139 103351(321) 165836.7344 19975.1230
2023 12.5199 103198(321) 156626.0156 19991.0332
2024 12.5259 100012(316) 136456.3281 20006.9414
2025 12.5319 91205(301) 113808.8828 20022.8516
2026 12.5379 83772(290) 93872.5469 20038.7578
2027 12.5439 75214(273) 78087.8906 20054.6660
2028 12.5499 66629(258) 66099.9062 20070.5762
2029 12.5559 59276(243) 57091.4219 20086.4844
2030 12.5619 54128(232) 50287.1641 20102.3945
2031 12.5679 49583(222) 45093.9492 20118.3027
2032 12.5739 44795(212) 41073.5859 20134.2129
2033 12.5799 42186(206) 37917.4688 20150.1211
2034 12.5859 39922(199) 35406.7188 20166.0312
2035 12.5919 37384(193) 33383.1055 20181.9395
2036 12.5979 35743(190) 31732.6484 20197.8496
2037 12.6039 34625(186) 30372.2461 20213.7578
2038 12.6099 33160(183) 29239.0508 20229.6680
2039 12.6159 32259(180) 28287.2168 20245.5762
2040 12.6219 31577(177) 27480.6328 20261.4844
2041 12.6279 30593(175) 26792.2871 20277.3945
2042 12.6339 29883(173) 26200.8613 20293.3027
2043 12.6399 29497(172) 25689.5742 20309.2129
2044 12.6459 28763(170) 25245.2148 20325.1211
2045 12.6519 28360(169) 24856.7891 20341.0312
2046 12.6579 28119(167) 24515.8828 20356.9375
2047 12.6639 27573(166) 24215.2129 20372.8496
2048 12.6699 26983(164) 23949.0762 20388.7559
2049 12.6759 26856(164) 23712.6738 20404.6680
2050 12.6819 26637(163) 23501.9863 20420.5742
2051 12.6879 26278(162) 23313.7246 20436.4824
2052 12.6939 26045(162) 23144.9297 20452.3926
2053 12.6999 26013(161) 22993.3184 20468.3008
2054 12.7059 25696(160) 22862.3926 20484.2109
2055 12.7119 25254(159) 22739.3555 20500.1191
2056 12.7179 25279(159) 22628.1641 20516.0293
2057 12.7239 24940(158) 22527.5215 20531.9375
2058 12.7299 24954(158) 22436.3027 20547.8477
2059 12.7359 24776(157) 22353.5527 20563.7559
2060 12.7419 24507(157) 22278.3613 20579.6660
2061 12.7479 24335(156) 22210.0312 20595.5742
2062 12.7539 24127(155) 22147.8516 20611.4805
2063 12.7599 24163(155) 22091.2734 20627.3926
2064 12.7659 23806(154) 22039.7754 20643.3008
2065 12.7719 23725(154) 21992.9082 20659.2109
2066 12.7779 23742(153) 21950.2773 20675.1172
2067 12.7839 23494(153) 21911.4941 20691.0273
2068 12.7899 23312(152) 21876.2617 20706.9355
2069 12.7959 23340(153) 21844.2656 20722.8457
2070 12.8019 23247(153) 21815.2578 20738.7539
2071 12.8079 23109(152) 21789.0137 20754.6641
2072 12.8139 22995(151) 21765.3164 20770.5723
2073 12.8199 22782(151) 21743.9922 20786.4805
2074 12.8259 22715(151) 21724.8496 20802.3906
2075 12.8319 22688(150) 21707.7539 20818.2988
2076 12.8379 22556(150) 21692.5527 20834.2090
2077 12.8439 22505(150) 21679.1250 20850.1172
2078 12.8499 22574(150) 21667.3672 20866.0273
2079 12.8559 22478(150) 21657.1719 20881.9355
2080 12.8619 22302(149) 20916.4961 20897.8457
2081 12.8679 22231(149) 20933.6270 20913.7539
2082 12.8739 22229(149) 20950.8848 20929.6641
2083 12.8799 22152(149) 20968.2793 20945.5703
2084 12.8859 22177(149) 20985.8379 20961.4805
2085 12.8919 22308(149) 21003.5820 20977.3906
2086 12.8979 22118(149) 21021.5352 20993.2969
2087 12.9039 22216(149) 21039.7402 21009.2070
2088 12.9099 22129(148) 21058.2305 21025.1152
2089 12.9159 22074(149) 21077.0645 21041.0273
2090 12.9219 22088(149) 21096.2891 21056.9336
2091 12.9279 22337(149) 21115.9922 21072.8438
2092 12.9339 22112(148) 21136.2598 21088.7520
2093 12.9399 22173(149) 21157.2148 21104.6621
2094 12.9459 22285(149) 21179.0000 21120.5703
2095 12.9519 22185(149) 21201.8047 21136.4785
2096 12.9579 22274(150) 21225.8770 21152.3887
2097 12.9639 22468(150) 21251.5293 21168.2969
2098 12.9699 22709(151) 21279.1934 21184.2070
2099 12.9759 22580(150) 21309.4238 21200.1152
2100 12.9819 22683(150) 21343.0039 21216.0254
2101 12.9879 22674(150) 21380.9883 21231.9336
2102 12.9939 22759(151) 21424.8535 21247.8438
2103 12.9999 22660(151) 21476.6699 21263.7500
2104 13.0059 22768(151) 21539.3633 21279.6621
2105 13.0119 22748(151) 21616.9512 21295.5703
2106 13.0179 22701(151) 21714.8594 21311.4805
2107 13.0239 22940(151) 21839.2910 21327.3867
2108 13.0299 22882(151) 21994.9688 21343.2949
2109 13.0359 22867(151) 22177.3301 21359.2051
2110 13.0419 22840(151) 22358.5117 21375.1133
2111 13.0479 22912(152) 22480.0723 21391.0234
2112 13.0539 23180(153) 22486.4453 21406.9316
2113 13.0599 22773(151) 22383.2578 21422.8418
2114 13.0659 22632(151) 22230.6562 21438.7500
2115 13.0719 22300(150) 22083.1289 21454.6602
2116 13.0779 22079(149) 21964.0684 21470.5684
2117 13.0839 21891(148) 21875.8438 21486.4785
2118 13.0899 21408(147) 21813.2344 21502.3867
2119 13.0959 21289(146) 21770.0410 21518.2949
2120 13.1019 21036(145) 21741.0508 21534.2051
2121 13.1079 20762(145) 21722.4316 21550.1133
2122 13.1139 20464(143) 21711.3945 21566.0234
2123 13.1199 20194(142) 21705.9766 21581.9297
2124 13.1259 20143(142) 21704.7832 21597.8398
2125 13.1319 20019(142) 21706.8008 21613.7500
2126 13.1379 20004(141) 21711.2949 21629.6602
2127 13.1439 19715(141) 21717.7227 21645.5664
2128 13.1499 19746(141) 21725.6816 21661.4766
2129 13.1559 19655(140) 21734.8633 21677.3848
2130 13.1619 19620(140) 21745.0312 21693.2930
2131 13.1679 19377(139) 21756.0098 21709.2031
2132 13.1739 19312(139) 21767.6504 21725.1113
2133 13.1799 19309(139) 21779.8438 21741.0215
2134 13.1859 19076(139) 21792.4980 21756.9297
2135 13.1919 19080(138) 21805.5430 21772.8398
2136 13.1979 19109(138) 21818.9160 21788.7480
2137 13.2039 19017(138) 21832.5723 21804.6582
2138 13.2099 18942(137) 21846.4668 21820.5664
2139 13.2159 18877(137) 21860.5723 21836.4766
2140 13.2219 18653(137) 21874.8574 21852.3848
2141 13.2279 18703(137) 21889.3008 21868.2930
2142 13.2339 18677(136) 21903.8828 21884.2031
2143 13.2399 18646(137) 21918.5840 21900.1094
2144 13.2459 18484(136) 21933.3945 21916.0195
2145 13.2519 18463(136) 21948.2988 21931.9277
2146 13.2579 18297(135) 21963.2910 21947.8398
2147 13.2639 18318(136) 21978.3516 21963.7461
2148 13.2699 18384(136) 21993.4844 21979.6562
2149 13.2759 18468(136) 22008.6738 21995.5645
2150 13.2819 18246(135) 22023.9219 22011.4746
2151 13.2879 18160(135) 22039.2148 22027.3828
2152 13.2939 18215(135) 22054.5527 22043.2910
2153 13.2999 18041(135) 22069.9336 22059.2012
2154 13.3059 17994(135) 22085.3477 22075.1094
2155 13.3119 18093(135) 21680.5293 21670.7520
2156 13.3179 18162(135) 21275.8086 21266.4609
2157 13.3239 17900(134) 20871.0488 20862.1035
2158 13.3299 18011(134) 20466.3809 20457.8125
2159 13.3359 17913(134) 20061.6699 20053.4551
2160 13.3419 18017(134) 19657.0469 19649.1641
2161 13.3479 17981(134) 19252.3770 19244.8066
2162 13.3539 18099(135) 18847.7891 18840.5137
2163 13.3599 18016(135) 18443.1562 18436.1582
2164 13.3659 17977(135) 18341.7148 18031.8652
2165 13.3719 17935(134) 17947.9824 17627.5742
2166 13.3779 17802(134) 17554.7852 17223.2168
2167 13.3839 18064(135) 17565.2344 17221.8594
2168 13.3899 17870(134) 17576.3711 17220.5020
2169 13.3959 17889(134) 17588.2500 17219.1445
2170 13.4019 18062(135) 17595.4922 17217.7871
2171 13.4079 18134(135) 17609.2012 17216.4297
2172 13.4139 17958(135) 17623.8320 17215.0723
2173 13.4199 18013(134) 17639.4551 17213.7168
2174 13.4259 18146(135) 17656.1582 17212.3594
2175 13.4319 17959(134) 17674.0332 17211.0020
2176 13.4379 18148(135) 17693.1816 17209.6445
2177 13.4439 18068(135) 17713.7188 17208.2871
2178 13.4499 18240(135) 17735.7656 17206.9297
2179 13.4559 18250(135) 17759.4785 17205.5723
2180 13.4619 18333(135) 17785.0039 17204.2148
2181 13.4679 18027(134) 17812.5352 17202.8574
2182 13.4739 18205(135) 17855.4883 17201.5000
2183 13.4799 18297(136) 17888.1270 17200.1426
2184 13.4859 18362(136) 17923.4805 17198.7852
2185 13.4919 18335(136) 17961.8457 17197.4277
2186 13.4979 18500(136) 18003.5508 17196.0723
2187 13.5039 18561(136) 18048.9844 17194.7148
2188 13.5099 18614(137) 18098.6113 17193.3574
2189 13.5159 18591(136) 18152.9277 17192.0000
2190 13.5219 18865(138) 18212.5234 17190.6426
2191 13.5279 18769(137) 18278.0840 17189.2852
2192 13.5339 18923(138) 18350.4121 17187.9277
2193 13.5399 18941(138) 18430.4141 17186.5703
2194 13.5459 19169(139) 18519.2520 17185.2129
2195 13.5519 19216(139) 18618.1719 17183.8555
2196 13.5579 19567(140) 18728.8027 17182.4980
2197 13.5639 19741(141) 18852.9785 17181.1406
2198 13.5699 19743(141) 18992.9590 17179.7852
2199 13.5759 20252(143) 19151.4785 17178.4277
2200 13.5819 20271(143) 19331.8301 17177.0703
2201 13.5879 20468(143) 19538.2578 17175.7129
2202 13.5939 20817(145) 19775.7656 17174.3555
2203 13.5999 21159(146) 20050.9512 17172.9980
2204 13.6059 21320(147) 20371.9102 17171.6406
2205 13.6119 21899(148) 20749.1016 17170.2832
2206 13.6179 22550(150) 21196.0508 17168.9258
2207 13.6239 22852(152) 21730.4883 17167.5684
2208 13.6299 23700(154) 22375.6777 17166.2109
2209 13.6359 24286(156) 23163.3027 17164.8535
2210 13.6419 25387(159) 24136.6016 17163.4961
2211 13.6479 26423(163) 25354.5234 17162.1406
2212 13.6539 27824(167) 26899.5684 17160.7832
2213 13.6599 29351(171) 28887.6602 17159.4258
2214 13.6659 31365(178) 31481.7402 17158.0684
2215 13.6719 33828(185) 34905.9375 17156.7109
2216 13.6779 36974(192) 39458.0312 17155.3535
2217 13.6839 40061(201) 45468.7109 17153.9961
2218 13.6899 43546(209) 53153.2031 17152.6387
2219 13.6959 46685(216) 62146.2461 17151.2812
2220 13.7019 49859(224) 70733.7578 17149.9238
2221 13.7079 51832(228) 75655.6719 17148.5664
2222 13.7139 51921(229) 74249.1641 17147.2090
2223 13.7199 50619(226) 67345.9609 17145.8516
2224 13.7259 47735(220) 58290.5898 17144.4961
2225 13.7319 45044(213) 49773.7617 17143.1387
2226 13.7379 41083(203) 42840.6719 17141.7812
2227 13.7439 37563(194) 37530.2461 17140.4238
2228 13.7499 34902(188) 33546.8906 17139.0664
2229 13.7559 32052(180) 30566.7969 17137.7090
2230 13.7619 29924(174) 28328.4766 17136.3516
2231 13.7679 28210(169) 26639.0859 17134.9941
2232 13.7739 27125(165) 25366.5273 17133.6367
2233 13.7799 25761(161) 24420.1914 17132.2793
2234 13.7859 25133(159) 23742.6113 17130.9219
2235 13.7919 24544(157) 23296.2988 17129.5664
2236 13.7979 24142(156) 23049.5801 17128.2090
2237 13.8039 24222(156) 22948.6367 17126.8516
2238 13.8099 24391(157) 22880.8320 17125.4941
2239 13.8159 24329(157) 22683.1582 17124.1367
2240 13.8219 24191(156) 22255.7715 17122.7793
2241 13.8279 23549(154) 21661.9727 17121.4219
2242 13.8339 22774(152) 21042.5020 17120.0645
2243 13.8399 21798(148) 20491.3770 17118.7070
2244 13.8459 21277(146) 20035.4082 17117.3496
2245 13.8519 20527(144) 19667.1309 17115.9922
2246 13.8579 20324(143) 19369.7207 17114.6348
2247 13.8639 19950(142) 19126.9180 17113.2773
2248 13.8699 19852(141) 18925.9453 17111.9219
2249 13.8759 19561(141) 18757.1270 17110.5645
2250 13.8819 19199(139) 18613.4453 17109.2070
2251 13.8879 19168(139) 18489.6523 17107.8496
2252 13.8939 19053(139) 18381.9023 17106.4922
2253 13.8999 18858(138) 18287.2129 17105.1348
2254 13.9059 18980(139) 18203.3652 17103.7773
2255 13.9119 18705(138) 18128.5703 17102.4199
2256 13.9179 18801(138) 18061.4414 17101.0625
2257 13.9239 18617(137) 18000.8711 17099.7051
2258 13.9299 18482(137) 17945.9453 17098.3477
2259 13.9359 18326(136) 17895.9336 17096.9902
2260 13.9419 18384(136) 17850.1914 17095.6328
2261 13.9479 18254(136) 17808.2285 17094.2773
2262 13.9539 18190(136) 17769.5820 17092.9199
2263 13.9599 18048(135) 17733.8945 17091.5625
2264 13.9659 18098(135) 17700.8418 17090.2051
2265 13.9719 18070(135) 17670.1543 17088.8477
2266 13.9779 17971(135) 17641.5957 17087.4902
2267 13.9839 17981(134) 17614.9473 17086.1328
2268 13.9899 17795(134) 17590.0410 17084.7754
2269 13.9959 17818(134) 17566.7031 17083.4180
2270 14.0019 17706(133) 17544.7988 17082.0605
2271 14.0079 17625(133) 17524.2031 17080.7031
2272 14.0139 17620(134) 17504.8047 17079.3457
2273 14.0199 17765(134) 17764.8945 17077.9883
2274 14.0259 17635(134) 17757.5566 17076.6328
2275 14.0319 17471(133) 17751.6875 17075.2754
2276 14.0379 17500(133) 17747.2559 17073.9180
2277 14.0439 17489(133) 17744.2422 17072.5605
2278 14.0499 17476(133) 17742.6348 17071.2031
2279 14.0559 17331(132) 17742.4316 17069.8457
2280 14.0619 17411(133) 17455.0156 17068.4883
2281 14.0679 17268(132) 17467.2012 17067.1309
2282 14.0739 17238(132) 17480.3906 17065.7734
2283 14.0799 17258(132) 17494.6465 17064.4160
2284 14.0859 17244(132) 17510.0586 17063.0586
2285 14.0919 17115(131) 17526.7109 17061.7012
2286 14.0979 17278(132) 17544.7051 17060.3438
2287 14.1039 17262(132) 17564.1582 17058.9883
2288 14.1099 17057(131) 17585.1934 17057.6309
2289 14.1159 17085(131) 17607.9512 17056.2734
2290 14.1219 17186(132) 17632.6016 17054.9160
2291 14.1279 17048(131) 17659.3379 17053.5586
2292 14.1339 17044(131) 17688.3633 17052.2012
2293 14.1399 17094(131) 17696.3398 17027.2656
2294 14.1459 17166(132) 17707.1172 17002.3340
2295 14.1519 17233(132) 17721.0020 16977.3984
2296 14.1579 17364(132) 17738.3438 16952.4688
2297 14.1639 17255(132) 17746.7500 16927.5332
2298 14.1699 17162(132) 17772.7363 16902.6016
2299 14.1759 17420(133) 17803.6055 16877.6660
2300 14.1819 17340(133) 17839.9902 16852.7344
2301 14.1879 17237(132) 17882.6289 16827.8027
2302 14.1939 17398(133) 17932.3926 16802.8672
2303 14.1999 17435(133) 17990.2910 16777.9355
2304 14.2059 17531(133) 18057.5938 16753.0000
2305 14.2119 17522(133) 18135.7070 16728.0703
2306 14.2179 17902(135) 18226.4316 16703.1348
2307 14.2239 18115(136) 18331.8594 16678.2031
2308 14.2299 18166(135) 18454.5547 16653.2676
2309 14.2359 18206(136) 18597.6660 16628.3359
2310 14.2419 18290(136) 18765.0762 16603.4004
2311 14.2479 18637(137) 18961.5547 16578.4688
2312 14.2539 18863(138) 19193.2344 16553.5391
2313 14.2599 19320(140) 19467.9180 16528.6035
2314 14.2659 19462(141) 19795.4375 16503.6719
2315 14.2719 19871(142) 20188.6133 16478.7363
2316 14.2779 20250(143) 20664.2891 16453.8047
2317 14.2839 20929(146) 21244.8184 16428.8691
2318 14.2899 21573(148) 21960.0449 16403.9375
2319 14.2959 22538(152) 22851.4551 16379.0029
2320 14.3019 23739(155) 23975.0820 16354.0713
2321 14.3079 25715(161) 25410.7168 16329.1357
2322 14.3139 27503(167) 27269.2266 16304.2051
2323 14.3199 30530(176) 29706.6875 16279.2734
2324 14.3259 33767(185) 32937.9062 16254.3379
2325 14.3319 38521(197) 37239.2188 16229.4062
2326 14.3379 45025(214) 42914.2852 16204.4717
2327 14.3439 52283(230) 50108.2773 16179.5400
2328 14.3499 61706(250) 58359.2422 16154.6045
2329 14.3559 69314(265) 65871.2188 16129.6729
2330 14.3619 74301(275) 69571.8984 16104.7383
2331 14.3679 75034(277) 67384.1562 16079.8066
2332 14.3739 70456(268) 60560.0586 16054.8711
2333 14.3799 62805(253) 52216.7578 16029.9395
2334 14.3859 52640(230) 44586.7578 16005.0088
2335 14.3919 45467(215) 38436.0117 15980.0732
2336 14.3979 39137(199) 34748.0781 15955.1416
2337 14.4039 34340(186) 31234.0664 15930.2061
2338 14.4099 30937(178) 28587.6016 15905.2754
2339 14.4159 28169(169) 26575.8711 15880.3398
2340 14.4219 25925(162) 25028.2656 15855.4082
2341 14.4279 24815(159) 23821.6602 15830.4727
2342 14.4339 23439(154) 22870.1094 15805.5420
2343 14.4399 22372(151) 22111.1152 15780.6064
2344 14.4459 21695(148) 21500.3770 15755.6748
2345 14.4519 21053(147) 21006.2734 15730.7432
2346 14.4579 20772(145) 20603.0938 15705.8086
2347 14.4639 20209(143) 20273.9043 15680.8770
2348 14.4699 20069(143) 20004.9922 15655.9414
2349 14.4759 19712(141) 19786.3086 15631.0098
2350 14.4819 19549(141) 19609.8926 15606.0752
2351 14.4879 19281(140) 19469.7871 15581.1436
2352 14.4939 19242(140) 19361.4258 15556.2080
2353 14.4999 19126(139) 19281.2793 15531.2764
2354 14.5059 19079(140) 19226.6914 15506.3418
2355 14.5119 19033(139) 19195.7676 15481.4102
2356 14.5179 19019(139) 19187.0801 15456.4746
2357 14.5239 19125(140) 19224.1660 15455.8867
2358 14.5299 19247(140) 19282.2676 15455.2988
2359 14.5359 19149(140) 19361.4922 15454.7109
2360 14.5419 19246(140) 19462.2227 15454.1230
2361 14.5479 19414(140) 19585.2773 15453.5361
2362 14.5539 19594(141) 19731.9043 15452.9482
2363 14.5599 19552(141) 19903.7363 15452.3604
2364 14.5659 19928(143) 20102.8809 15451.7725
2365 14.5719 20377(144) 20332.1719 15451.1846
2366 14.5779 20573(145) 20594.7910 15450.5967
2367 14.5839 20913(147) 20895.0391 15450.0088
2368 14.5899 21244(147) 21237.8340 15449.4209
2369 14.5959 21546(148) 21629.3047 15448.8330
2370 14.6019 21989(150) 22076.9141 15448.2451
2371 14.6079 22640(152) 22589.6797 15447.6582
2372 14.6139 23296(154) 23179.2500 15447.0703
2373 14.6199 23839(155) 23859.2812 15446.4824
2374 14.6259 24727(159) 24647.7734 15445.8945
2375 14.6319 25561(161) 25566.6367 15445.3066
2376 14.6379 26492(164) 26643.9863 15444.7188
2377 14.6439 28061(169) 27915.9258 15444.1309
2378 14.6499 29819(174) 29429.2891 15443.5430
2379 14.6559 31518(179) 31244.9414 15442.9551
2380 14.6619 33503(185) 33444.9609 15442.3682
2381 14.6679 36391(193) 36140.1758 15441.7803
2382 14.6739 39640(201) 39495.7539 15441.1924
2383 14.6799 43952(212) 43687.6289 15440.6045
2384 14.6859 49616(225) 49020.1641 15440.0166
2385 14.6919 58523(244) 55899.6953 15439.4287
2386 14.6979 67482(262) 64893.3594 15438.8408
2387 14.7039 80827(286) 76791.5859 15438.2529
2388 14.7099 98549(317) 92330.2734 15437.6650
2389 14.7159 121003(351) 113172.5625 15437.0771
2390 14.7219 149924(391) 139582.2344 15436.4893
2391 14.7279 184460(434) 169867.9062 15435.9023
2392 14.7339 209926(462) 197495.3438 15435.3145
2393 14.7399 228458(485) 211237.2812 15434.7266
2394 14.7459 227804(482) 203455.7812 15434.1387
2395 14.7519 211259(463) 178660.9688 15433.5508
2396 14.7579 181093(430) 148219.3281 15432.9629
2397 14.7639 142248(380) 120354.8516 15432.3750
2398 14.7699 118144(346) 97909.4375 15431.7871
2399 14.7759 94341(310) 80753.6719 15431.1992
2400 14.7819 76638(280) 69004.8281 15430.6113
2401 14.7879 63458(253) 59317.2500 15430.0244
2402 14.7939 54182(235) 51944.8164 15429.4365
2403 14.7999 46386(218) 46249.1328 15428.8486
2404 14.8059 40728(204) 41782.3281 15428.2607
2405 14.8119 37534(196) 38233.6211 15427.6729
2406 14.8179 34315(188) 35384.4844 15427.0850
2407 14.8239 31770(180) 33075.3242 15426.4971
2408 14.8299 30259(175) 31187.6328 15425.9092
2409 14.8359 28473(170) 29630.8164 15425.3213
2410 14.8419 26908(166) 28338.5195 15424.7334
2411 14.8479 25960(163) 27258.7520 15424.1465
2412 14.8539 25050(160) 26352.7344 15423.5586
2413 14.8599 24341(157) 25590.2285 15422.9707
2414 14.8659 23665(156) 24947.6094 15422.3828
2415 14.8719 23240(154) 24406.5586 15421.7949
2416 14.8779 22929(153) 23952.0742 15421.2070
2417 14.8839 22490(151) 23572.9414 15420.6191
2418 14.8899 22192(150) 23259.7852 15420.0312
2419 14.8959 22169(151) 23005.5156 15419.4434
2420 14.9019 21901(149) 22804.6250 15418.8555
2421 14.9079 21751(149) 22652.8301 15418.2686
2422 14.9139 22074(150) 24362.7461 15417.6807
2423 14.9199 22009(150) 24366.0234 15417.0928
2424 14.9259 22025(150) 24415.6738 15416.5049
2425 14.9319 22298(151) 24511.8848 15415.9170
2426 14.9379 22319(151) 24655.7031 15415.3291
2427 14.9439 22389(151) 24849.4961 15414.7412
2428 14.9499 22716(152) 25096.6250 15414.1533
2429 14.9559 22997(153) 25402.1504 15413.5654
2430 14.9619 23269(154) 25772.8906 15412.9785
2431 14.9679 23346(154) 26218.1875 15412.3906
2432 14.9739 23800(156) 26750.4805 15411.8027
2433 14.9799 24270(158) 27386.7285 15411.2148
2434 14.9859 24546(158) 28148.6523 15410.6270
2435 14.9919 25208(160) 29063.8965 15410.0391
2436 14.9979 26428(164) 30161.1250 15409.4512
2437 15.0039 27459(167) 31457.1465 15408.8633
2438 15.0099 29141(173) 32923.8672 15408.2754
2439 15.0159 30962(177) 34451.4766 15407.6875
2440 15.0219 32798(183) 35892.0586 15407.0996
2441 15.0279 33942(187) 37221.1172 15406.5127
2442 15.0339 34680(188) 38618.5312 15405.9248
2443 15.0399 35960(192) 40328.2188 15405.3369
2444 15.0459 37829(197) 42539.1602 15404.7490
2445 15.0519 40652(204) 45395.3672 15404.1611
2446 15.0579 44628(213) 49049.0352 15403.5732
2447 15.0639 50034(226) 53703.0586 15402.9854
2448 15.0699 58146(243) 59650.6133 15402.3975
2449 15.0759 66105(259) 67313.8750 15401.8096
2450 15.0819 75948(279) 77288.7188 15401.2227
2451 15.0879 94339(311) 90408.7344 15400.6348
2452 15.0939 122025(353) 106815.9531 15400.0469
2453 15.0999 149670(389) 129742.3516 15399.4590
2454 15.1059 186561(436) 159089.5000 15398.8711
2455 15.1119 236053(490) 193828.6250 15398.2832
2456 15.1179 270492(525) 228052.5938 15397.6953
2457 15.1239 294072(548) 249783.5312 15397.1074
2458 15.1299 292225(546) 248040.2812 15396.5195
2459 15.1359 269410(523) 224511.8750 15395.9316
2460 15.1419 230573(485) 191567.4375 15395.3438
2461 15.1479 184456(432) 160143.0000 15394.7568
2462 15.1539 154455(396) 134829.2188 15394.1689
2463 15.1599 126479(360) 116115.5547 15393.5811
2464 15.1659 106767(330) 103002.9297 15392.9932
2465 15.1719 94696(311) 94352.8984 15392.4053
2466 15.1779 87973(299) 89274.0391 15391.8174
2467 15.1839 84694(294) 87187.9766 15391.2295
2468 15.1899 84300(293) 87815.2891 15390.6416
2469 15.1959 88035(299) 91140.0859 15390.0537
2470 15.2019 95308(312) 97410.0781 15389.4668
2471 15.2079 106676(329) 107169.7969 15388.8789
2472 15.2139 120626(351) 121315.1875 15388.2910
2473 15.2199 143006(381) 141184.6406 15387.7031
2474 15.2259 182280(430) 168517.8594 15387.1152
2475 15.2319 220318(473) 205186.7188 15386.5273
2476 15.2379 271501(526) 251839.8281 15385.9395
2477 15.2439 322550(574) 304680.4062 15385.3516
2478 15.2499 368250(612) 350924.2500 15384.7637
2479 15.2559 392742(634) 370405.0312 15384.1758
2480 15.2619 376399(618) 351652.3438 15383.5889
2481 15.2679 341553(590) 304966.8438 15383.0010
2482 15.2739 284325(538) 250554.7812 15382.4131
2483 15.2799 223259(477) 201735.5000 15381.8252
2484 15.2859 176012(422) 162693.4531 15381.2373
2485 15.2919 140857(378) 132870.1562 15380.6494
2486 15.2979 108129(331) 110365.2188 15380.0615
2487 15.3039 89547(301) 93322.6797 15379.4736
2488 15.3099 74652(275) 80265.6094 15378.8857
2489 15.3159 62662(252) 70129.0234 15378.2979
2490 15.3219 54849(237) 62139.7227 15377.7100
2491 15.3279 48709(222) 55755.3750 15377.1230
2492 15.3339 43642(211) 50584.9570 15376.5352
2493 15.3399 38948(199) 46345.6562 15375.9473
2494 15.3459 36216(192) 42831.0273 15375.3594
2495 15.3519 33272(184) 39885.0898 15374.7715
2496 15.3579 31190(178) 37393.8672 15374.1836
2497 15.3639 29511(174) 35267.6328 15373.5957
2498 15.3699 28017(169) 33423.5273 15373.0078
2499 15.3759 26668(165) 31840.2090 15372.4199
2500 15.3819 25399(161) 30459.7051 15371.8330
2501 15.3879 24351(158) 29248.6445 15371.2451
2502 15.3939 23765(156) 28180.5762 15370.6572
2503 15.3999 22838(153) 27233.1914 15370.0693
2504 15.4059 22360(151) 26389.3164 15369.4814
2505 15.4119 21593(149) 25633.8965 15368.8936
2506 15.4179 21144(147) 24955.0293 15368.3057
2507 15.4239 20642(145) 24342.6582 15367.7178
2508 15.4299 20371(144) 23788.2559 15367.1299
2509 15.4359 20012(143) 23284.8086 15366.5420
2510 15.4419 19686(142) 22825.9473 15365.9541
2511 15.4479 19365(140) 22406.7383 15365.3672
2512 15.4539 19058(139) 22025.7676 15364.7793
2513 15.4599 18845(139) 21672.8887 15364.1914
2514 15.4659 18571(138) 21347.9238 15363.6035
2515 15.4719 18481(137) 21048.0215 15363.0156
2516 15.4779 18306(137) 19659.5000 15362.4277
2517 15.4839 18426(137) 19439.2715 15361.8398
2518 15.4899 18180(136) 19235.7598 15361.2520
2519 15.4959 18051(135) 19047.2832 15360.6641
2520 15.5019 18214(136) 18872.5723 15360.0771
2521 15.5079 18400(137) 18710.4766 15359.4893
2522 15.5139 18297(137) 18560.0234 15358.9014
2523 15.5199 18071(136) 18420.4062 15358.3135
2524 15.5259 17941(135) 18290.9766 15357.7256
2525 15.5319 17893(135) 18170.9648 15357.1377
2526 15.5379 17705(134) 18060.3164 15356.5498
2527 15.5439 17742(134) 17955.4961 15355.9619
2528 15.5499 17749(135) 17854.8730 15355.3740
2529 15.5559 17754(134) 17756.6289 15354.7861
2530 15.5619 17711(135) 17661.0898 15354.1992
2531 15.5679 17674(134) 17569.8398 15353.6113
2532 15.5739 17417(133) 17483.8691 15353.0234
2533 15.5799 17572(134) 17403.3945 15352.4355
2534 15.5859 17517(134) 17331.1562 15351.8477
2535 15.5919 17466(133) 17260.6387 15351.2598
2536 15.5979 17459(133) 17194.3848 15350.6719
2537 15.6039 17329(133) 15374.3770 15350.0840
2538 15.6099 17513(133) 15374.0088 15349.4961
2539 15.6159 17452(133) 15373.5430 15348.9082
2540 15.6219 17297(132) 15372.9326 15348.3213
2541 15.6279 17284(133) 15372.3428 15347.7334
2542 15.6339 17308(132) 15371.9551 15347.1455
2543 15.6399 17339(133) 15371.8525 15346.5576
2544 15.6459 17077(132) 15372.0488 15345.9697
2545 15.6519 16992(131) 15372.5361 15345.3818
2546 15.6579 17040(132) 15407.8408 15379.3252
2547 15.6639 17081(132) 15443.4424 15413.2744
2548 15.6699 17144(132) 15479.3447 15447.2178
2549 15.6759 17178(132) 15515.5889 15481.1670
2550 15.6819 17248(133) 15552.2070 15515.1104
2551 15.6879 17135(132) 15589.2656 15549.0547
2552 15.6939 17218(133) 15626.8447 15583.0029
2553 15.6999 17199(132) 15665.0381 15616.9473
2554 15.7059 17207(132) 15703.9893 15650.8955
2555 15.7119 17307(133) 15743.8613 15684.8398
2556 15.7179 17296(133) 15784.8945 15718.7881
2557 15.7239 17493(134) 15827.3857 15752.7324
2558 15.7299 17452(133) 15871.7578 15786.6807
2559 15.7359 17344(133) 15918.5654 15820.6250
2560 15.7419 17448(133) 15968.6074 15854.5732
2561 15.7479 17546(134) 16022.9619 15888.5176
2562 15.7539 17429(133) 16083.1807 15922.4609
2563 15.7599 17684(134) 16151.4092 15956.4102
2564 15.7659 17777(135) 16230.5322 15990.3535
2565 15.7719 17684(134) 16324.1338 16024.3027
2566 15.7779 17802(134) 16435.4961 16058.2461
2567 15.7839 17724(134) 16564.5527 16092.1953
2568 15.7899 17788(135) 16700.5566 16126.1387
2569 15.7959 17718(134) 16815.0488 16160.0879
2570 15.8019 17868(135) 16871.3965 16194.0312
2571 15.8079 17756(134) 16858.8613 16227.9805
2572 15.8139 17669(134) 16805.3750 16261.9238
2573 15.8199 17535(133) 16747.1582 16295.8672
2574 15.8259 17638(134) 16704.0742 16329.8164
2575 15.8319 17357(133) 16681.1270 16363.7598
2576 15.8379 17360(133) 16676.7969 16397.7090
2577 15.8439 17417(133) 16688.3242 16431.6523
2578 15.8499 17332(133) 16713.5703 16465.6016
2579 15.8559 17337(133) 16751.2559 16499.5449
2580 15.8619 17457(133) 16800.4062 16533.4941
2581 15.8679 17498(134) 16858.6875 16567.4375
2582 15.8739 17321(133) 16920.1875 16601.3867
2583 15.8799 17439(133) 16975.8184 16635.3301
2584 15.8859 17433(133) 17020.7383 16669.2734
2585 15.8919 17313(132) 17061.2012 16703.2227
2586 15.8979 17461(133) 17109.4883 16737.1660
2587 15.9039 17425(133) 17175.3281 16771.1152
2588 15.9099 17542(133) 17263.5020 16805.0586
2589 15.9159 17673(134) 17370.7754 16839.0078
2590 15.9219 17846(135) 17480.5391 16872.9512
2591 15.9279 17834(134) 17559.8984 16906.9004
2592 15.9339 17992(135) 17578.6621 16940.8438
2593 15.9399 17965(135) 17540.3535 16974.7930
2594 15.9459 17678(134) 17477.3203 17008.7363
2595 15.9519 17497(133) 17418.3750 17042.6797
2596 15.9579 17604(133) 17375.6562 17076.6289
2597 15.9639 17522(133) 17350.1523 17110.5723
2598 15.9699 17347(132) 17338.9590 17144.5215
2599 15.9759 17502(133) 17338.6152 17178.4648
2600 15.9819 17485(133) 17346.2559 17212.4141
2601 15.9879 17632(134) 17359.7480 17246.3574
2602 15.9939 17404(133) 17377.5586 17280.3066
2603 15.9999 17612(134) 17398.5840 17314.2500
2604 16.0059 17398(133) 17422.0488 17348.1953
2605 16.0119 17584(134) 17447.3828 17382.1426
2606 16.0179 17651(134) 17474.1719 17416.0918
2607 16.0239 17573(133) 17502.0977 17450.0312
2608 16.0299 17555(133) 17530.9434 17483.9805
2609 16.0359 17629(134) 17560.5234 17517.9277
2610 16.0419 17697(134) 17590.7051 17551.8770
2611 16.0479 17605(134) 17621.3691 17585.8164
2612 16.0539 17748(134) 17652.4551 17619.7656
2613 16.0599 17776(134) 17683.8828 17653.7129
2614 16.0659 17761(134) 17715.6016 17687.6621
2615 16.0719 17942(135) 17747.5586 17721.6016
2616 16.0779 17930(135) 17779.7344 17755.5508
2617 16.0839 17810(134) 17812.0898 17789.4980
2618 16.0899 17976(135) 17844.5957 17823.4375
2619 16.0959 17931(135) 17877.2480 17857.3867
2620 16.1019 17809(135) 17910.0176 17891.3359
2621 16.1079 17913(135) 17942.8945 17925.2852
2622 16.1139 17884(135) 17975.8516 17959.2227
2623 16.1199 17899(134) 18008.9023 17993.1719
2624 16.1259 18029(135) 18042.0273 18027.1211
2625 16.1319 17897(135) 18075.2148 18061.0703
2626 16.1379 17821(134) 18108.4512 18095.0078
2627 16.1439 17754(134) 18141.7500 18128.9570
2628 16.1499 17833(135) 18171.8711 18162.9062
2629 16.1559 17785(134) 18205.3555 18196.8438
2630 16.1619 17685(134) 18238.8867 18230.7930
2631 16.1679 17723(134) 18272.4473 18264.7422
2632 16.1739 17677(134) 18306.0352 18298.6914
2633 16.1799 17512(133) 18339.6367 18332.6289
2634 16.1859 17620(134) 18334.8301 18328.1367
2635 16.1919 17587(134) 18330.0430 18323.6426
2636 16.1979 17624(134) 18325.2773 18319.1504
2637 16.2039 17595(134) 18320.5293 18314.6602
2638 16.2099 17691(134) 18315.7949 18310.1660
2639 16.2159 17651(134) 18311.0762 18305.6738
2640 16.2219 17647(134) 18306.3691 18301.1816
2641 16.2279 17635(134) 18301.6777 18296.6895
2642 16.2339 17618(134) 18296.1797 18292.1973
2643 16.2399 17652(134) 18291.5352 18287.7051
2644 16.2459 17604(133) 18286.9004 18283.2129
2645 16.2519 17561(134) 18282.2734 18278.7207
2646 16.2579 17647(134) 18277.6523 18274.2285
2647 16.2639 17728(134) 18273.0371 18269.7344
2648 16.2699 17654(134) 18268.4316 18265.2441
2649 16.2759 17577(133) 18263.8301 18260.7520
2650 16.2819 17705(134) 18256.2578 18256.2578
2651 16.2879 17657(134) 18251.7656 18251.7656
2652 16.2939 17668(134) 18247.2754 18247.2754
2653 16.2999 17719(134) 18242.7812 18242.7812
2654 16.3059 17684(134) 18238.2891 18238.2891
2655 16.3119 17854(135) 18233.7988 18233.7988
2656 16.3179 17748(134) 18229.3047 18229.3047
2657 16.3239 17799(134) 18224.8125 18224.8125
2658 16.3299 18012(135) 18220.3203 18220.3203
2659 16.3359 18023(135) 18215.8281 18215.8281
2660 16.3419 17880(135) 18211.3359 18211.3359
2661 16.3479 17918(135) 18206.8438 18206.8438
2662 16.3539 17897(135) 18202.3496 18202.3496
2663 16.3599 17950(135) 18197.8594 18197.8594
2664 16.3659 17874(135) 18193.3672 18193.3672
2665 16.3719 18108(136) 18188.8730 18188.8730
2666 16.3779 18016(135) 18184.3828 18184.3828
2667 16.3839 17934(135) 18179.8906 18179.8906
2668 16.3899 18193(136) 18175.3965 18175.3965
2669 16.3959 17850(135) 18170.9043 18170.9043
2670 16.4019 17862(134) 18166.4121 18166.4121
2671 16.4079 17899(135) 18161.9199 18161.9199
2672 16.4139 18105(136) 18157.4277 18157.4277
2673 16.4199 18101(136) 18152.9355 18152.9355
2674 16.4259 18071(136) 18148.4434 18148.4434
2675 16.4319 18060(135) 18143.9512 18143.9512
2676 16.4379 17819(134) 18139.4590 18139.4590
2677 16.4439 18036(135) 18134.9668 18134.9668
2678 16.4499 17942(135) 18130.4746 18130.4746
2679 16.4559 18004(135) 18125.9805 18125.9805
2680 16.4619 18022(135) 18121.4883 18121.4883
2681 16.4679 18052(135) 18116.9980 18116.9980
2682 16.4739 18162(136) 18112.5039 18112.5039
2683 16.4799 18125(136) 18108.0117 18108.0117
2684 16.4859 18039(135) 18103.5195 18103.5195
2685 16.4919 18129(135) 18099.0273 18099.0273
2686 16.4979 18074(135) 18094.5352 18094.5352
2687 16.5039 18117(136) 18090.0430 18090.0430
2688 16.5099 18044(135) 18085.5508 18085.5508
2689 16.5159 18320(136) 18081.0586 18081.0586
2690 16.5219 18026(135) 18076.5664 18076.5664
2691 16.5279 18129(136) 18072.0742 18072.0742
2692 16.5339 18174(136) 18067.5820 18067.5820
2693 16.5399 18219(136) 18063.0898 18063.0898
2694 16.5459 18215(136) 18058.5957 18058.5957
2695 16.5519 18243(136) 18054.1035 18054.1035
2696 16.5579 18234(136) 18049.6133 18049.6133
2697 16.5639 18399(137) 18045.1191 18045.1191
2698 16.5699 18461(137) 18040.6270 18040.6270
2699 16.5759 18355(137) 18036.1367 18036.1367
2700 16.5819 18387(137) 18031.6426 18031.6426
2701 16.5879 18519(137) 18027.1504 18027.1504
2702 16.5939 18441(137) 18022.6582 18022.6582
2703 16.5999 18632(138) 18018.1660 18018.1660
2704 16.6059 18502(137) 18013.6738 18013.6738
2705 16.6119 18510(137) 18009.1816 18009.1816
2706 16.6179 18715(138) 18004.6875 18004.6875
2707 16.6239 18725(138) 18000.1973 18000.1973
2708 16.6299 18551(137) 17995.7051 17995.7051
2709 16.6359 18766(138) 17991.2109 17991.2109
2710 16.6419 18754(138) 17986.7207 17986.7207
2711 16.6479 18840(138) 17982.2285 17982.2285
2712 16.6539 18845(138) 18962.4512 17977.7344
2713 16.6599 18993(139) 18993.0879 17973.2422
2714 16.6659 18893(138) 19025.6602 17968.7500
2715 16.6719 18993(139) 19060.2871 17964.2578
2716 16.6779 19116(139) 19097.1211 17959.7656
2717 16.6839 19276(140) 19136.3320 17955.2734
2718 16.6899 19272(140) 19178.0762 17950.7812
2719 16.6959 19317(140) 19222.6465 17946.2891
2720 16.7019 19528(141) 19270.1445 17941.7969
2721 16.7079 19503(141) 19320.9121 17937.3047
2722 16.7139 19531(141) 19375.1914 17932.8125
2723 16.7199 19780(142) 19433.2871 17928.3203
2724 16.7259 19728(141) 19495.5332 17923.8262
2725 16.7319 19748(141) 19562.2617 17919.3359
2726 16.7379 19994(142) 19634.0234 17914.8418
2727 16.7439 19863(142) 19711.0977 17910.3496
2728 16.7499 20039(143) 19794.2109 17905.8574
2729 16.7559 20217(143) 19883.7305 17901.3652
2730 16.7619 20373(144) 19980.4883 17896.8730
2731 16.7679 20614(145) 20085.1719 17892.3809
2732 16.7739 20779(145) 20198.5547 17887.8887
2733 16.7799 20950(146) 20321.8262 17883.3965
2734 16.7859 20936(145) 20455.7617 17878.9043
2735 16.7919 21221(146) 20613.3633 17874.4121
2736 16.7979 21396(147) 20773.2988 17869.9199
2737 16.8039 21625(148) 20948.5430 17865.4277
2738 16.8099 22077(149) 21140.9141 17860.9336
2739 16.8159 22274(150) 21352.6504 17856.4414
2740 16.8219 22662(151) 21586.3613 17851.9512
2741 16.8279 22923(152) 21844.9277 17847.4570
2742 16.8339 23425(154) 22132.4824 17842.9648
2743 16.8399 23853(155) 22452.5605 17838.4746
2744 16.8459 24075(156) 22810.8320 17833.9805
2745 16.8519 24584(157) 23213.2188 17829.4883
2746 16.8579 25165(159) 23667.0918 17824.9961
2747 16.8639 25942(162) 24181.4043 17820.5039
2748 16.8699 26546(164) 24766.7266 17816.0117
2749 16.8759 27414(167) 25437.7930 17811.5195
2750 16.8819 28396(169) 26209.7051 17807.0254
2751 16.8879 29239(172) 27104.9824 17802.5352
2752 16.8939 30469(175) 28149.9648 17798.0430
2753 16.8999 31709(179) 29378.9766 17793.5488
2754 16.9059 33309(184) 30836.4668 17789.0586
2755 16.9119 35121(188) 32579.4727 17784.5664
2756 16.9179 37532(194) 34688.9219 17780.0723
2757 16.9239 39668(200) 37263.1953 17775.5801
2758 16.9299 42774(208) 40448.0703 17771.0898
2759 16.9359 46515(217) 44436.9062 17766.5957
2760 16.9419 50916(227) 49501.3477 17762.1035
2761 16.9479 56749(239) 56022.7500 17757.6113
2762 16.9539 63960(254) 64639.5234 17753.1191
2763 16.9599 74166(273) 75892.1250 17748.6270
2764 16.9659 83268(290) 90815.2969 17744.1348
2765 16.9719 96163(312) 110505.0469 17739.6406
2766 16.9779 109237(332) 135504.8281 17735.1504
2767 16.9839 121312(350) 164462.7344 17730.6582
2768 16.9899 134491(367) 191509.5625 17726.1641
2769 16.9959 141416(377) 206075.4219 17721.6738
2770 17.0019 143584(381) 200212.4375 17717.1797
2771 17.0079 138422(374) 177335.4219 17712.6875
2772 17.0139 129257(361) 148160.3750 17708.1953
2773 17.0199 117047(344) 121043.9531 17703.7031
2774 17.0259 103948(324) 99010.5156 17699.2109
2775 17.0319 87265(296) 82106.8438 17694.7188
2776 17.0379 78554(281) 69369.2969 17690.2266
2777 17.0439 67706(262) 59764.5898 17685.7344
2778 17.0499 60131(246) 52460.0547 17681.2422
2779 17.0559 54011(233) 46824.9375 17676.7500
2780 17.0619 48877(222) 42431.3750 17672.2578
2781 17.0679 44226(212) 38955.7148 17667.7656
2782 17.0739 40698(202) 36177.4727 17663.2734
2783 17.0799 38331(197) 33936.9062 17658.7793
2784 17.0859 35964(191) 32118.9766 17654.2891
2785 17.0919 33964(185) 30642.4434 17649.7949
2786 17.0979 32444(181) 29446.4395 17645.3027
2787 17.1039 30688(176) 28494.8203 17640.8105
2788 17.1099 29768(173) 27759.3574 17636.3184
2789 17.1159 28993(171) 27221.2422 17631.8262
2790 17.1219 28417(169) 26853.0781 17627.3340
2791 17.1279 28123(168) 26589.3633 17622.8418
2792 17.1339 27738(167) 26308.5293 17618.3496
2793 17.1399 27454(166) 25878.2656 17613.8574
2794 17.1459 26962(164) 25277.8027 17609.3633
2795 17.1519 25997(161) 24608.0820 17604.8730
2796 17.1579 25196(159) 23980.4883 17600.3809
2797 17.1639 24224(156) 23446.6836 17595.8867
2798 17.1699 23448(154) 23013.7070 17591.3945
2799 17.1759 23156(153) 22680.9863 17586.9043
2800 17.1819 22508(151) 22412.8398 17582.4102
2801 17.1879 22344(149) 22209.2070 17577.9180
2802 17.1939 22033(149) 22062.1133 17573.4277
2803 17.1999 21819(148) 21967.5000 17568.9336
2804 17.2059 21426(146) 21924.5293 17564.4414
2805 17.2119 21547(147) 21934.8398 17559.9492
2806 17.2179 21546(147) 22003.8613 17555.4570
2807 17.2239 21666(148) 22140.0430 17550.9648
2808 17.2299 21804(148) 22357.1953 17546.4727
2809 17.2359 22142(149) 22674.8633 17541.9785
2810 17.2419 22397(150) 23121.5703 17537.4883
2811 17.2479 23102(153) 23739.3477 17532.9961
2812 17.2539 24127(156) 24584.6406 17528.5020
2813 17.2599 25295(159) 25739.8184 17524.0117
2814 17.2659 26979(165) 27309.6992 17519.5195
2815 17.2719 28902(170) 29411.3438 17515.0254
2816 17.2779 31403(178) 32111.2344 17510.5332
2817 17.2839 34348(185) 35255.9453 17506.0410
2818 17.2899 37170(193) 38207.7734 17501.5488
2819 17.2959 38828(198) 39789.3516 17497.0566
2820 17.3019 39001(198) 39108.6484 17492.5645
2821 17.3079 36465(191) 36528.2109 17488.0723
2822 17.3139 34054(185) 33237.4297 17483.5801
2823 17.3199 30715(175) 30165.6953 17479.0879
2824 17.3259 28098(168) 27910.5664 17474.5957
2825 17.3319 25663(160) 25987.1855 17470.1035
2826 17.3379 24035(155) 24533.1777 17465.6113
2827 17.3439 22691(151) 23429.7031 17461.1172
2828 17.3499 21966(149) 21652.5312 17456.6270
2829 17.3559 21210(146) 21028.6289 17452.1328
2830 17.3619 20667(144) 20543.0898 17447.6406
2831 17.3679 20253(143) 20160.7676 17443.1484
2832 17.3739 19820(141) 19856.5312 17438.6562
2833 17.3799 19785(141) 19612.4941 17434.1641
2834 17.3859 19558(140) 19415.0820 17429.6719
2835 17.3919 19365(140) 19255.1758 17425.1797
2836 17.3979 19252(139) 19125.2930 17420.6875
2837 17.4039 19185(139) 19020.1836 17416.1953
2838 17.4099 19019(138) 18935.9062 17411.7031
2839 17.4159 18808(137) 18869.4590 17407.2109
2840 17.4219 18857(137) 18819.7246 17403.6758
2841 17.4279 18858(138) 18784.1211 17400.1387
2842 17.4339 18859(138) 18761.8691 17396.6035
2843 17.4399 18974(138) 18752.4746 17393.0684
2844 17.4459 18981(138) 18756.0820 17389.5332
2845 17.4519 18931(138) 18773.4668 17385.9961
2846 17.4579 18903(137) 18805.9766 17382.4629
2847 17.4639 19068(138) 18855.9746 17378.9258
2848 17.4699 19152(139) 18927.0215 17375.3906
2849 17.4759 19316(139) 19024.1816 17371.8555
2850 17.4819 19304(139) 19154.8691 17368.3203
2851 17.4879 19334(139) 19317.8770 17364.7832
2852 17.4939 19677(140) 19547.9492 17361.2480
2853 17.4999 20090(141) 19844.1914 17357.7129
2854 17.5059 20384(143) 20204.1445 17354.1777
2855 17.5119 20939(144) 20588.3320 17350.6426
2856 17.5179 21409(146) 20896.9727 17347.1055
2857 17.5239 21954(148) 21014.3242 17343.5703
2858 17.5299 22328(149) 20919.7090 17340.0352
2859 17.5359 22604(150) 20714.8906 17336.5000
2860 17.5419 22479(150) 20516.8047 17332.9629
2861 17.5479 22206(149) 20387.4316 17329.4297
2862 17.5539 21951(148) 21014.1113 17325.8926
2863 17.5599 21932(148) 21072.7051 17322.3574
2864 17.5659 22091(149) 21206.8105 17318.8223
2865 17.5719 22414(149) 21413.5977 17315.2871
2866 17.5779 23078(152) 21695.1074 17311.7500
2867 17.5839 23439(153) 22057.3984 17308.2148
2868 17.5899 24020(155) 22513.5488 17304.6797
2869 17.5959 24569(157) 23082.3926 17301.1445
2870 17.6019 25255(159) 23791.6270 17297.6094
2871 17.6079 26406(163) 24680.2383 17294.0723
2872 17.6139 27693(166) 25802.5508 17290.5371
2873 17.6199 28844(170) 27238.5039 17287.0020
2874 17.6259 30349(174) 29094.0762 17283.4668
2875 17.6319 32556(180) 31527.4141 17279.9297
2876 17.6379 34904(187) 35750.4141 17276.3965
2877 17.6439 37582(193) 40046.5000 17272.8594
2878 17.6499 40096(201) 45540.9375 17269.3242
2879 17.6559 43629(209) 52477.5703 17265.7891
2880 17.6619 46337(215) 60084.7305 17262.2539
2881 17.6679 48355(219) 66361.8750 17258.7168
2882 17.6739 49128(221) 68531.8516 17255.1816
2883 17.6799 48705(220) 65413.8516 17251.6465
2884 17.6859 47076(216) 58811.1328 17248.1113
2885 17.6919 43751(209) 51486.8203 17244.5742
2886 17.6979 41664(204) 45091.2891 17241.0391
2887 17.7039 38796(197) 40893.4844 17237.5039
2888 17.7099 36145(190) 37165.1641 17233.9688
2889 17.7159 34311(185) 34425.3906 17230.4336
2890 17.7219 32625(180) 32433.7363 17226.8965
2891 17.7279 31502(177) 30992.0957 17223.3613
2892 17.7339 30446(174) 29963.1973 17219.8262
2893 17.7399 29747(173) 29248.8223 17216.2910
2894 17.7459 29340(171) 28780.2930 17212.7559
2895 17.7519 29070(171) 28511.5586 17209.2207
2896 17.7579 28901(170) 28408.4180 17205.6836
2897 17.7639 28978(170) 28452.3477 17202.1484
2898 17.7699 29300(171) 28628.6016 17198.6133
2899 17.7759 29700(172) 28932.4805 17195.0781
2900 17.7819 30167(173) 29363.6445 17191.5410
2901 17.7879 30973(175) 29927.1816 17188.0059
2902 17.7939 31766(178) 30634.0195 17184.4707
2903 17.7999 32741(181) 31499.8301 17180.9355
2904 17.8059 34317(185) 32550.9238 17177.4004
2905 17.8119 35738(189) 33816.8359 17173.8652
2906 17.8179 37570(193) 35344.2266 17170.3281
2907 17.8239 39880(199) 37192.2500 17166.7930
2908 17.8299 42452(206) 39441.5586 17163.2578
2909 17.8359 45561(213) 42202.8164 17159.7227
2910 17.8419 49766(222) 45625.5508 17156.1875
2911 17.8479 55880(235) 49928.7266 17152.6504
2912 17.8539 61601(248) 55397.0391 17149.1152
2913 17.8599 71062(265) 62452.1484 17145.5801
2914 17.8659 80927(284) 71653.7891 17142.0449
2915 17.8719 92761(304) 83707.3672 17138.5078
2916 17.8779 108328(328) 99383.6562 17134.9746
2917 17.8839 130406(359) 119100.7578 17131.4375
2918 17.8899 144960(381) 141214.1250 17127.9023
2919 17.8959 160777(401) 161053.5000 17124.3672
2920 17.9019 167201(408) 171135.1250 17120.8320
2921 17.9079 166615(408) 167191.8438 17117.2949
2922 17.9139 159366(398) 153207.6719 17113.7598
2923 17.9199 147022(385) 136997.7188 17110.2246
2924 17.9259 136097(369) 123920.8828 17106.6895
2925 17.9319 129840(360) 115937.2578 17103.1543
2926 17.9379 126991(355) 113385.6016 17099.6172
2927 17.9439 129706(359) 116244.8906 17096.0820
2928 17.9499 136597(370) 124753.7422 17092.5469
2929 17.9559 150489(387) 139474.4375 17089.0117
2930 17.9619 171676(413) 160946.1250 17085.4746
2931 17.9679 189306(435) 188475.8281 17081.9414
2932 17.9739 208914(456) 217886.0000 17078.4043
2933 17.9799 222917(471) 239535.4062 17074.8691
2934 17.9859 226149(475) 242979.2188 17071.3320
2935 17.9919 220317(468) 227224.5781 17067.7988
2936 17.9979 207091(454) 202083.7344 17064.2617
2937 18.0039 189231(434) 178218.7188 17060.7266
2938 18.0099 176267(420) 161153.1719 17057.1914
2939 18.0159 166815(408) 152451.2188 17053.6562
2940 18.0219 165340(406) 151990.4531 17050.1191
2941 18.0279 168886(410) 159852.7812 17046.5840
2942 18.0339 176224(418) 174502.5156 17043.0488
2943 18.0399 183404(428) 191859.2500 17039.5137
2944 18.0459 187837(433) 203714.3906 17035.9785
2945 18.0519 185129(430) 201099.9375 17032.4414
2946 18.0579 174355(417) 182820.7031 17028.9062
2947 18.0639 156093(395) 156463.0625 17025.3711
2948 18.0699 133730(364) 130247.3125 17021.8359
2949 18.0759 115266(339) 108156.5625 17018.3008
2950 18.0819 95365(308) 90840.2500 17014.7656
2951 18.0879 81669(284) 77582.7188 17011.2285
2952 18.0939 70327(264) 67481.1094 17007.6934
2953 18.0999 62316(250) 59710.0234 17004.1582
2954 18.1059 55929(237) 53665.5781 17000.6230
2955 18.1119 50754(225) 48903.8477 16997.0859
2956 18.1179 45967(214) 45110.6094 16993.5508
2957 18.1239 42996(207) 42060.6719 16990.0156
2958 18.1299 40072(200) 39588.4883 16986.4805
2959 18.1359 38152(195) 37583.4297 16982.9453
2960 18.1419 36282(191) 35958.8359 16979.4102
2961 18.1479 34823(186) 34657.6055 16975.8730
2962 18.1539 33466(183) 33640.7500 16972.3379
2963 18.1599 32459(180) 32885.8594 16968.8027
2964 18.1659 31868(178) 32386.4258 16965.2676
2965 18.1719 31426(177) 32150.0781 16961.7324
2966 18.1779 31204(177) 32205.9219 16958.1953
2967 18.1839 31439(177) 32603.0781 16954.6602
2968 18.1899 31737(178) 33421.8516 16951.1250
2969 18.1959 33364(183) 34779.9141 16947.5898
2970 18.2019 35148(187) 36822.4531 16944.0527
2971 18.2079 37504(193) 39701.4805 16940.5195
2972 18.2139 40635(201) 43433.6094 16936.9824
2973 18.2199 43499(208) 47608.7734 16933.4473
2974 18.2259 46136(214) 51026.3594 16929.9121
2975 18.2319 46999(217) 51988.0938 16926.3770
2976 18.2379 45884(214) 49754.0117 16922.8398
2977 18.2439 43132(208) 45402.7383 16919.3047
2978 18.2499 39474(198) 40602.2578 16915.7695
2979 18.2559 35664(189) 35722.8750 16912.2344
2980 18.2619 31715(178) 32359.0332 16908.6992
2981 18.2679 29298(171) 29766.7148 16905.1621
2982 18.2739 26722(163) 27783.6758 16901.6270
2983 18.2799 24977(158) 26252.7422 16898.0918
2984 18.2859 23691(154) 25057.8086 16894.5566
2985 18.2919 22763(151) 24108.4297 16891.0195
2986 18.2979 21750(148) 23344.3359 16887.4863
2987 18.3039 21171(145) 22719.5977 16883.9492
2988 18.3099 20756(144) 22202.8555 16880.4141
2989 18.3159 20397(143) 21771.5430 16876.8770
2990 18.3219 19979(141) 21409.3555 16873.3438
2991 18.3279 19632(140) 21105.0801 16869.8066
2992 18.3339 19456(139) 19869.2441 16866.2715
2993 18.3399 19228(138) 19691.9453 16862.7363
2994 18.3459 19048(138) 19552.3848 16859.2012
2995 18.3519 18927(138) 19442.1816 16855.6641
2996 18.3579 18864(137) 19343.8652 16852.1289
2997 18.3639 18688(137) 19232.2188 16848.5938
2998 18.3699 18549(136) 19091.3711 16845.0586
2999 18.3759 18346(135) 18929.7344 16841.5234
3000 18.3819 18265(135) 18768.5859 16837.9863
3001 18.3879 18086(135) 18621.9004 16834.4512
3002 18.3939 17891(134) 18493.5527 16830.9160
3003 18.3999 17990(134) 17585.2773 16827.3809
3004 18.4059 17912(134) 17514.7754 16823.8457
3005 18.4119 17618(133) 17454.4355 16820.3105
3006 18.4179 17558(132) 17402.0684 16816.7734
3007 18.4239 17572(133) 17356.1289 16813.2383
3008 18.4299 17425(132) 17315.3301 16809.7031
3009 18.4359 17338(132) 17278.7461 16806.1680
3010 18.4419 17244(131) 17245.6855 16802.6309
3011 18.4479 17313(132) 17215.5879 16799.0957
3012 18.4539 17339(132) 17188.0391 16795.5605
3013 18.4599 17323(132) 17162.6445 16792.0254
3014 18.4659 17105(131) 17139.1699 16788.4902
3015 18.4719 17071(130) 17117.3379 16784.9531
3016 18.4779 17051(130) 17096.9941 16781.4180
3017 18.4839 17112(131) 17077.9453 16777.8828
3018 18.4899 17109(131) 17060.0586 16774.3477
3019 18.4959 16898(130) 17043.2227 16770.8125
3020 18.5019 16948(130) 17027.3105 16767.2773
3021 18.5079 16870(130) 17012.2578 16763.7402
3022 18.5139 16994(130) 16997.9648 16760.2051
3023 18.5199 17022(130) 16984.3828 16756.6699
3024 18.5259 16940(130) 16971.4336 16753.1348
3025 18.5319 16835(129) 16959.0664 16749.5977
3026 18.5379 16809(130) 16947.2344 16746.0625
3027 18.5439 16931(130) 16937.0352 16742.5273
3028 18.5499 16881(130) 16926.1934 16738.9922
3029 18.5559 16891(130) 16915.7617 16735.4570
3030 18.5619 17088(131) 16905.7285 16731.9219
3031 18.5679 17105(131) 16896.0488 16728.3848
3032 18.5739 16754(129) 16886.7070 16724.8496
3033 18.5799 17014(130) 16895.0625 16738.7031
3034 18.5859 17072(131) 16759.0156 16752.5527
3035 18.5919 16987(130) 16772.6855 16766.4062
3036 18.5979 17063(131) 16786.3789 16780.2598
3037 18.6039 17078(131) 17136.5918 16794.1152
3038 18.6099 16993(130) 17162.3184 16807.9648
3039 18.6159 17135(131) 17188.7285 16821.8184
3040 18.6219 17259(132) 17215.8574 16835.6719
3041 18.6279 17196(131) 17243.7461 16849.5215
3042 18.6339 17308(132) 17272.4863 16863.3750
3043 18.6399 17293(131) 17302.1016 16877.2285
3044 18.6459 17203(131) 17332.6992 16891.0820
3045 18.6519 17322(131) 17364.3105 16904.9316
3046 18.6579 17287(132) 17397.0625 16918.7852
3047 18.6639 17481(132) 17431.0371 16932.6406
3048 18.6699 17672(133) 17466.3359 16946.4941
3049 18.6759 17509(132) 17503.0742 16960.3438
3050 18.6819 17718(133) 17541.3750 16974.1973
3051 18.6879 17791(133) 17581.4297 16988.0508
3052 18.6939 17882(134) 17623.3359 17001.9004
3053 18.6999 18023(134) 17667.3398 17015.7539
3054 18.7059 18124(135) 17713.6309 17029.6074
3055 18.7119 18243(135) 17762.4570 17043.4609
3056 18.7179 18436(136) 17812.1582 17057.3105
3057 18.7239 18533(136) 17866.9648 17071.1660
3058 18.7299 18664(136) 17925.3105 17085.0195
3059 18.7359 18802(137) 17987.4766 17098.8730
3060 18.7419 18799(137) 18053.9180 17112.7227
3061 18.7479 19044(138) 18124.9199 17126.5762
3062 18.7539 18982(138) 18200.7441 17140.4297
3063 18.7599 19069(138) 18281.8730 17154.2793
3064 18.7659 19125(138) 18369.1855 17168.1328
3065 18.7719 19314(139) 18464.0352 17181.9863
3066 18.7779 19405(139) 18567.4824 17195.8418
3067 18.7839 19497(140) 18680.9980 17209.6914
3068 18.7899 19717(141) 18806.0176 17223.5449
3069 18.7959 19741(141) 18944.2695 17237.3984
3070 18.8019 20048(142) 19097.8555 17251.2520
3071 18.8079 20201(142) 19269.2109 17265.1016
3072 18.8139 20376(143) 19461.7734 17278.9551
3073 18.8199 20499(143) 19678.9160 17292.8086
3074 18.8259 20902(145) 19925.7363 17306.6582
3075 18.8319 21178(146) 20208.0645 17320.5117
3076 18.8379 21545(147) 20533.3652 17334.3672
3077 18.8439 21992(148) 20911.1797 17348.2207
3078 18.8499 22496(150) 21353.4512 17362.0703
3079 18.8559 23242(152) 21876.9805 17375.9238
3080 18.8619 23740(154) 22501.2754 17389.7773
3081 18.8679 24710(157) 23255.0820 17403.6309
3082 18.8739 25838(161) 24171.8672 17417.4805
3083 18.8799 27023(164) 25298.1133 17431.3340
3084 18.8859 28381(169) 26690.5586 17445.1895
3085 18.8919 30890(176) 28426.1719 17459.0371
3086 18.8979 33080(181) 30629.2969 17472.8926
3087 18.9039 35911(190) 33479.8633 17486.7461
3088 18.9099 39663(199) 37244.8672 17500.5996
3089 18.9159 43492(208) 42244.3672 17514.4492
3090 18.9219 48123(220) 48847.2188 17528.3027
3091 18.9279 55118(235) 57263.9258 17542.1562
3092 18.9339 59879(245) 67065.4375 17556.0098
3093 18.9399 63460(251) 76352.5469 17569.8594
3094 18.9459 65405(257) 81593.2969 17583.7148
3095 18.9519 65217(256) 79970.3750 17597.5684
3096 18.9579 62011(249) 72430.6719 17611.4180
3097 18.9639 56891(239) 62563.4531 17625.2715
3098 18.9699 49885(223) 53271.0898 17639.1250
3099 18.9759 45439(213) 45682.1406 17652.9785
3100 18.9819 40416(201) 39844.8438 17666.8281
3101 18.9879 36464(191) 35444.4648 17680.6816
3102 18.9939 33403(183) 32121.6914 17694.5352
3103 18.9999 30737(176) 29596.9512 17708.3906
3104 19.0059 28218(168) 27650.4746 17722.2383
3105 19.0119 26890(164) 26130.3086 17736.0938
3106 19.0179 25620(161) 24926.9043 17749.9473
3107 19.0239 24363(156) 23961.9648 17763.7969
3108 19.0299 23491(153) 23179.4531 17777.6504
3109 19.0359 22634(151) 22536.7344 17791.5039
3110 19.0419 21836(148) 22004.9824 17805.3574
3111 19.0479 21503(147) 21560.1914 17819.2070
3112 19.0539 21120(145) 21185.3965 17833.0605
3113 19.0599 20733(145) 20867.2695 17846.9160
3114 19.0659 20210(142) 20595.4609 17860.7695
3115 19.0719 19911(141) 20361.9961 17874.6191
3116 19.0779 19591(140) 20159.9980 17888.4727
3117 19.0839 19359(139) 19984.8652 17902.3262
3118 19.0899 19192(139) 19832.0508 17916.1758
3119 19.0959 19201(139) 19698.3008 17930.0293
3120 19.1019 18792(137) 19580.8398 17943.8828
3121 19.1079 18657(137) 19481.3789 17957.7363
3122 19.1139 18296(135) 19390.2012 17971.5859
3123 19.1199 18325(136) 19309.4062 17985.4414
3124 19.1259 18358(135) 19237.8828 17999.2949
3125 19.1319 18133(135) 19174.2812 18013.1484
3126 19.1379 18138(135) 19117.8320 18026.9980
3127 19.1439 17977(134) 19067.5781 18040.8516
3128 19.1499 18088(135) 19022.8516 18054.7051
3129 19.1559 18015(135) 18983.0742 18068.5547
3130 19.1619 17971(134) 18947.6250 18082.4082
3131 19.1679 17853(134) 18916.1680 18096.2617
3132 19.1739 17884(134) 18888.1895 18110.1172
3133 19.1799 17843(134) 18863.4395 18123.9668
3134 19.1859 17834(134) 18842.1719 18137.8203
3135 19.1919 17767(133) 18822.9004 18151.6738
3136 19.1979 17698(133) 18805.9941 18165.5273
3137 19.2039 17672(133) 18791.2402 18179.3770
3138 19.2099 17743(133) 18760.3828 18175.1406
3139 19.2159 17897(134) 18731.2969 18170.9043
3140 19.2219 18014(135) 18703.8945 18166.6699
3141 19.2279 17909(134) 18677.9980 18162.4355
3142 19.2339 17975(135) 18653.5020 18158.1992
3143 19.2399 17953(134) 18630.3047 18153.9629
3144 19.2459 17814(134) 18607.2129 18149.7285
3145 19.2519 17973(135) 18586.3867 18145.4922
3146 19.2579 17938(134) 18566.5859 18141.2578
3147 19.2639 17934(135) 18547.7832 18137.0215
3148 19.2699 17799(134) 18547.4434 18132.7871
3149 19.2759 18021(135) 18531.0430 18128.5508
3150 19.2819 17943(134) 18515.5059 18124.3145
3151 19.2879 17915(134) 18500.7910 18120.0781
3152 19.2939 17902(134) 18486.8848 18115.8438
3153 19.2999 17999(134) 18153.6191 18111.6094
3154 19.3059 17993(135) 18151.8262 18107.3730
3155 19.3119 18015(135) 18150.2773 18103.1387
3156 19.3179 18091(135) 18149.0059 18098.9023
3157 19.3239 18084(135) 18148.0625 18094.6660
3158 19.3299 18189(135) 18147.4941 18090.4316
3159 19.3359 18068(135) 18147.3672 18086.1953
3160 19.3419 18174(135) 18147.7617 18081.9609
3161 19.3479 17938(134) 18148.7793 18077.7246
3162 19.3539 18139(135) 18150.5391 18073.4883
3163 19.3599 18145(135) 18153.2031 18069.2539
3164 19.3659 18305(136) 18156.9824 18065.0176
3165 19.3719 18283(136) 18195.6016 18060.7832
3166 19.3779 18158(135) 18203.6699 18056.5488
3167 19.3839 18341(136) 18213.9941 18052.3125
3168 19.3899 18460(137) 18227.2188 18048.0762
3169 19.3959 18538(136) 18244.2148 18043.8398
3170 19.4019 18433(136) 18266.1895 18039.6055
3171 19.4079 18556(137) 18295.9219 18035.3691
3172 19.4139 18458(136) 18333.6699 18031.1348
3173 19.4199 18547(137) 18383.7656 18026.8984
3174 19.4259 18731(137) 18450.2246 18022.6641
3175 19.4319 18797(138) 18537.5566 18018.4277
3176 19.4379 19131(139) 18647.6934 18014.1914
3177 19.4439 19501(140) 18773.1758 18009.9570
3178 19.4499 19874(142) 18887.3242 18005.7227
3179 19.4559 19558(140) 18945.1738 18001.4863
3180 19.4619 19570(141) 18918.0410 17997.2500
3181 19.4679 19496(140) 18825.5820 17993.0156
3182 19.4739 19315(140) 18713.2480 17988.7793
3183 19.4799 19345(139) 18613.6250 17984.5430
3184 19.4859 19283(139) 18538.2676 17980.3086
3185 19.4919 19366(140) 18487.2559 17976.0742
3186 19.4979 19417(140) 18457.3633 17971.8379
3187 19.5039 19477(140) 18445.3438 17967.6016
3188 19.5099 19529(140) 18448.9512 17963.3672
3189 19.5159 19638(141) 18466.1719 17959.1309
3190 19.5219 19716(141) 18493.7734 17954.8945
3191 19.5279 19936(142) 18525.9824 17950.6602
3192 19.5339 19974(142) 18556.3926 17946.4258
3193 19.5399 19949(142) 18584.6211 17942.1895
3194 19.5459 20117(143) 18618.0312 17937.9531
3195 19.5519 20272(143) 18666.3125 17933.7168
3196 19.5579 20128(142) 18737.2754 17929.4824
3197 19.5639 20402(144) 18837.8730 17925.2480
3198 19.5699 20699(145) 18976.7188 17921.0117
3199 19.5759 20816(145) 19165.0801 17916.7773
3200 19.5819 21306(147) 19418.9473 17912.5410
3201 19.5879 21433(147) 19756.7695 17908.3047
3202 19.5939 21880(149) 20192.6367 17904.0684
3203 19.5999 22364(150) 20714.1016 17899.8340
3204 19.6059 22816(152) 21240.5566 17895.5996
3205 19.6119 22953(152) 21601.1387 17891.3633
3206 19.6179 22949(152) 21625.7461 17887.1270
3207 19.6239 22825(152) 21321.8906 17882.8926
3208 19.6299 22553(151) 20866.7637 17878.6562
3209 19.6359 22310(150) 20431.2500 17874.4219
3210 19.6419 21795(148) 20094.7285 17870.1855
3211 19.6479 21704(148) 19872.5430 17865.9512
3212 19.6539 21441(147) 19755.6250 17861.7148
3213 19.6599 21435(147) 19735.1836 17857.4785
3214 19.6659 21351(147) 19807.0195 17853.2441
3215 19.6719 21692(148) 19977.2188 17849.0078
3216 19.6779 21808(149) 20261.2578 17844.7734
3217 19.6839 22105(149) 20684.6426 17840.5371
3218 19.6899 22567(151) 21278.7109 17836.3027
3219 19.6959 23370(153) 22062.4277 17832.0664
3220 19.7019 24108(156) 22997.9297 17827.8301
3221 19.7079 24573(157) 23902.1602 17823.5957
3222 19.7139 24949(159) 24431.4961 17819.3594
3223 19.7199 24704(158) 24293.0859 17815.1250
3224 19.7259 23887(155) 23559.9492 17810.8887
3225 19.7319 23085(153) 22584.5996 17806.6543
3226 19.7379 22034(150) 21663.7148 17802.4180
3227 19.7439 21265(147) 20913.3438 17798.1816
3228 19.7499 20628(144) 20336.2734 17793.9473
3229 19.7559 20020(142) 19888.8828 17789.7129
3230 19.7619 19734(141) 19529.6543 17785.4766
3231 19.7679 19290(139) 19235.2598 17781.2402
3232 19.7739 18934(138) 18995.5273 17777.0059
3233 19.7799 18805(138) 18802.6973 17772.7695
3234 19.7859 18766(138) 18647.8730 17768.5332
3235 19.7919 18376(136) 18523.0996 17764.2988
3236 19.7979 18241(136) 18626.2930 17760.0645
3237 19.8039 18223(136) 18549.5391 17755.8281
3238 19.8099 17992(135) 18483.0410 17751.5918
3239 19.8159 17989(135) 18431.8184 17747.3555
3240 19.8219 17881(134) 18389.6406 17743.1211
3241 19.8279 17767(134) 18354.7871 17738.8867
3242 19.8339 17749(134) 18326.0605 17734.6504
3243 19.8399 17706(134) 18302.4629 17730.4160
3244 19.8459 17556(133) 18283.2559 17726.1797
3245 19.8519 17511(133) 18267.8691 17721.9434
3246 19.8579 17457(133) 18255.9062 17717.7070
3247 19.8639 17481(133) 18246.9277 17713.4727
3248 19.8699 17363(132) 18240.7168 17709.2383
3249 19.8759 17323(132) 18237.0723 17705.0020
3250 19.8819 17279(132) 18235.2500 17700.7656
3251 19.8879 17223(131) 18236.3984 17696.5312
3252 19.8939 17386(133) 18215.2266 17667.6855
3253 19.8999 17224(132) 18196.3262 17638.8398
3254 19.9059 17257(132) 18179.7168 17610.0020
3255 19.9119 17350(132) 18168.1035 17581.1562
3256 19.9179 17516(133) 18156.3574 17552.3105
3257 19.9239 17302(132) 18147.1973 17523.4648
3258 19.9299 17470(133) 18140.7363 17494.6270
3259 19.9359 17468(133) 18137.2012 17465.7812
3260 19.9419 17275(132) 18136.8262 17436.9355
3261 19.9479 17353(132) 18139.9004 17408.0879
3262 19.9539 17468(133) 18146.7871 17379.2520
3263 19.9599 17555(133) 18157.8496 17350.4062
3264 19.9659 17377(132) 18156.7441 17321.5586
3265 19.9719 17477(133) 18178.3555 17292.7129
3266 19.9779 17782(134) 18205.9609 17263.8770
3267 19.9839 17678(134) 18240.3398 17235.0312
3268 19.9899 17640(134) 18282.4922 17206.1836
3269 19.9959 17881(134) 18333.6172 17177.3477
3270 20.0019 17821(134) 18395.0723 17148.5020
3271 20.0079 17962(135) 18468.7949 17119.6562
3272 20.0139 18011(135) 18556.6562 17090.8086
3273 20.0199 18402(136) 18661.5078 17061.9727
3274 20.0259 18684(138) 18786.5215 17033.1270
3275 20.0319 18670(137) 18935.7930 17004.2793
3276 20.0379 18738(138) 19114.4902 16975.4336
3277 20.0439 19153(139) 19329.0430 16946.5977
3278 20.0499 19414(140) 19588.4375 16917.7500
3279 20.0559 19799(141) 19903.0332 16888.9043
3280 20.0619 20207(143) 20288.0781 16860.0684
3281 20.0679 20680(144) 20730.9727 16831.2227
3282 20.0739 21172(146) 21323.2051 16802.3750
3283 20.0799 22078(149) 22068.8672 16773.5293
3284 20.0859 23084(153) 23016.1738 16744.6934
3285 20.0919 24388(157) 24238.5938 16715.8477
3286 20.0979 25605(160) 25831.9414 16687.0000
3287 20.1039 27060(165) 27937.9453 16658.1543
3288 20.1099 29105(171) 30733.1953 16629.3184
3289 20.1159 31775(179) 34442.0938 16600.4707
3290 20.1219 34180(186) 39239.6094 16571.6250
3291 20.1279 36577(192) 45026.2227 16542.7891
3292 20.1339 38835(198) 50978.9766 16513.9414
3293 20.1399 39953(201) 55166.9922 16485.0957
3294 20.1459 39996(201) 55501.7109 16456.2500
3295 20.1519 39066(198) 51772.7852 16427.4141
3296 20.1579 36666(192) 45902.1406 16398.5664
3297 20.1639 34634(187) 39949.2266 16369.7207
3298 20.1699 31932(180) 34918.9062 16340.8750
3299 20.1759 29466(173) 30990.7090 16312.0381
3300 20.1819 27322(166) 28011.7578 16283.1924
3301 20.1879 25569(161) 25758.5352 16254.3457
3302 20.1939 24083(156) 24046.6992 16225.5088
3303 20.1999 22695(151) 22728.1406 16196.6631
3304 20.2059 21755(148) 21699.6895 16167.8164
3305 20.2119 20903(145) 20887.5625 16138.9707
3306 20.2179 20395(144) 20240.4355 16110.1338
3307 20.2239 19814(142) 19844.2598 16081.2881
3308 20.2299 19524(140) 19435.2617 16052.4414
3309 20.2359 19142(139) 19113.8359 16023.5957
3310 20.2419 19010(139) 18864.2656 15994.7588
3311 20.2479 18698(137) 18667.7441 15965.9121
3312 20.2539 18666(137) 18494.2891 15937.0664
3313 20.2599 18655(137) 18307.8711 15908.2295
3314 20.2659 18473(136) 18091.3574 15879.3838
3315 20.2719 18189(135) 17859.3008 15850.5371
3316 20.2779 18115(135) 17637.6973 15821.6914
3317 20.2839 17921(135) 17440.6367 15792.8545
3318 20.2899 17564(133) 17270.7363 15764.0078
3319 20.2959 17448(133) 17124.9531 15735.1621
3320 20.3019 17405(132) 16999.0605 15706.3164
3321 20.3079 17276(132) 16889.2871 15677.4795
3322 20.3139 17142(131) 16792.4590 15648.6328
3323 20.3199 17105(132) 16706.4902 15619.7871
3324 20.3259 16969(130) 16629.5312 15590.9502
3325 20.3319 17125(132) 16560.3535 15562.1035
3326 20.3379 17010(131) 16497.9824 15533.2578
3327 20.3439 16886(130) 16441.7480 15504.4121
3328 20.3499 16872(130) 16391.1406 15475.5742
3329 20.3559 16813(130) 16345.7666 15446.7285
3330 20.3619 16742(130) 16305.5273 15417.8828
3331 20.3679 16827(130) 16270.3057 15389.0371
3332 20.3739 17048(131) 16240.2959 15360.1992
3333 20.3799 16720(129) 16215.7148 15331.3535
3334 20.3859 16768(130) 16217.5645 15322.9316
3335 20.3919 16874(130) 16226.1182 15314.5127
3336 20.3979 16881(131) 16242.3975 15306.0908
3337 20.4039 16903(130) 16267.4521 15297.6689
3338 20.4099 16871(130) 16301.7148 15289.2471
3339 20.4159 16951(131) 16343.4531 15280.8281
3340 20.4219 16872(130) 16386.9531 15272.4062
3341 20.4279 16929(130) 16424.2930 15263.9844
3342 20.4339 16970(131) 16452.6074 15255.5625
3343 20.4399 16983(131) 16479.7656 15247.1436
3344 20.4459 17005(131) 16513.9102 15238.7217
3345 20.4519 17012(131) 16562.8750 15230.2998
3346 20.4579 16971(130) 16630.3945 15221.8809
3347 20.4639 17194(132) 16718.7812 15213.4590
3348 20.4699 17268(132) 16831.0742 15205.0371
3349 20.4759 17483(133) 16970.7773 15196.6152
3350 20.4819 17666(133) 17143.6211 15188.1963
3351 20.4879 17941(134) 17357.0488 15179.7744
3352 20.4939 18259(136) 17422.1992 15171.3525
3353 20.4999 18884(137) 17758.1719 15162.9307
3354 20.5059 19564(141) 18178.0273 15154.5117
3355 20.5119 20363(143) 18709.7480 15146.0898
3356 20.5179 21493(147) 19389.7910 15137.6680
3357 20.5239 22892(152) 20272.5117 15129.2480
3358 20.5299 24699(158) 21431.7539 15120.8271
3359 20.5359 27733(167) 22968.1582 15112.4053
3360 20.5419 30322(175) 25007.2715 15103.9834
3361 20.5479 33726(185) 27669.3086 15095.5635
3362 20.5539 36761(192) 30976.5586 15087.1416
3363 20.5599 39682(200) 34594.5938 15078.7207
3364 20.5659 41185(204) 37581.4297 15070.2988
3365 20.5719 40216(201) 38590.1719 15061.8789
3366 20.5779 38473(196) 37045.1055 15053.4570
3367 20.5839 35002(187) 33794.7500 15045.0352
3368 20.5899 31592(178) 30170.3633 15036.6162
3369 20.5959 28115(168) 26971.6836 15028.1943
3370 20.6019 25412(160) 24479.4980 15019.7725
3371 20.6079 23019(152) 22541.7734 15011.3506
3372 20.6139 21364(146) 21078.1465 15002.9316
3373 20.6199 20147(142) 19969.3398 14994.5098
3374 20.6259 19040(139) 19119.0469 14986.0879
3375 20.6319 18441(136) 18458.0039 14977.6660
3376 20.6379 18026(135) 17936.6797 14969.2471
3377 20.6439 17308(132) 17520.0000 14960.8252
3378 20.6499 16896(130) 17181.9453 14952.4033
3379 20.6559 16637(129) 16905.0176 14943.9844
3380 20.6619 16462(128) 16675.5234 14935.5625
3381 20.6679 16160(127) 16482.9766 14927.1406
3382 20.6739 16063(127) 16320.1924 14918.7188
3383 20.6799 16100(127) 16181.4473 14910.2998
3384 20.6859 15575(125) 16062.4141 14901.8779
3385 20.6919 15840(126) 15959.4834 14893.4561
3386 20.6979 15476(125) 15870.2480 14885.0342
3387 20.7039 15519(125) 15792.4492 14876.6152
3388 20.7099 15369(124) 15724.4990 14868.1934
3389 20.7159 15343(124) 15665.1445 14859.7715
3390 20.7219 15288(124) 15613.4014 14851.3496
3391 20.7279 15362(124) 15568.6162 14842.9307
3392 20.7339 15113(123) 15530.2500 14834.5088
3393 20.7399 15278(124) 15505.2197 14833.0850
3394 20.7459 15221(124) 15486.5352 14831.6611
3395 20.7519 15167(124) 15692.0723 14830.2373
3396 20.7579 15181(124) 15694.9395 14828.8135
3397 20.7639 15159(123) 15706.2861 14827.3887
3398 20.7699 15174(124) 15726.2510 14825.9658
3399 20.7759 15265(124) 15752.5078 14824.5420
3400 20.7819 15271(124) 15777.4277 14823.1172
3401 20.7879 15236(124) 15792.0312 14821.6934
3402 20.7939 15302(124) 15789.8867 14820.2695
3403 20.7999 15292(124) 15776.5244 14818.8457
3404 20.8059 15243(123) 15762.6768 14817.4219
3405 20.8119 15219(124) 15755.6143 14815.9980
3406 20.8179 15392(125) 15758.0156 14814.5742
3407 20.8239 15284(124) 15770.1162 14813.1504
3408 20.8299 15318(124) 15791.5234 14811.7266
3409 20.8359 15450(125) 15822.0059 14810.3027
3410 20.8419 15307(124) 15861.7354 14808.8789
3411 20.8479 15382(124) 15911.2578 14807.4541
3412 20.8539 15636(126) 15971.7207 14806.0303
3413 20.8599 15650(126) 16044.6592 14804.6074
3414 20.8659 15760(126) 16132.4648 14803.1826
3415 20.8719 15863(126) 16238.2393 14801.7588
3416 20.8779 15890(126) 16366.2168 14800.3350
3417 20.8839 16169(128) 16522.5000 14798.9111
3418 20.8899 16415(129) 16714.9531 14797.4873
3419 20.8959 16512(128) 16955.3340 14796.0635
3420 20.9019 16803(130) 17259.0566 14794.6396
3421 20.9079 17178(131) 17648.6699 14793.2158
3422 20.9139 17719(134) 18154.1445 14791.7920
3423 20.9199 18300(135) 18814.8945 14790.3672
3424 20.9259 18921(138) 19561.2793 14788.9443
3425 20.9319 19892(142) 20670.5625 14787.5195
3426 20.9379 20711(144) 22020.6113 14786.0957
3427 20.9439 21401(147) 23472.3008 14784.6729
3428 20.9499 22006(149) 24666.4824 14783.2480
3429 20.9559 22229(149) 25127.1094 14781.8242
3430 20.9619 22152(149) 24630.0312 14780.4004
3431 20.9679 21853(148) 23499.8770 14778.9766
3432 20.9739 21066(146) 22226.7520 14777.5527
3433 20.9799 20662(144) 21115.7773 14776.1289
3434 20.9859 20048(142) 20268.2188 14774.7051
3435 20.9919 19733(141) 19672.9277 14773.2812
3436 20.9979 19288(139) 19290.9160 14771.8574
3437 21.0039 19358(140) 19081.9824 14770.4326
3438 21.0099 19424(139) 19015.2812 14769.0098
3439 21.0159 19668(141) 19067.2422 14767.5850
3440 21.0219 20055(142) 19225.3398 14766.1611
3441 21.0279 20452(143) 19511.2344 14764.7373
3442 21.0339 21002(145) 19896.6270 14763.3135
3443 21.0399 21892(148) 20424.9531 14761.8896
3444 21.0459 22737(151) 21129.8086 14760.4658
3445 21.0519 24197(156) 22060.2559 14759.0420
3446 21.0579 25952(161) 23287.4043 14757.6182
3447 21.0639 27900(167) 24908.3594 14756.1943
3448 21.0699 30948(176) 27063.4219 14754.7705
3449 21.0759 34538(186) 29923.6250 14753.3467
3450 21.0819 39025(197) 33702.5938 14751.9229
3451 21.0879 45066(212) 38587.1953 14750.4980
3452 21.0939 50720(225) 44583.4844 14749.0742
3453 21.0999 56860(239) 51145.5859 14747.6504
3454 21.1059 60010(246) 56737.7188 14746.2266
3455 21.1119 60899(247) 59114.7031 14744.8027
3456 21.1179 59160(243) 57019.7539 14743.3789
3457 21.1239 54832(234) 51551.3125 14741.9551
3458 21.1299 48907(221) 44961.5703 14740.5312
3459 21.1359 42536(207) 38862.5625 14739.1074
3460 21.1419 37237(193) 33855.1406 14737.6836
3461 21.1479 33033(182) 29962.8691 14736.2598
3462 21.1539 28626(169) 26994.7891 14734.8359
3463 21.1599 26286(162) 24747.4375 14733.4111
3464 21.1659 24178(156) 23034.4844 14731.9883
3465 21.1719 22738(151) 21716.5176 14730.5635
3466 21.1779 21442(147) 20688.9629 14729.1396
3467 21.1839 20600(143) 19876.2480 14727.7158
3468 21.1899 19675(141) 19224.9805 14726.2920
3469 21.1959 19007(138) 18695.8359 14724.8682
3470 21.2019 18837(138) 18262.7520 14723.4443
3471 21.2079 18341(136) 17904.8574 14722.0205
3472 21.2139 18140(135) 17607.6992 14720.5967
3473 21.2199 17810(134) 17360.3320 14719.1729
3474 21.2259 17582(133) 17154.5137 14717.7490
3475 21.2319 17331(132) 16984.3047 14716.3252
3476 21.2379 17319(132) 16844.9844 14714.9014
3477 21.2439 17261(132) 16948.7480 14713.4766
3478 21.2499 17133(131) 16871.2754 14712.0527
3479 21.2559 17110(131) 16820.6348 14710.6289
3480 21.2619 17163(131) 16798.0430 14709.2051
3481 21.2679 17251(132) 16806.5098 14707.7812
3482 21.2739 17388(132) 16851.3828 14706.3574
3483 21.2799 17405(132) 16940.1660 14704.9336
3484 21.2859 17610(133) 17082.5469 14703.5098
3485 21.2919 17883(134) 17289.5508 14702.0859
3486 21.2979 18110(134) 17569.2090 14700.6621
3487 21.3039 18498(136) 17916.2461 14699.2383
3488 21.3099 18788(137) 18288.6758 14697.8145
3489 21.3159 18973(138) 18569.7520 14696.3896
3490 21.3219 19013(138) 18691.8770 14694.9668
3491 21.3279 19169(139) 18594.5352 14693.5420
3492 21.3339 18995(138) 18364.4805 14692.1182
3493 21.3399 18904(138) 18128.8203 14690.6943
3494 21.3459 18807(137) 17973.7344 14689.2705
3495 21.3519 18841(137) 17939.5391 14687.8467
3496 21.3579 18898(137) 18040.3730 14686.4229
3497 21.3639 19228(139) 18281.3242 14684.9990
3498 21.3699 19673(140) 18656.9941 14683.5752
3499 21.3759 20314(142) 19144.1523 14682.1514
3500 21.3819 20587(144) 19673.6094 14680.7275
3501 21.3879 21009(145) 20104.9648 14679.3037
3502 21.3939 21155(146) 20249.2109 14677.8799
3503 21.3999 20917(145) 20015.4980 14676.4551
3504 21.4059 20652(144) 19508.9883 14675.0322
3505 21.4119 20158(142) 18922.6660 14673.6074
3506 21.4179 19683(140) 18389.6113 14672.1836
3507 21.4239 19208(139) 17960.2168 14670.7598
3508 21.4299 18951(138) 17744.4160 14669.3359
3509 21.4359 18752(136) 17516.1719 14667.9121
3510 21.4419 18632(137) 17368.3203 14666.4883
3511 21.4479 18467(136) 17285.6797 14665.0645
3512 21.4539 18362(136) 17248.7832 14663.6406
3513 21.4599 18442(136) 17234.9922 14662.2168
3514 21.4659 18440(136) 17228.5625 14660.7930
3515 21.4719 18578(136) 17228.4922 14659.3682
3516 21.4779 18565(136) 17034.8965 14657.9453
3517 21.4839 18558(136) 17086.8398 14656.5205
3518 21.4899 18630(137) 17172.3535 14655.0967
3519 21.4959 18627(137) 17294.3906 14653.6729
3520 21.5019 18838(137) 17455.2480 14652.2490
3521 21.5079 19053(138) 17658.7773 14650.8252
3522 21.5139 19591(140) 17909.5625 14649.4014
3523 21.5199 19825(141) 18215.7227 14647.9775
3524 21.5259 20271(143) 18587.8750 14646.5537
3525 21.5319 20779(144) 19041.2539 14645.1299
3526 21.5379 21455(147) 19597.1523 14643.7051
3527 21.5439 22248(149) 20285.3086 14642.2822
3528 21.5499 23400(153) 21150.0664 14640.8584
3529 21.5559 24688(157) 22249.6797 14639.4336
3530 21.5619 26405(163) 23669.8750 14638.0107
3531 21.5679 29239(171) 25522.7578 14636.5859
3532 21.5739 31780(178) 27953.3516 14635.1621
3533 21.5799 35693(189) 31137.4082 14633.7383
3534 21.5859 40179(200) 35251.6523 14632.3145
3535 21.5919 47009(216) 40432.7422 14630.8906
3536 21.5979 53579(232) 46567.8984 14629.4668
3537 21.6039 61979(248) 53018.9922 14628.0430
3538 21.6099 65846(257) 58251.0391 14626.6191
3539 21.6159 67900(261) 60287.3945 14625.1953
3540 21.6219 66234(258) 58178.7344 14623.7705
3541 21.6279 60775(246) 53296.2266 14622.3477
3542 21.6339 53345(231) 47046.7344 14620.9238
3543 21.6399 45019(212) 41210.4844 14619.4990
3544 21.6459 39796(199) 36392.6094 14618.0752
3545 21.6519 35289(188) 32699.3750 14616.6514
3546 21.6579 31838(178) 30008.0762 14615.2275
3547 21.6639 29154(171) 28155.8496 14613.8037
3548 21.6699 27368(166) 26981.7539 14612.3799
3549 21.6759 26538(163) 26320.4336 14610.9561
3550 21.6819 25593(159) 25974.0801 14609.5322
3551 21.6879 25062(158) 25681.9434 14608.1084
3552 21.6939 24328(156) 25187.4922 14606.6846
3553 21.6999 23821(154) 24433.7500 14605.2607
3554 21.7059 23050(152) 23534.9688 14603.8359
3555 21.7119 22433(150) 22671.8086 14602.4121
3556 21.7179 22020(148) 21960.1719 14600.9893
3557 21.7239 21621(147) 21439.5586 14599.5645
3558 21.7299 21455(147) 21111.9922 14598.1406
3559 21.7359 21282(146) 20970.3281 14596.7168
3560 21.7419 21232(146) 21010.9980 14595.2930
3561 21.7479 21387(146) 21241.0391 14593.8691
3562 21.7539 21751(147) 21686.5684 14592.4453
3563 21.7599 22362(149) 22386.4180 14591.0215
3564 21.7659 22783(151) 23382.6094 14589.5977
3565 21.7719 23714(154) 24791.0781 14588.1738
3566 21.7779 24452(156) 26677.6230 14586.7490
3567 21.7839 25520(160) 29111.0762 14585.3262
3568 21.7899 26575(163) 32076.6445 14583.9023
3569 21.7959 28097(167) 35349.8086 14582.4775
3570 21.8019 28675(169) 38301.1016 14581.0537
3571 21.8079 29451(171) 39958.0430 14579.6299
3572 21.8139 29586(172) 39571.3281 14578.2061
3573 21.8199 29480(171) 37324.5742 14576.7822
3574 21.8259 28935(170) 34143.9219 14575.3584
3575 21.8319 27750(166) 30917.7793 14573.9346
3576 21.8379 26939(164) 28106.3398 14572.5107
3577 21.8439 25990(161) 25847.9219 14571.0869
3578 21.8499 24867(158) 24107.5312 14569.6631
3579 21.8559 23931(154) 22804.3906 14568.2393
3580 21.8619 23466(153) 21849.6602 14566.8145
3581 21.8679 22809(151) 21166.0234 14565.3906
3582 21.8739 22514(150) 20691.7051 14563.9678
3583 21.8799 22401(150) 20380.0078 14562.5430
3584 21.8859 22176(149) 20200.1855 14561.1191
3585 21.8919 22236(149) 20130.6680 14559.6953
3586 21.8979 22232(149) 20160.7070 14558.2715
3587 21.9039 22541(150) 20285.2266 14556.8477
3588 21.9099 22906(151) 20650.9395 14555.4238
3589 21.9159 23312(152) 20980.9375 14554.0000
3590 21.9219 23861(154) 21429.6621 14552.5762
3591 21.9279 24589(156) 22019.2559 14551.1523
3592 21.9339 25538(159) 22781.8555 14549.7275
3593 21.9399 26799(164) 23764.3242 14548.3047
3594 21.9459 28505(169) 25030.4648 14546.8799
3595 21.9519 30272(174) 26670.7754 14545.4561
3596 21.9579 32434(179) 28796.8145 14544.0332
3597 21.9639 35205(187) 31565.8320 14542.6084
3598 21.9699 38556(195) 35179.3594 14541.1846
3599 21.9759 42699(206) 39880.5273 14539.7607
3600 21.9819 48568(220) 45903.2773 14538.3369
3601 21.9879 53776(231) 53353.2578 14536.9131
3602 21.9939 59388(243) 61769.9531 14535.4893
3603 21.9999 64444(253) 70501.9453 14534.0654
3604 22.0059 68478(261) 77207.4062 14532.6416
3605 22.0119 69056(262) 79344.2891 14531.2178
3606 22.0179 66981(258) 75914.3594 14529.7930
3607 22.0239 61255(246) 68437.8359 14528.3701
3608 22.0299 56208(236) 59507.6367 14526.9453
3609 22.0359 50252(224) 51007.3125 14525.5215
3610 22.0419 44186(210) 43789.1562 14524.0977
3611 22.0479 39249(197) 37989.0938 14522.6738
3612 22.0539 35311(188) 33470.2812 14521.2500
3613 22.0599 31468(177) 30003.8086 14519.8262
3614 22.0659 29008(170) 27359.6270 14518.4023
3615 22.0719 26985(164) 25317.8398 14516.9785
3616 22.0779 25376(159) 23758.3281 14515.5547
3617 22.0839 23872(154) 22541.2285 14514.1309
3618 22.0899 22913(151) 21574.8652 14512.7070
3619 22.0959 21678(147) 20796.6973 14511.2832
3620 22.1019 20740(143) 20162.0957 14509.8584
3621 22.1079 20190(142) 19639.4043 14508.4346
3622 22.1139 19672(140) 19206.2637 14507.0117
3623 22.1199 19105(138) 18845.2246 14505.5869
3624 22.1259 18675(136) 18544.8945 14504.1631
3625 22.1319 18301(135) 18341.5469 14502.7393
3626 22.1379 17914(134) 18137.1016 14501.3154
3627 22.1439 17785(133) 17970.8906 14499.8916
3628 22.1499 17410(131) 17838.9180 14498.4678
3629 22.1559 17242(130) 17738.5449 14497.0439
3630 22.1619 17045(130) 17667.5996 14495.6201
3631 22.1679 17087(130) 17625.5977 14494.1963
3632 22.1739 16844(129) 17612.2480 14492.7715
3633 22.1799 16819(129) 17628.7656 14491.3486
3634 22.1859 16953(130) 17677.1328 14489.9238
3635 22.1919 16937(130) 17651.8789 14488.5000
3636 22.1979 16896(129) 17776.9062 14487.0762
3637 22.2039 16976(130) 17944.8984 14485.6523
3638 22.2099 16968(130) 18161.4258 14484.2285
3639 22.2159 17285(131) 18430.7988 14482.8047
3640 22.2219 17668(133) 18757.2695 14481.3809
3641 22.2279 18031(134) 19148.8340 14479.9570
3642 22.2339 18704(136) 19627.0430 14478.5332
3643 22.2399 19315(138) 20235.5781 14477.1094
3644 22.2459 20238(142) 21034.0215 14475.6855
3645 22.2519 21904(147) 22099.7812 14474.2617
3646 22.2579 23633(153) 23522.4453 14472.8369
3647 22.2639 25810(160) 25405.4355 14471.4131
3648 22.2699 29008(170) 27857.7871 14469.9893
3649 22.2759 32891(180) 30969.6914 14468.5654
3650 22.2819 37360(192) 34767.5703 14467.1416
3651 22.2879 43899(208) 39068.5352 14465.7178
3652 22.2939 48251(218) 43322.6836 14464.2939
3653 22.2999 51659(226) 46480.1016 14462.8701
3654 22.3059 52330(228) 47378.5234 14461.4463
3655 22.3119 50094(222) 45618.1953 14460.0225
3656 22.3179 45121(211) 41945.9922 14458.5986
3657 22.3239 39476(198) 37562.6172 14457.1748
3658 22.3299 32559(179) 33374.7578 14455.7500
3659 22.3359 28041(166) 29784.3574 14454.3271
3660 22.3419 24678(156) 26886.5117 14452.9023
3661 22.3479 22308(149) 24629.1055 14451.4785
3662 22.3539 20308(142) 22909.0234 14450.0547
3663 22.3599 19105(137) 21621.3027 14448.6309
3664 22.3659 18119(134) 20659.8027 14447.2070
3665 22.3719 17598(132) 19935.1055 14445.7832
3666 22.3779 17221(130) 19363.8320 14444.3594
3667 22.3839 17002(130) 18882.5352 14442.9355
3668 22.3899 16476(128) 18456.1621 14441.5117
3669 22.3959 16354(127) 18077.6641 14440.0879
3670 22.4019 16084(127) 17464.1523 14438.6641
3671 22.4079 15824(125) 17200.0469 14437.2402
3672 22.4139 15513(124) 16987.7949 14435.8154
3673 22.4199 15489(124) 16822.5020 14434.3916
3674 22.4259 15315(123) 16700.0938 14432.9678
3675 22.4319 15218(123) 16616.5625 14431.5439
3676 22.4379 15284(123) 16570.1387 14430.1201
3677 22.4439 15238(123) 16560.4043 14428.6963
3678 22.4499 15211(123) 16589.5527 14427.2725
3679 22.4559 15262(123) 16662.9277 14425.8486
3680 22.4619 15481(124) 16789.3359 14424.4248
3681 22.4679 15772(125) 16982.6953 14423.0010
3682 22.4739 15942(126) 17261.8555 14421.5771
3683 22.4799 16305(127) 17652.6191 14420.1533
3684 22.4859 16427(127) 18183.8789 14418.7285
3685 22.4919 16933(130) 18889.2656 14417.3057
3686 22.4979 17353(131) 19797.7285 14415.8809
3687 22.5039 17746(132) 20921.3281 14414.4570
3688 22.5099 18276(134) 22225.4043 14413.0332
3689 22.5159 18604(136) 23575.6738 14411.6094
3690 22.5219 19203(138) 24695.8086 14410.1855
3691 22.5279 19230(138) 25215.7480 14408.7617
3692 22.5339 19475(139) 24912.5859 14407.3379
3693 22.5399 19468(139) 23903.3457 14405.9141
3694 22.5459 19140(137) 22538.4844 14404.4902
3695 22.5519 18793(137) 21141.8789 14403.0664
3696 22.5579 18179(134) 19893.5723 14401.6426
3697 22.5639 17608(132) 18852.3398 14400.2188
3698 22.5699 17206(130) 18019.5469 14398.7939
3699 22.5759 16894(129) 17367.2012 14397.3711
3700 22.5819 16499(128) 16862.6875 14395.9463
3701 22.5879 16109(126) 16473.7480 14394.5225
3702 22.5939 15861(125) 16172.4707 14393.0986
3703 22.5999 15556(124) 15936.4561 14391.6748
3704 22.6059 15448(124) 15748.1875 14390.2510
3705 22.6119 15243(123) 15595.5859 14388.8271
3706 22.6179 15052(122) 15469.3633 14387.4033
3707 22.6239 14848(121) 15362.3594 14385.9795
3708 22.6299 14844(121) 15272.2891 14384.5557
3709 22.6359 14752(121) 15194.8076 14383.1309
3710 22.6419 14706(120) 15127.5557 14381.7080
3711 22.6479 14698(121) 15068.6182 14380.2842
3712 22.6539 14620(120) 15016.7129 14378.8594
3713 22.6599 14467(119) 14970.6201 14377.4355
3714 22.6659 14457(119) 14929.5215 14376.0117
3715 22.6719 14556(120) 14892.6162 14374.5879
3716 22.6779 14488(119) 14859.3408 14373.1641
3717 22.6839 14544(120) 14829.1846 14371.7402
3718 22.6899 14453(119) 14801.7500 14370.3164
3719 22.6959 14399(119) 14776.6895 14368.8926
3720 22.7019 14519(120) 14611.0488 14367.4688
3721 22.7079 14448(119) 14594.0869 14366.0449
3722 22.7139 14363(119) 14578.5508 14364.6211
3723 22.7199 14419(119) 14564.2783 14363.1973
3724 22.7259 14467(119) 14551.1250 14361.7725
3725 22.7319 14366(119) 14538.9678 14360.3496
3726 22.7379 14378(119) 14529.6777 14358.9248
3727 22.7439 14469(120) 14519.2461 14357.5010
3728 22.7499 14513(120) 14509.5361 14356.0771
3729 22.7559 14486(120) 14500.4609 14354.6533
3730 22.7619 14340(119) 14491.9629 14353.2295
3731 22.7679 14423(120) 14489.4600 14357.2803
3732 22.7739 14462(119) 14487.4287 14361.3291
3733 22.7799 14411(119) 14483.3770 14365.3789
3734 22.7859 14450(119) 14482.2373 14369.4297
3735 22.7919 14417(120) 14481.4580 14373.4795
3736 22.7979 14502(119) 14481.0928 14377.5283
3737 22.8039 14404(119) 14480.9365 14381.5791
3738 22.8099 14406(119) 14481.0537 14385.6299
3739 22.8159 14570(120) 14676.5215 14389.6797
3740 22.8219 14457(119) 14682.8291 14393.7285
3741 22.8279 14608(120) 14689.5986 14397.7793
3742 22.8339 14507(119) 14696.8486 14401.8291
3743 22.8399 14480(119) 14704.5596 14405.8789
3744 22.8459 14540(120) 14712.7500 14409.9287
3745 22.8519 14542(120) 14721.4248 14413.9795
3746 22.8579 14588(120) 14730.5918 14418.0293
3747 22.8639 14646(120) 14740.2666 14422.0781
3748 22.8699 14583(120) 14750.4561 14426.1289
3749 22.8759 14572(120) 14761.2002 14430.1787
3750 22.8819 14687(121) 14772.4922 14434.2295
3751 22.8879 14591(120) 14784.3779 14438.2783
3752 22.8939 14619(120) 14796.8789 14442.3291
3753 22.8999 14607(121) 14810.0254 14446.3789
3754 22.9059 14609(120) 14823.8545 14450.4277
3755 22.9119 14669(120) 14838.3975 14454.4785
3756 22.9179 14807(121) 14853.7236 14458.5283
3757 22.9239 14879(122) 14869.8496 14462.5791
3758 22.9299 14796(121) 14886.8545 14466.6279
3759 22.9359 14790(121) 14861.9395 14470.6787
3760 22.9419 15009(122) 14882.1943 14474.7285
3761 22.9479 15010(122) 14903.4766 14478.7793
3762 22.9539 14950(121) 14925.8604 14482.8281
3763 22.9599 15046(122) 14949.4834 14486.8779
3764 22.9659 15001(122) 14974.4043 14490.9287
3765 22.9719 15144(122) 15000.7979 14494.9785
3766 22.9779 15134(122) 15028.7432 14499.0283
3767 22.9839 15110(122) 15058.4395 14503.0781
3768 22.9899 15318(123) 15090.0439 14507.1289
3769 22.9959 15477(124) 15123.7305 14511.1777
3770 23.0019 15551(124) 15159.7773 14515.2275
3771 23.0079 15477(123) 15379.1855 14519.2783
3772 23.0139 15594(124) 15425.8672 14523.3281
3773 23.0199 15803(125) 15475.9033 14527.3779
3774 23.0259 15870(125) 15529.7686 14531.4277
3775 23.0319 15875(125) 15587.8760 14535.4785
3776 23.0379 16041(126) 15650.7422 14539.5283
3777 23.0439 16099(126) 15718.9502 14543.5771
3778 23.0499 16211(126) 15793.1494 14547.6279
3779 23.0559 16549(128) 15874.2627 14551.6777
3780 23.0619 16549(128) 15963.0244 14555.7275
3781 23.0679 16595(128) 16060.6748 14559.7773
3782 23.0739 16950(129) 16168.4658 14563.8281
3783 23.0799 17024(129) 16288.0605 14567.8779
3784 23.0859 17287(131) 16421.5469 14571.9268
3785 23.0919 17615(132) 16571.4941 14575.9775
3786 23.0979 17987(134) 16769.3789 14580.0273
3787 23.1039 18154(134) 16963.6094 14584.0781
3788 23.1099 18496(135) 17186.4238 14588.1270
3789 23.1159 18775(136) 17443.3359 14592.1777
3790 23.1219 19254(138) 17741.0469 14596.2275
3791 23.1279 19540(139) 18087.1211 14600.2764
3792 23.1339 20339(142) 18489.9863 14604.3271
3793 23.1399 21115(145) 18959.3633 14608.3770
3794 23.1459 21567(146) 19503.4238 14612.4277
3795 23.1519 22533(149) 20134.5195 14616.4766
3796 23.1579 23235(151) 20874.5898 14620.5273
3797 23.1639 24464(155) 21769.5879 14624.5771
3798 23.1699 25956(160) 22896.0332 14628.6279
3799 23.1759 27531(165) 24354.7148 14632.6768
3800 23.1819 29123(169) 26267.7520 14636.7266
3801 23.1879 31284(175) 28758.4648 14640.7773
3802 23.1939 33906(183) 31958.7793 14644.8262
3803 23.1999 36733(190) 35972.7109 14648.8770
3804 23.2059 40671(200) 40838.0898 14652.9268
3805 23.2119 45332(211) 46433.7461 14656.9775
3806 23.2179 48367(218) 52316.5430 14661.0264
3807 23.2239 51347(225) 57568.4609 14665.0762
3808 23.2299 52619(228) 60834.2344 14669.1270
3809 23.2359 52803(229) 61002.7031 14673.1777
3810 23.2419 51657(226) 58026.4727 14677.2266
3811 23.2479 48271(219) 52967.8867 14681.2764
3812 23.2539 44784(211) 47183.9180 14685.3271
3813 23.2599 41245(202) 41645.1875 14689.3760
3814 23.2659 37842(193) 36811.4414 14693.4258
3815 23.2719 34611(185) 32832.8477 14697.4766
3816 23.2779 32301(178) 29669.4258 14701.5273
3817 23.2839 29559(171) 27228.5312 14705.5762
3818 23.2899 27732(166) 25381.9023 14709.6260
3819 23.2959 26392(162) 24011.0234 14713.6768
3820 23.3019 25392(158) 23010.1094 14717.7266
3821 23.3079 24503(156) 22294.2910 14721.7754
3822 23.3139 24080(154) 21800.0547 14725.8262
3823 23.3199 23774(154) 21481.7617 14729.8770
3824 23.3259 23486(153) 21311.1523 14733.9258
3825 23.3319 23279(152) 21270.6367 14737.9756
3826 23.3379 23500(152) 21457.0117 14742.0264
3827 23.3439 23781(153) 21662.2793 14746.0762
3828 23.3499 24167(155) 21993.4980 14750.1250
3829 23.3559 24707(156) 22465.9297 14754.1758
3830 23.3619 25845(160) 23114.9531 14758.2266
3831 23.3679 27195(164) 23999.5586 14762.2764
3832 23.3739 28609(168) 25207.0527 14766.3252
3833 23.3799 30815(174) 26841.3516 14770.3760
3834 23.3859 33880(183) 29017.2598 14774.4258
3835 23.3919 37065(191) 31850.0391 14778.4756
3836 23.3979 41903(204) 35433.8359 14782.5254
3837 23.4039 49068(220) 39817.2422 14786.5762
3838 23.4099 54061(231) 44900.9531 14790.6260
3839 23.4159 59350(242) 50345.7148 14794.6748
3840 23.4219 63291(250) 55383.4180 14798.7256
3841 23.4279 65161(254) 58839.3594 14802.7754
3842 23.4339 63782(251) 59599.9453 14806.8262
3843 23.4399 58989(242) 57393.2930 14810.8750
3844 23.4459 53189(229) 53008.9062 14814.9258
3845 23.4519 47810(218) 47700.8945 14818.9756
3846 23.4579 42149(204) 42455.2500 14823.0244
3847 23.4639 36916(191) 37820.3203 14827.0752
3848 23.4699 33563(182) 34003.4844 14831.1250
3849 23.4759 30543(174) 31029.1562 14835.1758
3850 23.4819 28558(168) 28839.0586 14839.2246
3851 23.4879 27574(165) 27334.9238 14843.2754
3852 23.4939 26762(163) 26418.4297 14847.3252
3853 23.4999 26616(162) 25973.5000 14851.3760
3854 23.5059 26865(163) 25961.1836 14855.4248
3855 23.5119 27233(165) 26055.5703 14859.4746
3856 23.5179 27790(166) 26124.4434 14863.5254
3857 23.5239 27532(164) 25943.4492 14867.5742
3858 23.5299 27161(164) 25638.4883 14871.6250
3859 23.5359 26264(161) 24750.5273 14875.6748
3860 23.5419 25053(157) 23692.5938 14879.7256
3861 23.5479 23950(153) 22628.0742 14883.7744
3862 23.5539 22519(149) 21658.6211 14887.8242
3863 23.5599 21406(145) 20826.9844 14891.8750
3864 23.5659 20693(143) 20139.9102 14895.9248
3865 23.5719 19951(140) 19587.0840 14899.9746
3866 23.5779 19389(138) 19148.1797 14904.0244
3867 23.5839 18984(137) 18808.3164 14908.0752
3868 23.5899 18453(135) 18546.6914 14912.1240
3869 23.5959 18147(134) 18347.2559 14916.1738
3870 23.6019 18045(134) 18197.1992 14920.2246
3871 23.6079 17920(133) 18086.5898 14924.2744
3872 23.6139 17749(132) 18008.4375 14928.3242
3873 23.6199 17879(133) 17957.7734 14932.3740
3874 23.6259 17713(132) 17931.5020 14936.4248
3875 23.6319 17745(132) 17927.8066 14940.4746
3876 23.6379 17768(133) 17945.8164 14944.5234
3877 23.6439 17718(132) 18164.4316 14948.5742
3878 23.6499 17879(133) 18231.6367 14952.6240
3879 23.6559 18023(133) 18133.2422 14956.6738
3880 23.6619 18160(134) 18257.0391 14960.7236
3881 23.6679 18442(135) 18411.2734 14964.7744
3882 23.6739 18582(135) 18601.3965 14968.8242
3883 23.6799 18799(136) 18835.0625 14972.8730
3884 23.6859 19140(138) 19150.4629 14976.9238
3885 23.6919 19617(139) 19511.0508 14980.9736
3886 23.6979 19923(140) 19966.3477 14985.0244
3887 23.7039 20541(142) 20546.7305 14989.0732
3888 23.7099 21416(146) 21294.4648 14993.1240
3889 23.7159 22070(148) 22260.6094 14997.1738
3890 23.7219 23107(151) 23504.6621 15001.2246
3891 23.7279 24638(156) 25089.7402 15005.2734
3892 23.7339 26301(161) 27073.2188 15009.3242
3893 23.7399 27969(166) 29498.8984 15013.3740
3894 23.7459 30896(174) 32353.8672 15017.4229
3895 23.7519 33129(181) 35537.3594 15021.4736
3896 23.7579 35339(187) 38763.4375 15025.5234
3897 23.7639 37331(192) 41506.2188 15029.5742
3898 23.7699 38354(195) 43086.3906 15033.6230
3899 23.7759 38376(195) 43018.4648 15037.6738
3900 23.7819 37329(192) 41361.3125 15041.7236
3901 23.7879 34736(185) 38685.4609 15045.7734
3902 23.7939 32707(180) 35659.5273 15049.8232
3903 23.7999 30804(175) 32762.8828 15053.8730
3904 23.8059 28959(169) 30239.9570 15057.9238
3905 23.8119 27356(164) 28174.7344 15061.9727
3906 23.8179 26243(161) 26566.8984 15066.0234
3907 23.8239 25383(159) 25371.7305 15070.0732
3908 23.8299 25239(159) 24536.8438 15074.1240
3909 23.8359 24998(157) 24001.8828 15078.1729
3910 23.8419 24937(157) 23717.0762 15082.2227
3911 23.8479 24936(157) 23642.6680 15086.2734
3912 23.8539 25287(158) 23752.2188 15090.3232
3913 23.8599 25818(160) 24033.3613 15094.3730
3914 23.8659 26768(163) 24313.9004 15098.4229
3915 23.8719 27569(165) 24961.9258 15102.4736
3916 23.8779 28499(168) 25829.9414 15106.5225
3917 23.8839 30039(173) 26969.5293 15110.5723
3918 23.8899 31345(176) 28453.3438 15114.6230
3919 23.8959 33252(181) 30377.6328 15118.6729
3920 23.9019 36663(190) 32859.8359 15122.7227
3921 23.9079 39092(197) 36036.2031 15126.7725
3922 23.9139 42329(205) 40045.8203 15130.8232
3923 23.9199 46777(215) 45005.3281 15134.8730
3924 23.9259 51683(227) 50957.2383 15138.9219
3925 23.9319 57164(238) 57797.1875 15142.9727
3926 23.9379 63970(251) 65204.1055 15147.0225
3927 23.9439 72349(267) 72700.7500 15151.0723
3928 23.9499 79086(280) 79838.0156 15155.1221
3929 23.9559 86550(293) 86265.2109 15159.1729
3930 23.9619 92166(302) 91490.4531 15163.2227
3931 23.9679 95345(307) 94482.8906 15167.2715
3932 23.9739 95469(307) 94042.4297 15171.3223
3933 23.9799 89486(297) 89757.8672 15175.3721
3934 23.9859 83039(287) 82508.7500 15179.4229
3935 23.9919 75674(273) 73899.1875 15183.4717
3936 23.9979 66246(256) 65340.2773 15187.5225
3937 24.0039 58617(241) 57711.9375 15191.5723
3938 24.0099 52586(228) 51381.4805 15195.6211
3939 24.0159 47066(216) 46450.3984 15199.6719
3940 24.0219 44340(209) 42881.6172 15203.7217
3941 24.0279 42348(205) 40596.2344 15207.7725
3942 24.0339 41442(202) 39509.6016 15211.8213
3943 24.0399 41550(203) 39557.9141 15215.8721
3944 24.0459 42421(205) 40707.1797 15219.9219
3945 24.0519 44709(210) 42931.9297 15223.9727
3946 24.0579 49397(221) 46201.9258 15228.0215
3947 24.0639 53695(230) 50418.2383 15232.0713
3948 24.0699 59733(243) 55346.5000 15236.1221
3949 24.0759 65448(254) 60447.5898 15240.1709
3950 24.0819 69806(262) 64830.2148 15244.2217
3951 24.0879 72854(269) 67367.4297 15248.2715
3952 24.0939 71617(266) 67261.8125 15252.3223
3953 24.0999 68521(261) 64601.0586 15256.3711
3954 24.1059 63656(251) 60277.4297 15260.4209
3955 24.1119 57318(238) 55330.0820 15264.4717
3956 24.1179 51755(226) 50480.2422 15268.5215
3957 24.1239 47094(216) 45996.1211 15272.5713
3958 24.1299 42429(205) 41894.7109 15276.6211
3959 24.1359 37850(194) 38135.8828 15280.6719
3960 24.1419 34933(186) 34824.7617 15284.7207
3961 24.1479 31627(177) 31856.6328 15288.7705
3962 24.1539 29099(170) 29341.6445 15292.8213
3963 24.1599 27011(164) 27268.9141 15296.8711
3964 24.1659 25203(158) 25586.4668 15300.9209
3965 24.1719 23448(152) 24234.0547 15304.9707
3966 24.1779 22592(150) 23151.3086 15309.0215
3967 24.1839 21701(147) 22286.8438 15313.0713
3968 24.1899 21013(144) 21596.1055 15317.1201
3969 24.1959 20300(142) 21042.1797 15321.1709
3970 24.2019 19859(140) 20595.2988 15325.2207
3971 24.2079 19291(138) 20227.2637 15329.2705
3972 24.2139 19139(138) 19810.9141 15333.3203
3973 24.2199 19018(138) 19645.7500 15337.3711
3974 24.2259 18615(136) 19377.4902 15341.4209
3975 24.2319 18229(135) 19115.3438 15345.4697
3976 24.2379 17853(133) 18862.9395 15349.5205
3977 24.2439 17710(132) 18627.2773 15353.5703
3978 24.2499 17260(131) 18412.9199 15357.6211
3979 24.2559 16906(130) 18221.6992 15361.6699
3980 24.2619 16923(130) 18052.8203 15365.7207
3981 24.2679 16637(129) 17904.7578 15369.7705
3982 24.2739 16496(128) 17775.3203 15373.8193
3983 24.2799 16401(127) 17662.1445 15377.8701
3984 24.2859 16192(127) 17563.1973 15381.9199
3985 24.2919 16179(126) 17476.3984 15385.9707
3986 24.2979 16144(127) 17400.1836 15390.0195
3987 24.3039 15990(126) 17333.0137 15394.0703
3988 24.3099 15981(126) 17273.8203 15398.1201
3989 24.3159 15834(125) 17221.6523 15402.1709
3990 24.3219 15873(125) 17175.4512 15406.2197
3991 24.3279 15712(125) 17135.4043 15410.2695
3992 24.3339 15751(125) 17100.6172 15414.3203
3993 24.3399 15757(125) 17070.8262 15418.3691
3994 24.3459 15591(124) 17045.6738 15422.4199
3995 24.3519 15531(124) 17024.9785 15426.4697
3996 24.3579 15497(124) 17008.5566 15430.5205
3997 24.3639 15538(124) 16996.2910 15434.5693
3998 24.3699 15677(125) 16988.1426 15438.6191
3999 24.3759 15467(124) 16983.9941 15442.6699
4000 24.3819 15479(124) 16956.4805 15419.2549
4001 24.3879 15655(125) 16933.0430 15395.8477
4002 24.3939 15652(124) 16835.3105 15372.4326
4003 24.3999 15679(125) 16822.4473 15349.0176
4004 24.4059 15580(124) 16814.0059 15325.6104
4005 24.4119 15779(125) 16810.2793 15302.1953
4006 24.4179 15713(125) 16557.1641 15278.7803
4007 24.4239 15698(125) 16570.4707 15255.3652
4008 24.4299 15768(125) 16589.2793 15231.9580
4009 24.4359 15950(126) 16614.1953 15208.5430
4010 24.4419 15946(126) 16645.9062 15185.1279
4011 24.4479 16121(127) 16685.1699 15161.7129
4012 24.4539 16043(126) 16732.9961 15138.3057
4013 24.4599 16073(126) 16790.4590 15114.8906
4014 24.4659 16319(127) 16859.1250 15091.4756
4015 24.4719 16542(128) 16940.5078 15068.0605
4016 24.4779 16529(128) 17036.8945 15044.6533
4017 24.4839 16802(129) 17150.9512 15021.2383
4018 24.4899 17074(130) 17286.0742 14997.8232
4019 24.4959 17193(131) 17446.9414 14974.4160
4020 24.5019 17584(133) 17639.6484 14951.0010
4021 24.5079 17709(132) 17873.2539 14927.5859
4022 24.5139 18138(135) 18159.3047 14904.1709
4023 24.5199 18695(136) 18514.9590 14880.7637
4024 24.5259 19299(139) 18962.8711 14857.3486
4025 24.5319 19993(141) 19532.7812 14833.9336
4026 24.5379 20794(144) 20084.7559 14810.5186
4027 24.5439 22104(149) 21023.3340 14787.1113
4028 24.5499 23534(153) 22216.9570 14763.6963
4029 24.5559 26049(161) 23711.8457 14740.2812
4030 24.5619 28233(167) 25546.8867 14716.8740
4031 24.5679 31304(176) 27739.1680 14693.4590
4032 24.5739 34774(186) 30260.6875 14670.0439
4033 24.5799 38932(196) 32978.0977 14646.6289
4034 24.5859 42260(206) 35702.7383 14623.2217
4035 24.5919 45534(213) 38021.2734 14599.8066
4036 24.5979 46980(216) 39469.2266 14576.3916
4037 24.6039 46657(216) 39758.1484 14552.9766
4038 24.6099 44277(210) 38984.6953 14529.5693
4039 24.6159 41301(203) 37586.5469 14506.1543
4040 24.6219 38807(197) 36098.2305 14482.7393
4041 24.6279 36676(191) 34943.6719 14459.3320
4042 24.6339 35785(188) 34390.3984 14435.9170
4043 24.6399 36150(190) 34588.4453 14412.5020
4044 24.6459 37755(194) 35587.1172 14389.0869
4045 24.6519 40276(200) 37363.6250 14365.6797
4046 24.6579 43987(209) 39784.8633 14342.2646
4047 24.6639 48375(219) 42579.6094 14318.8496
4048 24.6699 52456(228) 45251.3164 14295.4346
4049 24.6759 54992(234) 47125.6055 14272.0273
4050 24.6819 54902(233) 47544.3945 14248.6123
4051 24.6879 52247(228) 46226.6602 14225.1973
4052 24.6939 47917(218) 43455.0703 14201.7900
4053 24.6999 42876(206) 39858.2617 14178.3750
4054 24.7059 36782(191) 36084.1641 14154.9600
4055 24.7119 31175(176) 32471.9199 14131.5449
4056 24.7179 27930(167) 29264.8555 14108.1377
4057 24.7239 24997(157) 26539.5801 14084.7227
4058 24.7299 22650(150) 24293.1875 14061.3076
4059 24.7359 21280(145) 22482.9297 14037.8926
4060 24.7419 20013(141) 21047.6504 14014.4854
4061 24.7479 18992(137) 19917.8730 13991.0703
4062 24.7539 18258(135) 19032.0020 13967.6553
4063 24.7599 17739(133) 18331.9531 13944.2480
4064 24.7659 17104(130) 17772.1895 13920.8330
4065 24.7719 16772(129) 17316.8672 13897.4180
4066 24.7779 16492(128) 16939.5117 13874.0029
4067 24.7839 16123(127) 16621.0410 13850.5957
4068 24.7899 15763(125) 16347.3994 13827.1807
4069 24.7959 15581(124) 16109.5127 13803.7656
4070 24.8019 15362(124) 15899.9600 13780.3506
4071 24.8079 15241(123) 15714.0723 13756.9434
4072 24.8139 15148(123) 15547.6270 13733.5283
4073 24.8199 14978(122) 15397.7568 13710.1133
4074 24.8259 14743(121) 15262.0508 13686.7061
4075 24.8319 14816(122) 15138.3506 13663.2910
4076 24.8379 14582(120) 15025.2480 13639.8760
4077 24.8439 14471(120) 14921.2031 13616.4609
4078 24.8499 14608(121) 14825.3047 13593.0537
4079 24.8559 14233(119) 14736.4629 13569.6387
4080 24.8619 14232(119) 14653.9844 13546.2236
4081 24.8679 14299(119) 14577.3428 13522.8086
4082 24.8739 14169(119) 14505.6426 13499.4014
4083 24.8799 14069(118) 14438.5518 13475.9863
4084 24.8859 14181(119) 14375.5889 13452.5713
4085 24.8919 14039(118) 14316.4961 13429.1641
4086 24.8979 14077(118) 14260.8623 13405.7490
4087 24.9039 14041(118) 14208.4922 13382.3340
4088 24.9099 14025(118) 14159.1357 13358.9189
4089 24.9159 14149(119) 14112.6631 13335.5117
4090 24.9219 14009(118) 14235.1631 13312.0967
4091 24.9279 14121(119) 14198.2812 13288.6816
4092 24.9339 14066(118) 14164.2227 13265.2666
4093 24.9399 13944(118) 14133.0098 13241.8594
4094 24.9459 14049(118) 14104.7949 13218.4443
4095 24.9519 13942(118) 14079.7764 13195.0293
4096 24.9579 14021(118) 14085.8203 13199.1104
4097 24.9639 14014(118) 14095.8633 13203.1924
4098 24.9699 14030(118) 14110.4385 13207.2754
4099 24.9759 13962(117) 14130.1689 13211.3574
4100 24.9819 14051(118) 14155.6328 13215.4385
4101 24.9879 14231(119) 14187.4287 13219.5215
4102 24.9939 14159(119) 14225.6562 13223.6035
4103 24.9999 14197(119) 14270.4922 13227.6865
4104 25.0059 14238(119) 14320.7363 13231.7676
4105 25.0119 14260(119) 14374.1572 13235.8496
4106 25.0179 14370(119) 14426.6191 13239.9326
4107 25.0239 14696(121) 14472.6836 13244.0137
4108 25.0299 14498(120) 14507.9082 13248.0957
4109 25.0359 14462(119) 14531.5322 13252.1777
4110 25.0419 14691(121) 14547.5791 13256.2607
4111 25.0479 14707(121) 14562.3936 13260.3418
4112 25.0539 14820(121) 14582.0381 13264.4238
4113 25.0599 14773(121) 14610.9893 13268.5068
4114 25.0659 15092(123) 14571.8398 13272.5889
4115 25.0719 14942(122) 14629.9395 13276.6699
4116 25.0779 15152(123) 14706.3525 13280.7529
4117 25.0839 15151(122) 14804.2373 13284.8350
4118 25.0899 15415(124) 14928.3682 13288.9160
4119 25.0959 15764(125) 15086.0762 13292.9990
4120 25.1019 15782(125) 15287.1855 13297.0811
4121 25.1079 15893(126) 15544.9375 13301.1631
4122 25.1139 16254(127) 15875.9609 13305.2441
4123 25.1199 16566(128) 16299.6777 13309.3271
4124 25.1259 16885(130) 16838.4062 13313.4092
4125 25.1319 17264(131) 17511.8320 13317.4922
4126 25.1379 18020(134) 18338.2598 13321.5732
4127 25.1439 18507(135) 19325.6387 13325.6553
4128 25.1499 19061(138) 20350.7070 13329.7383
4129 25.1559 19865(141) 21607.5820 13333.8193
4130 25.1619 20331(142) 22890.4805 13337.9014
4131 25.1679 20986(144) 24048.0195 13341.9844
4132 25.1739 21496(146) 24867.9414 13346.0664
4133 25.1799 21705(147) 25157.3594 13350.1475
4134 25.1859 21805(147) 24844.8906 13354.2295
4135 25.1919 21408(146) 24032.2773 13358.3125
4136 25.1979 21232(146) 22925.8164 13362.3945
4137 25.2039 20693(143) 21729.4727 13366.4756
4138 25.2099 20035(141) 20582.1699 13370.5586
4139 25.2159 19594(139) 19564.1133 13374.6406
4140 25.2219 19110(138) 18704.8281 13378.7236
4141 25.2279 18837(137) 18049.0176 13382.8047
4142 25.2339 18590(136) 17512.6973 13386.8867
4143 25.2399 18332(135) 17115.1562 13390.9688
4144 25.2459 18112(134) 16836.7188 13395.0508
4145 25.2519 18083(134) 16656.8516 13399.1328
4146 25.2579 17912(133) 16558.8145 13403.2148
4147 25.2639 18043(134) 16527.9434 13407.2979
4148 25.2699 18097(134) 16554.4473 13411.3789
4149 25.2759 18151(134) 16632.1016 13415.4609
4150 25.2819 18476(136) 16757.9492 13419.5439
4151 25.2879 18813(137) 16933.5332 13423.6260
4152 25.2939 19102(138) 17162.9102 13427.7070
4153 25.2999 19323(138) 17455.6504 13431.7900
4154 25.3059 19888(140) 17825.9297 13435.8721
4155 25.3119 20440(142) 18295.1191 13439.9531
4156 25.3179 21131(145) 18894.9707 13444.0352
4157 25.3239 22032(148) 19665.9277 13448.1182
4158 25.3299 23560(153) 20664.9121 13452.2002
4159 25.3359 24573(156) 21957.0195 13456.2812
4160 25.3419 26261(162) 23623.0430 13460.3643
4161 25.3479 28307(168) 25746.5820 13464.4463
4162 25.3539 30474(174) 28409.3125 13468.5293
4163 25.3599 33474(182) 31676.5195 13472.6104
4164 25.3659 38341(195) 35574.6680 13476.6924
4165 25.3719 42516(205) 40073.2656 13480.7754
4166 25.3779 46991(216) 45004.9062 13484.8564
4167 25.3839 51927(227) 50033.7344 13488.9385
4168 25.3899 55875(235) 54555.3086 13493.0205
4169 25.3959 58388(241) 57753.3203 13497.1035
4170 25.4019 59588(243) 58857.3086 13501.1846
4171 25.4079 56937(238) 57560.2891 13505.2666
4172 25.4139 54094(232) 54215.0625 13509.3496
4173 25.4199 49144(221) 49618.1016 13513.4316
4174 25.4259 43717(208) 44567.4375 13517.5127
4175 25.4319 39205(197) 39645.2188 13521.5957
4176 25.4379 34573(185) 35179.4375 13525.6777
4177 25.4439 30359(173) 31314.9922 13529.7588
4178 25.4499 27620(166) 28086.1172 13533.8418
4179 25.4559 25438(159) 25454.9512 13537.9238
4180 25.4619 23520(153) 23361.0508 13542.0059
4181 25.4679 22172(149) 21717.0234 13546.0869
4182 25.4739 20982(144) 20438.9375 13550.1699
4183 25.4799 19743(140) 19447.6016 13554.2520
4184 25.4859 19028(137) 18675.0527 13558.3350
4185 25.4919 18389(135) 18066.9492 13562.4160
4186 25.4979 17765(133) 17579.9453 13566.4980
4187 25.5039 17529(132) 17183.3984 13570.5811
4188 25.5099 17092(130) 16856.3008 13574.6621
4189 25.5159 16755(129) 16582.1602 13578.7441
4190 25.5219 16459(128) 16349.8857 13582.8262
4191 25.5279 16098(126) 16151.5654 13586.9092
4192 25.5339 16001(126) 15981.5654 13590.9902
4193 25.5399 15805(125) 15835.2461 13595.0723
4194 25.5459 15579(124) 15709.7930 13599.1553
4195 25.5519 15454(124) 15602.2441 13603.2373
4196 25.5579 15329(123) 15510.9902 13607.3184
4197 25.5639 15137(123) 15434.2500 13611.4014
4198 25.5699 15170(123) 15370.9297 13615.4834
4199 25.5759 15027(122) 15320.2441 13619.5645
4200 25.5819 15038(122) 15281.4854 13623.6475
4201 25.5879 14924(121) 15254.6934 13627.7295
4202 25.5939 14977(122) 15227.4121 13619.5225
4203 25.5999 14937(122) 15212.6963 13611.3174
4204 25.6059 14983(122) 15211.4395 13603.1104
4205 25.6119 14989(122) 15225.4395 13594.9033
4206 25.6179 15127(122) 15257.4512 13586.6963
4207 25.6239 15165(123) 15311.5205 13578.4912
4208 25.6299 15381(124) 15393.8330 13570.2842
4209 25.6359 15469(124) 15512.2344 13562.0771
4210 25.6419 15655(125) 15678.0752 13553.8730
4211 25.6479 15779(125) 15905.0801 13545.6650
4212 25.6539 16093(126) 16209.7891 13537.4580
4213 25.6599 16386(127) 16570.3633 13529.2510
4214 25.6659 16841(129) 17085.7051 13521.0469
4215 25.6719 17591(132) 17731.6133 13512.8389
4216 25.6779 18077(134) 18515.8906 13504.6318
4217 25.6839 18781(136) 19438.8984 13496.4248
4218 25.6899 19669(139) 20476.9023 13488.2207
4219 25.6959 20491(143) 21578.4688 13480.0127
4220 25.7019 21150(145) 22642.1953 13471.8057
4221 25.7079 21816(147) 23513.3770 13463.6016
4222 25.7139 22083(148) 24013.5977 13455.3945
4223 25.7199 21977(147) 24010.6348 13447.1865
4224 25.7259 21793(147) 23499.2539 13438.9795
4225 25.7319 20709(143) 22604.3535 13430.7754
4226 25.7379 20059(141) 21503.7246 13422.5684
4227 25.7439 19117(138) 20355.3574 13414.3613
4228 25.7499 18232(135) 19263.8359 13406.1533
4229 25.7559 17432(132) 18285.3691 13397.9492
4230 25.7619 16841(129) 17443.4316 13389.7422
4231 25.7679 16339(128) 16772.9355 13381.5352
4232 25.7739 15731(125) 16200.2256 13373.3301
4233 25.7799 15491(124) 15741.4707 13365.1230
4234 25.7859 14958(122) 15378.9004 13356.9160
4235 25.7919 14731(121) 15094.2061 13348.7090
4236 25.7979 14463(120) 14870.6777 13340.5039
4237 25.8039 14354(119) 14694.2227 13332.2969
4238 25.8099 14009(118) 14553.2588 13324.0898
4239 25.8159 14026(118) 14439.5293 13315.8828
4240 25.8219 13962(118) 14346.5254 13307.6777
4241 25.8279 13796(117) 14269.8086 13299.4707
4242 25.8339 13753(117) 14205.9443 13291.2637
4243 25.8399 13713(117) 14152.8506 13283.0586
4244 25.8459 13482(115) 14108.4805 13274.8516
4245 25.8519 13594(117) 14070.8555 13266.6445
4246 25.8579 13521(116) 14038.3223 13258.4375
4247 25.8639 13516(116) 14008.5303 13250.2324
4248 25.8699 13501(116) 13978.7744 13242.0254
4249 25.8759 13439(115) 13946.3281 13233.8184
4250 25.8819 13452(116) 13909.6025 13225.6113
4251 25.8879 13408(115) 13707.0488 13217.4062
4252 25.8939 13329(115) 13668.0859 13209.1992
4253 25.8999 13227(115) 13629.0479 13200.9922
4254 25.9059 13176(114) 13591.6982 13192.7871
4255 25.9119 13258(115) 13557.0820 13184.5801
4256 25.9179 13178(114) 13525.7080 13176.3730
4257 25.9239 13103(114) 13497.7178 13168.1660
4258 25.9299 13173(114) 13479.5195 13166.4404
4259 25.9359 13209(115) 13464.4248 13164.7148
4260 25.9419 13168(114) 13452.1855 13162.9893
4261 25.9479 13107(114) 13544.3486 13161.2637
4262 25.9539 13126(114) 13539.3281 13159.5381
4263 25.9599 13150(114) 13536.3223 13157.8125
4264 25.9659 13251(115) 13534.9727 13156.0859
4265 25.9719 13151(114) 13534.8418 13154.3604
4266 25.9779 13318(115) 13535.3662 13152.6357
4267 25.9839 13248(115) 13535.9043 13150.9092
4268 25.9899 13341(115) 13535.8760 13149.1836
4269 25.9959 13293(115) 13535.0615 13147.4580
4270 26.0019 13164(114) 13533.6514 13145.7324
4271 26.0079 13206(114) 13532.1660 13144.0068
4272 26.0139 13137(114) 13531.1221 13142.2812
4273 26.0199 13302(115) 13530.9502 13140.5557
4274 26.0259 13222(114) 13531.9062 13138.8301
4275 26.0319 13243(114) 13534.1221 13137.1045
4276 26.0379 13188(114) 13537.6865 13135.3779
4277 26.0439 13364(115) 13542.6143 13133.6533
4278 26.0499 13143(114) 13548.9385 13131.9268
4279 26.0559 13407(115) 13556.6436 13130.2012
4280 26.0619 13262(115) 13565.7617 13128.4766
4281 26.0679 13390(115) 13576.3213 13126.7500
4282 26.0739 13396(115) 13588.3564 13125.0244
4283 26.0799 13380(115) 13601.9590 13123.2988
4284 26.0859 13313(115) 13619.5264 13121.5732
4285 26.0919 13541(116) 13636.6367 13119.8477
4286 26.0979 13567(116) 13655.6816 13118.1221
4287 26.1039 13550(116) 13676.9023 13116.3955
4288 26.1099 13646(116) 13700.4932 13114.6709
4289 26.1159 13730(117) 13726.7666 13112.9453
4290 26.1219 13692(116) 13756.0703 13111.2188
4291 26.1279 13776(117) 13789.1250 13109.4941
4292 26.1339 14014(118) 13826.8018 13107.7676
4293 26.1399 14162(119) 13868.0117 13106.0420
4294 26.1459 14133(118) 13914.5986 13104.3164
4295 26.1519 14291(119) 13967.4795 13102.5908
4296 26.1579 14291(119) 14028.0898 13100.8652
4297 26.1639 14474(120) 14098.3018 13099.1396
4298 26.1699 14639(121) 14180.6982 13097.4141
4299 26.1759 14947(122) 14278.9697 13095.6885
4300 26.1819 15009(122) 14398.1240 13093.9629
4301 26.1879 15239(123) 14545.3223 13092.2363
4302 26.1939 15394(124) 14729.3584 13090.5117
4303 26.1999 15738(125) 14962.0547 13088.7861
4304 26.2059 16158(127) 15257.2480 13087.0596
4305 26.2119 16609(129) 15594.3799 13085.3340
4306 26.2179 16935(130) 16062.9160 13083.6084
4307 26.2239 17445(132) 16640.9922 13081.8828
4308 26.2299 17933(133) 17341.0020 13080.1572
4309 26.2359 18613(135) 18164.4570 13078.4316
4310 26.2419 19368(139) 19105.6836 13076.7061
4311 26.2479 20330(142) 20136.8203 13074.9805
4312 26.2539 21078(145) 21199.9062 13073.2549
4313 26.2599 21752(147) 22195.6562 13071.5293
4314 26.2659 22237(149) 22983.7227 13069.8037
4315 26.2719 22483(149) 23416.4922 13068.0771
4316 26.2779 22606(150) 23399.8008 13066.3516
4317 26.2839 22274(148) 23036.7344 13064.6260
4318 26.2899 21482(146) 22271.4141 13062.9004
4319 26.2959 20998(144) 21341.3730 13061.1748
4320 26.3019 20317(142) 20378.6875 13059.4492
4321 26.3079 19605(139) 19472.7227 13057.7236
4322 26.3139 19083(137) 18671.9121 13055.9980
4323 26.3199 18865(137) 18001.4102 13054.2725
4324 26.3259 18523(135) 17465.4785 13052.5469
4325 26.3319 18262(135) 17060.5918 13050.8213
4326 26.3379 18210(134) 16776.6270 13049.0947
4327 26.3439 18164(134) 16602.0391 13047.3691
4328 26.3499 18273(134) 16525.4863 13045.6445
4329 26.3559 18374(135) 16538.7754 13043.9180
4330 26.3619 18568(136) 16639.3633 13042.1924
4331 26.3679 18909(137) 16830.5176 13040.4668
4332 26.3739 19047(137) 17124.0605 13038.7412
4333 26.3799 19507(139) 17544.1680 13037.0156
4334 26.3859 19952(140) 18111.6152 13035.2900
4335 26.3919 20750(143) 18866.5527 13033.5645
4336 26.3979 21402(146) 19854.0566 13031.8389
4337 26.4039 22587(150) 21120.8945 13030.1133
4338 26.4099 23701(153) 22712.2031 13028.3867
4339 26.4159 24939(157) 24664.3477 13026.6621
4340 26.4219 26611(162) 26993.4336 13024.9355
4341 26.4279 28614(168) 29690.4375 13023.2100
4342 26.4339 30588(174) 32683.3438 13021.4844
4343 26.4399 33189(182) 35832.4375 13019.7588
4344 26.4459 35036(186) 38876.7031 13018.0332
4345 26.4519 36080(189) 41429.2891 13016.3076
4346 26.4579 36998(191) 43035.0938 13014.5820
4347 26.4639 37051(192) 43334.9844 13012.8564
4348 26.4699 36398(189) 42285.6719 13011.1309
4349 26.4759 34628(185) 40079.2344 13009.4043
4350 26.4819 32604(180) 37182.7891 13007.6797
4351 26.4879 30690(175) 34027.3633 13005.9541
4352 26.4939 28557(168) 30928.5898 13004.2275
4353 26.4999 26421(162) 28077.4531 13002.5020
4354 26.5059 24993(158) 25571.0957 13000.7764
4355 26.5119 23600(153) 23438.2734 12999.0508
4356 26.5179 22146(148) 21678.4824 12997.3252
4357 26.5239 21238(145) 20258.3906 12995.5996
4358 26.5299 20525(143) 19136.8262 12993.8740
4359 26.5359 19888(140) 18266.4414 12992.1484
4360 26.5419 19169(138) 17600.7578 12990.4229
4361 26.5479 18831(137) 17098.1875 12988.6973
4362 26.5539 18455(135) 16722.4355 12986.9717
4363 26.5599 18295(135) 16446.2480 12985.2451
4364 26.5659 18045(134) 16246.4258 12983.5195
4365 26.5719 17732(132) 16106.3545 12981.7949
4366 26.5779 17698(132) 16011.1465 12980.0684
4367 26.5839 17624(132) 15947.5996 12978.3428
4368 26.5899 17421(132) 15902.1719 12976.6172
4369 26.5959 17345(131) 15861.0557 12974.8916
4370 26.6019 16969(130) 15813.7988 12973.1660
4371 26.6079 16903(129) 15755.9648 12971.4404
4372 26.6139 16901(129) 15691.0410 12969.7148
4373 26.6199 16662(129) 15626.7061 12967.9893
4374 26.6259 16582(128) 15570.3252 12966.2637
4375 26.6319 16539(128) 15526.1113 12964.5371
4376 26.6379 16423(127) 15494.1621 12962.8125
4377 26.6439 16691(129) 15471.5967 12961.0859
4378 26.6499 16586(128) 15454.8516 12959.3604
4379 26.6559 16674(128) 15441.7998 12957.6348
4380 26.6619 16509(128) 15434.0195 12955.9092
4381 26.6679 16671(128) 15436.4102 12954.1836
4382 26.6739 16624(128) 15455.4043 12952.4580
4383 26.6799 16867(129) 15497.7900 12950.7324
4384 26.6859 16744(129) 15569.3828 12949.0068
4385 26.6919 16913(129) 15676.9160 12947.2812
4386 26.6979 16997(129) 15827.3965 12945.5547
4387 26.7039 17326(131) 16030.6309 12943.8301
4388 26.7099 17560(132) 16299.1436 12942.1035
4389 26.7159 17960(133) 16649.5996 12940.3779
4390 26.7219 18286(134) 17103.4707 12938.6523
4391 26.7279 18786(136) 17686.6680 12936.9268
4392 26.7339 19254(138) 18431.0508 12935.2012
4393 26.7399 20169(141) 19368.1914 12933.4756
4394 26.7459 21003(145) 20534.0020 12931.7500
4395 26.7519 21828(147) 21960.4590 12930.0244
4396 26.7579 23014(151) 23673.7617 12928.2988
4397 26.7639 24449(156) 25686.3027 12926.5732
4398 26.7699 26002(160) 27982.7266 12924.8477
4399 26.7759 27732(166) 30509.8477 12923.1221
4400 26.7819 29897(172) 33135.4180 12921.3955
4401 26.7879 31689(177) 35613.7891 12919.6699
4402 26.7939 33313(182) 37686.1562 12917.9443
4403 26.7999 34053(183) 38959.8125 12916.2188
4404 26.8059 34563(185) 39156.7148 12914.4932
4405 26.8119 34135(183) 38230.8828 12912.7676
4406 26.8179 32995(181) 36390.1914 12911.0420
4407 26.8239 31107(175) 33992.5156 12909.3164
4408 26.8299 29376(170) 31379.5039 12907.5908
4409 26.8359 27635(166) 28817.4297 12905.8652
4410 26.8419 25911(160) 26462.7422 12904.1396
4411 26.8479 24289(155) 24402.6797 12902.4131
4412 26.8539 22945(150) 22670.8398 12900.6875
4413 26.8599 21606(146) 21296.8594 12898.9629
4414 26.8659 20661(143) 20201.7637 12897.2363
4415 26.8719 20093(141) 19376.7773 12895.5107
4416 26.8779 19589(139) 18781.5352 12893.7852
4417 26.8839 19272(138) 18366.5742 12892.0596
4418 26.8899 18967(137) 18083.1660 12890.3340
4419 26.8959 18591(135) 17882.4688 12888.6084
4420 26.9019 18408(135) 17723.0742 12886.8828
4421 26.9079 18148(134) 17579.4922 12885.1572
4422 26.9139 18058(134) 17446.9785 12883.4316
4423 26.9199 17937(133) 17341.8750 12881.7051
4424 26.9259 17760(132) 17289.2344 12879.9805
4425 26.9319 17681(132) 17316.6719 12878.2539
4426 26.9379 17619(132) 17448.6328 12876.5283
4427 26.9439 17594(132) 17703.9727 12874.8037
4428 26.9499 17761(133) 18097.6758 12873.0771
4429 26.9559 18015(133) 18656.9160 12871.3516
4430 26.9619 18219(134) 19336.5879 12869.6260
4431 26.9679 18591(135) 20139.5664 12867.9004
4432 26.9739 19049(137) 21029.6660 12866.1748
4433 26.9799 19572(139) 21839.4375 12864.4492
4434 26.9859 19766(139) 22669.1191 12862.7227
4435 26.9919 20156(141) 23282.5195 12860.9980
4436 26.9979 20076(140) 23548.3379 12859.2725
4437 27.0039 20180(141) 23392.9902 12857.5459
4438 27.0099 19572(139) 22838.9551 12855.8213
4439 27.0159 19241(138) 21990.5957 12854.0947
4440 27.0219 18630(135) 20983.0742 12852.3691
4441 27.0279 18228(134) 19934.0957 12850.6436
4442 27.0339 17514(131) 18925.4844 12848.9180
4443 27.0399 16940(129) 18005.8613 12847.1924
4444 27.0459 16494(127) 17197.1973 12845.4668
4445 27.0519 15955(125) 16508.5703 12843.7412
4446 27.0579 15574(124) 15935.2061 12842.0156
4447 27.0639 15218(122) 15467.5410 12840.2900
4448 27.0699 14914(121) 15091.9629 12838.5635
4449 27.0759 14758(121) 14801.1006 12836.8389
4450 27.0819 14609(120) 14565.3105 12835.1133
4451 27.0879 14533(120) 14378.4141 12833.3867
4452 27.0939 14226(118) 14229.5859 12831.6611
4453 27.0999 14144(118) 14109.4873 12829.9355
4454 27.1059 13963(118) 14011.2148 12828.2100
4455 27.1119 13981(117) 13929.5693 12826.4844
4456 27.1179 13739(116) 13860.7725 12824.7588
4457 27.1239 13802(117) 13799.9062 12823.0332
4458 27.1299 13845(117) 13749.5146 12821.3076
4459 27.1359 13644(116) 13706.0459 12819.5820
4460 27.1419 13706(116) 13668.4395 12817.8564
4461 27.1479 13559(116) 13636.0010 12816.1309
4462 27.1539 13566(115) 13608.1963 12814.4043
4463 27.1599 13540(115) 13584.6143 12812.6787
4464 27.1659 13575(116) 13564.6055 12810.9531
4465 27.1719 13559(115) 13548.5557 12809.2275
4466 27.1779 13397(115) 13534.9590 12807.5020
4467 27.1839 13489(115) 13530.7852 12811.0352
4468 27.1899 13463(115) 13529.5762 12814.5674
4469 27.1959 13578(116) 13531.0088 12818.1016
4470 27.2019 13634(116) 13534.7070 12821.6348
4471 27.2079 13554(115) 13540.2510 12825.1670
4472 27.2139 13509(115) 13547.2227 12828.7002
4473 27.2199 13581(116) 13555.4980 12832.2344
4474 27.2259 13569(116) 13565.1836 12835.7676
4475 27.2319 13585(116) 13576.7764 12839.2998
4476 27.2379 13719(116) 13590.8535 12842.8340
4477 27.2439 13691(116) 13608.0078 12846.3672
4478 27.2499 13605(116) 13628.8281 12849.9004
4479 27.2559 13709(116) 13653.8652 12853.4326
4480 27.2619 13772(117) 13683.8281 12856.9668
4481 27.2679 13861(117) 13718.9189 12860.5000
4482 27.2739 13876(117) 13761.1426 12864.0322
4483 27.2799 13914(117) 13810.5410 12867.5654
4484 27.2859 14014(117) 13870.5898 12871.0996
4485 27.2919 14086(118) 13942.6768 12874.6328
4486 27.2979 14345(119) 14030.3799 12878.1650
4487 27.3039 14330(119) 14138.6494 12881.6982
4488 27.3099 14405(119) 14273.5664 12885.2324
4489 27.3159 14816(121) 14443.6270 12888.7656
4490 27.3219 15030(122) 14658.4775 12892.2979
4491 27.3279 15243(122) 14930.2148 12895.8311
4492 27.3339 15602(124) 15188.0547 12899.3652
4493 27.3399 15994(125) 15613.8203 12902.8975
4494 27.3459 16611(128) 16134.6758 12906.4307
4495 27.3519 17342(130) 16757.9414 12909.9639
4496 27.3579 18051(133) 17488.1504 12913.4980
4497 27.3639 19016(137) 18317.6855 12917.0303
4498 27.3699 20120(140) 19228.7500 12920.5635
4499 27.3759 21422(145) 20181.9805 12924.0977
4500 27.3819 22511(148) 21111.3594 12927.6309
4501 27.3879 23581(152) 21921.3867 12931.1631
4502 27.3939 24050(153) 22499.0508 12934.6963
4503 27.3999 24152(155) 22750.5508 12938.2305
4504 27.4059 23630(153) 22644.2266 12941.7627
4505 27.4119 22723(150) 22231.6172 12945.2959
4506 27.4179 21597(146) 21623.4805 12948.8291
4507 27.4239 20725(142) 20947.3086 12952.3633
4508 27.4299 19715(139) 20299.6738 12955.8955
4509 27.4359 19324(138) 19752.8008 12959.4287
4510 27.4419 18692(136) 19361.2324 12962.9619
4511 27.4479 18639(136) 19145.5195 12966.4961
4512 27.4539 18676(135) 19109.9961 12970.0283
4513 27.4599 19017(137) 19246.6465 12973.5615
4514 27.4659 19820(140) 19528.1387 12977.0947
4515 27.4719 20505(141) 19911.5938 12980.6289
4516 27.4779 21315(145) 20328.7969 12984.1611
4517 27.4839 22024(147) 20692.3379 12987.6943
4518 27.4899 22399(149) 20904.7793 12991.2275
4519 27.4959 22504(149) 20887.6152 12994.7607
4520 27.5019 21851(146) 20614.1309 12998.2939
4521 27.5079 21108(144) 20119.4648 13001.8271
4522 27.5139 20100(140) 19477.5449 13005.3604
4523 27.5199 19113(137) 18771.7285 13008.8936
4524 27.5259 18174(134) 18067.6035 13012.4268
4525 27.5319 17278(131) 17379.1992 13015.9600
4526 27.5379 16736(128) 16799.3867 13019.4941
4527 27.5439 16239(126) 16309.9238 13023.0264
4528 27.5499 15797(125) 15916.8467 13026.5596
4529 27.5559 15434(123) 15619.5908 13030.0928
4530 27.5619 15298(122) 15414.9473 13033.6250
4531 27.5679 15275(122) 15295.9551 13037.1592
4532 27.5739 15197(122) 15254.5576 13040.6924
4533 27.5799 15169(121) 15281.0938 13044.2256
4534 27.5859 15236(122) 15364.4150 13047.7578
4535 27.5919 15344(123) 15490.7842 13051.2920
4536 27.5979 15534(124) 15642.9141 13054.8252
4537 27.6039 15678(124) 15797.1055 13058.3584
4538 27.6099 15757(124) 15924.2490 13061.8916
4539 27.6159 15819(125) 15992.6855 13065.4248
4540 27.6219 15664(124) 15977.9580 13068.9580
4541 27.6279 15548(123) 15873.0820 13072.4902
4542 27.6339 15287(122) 15694.9961 13076.0244
4543 27.6399 15028(121) 15462.4629 13079.5576
4544 27.6459 14717(120) 15207.3730 13083.0908
4545 27.6519 14372(118) 14951.5977 13086.6230
4546 27.6579 14203(118) 14710.2119 13090.1572
4547 27.6639 13944(117) 14491.7998 13093.6904
4548 27.6699 13836(116) 14368.4883 13097.2236
4549 27.6759 13697(116) 14206.9863 13100.7559
4550 27.6819 13626(115) 14071.9111 13104.2900
4551 27.6879 13548(115) 13961.5400 13107.8232
4552 27.6939 13444(115) 13872.5264 13111.3555
4553 27.6999 13352(114) 13801.5732 13114.8887
4554 27.7059 13287(114) 13745.3770 13118.4229
4555 27.7119 13159(113) 13700.9600 13121.9561
4556 27.7179 13173(114) 13665.7959 13125.4883
4557 27.7239 13202(113) 13637.7686 13129.0215
4558 27.7299 13005(113) 13615.3545 13132.5557
4559 27.7359 13085(113) 13597.2949 13136.0889
4560 27.7419 13172(113) 13582.7725 13139.6211
4561 27.7479 13082(114) 13571.1416 13143.1543
4562 27.7539 13213(114) 13561.8896 13146.6885
4563 27.7599 13004(113) 13554.9512 13150.2207
4564 27.7659 13004(113) 13550.0244 13153.7539
4565 27.7719 13060(113) 13547.0215 13157.2881
4566 27.7779 12971(113) 13545.8555 13160.8213
4567 27.7839 12931(112) 13546.4912 13164.3535
4568 27.7899 13089(113) 13550.6367 13169.6221
4569 27.7959 13007(113) 13571.6572 13174.8896
4570 27.8019 13031(113) 13579.4736 13180.1582
4571 27.8079 12933(113) 13588.7764 13185.4248
4572 27.8139 13149(114) 13599.3232 13190.6934
4573 27.8199 13029(113) 13610.7295 13195.9609
4574 27.8259 13162(113) 13622.4453 13201.2275
4575 27.8319 13119(114) 13633.8486 13206.4961
4576 27.8379 13085(113) 13644.3828 13211.7637
4577 27.8439 13212(114) 13653.8711 13217.0322
4578 27.8499 13149(113) 13674.6572 13222.2988
4579 27.8559 13187(114) 13683.6807 13227.5674
4580 27.8619 13151(113) 13693.6816 13232.8350
4581 27.8679 13216(114) 13705.6602 13238.1035
4582 27.8739 13235(114) 13720.5801 13243.3701
4583 27.8799 13183(114) 13739.4482 13248.6387
4584 27.8859 13215(114) 13763.4053 13253.9062
4585 27.8919 13246(114) 13793.6895 13259.1729
4586 27.8979 13199(114) 13831.8291 13264.4414
4587 27.9039 13301(114) 13879.4697 13269.7090
4588 27.9099 13363(114) 13938.3760 13274.9775
4589 27.9159 13412(115) 14010.2783 13280.2441
4590 27.9219 13702(116) 14096.6328 13285.5127
4591 27.9279 13718(116) 14198.5918 13290.7803
4592 27.9339 13798(116) 14316.1494 13296.0488
4593 27.9399 14007(117) 14448.3623 13301.3154
4594 27.9459 14103(118) 14563.6064 13306.5840
4595 27.9519 14201(118) 14714.3154 13311.8516
4596 27.9579 14451(119) 14862.0479 13317.1182
4597 27.9639 14594(120) 14993.8516 13322.3867
4598 27.9699 14881(121) 15094.1777 13327.6543
4599 27.9759 14746(120) 15149.1074 13332.9229
4600 27.9819 14782(120) 15155.3848 13338.1895
4601 27.9879 14741(120) 15110.5293 13343.4580
4602 27.9939 14722(120) 15030.0605 13348.7256
4603 27.9999 14637(120) 14929.6357 13353.9941
4604 28.0059 14483(119) 14823.3652 13359.2607
4605 28.0119 14378(119) 14721.5322 13364.5293
4606 28.0179 14351(118) 14631.2119 13369.7969
4607 28.0239 14452(119) 14556.0576 13375.0635
4608 28.0299 14357(118) 14498.0420 13380.3320
4609 28.0359 14460(119) 14457.5029 13385.5996
4610 28.0419 14343(119) 14412.3506 13390.8682
4611 28.0479 14415(119) 14405.3584 13396.1348
4612 28.0539 14475(119) 14413.0625 13401.4033
4613 28.0599 14431(119) 14434.0645 13406.6709
4614 28.0659 14594(120) 14467.6025 13411.9395
4615 28.0719 14721(120) 14512.7891 13417.2061
4616 28.0779 14887(121) 14569.5830 13422.4746
4617 28.0839 14888(121) 14637.6523 13427.7422
4618 28.0899 14951(121) 14717.9512 13433.0088
4619 28.0959 15068(121) 14812.1064 13438.2773
4620 28.1019 15287(123) 14922.3857 13443.5449
4621 28.1079 15352(123) 15052.1025 13448.8135
4622 28.1139 15586(124) 15205.8584 13454.0801
4623 28.1199 15876(125) 15389.7500 13459.3486
4624 28.1259 16049(126) 15612.4082 13464.6162
4625 28.1319 16337(127) 15884.0361 13469.8848
4626 28.1379 16747(128) 16218.7871 13475.1514
4627 28.1439 17132(130) 16633.4629 13480.4189
4628 28.1499 17586(132) 17148.3027 13485.6875
4629 28.1559 18147(134) 17786.3125 13490.9541
4630 28.1619 18987(137) 18571.5098 13496.2227
4631 28.1679 19714(139) 19617.0156 13501.4902
4632 28.1739 20685(142) 20759.6719 13506.7588
4633 28.1799 21980(147) 22114.6172 13512.0254
4634 28.1859 23541(152) 23675.1992 13517.2939
4635 28.1919 26004(160) 25429.9492 13522.5615
4636 28.1979 27976(166) 27352.0469 13527.8301
4637 28.2039 30763(174) 29391.5273 13533.0967
4638 28.2099 33800(182) 31468.0430 13538.3643
4639 28.2159 36637(190) 33439.2578 13543.6328
4640 28.2219 39454(197) 35112.3555 13548.9014
4641 28.2279 41098(201) 36248.8047 13554.1680
4642 28.2339 40928(201) 36647.2812 13559.4355
4643 28.2399 39188(197) 36220.3867 13564.7041
4644 28.2459 36849(191) 35045.5312 13569.9707
4645 28.2519 34051(183) 33322.8789 13575.2393
4646 28.2579 30605(174) 31349.7773 13580.5068
4647 28.2639 27380(164) 29242.2031 13585.7754
4648 28.2699 24822(157) 27210.7930 13591.0420
4649 28.2759 23119(150) 25353.8086 13596.3096
4650 28.2819 21791(146) 23731.5195 13601.5781
4651 28.2879 20534(142) 22372.9414 13606.8467
4652 28.2939 19954(140) 21285.4844 13612.1133
4653 28.2999 19372(138) 20463.4492 13617.3809
4654 28.3059 18983(137) 19888.8047 13622.6494
4655 28.3119 18884(136) 19541.3926 13627.9160
4656 28.3179 18914(137) 19454.6543 13633.1846
4657 28.3239 19059(137) 19482.4414 13638.4521
4658 28.3299 19395(139) 19654.8672 13643.7207
4659 28.3359 19730(140) 19938.0273 13648.9873
4660 28.3419 20691(143) 20294.0469 13654.2549
4661 28.3479 21137(144) 20674.9648 13659.5234
4662 28.3539 21564(146) 21025.6777 13664.7920
4663 28.3599 21707(147) 21291.7773 13670.0586
4664 28.3659 22008(147) 21436.4277 13675.3262
4665 28.3719 21834(146) 21473.7246 13680.5947
4666 28.3779 21649(146) 21394.6328 13685.8613
4667 28.3839 21335(145) 21261.6914 13691.1299
4668 28.3899 20971(144) 21116.8867 13696.3975
4669 28.3959 21040(144) 20983.5137 13701.6660
4670 28.4019 21188(145) 20864.5234 13706.9326
4671 28.4079 21249(144) 20740.6191 13712.2002
4672 28.4139 21285(145) 20577.5820 13717.4688
4673 28.4199 21243(145) 20342.0312 13722.7373
4674 28.4259 20886(143) 20014.8633 13728.0039
4675 28.4319 20436(142) 19602.8379 13733.2715
4676 28.4379 19736(140) 19134.6230 13738.5400
4677 28.4439 19078(137) 18645.8164 13743.8066
4678 28.4499 18398(135) 18168.8789 13749.0752
4679 28.4559 17794(133) 17726.7227 13754.3428
4680 28.4619 17224(130) 17333.6660 13759.6113
4681 28.4679 16875(129) 16997.0859 13764.8779
4682 28.4739 16711(129) 16719.1641 13770.1455
4683 28.4799 16618(128) 16500.1914 13775.4141
4684 28.4859 16330(127) 16337.1387 13780.6826
4685 28.4919 16203(127) 16226.6025 13785.9492
4686 28.4979 16006(126) 16163.5566 13791.2168
4687 28.5039 16015(126) 16142.7988 13796.4854
4688 28.5099 16077(126) 16158.6025 13801.7520
4689 28.5159 16175(127) 16204.8027 13807.0205
4690 28.5219 16191(126) 16274.4062 13812.2881
4691 28.5279 16200(126) 16359.2041 13817.5566
4692 28.5339 16364(127) 16449.0293 13822.8232
4693 28.5399 16534(128) 16528.3750 13828.0908
4694 28.5459 16333(127) 16592.9004 13833.3594
4695 28.5519 16486(127) 16630.3711 13838.6279
4696 28.5579 16401(127) 16637.8613 13843.8945
4697 28.5639 16510(127) 16620.4355 13849.1621
4698 28.5699 16521(128) 16587.9980 13854.4307
4699 28.5759 16447(127) 16552.2930 13859.6973
4700 28.5819 16377(127) 16523.3184 13864.9658
4701 28.5879 16271(127) 16508.6816 13870.2334
4702 28.5939 16325(127) 16514.6738 13875.5020
4703 28.5999 16354(128) 16543.6074 13880.7686
4704 28.6059 16534(128) 16599.2930 13886.0361
4705 28.6119 16763(129) 16684.0293 13891.3047
4706 28.6179 17076(130) 16800.7383 13896.5732
4707 28.6239 17181(130) 16952.6777 13901.8398
4708 28.6299 17588(132) 17144.6816 13907.1074
4709 28.6359 17859(133) 17384.0625 13912.3760
4710 28.6419 18288(134) 17680.2988 13917.6426
4711 28.6479 18654(136) 18048.0273 13922.9111
4712 28.6539 19215(138) 18506.2090 13928.1787
4713 28.6599 19662(139) 19079.9258 13933.4473
4714 28.6659 20483(142) 19799.4805 13938.7139
4715 28.6719 21370(146) 20698.8652 13943.9814
4716 28.6779 22073(148) 21816.0527 13949.2500
4717 28.6839 23712(153) 23182.8594 13954.5186
4718 28.6899 25366(159) 24830.3047 13959.7852
4719 28.6959 27251(165) 26775.6523 13965.0527
4720 28.7019 29472(171) 29020.4062 13970.3213
4721 28.7079 32664(180) 31541.6504 13975.5879
4722 28.7139 35932(189) 34281.1953 13980.8555
4723 28.7199 40373(200) 37140.3672 13986.1240
4724 28.7259 43906(209) 39947.2383 13991.3926
4725 28.7319 47338(217) 42473.5469 13996.6592
4726 28.7379 49631(222) 44436.7500 14001.9268
4727 28.7439 50450(224) 45575.3008 14007.1953
4728 28.7499 49654(222) 45744.5586 14012.4639
4729 28.7559 47476(217) 44991.1172 14017.7305
4730 28.7619 43685(209) 43528.5859 14022.9980
4731 28.7679 40681(201) 41676.4688 14028.2666
4732 28.7739 37814(194) 39727.6484 14033.5332
4733 28.7799 35589(188) 37924.1562 14038.8008
4734 28.7859 33885(184) 36436.8047 14044.0693
4735 28.7919 33248(182) 35369.2109 14049.3379
4736 28.7979 33257(182) 34779.2852 14054.6045
4737 28.8039 34110(184) 34607.1172 14059.8721
4738 28.8099 35216(187) 34965.7969 14065.1406
4739 28.8159 36636(191) 35748.0977 14070.4092
4740 28.8219 38646(196) 36779.1172 14075.6758
4741 28.8279 40360(201) 37990.5000 14080.9434
4742 28.8339 41639(204) 39112.6484 14086.2119
4743 28.8399 42416(206) 40046.0234 14091.4785
4744 28.8459 42343(205) 40712.2578 14096.7461
4745 28.8519 42034(204) 41137.5859 14102.0146
4746 28.8579 41378(203) 41413.6445 14107.2832
4747 28.8639 41267(203) 41656.2539 14112.5498
4748 28.8699 41831(204) 41932.8203 14117.8174
4749 28.8759 42930(207) 42246.6289 14123.0859
4750 28.8819 44070(210) 42514.5586 14128.3545
4751 28.8879 45287(212) 42596.5859 14133.6211
4752 28.8939 45335(212) 42333.7422 14138.8887
4753 28.8999 44312(210) 41618.2539 14144.1572
4754 28.9059 42204(205) 40450.9375 14149.4238
4755 28.9119 39198(198) 38938.0547 14154.6914
4756 28.9179 36045(190) 37243.6719 14159.9600
4757 28.9239 33283(182) 35525.0938 14165.2285
4758 28.9299 31346(177) 33895.3633 14170.4951
4759 28.9359 29560(172) 32392.0586 14175.7627
4760 28.9419 28508(168) 31052.8711 14181.0312
4761 28.9479 27654(166) 29822.4453 14186.2998
4762 28.9539 26601(163) 28648.3828 14191.5664
4763 28.9599 25990(161) 27478.1719 14196.8340
4764 28.9659 24781(157) 26289.9805 14202.1025
4765 28.9719 23634(154) 25095.5703 14207.3711
4766 28.9779 22118(148) 23926.3711 14212.6367
4767 28.9839 20906(144) 22818.1406 14217.9053
4768 28.9899 19716(140) 21796.8477 14223.1738
4769 28.9959 18735(137) 20866.4844 14228.4404
4770 29.0019 18000(134) 20055.9336 14233.7080
4771 29.0079 17672(133) 19350.7344 14238.9766
4772 29.0139 17169(131) 18746.4570 14244.2451
4773 29.0199 16867(130) 18233.9141 14249.5117
4774 29.0259 16449(128) 17803.6992 14254.7793
4775 29.0319 15998(126) 17445.2305 14260.0479
4776 29.0379 15951(126) 17148.2227 14265.3164
4777 29.0439 15918(126) 16962.0195 14270.5820
4778 29.0499 15648(125) 16759.7305 14275.8506
4779 29.0559 15473(124) 16591.9688 14281.1191
4780 29.0619 15332(124) 16451.8184 14286.3857
4781 29.0679 15102(122) 16333.9502 14291.6533
4782 29.0739 15223(123) 16234.1348 14296.9219
4783 29.0799 15025(122) 16148.9551 14302.1904
4784 29.0859 15065(123) 16076.0820 14307.4570
4785 29.0919 14946(122) 16013.6436 14312.7246
4786 29.0979 14811(122) 15960.4785 14317.9932
4787 29.1039 14747(122) 15915.5996 14323.2617
4788 29.1099 14695(121) 15878.3965 14328.5273
4789 29.1159 14664(121) 15848.5879 14333.7959
4790 29.1219 14670(121) 15825.8555 14339.0645
4791 29.1279 14669(121) 15840.3623 14344.3311
4792 29.1339 14657(121) 15831.8291 14349.5986
4793 29.1399 14621(121) 15829.7295 14354.8672
4794 29.1459 14715(121) 15817.7578 14344.2480
4795 29.1519 14680(121) 15811.2871 14333.6318
4796 29.1579 14846(122) 15809.4365 14323.0127
4797 29.1639 14836(122) 15811.0117 14312.3936
4798 29.1699 14783(121) 15814.2822 14301.7744
4799 29.1759 14964(122) 15817.1631 14291.1592
4800 29.1819 14890(122) 15817.4854 14280.5400
4801 29.1879 14978(122) 15813.6543 14269.9209
4802 29.1939 15106(123) 15805.3672 14259.3047
4803 29.1999 15057(123) 15793.6963 14248.6855
4804 29.2059 15034(122) 15780.7930 14238.0664
4805 29.2119 15039(123) 15768.9561 14227.4473
4806 29.2179 15205(123) 15760.3711 14216.8311
4807 29.2239 15088(123) 15756.7207 14206.2119
4808 29.2299 15167(123) 15758.9316 14195.5928
4809 29.2359 15327(124) 15768.6611 14184.9736
4810 29.2419 15194(123) 15810.4346 14174.3584
4811 29.2479 15319(124) 15837.1758 14163.7393
4812 29.2539 15351(124) 15873.1729 14153.1201
4813 29.2599 15535(125) 15920.0381 14142.5039
4814 29.2659 15479(125) 15977.0156 14131.8848
4815 29.2719 15836(126) 16046.1953 14121.2656
4816 29.2779 15898(126) 16129.3438 14110.6465
4817 29.2839 16058(126) 16228.9062 14100.0303
4818 29.2899 16396(128) 16348.4766 14089.4111
4819 29.2959 16488(128) 16492.9355 14078.7920
4820 29.3019 16645(129) 16669.1074 14068.1729
4821 29.3079 17107(131) 16886.1387 14057.5576
4822 29.3139 17602(133) 17156.3828 14046.9385
4823 29.3199 17929(134) 17495.5039 14036.3193
4824 29.3259 18361(136) 17924.5605 14025.7031
4825 29.3319 19083(138) 18378.6133 14015.0840
4826 29.3379 19602(140) 19058.3320 14004.4648
4827 29.3439 20304(142) 19905.6992 13993.8457
4828 29.3499 21189(146) 20949.4355 13983.2305
4829 29.3559 22136(149) 22217.2363 13972.6113
4830 29.3619 23534(153) 23729.8066 13961.9912
4831 29.3679 25395(159) 25497.8945 13951.3721
4832 29.3739 27045(164) 27516.0195 13940.7568
4833 29.3799 29249(170) 29758.2793 13930.1377
4834 29.3859 32332(180) 32167.2031 13919.5186
4835 29.3919 34833(187) 34644.4297 13908.9023
4836 29.3979 38053(195) 37107.3594 13898.2832
4837 29.4039 39980(200) 39249.4180 13887.6641
4838 29.4099 42299(206) 40915.0586 13877.0449
4839 29.4159 43033(207) 41906.2812 13866.4297
4840 29.4219 42979(207) 42089.4180 13855.8105
4841 29.4279 41692(204) 41391.4062 13845.1914
4842 29.4339 39654(199) 39994.7852 13834.5713
4843 29.4399 36791(192) 38033.9766 13823.9561
4844 29.4459 33552(183) 35726.2461 13813.3369
4845 29.4519 30656(175) 33279.6523 13802.7178
4846 29.4579 28015(167) 30859.1855 13792.1016
4847 29.4639 25891(161) 28578.7148 13781.4824
4848 29.4699 24240(156) 26508.7891 13770.8633
4849 29.4759 22819(151) 24688.2617 13760.2441
4850 29.4819 21707(147) 23070.4590 13749.6289
4851 29.4879 20934(145) 21768.2480 13739.0098
4852 29.4939 19990(142) 20705.5566 13728.3906
4853 29.4999 19513(140) 19858.4512 13717.7715
4854 29.5059 19177(139) 19200.1191 13707.1553
4855 29.5119 18819(137) 18702.8555 13696.5361
4856 29.5179 18569(136) 18342.6543 13685.9170
4857 29.5239 18480(136) 18099.0117 13675.3008
4858 29.5299 18257(135) 17956.8633 13664.6816
4859 29.5359 18467(136) 17907.2500 13654.0625
4860 29.5419 18571(137) 17947.1680 13643.4434
4861 29.5479 18521(136) 18060.9551 13632.8281
4862 29.5539 18845(137) 18295.0898 13622.2090
4863 29.5599 19193(139) 18643.2188 13611.5898
4864 29.5659 19525(140) 19123.4590 13600.9707
4865 29.5719 20179(142) 19754.8633 13590.3545
4866 29.5779 21054(145) 20555.3301 13579.7354
4867 29.5839 21981(148) 21542.3984 13569.1162
4868 29.5899 23009(151) 22726.6406 13558.5000
4869 29.5959 25095(159) 24112.9531 13547.8809
4870 29.6019 26385(163) 25687.6328 13537.2617
4871 29.6079 28870(170) 27437.7871 13526.6426
4872 29.6139 31341(177) 29285.9102 13516.0273
4873 29.6199 33698(184) 31163.3594 13505.4082
4874 29.6259 35924(189) 32948.3477 13494.7891
4875 29.6319 38024(195) 34485.4844 13484.1699
4876 29.6379 38988(198) 35605.3711 13473.5537
4877 29.6439 38834(197) 36171.6719 13462.9346
4878 29.6499 37910(195) 36133.6758 13452.3154
4879 29.6559 35985(190) 35553.0586 13441.6992
4880 29.6619 33907(184) 34590.2500 13431.0801
4881 29.6679 31737(178) 33411.7812 13420.4609
4882 29.6739 29728(173) 32202.7754 13409.8418
4883 29.6799 28464(168) 31096.4297 13399.2266
4884 29.6859 27352(165) 30184.9004 13388.6074
4885 29.6919 27068(165) 29513.2012 13377.9883
4886 29.6979 27393(165) 29097.6406 13367.3691
4887 29.7039 27741(166) 28914.0352 13356.7529
4888 29.7099 29030(170) 28908.4375 13346.1338
4889 29.7159 30152(174) 28996.7832 13335.5146
4890 29.7219 31134(176) 29065.9746 13324.8955
4891 29.7279 31461(177) 29001.0430 13314.2793
4892 29.7339 31385(178) 28708.1133 13303.6602
4893 29.7399 30502(174) 28150.4609 13293.0410
4894 29.7459 29098(171) 27354.4609 13282.4258
4895 29.7519 27139(165) 26395.3008 13271.8066
4896 29.7579 25389(159) 25364.0234 13261.1875
4897 29.7639 23592(153) 24349.1484 13250.5684
4898 29.7699 22430(150) 23417.0508 13239.9521
4899 29.7759 21401(146) 22618.0703 13229.3330
4900 29.7819 20696(144) 21984.3398 13218.7139
4901 29.7879 20362(143) 21537.7227 13208.0947
4902 29.7939 19930(141) 21285.8027 13197.4785
4903 29.7999 19875(141) 21226.5996 13186.8594
4904 29.8059 20053(142) 21350.2637 13176.2402
4905 29.8119 20259(142) 21634.4492 13165.6250
4906 29.8179 20589(143) 22049.2246 13155.0059
4907 29.8239 21136(146) 22549.4531 13144.3867
4908 29.8299 21864(148) 23077.8242 13133.7676
4909 29.8359 22049(148) 23561.0742 13123.1514
4910 29.8419 22398(149) 23920.3164 13112.5322
4911 29.8479 22695(151) 24083.8418 13101.9131
4912 29.8539 22342(149) 24008.8047 13091.2939
4913 29.8599 21955(148) 23696.8750 13080.6777
4914 29.8659 21541(147) 23190.9297 13070.0586
4915 29.8719 20725(144) 22555.4414 13059.4395
4916 29.8779 20127(142) 21861.4668 13048.8242
4917 29.8839 19581(140) 21167.5000 13038.2051
4918 29.8899 19111(138) 20520.8887 13027.5859
4919 29.8959 18743(136) 19975.7773 13016.9668
4920 29.9019 18782(137) 19517.5703 13006.3506
4921 29.9079 18461(136) 19183.8789 12995.7314
4922 29.9139 18594(136) 18985.5938 12985.1123
4923 29.9199 18782(137) 18934.1777 12974.4932
4924 29.9259 19217(138) 19035.4258 12963.8770
4925 29.9319 19515(139) 19297.5547 12953.2578
4926 29.9379 19838(141) 19728.1582 12942.6387
4927 29.9439 20901(145) 20336.0195 12932.0234
4928 29.9499 21093(145) 21133.2266 12921.4043
4929 29.9559 22265(149) 22125.9648 12910.7852
4930 29.9619 23488(153) 23321.1562 12900.1660
4931 29.9679 24661(157) 24707.7988 12889.5498
4932 29.9739 26356(162) 26266.4805 12878.9307
4933 29.9799 28830(170) 27952.3965 12868.3115
4934 29.9859 30675(175) 29693.2773 12857.6924
4935 29.9919 32901(181) 31381.6074 12847.0762
4936 29.9979 35135(187) 32871.6406 12836.4570
4937 30.0039 35968(189) 33995.8398 12825.8379
4938 30.0099 36508(190) 34589.5312 12815.2227
4939 30.0159 36297(190) 34518.3125 12804.6035
4940 30.0219 34640(186) 33844.4844 12793.9844
4941 30.0279 32792(181) 32582.6992 12783.3652
4942 30.0339 30212(173) 30987.2070 12772.7490
4943 30.0399 27856(167) 29179.0469 12762.1299
4944 30.0459 25622(160) 27299.4023 12751.5107
4945 30.0519 23583(153) 25460.8750 12740.8916
4946 30.0579 21774(148) 23733.1992 12730.2764
4947 30.0639 20495(143) 22162.7891 12719.6572
4948 30.0699 19288(138) 20773.7441 12709.0371
4949 30.0759 18414(136) 19574.2871 12698.4219
4950 30.0819 17666(133) 18561.3672 12687.8027
4951 30.0879 17249(131) 17721.3555 12677.1836
4952 30.0939 16629(129) 17039.1738 12666.5645
4953 30.0999 16247(128) 16493.6602 12655.9482
4954 30.1059 15933(126) 16065.2207 12645.3291
4955 30.1119 15649(125) 15735.0781 12634.7100
4956 30.1179 15514(125) 15486.9961 12624.0908
4957 30.1239 15271(123) 15307.8135 12613.4756
4958 30.1299 15229(123) 15187.2090 12602.8564
4959 30.1359 15190(123) 15118.6553 12592.2373
4960 30.1419 14962(122) 15097.5391 12581.6211
4961 30.1479 14964(122) 15121.9385 12571.0020
4962 30.1539 14939(122) 15199.1982 12560.3828
4963 30.1599 15078(123) 15313.4717 12549.8262
4964 30.1659 15108(123) 15472.5508 12539.2734
4965 30.1719 15494(125) 15676.0000 12528.7168
4966 30.1779 15464(124) 15921.8350 12518.1611
4967 30.1839 15652(125) 16206.5195 12507.6045
4968 30.1899 16031(127) 16525.1289 12497.0508
4969 30.1959 16253(127) 16871.0723 12486.4951
4970 30.2019 16619(129) 17236.3535 12475.9385
4971 30.2079 17090(131) 17607.2539 12465.3857
4972 30.2139 17531(132) 17965.9082 12454.8291
4973 30.2199 17772(133) 18287.6328 12444.2725
4974 30.2259 18064(135) 18547.6250 12433.7168
4975 30.2319 18226(135) 18727.4180 12423.1631
4976 30.2379 18145(134) 18824.0312 12412.6074
4977 30.2439 18117(134) 18848.3945 12402.0508
4978 30.2499 18123(135) 18821.7109 12391.4941
4979 30.2559 18169(135) 18705.7207 12380.9414
4980 30.2619 18160(134) 18626.0449 12370.3848
4981 30.2679 18158(135) 18522.5664 12359.8281
4982 30.2739 17946(134) 18381.3203 12349.2754
4983 30.2799 17881(133) 18184.6270 12338.7188
4984 30.2859 17657(133) 17917.8066 12328.1631
4985 30.2919 17270(131) 17579.7168 12317.6064
4986 30.2979 16789(129) 17182.9629 12307.0537
4987 30.3039 16466(128) 16750.4902 12296.4971
4988 30.3099 15958(126) 16306.7041 12285.9404
4989 30.3159 15611(125) 15873.7988 12275.3838
4990 30.3219 15138(123) 15466.6992 12264.8311
4991 30.3279 14803(121) 15095.2129 12254.2744
4992 30.3339 14514(120) 14764.6680 12243.7188
4993 30.3399 14259(119) 14476.6768 12233.1650
4994 30.3459 14185(119) 14198.0830 12222.6094
4995 30.3519 14005(118) 13991.9736 12212.0527
4996 30.3579 13707(117) 13822.0146 12201.4961
4997 30.3639 13826(118) 13683.7461 12190.9434
4998 30.3699 13633(116) 13573.1660 12180.3867
4999 30.3759 13518(116) 13486.6348 12169.8301
5000 30.3819 13625(117) 13421.1895 12159.2744
5001 30.3879 13509(116) 13374.7275 12148.7207
5002 30.3939 13425(116) 13345.7539 12138.1650
5003 30.3999 13657(117) 13333.8770 12127.6084
5004 30.4059 13496(116) 13339.1133 12117.0557
5005 30.4119 13620(117) 13362.6152 12106.4990
5006 30.4179 13674(117) 13406.2334 12095.9424
5007 30.4239 13712(117) 13472.7559 12085.3857
5008 30.4299 13924(118) 13583.1943 12074.8330
5009 30.4359 14143(119) 13707.1680 12064.2764
5010 30.4419 14386(120) 13867.1621 12053.7207
5011 30.4479 14453(120) 14068.2480 12043.1641
5012 30.4539 14761(121) 14316.8330 12032.6113
5013 30.4599 15109(123) 14618.5596 12022.0547
5014 30.4659 15424(124) 14954.5791 12011.4980
5015 30.4719 16148(127) 15374.7188 12000.9414
5016 30.4779 17212(131) 15853.2373 11990.3887
5017 30.4839 17801(133) 16383.8037 11979.8320
5018 30.4899 18879(137) 16953.4883 11969.2764
5019 30.4959 20076(141) 17540.6484 11958.7227
5020 30.5019 21159(146) 18112.3477 11948.1670
5021 30.5079 21981(148) 18624.5664 11937.6104
5022 30.5139 22718(151) 19024.7852 11927.0537
5023 30.5199 22666(150) 19260.9277 11916.5010
5024 30.5259 22226(149) 19296.5234 11905.9443
5025 30.5319 21207(145) 19123.2578 11895.3877
5026 30.5379 20255(142) 18764.4336 11884.8320
5027 30.5439 19044(137) 18267.1562 11874.2783
5028 30.5499 17870(133) 17684.2773 11863.7227
5029 30.5559 16737(129) 17063.2461 11853.1660
5030 30.5619 15894(125) 16445.8984 11842.6133
5031 30.5679 15217(123) 15856.0986 11832.0566
5032 30.5739 14760(121) 15346.8730 11821.5000
5033 30.5799 14358(119) 14858.7188 11810.9434
5034 30.5859 13868(117) 14430.1055 11800.3906
5035 30.5919 13725(117) 14059.7949 11789.8340
5036 30.5979 13523(116) 13744.9199 11779.2783
5037 30.6039 13280(115) 13480.6406 11768.7217
5038 30.6099 13241(115) 13286.8691 11758.1689
5039 30.6159 13106(115) 13106.9395 11747.6123
5040 30.6219 12955(113) 12959.8047 11737.0557
5041 30.6279 13062(114) 12840.2227 11726.5029
5042 30.6339 12921(114) 12684.9951 11715.9463
5043 30.6399 12810(113) 12607.2295 11705.3906
5044 30.6459 12602(112) 12544.3799 11694.8340
5045 30.6519 12676(112) 12493.8936 11684.2803
5046 30.6579 12683(112) 12453.9365 11673.7246
5047 30.6639 12666(112) 12423.3203 11663.1680
5048 30.6699 12673(113) 12401.5117 11652.6113
5049 30.6759 12531(111) 12388.2373 11642.0586
5050 30.6819 12633(112) 12434.7939 11681.7725
5051 30.6879 12689(112) 12491.6865 11721.4854
5052 30.6939 12591(112) 12560.4258 11761.1865
5053 30.6999 12836(113) 12642.9619 11800.8994
5054 30.7059 12819(113) 12741.7061 11840.6133
5055 30.7119 12836(113) 12859.0576 11880.3271
5056 30.7179 12882(113) 12997.7070 11920.0273
5057 30.7239 13058(114) 13159.9883 11959.7412
5058 30.7299 13199(115) 13347.6816 11999.4551
5059 30.7359 13249(115) 13561.6699 12039.1680
5060 30.7419 13495(116) 13801.3779 12078.8691
5061 30.7479 13871(118) 14064.9521 12118.5820
5062 30.7539 13953(118) 14347.2461 12158.2959
5063 30.7599 14177(119) 14641.0840 12197.9971
5064 30.7659 14667(121) 14934.6611 12237.7100
5065 30.7719 14988(122) 15212.0244 12277.4238
5066 30.7779 15341(124) 15453.0811 12317.1367
5067 30.7839 15398(124) 15635.9932 12356.8379
5068 30.7899 15679(125) 15752.2363 12396.5518
5069 30.7959 15425(124) 15773.2031 12436.2646
5070 30.8019 15185(123) 15711.9414 12475.9785
5071 30.8079 14754(121) 15583.7051 12515.6797
5072 30.8139 14626(121) 15408.0967 12555.3926
5073 30.8199 14256(119) 15209.1201 12595.1064
5074 30.8259 13912(118) 15003.7646 12634.8066
5075 30.8319 13818(117) 14805.1250 12674.5205
5076 30.8379 13582(116) 14623.1133 12714.2344
5077 30.8439 13409(116) 14462.8203 12753.9473
5078 30.8499 13388(116) 14327.7305 12793.6484
5079 30.8559 13197(115) 14207.4092 12833.3613
5080 30.8619 13211(115) 14122.8105 12873.0752
5081 30.8679 13307(115) 14098.7578 12912.7891
5082 30.8739 13173(115) 14057.1992 12952.4893
5083 30.8799 13083(114) 14032.5723 12992.2031
5084 30.8859 13134(114) 13978.5645 12988.4229
5085 30.8919 13298(115) 13936.6758 12984.6426
5086 30.8979 13123(114) 13905.1240 12980.8623
5087 30.9039 13176(115) 13882.7100 12977.0811
5088 30.9099 13113(114) 13858.5195 12973.3008
5089 30.9159 13139(114) 13852.0371 12969.5215
5090 30.9219 13173(114) 13852.7646 12965.7402
5091 30.9279 13289(115) 13860.6318 12961.9600
5092 30.9339 13423(116) 13875.9463 12958.1797
5093 30.9399 13410(115) 13899.3740 12954.3994
5094 30.9459 13488(116) 13932.0938 12950.6191
5095 30.9519 13588(116) 13975.6592 12946.8379
5096 30.9579 13786(117) 14032.4053 12943.0586
5097 30.9639 13812(117) 14105.2920 12939.2783
5098 30.9699 13948(118) 14198.0078 12935.4971
5099 30.9759 14136(119) 14315.0713 12931.7168
5100 30.9819 14464(120) 14461.5000 12927.9375
5101 30.9879 14462(120) 14643.2363 12924.1562
5102 30.9939 14864(122) 14865.4336 12920.3760
5103 30.9999 15057(122) 15135.9980 12916.5947
5104 31.0059 15494(124) 15455.6826 12912.8154
5105 31.0119 15867(126) 15829.4854 12909.0352
5106 31.0179 16622(129) 16257.9121 12905.2539
5107 31.0239 17326(131) 16738.0234 12901.4746
5108 31.0299 17804(133) 17264.0039 12897.6943
5109 31.0359 18964(137) 17822.1387 12893.9131
5110 31.0419 19730(140) 18394.4824 12890.1328
5111 31.0479 20400(143) 18951.9082 12886.3535
5112 31.0539 21407(146) 19458.7031 12882.5723
5113 31.0599 21336(146) 19871.4648 12878.7920
5114 31.0659 21543(146) 20147.8516 12875.0107
5115 31.0719 21267(145) 20258.0137 12871.2314
5116 31.0779 20695(143) 20194.8066 12867.4512
5117 31.0839 20144(142) 19977.9824 12863.6699
5118 31.0899 19218(139) 19646.9473 12859.8906
5119 31.0959 18588(136) 19248.1992 12856.1104
5120 31.1019 18078(134) 18827.5918 12852.3291
5121 31.1079 17572(132) 18438.2969 12848.5488
5122 31.1139 17378(132) 18082.6426 12844.7695
5123 31.1199 17162(131) 17799.7129 12840.9883
5124 31.1259 17141(131) 17608.9199 12837.2080
5125 31.1319 17282(131) 17528.5938 12833.4268
5126 31.1379 17614(133) 17572.5859 12829.6475
5127 31.1439 17658(132) 17755.4805 12825.8672
5128 31.1499 18226(135) 18088.5195 12822.0859
5129 31.1559 18469(136) 18563.6406 12818.3066
5130 31.1619 19035(138) 19229.1660 12814.5264
5131 31.1679 19753(140) 20070.0039 12810.7451
5132 31.1739 20848(144) 21088.0781 12806.9648
5133 31.1799 21906(148) 22276.2734 12803.1846
5134 31.1859 23304(152) 23622.2617 12799.4043
5135 31.1919 24535(156) 25095.7266 12795.6240
5136 31.1979 25850(160) 26655.0605 12791.8428
5137 31.2039 27471(166) 28233.1035 12788.0635
5138 31.2099 29509(171) 29746.1973 12784.2832
5139 31.2159 30780(175) 31096.0273 12780.5020
5140 31.2219 32414(180) 32183.5000 12776.7217
5141 31.2279 33649(183) 32935.2539 12772.9414
5142 31.2339 34776(186) 33313.6914 12769.1611
5143 31.2399 35312(188) 33314.0234 12765.3809
5144 31.2459 35589(188) 32964.0938 12761.6006
5145 31.2519 34680(186) 32268.8535 12757.8203
5146 31.2579 33770(183) 31282.0723 12754.0391
5147 31.2639 31872(178) 30032.5391 12750.2588
5148 31.2699 29671(172) 28599.4805 12746.4795
5149 31.2759 27687(166) 27065.2578 12742.6982
5150 31.2819 25513(160) 25508.8398 12738.9180
5151 31.2879 23217(152) 24000.2188 12735.1377
5152 31.2939 21743(147) 22588.1113 12731.3574
5153 31.2999 20512(143) 21303.3750 12727.5771
5154 31.3059 19491(140) 20164.8223 12723.7959
5155 31.3119 18890(137) 19176.6582 12720.0166
5156 31.3179 18442(136) 18337.0742 12716.2363
5157 31.3239 17897(134) 17637.7285 12712.4551
5158 31.3299 17597(132) 17068.1172 12708.6748
5159 31.3359 17078(130) 16615.3730 12704.8955
5160 31.3419 17074(131) 16266.1777 12701.1143
5161 31.3479 16894(129) 16009.2100 12697.3340
5162 31.3539 16824(129) 15833.3125 12693.5527
5163 31.3599 16689(129) 15730.2910 12689.7734
5164 31.3659 16710(129) 15693.1924 12685.9932
5165 31.3719 16673(129) 15717.2695 12682.2119
5166 31.3779 16819(129) 15799.3291 12678.4326
5167 31.3839 16804(129) 15937.1602 12674.6523
5168 31.3899 17121(131) 16129.4346 12670.8711
5169 31.3959 17330(132) 16374.7090 12667.0908
5170 31.4019 17654(133) 16671.5312 12663.3115
5171 31.4079 18025(134) 17017.3301 12659.5303
5172 31.4139 18046(134) 17408.0000 12655.7500
5173 31.4199 18660(136) 17837.7578 12651.9688
5174 31.4259 19082(138) 18297.2324 12648.1895
5175 31.4319 19471(139) 18766.9961 12644.4092
5176 31.4379 19913(141) 19250.4355 12640.6279
5177 31.4439 20570(144) 19729.6113 12636.8486
5178 31.4499 20591(144) 20202.9766 12633.0684
5179 31.4559 20854(144) 20682.3613 12629.2871
5180 31.4619 21273(145) 21187.2812 12625.5068
5181 31.4679 21668(147) 21745.2773 12621.7275
5182 31.4739 22314(149) 22377.8613 12617.9463
5183 31.4799 23266(152) 23097.5605 12614.1660
5184 31.4859 24171(156) 23902.4922 12610.3848
5185 31.4919 25000(158) 24772.8047 12606.6055
5186 31.4979 26360(162) 25672.2734 12602.8252
5187 31.5039 27761(166) 26537.4609 12599.0439
5188 31.5099 28689(170) 27290.9688 12595.2646
5189 31.5159 29391(171) 27839.1055 12591.4844
5190 31.5219 29656(171) 28094.4785 12587.7031
5191 31.5279 29437(172) 27999.7324 12583.9229
5192 31.5339 28445(168) 27545.9648 12580.1426
5193 31.5399 27063(164) 26774.8789 12576.3623
5194 31.5459 25280(159) 25766.4219 12572.5820
5195 31.5519 23891(154) 24609.0898 12568.8008
5196 31.5579 22210(149) 23389.1934 12565.0215
5197 31.5639 21197(146) 22172.0410 12561.2412
5198 31.5699 20075(142) 21009.3516 12557.4600
5199 31.5759 19056(137) 19932.7031 12553.6807
5200 31.5819 18262(135) 18962.5742 12549.8994
5201 31.5879 17807(133) 18112.3203 12546.1191
5202 31.5939 17182(131) 17382.8359 12542.3389
5203 31.5999 16592(129) 16772.8086 12538.5586
5204 31.6059 16404(128) 16273.4648 12534.7783
5205 31.6119 16317(128) 15874.5410 12530.9980
5206 31.6179 16043(126) 15563.7549 12527.2168
5207 31.6239 15748(125) 15327.8994 12523.4375
5208 31.6299 15769(126) 15154.2031 12519.6562
5209 31.6359 15577(125) 15029.8184 12515.8760
5210 31.6419 15449(124) 14943.8594 12512.0967
5211 31.6479 15384(124) 14886.1143 12508.3154
5212 31.6539 15312(124) 14848.7012 12504.5352
5213 31.6599 15252(123) 14826.5918 12500.7539
5214 31.6659 15095(122) 14818.1641 12496.9746
5215 31.6719 15225(124) 14825.6045 12493.1943
5216 31.6779 15182(123) 14853.4180 12489.4131
5217 31.6839 15068(122) 14908.4805 12485.6328
5218 31.6899 15207(123) 14997.2246 12481.8535
5219 31.6959 15356(124) 15126.4219 12478.0723
5220 31.7019 15256(123) 15301.2070 12474.2920
5221 31.7079 15541(125) 15525.1758 12470.5127
5222 31.7139 15634(125) 15800.3848 12466.7314
5223 31.7199 15761(125) 16107.6641 12462.9512
5224 31.7259 16250(127) 16477.6914 12459.1699
5225 31.7319 16470(128) 16883.0195 12455.3906
5226 31.7379 16719(129) 17310.2461 12451.6104
5227 31.7439 17299(132) 17769.5723 12447.8291
5228 31.7499 17864(134) 18171.9531 12444.0488
5229 31.7559 18006(134) 18519.3887 12440.2695
5230 31.7619 18371(135) 18766.3125 12436.4883
5231 31.7679 18455(136) 18887.7480 12432.7080
5232 31.7739 18490(136) 18867.3008 12428.9287
5233 31.7799 18262(135) 18708.9238 12425.1475
5234 31.7859 18041(134) 18435.1836 12421.3672
5235 31.7919 17863(134) 18103.1582 12417.5859
5236 31.7979 17291(131) 17704.9395 12413.8066
5237 31.8039 16877(130) 17297.3105 12410.0264
5238 31.8099 16454(128) 16907.6738 12406.2451
5239 31.8159 16218(127) 16559.3008 12402.4648
5240 31.8219 15987(126) 16268.4131 12398.6855
5241 31.8279 15801(126) 16048.2041 12394.9043
5242 31.8339 15767(125) 15908.1758 12391.1240
5243 31.8399 15759(125) 15854.8438 12387.3438
5244 31.8459 15678(125) 15892.3506 12383.5635
5245 31.8519 15723(125) 16021.6074 12379.7832
5246 31.8579 15888(126) 16241.5020 12376.0020
5247 31.8639 16026(126) 16547.1680 12372.2227
5248 31.8699 16216(127) 16930.9629 12368.4424
5249 31.8759 16458(128) 17346.6875 12364.6611
5250 31.8819 17029(130) 17845.8281 12360.8809
5251 31.8879 17048(130) 18370.1406 12357.1016
5252 31.8939 17268(131) 18889.7109 12353.3203
5253 31.8999 17828(133) 19367.9258 12349.5400
5254 31.9059 17967(134) 19763.6172 12345.7598
5255 31.9119 18216(135) 20012.8711 12341.9795
5256 31.9179 18419(135) 20134.5039 12338.1992
5257 31.9239 18164(134) 20086.4375 12334.4180
5258 31.9299 17957(133) 19870.3535 12330.6387
5259 31.9359 17866(133) 19505.1758 12326.8574
5260 31.9419 17371(132) 19023.9609 12323.0771
5261 31.9479 16928(130) 18465.4062 12319.2969
5262 31.9539 16542(128) 17867.8672 12315.5166
5263 31.9599 16123(127) 17263.5586 12311.7363
5264 31.9659 15791(125) 16677.7949 12307.9551
5265 31.9719 15388(124) 16128.3477 12304.1748
5266 31.9779 15043(122) 15626.8252 12300.3955
5267 31.9839 14707(121) 15179.0762 12296.6143
5268 31.9899 14404(120) 14787.7432 12292.8340
5269 31.9959 14219(119) 14451.9062 12289.0547
5270 32.0019 14023(118) 14173.2324 12285.2734
5271 32.0079 13736(117) 13937.5986 12281.4932
5272 32.0139 13644(117) 13744.4131 12277.7129
5273 32.0199 13625(116) 13587.6826 12273.9316
5274 32.0259 13457(116) 13461.7656 12270.1514
5275 32.0319 13293(114) 13361.2344 12266.3730
5276 32.0379 13356(115) 13281.1055 12262.5918
5277 32.0439 13244(114) 13217.2480 12258.8115
5278 32.0499 13167(114) 13165.9639 12255.0303
5279 32.0559 13301(115) 13124.2168 12251.2500
5280 32.0619 12984(114) 13090.6387 12247.4688
5281 32.0679 12942(113) 13060.7764 12243.6885
5282 32.0739 13077(114) 13034.0684 12239.9102
5283 32.0799 12899(113) 13009.5029 12236.1299
5284 32.0859 12950(113) 12986.4082 12232.3486
5285 32.0919 13068(114) 12964.5850 12228.5684
5286 32.0979 12987(114) 12944.1689 12224.7871
5287 32.1039 12844(113) 12925.4600 12221.0068
5288 32.1099 13004(114) 12899.2539 12217.2256
5289 32.1159 12795(113) 12885.1104 12213.4473
5290 32.1219 12726(112) 12873.5889 12209.6670
5291 32.1279 12868(113) 12873.7061 12214.6172
5292 32.1339 12935(114) 12876.9971 12219.5664
5293 32.1399 12806(113) 12883.7207 12224.5166
5294 32.1459 12856(113) 12894.1660 12229.4668
5295 32.1519 12922(114) 12908.6709 12234.4160
5296 32.1579 12827(113) 12927.5654 12239.3662
5297 32.1639 12752(112) 12951.1582 12244.3125
5298 32.1699 13017(114) 12979.8223 12249.2627
5299 32.1759 12748(113) 13013.8770 12254.2129
5300 32.1819 12891(113) 13053.6514 12259.1621
5301 32.1879 13008(114) 13061.8760 12264.1123
5302 32.1939 13037(114) 13114.1289 12269.0625
5303 32.1999 13043(114) 13172.1924 12274.0117
5304 32.2059 13145(114) 13235.6514 12278.9590
5305 32.2119 13269(115) 13303.8096 12283.9082
5306 32.2179 13161(114) 13375.3496 12288.8584
5307 32.2239 13343(115) 13448.3652 12293.8086
5308 32.2299 13504(117) 13520.4902 12298.7578
5309 32.2359 13441(115) 13588.8662 12303.7080
5310 32.2419 13568(116) 13650.3916 12308.6582
5311 32.2479 13731(117) 13702.5625 12313.6045
5312 32.2539 13590(116) 13764.3779 12318.5547
5313 32.2599 13690(117) 13797.2100 12323.5049
5314 32.2659 13963(119) 13823.2441 12328.4541
5315 32.2719 13875(118) 13846.5146 12333.4043
5316 32.2779 14024(118) 13899.0010 12338.3535
5317 32.2839 14131(119) 13931.0195 12343.3037
5318 32.2899 14296(119) 13974.3174 12348.2539
5319 32.2959 14229(119) 14033.7686 12353.2002
5320 32.3019 14689(121) 14114.8057 12358.1504
5321 32.3079 14578(120) 14223.2686 12363.1006
5322 32.3139 14802(121) 14366.0566 12368.0498
5323 32.3199 15056(122) 14551.3818 12373.0000
5324 32.3259 15499(124) 14786.9629 12377.9502
5325 32.3319 15606(125) 15085.8945 12382.8994
5326 32.3379 16008(126) 15458.2148 12387.8467
5327 32.3439 16178(127) 15916.1143 12392.7959
5328 32.3499 16635(129) 16472.2617 12397.7461
5329 32.3559 17104(130) 17137.7617 12402.6963
5330 32.3619 17935(134) 17921.3203 12407.6455
5331 32.3679 18711(137) 18830.1973 12412.5957
5332 32.3739 19553(139) 19867.8457 12417.5459
5333 32.3799 20629(143) 21030.2812 12422.4951
5334 32.3859 21680(147) 22312.8887 12427.4424
5335 32.3919 22989(150) 23679.6992 12432.3916
5336 32.3979 24527(157) 25104.1289 12437.3418
5337 32.4039 26309(162) 26538.3633 12442.2920
5338 32.4099 27344(165) 27938.6992 12447.2412
5339 32.4159 28739(169) 29186.3340 12452.1914
5340 32.4219 29775(172) 30228.0430 12457.1416
5341 32.4279 30340(174) 31006.4922 12462.0879
5342 32.4339 30970(175) 31494.2891 12467.0381
5343 32.4399 31109(176) 31685.1953 12471.9873
5344 32.4459 31198(177) 31640.9180 12476.9375
5345 32.4519 31164(176) 31386.5508 12481.8877
5346 32.4579 31344(177) 30954.5508 12486.8369
5347 32.4639 31211(177) 30363.7012 12491.7871
5348 32.4699 30697(175) 29617.2598 12496.7344
5349 32.4759 29709(172) 28714.5352 12501.6836
5350 32.4819 28480(169) 27664.8867 12506.6338
5351 32.4879 26724(163) 26494.9141 12511.5830
5352 32.4939 24803(158) 25248.0215 12516.5332
5353 32.4999 23189(152) 23975.5742 12521.4834
5354 32.5059 21486(146) 22725.2656 12526.4326
5355 32.5119 19906(141) 21534.0430 12531.3828
5356 32.5179 18715(137) 20429.4727 12536.3301
5357 32.5239 17798(133) 19425.7930 12541.2793
5358 32.5299 16971(130) 18532.1914 12546.2295
5359 32.5359 16580(129) 17750.2227 12551.1797
5360 32.5419 16022(126) 17075.5234 12556.1289
5361 32.5479 15758(125) 16501.2969 12561.0791
5362 32.5539 15205(123) 16019.8066 12566.0293
5363 32.5599 15075(122) 15621.6143 12570.9756
5364 32.5659 14591(120) 15296.2412 12575.9258
5365 32.5719 14509(120) 15033.9434 12580.8750
5366 32.5779 14408(120) 14825.7617 12585.8252
5367 32.5839 14103(118) 14655.1777 12590.7754
5368 32.5899 14034(118) 14534.2930 12595.7246
5369 32.5959 14143(119) 14448.3174 12600.6748
5370 32.6019 14023(118) 14383.2207 12605.6211
5371 32.6079 13902(117) 14356.4580 12610.5713
5372 32.6139 14033(119) 14355.7920 12615.5215
5373 32.6199 13974(118) 14379.5830 12620.4707
5374 32.6259 13836(117) 14426.2930 12625.4209
5375 32.6319 14187(119) 14491.0332 12626.6982
5376 32.6379 14117(118) 14576.1719 12627.9756
5377 32.6439 14103(119) 14679.5332 12629.2529
5378 32.6499 14359(120) 14798.0381 12630.5303
5379 32.6559 14478(120) 14927.9072 12631.8076
5380 32.6619 14645(121) 15063.7158 12633.0850
5381 32.6679 14971(122) 15198.4873 12634.3623
5382 32.6739 15162(123) 15323.0205 12635.6396
5383 32.6799 15362(123) 15426.9814 12636.9170
5384 32.6859 15517(125) 15500.6953 12638.1943
5385 32.6919 15400(124) 15536.9170 12639.4717
5386 32.6979 15312(123) 15533.0322 12640.7490
5387 32.7039 15226(123) 15491.9502 12642.0264
5388 32.7099 14952(122) 15421.1914 12643.3037
5389 32.7159 14864(122) 15330.1006 12644.5811
5390 32.7219 14785(121) 15227.6895 12645.8584
5391 32.7279 14502(120) 15121.6582 12647.1357
5392 32.7339 14389(119) 15017.3438 12648.4121
5393 32.7399 14312(119) 14917.5078 12649.6904
5394 32.7459 14559(120) 14823.1699 12650.9678
5395 32.7519 14295(120) 14734.2090 12652.2451
5396 32.7579 14376(120) 14650.3516 12653.5225
5397 32.7639 14236(119) 14572.2773 12654.7998
5398 32.7699 14168(119) 14500.6172 12656.0771
5399 32.7759 14146(118) 14436.9727 12657.3545
5400 32.7819 14236(119) 14383.2031 12658.6318
5401 32.7879 14226(119) 14340.9238 12659.9092
5402 32.7939 14396(120) 14311.4951 12661.1865
5403 32.7999 14428(120) 14296.1484 12662.4639
5404 32.8059 14477(120) 14296.1523 12663.7412
5405 32.8119 14633(121) 14312.7891 12665.0186
5406 32.8179 14805(122) 14347.6748 12666.2959
5407 32.8239 14767(121) 14403.2949 12667.5723
5408 32.8299 15089(123) 14482.7793 12668.8506
5409 32.8359 15200(123) 14590.5879 12670.1279
5410 32.8419 15318(124) 14732.0703 12671.4053
5411 32.8479 15471(124) 14913.8301 12672.6826
5412 32.8539 15772(125) 15144.3955 12673.9600
5413 32.8599 16373(128) 15434.0479 12675.2373
5414 32.8659 16601(129) 15792.9229 12676.5137
5415 32.8719 16967(130) 16233.9893 12677.7910
5416 32.8779 17377(132) 16768.3828 12679.0693
5417 32.8839 18069(135) 17408.3281 12680.3467
5418 32.8899 18442(136) 18165.0352 12681.6240
5419 32.8959 19438(140) 19045.1777 12682.9014
5420 32.9019 20170(142) 20050.6055 12684.1787
5421 32.9079 21246(145) 21179.6719 12685.4561
5422 32.9139 22667(150) 22422.0566 12686.7324
5423 32.9199 24209(155) 23759.5430 12688.0107
5424 32.9259 25662(160) 25159.8281 12689.2881
5425 32.9319 27582(165) 26572.1152 12690.5654
5426 32.9379 29704(172) 27942.7617 12691.8428
5427 32.9439 31395(177) 29200.8359 12693.1201
5428 32.9499 33019(181) 30268.0000 12694.3975
5429 32.9559 34415(185) 31071.0625 12695.6738
5430 32.9619 35252(187) 31553.8926 12696.9512
5431 32.9679 35573(188) 31682.1758 12698.2295
5432 32.9739 34902(187) 31450.0430 12699.5068
5433 32.9799 33891(184) 30884.1875 12700.7842
5434 32.9859 32148(179) 30043.3672 12702.0615
5435 32.9919 30440(174) 29005.2246 12703.3389
5436 32.9979 28328(168) 27857.2188 12704.6152
5437 33.0039 26589(163) 26681.7422 12705.8926
5438 33.0099 24930(158) 25557.2930 12707.1709
5439 33.0159 23780(154) 24535.0098 12708.4482
5440 33.0219 23072(151) 23660.3047 12709.7256
5441 33.0279 22459(149) 22978.9922 12711.0029
5442 33.0339 22416(149) 22475.4902 12712.2803
5443 33.0399 22376(149) 22175.5508 12713.5576
5444 33.0459 22555(150) 22074.3926 12714.8340
5445 33.0519 23322(153) 22161.1543 12716.1113
5446 33.0579 23961(155) 22413.4668 12717.3896
5447 33.0639 25013(158) 22802.2734 12718.6670
5448 33.0699 25846(161) 23290.0996 12719.9443
5449 33.0759 26566(162) 23829.3008 12721.2217
5450 33.0819 27061(164) 24366.0664 12722.4990
5451 33.0879 27838(167) 24845.6836 12723.7754
5452 33.0939 28316(169) 25213.2559 12725.0527
5453 33.0999 28275(169) 25420.4883 12726.3301
5454 33.1059 27906(167) 25428.7324 12727.6084
5455 33.1119 27289(166) 25186.1680 12728.8857
5456 33.1179 26115(162) 24757.2773 12730.1631
5457 33.1239 25026(158) 24131.7852 12731.4404
5458 33.1299 23447(153) 23357.8496 12732.7178
5459 33.1359 22047(148) 22486.0273 12733.9941
5460 33.1419 20827(145) 21564.0742 12735.2715
5461 33.1479 19971(142) 20635.3145 12736.5498
5462 33.1539 18911(137) 19732.7578 12737.8271
5463 33.1599 17985(134) 18881.2539 12739.1045
5464 33.1659 17184(132) 18075.0508 12740.3818
5465 33.1719 16565(128) 17368.5215 12741.6592
5466 33.1779 16242(127) 16742.8672 12742.9355
5467 33.1839 15959(127) 16197.2705 12744.2129
5468 33.1899 15506(124) 15729.0039 12745.4902
5469 33.1959 15160(123) 15332.6270 12746.7686
5470 33.2019 14835(122) 15000.5566 12748.0459
5471 33.2079 14700(121) 14724.6514 12749.3232
5472 33.2139 14606(120) 14497.0684 12750.6006
5473 33.2199 14431(120) 14310.1689 12751.8770
5474 33.2259 14343(120) 14156.5225 12753.1543
5475 33.2319 14108(119) 14029.8867 12754.4316
5476 33.2379 13738(117) 13924.8330 12755.7100
5477 33.2439 13819(118) 13836.9863 12756.9873
5478 33.2499 13481(116) 13762.7725 12758.2646
5479 33.2559 13470(116) 13699.2910 12759.5420
5480 33.2619 13509(116) 13644.2090 12760.8193
5481 33.2679 13420(115) 13596.1064 12762.0957
5482 33.2739 13325(115) 13553.5811 12763.3730
5483 33.2799 13403(115) 13515.5811 12764.6504
5484 33.2859 13344(115) 13481.4385 12765.9287
5485 33.2919 13281(115) 13450.5381 12767.2061
5486 33.2979 13253(115) 13422.4775 12768.4834
5487 33.3039 13111(114) 13396.9160 12769.7607
5488 33.3099 13053(114) 13373.5820 12771.0371
5489 33.3159 13217(115) 13352.2236 12772.3145
5490 33.3219 13044(114) 13332.6631 12773.5918
5491 33.3279 13138(115) 13314.7441 12774.8691
5492 33.3339 13213(115) 13298.2822 12776.1475
5493 33.3399 13279(116) 13283.2490 12777.4248
5494 33.3459 13139(115) 13269.4912 12778.7021
5495 33.3519 13080(114) 13256.9277 12779.9785
5496 33.3579 13182(115) 13245.4609 12781.2559
5497 33.3639 13081(114) 13235.0283 12782.5332
5498 33.3699 13002(114) 13225.5625 12783.8105
5499 33.3759 13080(114) 13217.0127 12785.0889
5500 33.3819 13122(114) 13209.3301 12786.3662
5501 33.3879 13049(114) 13197.7549 12787.6436
5502 33.3939 13098(115) 13191.7607 12788.9209
5503 33.3999 13112(115) 13186.5244 12790.1973
5504 33.4059 12981(114) 13182.0127 12791.4746
5505 33.4119 12989(114) 13178.2129 12792.7520
5506 33.4179 13139(115) 13175.1055 12794.0293
5507 33.4239 12992(114) 13172.6797 12795.3076
5508 33.4299 12923(114) 13170.9355 12796.5850
5509 33.4359 13033(114) 13169.8828 12797.8623
5510 33.4419 13134(115) 13169.5254 12799.1387
5511 33.4479 13141(115) 13169.8867 12800.4160
5512 33.4539 13092(115) 13169.8145 12801.6934
5513 33.4599 12987(114) 13171.7168 12802.9707
5514 33.4659 13062(114) 13174.4502 12804.2490
5515 33.4719 12947(114) 13178.0625 12805.5264
5516 33.4779 13202(115) 13182.6152 12806.8037
5517 33.4839 12902(114) 13188.1953 12808.0801
5518 33.4899 13237(116) 13188.7891 12803.2510
5519 33.4959 13149(115) 13190.6143 12798.4219
5520 33.5019 12978(114) 13193.7822 12793.5918
5521 33.5079 13328(116) 13198.4268 12788.7627
5522 33.5139 12983(114) 13204.7168 12783.9336
5523 33.5199 13140(114) 13212.8359 12779.1045
5524 33.5259 13216(115) 13222.9756 12774.2754
5525 33.5319 13260(116) 13235.3486 12769.4482
5526 33.5379 13350(115) 13250.2148 12764.6191
5527 33.5439 13182(115) 13267.8340 12759.7900
5528 33.5499 13421(116) 13288.4922 12754.9609
5529 33.5559 13218(115) 13312.4678 12750.1318
5530 33.5619 13443(116) 13340.0439 12745.3018
5531 33.5679 13423(116) 13371.5713 12740.4727
5532 33.5739 13525(116) 13407.4834 12735.6465
5533 33.5799 13538(116) 13448.3740 12730.8174
5534 33.5859 13384(116) 13494.9531 12725.9883
5535 33.5919 13554(117) 13548.0254 12721.1582
5536 33.5979 13536(117) 13608.5625 12716.3291
5537 33.6039 13743(118) 13677.7422 12711.5000
5538 33.6099 13867(118) 13763.1260 12706.6709
5539 33.6159 14031(118) 13853.3076 12701.8447
5540 33.6219 14302(120) 13956.1709 12697.0156
5541 33.6279 14457(121) 14073.4385 12692.1855
5542 33.6339 14464(120) 14207.4277 12687.3564
5543 33.6399 14817(122) 14360.9180 12682.5273
5544 33.6459 14745(122) 14543.5820 12677.6982
5545 33.6519 14839(121) 14749.1709 12672.8691
5546 33.6579 15119(123) 14970.2842 12668.0391
5547 33.6639 15466(125) 15253.0703 12663.2129
5548 33.6699 15707(126) 15584.6758 12658.3838
5549 33.6759 16009(127) 15969.7695 12653.5547
5550 33.6819 16445(129) 16385.3145 12648.7256
5551 33.6879 16903(130) 16885.3477 12643.8955
5552 33.6939 17576(133) 17438.3691 12639.0664
5553 33.6999 18303(136) 18035.6348 12634.2373
5554 33.7059 18997(138) 18664.2363 12629.4111
5555 33.7119 19631(141) 19304.9961 12624.5820
5556 33.7179 20285(143) 19933.2422 12619.7520
5557 33.7239 21078(146) 20516.4336 12614.9229
5558 33.7299 21518(147) 21018.7617 12610.0938
5559 33.7359 21856(148) 21404.0332 12605.2646
5560 33.7419 21734(148) 21638.9551 12600.4355
5561 33.7479 21471(147) 21698.7695 12595.6094
5562 33.7539 20952(145) 21574.7578 12590.7793
5563 33.7599 20380(143) 21276.1328 12585.9502
5564 33.7659 19792(141) 20828.4141 12581.1211
5565 33.7719 19248(139) 20267.3359 12576.2920
5566 33.7779 18385(136) 19632.8320 12571.4619
5567 33.7839 17610(133) 18962.1289 12566.6328
5568 33.7899 17109(131) 18285.0508 12561.8037
5569 33.7959 16698(130) 17617.4219 12556.9775
5570 33.8019 16090(127) 16992.1680 12552.1484
5571 33.8079 15820(126) 16436.2148 12547.3193
5572 33.8139 15266(124) 15912.1504 12542.4893
5573 33.8199 14932(122) 15423.6484 12537.6602
5574 33.8259 14659(121) 15013.3281 12532.8311
5575 33.8319 14499(121) 14658.4561 12528.0020
5576 33.8379 14394(121) 14367.2246 12523.1758
5577 33.8439 13957(118) 14111.8174 12518.3457
5578 33.8499 13966(119) 13898.2324 12513.5166
5579 33.8559 13801(118) 13720.8018 12508.6875
5580 33.8619 13499(116) 13574.2812 12503.8584
5581 33.8679 13495(116) 13453.5684 12499.0293
5582 33.8739 13590(117) 13353.8242 12494.1992
5583 33.8799 13380(116) 13270.9150 12489.3701
5584 33.8859 13359(116) 13201.5322 12484.5439
5585 33.8919 13244(115) 13142.6543 12479.7148
5586 33.8979 13251(116) 13092.1016 12474.8857
5587 33.9039 13022(114) 13048.0537 12470.0557
5588 33.9099 13213(115) 13009.1807 12465.2266
5589 33.9159 12921(114) 12974.5742 12460.3975
5590 33.9219 13094(115) 12943.5742 12455.5684
5591 33.9279 13102(115) 12915.8281 12450.7422
5592 33.9339 12930(114) 12890.6338 12445.9131
5593 33.9399 12890(114) 12867.8496 12441.0830
5594 33.9459 12931(114) 12847.2559 12436.2539
5595 33.9519 12843(114) 12828.6592 12431.4248
5596 33.9579 12898(114) 12811.8408 12426.5957
5597 33.9639 13125(115) 12796.5898 12421.7656
5598 33.9699 12970(115) 12782.7354 12416.9395
5599 33.9759 12914(114) 12770.0283 12412.1104
5600 33.9819 12936(114) 12758.2666 12407.2812
5601 33.9879 12947(114) 12747.1914 12402.4521
5602 33.9939 12777(113) 12736.5469 12397.6230
5603 33.9999 12815(114) 12726.1348 12392.7930
5604 34.0059 12891(114) 12715.8115 12387.9639
5605 34.0119 12802(113) 12705.4844 12383.1348
5606 34.0179 12726(113) 12695.1650 12378.3086
5607 34.0239 12782(113) 12684.9072 12373.4795
5608 34.0299 12706(113) 12674.8379 12368.6494
5609 34.0359 12816(114) 12665.0928 12363.8203
5610 34.0419 12675(113) 12655.7559 12358.9912
5611 34.0479 12860(114) 12646.9248 12354.1621
5612 34.0539 12614(113) 12638.6855 12349.3330
5613 34.0599 12730(113) 12631.0967 12344.5068
5614 34.0659 12695(113) 12624.1885 12339.6768
5615 34.0719 12661(113) 12617.9834 12334.8477
5616 34.0779 12598(112) 12612.4863 12330.0186
5617 34.0839 12646(113) 12607.7109 12325.1895
5618 34.0899 12671(113) 12603.6650 12320.3594
5619 34.0959 12627(113) 12600.3320 12315.5303
5620 34.1019 12739(114) 12597.7051 12310.7041
5621 34.1079 12396(112) 12595.7744 12305.8750
5622 34.1139 12597(113) 12595.8037 12302.3018
5623 34.1199 12590(113) 12596.5498 12298.7285
5624 34.1259 12565(113) 12598.0098 12295.1553
5625 34.1319 12604(113) 12600.1895 12291.5820
5626 34.1379 12491(112) 12603.1279 12288.0088
5627 34.1439 12662(113) 12608.1338 12285.6963
5628 34.1499 12634(113) 12613.9697 12283.3857
5629 34.1559 12623(113) 12620.7207 12281.0742
5630 34.1619 12667(113) 12628.4404 12278.7617
5631 34.1679 12618(113) 12637.2510 12276.4502
5632 34.1739 12571(112) 12647.3076 12274.1377
5633 34.1799 12808(114) 12658.7754 12271.8262
5634 34.1859 12703(113) 12671.8760 12269.5137
5635 34.1919 12649(113) 12686.9561 12267.2031
5636 34.1979 12723(113) 12704.4375 12264.8916
5637 34.2039 12674(113) 12724.9102 12262.5791
5638 34.2099 12843(114) 12749.0654 12260.2676
5639 34.2159 12689(113) 12777.7695 12257.9551
5640 34.2219 12903(114) 12812.1836 12255.6436
5641 34.2279 12925(114) 12854.0566 12253.3311
5642 34.2339 12912(114) 12904.2764 12251.0205
5643 34.2399 13076(115) 12965.2461 12248.7080
5644 34.2459 13221(115) 13041.3857 12246.3965
5645 34.2519 13096(115) 13130.1689 12244.0840
5646 34.2579 13095(115) 13237.1094 12241.7725
5647 34.2639 13256(116) 13363.8750 12239.4600
5648 34.2699 13327(116) 13513.0703 12237.1484
5649 34.2759 13543(117) 13686.9902 12234.8359
5650 34.2819 13633(117) 13887.2988 12232.5254
5651 34.2879 13913(118) 14115.2637 12230.2139
5652 34.2939 13992(118) 14370.5732 12227.9014
5653 34.2999 14216(119) 14651.6602 12225.5898
5654 34.3059 14782(122) 14955.8574 12223.2773
5655 34.3119 15140(124) 15278.6230 12220.9658
5656 34.3179 15761(126) 15612.1992 12218.6533
5657 34.3239 16188(128) 15946.1816 12216.3428
5658 34.3299 16692(130) 16268.6572 12214.0303
5659 34.3359 16902(130) 16565.8984 12211.7188
5660 34.3419 17030(131) 16824.7891 12209.4062
5661 34.3479 17158(131) 17033.8965 12207.0947
5662 34.3539 17060(131) 17185.9805 12204.7822
5663 34.3599 17108(131) 17278.2852 12202.4707
5664 34.3659 16825(130) 17310.5312 12200.1602
5665 34.3719 16657(129) 17282.7227 12197.8477
5666 34.3779 16444(129) 17198.8633 12195.5361
5667 34.3839 16186(128) 17061.7656 12193.2236
5668 34.3899 16196(128) 16878.0156 12190.9121
5669 34.3959 16273(128) 16657.6719 12188.5996
5670 34.4019 15930(127) 16414.5000 12186.2881
5671 34.4079 15803(126) 16163.9746 12183.9756
5672 34.4139 15822(126) 15920.6318 12181.6650
5673 34.4199 15562(125) 15697.9619 12179.3525
5674 34.4259 15640(126) 15521.9121 12177.0410
5675 34.4319 15432(124) 15373.5918 12174.7285
5676 34.4379 15627(126) 15276.4014 12172.4170
5677 34.4439 15525(125) 15237.4785 12170.1045
5678 34.4499 15608(125) 15263.6826 12167.7930
5679 34.4559 15620(125) 15357.8037 12165.4824
5680 34.4619 15878(126) 15533.4404 12163.1699
5681 34.4679 16221(128) 15792.2402 12160.8584
5682 34.4739 16583(129) 16139.3730 12158.5459
5683 34.4799 16950(131) 16561.6992 12156.2344
5684 34.4859 17152(131) 17095.7754 12153.9219
5685 34.4919 18028(135) 17722.8203 12151.6104
5686 34.4979 18597(137) 18439.5078 12149.2988
5687 34.5039 19479(140) 19238.0703 12146.9873
5688 34.5099 20536(144) 20105.8555 12144.6748
5689 34.5159 21850(149) 21022.5039 12142.3633
5690 34.5219 22826(152) 21960.2227 12140.0508
5691 34.5279 24225(157) 22889.0039 12137.7393
5692 34.5339 25551(161) 23758.9609 12135.4268
5693 34.5399 26213(163) 24524.9844 12133.1152
5694 34.5459 27054(165) 25140.2383 12130.8047
5695 34.5519 27481(167) 25567.3418 12128.4922
5696 34.5579 27315(166) 25782.8438 12126.1807
5697 34.5639 26947(164) 25779.2832 12123.8682
5698 34.5699 26364(163) 25564.8535 12121.5566
5699 34.5759 25421(160) 25173.8301 12119.2441
5700 34.5819 24233(156) 24600.6328 12116.9326
5701 34.5879 23172(153) 23887.4883 12114.6211
5702 34.5939 22342(150) 23065.4746 12112.3096
5703 34.5999 20760(145) 22171.0078 12109.9971
5704 34.6059 19783(141) 21240.8477 12107.6855
5705 34.6119 18829(138) 20307.1953 12105.3730
5706 34.6179 17923(134) 19398.2090 12103.0615
5707 34.6239 17290(132) 18537.2441 12100.7490
5708 34.6299 16595(130) 17756.8184 12098.4375
5709 34.6359 15914(126) 17031.8730 12096.1270
5710 34.6419 15684(126) 16383.1982 12093.8145
5711 34.6479 15233(124) 15811.3672 12091.5029
5712 34.6539 14658(121) 15314.5225 12089.1904
5713 34.6599 14634(121) 14887.6553 12086.8789
5714 34.6659 14431(121) 14523.9570 12084.5664
5715 34.6719 14186(120) 14216.5840 12082.2539
5716 34.6779 13911(118) 13958.7773 12079.9434
5717 34.6839 13830(118) 13742.9902 12077.6318
5718 34.6899 13570(117) 13562.9062 12075.3193
5719 34.6959 13633(117) 13412.4316 12073.0078
5720 34.7019 13313(116) 13286.5928 12070.6953
5721 34.7079 13186(115) 13180.9268 12068.3838
5722 34.7139 13006(114) 13091.7334 12066.0713
5723 34.7199 13094(115) 13015.8770 12063.7607
5724 34.7259 12954(114) 12950.8125 12061.4492
5725 34.7319 12857(114) 12894.5615 12059.1367
5726 34.7379 12694(113) 12845.5361 12056.8252
5727 34.7439 12792(114) 12802.5947 12054.5127
5728 34.7499 12762(113) 12764.6221 12052.2012
5729 34.7559 12568(113) 12730.9023 12049.8887
5730 34.7619 12519(113) 12700.8467 12047.5762
5731 34.7679 12469(112) 12673.9580 12045.2656
5732 34.7739 12375(111) 12649.8223 12042.9541
5733 34.7799 12406(112) 12628.1045 12040.6416
5734 34.7859 12447(112) 12608.5449 12038.3301
5735 34.7919 12300(111) 12590.9502 12036.0176
5736 34.7979 12256(111) 12575.1455 12033.7061
5737 34.8039 12188(111) 12560.9775 12031.3936
5738 34.8099 12215(111) 12548.3672 12029.0830
5739 34.8159 12085(110) 12537.2256 12026.7715
5740 34.8219 12263(111) 12527.5332 12024.4590
5741 34.8279 12198(111) 12519.2754 12022.1475
5742 34.8339 12140(110) 12522.7715 12019.8350
5743 34.8399 12093(110) 12517.6172 12017.5234
5744 34.8459 12116(110) 12514.0645 12015.2109
5745 34.8519 11935(110) 12512.2500 12012.9004
5746 34.8579 12110(111) 12513.2666 12011.4863
5747 34.8639 12127(110) 12516.4824 12010.0723
5748 34.8699 12148(111) 12522.2510 12008.6582
5749 34.8759 12348(112) 12531.2314 12007.2441
5750 34.8819 12334(112) 12543.4551 12005.8301
5751 34.8879 12393(112) 12559.7656 12004.4160
5752 34.8939 12212(111) 12580.8848 12003.0020
5753 34.8999 12333(112) 12607.5107 12001.5889
5754 34.9059 12250(111) 12648.1904 12000.1748
5755 34.9119 12221(111) 12688.3789 11998.7607
5756 34.9179 12493(112) 12736.4248 11997.3467
5757 34.9239 12439(112) 12793.0293 11995.9326
5758 34.9299 12503(112) 12858.5771 11994.5186
5759 34.9359 12660(113) 12933.1582 11993.1045
5760 34.9419 12746(113) 13016.6709 11991.6914
5761 34.9479 12919(114) 13108.5176 11990.2773
5762 34.9539 12965(115) 13207.6865 11988.8633
5763 34.9599 13089(115) 13312.3262 11987.4492
5764 34.9659 13231(115) 13419.8838 11986.0352
5765 34.9719 13347(116) 13527.2930 11984.6211
5766 34.9779 13589(117) 13630.7881 11983.2070
5767 34.9839 13620(117) 13725.6016 11981.7939
5768 34.9899 13883(118) 13807.0908 11980.3799
5769 34.9959 14230(120) 13873.5771 11978.9658
5770 35.0019 14011(118) 13917.6953 11977.5518
5771 35.0079 13920(118) 13935.0430 11976.1377
5772 35.0139 14068(119) 13928.4414 11974.7236
5773 35.0199 14082(119) 13900.5469 11973.3096
5774 35.0259 13821(118) 13855.8877 11971.8955
5775 35.0319 13848(118) 13800.1270 11970.4824
5776 35.0379 13339(115) 13739.2119 11969.0684
5777 35.0439 13351(116) 13679.0527 11967.6543
5778 35.0499 13420(116) 13625.1279 11966.2402
5779 35.0559 13298(116) 13582.2734 11964.8262
5780 35.0619 13324(116) 13555.0020 11963.4111
5781 35.0679 13413(116) 13547.6973 11961.9971
5782 35.0739 13469(116) 13564.4932 11960.5840
5783 35.0799 13507(116) 13609.3877 11959.1699
5784 35.0859 13528(117) 13686.2910 11957.7559
5785 35.0919 13704(117) 13792.8828 11956.3418
5786 35.0979 13813(118) 13944.9805 11954.9277
5787 35.1039 13964(119) 14139.0059 11953.5137
5788 35.1099 14371(120) 14377.3691 11952.0996
5789 35.1159 14475(120) 14661.3389 11950.6865
5790 35.1219 14718(121) 14991.3965 11949.2725
5791 35.1279 15334(125) 15359.8750 11947.8584
5792 35.1339 15742(126) 15774.4219 11946.4443
5793 35.1399 16369(128) 16223.8057 11945.0303
5794 35.1459 17431(132) 16700.0781 11943.6162
5795 35.1519 18009(134) 17190.9941 11942.2021
5796 35.1579 18885(137) 17680.6406 11940.7881
5797 35.1639 19839(141) 18150.3906 11939.3750
5798 35.1699 20793(144) 18577.7773 11937.9609
5799 35.1759 21519(147) 18938.7402 11936.5469
5800 35.1819 21928(148) 19209.8281 11935.1328
5801 35.1879 21642(148) 19374.0039 11933.7188
5802 35.1939 21172(146) 19424.7422 11932.3047
5803 35.1999 20615(144) 19367.1172 11930.8906
5804 35.2059 19847(141) 19217.8965 11929.4775
5805 35.2119 18905(138) 19001.1660 11928.0635
5806 35.2179 18252(135) 18744.9473 11926.6494
5807 35.2239 17558(133) 18475.7578 11925.2354
5808 35.2299 17028(131) 18217.1836 11923.8213
5809 35.2359 16676(129) 17990.6094 11922.4072
5810 35.2419 16618(130) 17813.9902 11920.9932
5811 35.2479 16543(129) 17699.9492 11919.5801
5812 35.2539 16482(129) 17658.7305 11918.1660
5813 35.2599 16900(131) 17695.5605 11916.7520
5814 35.2659 16870(130) 17813.0293 11915.3379
5815 35.2719 17103(131) 18010.5195 11913.9238
5816 35.2779 17607(133) 18283.4375 11912.5098
5817 35.2839 18506(137) 18623.9336 11911.0957
5818 35.2899 18783(137) 19022.3066 11909.6816
5819 35.2959 19437(139) 19469.0645 11908.2686
5820 35.3019 20303(143) 19931.5215 11906.8545
5821 35.3079 21034(145) 20444.4902 11905.4404
5822 35.3139 21953(148) 20973.0293 11904.0264
5823 35.3199 23186(153) 21501.6133 11902.6123
5824 35.3259 23934(155) 22012.9902 11901.1982
5825 35.3319 24618(157) 22488.1172 11899.7842
5826 35.3379 25040(159) 22895.1562 11898.3711
5827 35.3439 25162(159) 23243.3750 11896.9570
5828 35.3499 25244(159) 23513.1016 11895.5430
5829 35.3559 25137(159) 23706.2031 11894.1289
5830 35.3619 24926(158) 23829.8027 11892.7148
5831 35.3679 25084(158) 23890.7832 11891.3008
5832 35.3739 25252(160) 23892.5391 11889.8867
5833 35.3799 25538(160) 23832.4766 11888.4727
5834 35.3859 25481(159) 23700.7520 11887.0596
5835 35.3919 25613(161) 23482.9375 11885.6455
5836 35.3979 25434(160) 23165.4336 11884.2314
5837 35.4039 24602(157) 22741.6699 11882.8174
5838 35.4099 23436(153) 22215.0469 11881.4033
5839 35.4159 22311(150) 21599.4102 11879.9893
5840 35.4219 20838(144) 20918.4121 11878.5752
5841 35.4279 19596(140) 20199.9609 11877.1611
5842 35.4339 18403(136) 19469.8516 11875.7471
5843 35.4399 17446(132) 18750.8926 11874.3330
5844 35.4459 16470(128) 18060.3789 11872.9189
5845 35.4519 15993(127) 17412.6816 11871.5049
5846 35.4579 15344(124) 16817.9883 11870.0908
5847 35.4639 14967(123) 16286.3379 11868.6768
5848 35.4699 14861(122) 15811.8369 11867.2637
5849 35.4759 14783(122) 15400.1367 11865.8496
5850 35.4819 14523(121) 15051.8379 11864.4355
5851 35.4879 14401(120) 14766.1855 11863.0215
5852 35.4939 14078(119) 14540.9395 11861.6074
5853 35.4999 14246(120) 14373.7568 11860.1934
5854 35.5059 13976(118) 14262.6514 11858.7793
5855 35.5119 14250(120) 14205.4082 11857.3652
5856 35.5179 14258(119) 14199.7559 11855.9521
5857 35.5239 14263(119) 14254.0273 11854.5381
5858 35.5299 14318(120) 14346.2236 11853.1240
5859 35.5359 14492(120) 14484.6162 11851.7100
5860 35.5419 14775(121) 14666.9297 11850.2959
5861 35.5479 15105(123) 14890.7930 11848.8818
5862 35.5539 15500(125) 15153.3730 11847.4678
5863 35.5599 15942(126) 15449.8799 11846.0547
5864 35.5659 16414(128) 15775.4863 11844.6406
5865 35.5719 17085(131) 16122.1953 11843.2266
5866 35.5779 17532(133) 16480.9219 11841.8125
5867 35.5839 18349(136) 16840.3320 11840.3984
5868 35.5899 18982(138) 17186.1074 11838.9844
5869 35.5959 19132(139) 17502.3789 11837.5703
5870 35.6019 19537(140) 17774.0391 11836.1572
5871 35.6079 19628(141) 17988.8828 11834.7432
5872 35.6139 19375(140) 18140.0859 11833.3291
5873 35.6199 19078(138) 18228.3477 11831.9150
5874 35.6259 18808(137) 18262.1289 11830.5010
5875 35.6319 18562(137) 18265.3809 11829.0869
5876 35.6379 18079(135) 18224.2207 11827.6729
5877 35.6439 18100(135) 18165.2617 11826.2588
5878 35.6499 18076(135) 18097.0938 11824.8457
5879 35.6559 18038(134) 18024.5488 11823.4316
5880 35.6619 18356(136) 17947.3320 11822.0176
5881 35.6679 18661(137) 17863.8242 11820.6035
5882 35.6739 18730(137) 17765.3438 11819.1895
5883 35.6799 18680(137) 17647.4473 11817.7754
5884 35.6859 18861(138) 17505.2578 11816.3613
5885 35.6919 18177(135) 17338.3652 11814.9482
5886 35.6979 17851(134) 17150.7422 11813.5342
5887 35.7039 17314(132) 16950.5977 11812.1201
5888 35.7099 16609(129) 16748.4141 11810.7061
5889 35.7159 16236(127) 16554.3887 11809.2920
5890 35.7219 15898(127) 16376.4180 11807.8779
5891 35.7279 15585(125) 16220.5156 11806.4639
5892 35.7339 15402(124) 16090.1738 11805.0508
5893 35.7399 15220(124) 15985.0771 11803.6367
5894 35.7459 15210(123) 15902.4023 11802.2227
5895 35.7519 15254(124) 15836.9922 11800.8086
5896 35.7579 15264(124) 15780.8271 11799.3945
5897 35.7639 15183(123) 15727.9424 11797.9805
5898 35.7699 15380(124) 15658.8750 11796.5664
5899 35.7759 15355(124) 15572.3955 11795.1523
5900 35.7819 15384(124) 15458.7969 11793.7383
5901 35.7879 15358(124) 15315.5117 11792.3242
5902 35.7939 15036(123) 15143.1797 11790.9102
5903 35.7999 14760(122) 14946.4551 11789.4961
5904 35.8059 14375(120) 14732.0352 11788.0820
5905 35.8119 14065(119) 14507.1611 11786.6680
5906 35.8179 13750(117) 14278.9336 11785.2539
5907 35.8239 13546(116) 14054.0225 11783.8408
5908 35.8299 13421(116) 13836.9199 11782.4268
5909 35.8359 13318(116) 13631.6191 11781.0127
5910 35.8419 12901(114) 13440.5557 11779.5986
5911 35.8479 13103(115) 13265.5146 11778.1846
5912 35.8539 12728(113) 13107.6191 11776.7705
5913 35.8599 12728(113) 12967.0332 11775.3564
5914 35.8659 12595(112) 12843.3291 11773.9434
5915 35.8719 12672(113) 12735.6162 11772.5293
5916 35.8779 12526(112) 12642.8047 11771.1152
5917 35.8839 12431(111) 12563.6211 11769.7012
5918 35.8899 12415(111) 12496.5205 11768.2871
5919 35.8959 12362(111) 12439.8994 11766.8730
5920 35.9019 12459(112) 12392.3105 11765.4590
5921 35.9079 12376(111) 12352.4131 11764.0449
5922 35.9139 12258(111) 12318.9307 11762.6318
5923 35.9199 12237(111) 12290.7480 11761.2178
5924 35.9259 12193(110) 12266.9209 11759.8037
5925 35.9319 12337(111) 12246.6943 11758.3896
5926 35.9379 12262(111) 12229.4629 11756.9756
5927 35.9439 12341(111) 12214.7080 11755.5615
5928 35.9499 12323(111) 12202.0293 11754.1475
5929 35.9559 12384(112) 12176.7295 11752.7344
5930 35.9619 12371(111) 12167.6445 11751.3203
5931 35.9679 12283(111) 12160.0312 11749.9062
5932 35.9739 12232(110) 12153.6680 11748.4922
5933 35.9799 12364(112) 12148.5137 11747.0781
5934 35.9859 12121(110) 12144.5273 11745.6641
5935 35.9919 12139(110) 12145.0332 11748.2207
5936 35.9979 12291(111) 12157.1719 11750.7744
5937 36.0039 12198(110) 12160.6455 11753.3311
5938 36.0099 12156(110) 12165.1738 11755.8877
5939 36.0159 12319(111) 12170.7451 11758.4434
5940 36.0219 12224(111) 12177.3398 11761.0000
5941 36.0279 12298(111) 12184.8984 11763.5557
5942 36.0339 12323(111) 12193.4619 11766.1123
5943 36.0399 12248(111) 12211.6865 11768.6680
5944 36.0459 12256(111) 12221.8516 11771.2227
5945 36.0519 12408(112) 12232.6650 11773.7793
5946 36.0579 12487(112) 12244.0000 11776.3359
5947 36.0639 12392(111) 12255.6543 11778.8916
5948 36.0699 12476(112) 12264.0283 11781.4482
5949 36.0759 12641(113) 12276.4209 11784.0039
5950 36.0819 12406(111) 12289.1816 11786.5605
5951 36.0879 12427(112) 12302.4902 11789.1152
5952 36.0939 12570(112) 12316.6699 11791.6709
5953 36.0999 12476(112) 12332.1484 11794.2275
5954 36.1059 12460(112) 12349.4639 11796.7832
5955 36.1119 12479(112) 12369.4316 11799.3398
5956 36.1179 12449(112) 12377.9941 11801.8965
5957 36.1239 12438(112) 12405.0439 11804.4521
5958 36.1299 12561(112) 12437.1533 11807.0088
5959 36.1359 12734(113) 12475.0078 11809.5635
5960 36.1419 12722(113) 12520.0410 11812.1191
5961 36.1479 12772(113) 12573.4951 11814.6758
5962 36.1539 12839(113) 12636.9785 11817.2314
5963 36.1599 12764(113) 12712.0508 11819.7881
5964 36.1659 12798(113) 12800.4375 11822.3438
5965 36.1719 13208(115) 12903.8066 11824.9004
5966 36.1779 13142(115) 13007.1797 11827.4551
5967 36.1839 13151(115) 13146.3623 11830.0117
5968 36.1899 13359(115) 13306.0732 11832.5674
5969 36.1959 13406(116) 13487.6260 11835.1240
5970 36.2019 13744(117) 13691.9346 11837.6797
5971 36.2079 13952(118) 13919.9404 11840.2363
5972 36.2139 13990(118) 14172.0713 11842.7920
5973 36.2199 14385(120) 14447.0088 11845.3467
5974 36.2259 14674(121) 14743.6621 11847.9033
5975 36.2319 14810(121) 15058.2393 11850.4590
5976 36.2379 15314(124) 15386.5869 11853.0156
5977 36.2439 15607(125) 15723.2246 11855.5723
5978 36.2499 15833(126) 16060.8525 11858.1279
5979 36.2559 16070(127) 16392.4336 11860.6846
5980 36.2619 16549(129) 16712.4766 11863.2402
5981 36.2679 16777(130) 17016.9102 11865.7949
5982 36.2739 17014(130) 17303.9531 11868.3516
5983 36.2799 17444(132) 17572.1406 11870.9072
5984 36.2859 17716(133) 17820.0273 11873.4639
5985 36.2919 18019(135) 18045.2188 11876.0195
5986 36.2979 18198(135) 18242.8145 11878.5762
5987 36.3039 18674(137) 18405.5352 11881.1328
5988 36.3099 18565(136) 18525.5059 11883.6875
5989 36.3159 18690(137) 18597.0078 11886.2432
5990 36.3219 18718(137) 18618.5312 11888.7998
5991 36.3279 18557(136) 18594.2480 11891.3555
5992 36.3339 18199(135) 18535.1152 11893.9121
5993 36.3399 18133(135) 18467.1133 11896.4678
5994 36.3459 17858(133) 18389.6562 11899.0244
5995 36.3519 17581(132) 18329.0625 11901.5791
5996 36.3579 17595(133) 18300.6465 11904.1348
5997 36.3639 17708(133) 18315.5156 11906.6914
5998 36.3699 17726(133) 18381.6035 11909.2480
5999 36.3759 18118(135) 18501.5156 11911.8037
6000 36.3819 18380(136) 18672.4863 11914.3604
6001 36.3879 18573(136) 18887.9531 11916.9160
6002 36.3939 19433(140) 19127.4609 11919.4727
6003 36.3999 19890(141) 19408.6680 11922.0273
6004 36.4059 20381(143) 19674.3203 11924.5830
6005 36.4119 20939(145) 19913.1738 11927.1396
6006 36.4179 21310(146) 20100.0332 11929.6953
6007 36.4239 21418(147) 20212.2617 11932.2520
6008 36.4299 21378(147) 20232.0508 11934.8086
6009 36.4359 21056(145) 20150.1758 11937.3643
6010 36.4419 20593(144) 19969.3984 11939.9189
6011 36.4479 20166(142) 19699.9727 11942.4756
6012 36.4539 19509(140) 19358.6680 11945.0312
6013 36.4599 18787(137) 18963.8105 11947.5879
6014 36.4659 18291(135) 18534.7578 11950.1436
6015 36.4719 17601(133) 18082.1836 11952.7002
6016 36.4779 17225(132) 17636.2852 11955.2568
6017 36.4839 16657(129) 17202.7715 11957.8105
6018 36.4899 16420(129) 16792.3789 11960.3672
6019 36.4959 15896(126) 16420.1953 11962.9238
6020 36.5019 15656(125) 16082.1367 11965.4795
6021 36.5079 15425(125) 15786.8506 11968.0361
6022 36.5139 15180(123) 15535.2930 11970.5918
6023 36.5199 14973(122) 15327.1367 11973.1484
6024 36.5259 15134(123) 15159.7598 11975.7041
6025 36.5319 15192(123) 15027.8809 11978.2588
6026 36.5379 15093(123) 14925.4854 11980.8154
6027 36.5439 14952(122) 14844.7783 11983.3711
6028 36.5499 15115(123) 14777.8672 11985.9277
6029 36.5559 15005(122) 14716.4473 11988.4844
6030 36.5619 14910(122) 14649.3262 11991.0400
6031 36.5679 14897(122) 14576.8027 11993.5967
6032 36.5739 14676(121) 14489.5381 11996.1514
6033 36.5799 14445(120) 14391.8711 11998.7070
6034 36.5859 14475(120) 14282.4912 12001.2637
6035 36.5919 14211(120) 14164.3857 12003.8193
6036 36.5979 13773(117) 14041.4385 12006.3760
6037 36.6039 13986(118) 13917.4287 12008.9326
6038 36.6099 13676(117) 13795.7305 12011.4883
6039 36.6159 13556(117) 13679.5273 12014.0430
6040 36.6219 13459(116) 13571.0020 12016.5996
6041 36.6279 13468(116) 13472.2930 12019.1553
6042 36.6339 13338(116) 13384.8037 12021.7119
6043 36.6399 13342(116) 13309.6299 12024.2676
6044 36.6459 13480(117) 13247.7568 12026.8242
6045 36.6519 13275(116) 13199.9355 12029.3799
6046 36.6579 13076(114) 13166.7461 12031.9365
6047 36.6639 13136(115) 13143.4404 12029.0801
6048 36.6699 13253(115) 13136.1875 12026.2207
6049 36.6759 13201(115) 13145.9717 12023.3623
6050 36.6819 13103(114) 13173.9395 12020.5039
6051 36.6879 13265(115) 13221.6367 12017.6445
6052 36.6939 13343(115) 13291.0352 12014.7861
6053 36.6999 13440(116) 13384.2383 12011.9277
6054 36.7059 13520(116) 13503.4863 12009.0703
6055 36.7119 13569(117) 13651.4639 12006.2119
6056 36.7179 13762(117) 13830.7734 12003.3535
6057 36.7239 14109(119) 14044.1768 12000.4941
6058 36.7299 14097(119) 14293.5732 11997.6357
6059 36.7359 14370(120) 14580.0957 11994.7773
6060 36.7419 14999(123) 14904.7451 11991.9180
6061 36.7479 15257(124) 15267.1230 11989.0615
6062 36.7539 15787(126) 15665.9258 11986.2031
6063 36.7599 16482(129) 16097.1230 11983.3438
6064 36.7659 17024(131) 16554.3848 11980.4854
6065 36.7719 17644(133) 17030.0488 11977.6270
6066 36.7779 18906(138) 17516.9883 11974.7676
6067 36.7839 19886(141) 17994.5254 11971.9092
6068 36.7899 20371(143) 18449.2734 11969.0508
6069 36.7959 21202(146) 18864.9570 11966.1934
6070 36.8019 21737(148) 19225.6289 11963.3350
6071 36.8079 21844(148) 19518.7129 11960.4766
6072 36.8139 21914(148) 19735.3027 11957.6182
6073 36.8199 22003(149) 19871.5137 11954.7588
6074 36.8259 21511(147) 19927.3223 11951.9004
6075 36.8319 21114(145) 19903.8398 11949.0420
6076 36.8379 20917(145) 19802.4844 11946.1846
6077 36.8439 20492(143) 19624.4492 11943.3262
6078 36.8499 19976(141) 19372.8594 11940.4678
6079 36.8559 19486(140) 19053.0586 11937.6084
6080 36.8619 18717(137) 18673.9453 11934.7500
6081 36.8679 18024(134) 18248.9160 11931.8916
6082 36.8739 17511(133) 17804.8438 11929.0322
6083 36.8799 16695(130) 17335.7871 11926.1738
6084 36.8859 15935(126) 16866.6680 11923.3174
6085 36.8919 15434(124) 16409.0664 11920.4580
6086 36.8979 15144(123) 15972.9258 11917.5996
6087 36.9039 14584(121) 15565.4014 11914.7412
6088 36.9099 14392(120) 15190.1514 11911.8818
6089 36.9159 14161(119) 14848.9795 11909.0234
6090 36.9219 13959(118) 14543.0703 11906.1650
6091 36.9279 13799(117) 14272.0088 11903.3076
6092 36.9339 13890(118) 14033.9590 11900.4492
6093 36.9399 13660(117) 13826.8232 11897.5908
6094 36.9459 13750(118) 13647.9062 11894.7314
6095 36.9519 13453(116) 13494.8281 11891.8730
6096 36.9579 13243(115) 13365.0508 11889.0146
6097 36.9639 13232(115) 13255.7520 11886.1553
6098 36.9699 13316(116) 13164.4980 11883.2988
6099 36.9759 13361(116) 13089.0215 11880.4404
6100 36.9819 13046(114) 13027.6191 11877.5811
6101 36.9879 13062(115) 12978.8359 11874.7227
6102 36.9939 13079(115) 12941.4268 11871.8643
6103 36.9999 12742(113) 12914.5098 11869.0059
6104 37.0059 12897(114) 12897.7529 11866.1465
6105 37.0119 12814(114) 12891.1133 11863.2881
6106 37.0179 12823(113) 12894.8066 11860.4307
6107 37.0239 12982(114) 12909.5479 11857.5723
6108 37.0299 12922(114) 12936.2910 11854.7139
6109 37.0359 12813(113) 12976.4072 11851.8555
6110 37.0419 12954(113) 13031.6826 11848.9961
6111 37.0479 13052(115) 13104.2295 11846.1377
6112 37.0539 13403(116) 13196.3398 11843.2793
6113 37.0599 13104(115) 13305.8184 11840.4219
6114 37.0659 13293(116) 13444.9736 11837.5635
6115 37.0719 13441(116) 13611.8623 11834.7051
6116 37.0779 13635(117) 13809.3848 11831.8457
6117 37.0839 13837(118) 14039.9541 11828.9873
6118 37.0899 14115(119) 14308.8672 11826.1289
6119 37.0959 14413(120) 14611.3809 11823.2695
6120 37.1019 14647(122) 14951.5127 11820.4131
6121 37.1079 15017(123) 15329.6367 11817.5547
6122 37.1139 15201(124) 15744.1250 11814.6953
6123 37.1199 15824(126) 16181.8672 11811.8369
6124 37.1259 16289(128) 16658.8809 11808.9785
6125 37.1319 16799(130) 17161.7441 11806.1191
6126 37.1379 17235(131) 17674.0117 11803.2607
6127 37.1439 17851(134) 18187.8008 11800.4023
6128 37.1499 18386(136) 18689.6445 11797.5449
6129 37.1559 18883(138) 19166.7617 11794.6865
6130 37.1619 19363(139) 19606.1465 11791.8281
6131 37.1679 19843(141) 19998.9102 11788.9688
6132 37.1739 20242(143) 20340.7031 11786.1104
6133 37.1799 20402(143) 20629.6250 11783.2520
6134 37.1859 20946(145) 20866.0137 11780.3936
6135 37.1919 21340(146) 21049.3711 11777.5361
6136 37.1979 21713(148) 21178.2148 11774.6777
6137 37.2039 21969(149) 21247.2070 11771.8184
6138 37.2099 22163(149) 21248.1953 11768.9600
6139 37.2159 22116(149) 21172.8789 11766.1016
6140 37.2219 21770(148) 21017.1055 11763.2432
6141 37.2279 21295(147) 20780.8750 11760.3838
6142 37.2339 20657(144) 20459.6680 11757.5273
6143 37.2399 19631(141) 20094.5742 11754.6680
6144 37.2459 18994(138) 19690.3672 11751.8096
6145 37.2519 18335(136) 19266.6055 11748.9512
6146 37.2579 17581(133) 18840.9688 11746.0928
6147 37.2639 17142(132) 18429.0547 11743.2334
6148 37.2699 16829(130) 18042.9121 11740.3750
6149 37.2759 16445(129) 17687.6582 11737.5166
6150 37.2819 16371(128) 17370.3945 11734.6592
6151 37.2879 16338(128) 17089.1367 11731.8008
6152 37.2939 16642(130) 16841.4766 11728.9424
6153 37.2999 16527(129) 16622.1914 11726.0830
6154 37.3059 16444(128) 16422.7070 11723.2246
6155 37.3119 16711(129) 16233.4072 11720.3662
6156 37.3179 16592(129) 16055.2129 11717.5068
6157 37.3239 16503(129) 15861.4023 11714.6504
6158 37.3299 16228(128) 15656.1875 11711.7920
6159 37.3359 15799(126) 15437.6826 11708.9326
6160 37.3419 15165(123) 15207.2441 11706.0742
6161 37.3479 14915(122) 14968.4922 11703.2158
6162 37.3539 14389(120) 14725.9121 11700.3564
6163 37.3599 14022(119) 14484.3477 11697.4980
6164 37.3659 13711(117) 14248.4229 11694.6416
6165 37.3719 13677(117) 14021.4980 11691.7822
6166 37.3779 13293(116) 13803.2070 11688.9238
6167 37.3839 13160(115) 13602.2500 11686.0654
6168 37.3899 12968(114) 13416.8906 11683.2061
6169 37.3959 12878(113) 13248.1875 11680.3477
6170 37.4019 12804(114) 13096.4238 11677.4893
6171 37.4079 12673(113) 12961.2354 11674.6309
6172 37.4139 12467(112) 12842.5068 11671.7734
6173 37.4199 12470(112) 12739.2051 11668.9150
6174 37.4259 12480(112) 12650.5488 11666.0566
6175 37.4319 12305(111) 12575.2959 11663.1973
6176 37.4379 12383(111) 12512.1924 11660.3389
6177 37.4439 12386(111) 12460.1094 11657.4805
6178 37.4499 12460(112) 12417.9600 11654.6211
6179 37.4559 12290(111) 12384.7178 11651.7646
6180 37.4619 12452(112) 12359.5391 11648.9062
6181 37.4679 12360(111) 12341.7949 11646.0469
6182 37.4739 12305(111) 12331.0664 11643.1885
6183 37.4799 12351(111) 12327.1318 11640.3301
6184 37.4859 12471(112) 12329.9756 11637.4707
6185 37.4919 12254(111) 12339.7793 11634.6123
6186 37.4979 12288(111) 12353.4668 11628.4062
6187 37.5039 12479(112) 12374.8750 11622.1953
6188 37.5099 12552(112) 12404.4697 11615.9854
6189 37.5159 12494(112) 12442.8555 11609.7754
6190 37.5219 12727(113) 12490.6426 11603.5654
6191 37.5279 12631(113) 12548.2559 11597.3545
6192 37.5339 12621(112) 12616.0156 11591.1445
6193 37.5399 12887(114) 12694.2480 11584.9346
6194 37.5459 13196(115) 12782.9707 11578.7275
6195 37.5519 13119(115) 12882.1689 11572.5176
6196 37.5579 13392(116) 12991.2686 11566.3076
6197 37.5639 13616(117) 13109.4561 11560.0977
6198 37.5699 13770(117) 13235.8652 11553.8867
6199 37.5759 14020(118) 13369.1934 11547.6768
6200 37.5819 14442(120) 13513.9121 11541.4668
6201 37.5879 14385(120) 13655.0156 11535.2598
6202 37.5939 14722(122) 13796.6514 11529.0498
6203 37.5999 15066(123) 13936.9365 11522.8398
6204 37.6059 15006(123) 14074.4092 11516.6289
6205 37.6119 15051(123) 14208.4170 11510.4189
6206 37.6179 15154(124) 14340.5732 11504.2090
6207 37.6239 15090(123) 14465.0381 11497.9990
6208 37.6299 15089(123) 14604.0430 11491.7881
6209 37.6359 15035(123) 14752.6826 11485.5820
6210 37.6419 15187(124) 14915.0537 11479.3721
6211 37.6479 15632(125) 15094.2422 11473.1611
6212 37.6539 15566(125) 15291.7021 11466.9512
6213 37.6599 15913(126) 15506.0801 11460.7412
6214 37.6659 16208(127) 15733.8496 11454.5312
6215 37.6719 16600(129) 15961.5078 11448.3203
6216 37.6779 17058(130) 16198.4082 11442.1143
6217 37.6839 17654(133) 16425.5430 11435.9043
6218 37.6899 18022(135) 16629.5703 11429.6934
6219 37.6959 18172(136) 16796.0469 11423.4834
6220 37.7019 18606(137) 16911.0586 11417.2734
6221 37.7079 18784(138) 16962.1719 11411.0625
6222 37.7139 18626(137) 16940.7578 11404.8525
6223 37.7199 18331(136) 16852.3652 11398.6465
6224 37.7259 17591(133) 16685.3926 11392.4365
6225 37.7319 17097(131) 16456.7930 11386.2256
6226 37.7379 16339(128) 16178.8164 11380.0156
6227 37.7439 15761(125) 15866.0000 11373.8057
6228 37.7499 15103(123) 15531.8223 11367.5947
6229 37.7559 14853(122) 15188.4482 11361.3848
6230 37.7619 14226(120) 14845.8281 11355.1748
6231 37.7679 13877(118) 14513.0791 11348.9688
6232 37.7739 13568(117) 14196.4199 11342.7578
6233 37.7799 13193(115) 13901.6504 11336.5479
6234 37.7859 13202(115) 13632.1191 11330.3379
6235 37.7919 13047(115) 13389.9971 11324.1270
6236 37.7979 12929(114) 13177.2891 11317.9170
6237 37.8039 12826(114) 12994.7822 11311.7070
6238 37.8099 12665(113) 12842.1260 11305.5000
6239 37.8159 12733(113) 12718.7617 11299.2900
6240 37.8219 12423(111) 12623.6484 11293.0801
6241 37.8279 12611(113) 12558.3564 11286.8701
6242 37.8339 12652(113) 12516.7969 11280.6592
6243 37.8399 12336(111) 12506.5908 11274.4492
6244 37.8459 12437(112) 12520.9443 11275.3906
6245 37.8519 12425(112) 12558.1426 11276.3311
6246 37.8579 12634(113) 12617.0762 11277.2725
6247 37.8639 12718(113) 12696.8232 11278.2129
6248 37.8699 12846(114) 12796.3516 11279.1543
6249 37.8759 12891(114) 12914.5010 11280.0957
6250 37.8819 13074(115) 13049.7930 11281.0371
6251 37.8879 13101(115) 13208.4336 11281.9775
6252 37.8939 13295(116) 13372.0166 11282.9189
6253 37.8999 13453(116) 13545.3779 11283.8594
6254 37.9059 13544(117) 13724.9297 11284.8008
6255 37.9119 13909(118) 13906.0068 11285.7422
6256 37.9179 14059(118) 14083.4980 11286.6836
6257 37.9239 14089(119) 14251.9238 11287.6240
6258 37.9299 14537(120) 14405.9082 11288.5654
6259 37.9359 14594(121) 14541.0898 11289.5068
6260 37.9419 14728(122) 14654.2510 11290.4473
6261 37.9479 14803(122) 14743.6074 11291.3887
6262 37.9539 14814(122) 14807.8467 11292.3291
6263 37.9599 14963(122) 14846.4629 11293.2705
6264 37.9659 14967(123) 14859.3848 11294.2119
6265 37.9719 14954(123) 14846.8789 11295.1533
6266 37.9779 15041(123) 14809.3350 11296.0938
6267 37.9839 14943(123) 14748.4941 11297.0352
6268 37.9899 14687(122) 14658.0098 11297.9756
6269 37.9959 14545(121) 14561.7510 11298.9170
6270 38.0019 14240(119) 14454.2754 11299.8584
6271 38.0079 14077(119) 14341.0400 11300.7998
6272 38.0139 13970(118) 14226.7100 11301.7402
6273 38.0199 13702(117) 14115.2734 11302.6816
6274 38.0259 13626(117) 14009.8281 11303.6230
6275 38.0319 13527(116) 13912.9297 11304.5635
6276 38.0379 13619(117) 13826.6885 11305.5049
6277 38.0439 13316(116) 13753.4160 11306.4453
6278 38.0499 13307(116) 13682.0234 11307.3867
6279 38.0559 13124(115) 13642.6865 11308.3281
6280 38.0619 13274(116) 13627.2939 11309.2695
6281 38.0679 13503(117) 13633.5996 11310.2100
6282 38.0739 13398(116) 13666.9902 11311.1514
6283 38.0799 13330(116) 13729.6016 11312.0918
6284 38.0859 13434(116) 13823.0996 11313.0332
6285 38.0919 13528(117) 13947.8799 11313.9746
6286 38.0979 13897(118) 14109.6973 11314.9160
6287 38.1039 13917(119) 14293.8369 11315.8564
6288 38.1099 14385(121) 14504.1074 11316.7979
6289 38.1159 14801(122) 14735.5303 11317.7383
6290 38.1219 15042(123) 14982.7383 11318.6797
6291 38.1279 15582(125) 15237.4434 11319.6211
6292 38.1339 15932(126) 15490.6279 11320.5615
6293 38.1399 16552(129) 15731.5557 11321.5029
6294 38.1459 17048(131) 15947.3262 11322.4443
6295 38.1519 17316(132) 16124.4551 11323.3857
6296 38.1579 17438(133) 16245.1396 11324.3262
6297 38.1639 17389(133) 16309.9707 11325.2676
6298 38.1699 17276(132) 16307.0342 11326.2080
6299 38.1759 17055(131) 16235.1328 11327.1494
6300 38.1819 16519(129) 16105.4590 11328.0908
6301 38.1879 15995(127) 15913.5791 11329.0322
6302 38.1939 15153(123) 15677.8838 11329.9727
6303 38.1999 14903(123) 15409.7148 11330.9141
6304 38.2059 14494(121) 15122.1855 11331.8545
6305 38.2119 14266(120) 14825.6816 11332.7959
6306 38.2179 13653(117) 14529.2891 11333.7373
6307 38.2239 13390(116) 14240.0400 11334.6777
6308 38.2299 13385(116) 13964.0459 11335.6191
6309 38.2359 12878(114) 13706.0000 11336.5605
6310 38.2419 12694(113) 13468.5742 11337.5020
6311 38.2479 12674(113) 13253.6641 11338.4424
6312 38.2539 12418(112) 13062.0332 11339.3838
6313 38.2599 12363(112) 12894.1631 11340.3242
6314 38.2659 12250(111) 12749.8457 11341.2656
6315 38.2719 12123(110) 12628.0225 11342.2070
6316 38.2779 12452(112) 12527.4365 11343.1484
6317 38.2839 12251(111) 12453.9307 11344.0889
6318 38.2899 12050(110) 12392.5684 11345.0303
6319 38.2959 12074(111) 12347.0781 11344.1562
6320 38.3019 12086(110) 12318.3447 11343.2812
6321 38.3079 12074(110) 12305.5889 11342.4062
6322 38.3139 12205(111) 12308.4199 11341.5322
6323 38.3199 12115(110) 12326.7822 11340.6572
6324 38.3259 12190(111) 12360.8662 11339.7822
6325 38.3319 12335(112) 12410.9883 11338.9082
6326 38.3379 12507(112) 12477.6543 11338.0332
6327 38.3439 12647(113) 12561.5312 11337.1592
6328 38.3499 12593(113) 12663.2314 11336.2842
6329 38.3559 12814(114) 12783.3330 11335.4092
6330 38.3619 12914(114) 12921.8721 11334.5352
6331 38.3679 12913(114) 13078.4297 11333.6602
6332 38.3739 13220(115) 13252.4219 11332.7852
6333 38.3799 13328(116) 13442.7051 11331.9102
6334 38.3859 13857(119) 13646.7275 11331.0361
6335 38.3919 14144(120) 13862.0430 11330.1621
6336 38.3979 14579(122) 14084.2764 11329.2871
6337 38.4039 14804(122) 14308.7490 11328.4121
6338 38.4099 15650(126) 14529.6973 11327.5371
6339 38.4159 16216(128) 14739.8564 11326.6631
6340 38.4219 16657(130) 14931.2852 11325.7881
6341 38.4279 16775(130) 15096.2529 11324.9141
6342 38.4339 16934(131) 15227.7314 11324.0391
6343 38.4399 16897(131) 15320.4961 11323.1641
6344 38.4459 16964(131) 15381.3574 11322.2900
6345 38.4519 16410(129) 15392.4297 11321.4150
6346 38.4579 16225(128) 15370.3203 11320.5400
6347 38.4639 15942(127) 15320.7549 11319.6650
6348 38.4699 15210(124) 15253.0830 11318.7910
6349 38.4759 14860(122) 15176.2832 11317.9170
6350 38.4819 14644(122) 15099.9180 11317.0420
6351 38.4879 14599(122) 15031.7979 11316.1670
6352 38.4939 14266(120) 14978.5762 11315.2920
6353 38.4999 14389(120) 14946.5674 11314.4180
6354 38.5059 14389(121) 14940.8789 11313.5430
6355 38.5119 14546(121) 14964.3301 11312.6680
6356 38.5179 14694(122) 15018.3613 11311.7939
6357 38.5239 14933(123) 15103.1846 11310.9189
6358 38.5299 15136(124) 15217.4658 11310.0449
6359 38.5359 15617(126) 15358.4395 11309.1699
6360 38.5419 15997(127) 15520.6934 11308.2949
6361 38.5479 16526(129) 15697.1963 11307.4209
6362 38.5539 16704(130) 15869.6855 11306.5459
6363 38.5599 17354(132) 16050.0898 11305.6719
6364 38.5659 17444(133) 16217.7793 11304.7969
6365 38.5719 17589(133) 16362.6758 11303.9219
6366 38.5779 17690(134) 16476.6211 11303.0479
6367 38.5839 17390(133) 16554.8887 11302.1729
6368 38.5899 17024(131) 16596.4688 11301.2979
6369 38.5959 16947(131) 16604.7734 11300.4229
6370 38.6019 16378(129) 16587.5234 11299.5488
6371 38.6079 16109(128) 16554.7910 11298.6748
6372 38.6139 16130(128) 16518.2031 11297.7998
6373 38.6199 15698(126) 16488.5430 11296.9248
6374 38.6259 15588(126) 16476.5195 11296.0498
6375 38.6319 15715(126) 16491.7461 11295.1758
6376 38.6379 15699(126) 16541.0195 11294.3008
6377 38.6439 15583(125) 16628.5312 11293.4258
6378 38.6499 15726(126) 16757.4043 11292.5518
6379 38.6559 16273(128) 16927.3691 11291.6768
6380 38.6619 16653(130) 17136.7891 11290.8027
6381 38.6679 16852(130) 17380.2480 11289.9277
6382 38.6739 17706(134) 17649.5430 11289.0527
6383 38.6799 18104(135) 17934.0703 11288.1787
6384 38.6859 18571(137) 18222.7188 11287.3037
6385 38.6919 19254(140) 18501.3359 11286.4297
6386 38.6979 19618(141) 18757.2188 11285.5547
6387 38.7039 19996(142) 18977.1211 11284.6797
6388 38.7099 20121(143) 19151.2969 11283.8047
6389 38.7159 20279(143) 19272.7852 11282.9307
6390 38.7219 20579(144) 19336.4590 11282.0557
6391 38.7279 20662(144) 19339.6504 11281.1807
6392 38.7339 20754(145) 19281.8242 11280.3066
6393 38.7399 20670(145) 19162.4531 11279.4316
6394 38.7459 20355(144) 18982.1211 11278.5576
6395 38.7519 19650(141) 18742.4395 11277.6826
6396 38.7579 18884(138) 18448.1016 11276.8076
6397 38.7639 18432(137) 18106.8203 11275.9336
6398 38.7699 17498(133) 17728.1719 11275.0586
6399 38.7759 16828(130) 17324.1367 11274.1836
6400 38.7819 16301(129) 16904.9727 11273.3096
6401 38.7879 15457(125) 16488.8086 11272.4346
6402 38.7939 15009(123) 16083.6191 11271.5605
6403 38.7999 14499(121) 15698.0000 11270.6855
6404 38.8059 14151(120) 15339.4531 11269.8105
6405 38.8119 13843(118) 15014.0811 11268.9355
6406 38.8179 13889(119) 14725.6934 11268.0615
6407 38.8239 13532(117) 14479.0215 11267.1875
6408 38.8299 13460(117) 14267.9004 11266.3125
6409 38.8359 13363(116) 14102.3994 11265.4375
6410 38.8419 13196(115) 13979.2148 11264.5625
6411 38.8479 13361(116) 13897.6465 11263.6885
6412 38.8539 13186(115) 13864.0859 11262.8135
6413 38.8599 13447(117) 13860.9482 11260.7432
6414 38.8659 13400(116) 13895.0518 11258.6748
6415 38.8719 13606(117) 13964.7002 11256.6055
6416 38.8779 13583(117) 14068.1670 11254.5352
6417 38.8839 13843(118) 14203.2998 11252.4658
6418 38.8899 14098(119) 14366.8262 11250.3955
6419 38.8959 14262(120) 14564.6680 11248.3262
6420 38.9019 14570(121) 14778.1670 11246.2559
6421 38.9079 14875(123) 15011.3135 11244.1865
6422 38.9139 15295(124) 15258.1602 11242.1182
6423 38.9199 15805(126) 15513.1719 11240.0479
6424 38.9259 16377(128) 15769.7910 11237.9785
6425 38.9319 16724(130) 16026.2715 11235.9082
6426 38.9379 17013(131) 16265.7002 11233.8389
6427 38.9439 17312(132) 16486.1035 11231.7686
6428 38.9499 17586(133) 16682.2988 11229.6992
6429 38.9559 17798(134) 16848.0703 11227.6299
6430 38.9619 17917(135) 16980.3184 11225.5605
6431 38.9679 18038(135) 17076.7773 11223.4902
6432 38.9739 17731(134) 17138.2969 11221.4209
6433 38.9799 17516(133) 17167.9102 11219.3506
6434 38.9859 17143(132) 17170.8066 11217.2812
6435 38.9919 16894(131) 17154.3164 11215.2109
6436 38.9979 16365(129) 17126.6777 11213.1426
6437 39.0039 16260(128) 17095.0117 11211.0732
6438 39.0099 16247(128) 17064.9805 11209.0029
6439 39.0159 16159(128) 17039.6094 11206.9336
6440 39.0219 16413(129) 17011.2109 11204.8633
6441 39.0279 16564(129) 16998.6211 11202.7939
6442 39.0339 16805(130) 16988.6445 11200.7236
6443 39.0399 17239(132) 16976.0391 11198.6543
6444 39.0459 17524(134) 16956.0039 11196.5850
6445 39.0519 17345(133) 16922.8672 11194.5156
6446 39.0579 17379(133) 16873.3809 11192.4453
6447 39.0639 17052(131) 16805.8594 11190.3760
6448 39.0699 16791(130) 16721.6562 11188.3057
6449 39.0759 16282(128) 16625.1816 11186.2363
6450 39.0819 15865(127) 16522.8027 11184.1660
6451 39.0879 15808(127) 16420.4492 11182.0977
6452 39.0939 15477(125) 16324.6523 11180.0283
6453 39.0999 15089(124) 16240.4980 11177.9580
6454 39.1059 14859(123) 16171.6230 11175.8887
6455 39.1119 14938(123) 16119.7695 11173.8184
6456 39.1179 14979(123) 16084.8369 11171.7490
6457 39.1239 15017(124) 16064.4912 11169.6787
6458 39.1299 15152(124) 16054.7969 11167.6094
6459 39.1359 15151(124) 16050.0391 11165.5400
6460 39.1419 15332(124) 16045.9648 11163.4707
6461 39.1479 15547(126) 16028.5566 11161.4004
6462 39.1539 15398(125) 15992.7891 11159.3311
6463 39.1599 15351(125) 15932.0918 11157.2607
6464 39.1659 15502(126) 15842.2266 11155.1914
6465 39.1719 14982(123) 15722.3203 11153.1211
6466 39.1779 15104(124) 15575.1543 11151.0527
6467 39.1839 14871(123) 15406.1562 11148.9834
6468 39.1899 14496(121) 15222.8945 11146.9131
6469 39.1959 14475(121) 15033.6719 11144.8438
6470 39.2019 14194(120) 14847.3438 11142.7734
6471 39.2079 13943(119) 14672.4053 11140.7041
6472 39.2139 13791(118) 14515.7832 11138.6338
6473 39.2199 13633(118) 14384.9570 11136.5654
6474 39.2259 13617(118) 14283.6836 11134.4951
6475 39.2319 13498(117) 14217.6064 11132.4258
6476 39.2379 13571(118) 14190.2832 11130.3555
6477 39.2439 13629(117) 14204.0029 11128.2861
6478 39.2499 13576(117) 14260.1289 11126.2158
6479 39.2559 13651(118) 14358.7656 11124.1465
6480 39.2619 13945(119) 14498.4102 11122.0762
6481 39.2679 14192(120) 14676.4014 11120.0078
6482 39.2739 14522(121) 14888.6807 11117.9385
6483 39.2799 14844(123) 15129.9385 11115.8682
6484 39.2859 15151(123) 15392.9180 11113.7988
6485 39.2919 16004(127) 15675.1016 11111.7285
6486 39.2979 16469(129) 15953.2227 11109.6592
6487 39.3039 16697(129) 16220.4531 11107.5889
6488 39.3099 17336(133) 16461.8242 11105.5205
6489 39.3159 17666(134) 16671.3164 11103.4502
6490 39.3219 17875(135) 16829.9531 11101.3809
6491 39.3279 17880(135) 16928.2969 11099.3105
6492 39.3339 17633(134) 16953.0156 11097.2412
6493 39.3399 17319(132) 16902.7656 11095.1709
6494 39.3459 16606(130) 16779.3633 11093.1016
6495 39.3519 16169(128) 16588.9668 11091.0332
6496 39.3579 15824(127) 16343.0908 11088.9629
6497 39.3639 15028(123) 16053.2285 11086.8936
6498 39.3699 14645(122) 15732.4316 11084.8232
6499 39.3759 14161(120) 15393.2930 11082.7539
6500 39.3819 13540(117) 15046.3301 11080.6836
6501 39.3879 13344(116) 14700.2871 11078.6143
6502 39.3939 13372(117) 14363.0039 11076.5439
6503 39.3999 12832(114) 14040.9375 11074.4756
6504 39.4059 12791(114) 13738.1152 11072.4062
6505 39.4119 12499(113) 13457.8965 11070.3359
6506 39.4179 12319(112) 13202.0254 11068.2656
6507 39.4239 12172(111) 12971.8164 11066.1963
6508 39.4299 12185(111) 12767.7031 11064.1260
6509 39.4359 12164(111) 12588.9111 11062.0566
6510 39.4419 12193(111) 12434.2500 11059.9883
6511 39.4479 11988(110) 12302.0381 11057.9180
6512 39.4539 11624(108) 12182.9434 11055.8486
6513 39.4599 11844(109) 12090.4375 11053.7783
6514 39.4659 11588(108) 12014.6240 11051.7090
6515 39.4719 11843(110) 11953.3799 11049.6387
6516 39.4779 11706(109) 11904.3311 11047.5693
6517 39.4839 11736(109) 11866.8193 11045.5010
6518 39.4899 11589(108) 11838.6230 11043.4307
6519 39.4959 11683(109) 11818.3457 11041.3613
6520 39.5019 11445(107) 11804.6621 11039.2910
6521 39.5079 11686(109) 11797.1982 11037.8438
6522 39.5139 11740(109) 11794.4229 11036.3975
6523 39.5199 11629(109) 11795.5361 11034.9502
6524 39.5259 11805(109) 11799.8301 11033.5039
6525 39.5319 11763(109) 11806.7344 11032.0576
6526 39.5379 11893(110) 11815.7451 11030.6113
6527 39.5439 11792(109) 11826.4697 11029.1641
6528 39.5499 11920(110) 11838.5928 11027.7178
6529 39.5559 11841(109) 11851.9199 11026.2705
6530 39.5619 11785(109) 11866.4893 11024.8242
6531 39.5679 11758(109) 11880.1494 11023.3770
6532 39.5739 11825(109) 11898.3887 11021.9316
6533 39.5799 11868(110) 11919.6260 11020.4844
6534 39.5859 11995(110) 11938.6396 11019.0381
6535 39.5919 12072(111) 11969.5918 11017.5908
6536 39.5979 12258(112) 12007.8193 11016.1445
6537 39.6039 11972(110) 12055.0342 11014.6973
6538 39.6099 12085(111) 12113.1963 11013.2510
6539 39.6159 12026(110) 12184.3682 11011.8047
6540 39.6219 12331(112) 12270.8457 11010.3584
6541 39.6279 12506(113) 12366.9844 11008.9111
6542 39.6339 12427(112) 12491.1084 11007.4648
6543 39.6399 12797(114) 12637.5215 11006.0176
6544 39.6459 12640(113) 12808.5469 11004.5713
6545 39.6519 12965(114) 13006.3984 11003.1240
6546 39.6579 13321(116) 13238.7402 11001.6777
6547 39.6639 13353(116) 13495.5107 11000.2314
6548 39.6699 13691(118) 13783.7949 10998.7852
6549 39.6759 13720(118) 14103.8730 10997.3379
6550 39.6819 14225(120) 14455.4873 10995.8916
6551 39.6879 14534(121) 14837.2646 10994.4443
6552 39.6939 14958(123) 15246.6465 10992.9980
6553 39.6999 15449(125) 15680.0039 10991.5508
6554 39.7059 16002(127) 16132.2266 10990.1055
6555 39.7119 16439(129) 16597.6797 10988.6582
6556 39.7179 17254(132) 17068.8535 10987.2119
6557 39.7239 17924(135) 17537.4473 10985.7646
6558 39.7299 18704(137) 17994.5352 10984.3184
6559 39.7359 19326(140) 18430.7617 10982.8711
6560 39.7419 19959(142) 18836.7422 10981.4248
6561 39.7479 20362(144) 19202.7500 10979.9785
6562 39.7539 20505(144) 19522.7109 10978.5322
6563 39.7599 20579(144) 19789.7070 10977.0850
6564 39.7659 20549(144) 19999.6367 10975.6387
6565 39.7719 20447(143) 20150.7871 10974.1914
6566 39.7779 20329(144) 20242.4336 10972.7451
6567 39.7839 20184(143) 20273.6621 10971.2979
6568 39.7899 20155(143) 20244.2637 10969.8516
6569 39.7959 19893(142) 20155.3652 10968.4053
6570 39.8019 19597(140) 20007.9590 10966.9590
6571 39.8079 19546(140) 19804.8594 10965.5117
6572 39.8139 19453(140) 19549.4863 10964.0654
6573 39.8199 19139(139) 19244.1328 10962.6182
6574 39.8259 18918(138) 18899.5098 10961.1719
6575 39.8319 18488(137) 18518.5273 10959.7246
6576 39.8379 17770(134) 18107.7109 10958.2783
6577 39.8439 17259(132) 17673.5430 10956.8320
6578 39.8499 16631(130) 17217.5059 10955.3848
6579 39.8559 16081(128) 16760.7656 10953.9385
6580 39.8619 15502(125) 16304.9121 10952.4912
6581 39.8679 14969(123) 15858.1230 10951.0449
6582 39.8739 14536(121) 15427.3809 10949.5977
6583 39.8799 14057(119) 15018.1152 10948.1514
6584 39.8859 13660(117) 14635.3271 10946.7051
6585 39.8919 13592(118) 14281.6816 10945.2588
6586 39.8979 13187(116) 13960.0547 10943.8115
6587 39.9039 12994(115) 13671.6562 10942.3652
6588 39.9099 12861(114) 13416.6543 10940.9180
6589 39.9159 12561(112) 13194.9785 10939.4717
6590 39.9219 12597(113) 13006.2109 10938.0244
6591 39.9279 12379(112) 12849.1504 10936.5791
6592 39.9339 12428(112) 12722.3184 10935.1318
6593 39.9399 12390(112) 12617.4189 10933.6855
6594 39.9459 12519(112) 12545.8184 10932.2383
6595 39.9519 12214(111) 12499.0723 10930.7920
6596 39.9579 12199(111) 12474.4609 10929.3447
6597 39.9639 12248(111) 12471.0254 10927.8984
6598 39.9699 12300(111) 12485.9248 10926.4521
6599 39.9759 12199(111) 12516.8438 10925.0059
6600 39.9819 12380(112) 12561.5977 10923.5586
6601 39.9879 12286(111) 12617.9033 10922.1123
6602 39.9939 12573(113) 12683.3691 10920.6650
6603 39.9999 12762(113) 12755.4756 10919.2188
6604 40.0059 12681(113) 12831.9316 10917.7715
6605 40.0119 12864(114) 12911.7812 10916.3252
6606 40.0179 13107(115) 12989.0254 10914.8789
6607 40.0239 13071(115) 13062.4434 10913.4326
6608 40.0299 13315(115) 13128.9502 10911.9854
6609 40.0359 13312(116) 13185.9434 10910.5391
6610 40.0419 13287(116) 13231.2793 10909.0918
6611 40.0479 13437(116) 13256.9521 10907.6455
6612 40.0539 13323(116) 13276.8213 10906.1982
6613 40.0599 13231(116) 13285.5381 10904.7529
6614 40.0659 13147(115) 13285.9951 10903.3057
6615 40.0719 12989(114) 13281.7119 10901.8594
6616 40.0779 12940(114) 13279.4434 10900.4121
6617 40.0839 13160(115) 13278.6348 10898.9658
6618 40.0899 13169(115) 13285.6035 10897.5186
6619 40.0959 13203(115) 13303.7256 10896.0723
6620 40.1019 13249(116) 13335.8262 10894.6260
6621 40.1079 13208(115) 13384.1230 10893.1797
6622 40.1139 13283(115) 13450.5146 10891.7324
6623 40.1199 13654(117) 13535.7451 10890.2861
6624 40.1259 13743(117) 13639.8857 10888.8389
6625 40.1319 13915(118) 13763.0195 10887.3926
6626 40.1379 14052(119) 13904.7871 10885.9453
6627 40.1439 14120(119) 14063.5918 10884.4990
6628 40.1499 14383(120) 14237.3262 10883.0527
6629 40.1559 14413(120) 14423.4717 10881.6055
6630 40.1619 14741(121) 14618.3486 10880.1592
6631 40.1679 15377(124) 14817.2363 10878.7129
6632 40.1739 15530(125) 15013.7021 10877.2656
6633 40.1799 16044(127) 15200.3066 10875.8184
6634 40.1859 16431(128) 15369.0928 10874.3721
6635 40.1919 16806(130) 15511.3916 10872.9258
6636 40.1979 17000(131) 15619.2295 10871.4795
6637 40.2039 17192(132) 15685.5059 10870.0322
6638 40.2099 16804(130) 15705.7285 10868.5859
6639 40.2159 16728(130) 15677.8604 10867.1387
6640 40.2219 16364(128) 15602.2617 10865.6924
6641 40.2279 16009(127) 15471.2148 10864.2451
6642 40.2339 15407(125) 15311.0098 10862.7998
6643 40.2399 14991(123) 15116.2617 10861.3525
6644 40.2459 14490(121) 14893.3125 10859.9062
6645 40.2519 14083(119) 14648.6152 10858.4590
6646 40.2579 13688(117) 14389.2949 10857.0127
6647 40.2639 13285(115) 14122.2383 10855.5654
6648 40.2699 12884(114) 13853.4424 10854.1191
6649 40.2759 12691(113) 13588.2734 10852.6719
6650 40.2819 12442(111) 13331.7871 10851.2266
6651 40.2879 12259(111) 13087.2383 10849.7793
6652 40.2939 12102(110) 12857.7471 10848.3330
6653 40.2999 11989(110) 12645.1289 10846.8857
6654 40.3059 11667(108) 12450.4971 10845.4395
6655 40.3119 11689(108) 12276.5830 10843.9922
6656 40.3179 11673(108) 12119.0879 10842.5459
6657 40.3239 11430(107) 11979.6367 10841.0996
6658 40.3299 11544(108) 11857.2207 10839.6533
6659 40.3359 11494(107) 11750.7939 10838.2061
6660 40.3419 11269(106) 11659.1006 10836.7598
6661 40.3479 11376(107) 11580.7627 10835.3125
6662 40.3539 11416(107) 11514.3770 10833.8662
6663 40.3599 11224(106) 11458.5879 10832.4189
6664 40.3659 11267(106) 11412.1504 10830.9736
6665 40.3719 11224(106) 11373.8408 10829.5264
6666 40.3779 11269(106) 11342.6621 10828.0801
6667 40.3839 11359(107) 11317.7354 10826.6328
6668 40.3899 11262(106) 11298.3652 10825.1865
6669 40.3959 11122(105) 11284.0322 10823.7393
6670 40.4019 11159(106) 11274.3584 10822.2930
6671 40.4079 11174(106) 11269.1719 10820.8457
6672 40.4139 11178(106) 11268.4717 10819.4004
6673 40.4199 11041(105) 11272.3936 10817.9531
6674 40.4259 11307(106) 11281.3008 10816.5068
6675 40.4319 11310(106) 11295.6523 10815.0596
6676 40.4379 11385(107) 11316.0254 10813.6133
6677 40.4439 11411(107) 11343.1934 10812.1660
6678 40.4499 11290(106) 11378.0703 10810.7197
6679 40.4559 11357(107) 11421.7891 10809.2734
6680 40.4619 11092(105) 11474.4707 10807.8271
6681 40.4679 11511(108) 11537.8984 10806.3799
6682 40.4739 11483(107) 11612.6992 10804.9336
6683 40.4799 11358(106) 11699.7344 10803.4863
6684 40.4859 11628(108) 11799.4844 10802.0400
6685 40.4919 11605(108) 11912.0820 10800.5928
6686 40.4979 11821(109) 12037.6191 10799.1465
6687 40.5039 11637(108) 12175.6426 10797.7002
6688 40.5099 11867(109) 12325.4473 10796.2529
6689 40.5159 12076(110) 12485.4043 10794.8066
6690 40.5219 12266(111) 12653.2441 10793.3594
6691 40.5279 12485(111) 12826.5352 10791.9131
6692 40.5339 12696(113) 13002.0098 10790.4658
6693 40.5399 12974(114) 13175.3438 10789.0195
6694 40.5459 13060(114) 13341.3828 10787.5732
6695 40.5519 13437(116) 13494.8242 10786.1270
6696 40.5579 13779(118) 13629.5195 10784.6797
6697 40.5639 13815(117) 13739.3145 10783.2334
6698 40.5699 13880(118) 13818.2100 10781.7861
6699 40.5759 13926(118) 13861.4336 10780.3398
6700 40.5819 13800(117) 13866.2725 10778.8926
6701 40.5879 14133(119) 13838.5596 10777.4473
6702 40.5939 13637(117) 13767.5420 10776.0000
6703 40.5999 13464(116) 13663.5244 10774.5537
6704 40.6059 13419(116) 13532.1719 10773.1064
6705 40.6119 13123(115) 13379.5176 10771.6602
6706 40.6179 12802(113) 13211.6309 10770.2129
6707 40.6239 12695(112) 13032.7334 10768.7666
6708 40.6299 12474(112) 12851.5615 10767.3193
6709 40.6359 12324(111) 12671.1211 10765.8740
6710 40.6419 11878(109) 12494.8154 10764.4268
6711 40.6479 11962(109) 12325.3926 10762.9805
6712 40.6539 11864(109) 12165.3730 10761.5332
6713 40.6599 11700(108) 12009.0391 10760.0869
6714 40.6659 11749(108) 11872.3438 10758.6396
6715 40.6719 11506(107) 11748.4912 10757.1934
6716 40.6779 11493(107) 11637.7549 10755.7471
6717 40.6839 11492(107) 11539.6611 10754.3008
6718 40.6899 11512(107) 11453.9561 10752.8535
6719 40.6959 11538(108) 11379.7783 10751.4072
6720 40.7019 11367(107) 11309.1572 10749.9600
6721 40.7079 11361(107) 11255.2744 10748.5137
6722 40.7139 11283(106) 11210.0312 10747.0664
6723 40.7199 11373(106) 11172.3076 10745.6211
6724 40.7259 11372(107) 11141.0840 10744.1738
6725 40.7319 11302(106) 11115.3877 10742.7275
6726 40.7379 11288(106) 11094.3984 10741.2803
6727 40.7439 11133(105) 11072.5225 10739.8340
6728 40.7499 11231(106) 11058.8535 10738.3867
6729 40.7559 11117(105) 11047.4492 10736.9404
6730 40.7619 11217(106) 11038.8486 10735.4932
6731 40.7679 11154(106) 11032.2607 10734.0479
6732 40.7739 11294(106) 11027.4600 10732.6006
6733 40.7799 11227(106) 11024.2578 10731.1543
6734 40.7859 11376(107) 11022.8135 10729.7070
6735 40.7919 11216(106) 11023.1279 10728.2607
6736 40.7979 11197(106) 11025.3613 10726.8135
6737 40.8039 11289(106) 11029.7432 10725.3672
6738 40.8099 11022(105) 11036.5449 10723.9209
6739 40.8159 11214(106) 11055.7158 10732.0820
6740 40.8219 11382(106) 11077.9902 10740.2422
6741 40.8279 11351(106) 11108.2227 10748.4033
6742 40.8339 11253(106) 11137.8975 10756.5645
6743 40.8399 11418(107) 11171.8555 10764.7246
6744 40.8459 11428(107) 11210.4482 10772.8857
6745 40.8519 11256(106) 11254.3066 10781.0410
6746 40.8579 11352(106) 11303.1445 10789.2021
6747 40.8639 11442(107) 11357.5352 10797.3633
6748 40.8699 11517(107) 11417.7080 10805.5234
6749 40.8759 11559(107) 11483.6738 10813.6846
6750 40.8819 11490(107) 11556.4551 10821.8457
6751 40.8879 11688(108) 11633.8848 10830.0059
6752 40.8939 11596(108) 11716.7549 10838.1670
6753 40.8999 12012(110) 11804.1416 10846.3223
6754 40.9059 11885(109) 11896.0791 10854.4834
6755 40.9119 11929(109) 11996.6699 10862.6445
6756 40.9179 11967(109) 12093.9932 10870.8047
6757 40.9239 11994(109) 12192.0029 10878.9658
6758 40.9299 12076(110) 12288.9941 10887.1270
6759 40.9359 12424(112) 12383.3936 10895.2871
6760 40.9419 12340(111) 12473.7461 10903.4434
6761 40.9479 12245(110) 12558.9492 10911.6035
6762 40.9539 12664(113) 12638.0410 10919.7646
6763 40.9599 12411(111) 12707.4707 10927.9258
6764 40.9659 12412(111) 12773.0049 10936.0859
6765 40.9719 12508(112) 12831.4863 10944.2471
6766 40.9779 12773(113) 12882.3594 10952.4072
6767 40.9839 12611(112) 12924.9277 10960.5635
6768 40.9899 12527(112) 12958.1338 10968.7236
6769 40.9959 12583(112) 12983.0664 10976.8848
6770 41.0019 12599(112) 12993.4395 10985.0459
6771 41.0079 12633(112) 12989.9902 10993.2061
6772 41.0139 12818(113) 12971.7148 11001.3672
6773 41.0199 12655(112) 12938.3125 11009.5283
6774 41.0259 12639(112) 12890.1709 11017.6885
6775 41.0319 12540(112) 12828.5938 11025.8447
6776 41.0379 12319(111) 12755.7744 11034.0049
6777 41.0439 12384(111) 12674.3223 11042.1660
6778 41.0499 12314(111) 12586.1094 11050.3271
6779 41.0559 12319(111) 12495.3486 11058.4873
6780 41.0619 12160(110) 12403.7393 11066.6484
6781 41.0679 11947(109) 12313.5859 11074.8096
6782 41.0739 11919(109) 12228.6553 11082.9648
6783 41.0799 11795(108) 12146.4707 11091.1260
6784 41.0859 11787(108) 12070.1660 11099.2861
6785 41.0919 11652(107) 12000.8213 11107.4473
6786 41.0979 11512(107) 11939.2969 11115.6084
6787 41.1039 11575(107) 11886.0674 11123.7686
6788 41.1099 11535(107) 11841.4434 11131.9297
6789 41.1159 11479(107) 11805.7910 11140.0850
6790 41.1219 11287(106) 11772.5576 11148.2461
6791 41.1279 11567(107) 11747.9717 11149.2803
6792 41.1339 11478(107) 11736.3906 11150.3135
6793 41.1399 11565(107) 11729.6514 11151.3477
6794 41.1459 11511(107) 11731.6016 11152.3818
6795 41.1519 11466(107) 11742.0859 11153.4150
6796 41.1579 11327(106) 11758.4277 11154.4492
6797 41.1639 11310(106) 11784.9512 11155.4824
6798 41.1699 11492(107) 11818.8945 11156.5156
6799 41.1759 11706(108) 11859.7559 11157.5498
6800 41.1819 11517(107) 11906.9814 11158.5840
6801 41.1879 11647(108) 11959.7285 11159.6172
6802 41.1939 11699(108) 12019.7422 11160.6514
6803 41.1999 11841(109) 12080.5215 11161.6855
6804 41.2059 11932(109) 12143.5010 11162.7188
6805 41.2119 11953(109) 12207.2480 11163.7520
6806 41.2179 11949(109) 12271.5449 11164.7861
6807 41.2239 12341(111) 12331.1504 11165.8203
6808 41.2299 12104(109) 12385.5840 11166.8535
6809 41.2359 12400(111) 12432.6572 11167.8877
6810 41.2419 12325(111) 12470.1084 11168.9209
6811 41.2479 12307(110) 12496.0107 11169.9541
6812 41.2539 12400(111) 12509.0654 11170.9883
6813 41.2599 12262(111) 12510.3291 11172.0225
6814 41.2659 12506(112) 12496.6865 11173.0557
6815 41.2719 12203(110) 12471.0410 11174.0898
6816 41.2779 11980(109) 12434.8027 11175.1240
6817 41.2839 12078(110) 12390.2383 11176.1572
6818 41.2899 12227(111) 12339.5586 11177.1914
6819 41.2959 11761(108) 12285.1631 11178.2246
6820 41.3019 12256(111) 12228.9893 11179.2578
6821 41.3079 11714(108) 12173.0518 11180.2920
6822 41.3139 11721(108) 12118.8379 11181.3262
6823 41.3199 11811(109) 12067.6465 11182.3594
6824 41.3259 11766(108) 12020.5361 11183.3936
6825 41.3319 11721(108) 11978.4775 11184.4277
6826 41.3379 11555(107) 11941.9922 11185.4609
6827 41.3439 11892(109) 11911.5547 11186.4941
6828 41.3499 11598(107) 11887.3789 11187.5283
6829 41.3559 11667(108) 11869.7061 11188.5625
6830 41.3619 11807(108) 11858.6338 11189.5957
6831 41.3679 11608(107) 11854.1094 11190.6299
6832 41.3739 11812(108) 11855.9668 11191.6641
6833 41.3799 11740(108) 11864.2744 11192.6973
6834 41.3859 11855(109) 11879.0488 11193.7305
6835 41.3919 11957(109) 11900.4355 11194.7646
6836 41.3979 11973(109) 11928.6582 11195.7979
6837 41.4039 11986(109) 11964.1738 11196.8320
6838 41.4099 12110(110) 12007.5664 11197.8662
6839 41.4159 12213(110) 12059.8281 11198.8994
6840 41.4219 12027(109) 12121.8789 11199.9336
6841 41.4279 12098(110) 12194.6885 11200.9668
6842 41.4339 12174(110) 12279.2910 11202.0010
6843 41.4399 12055(109) 12376.6191 11203.0342
6844 41.4459 12185(110) 12487.5479 11204.0684
6845 41.4519 12444(111) 12612.3477 11205.1016
6846 41.4579 12467(111) 12750.8408 11206.1357
6847 41.4639 12476(112) 12902.7656 11207.1699
6848 41.4699 12835(114) 13067.2314 11208.2031
6849 41.4759 12764(113) 13242.9854 11209.2363
6850 41.4819 12955(114) 13427.7656 11210.2705
6851 41.4879 13273(115) 13618.5674 11211.3047
6852 41.4939 13784(117) 13812.1934 11212.3379
6853 41.4999 13914(118) 14004.7334 11213.3721
6854 41.5059 14208(119) 14191.0049 11214.4062
6855 41.5119 14319(119) 14359.4893 11215.4395
6856 41.5179 14629(121) 14515.6836 11216.4727
6857 41.5239 15091(123) 14647.2393 11217.5068
6858 41.5299 15259(123) 14749.4160 11218.5400
6859 41.5359 15452(124) 14814.3877 11219.5742
6860 41.5419 15351(124) 14839.7607 11220.6084
6861 41.5479 15361(124) 14824.2676 11221.6416
6862 41.5539 15010(122) 14768.8828 11222.6758
6863 41.5599 14716(121) 14677.0957 11223.7090
6864 41.5659 14382(120) 14553.7529 11224.7432
6865 41.5719 14263(119) 14405.3115 11225.7764
6866 41.5779 13824(117) 14238.1211 11226.8105
6867 41.5839 13646(117) 14060.3037 11227.8447
6868 41.5899 13461(116) 13873.9727 11228.8779
6869 41.5959 13292(115) 13686.6035 11229.9121
6870 41.6019 13000(114) 13502.4395 11230.9453
6871 41.6079 12809(113) 13325.3125 11231.9785
6872 41.6139 12706(113) 13158.1543 11233.0127
6873 41.6199 12815(113) 13005.3994 11234.0469
6874 41.6259 12836(113) 12866.1367 11235.0801
6875 41.6319 12600(112) 12743.2432 11236.1143
6876 41.6379 12532(112) 12641.1074 11237.1484
6877 41.6439 12919(114) 12554.0527 11238.1816
6878 41.6499 12660(113) 12486.0225 11239.2148
6879 41.6559 12599(112) 12437.2764 11240.2490
6880 41.6619 12468(112) 12407.8867 11241.2822
6881 41.6679 12691(113) 12398.7666 11242.3164
6882 41.6739 12578(112) 12408.3672 11243.3506
6883 41.6799 12674(112) 12437.5645 11244.3838
6884 41.6859 12535(112) 12486.1201 11245.4180
6885 41.6919 12727(113) 12554.0156 11246.4512
6886 41.6979 12637(112) 12641.1172 11247.4854
6887 41.7039 13066(114) 12747.4229 11248.5186
6888 41.7099 13015(114) 12872.5293 11249.5527
6889 41.7159 13192(115) 13015.8643 11250.5869
6890 41.7219 13141(114) 13176.7939 11251.6201
6891 41.7279 13533(116) 13354.6621 11252.6543
6892 41.7339 13653(117) 13547.8867 11253.6875
6893 41.7399 14081(119) 13755.2891 11254.7207
6894 41.7459 14217(119) 13974.3408 11255.7549
6895 41.7519 14540(121) 14202.5205 11256.7891
6896 41.7579 14780(121) 14436.8613 11257.8223
6897 41.7639 15163(123) 14673.5859 11258.8564
6898 41.7699 15190(123) 14908.2275 11259.8906
6899 41.7759 15643(125) 15136.3389 11260.9238
6900 41.7819 15818(126) 15353.7812 11261.9570
6901 41.7879 15861(125) 15556.8418 11262.9912
6902 41.7939 15981(126) 15742.8662 11264.0254
6903 41.7999 16218(128) 15910.1211 11265.0586
6904 41.8059 16174(127) 16057.8906 11266.0928
6905 41.8119 16232(128) 16186.7266 11267.1260
6906 41.8179 16564(129) 16297.8154 11268.1602
6907 41.8239 16601(129) 16391.7051 11269.1934
6908 41.8299 16449(128) 16469.1816 11270.2275
6909 41.8359 16830(130) 16529.4648 11271.2607
6910 41.8419 17014(131) 16571.5977 11272.2949
6911 41.8479 17066(131) 16594.3652 11273.3291
6912 41.8539 17221(131) 16595.8340 11274.3623
6913 41.8599 17264(132) 16573.8438 11275.3965
6914 41.8659 17004(131) 16527.2070 11276.4297
6915 41.8719 17173(131) 16455.5547 11277.4639
6916 41.8779 16803(130) 16360.1992 11278.4971
6917 41.8839 16317(128) 16242.4727 11279.5312
6918 41.8899 16111(127) 16109.3652 11280.5645
6919 41.8959 15843(126) 15963.9668 11281.5986
6920 41.9019 15503(125) 15811.5430 11282.6328
6921 41.9079 15041(123) 15657.4648 11283.6660
6922 41.9139 14936(122) 15506.1738 11284.6992
6923 41.9199 14947(122) 15361.8633 11285.7334
6924 41.9259 14608(121) 15225.7188 11286.7676
6925 41.9319 14778(122) 15100.1270 11287.8008
6926 41.9379 14855(122) 14986.1816 11288.8350
6927 41.9439 14985(123) 14884.1240 11289.8691
6928 41.9499 14728(121) 14793.3828 11290.9023
6929 41.9559 14617(121) 14713.4844 11291.9355
6930 41.9619 14630(121) 14643.7881 11292.9697
6931 41.9679 14932(122) 14584.6650 11294.0029
6932 41.9739 14799(122) 14536.3545 11295.0371
6933 41.9799 14852(122) 14499.4258 11296.0713
6934 41.9859 14761(122) 14475.0742 11297.1045
6935 41.9919 14889(122) 14466.9746 11298.1387
6936 41.9979 14781(122) 14470.4404 11299.1719
6937 42.0039 14954(123) 14488.5176 11300.2061
6938 42.0099 14949(123) 14521.3105 11301.2393
6939 42.0159 14975(123) 14568.0723 11302.2734
6940 42.0219 15267(124) 14627.4023 11303.3066
6941 42.0279 15471(124) 14697.7686 11304.3408
6942 42.0339 15582(125) 14777.3359 11305.3750
6943 42.0399 15718(125) 14864.0566 11306.4082
6944 42.0459 15764(126) 14955.6982 11307.4414
6945 42.0519 15833(126) 15051.0127 11308.4756
6946 42.0579 15616(125) 15147.6172 11309.5098
6947 42.0639 15642(125) 15244.3193 11310.5430
6948 42.0699 15587(125) 15339.6992 11311.5771
6949 42.0759 15558(125) 15431.9707 11312.6113
6950 42.0819 15629(125) 15518.8994 11313.6445
6951 42.0879 15576(125) 15598.3965 11314.6777
6952 42.0939 15731(126) 15668.3682 11315.7119
6953 42.0999 15780(126) 15727.2520 11316.7451
6954 42.1059 15605(125) 15774.3262 11317.7793
6955 42.1119 15656(125) 15809.4414 11318.8135
6956 42.1179 15603(125) 15833.0908 11319.8467
6957 42.1239 15626(125) 15846.6289 11320.8809
6958 42.1299 15610(125) 15851.7148 11321.9150
6959 42.1359 15608(125) 15849.0791 11322.9482
6960 42.1419 15693(125) 15839.4395 11323.9814
6961 42.1479 15940(126) 15822.0879 11325.0156
6962 42.1539 15883(127) 15796.1738 11326.0498
6963 42.1599 15874(127) 15760.7070 11327.0830
6964 42.1659 15975(127) 15715.0352 11328.1172
6965 42.1719 15940(127) 15655.8809 11329.1504
6966 42.1779 15712(126) 15583.4287 11330.1836
6967 42.1839 15532(125) 15497.2012 11331.2178
6968 42.1899 15477(125) 15397.6104 11332.2520
6969 42.1959 15302(125) 15285.3799 11333.2852
6970 42.2019 15074(123) 15161.5195 11334.3193
6971 42.2079 15065(124) 15024.8975 11335.3535
6972 42.2139 14883(123) 14881.0615 11336.3867
6973 42.2199 14578(121) 14729.3389 11337.4199
6974 42.2259 14360(120) 14570.6113 11338.4541
6975 42.2319 14381(121) 14406.4043 11339.4883
6976 42.2379 13895(118) 14237.9561 11340.5215
6977 42.2439 13931(119) 14066.7627 11341.5557
6978 42.2499 13636(117) 13894.8516 11342.5889
6979 42.2559 13005(114) 13724.3594 11343.6230
6980 42.2619 13172(115) 13557.0996 11344.6572
6981 42.2679 13000(115) 13395.0078 11345.6904
6982 42.2739 12778(114) 13239.5293 11346.7236
6983 42.2799 12634(113) 13092.2676 11347.7578
6984 42.2859 12475(112) 12954.3496 11348.7920
6985 42.2919 12540(113) 12826.3330 11349.8252
6986 42.2979 12966(115) 12708.5400 11350.8594
6987 42.3039 12322(111) 12601.3066 11351.8936
6988 42.3099 12158(111) 12504.7100 11352.9258
6989 42.3159 12305(111) 12418.4434 11353.9600
6990 42.3219 12183(111) 12342.1875 11354.9941
6991 42.3279 12369(112) 12275.4707 11356.0273
6992 42.3339 12017(110) 12217.9180 11357.0615
6993 42.3399 12070(110) 12169.0615 11358.0957
6994 42.3459 11955(110) 12128.2900 11359.1289
6995 42.3519 11776(109) 12095.0928 11360.1621
6996 42.3579 11885(110) 12068.6348 11361.1963
6997 42.3639 11808(109) 12049.1699 11362.2305
6998 42.3699 12026(110) 12036.0547 11363.2637
6999 42.3759 11923(110) 12028.9795 11364.2979
7000 42.3819 11980(110) 12032.6396 11365.3311
7001 42.3879 11922(110) 12037.1367 11366.3652
7002 42.3939 11908(110) 12047.4141 11367.3994
7003 42.3999 11925(110) 12063.4902 11368.4326
7004 42.4059 12043(110) 12085.6436 11369.4658
7005 42.4119 11772(109) 12113.9980 11370.5000
7006 42.4179 11777(109) 12144.6289 11364.4404
7007 42.4239 11806(109) 12179.5498 11358.3809
7008 42.4299 11821(109) 12221.8164 11352.3223
7009 42.4359 11914(109) 12271.6836 11346.2627
7010 42.4419 11964(110) 12329.7021 11340.2070
7011 42.4479 12012(110) 12396.1260 11334.1475
7012 42.4539 12198(111) 12471.3066 11328.0879
7013 42.4599 12203(111) 12555.2852 11322.0293
7014 42.4659 12227(111) 12647.9863 11315.9697
7015 42.4719 12224(111) 12749.4209 11309.9102
7016 42.4779 12363(112) 12859.4014 11303.8506
7017 42.4839 12604(113) 12977.1641 11297.7949
7018 42.4899 12414(112) 13105.9863 11291.7363
7019 42.4959 12650(113) 13241.9229 11285.6768
7020 42.5019 12862(114) 13372.9805 11279.6172
7021 42.5079 12937(114) 13515.2559 11273.5576
7022 42.5139 13106(115) 13661.4053 11267.4980
7023 42.5199 13373(116) 13810.6250 11261.4395
7024 42.5259 13057(115) 13967.2793 11255.3799
7025 42.5319 13232(115) 14120.7305 11249.3242
7026 42.5379 13457(117) 14275.0449 11243.2646
7027 42.5439 13577(117) 14428.5312 11237.2051
7028 42.5499 13809(118) 14579.4863 11231.1455
7029 42.5559 13866(118) 14726.0303 11225.0869
7030 42.5619 14226(120) 14865.6680 11219.0273
7031 42.5679 13977(119) 14995.7129 11212.9678
7032 42.5739 14013(118) 15113.5508 11206.9121
7033 42.5799 14365(121) 15216.7021 11200.8525
7034 42.5859 14242(119) 15302.7363 11194.7939
7035 42.5919 14606(122) 15368.7852 11188.7344
7036 42.5979 14780(122) 15412.0830 11182.6748
7037 42.6039 14795(122) 15430.3496 11176.6152
7038 42.6099 14608(121) 15421.3906 11170.5557
7039 42.6159 15086(124) 15383.4082 11164.5010
7040 42.6219 14837(122) 15315.7148 11158.4414
7041 42.6279 15068(124) 15218.8711 11152.3818
7042 42.6339 14887(123) 15094.6621 11146.3223
7043 42.6399 14761(122) 14945.6230 11140.2627
7044 42.6459 15288(124) 14775.1523 11134.2041
7045 42.6519 14361(120) 14587.5010 11128.1445
7046 42.6579 14287(120) 14387.0625 11122.0850
7047 42.6639 14082(119) 14177.9893 11116.0293
7048 42.6699 13516(117) 13964.2559 11109.9697
7049 42.6759 13283(116) 13749.7051 11103.9111
7050 42.6819 13085(115) 13538.0898 11097.8516
7051 42.6879 12781(114) 13332.3398 11091.7920
7052 42.6939 12349(112) 13134.6768 11085.7324
7053 42.6999 12309(112) 12947.1797 11079.6729
7054 42.7059 12325(112) 12771.6543 11073.6182
7055 42.7119 12173(111) 12608.8232 11067.5586
7056 42.7179 12259(111) 12459.4346 11061.4990
7057 42.7239 12116(111) 12323.5645 11055.4395
7058 42.7299 11834(109) 12201.2666 11049.3799
7059 42.7359 11991(110) 12092.4004 11043.3213
7060 42.7419 11842(109) 11996.3984 11037.2617
7061 42.7479 11875(110) 11912.6162 11031.2061
7062 42.7539 11926(110) 11840.3037 11025.1465
7063 42.7599 11835(109) 11774.3770 11019.0869
7064 42.7659 11911(110) 11723.1152 11013.0273
7065 42.7719 11637(108) 11681.3193 11006.9688
7066 42.7779 11589(108) 11648.0283 11000.9092
7067 42.7839 11625(108) 11623.3965 10994.8496
7068 42.7899 11671(109) 11609.8301 10988.7900
7069 42.7959 11739(109) 11600.9561 10982.7344
7070 42.8019 11711(109) 11599.6602 10976.6758
7071 42.8079 11725(109) 11605.9355 10970.6162
7072 42.8139 11781(109) 11618.8340 10964.5566
7073 42.8199 11762(109) 11640.7031 10958.4971
7074 42.8259 11711(109) 11670.7881 10952.4375
7075 42.8319 11832(109) 11709.4395 10946.3789
7076 42.8379 11692(108) 11757.0020 10940.3232
7077 42.8439 11651(108) 11808.6074 10934.2637
7078 42.8499 11755(109) 11875.3008 10928.2041
7079 42.8559 11932(110) 11952.0215 10922.1445
7080 42.8619 12121(111) 12038.9346 10916.0859
7081 42.8679 12092(111) 12135.9590 10910.0264
7082 42.8739 12335(112) 12242.8672 10903.9668
7083 42.8799 12358(112) 12359.2881 10897.9072
7084 42.8859 12450(112) 12487.7705 10891.8516
7085 42.8919 12514(112) 12620.6113 10885.7930
7086 42.8979 12621(113) 12759.5986 10879.7334
7087 42.9039 12801(114) 12903.0176 10873.6738
7088 42.9099 13062(115) 13049.0488 10867.6143
7089 42.9159 13154(115) 13195.4238 10861.5547
7090 42.9219 13166(115) 13339.4053 10855.4961
7091 42.9279 13882(119) 13478.2197 10849.4404
7092 42.9339 13774(118) 13606.5488 10843.3809
7093 42.9399 14117(119) 13725.9961 10837.3213
7094 42.9459 14214(120) 13830.7900 10831.2617
7095 42.9519 14288(120) 13917.4473 10825.2031
7096 42.9579 14193(119) 13983.0449 10819.1436
7097 42.9639 14402(121) 14028.9727 10813.0840
7098 42.9699 14370(121) 14045.7988 10807.0283
7099 42.9759 14342(120) 14036.3398 10800.9688
7100 42.9819 14177(120) 14000.4980 10794.9102
7101 42.9879 13956(119) 13939.3682 10788.8506
7102 42.9939 14003(119) 13854.8584 10782.7910
7103 42.9999 13502(117) 13749.6758 10776.7314
7104 43.0059 13482(117) 13627.3672 10770.6719
7105 43.0119 13196(115) 13491.7959 10764.6133
7106 43.0179 12949(114) 13344.8164 10758.5576
7107 43.0239 12534(112) 13196.2646 10752.4980
7108 43.0299 12249(111) 13043.2949 10746.4385
7109 43.0359 12233(112) 12891.2900 10740.3789
7110 43.0419 12042(111) 12742.8389 10734.3193
7111 43.0479 11864(110) 12599.9775 10728.2607
7112 43.0539 11732(109) 12464.5488 10722.2012
7113 43.0599 11991(110) 12338.2129 10716.1455
7114 43.0659 11873(110) 12221.8496 10710.0859
7115 43.0719 11983(110) 12116.3682 10704.0264
7116 43.0779 11563(108) 12018.2012 10697.9678
7117 43.0839 11613(108) 11935.4922 10691.9082
7118 43.0899 11503(108) 11864.2490 10685.8486
7119 43.0959 11843(109) 11845.7100 10721.3936
7120 43.1019 11628(108) 11839.1650 10756.9170
7121 43.1079 11814(109) 11840.7949 10792.4619
7122 43.1139 11821(109) 11851.1484 10828.0078
7123 43.1199 11586(108) 11869.1592 10863.5527
7124 43.1259 11615(108) 11893.6328 10899.0986
7125 43.1319 11559(107) 11925.2666 10934.6436
7126 43.1379 11981(110) 11958.6836 10970.1895
7127 43.1439 11944(110) 11991.7861 11005.7344
7128 43.1499 11967(110) 12028.7510 11041.2578
7129 43.1559 11949(110) 12065.6299 11076.8027
7130 43.1619 11916(110) 12101.3770 11112.3486
7131 43.1679 12063(110) 12135.2129 11147.8936
7132 43.1739 11993(110) 12165.1523 11183.4395
7133 43.1799 11915(110) 12194.6865 11218.9844
7134 43.1859 12026(110) 12221.7080 11254.5303
7135 43.1919 11880(110) 12247.1094 11290.0527
7136 43.1979 11806(109) 12271.6533 11325.5977
7137 43.2039 11613(108) 12296.2812 11361.1436
7138 43.2099 12061(110) 12282.7090 11357.4102
7139 43.2159 11858(109) 12269.6006 11353.6768
7140 43.2219 11919(110) 12261.3965 11349.9434
7141 43.2279 12046(110) 12257.4766 11346.2100
7142 43.2339 11866(109) 12259.3701 11342.4795
7143 43.2399 11832(109) 12268.1670 11338.7461
7144 43.2459 11946(110) 12285.0664 11335.0127
7145 43.2519 11824(109) 12311.3154 11331.2793
7146 43.2579 11898(109) 12348.2402 11327.5459
7147 43.2639 12157(111) 12397.1396 11323.8125
7148 43.2699 12123(110) 12459.1709 11320.0791
7149 43.2759 12249(111) 12535.4209 11316.3467
7150 43.2819 12596(113) 12626.9639 11312.6152
7151 43.2879 12581(113) 12734.8799 11308.8818
7152 43.2939 12451(112) 12860.0371 11305.1484
7153 43.2999 12588(113) 13002.9629 11301.4150
7154 43.3059 12981(115) 13163.8633 11297.6816
7155 43.3119 13076(115) 13342.9326 11293.9492
7156 43.3179 13182(115) 13540.1621 11290.2158
7157 43.3239 13774(118) 13754.6211 11286.4844
7158 43.3299 14118(119) 13985.7754 11282.7510
7159 43.3359 14438(121) 14231.8711 11279.0176
7160 43.3419 14976(123) 14491.1895 11275.2842
7161 43.3479 15385(125) 14761.4629 11271.5508
7162 43.3539 16008(127) 15039.8027 11267.8184
7163 43.3599 16255(128) 15322.5967 11264.0850
7164 43.3659 16838(130) 15606.0840 11260.3535
7165 43.3719 17416(133) 15886.4170 11256.6201
7166 43.3779 17575(133) 16159.7402 11252.8867
7167 43.3839 18152(136) 16422.3594 11249.1533
7168 43.3899 18428(137) 16671.2773 11245.4209
7169 43.3959 18128(136) 16904.5859 11241.6875
7170 43.4019 18307(136) 17121.6836 11237.9541
7171 43.4079 18332(136) 17323.1211 11234.2207
7172 43.4139 18345(136) 17510.2227 11230.4893
7173 43.4199 18134(135) 17686.3047 11226.7559
7174 43.4259 17826(134) 17852.0234 11223.0234
7175 43.4319 17657(134) 18010.6133 11219.2900
7176 43.4379 17305(132) 18164.8359 11215.5566
7177 43.4439 17626(134) 18318.1230 11211.8232
7178 43.4499 17482(133) 18470.0391 11208.0898
7179 43.4559 17586(133) 18621.5820 11204.3584
7180 43.4619 18035(135) 18772.2930 11200.6260
7181 43.4679 18496(137) 18919.8105 11196.8926
7182 43.4739 18305(136) 19060.8438 11193.1592
7183 43.4799 18899(138) 19189.9785 11189.4258
7184 43.4859 19534(140) 19300.2305 11185.6924
7185 43.4919 19603(141) 19384.9453 11181.9590
7186 43.4979 20093(143) 19437.3203 11178.2285
7187 43.5039 19909(142) 19449.5508 11174.4951
7188 43.5099 20075(143) 19418.8730 11170.7617
7189 43.5159 20001(142) 19340.0625 11167.0283
7190 43.5219 19541(141) 19211.6289 11163.2949
7191 43.5279 19243(139) 19034.0195 11159.5615
7192 43.5339 18844(138) 18809.0156 11155.8281
7193 43.5399 18198(135) 18539.9336 11152.0947
7194 43.5459 17705(134) 18231.9648 11148.3643
7195 43.5519 16926(130) 17894.2012 11144.6309
7196 43.5579 16695(130) 17524.8301 11140.8975
7197 43.5639 16095(127) 17138.6641 11137.1641
7198 43.5699 15536(125) 16741.3047 11133.4307
7199 43.5759 15339(124) 16339.8789 11129.6973
7200 43.5819 14728(122) 15940.8457 11125.9639
7201 43.5879 14134(119) 15550.5117 11122.2334
7202 43.5939 14125(119) 15173.1709 11118.5000
7203 43.5999 13718(118) 14811.8506 11114.7666
7204 43.6059 13431(116) 14477.0840 11111.0332
7205 43.6119 13279(116) 14160.7734 11107.2998
7206 43.6179 13081(115) 13865.7012 11103.5664
7207 43.6239 12885(114) 13599.6523 11099.8330
7208 43.6299 12935(114) 13359.4609 11096.0996
7209 43.6359 12845(114) 13145.0518 11092.3691
7210 43.6419 12518(112) 12955.6494 11088.6357
7211 43.6479 12345(112) 12789.7637 11084.9023
7212 43.6539 12195(110) 12648.2510 11081.1689
7213 43.6599 12371(112) 12528.9043 11077.4355
7214 43.6659 12046(110) 12430.4287 11073.7021
7215 43.6719 11985(110) 12351.7100 11069.9688
7216 43.6779 11985(110) 12291.5742 11066.2383
7217 43.6839 11974(109) 12248.8320 11062.5049
7218 43.6899 12152(111) 12222.3848 11058.7715
7219 43.6959 12175(111) 12211.2891 11055.0381
7220 43.7019 12138(111) 12214.7939 11051.3047
7221 43.7079 12069(110) 12232.0664 11047.5713
7222 43.7139 12011(110) 12262.2441 11043.8389
7223 43.7199 12132(111) 12304.6943 11040.1074
7224 43.7259 12060(110) 12358.6650 11036.3740
7225 43.7319 12316(111) 12423.5586 11032.6406
7226 43.7379 12736(113) 12498.4609 11028.9072
7227 43.7439 12646(113) 12582.3584 11025.1738
7228 43.7499 12591(113) 12674.3574 11021.4414
7229 43.7559 12646(113) 12773.4668 11017.7080
7230 43.7619 12874(114) 12878.2412 11013.9746
7231 43.7679 13385(116) 12987.0332 11010.2432
7232 43.7739 13601(117) 13098.2871 11006.5098
7233 43.7799 13694(117) 13210.1377 11002.7764
7234 43.7859 13781(118) 13320.6992 10999.0439
7235 43.7919 14103(119) 13427.7588 10995.3105
7236 43.7979 14410(121) 13529.2070 10991.5771
7237 43.8039 14319(120) 13623.5439 10987.8438
7238 43.8099 14299(120) 13709.6230 10984.1123
7239 43.8159 14517(121) 13787.1172 10980.3789
7240 43.8219 14000(118) 13856.2578 10976.6465
7241 43.8279 13968(119) 13918.1270 10972.9131
7242 43.8339 13730(117) 13975.7139 10969.1797
7243 43.8399 13723(118) 14028.8213 10965.4463
7244 43.8459 13693(118) 14080.6553 10961.7129
7245 43.8519 13471(116) 14133.1973 10957.9814
7246 43.8579 13567(117) 14188.0996 10954.2480
7247 43.8639 13592(117) 14246.5410 10950.5156
7248 43.8699 13778(118) 14309.0312 10946.7822
7249 43.8759 13986(119) 14375.3818 10943.0488
7250 43.8819 14222(120) 14444.9570 10939.3154
7251 43.8879 14488(121) 14516.6523 10935.5820
7252 43.8939 14594(121) 14588.7637 10931.8486
7253 43.8999 14828(122) 14659.3301 10928.1182
7254 43.9059 14997(123) 14726.6270 10924.3848
7255 43.9119 15112(123) 14788.6689 10920.6514
7256 43.9179 14899(123) 14845.7520 10916.9180
7257 43.9239 14846(122) 14896.7031 10913.1846
7258 43.9299 15243(124) 14941.5654 10909.4512
7259 43.9359 14698(121) 14981.0869 10905.7178
7260 43.9419 15002(123) 15015.8027 10901.9873
7261 43.9479 15260(124) 15046.1562 10898.2539
7262 43.9539 14950(122) 15071.9492 10894.5205
7263 43.9599 15284(124) 15090.3809 10890.7871
7264 43.9659 15230(124) 15105.4668 10887.0537
7265 43.9719 15372(125) 15113.3418 10883.3203
7266 43.9779 15523(125) 15112.4648 10879.5869
7267 43.9839 15373(124) 15101.6436 10875.8564
7268 43.9899 15437(125) 15077.1836 10872.1230
7269 43.9959 14952(123) 15044.6104 10868.3896
7270 44.0019 14862(122) 15001.4854 10864.6562
7271 44.0079 14978(123) 14948.9365 10860.9229
7272 44.0139 14579(121) 14888.6484 10857.1895
7273 44.0199 14476(121) 14822.2666 10853.4561
7274 44.0259 14607(121) 14751.3535 10849.7227
7275 44.0319 14487(121) 14677.5352 10845.9922
7276 44.0379 14461(120) 14601.7939 10842.2588
7277 44.0439 14689(122) 14525.2949 10838.5254
7278 44.0499 14289(120) 14448.8076 10834.7920
7279 44.0559 14153(119) 14372.9062 10831.0586
7280 44.0619 14171(120) 14299.2607 10827.3252
7281 44.0679 13866(118) 14228.8320 10823.5918
7282 44.0739 13788(118) 14162.7383 10819.8613
7283 44.0799 13364(116) 14102.0654 10816.1279
7284 44.0859 13865(118) 14047.5410 10812.3945
7285 44.0919 13602(117) 13999.6143 10808.6611
7286 44.0979 13629(117) 13958.2256 10804.9277
7287 44.1039 13193(115) 13924.9248 10801.1943
7288 44.1099 13517(117) 13893.9932 10797.4609
7289 44.1159 13756(118) 13865.9834 10793.7305
7290 44.1219 13948(119) 13838.7451 10789.9971
7291 44.1279 13972(119) 13810.1318 10786.2637
7292 44.1339 14023(119) 13777.5732 10782.5303
7293 44.1399 13774(118) 13740.8750 10778.7969
7294 44.1459 14291(120) 13694.0342 10775.0645
7295 44.1519 14066(119) 13637.6084 10771.3311
7296 44.1579 13901(118) 13570.6240 10767.5977
7297 44.1639 13949(119) 13492.6426 10763.8662
7298 44.1699 13426(116) 13403.8467 10760.1328
7299 44.1759 13389(116) 13304.1309 10756.3994
7300 44.1819 13350(116) 13196.6074 10752.6660
7301 44.1879 13127(115) 13083.1553 10748.9336
7302 44.1939 12800(113) 12963.0723 10745.2002
7303 44.1999 12708(113) 12841.2422 10741.4668
7304 44.2059 12642(113) 12715.6465 10737.7354
7305 44.2119 12429(112) 12589.6152 10734.0020
7306 44.2179 12098(111) 12464.7441 10730.2686
7307 44.2239 11989(110) 12342.3496 10726.5361
7308 44.2299 11873(110) 12223.5381 10722.8027
7309 44.2359 11793(109) 12109.5068 10719.0693
7310 44.2419 11578(108) 12001.1738 10715.3359
7311 44.2479 11535(108) 11899.2012 10711.6045
7312 44.2539 11371(107) 11804.1064 10707.8711
7313 44.2599 11452(107) 11716.2891 10704.1387
7314 44.2659 11175(106) 11636.0801 10700.4053
7315 44.2719 11158(106) 11563.6992 10696.6719
7316 44.2779 11299(107) 11501.7744 10692.9385
7317 44.2839 10992(105) 11444.4502 10689.2051
7318 44.2899 11032(105) 11394.4980 10685.4717
7319 44.2959 11033(105) 11351.6836 10681.7402
7320 44.3019 11128(106) 11315.6826 10678.0078
7321 44.3079 11149(106) 11286.2383 10674.2744
7322 44.3139 11073(106) 11263.0586 10670.5410
7323 44.3199 11119(106) 11245.9053 10666.8076
7324 44.3259 11076(106) 11234.5391 10663.0742
7325 44.3319 11099(106) 11228.7178 10659.3408
7326 44.3379 10902(104) 11228.2637 10655.6104
7327 44.3439 10973(105) 11233.0039 10651.8770
7328 44.3499 10910(105) 11242.8145 10648.1436
7329 44.3559 10918(105) 11257.5654 10644.4102
7330 44.3619 10711(104) 11277.1162 10640.6768
7331 44.3679 10972(105) 11301.3887 10636.9434
7332 44.3739 10928(105) 11330.2178 10633.2100
7333 44.3799 10848(104) 11363.5020 10629.4766
7334 44.3859 10808(104) 11401.0566 10625.7461
7335 44.3919 11195(106) 11442.7686 10622.0127
7336 44.3979 11147(106) 11488.3828 10618.2793
7337 44.4039 11122(106) 11537.7412 10614.5459
7338 44.4099 11238(106) 11585.6279 10610.8125
7339 44.4159 11221(106) 11641.4688 10607.0791
7340 44.4219 11254(106) 11699.9043 10603.3457
7341 44.4279 11318(107) 11760.4131 10599.6152
7342 44.4339 11627(108) 11822.4746 10595.8818
7343 44.4399 11961(110) 11886.5439 10592.1484
7344 44.4459 11772(109) 11947.1543 10588.4150
7345 44.4519 11562(107) 12010.2559 10584.6816
7346 44.4579 11761(108) 12072.6680 10580.9482
7347 44.4639 11860(109) 12134.1211 10577.2148
7348 44.4699 12104(110) 12194.5303 10573.4844
7349 44.4759 12216(111) 12254.2959 10569.7510
7350 44.4819 12198(111) 12314.0117 10566.0176
7351 44.4879 12070(110) 12374.7588 10562.2842
7352 44.4939 12255(111) 12437.8213 10558.5508
7353 44.4999 12201(111) 12504.5879 10554.8174
7354 44.5059 12267(111) 12576.6748 10551.0840
7355 44.5119 12268(111) 12655.8193 10547.3516
7356 44.5179 12288(112) 12740.5195 10543.6201
7357 44.5239 12353(111) 12837.6660 10539.8867
7358 44.5299 12650(113) 12942.0068 10536.1533
7359 44.5359 12629(112) 13059.9756 10532.4199
7360 44.5419 12985(114) 13188.6055 10528.6865
7361 44.5479 13089(115) 13327.1445 10524.9531
7362 44.5539 13257(115) 13474.0615 10521.2207
7363 44.5599 13813(118) 13622.6729 10517.4893
7364 44.5659 13846(118) 13780.2285 10513.7559
7365 44.5719 14260(120) 13938.9404 10510.0225
7366 44.5779 14517(121) 14095.3105 10506.2891
7367 44.5839 14728(122) 14245.2910 10502.5566
7368 44.5899 15067(123) 14384.9170 10498.8232
7369 44.5959 15448(125) 14510.6367 10495.0898
7370 44.6019 15376(124) 14618.9297 10491.3584
7371 44.6079 15358(124) 14707.2773 10487.6250
7372 44.6139 15501(125) 14773.1719 10483.8916
7373 44.6199 15557(125) 14814.6660 10480.1582
7374 44.6259 15474(124) 14830.4453 10476.4258
7375 44.6319 15492(125) 14819.5957 10472.6924
7376 44.6379 15327(124) 14782.2461 10468.9590
7377 44.6439 15285(124) 14716.1230 10465.2256
7378 44.6499 15188(123) 14622.5293 10461.4941
7379 44.6559 14728(122) 14502.4023 10457.7607
7380 44.6619 14421(120) 14357.8564 10454.0283
7381 44.6679 14384(120) 14191.9170 10450.2949
7382 44.6739 13698(117) 14008.2656 10446.5615
7383 44.6799 13673(117) 13810.8340 10442.8281
7384 44.6859 13051(114) 13603.8965 10439.0947
7385 44.6919 12911(114) 13392.1074 10435.3633
7386 44.6979 12422(112) 13178.9512 10431.6309
7387 44.7039 12298(111) 12968.2598 10427.8975
7388 44.7099 11946(110) 12762.8154 10424.1641
7389 44.7159 11870(109) 12565.0723 10420.4307
7390 44.7219 11670(108) 12377.3555 10416.6973
7391 44.7279 11529(108) 12201.3418 10412.9639
7392 44.7339 11356(107) 12038.0527 10409.2324
7393 44.7399 11381(107) 11888.2783 10405.5000
7394 44.7459 11509(108) 11752.4453 10401.7666
7395 44.7519 11306(107) 11630.9658 10398.0332
7396 44.7579 11259(106) 11523.8691 10394.2998
7397 44.7639 11076(106) 11430.7217 10390.5664
7398 44.7699 11142(106) 11351.0469 10386.8330
7399 44.7759 11033(105) 11284.4160 10383.0996
7400 44.7819 10842(104) 11230.1338 10379.3691
7401 44.7879 11199(106) 11187.3682 10375.6357
7402 44.7939 11364(107) 11155.1963 10371.9023
7403 44.7999 10641(103) 11132.7080 10368.1689
7404 44.8059 10637(103) 11119.0674 10364.4355
7405 44.8119 10782(103) 11116.0527 10363.4600
7406 44.8179 10763(104) 11119.8262 10362.4844
7407 44.8239 10970(105) 11129.4346 10361.5098
7408 44.8299 11128(106) 11143.8262 10360.5342
7409 44.8359 10794(104) 11162.0469 10359.5586
7410 44.8419 11219(106) 11179.9834 10358.5830
7411 44.8479 11093(105) 11202.5557 10357.6074
7412 44.8539 11334(107) 11225.5908 10356.6328
7413 44.8599 11334(107) 11248.0264 10355.6572
7414 44.8659 11454(107) 11268.6484 10354.6816
7415 44.8719 11594(108) 11286.4170 10353.7070
7416 44.8779 11703(108) 11300.2578 10352.7314
7417 44.8839 11514(107) 11309.3516 10351.7559
7418 44.8899 11749(109) 11313.1279 10350.7803
7419 44.8959 11740(109) 11311.2090 10349.8047
7420 44.9019 11603(108) 11303.8311 10348.8291
7421 44.9079 11569(108) 11290.9141 10347.8535
7422 44.9139 11412(107) 11273.2461 10346.8789
7423 44.9199 11181(106) 11251.5566 10345.9033
7424 44.9259 11416(107) 11226.7490 10344.9277
7425 44.9319 11182(106) 11199.7646 10343.9521
7426 44.9379 11155(106) 11171.4590 10342.9766
7427 44.9439 11162(106) 11139.1826 10342.0020
7428 44.9499 11170(106) 11110.6338 10341.0264
7429 44.9559 10787(104) 11083.0518 10340.0508
7430 44.9619 11145(106) 11057.0029 10339.0762
7431 44.9679 10913(104) 11033.0020 10338.1006
7432 44.9739 10814(104) 11011.4766 10337.1250
7433 44.9799 11101(106) 10992.8760 10336.1494
7434 44.9859 11013(105) 10977.5928 10335.1738
7435 44.9919 11134(106) 10965.9951 10334.1982
7436 44.9979 11162(106) 10959.5098 10333.2236
7437 45.0039 10960(105) 10955.9912 10332.2480
7438 45.0099 11150(106) 10957.1855 10331.2725
7439 45.0159 10905(104) 10963.1230 10330.2969
7440 45.0219 10875(104) 10970.6133 10329.3213
7441 45.0279 10963(105) 10987.5020 10328.3457
7442 45.0339 10878(104) 11010.4873 10327.3711
7443 45.0399 10793(103) 11040.0811 10326.3955
7444 45.0459 11050(105) 11076.7676 10325.4199
7445 45.0519 11111(105) 11121.1484 10324.4453
7446 45.0579 11183(106) 11173.7090 10323.4697
7447 45.0639 11261(106) 11234.9521 10322.4941
7448 45.0699 11163(106) 11305.3799 10321.5186
7449 45.0759 11360(107) 11385.4238 10320.5430
7450 45.0819 11463(107) 11475.9580 10319.5674
7451 45.0879 11489(107) 11573.7061 10318.5928
7452 45.0939 11838(109) 11683.7607 10317.6172
7453 45.0999 11981(110) 11803.7842 10316.6416
7454 45.1059 11898(109) 11933.4268 10315.6660
7455 45.1119 12100(110) 12072.0869 10314.6904
7456 45.1179 12661(113) 12218.9561 10313.7148
7457 45.1239 12654(112) 12372.9326 10312.7402
7458 45.1299 12804(113) 12532.5713 10311.7646
7459 45.1359 13310(116) 12696.0566 10310.7891
7460 45.1419 13553(116) 12861.5820 10309.8145
7461 45.1479 13513(116) 13026.9785 10308.8389
7462 45.1539 13435(115) 13189.8613 10307.8633
7463 45.1599 13827(117) 13347.7363 10306.8877
7464 45.1659 13891(117) 13498.4922 10305.9121
7465 45.1719 14161(119) 13640.3711 10304.9365
7466 45.1779 14223(119) 13769.8838 10303.9619
7467 45.1839 14068(118) 13889.2168 10302.9863
7468 45.1899 14371(120) 13995.5332 10302.0107
7469 45.1959 14178(119) 14088.5352 10301.0352
7470 45.2019 14326(120) 14166.2988 10300.0596
7471 45.2079 14311(120) 14232.7002 10299.0840
7472 45.2139 14210(119) 14285.8467 10298.1094
7473 45.2199 14048(119) 14326.6211 10297.1338
7474 45.2259 14267(119) 14355.4980 10296.1582
7475 45.2319 14083(118) 14373.4004 10295.1836
7476 45.2379 14455(120) 14380.6426 10294.2080
7477 45.2439 14335(120) 14377.4766 10293.2324
7478 45.2499 14170(119) 14364.4082 10292.2568
7479 45.2559 14454(120) 14341.4922 10291.2812
7480 45.2619 14292(120) 14309.8896 10290.3057
7481 45.2679 14110(118) 14269.3945 10289.3311
7482 45.2739 14319(119) 14221.0547 10288.3555
7483 45.2799 14186(118) 14166.0566 10287.3799
7484 45.2859 14131(119) 14105.6875 10286.4043
7485 45.2919 13769(117) 14041.1719 10285.4287
7486 45.2979 14092(119) 13973.6514 10284.4541
7487 45.3039 13776(117) 13903.9736 10283.4785
7488 45.3099 13709(117) 13832.6367 10282.5029
7489 45.3159 13915(118) 13759.3398 10281.5273
7490 45.3219 13663(117) 13683.6777 10280.5527
7491 45.3279 13909(118) 13604.8184 10279.5771
7492 45.3339 13829(117) 13521.6152 10278.6016
7493 45.3399 13898(117) 13432.8340 10277.6260
7494 45.3459 13879(118) 13337.5869 10276.6504
7495 45.3519 13583(116) 13235.4717 10275.6758
7496 45.3579 13761(118) 13126.3955 10274.7002
7497 45.3639 13185(114) 13011.0176 10273.7246
7498 45.3699 12878(113) 12890.4023 10272.7490
7499 45.3759 12673(112) 12766.3369 10271.7734
7500 45.3819 12486(111) 12642.5605 10270.7979
7501 45.3879 12318(110) 12520.0381 10269.8232
7502 45.3939 11949(109) 12397.5625 10268.8477
7503 45.3999 11915(109) 12279.6016 10267.8721
7504 45.4059 11661(108) 12168.5508 10266.8975
7505 45.4119 11605(107) 12064.0166 10265.9219
7506 45.4179 11490(107) 11968.0518 10264.9463
7507 45.4239 11488(107) 11881.3965 10263.9707
7508 45.4299 11479(107) 11807.3359 10262.9951
7509 45.4359 11754(108) 11741.8096 10262.0195
7510 45.4419 11694(108) 11687.2559 10261.0449
7511 45.4479 11485(107) 11643.7783 10260.0693
7512 45.4539 11363(106) 11611.2207 10259.0938
7513 45.4599 11266(105) 11589.3926 10258.1182
7514 45.4659 11539(107) 11577.8408 10257.1426
7515 45.4719 11749(108) 11575.8926 10256.1670
7516 45.4779 11602(107) 11582.7227 10255.1924
7517 45.4839 11610(107) 11597.4297 10254.2168
7518 45.4899 11780(108) 11619.1123 10253.2412
7519 45.4959 11950(109) 11646.2646 10252.2666
7520 45.5019 11609(107) 11677.8506 10251.2910
7521 45.5079 11583(107) 11712.6895 10250.3154
7522 45.5139 11911(109) 11748.8916 10249.3398
7523 45.5199 11916(108) 11787.1816 10248.3643
7524 45.5259 11746(108) 11825.9385 10247.3887
7525 45.5319 11766(108) 11864.5010 10246.4141
7526 45.5379 11646(107) 11901.5342 10245.4385
7527 45.5439 11730(108) 11938.3008 10244.4629
7528 45.5499 12062(110) 11973.5781 10243.4873
7529 45.5559 12040(110) 12006.5410 10242.5117
7530 45.5619 11822(108) 12036.5527 10241.5361
7531 45.5679 11906(109) 12062.7969 10240.5615
7532 45.5739 11878(108) 12084.2939 10239.5859
7533 45.5799 11872(109) 12100.0205 10238.6104
7534 45.5859 12361(111) 12108.8984 10237.6357
7535 45.5919 12220(110) 12109.9668 10236.6602
7536 45.5979 11946(109) 12102.5908 10235.6846
7537 45.6039 12326(111) 12086.4688 10234.7090
7538 45.6099 12014(109) 12061.7275 10233.7334
7539 45.6159 11798(108) 12028.8711 10232.7588
7540 45.6219 11841(108) 11988.8066 10231.7832
7541 45.6279 11789(108) 11942.8154 10230.8076
7542 45.6339 11854(108) 11892.3252 10229.8320
7543 45.6399 11318(106) 11838.7402 10228.8564
7544 45.6459 11311(106) 11783.3740 10227.8809
7545 45.6519 11177(105) 11724.0918 10226.9053
7546 45.6579 11076(105) 11668.9082 10225.9307
7547 45.6639 11205(105) 11616.1250 10224.9551
7548 45.6699 11236(106) 11564.2734 10223.9795
7549 45.6759 11057(104) 11516.2129 10223.0049
7550 45.6819 11395(107) 11469.0322 10222.0293
7551 45.6879 11037(104) 11424.2461 10221.0537
7552 45.6939 11428(107) 11381.5146 10220.0781
7553 45.6999 11234(106) 11340.3652 10219.1025
7554 45.7059 11574(107) 11296.0713 10218.1279
7555 45.7119 11202(105) 11260.2266 10217.1523
7556 45.7179 11288(106) 11220.8691 10216.1768
7557 45.7239 11136(105) 11181.0908 10215.2012
7558 45.7299 11040(104) 11140.5781 10214.2256
7559 45.7359 11129(105) 11099.2373 10213.2500
7560 45.7419 10884(104) 11057.1172 10212.2744
7561 45.7479 10716(103) 11014.4404 10211.2998
7562 45.7539 10650(103) 10971.4443 10210.3242
7563 45.7599 10737(103) 10928.5430 10209.3486
7564 45.7659 10492(102) 10886.1006 10208.3740
7565 45.7719 10476(102) 10844.4570 10207.3984
7566 45.7779 10652(103) 10803.9736 10206.4229
7567 45.7839 10820(104) 10764.9854 10205.4473
7568 45.7899 10472(102) 10727.7305 10204.4717
7569 45.7959 10551(102) 10692.4355 10203.4971
7570 45.8019 10497(102) 10659.2422 10202.5215
7571 45.8079 10170(100) 10628.3350 10201.5459
7572 45.8139 10488(102) 10606.3047 10206.9287
7573 45.8199 10617(103) 10586.6553 10212.3115
7574 45.8259 10623(103) 10569.5049 10217.6953
7575 45.8319 10454(102) 10554.8955 10223.0781
7576 45.8379 10596(103) 10542.8359 10228.4570
7577 45.8439 10444(102) 10533.2773 10233.8408
7578 45.8499 10633(103) 10526.1631 10239.2236
7579 45.8559 10425(102) 10522.6074 10244.6064
7580 45.8619 10424(101) 10520.2119 10249.9893
7581 45.8679 10422(101) 10520.0645 10255.3721
7582 45.8739 10551(102) 10522.0811 10260.7549
7583 45.8799 10462(102) 10526.1777 10266.1387
7584 45.8859 10695(103) 10532.2822 10271.5176
7585 45.8919 10486(102) 10542.0088 10276.9004
7586 45.8979 10772(103) 10551.9775 10282.2842
7587 45.9039 10722(103) 10563.8799 10287.6670
7588 45.9099 10577(102) 10577.5361 10293.0498
7589 45.9159 10850(104) 10592.9961 10298.4326
7590 45.9219 10402(101) 10610.2549 10303.8154
7591 45.9279 10461(102) 10629.3262 10309.1953
7592 45.9339 10594(103) 10650.2510 10314.5781
7593 45.9399 10821(103) 10673.0566 10319.9609
7594 45.9459 10560(102) 10697.7588 10325.3438
7595 45.9519 11146(105) 10723.2539 10330.7275
7596 45.9579 10696(103) 10751.9121 10336.1104
7597 45.9639 10611(102) 10784.2617 10341.4932
7598 45.9699 10785(103) 10813.1523 10343.0654
7599 45.9759 10778(103) 10844.0889 10344.6387
7600 45.9819 11109(105) 10877.0557 10346.2119
7601 45.9879 10830(103) 10912.0850 10347.7842
7602 45.9939 10866(104) 10949.1377 10349.3574
7603 45.9999 10822(103) 10988.1416 10350.9307
7604 46.0059 10892(104) 11029.0947 10352.5039
7605 46.0119 10936(104) 11071.9775 10354.0771
7606 46.0179 10947(104) 11116.5635 10355.6494
7607 46.0239 11016(104) 11162.7930 10357.2227
7608 46.0299 11291(106) 11210.3018 10358.7959
7609 46.0359 11171(105) 11258.7383 10360.3682
7610 46.0419 11145(105) 11307.6992 10361.9414
7611 46.0479 11413(106) 11358.2930 10363.5146
7612 46.0539 11438(106) 11406.1816 10365.0879
7613 46.0599 11625(107) 11452.3379 10366.6602
7614 46.0659 11927(108) 11495.8076 10368.2334
7615 46.0719 11634(107) 11535.7158 10369.8066
7616 46.0779 11924(109) 11570.9824 10371.3789
7617 46.0839 11986(109) 11600.7305 10372.9521
7618 46.0899 11780(108) 11624.3066 10374.5254
7619 46.0959 11495(106) 11641.1289 10376.0986
7620 46.1019 11919(108) 11651.1982 10377.6709
7621 46.1079 11610(107) 11654.5352 10379.2441
7622 46.1139 11625(107) 11654.2480 10380.8174
7623 46.1199 11672(108) 11645.5693 10382.3906
7624 46.1259 11571(107) 11631.7559 10383.9629
7625 46.1319 11551(107) 11613.5244 10385.5361
7626 46.1379 11511(107) 11591.6123 10387.1094
7627 46.1439 11596(107) 11566.5703 10388.6826
7628 46.1499 11315(106) 11538.8496 10390.2549
7629 46.1559 11302(106) 11508.8096 10391.8281
7630 46.1619 11073(104) 11476.7168 10393.4014
7631 46.1679 11409(106) 11442.9082 10394.9736
7632 46.1739 11721(108) 11407.5820 10396.5469
7633 46.1799 11325(105) 11370.9385 10398.1201
7634 46.1859 11244(105) 11333.3447 10399.6934
7635 46.1919 11352(106) 11295.2490 10401.2656
7636 46.1979 11448(107) 11257.0439 10402.8389
7637 46.2039 11093(105) 11219.2100 10404.4121
7638 46.2099 11035(105) 11182.3672 10405.9844
7639 46.2159 10936(104) 11146.7188 10407.5576
7640 46.2219 11037(104) 11115.2441 10409.1309
7641 46.2279 10840(103) 11083.6035 10410.7041
7642 46.2339 10861(104) 11054.4854 10412.2764
7643 46.2399 10944(104) 11025.9258 10413.8496
7644 46.2459 10869(103) 11002.6484 10415.4229
7645 46.2519 10884(104) 10982.6240 10416.9961
7646 46.2579 10840(104) 10965.9912 10418.5684
7647 46.2639 10709(103) 10952.8193 10420.1416
7648 46.2699 10905(104) 10943.4688 10421.7148
7649 46.2759 10679(103) 10937.9570 10423.2881
7650 46.2819 10867(104) 10934.4004 10424.8604
7651 46.2879 11017(104) 10936.9629 10426.4336
7652 46.2939 11062(104) 10944.0967 10428.0068
7653 46.2999 10964(104) 10955.3691 10429.5801
7654 46.3059 11248(106) 10971.2871 10431.1523
7655 46.3119 10855(103) 10992.0879 10432.7256
7656 46.3179 10883(104) 11018.0654 10434.2988
7657 46.3239 10874(103) 11049.5283 10435.8711
7658 46.3299 11057(104) 11086.7500 10437.4443
7659 46.3359 10877(103) 11130.4316 10439.0176
7660 46.3419 11091(105) 11178.8682 10440.5908
7661 46.3479 10981(104) 11236.5967 10442.1631
7662 46.3539 11111(105) 11302.1641 10443.7363
7663 46.3599 11225(105) 11376.7100 10445.3096
7664 46.3659 11298(105) 11459.6338 10446.8818
7665 46.3719 11236(105) 11552.2031 10448.4551
7666 46.3779 11292(105) 11654.9736 10450.0283
7667 46.3839 11456(106) 11768.6045 10451.6016
7668 46.3899 11630(107) 11893.2471 10453.1738
7669 46.3959 11734(107) 12029.2002 10454.7471
7670 46.4019 11849(108) 12176.5908 10456.3203
7671 46.4079 12100(109) 12335.2793 10457.8936
7672 46.4139 12423(111) 12504.5879 10459.4658
7673 46.4199 12361(110) 12683.8984 10461.0391
7674 46.4259 12769(112) 12869.1465 10462.6123
7675 46.4319 12727(112) 13067.0039 10464.1855
7676 46.4379 13047(113) 13268.0059 10465.7578
7677 46.4439 13457(115) 13471.9707 10467.3311
7678 46.4499 13941(117) 13675.9902 10468.9043
7679 46.4559 14388(119) 13876.8525 10470.4766
7680 46.4619 14970(122) 14071.0889 10472.0498
7681 46.4679 15707(125) 14254.8320 10473.6230
7682 46.4739 15656(124) 14423.9443 10475.1963
7683 46.4799 16106(126) 14574.4004 10476.7686
7684 46.4859 16414(127) 14702.7812 10478.3418
7685 46.4919 16561(128) 14805.9600 10479.9150
7686 46.4979 16590(128) 14881.4336 10481.4873
7687 46.5039 16563(128) 14927.8721 10483.0605
7688 46.5099 16094(126) 14944.4160 10484.6338
7689 46.5159 15755(125) 14931.2666 10486.2070
7690 46.5219 16151(126) 14889.2744 10487.7803
7691 46.5279 15659(124) 14819.9180 10489.3525
7692 46.5339 14911(121) 14725.1445 10490.9258
7693 46.5399 15047(122) 14607.4180 10492.4990
7694 46.5459 14507(120) 14469.7529 10494.0713
7695 46.5519 14073(118) 14315.2188 10495.6445
7696 46.5579 13762(117) 14147.2539 10497.2178
7697 46.5639 13337(115) 13969.5645 10498.7910
7698 46.5699 13249(115) 13785.6338 10500.3633
7699 46.5759 12840(113) 13598.8564 10501.9365
7700 46.5819 12465(111) 13412.5635 10503.5098
7701 46.5879 12525(111) 13229.7637 10505.0820
7702 46.5939 12325(111) 13052.8516 10506.6553
7703 46.5999 12313(110) 12883.0459 10508.2285
7704 46.6059 11897(108) 12724.2812 10509.8018
7705 46.6119 11896(109) 12577.7998 10511.3750
7706 46.6179 11925(108) 12443.9551 10512.9473
7707 46.6239 11860(108) 12324.2139 10514.5205
7708 46.6299 11666(107) 12219.4121 10516.0938
7709 46.6359 11328(106) 12130.4092 10517.6660
7710 46.6419 11988(109) 12052.3623 10514.0537
7711 46.6479 11690(107) 11990.8564 10510.4414
7712 46.6539 12071(109) 11946.0156 10506.8291
7713 46.6599 11543(107) 11917.9609 10503.2168
7714 46.6659 11642(107) 11906.8242 10499.6045
7715 46.6719 11592(107) 11912.4902 10495.9922
7716 46.6779 11867(108) 11933.8799 10492.3818
7717 46.6839 11592(107) 11972.5654 10488.7695
7718 46.6899 11806(108) 12026.0537 10485.1572
7719 46.6959 11794(108) 12096.6680 10481.5449
7720 46.7019 12001(109) 12182.4082 10477.9326
7721 46.7079 12166(110) 12282.4131 10474.3203
7722 46.7139 12446(111) 12395.8887 10470.7080
7723 46.7199 12397(110) 12521.6426 10467.0977
7724 46.7259 12506(111) 12658.4785 10463.4854
7725 46.7319 13175(114) 12804.5312 10459.8730
7726 46.7379 13019(113) 12957.6895 10456.2607
7727 46.7439 13393(115) 13116.0000 10452.6484
7728 46.7499 13984(118) 13276.8223 10449.0361
7729 46.7559 14135(118) 13437.6250 10445.4238
7730 46.7619 14680(120) 13594.3955 10441.8115
7731 46.7679 14519(120) 13744.4961 10438.2021
7732 46.7739 14954(121) 13885.4590 10434.5898
7733 46.7799 15179(122) 14012.6943 10430.9775
7734 46.7859 15514(123) 14123.8525 10427.3652
7735 46.7919 15576(124) 14216.2246 10423.7529
7736 46.7979 15846(124) 14287.7910 10420.1406
7737 46.8039 16127(127) 14336.9824 10416.5283
7738 46.8099 16192(127) 14361.6953 10412.9180
7739 46.8159 16264(127) 14363.3535 10409.3057
7740 46.8219 15714(125) 14341.1953 10405.6934
7741 46.8279 15388(123) 14297.7676 10402.0811
7742 46.8339 15182(122) 14231.4014 10398.4688
7743 46.8399 14802(121) 14146.1396 10394.8564
7744 46.8459 14401(119) 14045.0654 10391.2441
7745 46.8519 14113(118) 13931.4941 10387.6338
7746 46.8579 13612(116) 13809.1309 10384.0215
7747 46.8639 13334(115) 13681.5654 10380.4092
7748 46.8699 13062(114) 13554.3857 10376.7969
7749 46.8759 13069(114) 13427.7129 10373.1846
7750 46.8819 12408(111) 13306.0869 10369.5723
7751 46.8879 12389(111) 13191.9717 10365.9600
7752 46.8939 12826(113) 13087.8633 10362.3477
7753 46.8999 12155(110) 12995.4629 10358.7373
7754 46.9059 12074(109) 12916.0205 10355.1250
7755 46.9119 11928(109) 12850.3066 10351.5127
7756 46.9179 12185(110) 12798.5879 10347.9004
7757 46.9239 12252(110) 12762.8604 10344.2881
7758 46.9299 12208(110) 12739.2510 10340.6758
7759 46.9359 12343(111) 12728.6250 10337.0635
7760 46.9419 12587(111) 12729.8516 10333.4531
7761 46.9479 13254(115) 12741.5674 10329.8408
7762 46.9539 12748(113) 12762.2236 10326.2285
7763 46.9599 12748(112) 12790.5410 10322.6162
7764 46.9659 13051(114) 12823.5713 10319.0039
7765 46.9719 13037(114) 12859.7773 10315.3916
7766 46.9779 13149(114) 12897.3174 10311.7793
7767 46.9839 12870(113) 12934.3906 10308.1699
7768 46.9899 13500(116) 12969.4395 10304.5576
7769 46.9959 13263(115) 13001.0713 10300.9453
7770 47.0019 13419(115) 13028.1895 10297.3330
7771 47.0079 13066(114) 13050.0859 10293.7207
7772 47.0139 13036(114) 13066.3604 10290.1084
7773 47.0199 12890(113) 13076.9531 10286.4961
7774 47.0259 12885(113) 13082.0645 10282.8838
7775 47.0319 12817(113) 13082.2793 10279.2734
7776 47.0379 12781(112) 13078.3027 10275.6611
7777 47.0439 13122(114) 13071.0410 10272.0488
7778 47.0499 12848(113) 13061.3633 10268.4365
7779 47.0559 13008(113) 13049.7188 10264.8242
7780 47.0619 12985(113) 13036.8896 10261.2119
7781 47.0679 12915(113) 13023.4805 10257.5996
7782 47.0739 12961(113) 13009.8203 10253.9893
7783 47.0799 12858(113) 12996.3213 10250.3770
7784 47.0859 12905(113) 12983.3604 10246.7646
7785 47.0919 12961(113) 12971.2529 10243.1523
7786 47.0979 12952(113) 12961.0693 10239.5400
7787 47.1039 13008(113) 12953.3447 10235.9277
7788 47.1099 12680(112) 12949.2422 10232.3154
7789 47.1159 12818(113) 12948.6387 10228.7051
7790 47.1219 12332(110) 12952.6621 10225.0928
7791 47.1279 12279(110) 12961.7676 10221.4805
7792 47.1339 12364(111) 12976.1777 10217.8682
7793 47.1399 12303(110) 12995.8594 10214.2559
7794 47.1459 12404(110) 13020.4189 10210.6436
7795 47.1519 12556(112) 13049.1445 10207.0312
7796 47.1579 12542(111) 13081.1221 10203.4189
7797 47.1639 12637(112) 13115.3340 10199.8086
7798 47.1699 13053(114) 13150.6191 10196.1973
7799 47.1759 12622(111) 13187.3145 10192.5840
7800 47.1819 12913(113) 13221.4668 10188.9717
7801 47.1879 13197(115) 13253.4512 10185.3594
7802 47.1939 13306(115) 13281.5518 10181.7471
7803 47.1999 13358(115) 13307.6992 10178.1348
7804 47.2059 13305(115) 13329.7402 10174.5254
7805 47.2119 13932(118) 13347.6318 10170.9131
7806 47.2179 13820(118) 13360.5156 10167.3008
7807 47.2239 13497(116) 13367.9707 10163.6885
7808 47.2299 13764(117) 13369.5029 10160.0762
7809 47.2359 13654(117) 13364.5479 10156.4639
7810 47.2419 14033(119) 13352.8682 10152.8516
7811 47.2479 13431(116) 13334.6416 10149.2412
7812 47.2539 13378(115) 13310.2783 10145.6289
7813 47.2599 13113(114) 13281.4648 10142.0166
7814 47.2659 13029(114) 13247.5615 10138.4043
7815 47.2719 13191(115) 13210.9043 10134.7920
7816 47.2779 12805(113) 13172.8320 10131.1797
7817 47.2839 12774(113) 13133.9658 10127.5674
7818 47.2899 12351(111) 13096.8340 10123.9551
7819 47.2959 13754(118) 13061.8164 10120.3447
7820 47.3019 12513(112) 13029.4893 10116.7324
7821 47.3079 12315(110) 13000.0527 10113.1201
7822 47.3139 12618(112) 12973.2637 10109.5078
7823 47.3199 12493(111) 12948.8975 10105.8955
7824 47.3259 12884(113) 12926.4150 10102.2832
7825 47.3319 12510(111) 12904.7080 10098.6709
7826 47.3379 12638(112) 12882.7744 10095.0605
7827 47.3439 12875(113) 12859.5410 10091.4482
7828 47.3499 12420(111) 12834.2314 10087.8359
7829 47.3559 12643(112) 12806.2578 10084.2236
7830 47.3619 12634(113) 12775.1582 10080.6113
7831 47.3679 12423(111) 12740.9775 10076.9990
7832 47.3739 12346(110) 12704.2773 10073.3867
7833 47.3799 12109(110) 12665.7129 10069.7744
7834 47.3859 12225(110) 12626.6348 10066.1650
7835 47.3919 12156(110) 12587.0918 10062.5527
7836 47.3979 12329(111) 12548.5625 10058.9395
7837 47.4039 12414(111) 12511.9541 10055.3281
7838 47.4099 11920(109) 12477.8779 10051.7148
7839 47.4159 11943(109) 12446.8730 10048.1025
7840 47.4219 11920(109) 12419.4004 10044.4902
7841 47.4279 12102(110) 12395.5791 10040.8809
7842 47.4339 11823(108) 12375.6338 10037.2686
7843 47.4399 12205(110) 12358.9785 10033.6562
7844 47.4459 11973(109) 12345.6172 10030.0439
7845 47.4519 11969(109) 12335.3701 10026.4316
7846 47.4579 11896(109) 12327.8076 10022.8193
7847 47.4639 11754(108) 12322.4297 10019.2070
7848 47.4699 11990(109) 12319.4561 10015.5967
7849 47.4759 11968(109) 12318.0840 10011.9844
7850 47.4819 11821(108) 12317.6865 10008.3721
7851 47.4879 11812(108) 12318.3164 10004.7598
7852 47.4939 11597(107) 12319.5996 10001.1475
7853 47.4999 12167(110) 12321.4326 9997.5352
7854 47.5059 12010(110) 12323.6367 9993.9229
7855 47.5119 12125(110) 12325.6953 9990.3105
7856 47.5179 12129(110) 12327.1689 9986.7002
7857 47.5239 12273(111) 12327.4199 9983.0879
7858 47.5299 12220(110) 12326.0557 9979.4756
7859 47.5359 12458(112) 12322.3008 9975.8633
7860 47.5419 12273(111) 12315.0596 9972.2510
7861 47.5479 12656(112) 12303.2334 9968.6387
7862 47.5539 12734(113) 12285.9248 9965.0264
7863 47.5599 12725(113) 12262.0859 9961.4160
7864 47.5659 13007(114) 12230.8086 9957.8037
7865 47.5719 12453(112) 12191.3682 9954.1914
7866 47.5779 12595(112) 12143.4619 9950.5791
7867 47.5839 12334(111) 12087.2656 9946.9668
7868 47.5899 12209(110) 12023.2559 9943.3545
7869 47.5959 12133(110) 11952.2666 9939.7422
7870 47.6019 11814(108) 11873.9297 9936.1328
7871 47.6079 11504(107) 11790.4395 9932.5205
7872 47.6139 11558(107) 11706.2725 9928.9082
7873 47.6199 11344(106) 11620.4961 9925.2959
7874 47.6259 11621(108) 11533.6211 9921.6836
7875 47.6319 11191(106) 11448.2441 9918.0703
7876 47.6379 10971(104) 11365.2100 9914.4590
7877 47.6439 11917(109) 11285.0996 9910.8457
7878 47.6499 10974(104) 11208.8887 9907.2363
7879 47.6559 10925(104) 11134.7852 9903.6240
7880 47.6619 10883(104) 11068.0186 9900.0117
7881 47.6679 10718(103) 11006.5537 9896.3994
7882 47.6739 10453(102) 10950.5645 9892.7871
7883 47.6799 10697(104) 10900.2422 9889.1748
7884 47.6859 10386(103) 10855.5879 9885.5625
7885 47.6919 10423(103) 10816.4277 9881.9521
7886 47.6979 10295(102) 10782.5391 9878.3398
7887 47.7039 10433(102) 10757.5205 9878.1973
7888 47.7099 10690(104) 10736.7529 9878.0547
7889 47.7159 10721(104) 10720.0801 9877.9121
7890 47.7219 10638(103) 10707.3877 9877.7695
7891 47.7279 10403(102) 10698.0371 9877.6270
7892 47.7339 10628(103) 10691.6172 9877.4844
7893 47.7399 10517(102) 10687.6465 9877.3418
7894 47.7459 11122(105) 10685.7363 9877.1992
7895 47.7519 10706(104) 10685.5859 9877.0566
7896 47.7579 10584(103) 10686.8369 9876.9150
7897 47.7639 11296(107) 10689.4287 9876.7725
7898 47.7699 10518(102) 10693.3613 9876.6299
7899 47.7759 10573(103) 10699.7764 9876.4873
7900 47.7819 10650(103) 10706.8477 9876.3447
7901 47.7879 11040(105) 10716.1553 9876.2021
7902 47.7939 10526(102) 10728.0020 9876.0596
7903 47.7999 10695(103) 10742.8672 9875.9170
7904 47.8059 10500(102) 10761.2793 9875.7744
7905 47.8119 10625(103) 10783.7305 9875.6318
7906 47.8179 10789(104) 10810.6553 9875.4893
7907 47.8239 10608(103) 10842.4619 9875.3467
7908 47.8299 10762(103) 10879.5400 9875.2041
7909 47.8359 10626(103) 10922.2041 9875.0615
7910 47.8419 10698(103) 10970.6504 9874.9189
7911 47.8479 10775(103) 11024.9990 9874.7764
7912 47.8539 10977(105) 11085.2520 9874.6338
7913 47.8599 11398(107) 11151.3154 9874.4912
7914 47.8659 11108(105) 11223.0186 9874.3496
7915 47.8719 11345(106) 11300.0928 9874.2070
7916 47.8779 11813(109) 11382.1113 9874.0645
7917 47.8839 11561(107) 11468.5244 9873.9219
7918 47.8899 11524(107) 11558.6016 9873.7793
7919 47.8959 11920(109) 11653.3506 9873.6367
7920 47.9019 12126(110) 11747.8779 9873.4941
7921 47.9079 12018(110) 11845.0566 9873.3516
7922 47.9139 12137(110) 11941.5020 9873.2090
7923 47.9199 12228(110) 12039.7754 9873.0664
7924 47.9259 12164(110) 12137.7012 9872.9238
7925 47.9319 12519(112) 12234.8936 9872.7812
7926 47.9379 12492(112) 12330.7861 9872.6387
7927 47.9439 12345(111) 12424.7129 9872.4961
7928 47.9499 12353(111) 12514.1396 9872.3535
7929 47.9559 12692(112) 12601.1592 9872.2109
7930 47.9619 12476(111) 12686.0293 9872.0684
7931 47.9679 12627(112) 12766.5332 9871.9268
7932 47.9739 13255(115) 12841.5957 9871.7842
7933 47.9799 12696(112) 12910.5215 9871.6416
7934 47.9859 12680(112) 12972.7266 9871.4990
7935 47.9919 13185(115) 13027.5908 9871.3564
7936 47.9979 13372(115) 13074.3203 9871.2139
7937 48.0039 13619(116) 13112.6162 9871.0713
7938 48.0099 13114(114) 13141.8672 9870.9287
7939 48.0159 13314(115) 13161.7344 9870.7861
7940 48.0219 12987(114) 13171.9688 9870.6436
7941 48.0279 12919(113) 13172.2666 9870.5010
7942 48.0339 13026(115) 13162.3369 9870.3584
7943 48.0399 12700(113) 13142.1240 9870.2158
7944 48.0459 12452(113) 13111.8691 9870.0732
7945 48.0519 12478(112) 13071.5674 9869.9307
7946 48.0579 12769(113) 13021.5840 9869.7881
7947 48.0639 12770(113) 12962.0850 9869.6455
7948 48.0699 12706(112) 12893.2734 9869.5029
7949 48.0759 12407(111) 12815.8096 9869.3613
7950 48.0819 12197(110) 12730.3789 9869.2188
7951 48.0879 12234(110) 12639.4844 9869.0762
7952 48.0939 12324(111) 12540.3906 9868.9336
7953 48.0999 12243(111) 12435.9395 9868.7910
7954 48.1059 12001(109) 12326.3096 9868.6484
7955 48.1119 11985(109) 12215.2764 9868.5059
7956 48.1179 12243(111) 12102.9561 9868.3633
7957 48.1239 11241(106) 11990.5742 9868.2207
7958 48.1299 11415(106) 11879.4697 9868.0781
7959 48.1359 11587(107) 11771.4434 9867.9355
7960 48.1419 11170(105) 11665.0010 9867.7930
7961 48.1479 10973(104) 11565.0225 9867.6504
7962 48.1539 10683(103) 11470.6279 9867.5078
7963 48.1599 10870(104) 11382.5205 9867.3652
7964 48.1659 11230(106) 11301.5840 9867.2227
7965 48.1719 10765(104) 11228.2754 9867.0801
7966 48.1779 10648(103) 11162.9023 9866.9385
7967 48.1839 10486(102) 11105.6826 9866.7959
7968 48.1899 10390(102) 11056.7119 9866.6533
7969 48.1959 10348(102) 11016.0488 9866.5107
7970 48.2019 10644(103) 10983.6191 9866.3682
7971 48.2079 10750(104) 10959.1924 9866.2256
7972 48.2139 10767(104) 10942.4727 9866.0830
7973 48.2199 10514(102) 10931.9111 9865.9404
7974 48.2259 11412(107) 10929.7793 9865.7979
7975 48.2319 10591(103) 10933.9297 9865.6553
7976 48.2379 10704(103) 10944.0342 9865.5127
7977 48.2439 10829(104) 10959.5088 9865.3701
7978 48.2499 11012(105) 10979.7119 9865.2275
7979 48.2559 10937(104) 11003.9678 9865.0850
7980 48.2619 11071(105) 11031.6279 9864.9424
7981 48.2679 11095(105) 11062.0049 9864.7998
7982 48.2739 10773(104) 11094.5107 9864.6572
7983 48.2799 11628(108) 11128.5811 9864.5146
7984 48.2859 11755(109) 11163.3457 9864.3730
7985 48.2919 10957(104) 11198.3887 9864.2305
7986 48.2979 11008(105) 11233.1797 9864.0879
7987 48.3039 11248(106) 11267.0215 9863.9453
7988 48.3099 11409(107) 11299.2471 9863.8027
7989 48.3159 11182(105) 11327.4141 9863.6602
7990 48.3219 11386(107) 11354.4385 9863.5176
7991 48.3279 11833(109) 11377.8467 9863.3750
7992 48.3339 11354(106) 11396.9219 9863.2324
7993 48.3399 11528(107) 11411.1494 9863.0898
7994 48.3459 11836(109) 11420.2402 9862.9473
7995 48.3519 11672(108) 11423.9912 9862.8047
7996 48.3579 11299(106) 11422.4668 9862.6621
7997 48.3639 11226(105) 11415.8359 9862.5195
7998 48.3699 11391(107) 11404.5254 9862.3770
7999 48.3759 11044(105) 11389.0088 9862.2344
8000 48.3819 11244(107) 11367.0225 9862.0918
8001 48.3879 11568(108) 11344.3906 9861.9492
8002 48.3939 11040(106) 11318.8896 9861.8076
8003 48.3999 11196(106) 11290.8135 9861.6650
8004 48.4059 10987(105) 11260.4316 9861.5225
8005 48.4119 11476(107) 11227.9082 9861.3799
8006 48.4179 11490(107) 11193.5039 9861.2373
8007 48.4239 11766(108) 11157.5078 9861.0947
8008 48.4299 11185(105) 11120.2041 9860.9521
8009 48.4359 11217(105) 11081.9316 9860.8096
8010 48.4419 10996(104) 11043.2852 9860.6670
8011 48.4479 11501(107) 11004.7510 9860.5244
8012 48.4539 11023(105) 10967.0137 9860.3818
8013 48.4599 11209(106) 10930.6230 9860.2393
8014 48.4659 11642(108) 10896.1982 9860.0967
8015 48.4719 10691(103) 10864.3945 9859.9541
8016 48.4779 10539(102) 10835.6885 9859.8115
8017 48.4839 10906(104) 10810.2920 9859.6689
8018 48.4899 10569(103) 10788.8262 9859.5273
8019 48.4959 10751(104) 10769.0557 9859.3848
8020 48.5019 10556(102) 10755.8691 9859.2422
8021 48.5079 10705(103) 10748.0781 9859.0996
8022 48.5139 10918(105) 10743.2080 9858.9570
8023 48.5199 10840(104) 10742.3604 9858.8145
8024 48.5259 10494(102) 10746.5176 9858.6719
8025 48.5319 10660(103) 10752.9463 9858.5293
8026 48.5379 10399(102) 10762.4902 9858.3867
8027 48.5439 10553(102) 10774.6396 9858.2441
8028 48.5499 10715(103) 10789.4414 9858.1016
8029 48.5559 10720(103) 10805.5586 9857.9590
8030 48.5619 10739(103) 10822.8955 9857.8164
8031 48.5679 10531(102) 10840.9863 9857.6738
8032 48.5739 10822(104) 10859.1133 9857.5312
8033 48.5799 10989(105) 10877.4941 9857.3887
8034 48.5859 10909(104) 10895.3633 9857.2461
8035 48.5919 10747(103) 10912.2637 9857.1035
8036 48.5979 11012(105) 10927.7695 9856.9609
8037 48.6039 11073(105) 10941.4463 9856.8193
8038 48.6099 11136(105) 10951.8105 9856.6768
8039 48.6159 10998(105) 10960.2871 9856.5342
8040 48.6219 11240(106) 10965.4092 9856.3916
8041 48.6279 11828(109) 10966.7090 9856.2490
8042 48.6339 11503(107) 10963.7725 9856.1064
8043 48.6399 11355(106) 10955.6738 9855.9639
8044 48.6459 10873(104) 10943.3555 9855.8213
8045 48.6519 10901(104) 10926.2207 9855.6787
8046 48.6579 11208(106) 10904.3887 9855.5361
8047 48.6639 10645(103) 10878.1855 9855.3936
8048 48.6699 10608(103) 10847.9336 9855.2510
8049 48.6759 10745(103) 10814.4893 9855.1084
8050 48.6819 10335(101) 10778.4727 9854.9658
8051 48.6879 10627(103) 10740.5615 9854.8232
8052 48.6939 10841(104) 10701.5010 9854.6807
8053 48.6999 10172(101) 10662.0605 9854.5381
8054 48.7059 10824(104) 10622.9062 9854.3965
8055 48.7119 10267(101) 10584.6357 9854.2539
8056 48.7179 10256(101) 10547.7686 9854.1113
8057 48.7239 10018(100) 10510.5029 9853.9688
8058 48.7299 10125(100) 10477.9551 9853.8262
8059 48.7359 10810(104) 10448.1387 9853.6836
8060 48.7419 10187(101) 10421.3047 9853.5410
8061 48.7479 10648(103) 10397.7559 9853.3984
8062 48.7539 9799(99) 10377.6211 9853.2559
8063 48.7599 10024(100) 10359.0771 9851.0781
8064 48.7659 10314(102) 10344.2539 9848.9014
8065 48.7719 10408(102) 10333.1064 9846.7246
8066 48.7779 10279(101) 10325.6123 9844.5469
8067 48.7839 10302(101) 10321.9219 9842.3691
8068 48.7899 9970(99) 10321.8896 9840.1924
8069 48.7959 10340(102) 10326.0225 9838.6484
8070 48.8019 10068(100) 10333.6055 9837.1035
8071 48.8079 10018(100) 10344.5010 9835.5576
8072 48.8139 10525(103) 10358.6074 9834.0127
8073 48.8199 10176(100) 10375.7627 9832.4678
8074 48.8259 10086(100) 10395.7480 9830.9229
8075 48.8319 10241(101) 10418.3652 9829.3779
8076 48.8379 10634(103) 10443.4092 9827.8330
8077 48.8439 10338(102) 10470.5430 9826.2881
8078 48.8499 10512(102) 10499.6523 9824.7432
8079 48.8559 10570(102) 10530.3047 9823.1982
8080 48.8619 10740(104) 10562.1426 9821.6523
8081 48.8679 10559(103) 10594.8516 9820.1074
8082 48.8739 10513(103) 10628.1025 9818.5625
8083 48.8799 10627(103) 10661.5449 9817.0176
8084 48.8859 10564(103) 10694.8428 9815.4736
8085 48.8919 10515(102) 10727.7910 9813.9277
8086 48.8979 10602(103) 10760.1621 9812.3828
8087 48.9039 10810(103) 10791.8311 9810.8379
8088 48.9099 10993(105) 10822.6387 9809.2930
8089 48.9159 10806(104) 10851.8750 9807.7480
8090 48.9219 10774(103) 10880.4395 9806.2021
8091 48.9279 11494(107) 10907.6924 9804.6582
8092 48.9339 11281(106) 10933.4541 9803.1133
8093 48.9399 11299(106) 10957.5654 9801.5684
8094 48.9459 11239(106) 10979.7744 9800.0234
8095 48.9519 11663(108) 11000.0068 9798.4775
8096 48.9579 11703(108) 11018.2305 9796.9326
8097 48.9639 11402(107) 11034.5312 9795.3877
8098 48.9699 11743(108) 11049.0898 9793.8438
8099 48.9759 11470(107) 11062.0557 9792.2988
8100 48.9819 11643(108) 11075.0488 9790.7529
8101 48.9879 11520(107) 11085.9834 9789.2080
8102 48.9939 10752(103) 11096.6064 9787.6631
8103 48.9999 10881(104) 11107.2617 9786.1182
8104 49.0059 10892(104) 11118.1514 9784.5723
8105 49.0119 10792(104) 11129.5059 9783.0273
8106 49.0179 10770(103) 11141.4707 9781.4834
8107 49.0239 10977(105) 11153.9600 9779.9385
8108 49.0299 10941(104) 11166.7773 9778.3936
8109 49.0359 11127(105) 11179.4736 9776.8477
8110 49.0419 11507(107) 11191.6094 9775.3027
8111 49.0479 11078(105) 11202.6826 9773.7578
8112 49.0539 11315(106) 11211.8711 9772.2129
8113 49.0599 11207(106) 11218.6074 9770.6689
8114 49.0659 11295(106) 11221.6943 9769.1230
8115 49.0719 11329(106) 11221.2451 9767.5781
8116 49.0779 11417(107) 11216.3828 9766.0332
8117 49.0839 11711(108) 11206.0098 9764.4883
8118 49.0899 11999(110) 11191.5820 9762.9434
8119 49.0959 11754(109) 11172.5107 9761.3975
8120 49.1019 11007(105) 11149.2939 9759.8535
8121 49.1079 11253(106) 11122.5625 9758.3086
8122 49.1139 11235(106) 11093.2520 9756.7637
8123 49.1199 10957(105) 11062.4131 9755.2188
8124 49.1259 11079(105) 11031.1309 9753.6729
8125 49.1319 10787(104) 11000.1895 9752.1279
8126 49.1379 10606(103) 10970.7861 9750.5830
8127 49.1439 10723(104) 10942.3613 9749.0381
8128 49.1499 10851(104) 10918.8672 9747.4932
8129 49.1559 10393(102) 10899.5273 9745.9482
8130 49.1619 10468(102) 10884.8438 9744.4033
8131 49.1679 10836(104) 10875.4697 9742.8584
8132 49.1739 10274(101) 10871.9414 9741.3135
8133 49.1799 10392(102) 10874.4209 9739.7676
8134 49.1859 10260(101) 10882.9375 9738.2227
8135 49.1919 10609(103) 10895.9570 9736.6787
8136 49.1979 10644(103) 10917.5586 9735.1338
8137 49.2039 10553(102) 10944.7402 9733.5889
8138 49.2099 10954(105) 10976.5791 9732.0430
8139 49.2159 10841(104) 11013.0791 9730.4980
8140 49.2219 10773(104) 11053.5527 9728.9531
8141 49.2279 10837(104) 11097.2344 9727.4082
8142 49.2339 10984(105) 11142.8867 9725.8643
8143 49.2399 11128(106) 11189.5449 9724.3184
8144 49.2459 11077(105) 11233.9951 9722.7734
8145 49.2519 11145(105) 11278.6260 9721.2285
8146 49.2579 11505(107) 11320.3906 9719.6836
8147 49.2639 11558(107) 11357.8691 9718.1387
8148 49.2699 11710(108) 11389.7764 9716.5928
8149 49.2759 11579(107) 11415.1455 9715.0479
8150 49.2819 11614(107) 11433.1523 9713.5039
8151 49.2879 11609(107) 11442.7920 9711.9590
8152 49.2939 11808(109) 11444.7129 9710.4131
8153 49.2999 12120(111) 11438.5215 9708.8682
8154 49.3059 11284(106) 11424.5938 9707.3232
8155 49.3119 11416(107) 11403.4785 9705.7783
8156 49.3179 11491(107) 11375.9150 9704.2334
8157 49.3239 10990(105) 11342.7764 9702.6885
8158 49.3299 11055(105) 11304.9062 9701.1436
8159 49.3359 10882(104) 11263.2432 9699.5986
8160 49.3419 11244(106) 11218.5781 9698.0537
8161 49.3479 10411(102) 11171.7861 9696.5088
8162 49.3539 10436(102) 11123.7041 9694.9629
8163 49.3599 10412(102) 11074.9805 9693.4180
8164 49.3659 10364(101) 11026.2188 9691.8740
8165 49.3719 10588(103) 10978.1143 9690.3291
8166 49.3779 10275(101) 10930.6133 9688.7842
8167 49.3839 10410(102) 10884.1904 9687.2383
8168 49.3899 10473(102) 10839.1406 9685.6934
8169 49.3959 10928(105) 10795.3418 9684.1484
8170 49.4019 10620(103) 10752.7930 9682.6035
8171 49.4079 10655(103) 10711.4316 9681.0576
8172 49.4139 10330(101) 10671.0518 9679.5137
8173 49.4199 10349(102) 10631.4912 9677.9688
8174 49.4259 10534(103) 10592.6084 9676.4238
8175 49.4319 10512(102) 10554.2500 9674.8789
8176 49.4379 10861(104) 10516.4434 9673.3330
8177 49.4439 11082(106) 10478.7559 9671.7881
8178 49.4499 10191(101) 10442.0615 9670.2432
8179 49.4559 10159(101) 10406.0840 9668.6992
8180 49.4619 10204(101) 10370.8428 9667.1543
8181 49.4679 10209(101) 10336.5811 9665.6084
8182 49.4739 10008(100) 10303.3379 9664.0635
8183 49.4799 9902(99) 10271.2412 9662.5186
8184 49.4859 9886(99) 10240.4932 9660.9736
8185 49.4919 9860(99) 10211.2988 9659.4287
8186 49.4979 10127(101) 10183.7988 9657.8838
8187 49.5039 9822(99) 10158.1895 9656.3389
8188 49.5099 9902(99) 10134.6494 9654.7939
8189 49.5159 10142(101) 10112.0293 9653.2490
8190 49.5219 9736(98) 10093.4111 9651.7041
8191 49.5279 9854(99) 10077.5732 9650.1582
8192 49.5339 9857(99) 10064.7422 9648.6133
8193 49.5399 10195(101) 10055.1807 9647.0684
8194 49.5459 10080(100) 10049.1426 9645.5244
8195 49.5519 9883(99) 10046.8672 9643.9785
8196 49.5579 9927(99) 10050.0908 9642.4336
8197 49.5639 10020(100) 10056.0576 9640.8887
8198 49.5699 9957(100) 10066.5078 9639.3438
8199 49.5759 9941(100) 10083.4121 9637.7988
8200 49.5819 9956(99) 10103.4688 9636.2529
8201 49.5879 10059(100) 10128.5820 9634.7090
8202 49.5939 9980(100) 10158.9209 9633.1641
8203 49.5999 10326(102) 10193.7021 9631.6191
8204 49.6059 9996(100) 10234.7441 9630.0742
8205 49.6119 10392(102) 10281.1318 9628.5283
8206 49.6179 10363(102) 10332.7891 9626.9834
8207 49.6239 9973(99) 10389.5781 9625.4385
8208 49.6299 10369(101) 10451.2363 9623.8936
8209 49.6359 10561(102) 10517.6914 9622.3496
8210 49.6419 10905(104) 10587.9219 9620.8037
8211 49.6479 11190(106) 10661.6494 9619.2588
8212 49.6539 10784(103) 10738.2070 9617.7139
8213 49.6599 11367(107) 10816.7539 9616.1689
8214 49.6659 11009(104) 10896.3369 9614.6230
8215 49.6719 11267(106) 10975.8945 9613.0781
8216 49.6779 11291(106) 11054.1904 9611.5342
8217 49.6839 11317(106) 11130.0068 9609.9893
8218 49.6899 12009(109) 11201.8955 9608.4443
8219 49.6959 11836(108) 11268.3379 9606.8984
8220 49.7019 11794(108) 11327.8535 9605.3535
8221 49.7079 12169(110) 11379.0234 9603.8086
8222 49.7139 12144(110) 11420.5117 9602.2637
8223 49.7199 12277(111) 11452.2480 9600.7197
8224 49.7259 12153(110) 11471.1562 9599.1738
8225 49.7319 12377(111) 11477.7793 9597.6289
8226 49.7379 12109(110) 11471.4834 9596.0840
8227 49.7439 12522(112) 11453.3174 9594.5391
8228 49.7499 12434(112) 11423.3047 9592.9941
8229 49.7559 11890(109) 11382.2305 9591.4482
8230 49.7619 11770(109) 11331.1455 9589.9033
8231 49.7679 11717(108) 11271.2988 9588.3594
8232 49.7739 11404(106) 11204.3438 9586.8145
8233 49.7799 11207(105) 11130.8789 9585.2695
8234 49.7859 11032(104) 11052.6973 9583.7236
8235 49.7919 11364(107) 10971.1377 9582.1787
8236 49.7979 10628(103) 10887.5312 9580.6338
8237 49.8039 10398(102) 10803.0723 9579.0889
8238 49.8099 10557(103) 10718.8848 9577.5449
8239 49.8159 10479(102) 10635.8486 9575.9990
8240 49.8219 10064(100) 10554.8379 9574.4541
8241 49.8279 10249(101) 10476.1836 9572.9092
8242 49.8339 10059(100) 10400.6152 9571.3643
8243 49.8399 10153(100) 10329.5859 9569.8184
8244 49.8459 9967(99) 10262.6543 9568.2734
8245 49.8519 10045(100) 10200.1650 9566.7295
8246 49.8579 10139(101) 10142.1631 9565.1846
8247 49.8639 9964(100) 10088.7666 9563.6396
8248 49.8699 9988(100) 10039.9336 9562.0938
8249 49.8759 10165(101) 9995.5547 9560.5488
8250 49.8819 9736(98) 9955.4844 9559.0039
8251 49.8879 10102(100) 9921.4844 9559.3916
8252 49.8939 10068(100) 9891.3672 9559.7793
8253 49.8999 9735(98) 9864.8916 9560.1670
8254 49.9059 10155(101) 9841.7607 9560.5547
8255 49.9119 9805(99) 9822.1104 9560.9424
8256 49.9179 9578(97) 9804.8857 9561.3301
8257 49.9239 10057(100) 9791.1133 9561.7178
8258 49.9299 9593(97) 9778.7461 9562.1055
8259 49.9359 9848(99) 9768.4346 9562.4932
8260 49.9419 9665(98) 9759.9648 9562.8799
8261 49.9479 10170(101) 9753.1289 9563.2676
8262 49.9539 9672(98) 9747.7520 9563.6553
8263 49.9599 9820(99) 9743.6826 9564.0430
8264 49.9659 9482(97) 9740.7988 9564.4307
8265 49.9719 9931(99) 9739.0010 9564.8184
8266 49.9779 9881(99) 9738.2109 9565.2061
8267 49.9839 9816(99) 9738.3857 9565.5938
8268 49.9899 10263(101) 9739.4326 9565.9814
8269 49.9959 9740(98) 9741.5010 9566.3691
8270 50.0019 9872(99) 9744.5488 9566.7568
8271 50.0079 10103(100) 9748.6201 9567.1445
8272 50.0139 9480(97) 9753.7900 9567.5322
8273 50.0199 9669(98) 9759.7695 9567.5303
8274 50.0259 9601(97) 9767.0488 9567.5293
8275 50.0319 9717(98) 9775.7266 9567.5273
8276 50.0379 9636(97) 9785.9414 9567.5264
8277 50.0439 9909(99) 9797.8174 9567.5244
8278 50.0499 9726(98) 9811.5049 9567.5234
8279 50.0559 9735(98) 9827.1182 9567.5215
8280 50.0619 9800(98) 9844.9854 9567.5205
8281 50.0679 9861(99) 9864.7734 9567.5186
8282 50.0739 9660(98) 9887.4316 9567.5166
8283 50.0799 9854(99) 9911.7920 9567.5156
8284 50.0859 10055(100) 9938.5195 9567.5137
8285 50.0919 9931(99) 9967.5674 9567.5127
8286 50.0979 10157(100) 9999.4443 9567.5107
8287 50.1039 10014(100) 10033.0732 9567.5098
8288 50.1099 9851(99) 10068.9072 9567.5078
8289 50.1159 10362(101) 10106.4961 9567.5059
8290 50.1219 10283(101) 10145.7461 9567.5049
8291 50.1279 10043(100) 10186.2803 9567.5029
8292 50.1339 10170(100) 10227.8945 9567.5020
8293 50.1399 10682(103) 10271.2930 9567.5000
8294 50.1459 10218(100) 10313.4473 9567.4990
8295 50.1519 10059(99) 10354.1299 9567.4971
8296 50.1579 10280(101) 10394.6094 9567.4961
8297 50.1639 10326(101) 10433.2686 9567.4941
8298 50.1699 10466(101) 10469.4385 9567.4922
8299 50.1759 10535(102) 10502.3135 9567.4912
8300 50.1819 10610(102) 10531.2207 9567.4893
8301 50.1879 10589(102) 10555.5205 9567.4883
8302 50.1939 10764(103) 10574.6104 9567.4863
8303 50.1999 11080(105) 10588.0605 9567.4854
8304 50.2059 10883(104) 10595.6426 9567.4834
8305 50.2119 10922(104) 10597.3359 9567.4824
8306 50.2179 10381(101) 10593.2939 9567.4805
8307 50.2239 10742(103) 10583.9580 9567.4785
8308 50.2299 10667(102) 10570.1670 9567.4775
8309 50.2359 10535(102) 10552.1689 9567.4756
8310 50.2419 10556(102) 10530.9863 9567.4746
8311 50.2479 10305(101) 10507.5693 9567.4727
8312 50.2539 10399(101) 10482.7422 9567.4717
8313 50.2599 10186(100) 10457.4668 9567.4697
8314 50.2659 9958(99) 10432.4990 9567.4688
8315 50.2719 10682(103) 10408.6172 9567.4668
8316 50.2779 9976(99) 10386.5566 9567.4648
8317 50.2839 9990(99) 10365.4229 9567.4639
8318 50.2899 10130(100) 10348.8818 9567.4619
8319 50.2959 10371(101) 10335.7793 9567.4609
8320 50.3019 10148(100) 10326.4570 9567.4590
8321 50.3079 9923(99) 10321.2451 9567.4580
8322 50.3139 9992(99) 10320.3740 9567.4561
8323 50.3199 9982(99) 10323.8369 9567.4541
8324 50.3259 10076(99) 10331.5576 9567.4531
8325 50.3319 10474(102) 10343.4961 9567.4512
8326 50.3379 10061(99) 10359.4238 9567.4502
8327 50.3439 10293(101) 10379.0547 9567.4482
8328 50.3499 10080(100) 10401.9258 9567.4473
8329 50.3559 10669(103) 10427.5176 9567.4453
8330 50.3619 10246(100) 10455.3018 9567.4443
8331 50.3679 10380(101) 10484.8008 9567.4424
8332 50.3739 10143(99) 10515.1982 9567.4404
8333 50.3799 10586(102) 10545.7383 9567.4395
8334 50.3859 11008(104) 10575.6719 9567.4375
8335 50.3919 10519(102) 10604.2188 9567.4365
8336 50.3979 10711(103) 10630.5283 9567.4346
8337 50.4039 10754(103) 10653.6914 9567.4336
8338 50.4099 10886(103) 10672.8916 9567.4316
8339 50.4159 10851(103) 10687.5996 9567.4307
8340 50.4219 10789(103) 10696.8486 9567.4287
8341 50.4279 11368(106) 10700.3174 9567.4268
8342 50.4339 11229(105) 10697.7578 9567.4258
8343 50.4399 11014(104) 10689.1367 9567.4238
8344 50.4459 11032(104) 10674.6465 9567.4229
8345 50.4519 10628(102) 10654.6484 9567.4209
8346 50.4579 10505(101) 10629.5898 9567.4199
8347 50.4639 10669(103) 10600.4619 9567.4180
8348 50.4699 10785(103) 10567.8701 9567.4160
8349 50.4759 10305(100) 10532.6289 9567.4150
8350 50.4819 10075(99) 10495.4453 9567.4131
8351 50.4879 10066(99) 10455.3184 9567.4121
8352 50.4939 9929(99) 10416.7002 9567.4102
8353 50.4999 9991(99) 10378.3184 9567.4092
8354 50.5059 9780(98) 10340.7275 9567.4072
8355 50.5119 9918(98) 10304.5684 9567.4062
8356 50.5179 9696(97) 10270.1533 9567.4043
8357 50.5239 9790(98) 10239.3203 9568.8369
8358 50.5299 9880(98) 10210.9229 9570.2686
8359 50.5359 9844(98) 10185.1172 9571.7012
8360 50.5419 10209(100) 10162.0791 9573.1328
8361 50.5479 10124(100) 10142.0527 9574.5654
8362 50.5539 10347(101) 10124.9473 9575.9980
8363 50.5599 9777(98) 10110.8086 9577.4287
8364 50.5659 10251(100) 10099.5137 9578.8613
8365 50.5719 9778(98) 10091.0400 9580.2939
8366 50.5779 9946(98) 10085.2969 9581.7256
8367 50.5839 9798(98) 10082.1328 9583.1582
8368 50.5899 10151(100) 10081.4170 9584.5898
8369 50.5959 9947(99) 10083.0840 9586.0225
8370 50.6019 10143(100) 10087.0586 9587.4541
8371 50.6079 9768(97) 10093.3184 9588.8857
8372 50.6139 9790(97) 10101.9648 9590.3184
8373 50.6199 10011(99) 10112.8838 9591.7510
8374 50.6259 10384(101) 10125.9463 9593.1826
8375 50.6319 10061(99) 10142.1406 9594.6152
8376 50.6379 10022(99) 10161.1084 9596.0469
8377 50.6439 9902(98) 10183.5547 9597.4795
8378 50.6499 9805(98) 10209.5918 9598.9111
8379 50.6559 9856(98) 10239.5684 9600.3428
8380 50.6619 9982(98) 10273.8555 9601.7754
8381 50.6679 9964(98) 10312.7773 9603.2070
8382 50.6739 9909(98) 10356.5938 9604.6396
8383 50.6799 10449(101) 10405.5908 9606.0723
8384 50.6859 9902(98) 10460.0537 9607.5039
8385 50.6919 10235(100) 10519.9385 9608.9355
8386 50.6979 10399(101) 10585.6895 9610.3682
8387 50.7039 10616(102) 10657.0527 9611.7998
8388 50.7099 10114(100) 10734.0537 9613.2324
8389 50.7159 10418(101) 10816.3711 9614.6641
8390 50.7219 10302(100) 10903.7295 9616.0967
8391 50.7279 10380(100) 10995.5547 9617.5293
8392 50.7339 11072(104) 11091.2773 9618.9600
8393 50.7399 10629(102) 11190.1816 9620.3926
8394 50.7459 10664(102) 11291.4541 9621.8252
8395 50.7519 11165(104) 11393.9893 9623.2568
8396 50.7579 11197(104) 11496.4912 9624.6895
8397 50.7639 11345(105) 11597.8184 9626.1211
8398 50.7699 11729(107) 11696.3955 9627.5537
8399 50.7759 11961(108) 11790.7451 9628.9863
8400 50.7819 11970(108) 11879.1797 9630.4170
8401 50.7879 11905(108) 11961.0107 9631.8496
8402 50.7939 12292(109) 12033.2637 9633.2822
8403 50.7999 12170(109) 12095.3770 9634.7139
8404 50.8059 12563(111) 12146.1943 9636.1465
8405 50.8119 12272(109) 12184.9316 9637.5781
8406 50.8179 12964(113) 12211.2393 9639.0107
8407 50.8239 12780(112) 12225.6133 9640.4424
8408 50.8299 12298(109) 12227.2627 9641.8740
8409 50.8359 12166(109) 12217.4238 9643.3066
8410 50.8419 12157(109) 12197.2598 9644.7383
8411 50.8479 12364(110) 12168.0312 9646.1709
8412 50.8539 12059(109) 12131.0059 9647.6035
8413 50.8599 11629(106) 12087.6562 9649.0352
8414 50.8659 11904(107) 12039.6270 9650.4668
8415 50.8719 11591(106) 11988.2031 9651.8994
8416 50.8779 11461(105) 11935.7637 9653.3311
8417 50.8839 11320(105) 11881.3613 9654.7637
8418 50.8899 11791(107) 11827.5977 9656.1953
8419 50.8959 11526(106) 11774.4678 9657.6279
8420 50.9019 11754(107) 11724.5293 9659.0605
8421 50.9079 11452(106) 11675.6289 9660.4922
8422 50.9139 11526(106) 11629.6230 9661.9238
8423 50.9199 11123(104) 11586.6230 9663.3564
8424 50.9259 11254(105) 11546.9160 9664.7881
8425 50.9319 11046(103) 11510.3926 9666.2207
8426 50.9379 11391(105) 11475.5205 9667.6523
8427 50.9439 11208(104) 11444.3291 9669.0850
8428 50.9499 11150(104) 11415.3125 9670.5176
8429 50.9559 11783(107) 11386.7393 9671.9482
8430 50.9619 11298(105) 11360.4385 9673.3809
8431 50.9679 11569(106) 11334.6758 9674.8135
8432 50.9739 11341(105) 11309.1191 9676.2451
8433 50.9799 11778(107) 11283.0713 9677.6777
8434 50.9859 11569(106) 11257.1621 9679.1094
8435 50.9919 11237(104) 11231.7236 9680.5420
8436 50.9979 11205(104) 11205.0537 9681.9736
8437 51.0039 11587(106) 11178.0693 9683.4053
8438 51.0099 11343(105) 11151.0107 9684.8379
8439 51.0159 11257(104) 11123.8389 9686.2695
8440 51.0219 11232(104) 11096.8848 9687.7021
8441 51.0279 11109(104) 11070.4395 9689.1348
8442 51.0339 10896(102) 11044.7207 9690.5664
8443 51.0399 11306(105) 11019.9961 9691.9990
8444 51.0459 11241(105) 10996.6816 9693.4307
8445 51.0519 11235(105) 10975.0488 9694.8623
8446 51.0579 11070(104) 10955.4961 9696.2949
8447 51.0639 11295(104) 10938.2383 9697.7266
8448 51.0699 10751(102) 10923.5664 9699.1592
8449 51.0759 10976(103) 10911.8096 9700.5918
8450 51.0819 10868(102) 10903.1250 9702.0234
8451 51.0879 10893(103) 10897.5342 9703.4551
8452 51.0939 10420(100) 10895.0869 9704.8877
8453 51.0999 10556(101) 10895.7285 9706.3193
8454 51.1059 10858(103) 10899.4336 9707.7520
8455 51.1119 10747(102) 10905.9404 9709.1836
8456 51.1179 10985(104) 10914.8857 9710.6162
8457 51.1239 10921(103) 10925.9639 9712.0488
8458 51.1299 10726(101) 10938.8379 9713.4805
8459 51.1359 11104(104) 10952.9355 9714.9121
8460 51.1419 11067(103) 10967.8164 9716.3447
8461 51.1479 11125(104) 10982.8574 9717.7764
8462 51.1539 11337(105) 10998.2754 9719.2090
8463 51.1599 11016(103) 11012.2773 9720.6406
8464 51.1659 10967(103) 11025.1055 9722.0732
8465 51.1719 11682(106) 11036.4727 9723.5059
8466 51.1779 11833(107) 11046.2793 9724.9365
8467 51.1839 11317(105) 11054.5938 9726.3691
8468 51.1899 11797(107) 11062.2461 9727.8018
8469 51.1959 11755(107) 11068.3936 9729.2334
8470 51.2019 11279(104) 11074.2568 9730.6660
8471 51.2079 11233(105) 11080.3721 9732.0977
8472 51.2139 11117(104) 11087.4502 9733.5303
8473 51.2199 11096(104) 11096.2295 9734.9619
8474 51.2259 10902(103) 11107.3428 9736.3936
8475 51.2319 10754(102) 11122.3535 9737.8262
8476 51.2379 11007(103) 11140.0518 9739.2578
8477 51.2439 10972(103) 11161.6650 9740.6904
8478 51.2499 11191(104) 11187.4922 9742.1230
8479 51.2559 11048(104) 11217.8281 9743.5547
8480 51.2619 11052(104) 11252.6650 9744.9873
8481 51.2679 11363(105) 11291.8047 9746.4189
8482 51.2739 10916(103) 11335.0654 9747.8506
8483 51.2799 11142(104) 11382.0068 9749.2832
8484 51.2859 11556(106) 11433.1240 9750.7148
8485 51.2919 11704(107) 11485.7158 9752.1475
8486 51.2979 11466(105) 11539.8281 9753.5801
8487 51.3039 12407(110) 11594.4834 9755.0117
8488 51.3099 11707(106) 11648.6592 9756.4434
8489 51.3159 11851(107) 11701.2402 9757.8760
8490 51.3219 12244(109) 11751.0781 9759.3076
8491 51.3279 12385(110) 11796.9980 9760.7402
8492 51.3339 12201(108) 11837.9111 9762.1719
8493 51.3399 12285(109) 11872.9463 9763.6045
8494 51.3459 12035(108) 11901.3359 9765.0371
8495 51.3519 12059(108) 11922.3486 9766.4678
8496 51.3579 12281(109) 11935.5957 9767.9004
8497 51.3639 12474(110) 11940.7168 9769.3330
8498 51.3699 11905(107) 11937.4570 9770.7646
8499 51.3759 11727(106) 11925.8652 9772.1973
8500 51.3819 12115(108) 11905.9707 9773.6289
8501 51.3879 11855(107) 11877.9062 9775.0615
8502 51.3939 12079(108) 11841.9863 9776.4941
8503 51.3999 12088(108) 11798.6885 9777.9248
8504 51.4059 11853(107) 11748.4717 9779.3574
8505 51.4119 12278(109) 11692.0361 9780.7891
8506 51.4179 11342(105) 11630.1445 9782.2217
8507 51.4239 11009(103) 11563.5596 9783.6543
8508 51.4299 11255(104) 11493.4121 9785.0859
8509 51.4359 10887(102) 11420.5771 9786.5186
8510 51.4419 10626(101) 11344.7871 9787.9502
8511 51.4479 10676(101) 11269.3535 9789.3818
8512 51.4539 10939(102) 11193.8564 9790.8145
8513 51.4599 10683(102) 11119.0010 9792.2461
8514 51.4659 10680(102) 11045.4551 9793.6787
8515 51.4719 9965(98) 10973.7666 9795.1113
8516 51.4779 10133(98) 10904.3154 9796.5430
8517 51.4839 10358(100) 10837.4902 9797.9746
8518 51.4899 10256(99) 10773.4141 9799.4072
8519 51.4959 10205(99) 10712.3672 9800.8389
8520 51.5019 10147(99) 10654.5225 9802.2715
8521 51.5079 9878(98) 10599.9297 9803.7031
8522 51.5139 9780(97) 10548.6191 9805.1357
8523 51.5199 10471(100) 10496.8369 9802.7285
8524 51.5259 10806(102) 10448.4473 9800.3213
8525 51.5319 10148(99) 10403.8828 9797.9160
8526 51.5379 10195(99) 10362.2002 9795.5088
8527 51.5439 10963(103) 10323.9883 9793.1016
8528 51.5499 10535(101) 10288.7812 9790.6943
8529 51.5559 10094(99) 10256.7314 9788.2871
8530 51.5619 9783(97) 10227.7051 9785.8799
8531 51.5679 10277(100) 10201.5645 9783.4727
8532 51.5739 10091(99) 10178.2334 9781.0674
8533 51.5799 9868(97) 10157.5283 9778.6602
8534 51.5859 10657(102) 10139.3525 9776.2529
8535 51.5919 10048(98) 10123.5479 9773.8457
8536 51.5979 10147(99) 10109.8662 9771.4385
8537 51.6039 10046(99) 10098.3828 9769.0322
8538 51.6099 10217(99) 10088.8652 9766.6250
8539 51.6159 10185(100) 10081.1719 9764.2188
8540 51.6219 10222(99) 10075.1641 9761.8115
8541 51.6279 9959(98) 10070.7178 9759.4043
8542 51.6339 9875(97) 10067.7090 9756.9980
8543 51.6399 10844(102) 10066.0068 9754.5908
8544 51.6459 9915(98) 10065.4834 9752.1836
8545 51.6519 10799(102) 10066.0225 9749.7764
8546 51.6579 10355(101) 10067.5000 9747.3691
8547 51.6639 10158(99) 10069.7949 9744.9639
8548 51.6699 10459(101) 10071.9395 9742.5566
8549 51.6759 9805(97) 10074.9961 9740.1494
8550 51.6819 10579(101) 10079.1416 9737.7422
8551 51.6879 10035(98) 10083.7324 9735.3350
8552 51.6939 10458(100) 10088.7002 9732.9277
8553 51.6999 9918(97) 10094.0107 9730.5205
8554 51.7059 10108(99) 10099.6377 9728.1152
8555 51.7119 10756(102) 10105.5713 9725.7080
8556 51.7179 9649(96) 10111.7930 9723.3008
8557 51.7239 9740(96) 10130.4512 9733.0615
8558 51.7299 9894(98) 10149.3691 9742.8213
8559 51.7359 10321(100) 10168.5312 9752.5820
8560 51.7419 10055(98) 10187.8906 9762.3418
8561 51.7479 10389(100) 10207.3789 9772.0967
8562 51.7539 9857(97) 10226.9473 9781.8564
8563 51.7599 10005(98) 10246.5049 9791.6172
8564 51.7659 10745(102) 10265.9570 9801.3779
8565 51.7719 10041(98) 10285.1777 9811.1377
8566 51.7779 10008(98) 10304.0352 9820.8984
8567 51.7839 9724(96) 10322.3975 9830.6582
8568 51.7899 9972(98) 10340.1299 9840.4189
8569 51.7959 9887(97) 10357.0762 9850.1729
8570 51.8019 10552(101) 10373.1328 9859.9336
8571 51.8079 10484(101) 10388.1787 9869.6943
8572 51.8139 10841(103) 10402.1348 9879.4541
8573 51.8199 9718(97) 10414.9502 9889.2148
8574 51.8259 10006(98) 10426.6230 9898.9746
8575 51.8319 10102(98) 10437.2070 9908.7354
8576 51.8379 10116(98) 10446.7744 9918.4893
8577 51.8439 10420(100) 10455.4834 9928.2500
8578 51.8499 10412(100) 10463.4805 9938.0107
8579 51.8559 10114(99) 10470.7295 9947.7705
8580 51.8619 9730(96) 10477.9697 9957.5312
8581 51.8679 9813(96) 10485.1768 9967.2910
8582 51.8739 10362(100) 10492.5781 9977.0518
8583 51.8799 10340(99) 10500.4443 9986.8125
8584 51.8859 10492(101) 10509.0391 9996.5664
8585 51.8919 11275(104) 10518.6338 10006.3271
8586 51.8979 10948(103) 10529.4844 10016.0869
8587 51.9039 10178(98) 10541.8398 10025.8477
8588 51.9099 9956(98) 10555.9863 10035.6074
8589 51.9159 10255(99) 10572.1758 10045.3682
8590 51.9219 10175(99) 10590.7617 10055.1289
8591 51.9279 9890(97) 10611.9258 10064.8828
8592 51.9339 10379(100) 10635.9482 10074.6426
8593 51.9399 10136(98) 10663.0654 10084.4033
8594 51.9459 10990(103) 10688.9609 10089.6094
8595 51.9519 10359(100) 10713.1699 10089.6094
8596 51.9579 10435(100) 10741.0098 10089.6094
8597 51.9639 10650(101) 10772.6846 10089.6094
8598 51.9699 11089(103) 10808.2842 10089.6094
8599 51.9759 10769(102) 10847.9238 10089.6094
8600 51.9819 10651(101) 10891.6484 10089.6094
8601 51.9879 10644(100) 10939.4512 10089.6094
8602 51.9939 11712(106) 10991.3174 10089.6094
8603 51.9999 11932(108) 11047.2412 10089.6094
8604 52.0059 11573(106) 11107.1553 10089.6094
8605 52.0119 11128(103) 11170.9111 10089.6094
8606 52.0179 11825(107) 11238.3037 10089.6094
8607 52.0239 11627(106) 11309.1934 10089.6094
8608 52.0299 11206(103) 11383.2969 10089.6094
8609 52.0359 11326(104) 11460.3447 10089.6094
8610 52.0419 12164(109) 11539.9268 10089.6094
8611 52.0479 11720(105) 11621.5625 10089.6094
8612 52.0539 11775(106) 11703.3301 10089.6094
8613 52.0599 11853(106) 11787.7344 10089.6094
8614 52.0659 12379(109) 11872.8584 10089.6094
8615 52.0719 11774(106) 11958.1484 10089.6094
8616 52.0779 11724(106) 12041.2559 10089.6094
8617 52.0839 12793(111) 12125.2256 10089.6094
8618 52.0899 12386(109) 12207.9453 10089.6094
8619 52.0959 12617(109) 12288.9111 10089.6094
8620 52.1019 12671(110) 12367.4980 10089.6094
8621 52.1079 12632(109) 12443.3750 10089.6094
8622 52.1139 12818(111) 12515.9873 10089.6094
8623 52.1199 12534(109) 12584.9707 10089.6094
8624 52.1259 12476(109) 12649.7246 10089.6094
8625 52.1319 12208(107) 12709.5205 10089.6094
8626 52.1379 12363(108) 12763.7900 10089.6094
8627 52.1439 12911(111) 12811.6621 10089.6094
loop_
_refln_index_h
_refln_index_k
_refln_index_l
_refln_mult
_pd_refln_phase_id
_refln_observed_status
_refln_F_squared_meas
_refln_F_squared_calc
_refln_phase_calc
_refln_d_spacing
0 1 2 6 2 o 55046.1211 24089.5137 181.17 3.68348
1 1 0 4 1 o 6146.4214 6174.9497 182.78 3.54402
1 1 1 8 1 o 13732.1055 13843.2051 183.15 2.88406
0 2 0 2 1 o 4302.1621 4013.9175 183.32 2.79649
1 0 4 6 2 o 175743.5000 162649.6406 181.58 2.69952
1 1 0 6 2 o 124928.7969 140585.2812 1.91 2.51907
0 0 2 2 1 o 12745.4355 12290.6475 183.85 2.48125
0 2 1 4 1 o 8784.8301 8592.5010 4.01 2.43628
0 0 6 2 2 o 15472.1895 14890.6738 3.90 2.29077
2 0 0 2 1 o 8047.5435 7746.3164 4.82 2.29056
1 1 3 12 2 o 16186.7480 22241.6016 180.04 2.20741
1 0 2 4 1 o 1415.3105 1263.2545 180.04 2.18178
1 2 1 8 1 o 1391.0643 1199.2469 180.05 2.15102
2 0 2 6 2 o 7549.4448 5688.1841 182.28 2.07932
1 1 2 8 1 o 3460.9468 3655.9048 3.53 2.03260
2 1 1 8 1 o 29.9825 29.9825 0.05 1.94930
0 2 2 4 1 o 3342.4912 3525.7610 3.46 1.85599
0 2 4 6 2 o 161647.1406 142736.4062 181.63 1.84174
2 2 0 4 1 o 3680.6167 3529.4121 183.44 1.77201
1 3 0 4 1 o 14183.8848 13608.4395 3.57 1.72681
1 2 2 8 1 o 6.0329 5.9620 180.05 1.72018
1 1 6 12 2 o 95126.5469 103435.5156 1.46 1.69480
2 0 2 4 1 o 17208.5215 16398.7715 183.25 1.68305
2 2 1 8 1 o 13066.4346 12901.3877 3.19 1.66881
2 1 1 12 2 o 3479.2029 1206.6130 0.06 1.63737
1 3 1 8 1 o 0.9965 0.1479 199.30 1.63089
2 1 2 8 1 o 65.8934 25.6041 0.06 1.61166
1 2 2 12 2 o 10580.5117 6161.5215 182.12 1.60359
0 1 8 6 2 o 43326.3828 44756.6133 1.77 1.59861
1 1 3 8 1 o 8311.1748 8693.7842 3.79 1.49893
2 1 4 12 2 o 101997.9688 95448.8516 181.91 1.48676
3 1 0 4 1 o 1992.1515 2001.8087 184.60 1.47312
3 0 0 6 2 o 211300.9688 191728.9375 1.54 1.45439
2 2 2 8 1 o 2249.0610 2411.9216 4.06 1.44203
0 2 3 4 1 o 13926.1074 13505.0312 183.06 1.42374
1 3 2 8 1 o 10171.9033 10067.3350 184.04 1.41735
1 2 5 12 2 o 846.0883 835.0471 0.07 1.41416
3 1 1 8 1 o 8253.0059 8235.4326 183.86 1.41221
0 4 0 2 1 o 5947.9697 6242.4341 182.69 1.39824
2 3 1 8 1 o 20.8640 20.9917 0.07 1.38820
1 2 3 8 1 o 0.4056 0.2998 0.07 1.35959
2 0 8 6 2 o 25783.5391 23360.0098 2.34 1.34976
0 4 1 4 1 o 7077.9653 7343.7881 184.01 1.34584
1 0 10 6 2 o 120275.0859 87900.6562 182.07 1.31096
1 1 9 12 2 o 11178.6562 6839.3262 0.07 1.30593
2 1 3 8 1 o 0.0124 0.0080 180.07 1.30407
3 0 2 4 1 o 539.5428 412.2548 0.07 1.30049
3 2 1 8 1 o 431.3368 394.9945 0.07 1.29388
1 4 1 8 1 o 12.5685 12.6000 180.07 1.29127
3 1 2 8 1 o 2256.4006 2542.8528 3.99 1.26669
2 1 7 12 2 o 604.4070 608.8129 180.08 1.26281
2 2 0 6 2 o 65551.2109 61626.8398 2.57 1.25953
2 3 2 8 1 o 12.1796 10.1788 180.08 1.24928
0 0 4 2 1 o 6880.4590 6331.2246 4.97 1.24062
0 3 6 6 2 o 8857.4482 11934.3760 3.87 1.22783
3 0 6 6 2 o 8857.4482 11934.3760 3.87 1.22783
0 4 2 4 1 o 1200.7510 1298.8821 5.68 1.21814
2 2 3 12 2 o 4710.6372 4507.4053 0.08 1.21448
2 2 3 8 1 o 3395.8342 3183.3784 186.07 1.20919
1 3 1 12 2 o 268.0403 250.6328 180.08 1.20546
1 0 4 4 1 o 403.8885 369.8953 180.08 1.19749
1 3 3 8 1 o 16.4891 14.7792 1.87 1.19453
2 4 0 4 1 o 693.3352 617.5190 188.19 1.19345
3 1 2 12 2 o 8725.3555 7545.8159 181.79 1.19179
1 2 8 12 2 o 24328.2461 20416.9141 2.41 1.18974
3 3 0 4 1 o 7578.3438 6938.2954 4.71 1.18134
3 2 2 8 1 o 2.4380 2.3134 0.08 1.17921
1 4 2 8 1 o 367.8575 363.1585 0.08 1.17723
1 1 4 8 1 o 1727.0122 1869.2095 184.57 1.17095
0 2 10 6 2 o 60266.8867 56043.6250 182.48 1.16290
2 4 1 8 1 o 5257.1313 5260.6104 184.60 1.16037
3 3 1 8 1 o 20.7356 22.5012 181.52 1.14922
0 0 12 2 2 o 3426.8840 3453.2966 359.22 1.14539
4 0 0 2 1 o 10905.7031 11013.9141 3.73 1.14528
1 3 4 12 2 o 34978.3594 44243.5898 182.58 1.14141
0 2 4 4 1 o 1360.9358 1825.0222 184.46 1.13404
3 1 5 12 2 o 226.6371 193.8942 180.09 1.10755
2 2 6 12 2 o 47504.8164 41473.6445 2.04 1.10370
1 2 4 8 1 o 2.2027 2.1408 180.09 1.10081
3 1 3 8 1 o 4506.5137 4428.0049 5.00 1.10011
4 1 1 8 1 o 37.7076 33.5033 180.09 1.09437
2 0 4 4 1 o 9181.7363 8606.9971 4.16 1.09089
2 3 3 8 1 o 0.0074 0.0072 180.09 1.08865
1 5 0 4 1 o 1415.8470 1353.9034 184.95 1.08667
0 4 2 6 2 o 8296.7988 8501.3984 181.64 1.07730
2 4 2 8 1 o 2569.9856 2671.6121 3.88 1.07551
2 1 4 8 1 o 10.4167 9.8007 0.09 1.07071
0 4 3 4 1 o 4380.7495 4315.6001 4.97 1.06786
3 3 2 8 1 o 6939.2144 6875.1421 184.62 1.06662
1 5 1 8 1 o 4992.1802 4912.2788 4.80 1.06152
4 2 0 4 1 o 1419.7732 1432.7645 184.94 1.05984
2 1 10 12 2 o 41269.1797 47347.2305 182.60 1.05583
1 1 12 12 2 o 2922.4607 2886.0894 181.01 1.04267
3 2 3 8 1 o 0.1515 0.1428 180.09 1.04134
1 4 3 8 1 o 0.0049 0.0046 0.09 1.03998
4 0 2 4 1 o 5332.9810 4982.3179 185.38 1.03985
4 0 4 6 2 o 31881.9023 29844.2402 183.01 1.03966
4 2 1 8 1 o 3730.0852 3603.4397 5.50 1.03647
1 3 7 12 2 o 135.8911 154.7370 0.09 1.03019
4 1 2 8 1 o 35.3442 34.7973 180.10 1.02233
2 2 4 8 1 o 1312.8998 1365.2014 185.00 1.01630
3 4 1 8 1 o 6.8945 6.2940 0.10 1.00967
1 3 4 8 1 o 5876.1001 5726.4863 4.97 1.00755
3 2 1 12 2 o 416.8254 438.4382 180.10 0.99833
1 2 11 12 2 o 270.4474 294.7119 180.10 0.99592
1 5 2 8 1 o 1225.9410 1350.1456 4.84 0.99539
2 3 2 12 2 o 806.8605 1174.0200 184.10 0.99052
3 1 8 12 2 o 10616.8184 17878.2812 2.39 0.98935
2 5 1 8 1 o 2.4730 4.5612 180.10 0.98514
4 2 2 8 1 o 1392.3170 1357.4055 4.95 0.97465
2 2 9 12 2 o 2548.9441 2262.1589 180.10 0.97169
2 4 3 8 1 o 4246.1304 4297.7495 4.85 0.96785
3 0 4 4 1 o 233.4714 198.1233 0.10 0.96289
3 3 3 8 1 o 17.7473 15.1113 178.44 0.96135
3 2 4 12 2 o 47454.6094 40439.6797 182.51 0.96103
0 1 14 6 2 o 41233.9375 39186.8711 2.84 0.95781
4 3 1 8 1 o 35.0699 33.9167 180.10 0.95751
1 1 5 8 1 o 3726.2332 3822.0176 185.17 0.95573
3 4 2 8 1 o 202.5435 197.5895 180.10 0.95227
4 1 0 12 2 o 33842.8477 33081.8477 3.12 0.95212
3 1 4 8 1 o 1370.4425 1506.2250 184.81 0.94893
2 3 4 8 1 o 5.1774 5.1127 180.10 0.94155
2 3 5 12 2 o 373.0940 362.6494 180.10 0.94056
0 2 5 4 1 o 2972.1978 2885.8762 5.95 0.93534
1 4 3 12 2 o 1719.9607 1696.7183 180.11 0.93220
4 1 3 12 2 o 1719.9607 1696.7183 180.11 0.93220
0 6 0 2 1 o 4448.9604 4389.6450 5.53 0.93216
2 5 2 8 1 o 9.9079 9.8473 180.11 0.93160
4 1 3 8 1 o 0.0128 0.0139 0.11 0.92855
0 4 4 4 1 o 686.3835 770.5434 186.85 0.92800
0 4 8 6 2 o 17654.7891 17654.7891 2.33 0.92087
1 2 5 8 1 o 180.9331 217.1318 0.11 0.91643
0 6 1 4 1 o 28.8519 33.7961 357.92 0.91614
3 2 4 8 1 o 1.2737 1.2379 0.11 0.91044
1 4 4 8 1 o 199.2383 194.6658 0.11 0.90952
1 3 10 12 2 o 38209.3672 37672.6562 182.70 0.90826
1 5 3 8 1 o 3838.6443 3787.8628 185.20 0.90822
4 3 2 8 1 o 18.8997 18.6874 0.11 0.90814
5 1 0 4 1 o 1747.1072 1737.6471 184.42 0.90417
3 5 0 4 1 o 1429.8729 1400.2115 184.61 0.90239
0 3 12 6 2 o 1181.3574 1187.9294 358.80 0.89984
3 0 12 6 2 o 1181.3574 1187.9294 358.80 0.89984
2 1 5 8 1 o 6.0205 6.0909 180.11 0.89885
1 6 1 8 1 o 185.5565 187.8350 0.11 0.89835
2 0 14 6 2 o 39113.7891 37932.1875 2.79 0.89528
4 2 3 8 1 o 5429.6162 5320.6069 184.34 0.89239
3 2 7 12 2 o 308.2251 305.6565 0.11 0.89178
2 1 13 12 2 o 206.0450 205.7482 0.11 0.89006
5 1 1 8 1 o 2985.0698 2977.4368 185.70 0.88953
3 5 1 8 1 o 3604.1194 3667.3623 5.24 0.88783
4 4 0 4 1 o 2168.6648 2378.6997 183.87 0.88600
1 4 6 12 2 o 14904.9697 20734.6348 2.56 0.87920
4 1 6 12 2 o 14905.1484 20734.6348 2.56 0.87920
3 4 3 8 1 o 0.0027 0.0028 180.12 0.87511
0 6 2 4 1 o 4489.0430 4556.7427 185.30 0.87261
4 4 1 8 1 o 3202.2178 3268.4043 185.35 0.87221
3 1 11 12 2 o 90.6376 89.9511 0.11 0.86928
2 2 5 8 1 o 4136.8750 4081.7747 4.88 0.86592
5 0 2 6 2 o 729.1307 723.5305 184.83 0.86568
2 3 8 12 2 o 6735.3335 6781.4482 3.55 0.86489
2 6 0 4 1 o 4691.9131 4704.1006 5.20 0.86340
1 1 15 12 2 o 1781.9015 1886.3865 180.11 0.86111
1 3 5 8 1 o 0.1671 0.1779 195.01 0.86049
2 4 4 8 1 o 1614.9747 1720.3940 184.49 0.86009
5 0 2 4 1 o 117.3040 124.5640 180.11 0.85950
2 5 3 8 1 o 0.0019 0.0020 0.11 0.85899
5 2 1 8 1 o 118.6367 120.2209 180.11 0.85758
1 6 2 8 1 o 11.5377 11.6067 0.11 0.85720
3 3 4 8 1 o 4329.2886 4352.5225 5.39 0.85552
4 0 10 6 2 o 34108.1602 35193.3203 182.70 0.85442
2 6 1 8 1 o 90.2931 94.1322 181.39 0.85062
5 1 2 8 1 o 799.0213 831.1345 6.19 0.84952
3 5 2 8 1 o 747.6705 769.2696 6.04 0.84804
2 2 12 12 2 o 1376.5056 1406.7185 181.27 0.84740
0 5 4 6 2 o 28591.3828 27977.1641 182.79 0.84578
1 2 14 12 2 o 32598.7090 29849.5664 3.02 0.84359
1 0 16 6 2 o 4373.5400 3947.9624 183.33 0.84286
4 0 4 4 1 o 3397.9272 3115.2075 6.31 0.84152
4 3 3 8 1 o 0.0160 0.0155 0.12 0.84049
3 3 0 6 2 o 43158.4727 42775.9883 2.56 0.83969
4 4 2 8 1 o 597.3350 674.1479 7.02 0.83440
4 1 4 8 1 o 14.6941 21.6269 180.12 0.83216
0 0 6 2 1 o 5974.3345 5898.0146 184.58 0.82708
3 3 3 12 2 o 4.3542 4.4139 0.12 0.82593
3 1 5 8 1 o 3011.5112 2985.2410 185.52 0.82311
2 4 1 12 2 o 373.0428 369.5988 0.12 0.82308
5 3 0 4 1 o 4518.8120 4439.2437 5.25 0.82229
5 2 2 8 1 o 0.8211 0.8040 180.12 0.82157
4 2 2 12 2 o 1599.4006 1485.0718 183.28 0.81869
2 3 5 8 1 o 7.3944 6.9248 180.12 0.81828
1 5 4 8 1 o 916.1389 877.5504 185.57 0.81743
2 6 2 8 1 o 3501.3257 3452.4688 185.91 0.81544
1 0 6 4 1 o 0.3982 0.3941 0.12 0.81392
0 6 3 4 1 o 288.7445 277.9088 0.85 0.81209
5 3 1 8 1 o 6.1982 6.0942 357.67 0.81123
0 4 5 4 1 o 2667.9773 2746.3145 185.65 0.80934
3 2 10 12 2 o 18319.5645 18893.8809 183.51 0.80914
1 4 9 12 2 o 1022.5222 1067.8707 0.12 0.80796
4 1 9 12 2 o 1022.5222 1067.8707 0.12 0.80796
4 2 4 8 1 o 809.9493 887.8112 185.68 0.80583
1 1 6 8 1 o 903.1920 992.4361 5.55 0.80544
2 4 4 12 2 o 19211.2676 19584.2266 183.20 0.80180
1 6 3 8 1 o 0.0859 0.0895 180.12 0.79963
0 2 16 6 2 o 4755.5054 4963.2290 182.88 0.79930
3 2 5 8 1 o 144.9959 145.7666 180.12 0.79761
1 4 5 8 1 o 4.7504 4.6651 0.12 0.79699
1 3 13 12 2 o 70.0735 67.5629 180.12 0.79620
5 1 3 8 1 o 3139.2195 3176.3596 5.27 0.79338
0 2 6 4 1 o 742.3047 752.3560 6.12 0.79312
3 4 4 8 1 o 129.5647 131.3945 180.12 0.79304
3 5 3 8 1 o 2289.1648 2353.5732 186.22 0.79218
4 5 1 8 1 o 10.0250 11.0339 0.12 0.79003
4 2 5 12 2 o 292.6133 322.7939 0.12 0.78979
3 3 6 12 2 o 4508.1035 4926.3413 4.78 0.78839
1 7 0 4 1 o 953.6835 1017.9876 185.74 0.78711
3 6 1 8 1 o 122.7945 127.8897 180.12 0.78560
5 1 1 12 2 o 597.3225 567.7892 0.12 0.78238
1 2 6 8 1 o 0.0027 0.0026 0.13 0.78150
2 3 11 12 2 o 207.3091 198.5436 0.12 0.78121
4 4 3 8 1 o 2295.2371 2199.3132 6.20 0.78103
2 5 4 8 1 o 6.9678 6.6776 180.12 0.78099
5 3 2 8 1 o 3123.4426 3002.7842 186.21 0.78054
1 5 2 12 2 o 641.7711 615.8145 184.85 0.77860
5 0 8 6 2 o 4835.3413 4634.0137 3.97 0.77803
2 0 6 4 1 o 1946.6848 1867.9712 187.83 0.77792
1 7 1 8 1 o 2466.3799 2399.3635 185.86 0.77740
2 1 6 8 1 o 0.0105 0.0123 180.12 0.77050
5 2 3 8 1 o 0.0502 0.0589 0.13 0.77047
4 3 4 8 1 o 13.0335 12.9542 0.13 0.76701
2 6 3 8 1 o 133.3754 129.3882 179.09 0.76541
5 1 4 12 2 o 19579.2070 19412.0859 183.10 0.76403
0 0 18 2 2 o 24653.7090 24707.7266 182.49 0.76359
6 0 0 2 1 o 2058.8198 2067.4475 7.38 0.76352
2 4 5 8 1 o 2126.1477 2161.1399 186.18 0.76310
3 1 14 12 2 o 17154.5918 17695.4336 3.61 0.76241
2 1 16 12 2 o 3607.9834 3710.3984 183.19 0.76187
4 5 2 8 1 o 24.6960 25.2114 0.13 0.76160
2 4 7 12 2 o 297.2724 284.4560 180.13 0.76024
3 3 5 8 1 o 9.0757 8.5545 182.13 0.75991
3 6 2 8 1 o 9.1312 8.1522 180.13 0.75764
5 4 1 8 1 o 3.0138 2.7022 180.13 0.75737
1 5 5 12 2 o 506.8922 501.3232 0.13 0.75362
1 7 2 8 1 o 814.7157 827.8535 6.21 0.75027
2 2 6 8 1 o 758.0110 770.8686 5.88 0.74946
6 1 1 8 1 o 31.8166 31.3575 0.13 0.74786
1 3 6 8 1 o 3060.8506 3037.4436 186.03 0.74593
2 7 1 8 1 o 7.0341 6.9992 180.13 0.74585
0 6 4 4 1 o 3051.5125 3109.4404 5.96 0.74524
4 1 5 8 1 o 15.3846 16.1327 0.13 0.74339
4 2 8 12 2 o 5328.1016 5587.0591 3.50 0.74338
2 2 15 12 2 o 727.5243 935.7447 0.13 0.74097
5 0 4 4 1 o 83.8239 90.2379 180.13 0.73702
0 5 10 6 2 o 12711.4424 13442.0107 183.84 0.73670
6 2 0 4 1 o 685.8060 721.4308 186.02 0.73656
5 3 3 8 1 o 51.9645 54.3339 0.91 0.73633
3 3 9 12 2 o 2.8958 3.0094 180.13 0.73580
1 6 4 8 1 o 8.1240 8.4252 0.13 0.73557
1 5 5 8 1 o 2176.0796 2119.1897 6.29 0.73284
5 4 2 8 1 o 91.5390 91.2019 0.13 0.73222
1 4 12 12 2 o 717.7639 716.2732 181.57 0.73218
4 1 12 12 2 o 717.7636 716.2729 181.57 0.73218
1 1 18 12 2 o 7646.4868 7628.2690 184.23 0.73076
5 1 4 8 1 o 552.5970 550.2145 187.06 0.73070
3 5 4 8 1 o 530.1570 513.7300 186.86 0.72976
6 0 2 4 1 o 3390.1428 3284.6995 185.74 0.72975
0 4 14 6 2 o 13602.7949 13175.3604 4.01 0.72972
6 2 1 8 1 o 2598.1777 2565.1631 5.66 0.72858
5 1 7 12 2 o 436.1333 445.7906 180.13 0.72782
3 0 6 4 1 o 0.2761 0.2855 180.13 0.72726
6 0 0 6 2 o 24562.9727 25400.3438 2.95 0.72719
3 2 13 12 2 o 151.6119 155.9722 180.13 0.72689
1 2 17 12 2 o 106.6074 105.1868 0.13 0.72596
4 2 5 8 1 o 1664.7299 1580.9409 7.15 0.72444
6 1 2 8 1 o 37.3851 36.0431 0.13 0.72362
4 6 0 4 1 o 2429.5586 2384.2666 6.68 0.72296
2 7 2 8 1 o 1.9040 1.9506 0.13 0.72179
3 1 6 8 1 o 483.8359 502.6898 7.33 0.72119
4 4 4 8 1 o 413.9915 431.4879 188.14 0.72101
4 5 3 8 1 o 0.0054 0.0056 180.13 0.72037
2 3 6 8 1 o 0.0080 0.0076 0.13 0.71793
3 6 3 8 1 o 0.0712 0.0655 0.13 0.71701
4 3 1 12 2 o 14.1916 12.9014 180.13 0.71632
4 6 1 8 1 o 17.6053 15.8487 357.29 0.71541
3 4 5 8 1 o 3.7864 3.4184 180.13 0.71511
3 4 2 12 2 o 2886.1782 2762.2583 182.19 0.71342
1 5 8 12 2 o 3719.1851 3625.4448 4.16 0.71298
5 2 4 8 1 o 0.6109 0.6016 180.13 0.71268
0 4 6 4 1 o 1565.0179 1566.3019 4.29 0.71187
1 7 3 8 1 o 1691.5344 1701.5841 6.61 0.71075
5 5 0 4 1 o 302.9101 300.1218 188.79 0.70880
2 6 4 8 1 o 2390.7966 2369.4050 6.62 0.70868
3 7 0 4 1 o 607.3274 606.8248 187.00 0.70794
2 4 10 12 2 o 14036.2988 14055.3438 183.62 0.70708
2 5 5 8 1 o 2.5853 2.5656 0.13 0.70623
6 2 2 8 1 o 588.2493 583.4249 6.52 0.70610
3 2 6 8 1 o 0.0019 0.0019 180.14 0.70385
1 4 6 8 1 o 0.3057 0.3004 180.13 0.70343
4 3 4 12 2 o 8438.4043 8020.7598 184.41 0.70216
5 5 1 8 1 o 1824.4531 1731.2737 6.78 0.70168
2 3 14 12 2 o 18295.0410 17872.8496 3.34 0.70090
3 7 1 8 1 o 1609.5822 1577.4332 186.81 0.70085
1 3 16 12 2 o 1691.3104 1692.1182 184.34 0.70049
6 3 1 8 1 o 37.4338 38.4909 0.14 0.69951
0 8 0 2 1 o 103.8291 106.2579 194.17 0.69912
5 2 0 12 2 o 11994.3584 12180.3545 4.06 0.69866
4 3 5 8 1 o 19.3754 19.8404 0.14 0.69584
5 4 3 8 1 o 0.0014 0.0014 0.13 0.69535
1 1 7 8 1 o 1714.5980 1739.8622 6.59 0.69516
4 6 2 8 1 o 2496.5649 2528.9226 186.33 0.69410
3 4 5 12 2 o 11.4150 11.5686 180.14 0.69406
0 6 6 6 2 o 3336.1907 3415.2122 5.10 0.69311
6 0 6 6 2 o 3336.1907 3415.2122 5.10 0.69311
0 8 1 4 1 o 2016.7804 2070.5876 6.22 0.69229
2 5 3 12 2 o 345.5747 363.0675 0.14 0.69068
5 2 3 12 2 o 345.5749 363.0676 0.14 0.69068
4 2 11 12 2 o 219.4848 202.5841 180.14 0.68821
6 1 3 8 1 o 0.0179 0.0164 180.14 0.68797
0 2 7 4 1 o 1346.5046 1227.4116 187.85 0.68719
2 7 3 8 1 o 0.0040 0.0037 0.14 0.68640
5 3 4 8 1 o 2176.2876 2077.3613 6.92 0.68540
1 8 1 8 1 o 13.4944 13.5310 0.14 0.68451
5 5 2 8 1 o 656.0289 660.8019 5.82 0.68154
3 7 2 8 1 o 695.8442 706.3328 6.34 0.68078
5 1 10 12 2 o 10262.1182 10417.8555 184.04 0.68077
2 4 6 8 1 o 150.4722 155.7504 13.05 0.67979
1 2 7 8 1 o 112.2136 116.2688 0.14 0.67959
6 3 2 8 1 o 21.9149 22.7060 180.14 0.67955
0 6 5 4 1 o 17.1996 17.8149 357.54 0.67947
0 1 20 6 2 o 8994.9531 9205.0098 3.58 0.67886
3 3 6 8 1 o 1946.9131 1964.3120 187.06 0.67753
3 3 12 12 2 o 246.0775 252.4226 357.89 0.67720
0 3 18 6 2 o 13999.4131 15278.2627 182.81 0.67607
3 0 18 6 2 o 13999.4131 15278.2627 182.81 0.67607
4 0 16 6 2 o 920.6999 962.6862 185.50 0.67488
4 3 7 12 2 o 10.8057 10.4216 0.14 0.67375
0 8 2 4 1 o 788.7824 747.0697 5.26 0.67292
6 2 3 8 1 o 1047.4724 992.9356 188.60 0.67287
4 5 4 8 1 o 20.6233 19.7795 0.14 0.67247
2 1 7 8 1 o 3.4645 3.3414 180.14 0.67232
3 1 17 12 2 o 39.3305 38.0086 180.14 0.67227
1 6 5 8 1 o 122.8411 119.3159 180.14 0.67212
4 0 6 4 1 o 3372.7676 3328.8945 185.42 0.67052
6 4 0 4 1 o 227.8667 227.1924 190.70 0.67012
3 6 4 8 1 o 6.3824 6.4144 180.14 0.66974
2 8 0 4 1 o 1087.7200 1082.7725 184.37 0.66867
5 1 5 8 1 o 1420.9835 1411.3912 187.13 0.66840
2 5 6 12 2 o 8075.6948 8023.7920 3.25 0.66827
5 2 6 12 2 o 8075.6948 8023.7920 3.25 0.66827
3 5 5 8 1 o 1737.2898 1755.4250 6.53 0.66767
1 8 2 8 1 o 103.6457 109.3412 180.14 0.66578
4 1 6 8 1 o 0.0348 0.0367 0.14 0.66575
1 7 4 8 1 o 583.5048 585.2552 186.85 0.66463
1 6 1 12 2 o 59.7209 59.8541 180.14 0.66460
6 4 1 8 1 o 1471.7822 1472.1854 186.88 0.66409
1 5 11 12 2 o 322.4977 323.5749 180.14 0.66388
2 8 1 8 1 o 1439.3557 1488.1482 7.11 0.66268
2 1 19 12 2 o 73.4105 76.4281 180.14 0.66247
4 6 3 8 1 o 148.1580 154.3134 1.01 0.66245
6 1 2 12 2 o 1255.9944 1316.1818 182.90 0.66228
3 4 8 12 2 o 6010.5356 6371.8340 2.94 0.66193
4 4 5 8 1 o 1465.0831 1579.0941 186.62 0.66096
1 4 15 12 2 o 497.7899 536.6064 180.14 0.66022
4 1 15 12 2 o 497.7900 536.6065 180.14 0.66022
2 2 7 8 1 o 2018.5739 2119.3228 185.84 0.65821
1 5 6 8 1 o 383.9279 404.4702 7.23 0.65814
1 3 7 8 1 o 0.0199 0.0221 39.01 0.65581
2 0 20 6 2 o 5978.9512 6504.4507 4.08 0.65548
5 2 5 8 1 o 78.0571 80.6551 0.14 0.65452
1 6 4 12 2 o 7550.8511 7641.9102 184.19 0.65324
2 2 18 12 2 o 5084.7705 5139.6328 184.58 0.65297
5 0 14 6 2 o 13813.6895 13865.2188 3.50 0.65223
4 2 6 8 1 o 436.7044 437.4702 7.14 0.65203
5 4 4 8 1 o 72.9499 73.0514 0.14 0.65199
3 2 16 12 2 o 2777.6384 2779.6794 183.17 0.65189
5 5 3 8 1 o 1866.3142 1868.6816 186.22 0.65151
2 6 5 8 1 o 50.6237 50.7422 181.63 0.65141
3 7 3 8 1 o 1705.2960 1732.2178 6.20 0.65084
6 0 4 4 1 o 2324.0818 2417.1633 6.21 0.65024
2 4 13 12 2 o 158.6950 165.3519 0.14 0.65020
7 1 0 4 1 o 223.8638 235.2235 189.99 0.65001
6 3 3 8 1 o 0.0194 0.0206 180.14 0.64977
4 7 1 8 1 o 20.0253 21.3393 0.14 0.64965
5 6 1 8 1 o 68.6082 71.6539 0.14 0.64784
6 4 2 8 1 o 730.5850 744.5258 5.81 0.64694
6 1 5 12 2 o 53.3992 54.2078 180.14 0.64670
6 1 4 8 1 o 29.0618 29.0364 0.14 0.64589
2 8 2 8 1 o 214.5812 213.0082 9.48 0.64564
3 4 6 8 1 o 0.2364 0.2327 0.14 0.64520
2 7 4 8 1 o 1.5858 1.5733 0.14 0.64459
7 1 1 8 1 o 1694.4005 1687.9019 186.37 0.64450
0 8 3 4 1 o 1166.3694 1210.5311 187.71 0.64397
3 1 7 8 1 o 1454.1302 1517.0088 6.67 0.63880
2 5 6 8 1 o 0.0115 0.0120 0.14 0.63866
1 8 3 8 1 o 0.0073 0.0073 180.14 0.63770
2 3 7 8 1 o 4.7320 4.2216 180.14 0.63654
4 3 10 12 2 o 15388.9834 13215.6152 183.34 0.63591
2 5 9 12 2 o 311.0354 268.7088 180.14 0.63533
5 2 9 12 2 o 311.0355 268.7089 180.14 0.63533
1 2 20 12 2 o 6572.7192 6172.9985 4.03 0.63435
4 7 2 8 1 o 5.9795 6.0561 180.14 0.63357
1 1 21 12 2 o 648.6367 661.7405 0.14 0.63347
6 2 4 8 1 o 407.0174 419.1765 187.14 0.63335
5 3 5 8 1 o 3.6496 3.7973 357.47 0.63320
7 0 2 4 1 o 43.9381 46.8535 0.14 0.63280
0 4 7 4 1 o 1273.9791 1398.7949 6.81 0.63230
7 2 1 8 1 o 40.6067 45.3420 0.14 0.63204
5 6 2 8 1 o 4.1616 4.6970 0.14 0.63189
4 2 14 12 2 o 8818.0430 10329.1387 3.89 0.63141
4 3 6 8 1 o 0.0195 0.0236 180.15 0.63095
3 8 1 8 1 o 8.6272 10.5817 180.15 0.63052
1 6 7 12 2 o 40.3484 49.2403 0.15 0.63018
4 4 0 6 2 o 7625.4448 9106.0410 4.18 0.62977
5 1 13 12 2 o 225.9487 266.2515 0.15 0.62957
2 3 17 12 2 o 81.7381 93.2244 180.15 0.62896
7 1 2 8 1 o 536.2148 608.5458 6.10 0.62879
3 2 7 8 1 o 85.4150 91.1390 180.15 0.62666
1 4 7 8 1 o 2.7592 2.9188 0.15 0.62636
6 5 1 8 1 o 15.0047 15.5911 180.15 0.62559
4 6 4 8 1 o 1821.3146 1852.8088 6.86 0.62464
4 4 3 12 2 o 260.9117 264.3203 180.15 0.62390
4 5 5 8 1 o 8.1689 8.0549 180.15 0.62296
3 5 1 12 2 o 101.1404 98.8862 180.15 0.62267
3 4 11 12 2 o 8.0206 7.7747 0.15 0.62208
6 4 3 8 1 o 1388.1857 1349.5430 6.84 0.62109
1 3 19 12 2 o 29.1359 28.3755 0.15 0.62092
3 6 5 8 1 o 96.2213 93.8486 0.15 0.62079
0 7 2 6 2 o 2207.4873 2153.7483 182.14 0.62076
5 3 2 12 2 o 195.8698 191.1016 186.85 0.62076
6 1 8 12 2 o 3909.4670 3828.5142 3.49 0.62047
0 0 8 2 1 o 1303.7708 1279.6752 8.20 0.62031
2 8 3 8 1 o 1657.8187 1636.7611 186.46 0.61993
3 3 15 12 2 o 1.6417 1.6258 0.15 0.61907
0 6 6 4 1 o 1471.3458 1444.6752 187.70 0.61866
1 0 22 6 2 o 1382.7806 1350.0629 4.30 0.61845
7 3 0 4 1 o 1280.7148 1239.5591 8.30 0.61750
7 2 2 8 1 o 0.3272 0.3186 0.15 0.61720
1 7 5 8 1 o 1248.3038 1232.3403 187.04 0.61671
1 9 0 4 1 o 1527.0909 1543.0768 7.42 0.61580
3 8 2 8 1 o 85.3078 86.2457 0.15 0.61578
5 5 4 8 1 o 491.6891 502.2031 186.19 0.61544
3 7 4 8 1 o 500.2272 522.6137 186.84 0.61488
1 0 8 4 1 o 109.2564 115.0432 0.15 0.61470
6 3 4 8 1 o 17.3361 18.7913 180.15 0.61397
5 0 6 4 1 o 0.1559 0.1692 0.15 0.61394
0 6 12 6 2 o 114.7225 124.5920 357.30 0.61391
6 0 12 6 2 o 114.7225 124.5920 357.30 0.61391
3 5 4 12 2 o 8102.2349 8991.7422 183.60 0.61330
7 0 4 6 2 o 3577.5171 3970.2764 185.34 0.61330
1 6 6 8 1 o 0.0141 0.0158 180.15 0.61310
7 3 1 8 1 o 17.4756 19.8053 181.29 0.61278
1 5 14 12 2 o 9158.9717 10514.1250 3.72 0.61246
0 5 16 6 2 o 1940.8879 2248.0229 183.26 0.61218
6 5 2 8 1 o 31.8510 36.7912 180.15 0.61119
1 9 1 8 1 o 2.9705 3.4242 188.38 0.61111
1 1 8 8 1 o 341.4930 392.5757 187.40 0.61102
5 1 6 8 1 o 580.8593 648.5599 5.78 0.61027
3 5 6 8 1 o 471.9654 515.3046 6.07 0.60972
2 4 7 8 1 o 1013.2971 1098.7980 7.46 0.60950
4 7 3 8 1 o 0.0108 0.0117 180.15 0.60923
0 8 4 4 1 o 547.0706 588.1722 185.50 0.60907
5 3 5 12 2 o 86.9657 90.1383 180.15 0.60788
3 3 7 8 1 o 6.5703 6.8081 2.08 0.60787
5 6 3 8 1 o 0.0381 0.0392 180.15 0.60773
4 4 6 12 2 o 4796.4351 4828.4727 3.72 0.60724
5 4 5 8 1 o 2.0517 2.0475 0.15 0.60657
0 2 8 4 1 o 392.7399 394.0681 187.11 0.60559
7 1 3 8 1 o 767.3898 780.1965 8.87 0.60498
4 4 6 8 1 o 918.0707 951.3246 4.90 0.60459
6 2 1 12 2 o 280.7579 293.0544 180.15 0.60448
1 8 4 8 1 o 83.7143 91.1689 180.15 0.60376
2 6 2 12 2 o 122.5511 136.5712 187.78 0.60273
5 7 0 4 1 o 522.5168 591.7614 186.33 0.60218
6 1 5 8 1 o 20.9192 24.0060 180.15 0.60165
0 2 22 6 2 o 1658.6042 1790.1343 3.62 0.60061
2 7 5 8 1 o 4.9803 5.3700 0.15 0.60060
1 2 8 8 1 o 0.7460 0.7843 0.15 0.60037
5 2 6 8 1 o 0.0012 0.0012 0.15 0.59966
4 1 7 8 1 o 10.9505 10.7242 0.15 0.59932
7 3 2 8 1 o 1772.1434 1734.7825 186.86 0.59923
1 6 10 12 2 o 8960.9863 8816.0059 183.77 0.59889
2 0 8 4 1 o 1962.2075 1938.9399 6.49 0.59874
5 7 1 8 1 o 1255.8755 1284.9473 186.72 0.59780
1 9 2 8 1 o 1506.3115 1549.6649 187.23 0.59767
3 1 20 12 2 o 5894.9634 6086.6729 3.77 0.59759
2 6 6 8 1 o 1643.0756 1724.9042 186.86 0.59726
4 8 0 4 1 o 60.2726 65.0604 196.15 0.59673
2 5 12 12 2 o 292.3213 318.4702 181.86 0.59646
5 2 12 12 2 o 292.3213 318.4702 181.86 0.59646
6 2 4 12 2 o 7542.1582 8214.1377 183.62 0.59589
1 4 18 12 2 o 3470.8887 3753.6116 184.77 0.59569
4 1 18 12 2 o 3470.8887 3753.6116 184.77 0.59569
2 9 1 8 1 o 0.9597 1.0245 0.15 0.59543
2 1 8 8 1 o 3.5621 3.7837 180.15 0.59534
2 4 16 12 2 o 1314.1570 1352.8618 184.01 0.59487
7 2 3 8 1 o 0.0246 0.0249 180.15 0.59463
3 5 7 12 2 o 82.9050 82.3243 0.15 0.59409
1 5 7 8 1 o 1118.4602 1109.6346 187.49 0.59375
4 3 13 12 2 o 6.5101 6.4740 180.15 0.59358
3 8 3 8 1 o 0.0058 0.0058 0.15 0.59336
4 8 1 8 1 o 1262.2308 1271.1154 7.05 0.59246
6 2 5 8 1 o 1368.4875 1382.9077 6.63 0.59148
2 6 5 12 2 o 262.6315 267.7545 180.15 0.59092
6 6 0 4 1 o 1570.9698 1606.8715 7.04 0.59067
6 4 4 8 1 o 565.6099 581.3074 186.10 0.58961
4 2 7 8 1 o 726.5464 754.5953 188.91 0.58926
6 5 3 8 1 o 0.0083 0.0086 0.15 0.58925
2 8 4 8 1 o 126.1677 137.5728 190.95 0.58862
7 4 1 8 1 o 1.0577 1.1613 0.15 0.58855
6 1 11 12 2 o 30.2763 37.3983 0.15 0.58730
6 6 1 8 1 o 24.5744 30.4454 181.92 0.58653
3 2 19 12 2 o 58.0635 70.8371 0.15 0.58631
0 7 8 6 2 o 3913.8901 4599.8188 2.97 0.58594
5 3 8 12 2 o 1277.1818 1501.0142 5.09 0.58594
2 2 8 8 1 o 286.0667 320.2292 187.65 0.58548
5 7 2 8 1 o 311.8486 340.2240 8.11 0.58520
4 6 5 8 1 o 10.9317 11.2106 357.24 0.58436
2 1 22 12 2 o 1374.4194 1399.3849 3.93 0.58424
3 4 7 8 1 o 2.3013 2.3388 180.15 0.58420
1 3 8 8 1 o 1350.5472 1355.6433 7.58 0.58379
5 3 6 8 1 o 1670.2793 1709.2518 186.75 0.58313
2 9 2 8 1 o 5.2920 5.4773 0.15 0.58297
4 4 9 12 2 o 183.8072 201.2109 0.15 0.58221
0 4 20 6 2 o 5743.6411 6264.6011 3.58 0.58145
2 2 21 12 2 o 372.3548 383.0715 180.15 0.58077
4 8 2 8 1 o 471.0679 464.4055 5.93 0.58018
4 7 4 8 1 o 5.2193 5.1295 180.15 0.57943
2 5 7 8 1 o 1.7980 1.7702 0.15 0.57933
3 4 14 12 2 o 4959.2920 4895.8960 4.99 0.57918
5 1 16 12 2 o 1690.8953 1675.9717 183.49 0.57894
7 0 4 4 1 o 39.9941 39.6973 0.15 0.57884
7 3 3 8 1 o 41.9328 41.7305 179.41 0.57851
6 2 7 12 2 o 246.5513 245.0240 0.15 0.57823
5 6 4 8 1 o 4.0107 3.9812 0.15 0.57814
7 1 0 12 2 o 6375.7646 6301.8193 4.46 0.57791
4 2 17 12 2 o 106.8082 104.2230 0.15 0.57729
1 9 3 8 1 o 6.5607 6.3921 5.87 0.57711
5 5 5 8 1 o 945.2717 921.9509 8.00 0.57681
7 4 2 8 1 o 41.1651 40.3350 180.15 0.57651
3 7 5 8 1 o 854.3815 839.9235 188.03 0.57635
7 1 4 8 1 o 478.1563 474.8902 186.41 0.57577
3 9 0 4 1 o 1621.9427 1613.9779 6.86 0.57560
6 3 5 8 1 o 31.0766 30.9245 180.15 0.57560
4 5 6 8 1 o 0.0392 0.0392 180.15 0.57511
3 0 8 4 1 o 91.8985 92.5494 180.15 0.57470
6 6 2 8 1 o 1225.4882 1236.9949 187.81 0.57461
4 3 7 8 1 o 13.4161 13.8218 0.15 0.57355
3 6 6 8 1 o 0.0124 0.0127 0.15 0.57339
7 1 3 12 2 o 130.0433 133.8171 180.15 0.57337
1 7 3 12 2 o 130.0434 133.8170 180.15 0.57337
0 0 24 2 2 o 3182.6628 3258.1609 185.98 0.57269
8 0 0 2 1 o 1731.9705 1773.2960 6.53 0.57264
3 9 1 8 1 o 7.3752 7.6843 185.32 0.57177
3 1 8 8 1 o 365.1822 381.4919 187.09 0.57169
0 8 5 4 1 o 1078.6989 1132.6185 7.23 0.57156
2 6 8 12 2 o 1159.7096 1253.3643 5.35 0.57070
1 7 6 8 1 o 358.3860 392.3810 7.39 0.57018
2 3 8 8 1 o 2.2587 2.4796 0.15 0.57007
3 5 10 12 2 o 4676.4712 4694.0327 184.74 0.56766
7 0 10 6 2 o 9130.4561 9164.7441 183.44 0.56766
1 8 5 8 1 o 10.9486 11.0176 180.15 0.56716
0 4 8 4 1 o 177.1702 178.4136 190.55 0.56702
7 2 4 8 1 o 0.2699 0.2718 0.16 0.56683
2 3 20 12 2 o 3206.6741 3222.8164 4.75 0.56656
8 1 1 8 1 o 32.1002 32.1793 180.15 0.56594
5 7 3 8 1 o 566.8234 568.8112 9.58 0.56585
3 8 4 8 1 o 73.1812 73.6001 0.15 0.56573
3 3 18 12 2 o 6525.7910 6745.8774 183.34 0.56493
7 5 0 4 1 o 557.5327 577.7696 185.38 0.56487
0 6 7 4 1 o 21.5839 22.8342 178.18 0.56428
2 9 3 8 1 o 0.0005 0.0006 180.15 0.56384
1 6 13 12 2 o 29.4863 31.3823 180.16 0.56314
3 2 8 8 1 o 0.5973 0.6337 180.16 0.56294
1 4 8 8 1 o 94.7096 99.8220 180.16 0.56272
1 5 17 12 2 o 161.1693 169.7443 0.16 0.56271
6 5 4 8 1 o 30.8659 31.4526 180.16 0.56216
5 4 6 8 1 o 0.1444 0.1469 180.15 0.56214
1 2 23 12 2 o 40.3165 40.1345 180.16 0.56184
4 8 3 8 1 o 780.7341 761.7948 188.65 0.56132
7 5 1 8 1 o 1114.2467 1087.5342 7.19 0.56125
6 0 6 4 1 o 714.2592 701.6016 190.12 0.56102
8 2 0 4 1 o 276.2374 271.5714 187.98 0.56100
3 9 2 8 1 o 1070.2343 1071.5591 188.19 0.56071
7 1 6 12 2 o 3358.1487 3461.9070 3.90 0.56036
1 7 6 12 2 o 3358.1479 3461.9062 3.90 0.56036
1 6 7 8 1 o 80.6205 84.8477 180.16 0.56005
0 10 0 2 1 o 198.4682 207.4415 190.22 0.55930
1 1 24 12 2 o 8148.7412 7926.0596 183.74 0.55844
6 1 6 8 1 o 0.0611 0.0586 180.16 0.55822
5 4 1 12 2 o 212.7240 203.5675 0.16 0.55818
7 4 3 8 1 o 0.0007 0.0006 180.16 0.55799
8 0 2 4 1 o 1038.5330 987.0538 188.50 0.55797
5 1 7 8 1 o 778.9554 739.7119 8.47 0.55789
5 3 11 12 2 o 66.5691 63.2648 0.16 0.55776
3 5 7 8 1 o 1027.9044 987.3220 187.49 0.55747
8 2 1 8 1 o 750.7144 721.9896 8.66 0.55745
2 7 6 8 1 o 0.0033 0.0032 180.15 0.55738
4 5 2 12 2 o 165.0968 165.8455 186.30 0.55681
6 6 3 8 1 o 45.1848 46.1240 178.79 0.55627
0 10 1 4 1 o 1114.6389 1133.8354 186.62 0.55578
5 2 15 12 2 o 154.2050 156.6662 0.16 0.55559
2 5 15 12 2 o 154.2050 156.6662 0.16 0.55559
6 4 5 8 1 o 795.8229 808.7120 187.99 0.55538
8 1 2 8 1 o 37.4035 38.0626 180.16 0.55522
1 3 22 12 2 o 672.1860 684.7155 5.15 0.55514
2 8 5 8 1 o 789.0148 812.5131 8.28 0.55455
6 2 10 12 2 o 3926.9285 4056.7324 184.90 0.55378
4 4 7 8 1 o 862.6693 887.5515 7.61 0.55354
7 3 4 8 1 o 1306.4750 1335.3893 7.26 0.55281
5 8 1 8 1 o 6.5312 6.7378 0.16 0.55234
4 4 12 12 2 o 120.4073 126.0154 182.57 0.55185
1 10 1 8 1 o 74.2406 77.9614 180.16 0.55173
1 9 4 8 1 o 1113.2711 1173.5125 7.71 0.55159
5 4 4 12 2 o 5096.5449 5395.1470 183.96 0.55141
6 1 14 12 2 o 4496.2842 4783.7773 4.68 0.55080
7 5 2 8 1 o 143.8440 153.0209 10.09 0.55078
4 3 16 12 2 o 291.9357 309.7504 187.34 0.55059
2 4 8 8 1 o 468.9170 495.1386 186.20 0.55040
6 2 6 8 1 o 279.4273 291.1168 7.57 0.55006
5 2 7 8 1 o 56.5623 58.1609 0.16 0.54975
6 3 0 12 2 o 7293.5386 7488.9526 3.81 0.54971
3 3 8 8 1 o 1167.2076 1189.6099 7.63 0.54920
6 7 1 8 1 o 33.2753 34.5396 180.16 0.54862
2 6 7 8 1 o 44.9159 47.5200 1.49 0.54790
4 5 5 12 2 o 178.1824 186.8691 0.16 0.54745
8 2 2 8 1 o 260.5057 271.0892 7.80 0.54719
4 7 5 8 1 o 17.3158 17.8709 180.16 0.54685
3 6 3 12 2 o 7.1900 7.2340 0.16 0.54579
6 3 3 12 2 o 7.1900 7.2340 0.16 0.54579
5 6 5 8 1 o 59.7481 60.0889 180.16 0.54577
0 10 2 4 1 o 412.8030 414.2962 7.08 0.54561
4 0 8 4 1 o 812.9438 815.2702 9.14 0.54544
1 1 9 8 1 o 848.2203 858.7883 187.69 0.54483
2 6 11 12 2 o 185.0465 189.1049 0.16 0.54457
4 6 6 8 1 o 892.1809 922.0991 188.57 0.54432
8 3 1 8 1 o 39.9141 41.7378 180.16 0.54410
2 4 19 12 2 o 75.6299 80.4576 180.16 0.54379
7 1 5 8 1 o 901.2476 959.8315 187.27 0.54377
8 0 2 6 2 o 124.5604 133.2917 186.75 0.54369
3 9 3 8 1 o 0.0612 0.0657 68.15 0.54363
2 10 0 4 1 o 459.8701 501.0063 186.43 0.54333
4 9 1 8 1 o 3.1035 3.4168 180.16 0.54293
4 1 8 8 1 o 11.4612 12.6180 0.16 0.54287
5 8 2 8 1 o 51.2723 55.3721 180.16 0.54236
4 0 22 6 2 o 377.3586 400.9590 6.43 0.54213
1 10 2 8 1 o 15.0090 15.5389 180.16 0.54178
5 7 4 8 1 o 241.8112 249.6676 188.79 0.54174
0 2 9 4 1 o 1547.6174 1544.0291 5.79 0.54097
7 1 9 12 2 o 104.4917 103.4043 0.16 0.54051
1 7 9 12 2 o 104.4917 103.4043 0.16 0.54051
2 10 1 8 1 o 492.2261 486.3115 189.77 0.54011
2 9 4 8 1 o 4.7818 4.7293 0.16 0.53997
5 0 20 6 2 o 2543.7751 2518.1062 4.96 0.53990
1 4 21 12 2 o 237.5290 237.9822 0.16 0.53936
4 1 21 12 2 o 237.5290 237.9822 0.16 0.53936
6 7 2 8 1 o 9.8338 9.9141 0.16 0.53883
1 5 8 8 1 o 246.8324 248.7710 187.76 0.53872
0 8 4 6 2 o 4889.9399 4926.7104 183.99 0.53865
8 1 3 8 1 o 0.0179 0.0180 0.16 0.53862
5 5 6 8 1 o 95.4148 96.1322 12.43 0.53820
3 7 6 8 1 o 228.2684 232.8324 9.03 0.53783
4 8 4 8 1 o 370.2270 379.1515 186.09 0.53775
5 4 7 12 2 o 162.6465 171.6822 180.16 0.53732
1 2 9 8 1 o 0.4525 0.4803 180.16 0.53724
6 3 6 8 1 o 0.0364 0.0387 0.16 0.53722
3 5 13 12 2 o 49.4259 53.3601 180.16 0.53694
5 3 7 8 1 o 4.6476 5.0206 178.16 0.53693
3 4 17 12 2 o 3.8601 4.1968 180.16 0.53657
7 2 5 8 1 o 35.7353 38.4489 180.16 0.53622
3 1 23 12 2 o 14.6575 15.3288 0.16 0.53582
4 2 8 8 1 o 252.4832 253.6642 187.88 0.53536
3 8 5 8 1 o 8.9884 8.9823 0.16 0.53529
7 4 4 8 1 o 35.9303 34.8965 180.16 0.53483
7 5 3 8 1 o 562.4427 543.0965 189.65 0.53456
8 3 2 8 1 o 26.0211 25.1242 0.16 0.53454
3 6 6 12 2 o 1507.6028 1455.5601 5.50 0.53453
6 3 6 12 2 o 1507.6028 1455.5601 5.50 0.53453
0 8 6 4 1 o 19.7391 19.2972 27.20 0.53393
2 1 9 8 1 o 0.0141 0.0139 0.16 0.53363
4 9 2 8 1 o 18.4026 18.3502 180.16 0.53344
6 6 4 8 1 o 926.0360 929.6966 8.36 0.53331
0 3 24 6 2 o 2436.0591 2513.9058 186.06 0.53287
3 0 24 6 2 o 2436.0591 2513.9058 186.06 0.53287
2 7 1 12 2 o 61.5670 64.3826 0.16 0.53264
7 6 1 8 1 o 32.6644 34.3428 180.16 0.53253
6 5 5 8 1 o 12.5440 13.2775 0.16 0.53226
3 4 8 8 1 o 77.5460 81.4612 0.16 0.53156
5 1 19 12 2 o 125.1802 131.4895 180.16 0.53155
7 2 2 12 2 o 255.1687 267.9244 184.63 0.53145
8 2 3 8 1 o 1043.0151 1096.7020 186.71 0.53128
4 5 8 12 2 o 1021.8828 1074.6775 5.15 0.53127
2 10 2 8 1 o 212.9948 228.3898 9.24 0.53076
4 5 7 8 1 o 5.5069 5.9384 180.16 0.53065
1 8 6 8 1 o 0.1725 0.1886 0.16 0.53034
3 2 22 12 2 o 1075.1322 1188.9500 3.66 0.53000
8 4 0 4 1 o 435.2698 482.4152 186.04 0.52992
0 10 3 4 1 o 233.5526 259.5237 13.10 0.52983
3 6 7 8 1 o 61.5990 69.2829 0.16 0.52930
4 2 20 12 2 o 2866.4255 2878.1172 4.48 0.52791
2 5 8 8 1 o 4.2163 4.2150 0.16 0.52788
8 4 1 8 1 o 768.3106 718.6174 188.02 0.52692
5 8 3 8 1 o 0.0040 0.0038 180.16 0.52685
1 7 7 8 1 o 758.0198 710.9993 7.98 0.52677
2 7 4 12 2 o 3989.8816 3745.1094 184.38 0.52674
0 6 18 6 2 o 4930.4932 4656.5503 183.56 0.52660
6 0 18 6 2 o 4930.4932 4656.5503 183.56 0.52660
2 2 9 8 1 o 284.2711 270.1787 13.32 0.52649
1 10 3 8 1 o 0.0455 0.0437 0.16 0.52632
0 7 14 6 2 o 2788.1584 2697.8447 5.73 0.52621
5 3 14 12 2 o 5794.3306 5606.6411 4.02 0.52621
1 6 16 12 2 o 483.9796 472.9897 185.53 0.52604
1 3 9 8 1 o 2.7408 2.6545 182.85 0.52526
6 2 13 12 2 o 166.1152 159.7967 180.16 0.52515
0 1 26 6 2 o 9.9695 9.4123 7.45 0.52480
7 3 5 8 1 o 14.3443 13.4972 181.35 0.52431
6 7 3 8 1 o 0.0197 0.0194 0.16 0.52362
7 6 2 8 1 o 2.3138 2.2786 180.16 0.52356
4 3 8 8 1 o 8.4459 8.3433 180.16 0.52350
7 2 5 12 2 o 59.4704 59.2114 0.16 0.52330
1 9 5 8 1 o 1.8946 1.8881 189.71 0.52326
3 10 1 8 1 o 62.9608 63.7692 0.16 0.52226
3 9 4 8 1 o 787.6658 801.5004 8.79 0.52214
2 1 25 12 2 o 27.2931 28.6041 0.16 0.52156
2 2 24 12 2 o 5342.1528 5643.8774 183.94 0.52133
6 4 6 8 1 o 61.4657 64.3418 16.12 0.52067
5 4 7 8 1 o 1.4670 1.5245 0.16 0.52041
2 8 6 8 1 o 534.8948 558.7985 4.87 0.51999
8 0 4 4 1 o 696.2761 729.7332 9.17 0.51993
8 0 8 6 2 o 882.4976 930.5982 5.32 0.51983
8 3 3 8 1 o 0.0220 0.0234 0.16 0.51968
4 4 15 12 2 o 106.3655 120.5337 180.16 0.51901
4 9 3 8 1 o 0.0017 0.0019 0.17 0.51867
8 4 2 8 1 o 140.5760 163.1736 10.05 0.51823
8 1 4 8 1 o 28.6959 33.1225 180.16 0.51769
5 4 10 12 2 o 2816.1345 3225.8054 184.89 0.51753
6 1 7 8 1 o 15.9152 17.9247 180.16 0.51729
3 6 9 12 2 o 5.0215 5.6226 180.16 0.51722
6 3 9 12 2 o 5.0215 5.6226 180.16 0.51722
1 5 20 12 2 o 1989.6777 2121.7483 5.00 0.51669
2 7 7 8 1 o 3.7836 4.0119 0.16 0.51662
0 6 8 4 1 o 907.0900 948.6468 7.99 0.51642
3 1 9 8 1 o 501.3452 523.7250 189.27 0.51640
3 3 21 12 2 o 0.7181 0.7437 180.16 0.51621
2 10 3 8 1 o 1130.2491 1169.8885 6.04 0.51620
7 1 12 12 2 o 94.6441 97.2952 182.61 0.51596
1 7 12 12 2 o 94.6442 97.2952 182.61 0.51596
6 8 0 4 1 o 427.8486 437.1487 185.43 0.51562
2 5 18 12 2 o 1919.4495 1954.6542 185.22 0.51546
5 2 18 12 2 o 1919.4495 1954.6542 185.22 0.51546
2 3 9 8 1 o 0.0179 0.0181 0.16 0.51520
2 6 14 12 2 o 5138.2261 5177.3159 4.03 0.51509
5 7 5 8 1 o 755.4235 754.4124 187.55 0.51483
2 7 7 12 2 o 55.1432 54.4849 180.16 0.51443
5 9 0 4 1 o 562.7264 554.9084 10.37 0.51430
7 5 4 8 1 o 107.7021 105.9664 191.25 0.51409
3 10 2 8 1 o 12.9727 12.7341 0.16 0.51380
2 0 26 6 2 o 71.5769 70.2444 2.72 0.51377
6 1 17 12 2 o 20.9629 20.5716 180.16 0.51376
5 0 8 4 1 o 61.7838 60.5643 0.16 0.51366
4 7 6 8 1 o 0.0110 0.0107 0.17 0.51362
2 9 5 8 1 o 0.9107 0.8883 180.16 0.51332
7 0 6 4 1 o 0.0853 0.0831 180.16 0.51321
1 6 8 8 1 o 5.8208 5.6655 180.16 0.51317
2 3 23 12 2 o 40.0830 38.9849 0.16 0.51311
0 4 9 4 1 o 552.5391 536.7324 189.00 0.51295
6 8 1 8 1 o 626.3731 608.3447 8.80 0.51286
5 6 6 8 1 o 0.0086 0.0083 180.16 0.51272
5 9 1 8 1 o 0.1211 0.1199 220.09 0.51156
5 1 8 8 1 o 160.0100 158.6087 189.75 0.51151
4 8 5 8 1 o 746.2490 742.6819 7.94 0.51141
3 5 8 8 1 o 149.2485 150.4881 189.39 0.51118
8 2 4 8 1 o 206.9463 208.9249 188.24 0.51117
7 1 6 8 1 o 73.4349 74.7123 14.19 0.51107
6 2 7 8 1 o 829.0544 866.6964 187.22 0.51078
8 1 1 12 2 o 195.0012 212.0693 0.16 0.51032
4 5 11 12 2 o 122.6373 133.6530 180.16 0.50999
3 2 9 8 1 o 0.3629 0.3940 0.16 0.50992
0 10 4 4 1 o 304.8342 329.9316 187.37 0.50988
1 4 9 8 1 o 0.0118 0.0126 180.16 0.50976
7 6 3 8 1 o 0.0185 0.0193 0.17 0.50957
4 3 19 12 2 o 3.2273 3.2675 0.16 0.50935
1 8 2 12 2 o 54.5127 54.4952 189.35 0.50926
7 2 8 12 2 o 1171.7045 1145.5555 4.63 0.50910
7 4 5 8 1 o 1.0586 1.0103 180.16 0.50889
4 4 8 8 1 o 121.4634 116.8296 191.61 0.50815
0 5 22 6 2 o 1014.6556 998.2728 3.69 0.50799
6 6 5 8 1 o 19.5629 20.7149 182.01 0.50758
5 8 4 8 1 o 42.7756 48.3283 180.16 0.50722
8 5 1 8 1 o 15.6379 18.0721 0.16 0.50706
0 8 10 6 2 o 2432.3469 2846.7324 185.01 0.50694
9 1 0 4 1 o 393.9649 462.0952 185.70 0.50692
1 10 4 8 1 o 11.4489 13.5644 180.16 0.50675
7 7 0 4 1 o 111.1244 129.7953 191.28 0.50629
4 6 7 8 1 o 13.2360 15.2878 178.02 0.50618
1 11 0 4 1 o 142.6859 146.6886 188.76 0.50535
5 2 8 8 1 o 0.4115 0.4166 0.17 0.50521
8 1 4 12 2 o 3865.5149 3882.6321 184.00 0.50512
6 8 2 8 1 o 90.2127 89.0471 11.61 0.50483
7 2 6 8 1 o 0.0006 0.0006 180.17 0.50478
8 4 3 8 1 o 547.6400 537.7647 8.82 0.50466
3 5 16 12 2 o 987.8798 968.2535 183.63 0.50450
7 0 16 6 2 o 112.1663 109.9379 190.50 0.50450
6 7 4 8 1 o 8.8335 8.6596 0.17 0.50434
9 1 1 8 1 o 453.1845 444.4065 189.79 0.50429
3 8 6 8 1 o 0.0000 0.1549 180.17 0.50401
5 5 0 6 2 o 0.0000 3022.9329 5.08 0.50381
2 6 8 8 1 o 0.0000 728.5712 8.85 0.50377
7 7 1 8 1 o 0.0000 405.6528 190.01 0.50367
5 9 2 8 1 o 0.0000 953.6128 187.74 0.50360
1 2 26 12 2 o 0.0000 38.0604 3.51 0.50341
1 11 1 8 1 o 0.0000 664.6646 8.30 0.50275
4 10 0 4 1 o 0.0000 136.5103 191.21 0.50257
1 8 5 12 2 o 0.0000 195.2766 0.17 0.50208
6 5 6 8 1 o 0.0000 0.0663 0.17 0.50148
5 5 7 8 1 o 0.0000 515.6645 189.21 0.50124
3 7 7 8 1 o 0.0000 468.6401 9.25 0.50094
8 3 4 8 1 o 0.0000 21.9643 0.17 0.50082
5 5 3 12 2 o 0.0000 19.3330 0.17 0.50079
3 10 3 8 1 o 0.0000 0.0359 180.17 0.50056
1 3 25 12 2 o 0.0000 10.9902 180.17 0.50055
2 4 9 8 1 o 0.0000 646.1493 187.98 0.50055
6 3 7 8 1 o 0.0000 23.3962 180.17 0.50045
4 6 1 12 2 o 0.0000 1.9995 180.17 0.50016
4 10 1 8 1 o 0.0000 750.2772 187.24 0.50001
4 9 4 8 1 o 0.0000 16.0457 180.17 0.49991
3 3 9 8 1 o 0.0000 6.7576 358.58 0.49964
8 5 2 8 1 o 0.0000 43.0852 0.17 0.49930
6 4 2 12 2 o 0.0000 596.6341 182.82 0.49917
1 1 27 12 2 o 0.0000 233.8073 180.17 0.49897
9 0 2 4 1 o 0.0000 15.2123 180.17 0.49863
9 2 1 8 1 o 0.0000 14.7306 180.17 0.49825
2 4 22 12 2 o 0.0000 611.0949 4.50 0.49796
3 9 5 8 1 o 0.0000 4.8035 185.80 0.49792
0 8 7 4 1 o 0.0000 690.5375 187.98 0.49778
2 10 4 8 1 o 0.0000 167.8785 189.99 0.49770
