#------------------------------------------------------------------------------
#$Date: 2022-02-01 11:13:54 +0200 (Tue, 01 Feb 2022) $
#$Revision: 272388 $
#$URL: file:///home/coder/svn-repositories/cod/cif/1/56/62/1566234.cif $
#------------------------------------------------------------------------------
#
# This file is available in the Crystallography Open Database (COD),
# http://www.crystallography.net/
#
# All data on this site have been placed in the public domain by the
# contributors.
#
data_1566234
loop_
_publ_author_name
'Gwladys Steciuk'
'Radek Skoda'
'Jan Rohlicek'
'Jakub Plasil'
_publ_section_title
;
 Crystal structure of the uranyl-molybdate mineral calcurmolite
 Ca[(UO2)3(MoO4)2(OH)4](H2O)5 : insights from a precession
 electron-diffraction tomography study
;
_journal_name_full               'Journal of GeoSciences'
_journal_page_first              15
_journal_page_last               25
_journal_paper_doi               10.3190/jgeosci.297
_journal_volume                  65
_journal_year                    2020
_chemical_formula_sum            'Ca0.458 Mo0.8 O8.315 U1.2'
_chemical_formula_weight         513.8
_space_group_IT_number           1
_space_group_name_Hall           'P 1'
_space_group_name_H-M_alt        'P 1'
_space_group_ssg_name            P1(\a\b0)0
_symmetry_cell_setting           triclinic
_cell_angle_alpha                84.4274
_cell_angle_beta                 112.4992
_cell_angle_gamma                133.9444
_cell_formula_units_Z            2
_cell_length_a                   3.9375
_cell_length_b                   11.2613
_cell_length_c                   14.195
_cell_measurement_temperature    293
_cell_modulation_dimension       1
_cell_volume                     405.053
_diffrn_ambient_temperature      293
_diffrn_measured_fraction_theta_full 0.77
_diffrn_measured_fraction_theta_max 0.76
_diffrn_radiation_probe          electron
_diffrn_radiation_type           electron
_diffrn_radiation_wavelength     0.0335
_diffrn_reflns_av_R_equivalents  0.3904
_diffrn_reflns_av_unetI/netI     0.2605
_diffrn_reflns_limit_h_max       6
_diffrn_reflns_limit_h_min       -6
_diffrn_reflns_limit_index_m_1_max 2
_diffrn_reflns_limit_index_m_1_min -2
_diffrn_reflns_limit_k_max       15
_diffrn_reflns_limit_k_min       -15
_diffrn_reflns_limit_l_max       19
_diffrn_reflns_limit_l_min       -19
_diffrn_reflns_number            29913
_diffrn_reflns_theta_full        1.33
_diffrn_reflns_theta_max         1.34
_diffrn_reflns_theta_min         0.08
_exptl_absorpt_coefficient_mu    0
_exptl_crystal_density_diffrn    4.2125
_exptl_crystal_F_000             454
_refine_ls_abs_structure_details
'  8577 of Friedel pairs used in the refinement'
_refine_ls_extinction_method     none
_refine_ls_goodness_of_fit_gt    12.59
_refine_ls_goodness_of_fit_ref   6.15
_refine_ls_number_constraints    17
_refine_ls_number_parameters     57
_refine_ls_number_reflns         17442
_refine_ls_number_restraints     172
_refine_ls_R_factor_all          0.6806
_refine_ls_R_factor_gt           0.3825
_refine_ls_shift/su_max          0.5767
_refine_ls_shift/su_mean         0.1028
_refine_ls_structure_factor_coef F
_refine_ls_weighting_details     w=1/(\s^2^(F)+0.0001F^2^)
_refine_ls_weighting_scheme      sigma
_refine_ls_wR_factor_gt          0.3834
_refine_ls_wR_factor_ref         0.3919
_reflns_number_gt                3953
_reflns_number_total             17442
_reflns_threshold_expression     I>3\s(I)
_cod_data_source_file            jgeosci.297_calcurmolite_P1_modulatedcell.cif
_cod_data_source_block           I
_cod_database_code               1566234
_jana_cell_commen_supercell_matrix_1_1 5
_jana_cell_commen_supercell_matrix_1_2 0
_jana_cell_commen_supercell_matrix_1_3 0
_jana_cell_commen_supercell_matrix_2_1 0
_jana_cell_commen_supercell_matrix_2_2 1
_jana_cell_commen_supercell_matrix_2_3 0
_jana_cell_commen_supercell_matrix_3_1 0
_jana_cell_commen_supercell_matrix_3_2 0
_jana_cell_commen_supercell_matrix_3_3 1
_jana_cell_commen_t_section_1    0
loop_
_space_group_symop_id
_space_group_symop_operation_xyz
1 x,y,z
loop_
_space_group_symop_ssg_id
_space_group_symop_ssg_operation_algebraic
1 x1,x2,x3,x4
loop_
_atom_site_label
_atom_site_type_symbol
_atom_site_fract_x
_atom_site_fract_y
_atom_site_fract_z
_atom_site_adp_type
_atom_site_U_iso_or_equiv
_atom_site_site_symmetry_multiplicity
_atom_site_occupancy
_atom_site_calc_flag
_atom_site_refinement_flags
_atom_site_disorder_assembly
_atom_site_disorder_group
U1_1 U 0.506158 0.954936 0.373319 Uiso 0.0164(4) 1 0.6 d . . .
U1_2 U -0.4966(16) -0.9602(5) -0.3912(3) Uiso 0.0164(4) 1 0.6 d . . .
Mo1_1 Mo 0.506158 0.954936 0.373319 Uiso 0.0164(4) 1 0.4 d . . .
Mo1_2 Mo -0.4966(16) -0.9602(5) -0.3912(3) Uiso 0.0164(4) 1 0.4 d . . .
U2_1 U 0.7517(19) 0.9404(6) 0.0800(4) Uiso 0.0164(4) 1 0.6 d . . .
U2_2 U -0.8693(17) -0.9754(6) -0.1270(3) Uiso 0.0164(4) 1 0.6 d . . .
Mo2_1 Mo 0.7517(19) 0.9404(6) 0.0800(4) Uiso 0.0164(4) 1 0.4 d . . .
Mo2_2 Mo -0.8693(17) -0.9754(6) -0.1270(3) Uiso 0.0164(4) 1 0.4 d . . .
O1a_1 O 0.006(2) 0.2122(6) 0.374(2) Uiso 0.075(3) 1 1 d . . .
O1a_2 O -0.0321(10) -0.2034(6) -0.422(2) Uiso 0.075(3) 1 1 d . . .
O1b_1 O -0.0016(10) 0.7229(7) 0.369(2) Uiso 0.075(3) 1 1 d . . .
O1b_2 O 0.0263(10) -0.7229(6) -0.369(2) Uiso 0.075(3) 1 1 d . . .
O2a_1 O 0.2663(10) 1.1917(7) 0.123(2) Uiso 0.075(3) 1 1 d . . .
O2a_2 O -0.4021(10) -1.2084(7) -0.198(2) Uiso 0.075(3) 1 1 d . . .
O2b_1 O 0.291(3) 0.6972(6) 0.0564(16) Uiso 0.075(3) 1 1 d . . .
O2b_2 O -0.3426(10) -0.7486(6) -0.044(2) Uiso 0.075(3) 1 1 d . . .
O5a_1 O 1.1229(11) 0.9597(5) 0.2324(5) Uiso 0.075(3) 1 0.4 d . . .
O5a_2 O -0.948(4) -0.9300(5) -0.2544(5) Uiso 0.075(3) 1 0.4 d . . .
O5b_1 O 0.330(3) 0.9182(5) 0.2265(5) Uiso 0.075(3) 1 0.4 d . . .
O5b_2 O -0.317(3) -0.9383(5) -0.2609(6) Uiso 0.075(3) 1 0.4 d . . .
O5c_1 O 0.602(3) 0.8865(5) 0.2231(6) Uiso 0.075(3) 1 0.4 d . . .
O5c_2 O -0.573(3) -0.9107(5) -0.2438(6) Uiso 0.075(3) 1 0.4 d . . .
O5d_1 O 0.515(3) 0.9107(5) 0.2291(6) Uiso 0.075(3) 1 0.2 d . . .
O5d_2 O -0.527(3) -0.9321(5) -0.2616(6) Uiso 0.075(3) 1 0.2 d . . .
O3_1 O 0.2167(13) 0.0220(3) 0.4328(5) Uiso 0.075(3) 1 1 d . . .
O3_2 O -0.1301(18) 0.0119(3) -0.4443(5) Uiso 0.075(3) 1 1 d . . .
O4_1 O 0.1171(17) 0.8914(3) 0.0179(5) Uiso 0.075(3) 1 1 d . . .
O4_2 O -0.293(2) -1.0016(3) -0.0730(4) Uiso 0.075(3) 1 1 d . . .
Ow1_1 O -0.436(9) 0.526(3) 0.1326(17) Uiso 0.1038 1 1 d . . .
Ow1_2 O 0.675(9) -0.485(2) -0.1531(13) Uiso 0.1038 1 1 d . . .
Ca1_1 Ca 0.263(7) 0.384(2) 0.2582(14) Uiso 0.1038 1 0.4 d . . .
Ca1_2 Ca -0.366(7) -0.385(2) -0.3038(14) Uiso 0.1038 1 0.4 d . . .
Ow2_1 O 0.099(7) 0.484(3) 0.3927(15) Uiso 0.1038 1 1 d . . .
Ow2_2 O -0.148(8) -0.464(3) -0.4188(14) Uiso 0.1038 1 1 d . . .
loop_
_atom_site_displace_Fourier_atom_site_label
_atom_site_displace_Fourier_axis
_atom_site_displace_Fourier_wave_vector_seq_id
_atom_site_displace_Fourier_param_cos
_atom_site_displace_Fourier_param_sin
U1_1 x 1 0 0
U1_1 y 1 0 0
U1_1 z 1 0.0171(5) -0.0158(5)
U1_2 x 1 0 0
U1_2 y 1 0 0
U1_2 z 1 -0.0059(5) -0.0087(4)
Mo1_1 x 1 0 0
Mo1_1 y 1 0 0
Mo1_1 z 1 0.0171(5) -0.0158(5)
Mo1_2 x 1 0 0
Mo1_2 y 1 0 0
Mo1_2 z 1 -0.0059(5) -0.0087(4)
U2_1 x 1 0 0
U2_1 y 1 0 0
U2_1 z 1 -0.0296(5) -0.0209(5)
U2_2 x 1 0 0
U2_2 y 1 0 0
U2_2 z 1 0.0022(5) 0.0078(4)
Mo2_1 x 1 0 0
Mo2_1 y 1 0 0
Mo2_1 z 1 -0.0296(5) -0.0209(5)
Mo2_2 x 1 0 0
Mo2_2 y 1 0 0
Mo2_2 z 1 0.0022(5) 0.0078(4)
loop_
_atom_site_occ_special_func_atom_site_label
_atom_site_occ_special_func_crenel_c
_atom_site_occ_special_func_crenel_w
U1_1 0.4 0.6
U1_2 0.5989(6) 0.6
Mo1_1 0.9 0.4
Mo1_2 0.0989(9) 0.4
U2_1 0.5982(8) 0.6
U2_2 0.5498(11) 0.6
Mo2_1 1.0982(11) 0.4
Mo2_2 0.0498(13) 0.4
O5a_1 1.2467(16) 0.4
O5a_2 0.018(2) 0.4
O5b_1 0.9296(12) 0.4
O5b_2 0.1708(15) 0.4
O5c_1 0.4383(15) 0.4
O5c_2 0.7681(17) 0.4
O5d_1 0.7037(13) 0.2
O5d_2 0.3868(16) 0.2
loop_
_atom_type_symbol
_atom_type_scat_source
Ca International_Tables_Vol_C
Mo International_Tables_Vol_C
O International_Tables_Vol_C
U International_Tables_Vol_C
loop_
_cell_wave_vector_seq_id
_cell_wave_vector_x
_cell_wave_vector_y
_cell_wave_vector_z
1 0.400000 0.000000 0.000000
loop_
_refln_index_h
_refln_index_k
_refln_index_l
_refln_index_m_1
_refln_F_squared_calc
_refln_F_squared_meas
_refln_F_squared_sigma
_refln_observed_status
1 0 0 -2 0.30 -0.94 1.25 <
-1 0 0 2 0.30 -23.40 1.56 <
0 0 0 1 58.19 20.60 0.94 o
0 0 0 -1 58.19 20.91 0.94 o
1 0 0 -1 5.94 1.56 0.94 <
-1 0 0 1 5.94 2.18 0.94 <
0 0 0 2 2.32 7.49 1.25 o
0 0 0 -2 2.32 3.43 1.25 <
1 0 0 0 54.88 16.23 1.25 o
-1 0 0 0 54.88 7.18 1.25 o
2 0 0 -2 0.47 3.12 1.25 <
-2 0 0 2 0.47 0.31 1.25 <
1 0 0 1 3.37 3.74 1.25 o
-1 0 0 -1 3.37 5.93 1.25 o
2 0 0 -1 0.19 4.06 1.25 o
-2 0 0 1 0.19 0.94 1.25 <
1 0 0 2 0.04 0.62 1.25 <
-1 0 0 -2 0.04 1.25 1.25 <
2 0 0 0 31.96 2.81 1.56 <
-2 0 0 0 31.96 -0.62 1.56 <
3 0 0 -2 0.09 -1.87 1.56 <
-3 0 0 2 0.09 0.31 1.56 <
2 0 0 1 0.51 4.37 1.56 <
-2 0 0 -1 0.51 1.56 1.56 <
3 0 0 -1 1.03 1.87 1.87 <
-3 0 0 1 1.03 0.31 1.56 <
2 0 0 2 0.01 4.06 1.87 <
-2 0 0 -2 0.01 3.12 1.87 <
3 0 0 0 18.95 -3.43 1.87 <
-3 0 0 0 18.95 1.25 1.87 <
4 0 0 -2 0.01 -2.50 1.87 <
-4 0 0 2 0.01 0.00 1.87 <
3 0 0 1 0.35 -1.25 2.18 <
-3 0 0 -1 0.35 2.18 1.87 <
-4 1 0 1 0.07 -2.81 1.87 <
4 -1 0 -1 0.07 -3.74 1.87 <
-3 1 0 -1 0.60 0.31 1.87 <
3 -1 0 1 0.60 0.00 1.87 <
-4 1 0 2 0.00 1.25 1.87 <
4 -1 0 -2 0.00 1.56 1.87 <
-3 1 0 0 32.62 -3.74 1.87 <
3 -1 0 0 32.62 4.06 1.87 <
-2 1 0 -2 0.03 -2.81 1.56 <
2 -1 0 2 0.03 2.50 1.56 <
-3 1 0 1 1.27 0.94 1.56 <
3 -1 0 -1 1.27 -1.87 1.56 <
-2 1 0 -1 0.93 0.31 1.56 <
2 -1 0 1 0.93 0.94 1.56 <
-3 1 0 2 0.06 0.00 1.25 <
3 -1 0 -2 0.06 -1.25 1.25 <
-2 1 0 0 24.49 4.06 1.25 o
2 -1 0 0 24.49 2.81 1.25 <
-1 1 0 -2 0.04 1.56 1.25 <
1 -1 0 2 0.04 10.61 1.25 o
-2 1 0 1 0.59 0.00 1.25 <
2 -1 0 -1 0.59 3.74 1.25 o
-1 1 0 -1 2.91 8.11 1.25 o
1 -1 0 1 2.91 10.92 1.25 o
-2 1 0 2 1.46 5.93 0.94 o
2 -1 0 -2 1.46 3.43 0.94 o
-1 1 0 0 18.11 50.87 2.18 o
1 -1 0 0 18.11 72.40 3.12 o
0 1 0 -2 4.26 0.00 0.62 <
0 -1 0 2 4.26 4.99 0.62 o
-1 1 0 1 0.69 14.04 0.62 o
1 -1 0 -1 0.69 10.92 0.62 o
0 1 0 -1 81.15 104.85 0.62 o
0 -1 0 1 81.15 103.61 0.62 o
-1 1 0 2 0.16 -11.55 3.12 <
1 -1 0 -2 0.16 -6.87 3.12 <
1 1 0 0 99.91 2.50 2.81 <
-1 -1 0 0 99.91 1.25 4.99 <
2 1 0 -2 0.13 0.62 1.87 <
-2 -1 0 2 0.13 1.56 2.81 <
1 1 0 1 2.12 -3.43 1.56 <
-1 -1 0 -1 2.12 3.74 2.18 <
2 1 0 -1 0.40 3.12 1.56 <
-2 -1 0 1 0.40 2.81 1.87 <
1 1 0 2 0.02 3.43 1.56 <
-1 -1 0 -2 0.02 0.62 1.56 <
2 1 0 0 15.81 -2.18 1.56 <
-2 -1 0 0 15.81 -0.62 1.56 <
3 1 0 -2 0.10 0.31 1.87 <
-3 -1 0 2 0.10 0.62 1.56 <
2 1 0 1 0.28 2.81 1.87 <
-2 -1 0 -1 0.28 0.62 1.87 <
3 1 0 -1 0.71 0.94 1.87 <
-3 -1 0 1 0.71 -2.50 1.87 <
2 1 0 2 0.02 -2.50 1.87 <
-2 -1 0 -2 0.02 2.18 1.87 <
3 1 0 0 12.51 -1.87 1.87 <
-3 -1 0 0 12.51 -0.94 1.87 <
4 1 0 -2 0.02 2.18 2.18 <
-4 -1 0 2 0.02 0.94 1.87 <
-3 2 0 -2 0.05 -1.25 1.87 <
3 -2 0 2 0.05 -2.50 1.87 <
-4 2 0 1 0.04 -2.18 1.87 <
4 -2 0 -1 0.04 4.37 1.87 <
-3 2 0 -1 0.85 -3.74 1.87 <
3 -2 0 1 0.85 -3.12 1.87 <
-4 2 0 2 0.02 0.94 1.56 <
4 -2 0 -2 0.02 1.87 1.87 <
-3 2 0 0 53.85 -0.62 1.56 <
3 -2 0 0 53.85 7.80 1.56 o
-2 2 0 -2 0.10 -3.12 1.56 <
2 -2 0 2 0.10 -0.94 1.56 <
-3 2 0 1 1.33 0.31 1.56 <
3 -2 0 -1 1.33 3.74 1.56 <
-2 2 0 -1 1.35 6.55 1.25 o
2 -2 0 1 1.35 1.56 1.56 <
-3 2 0 2 0.05 -6.87 1.25 <
3 -2 0 -2 0.05 3.43 1.25 <
-2 2 0 0 13.95 -14.67 4.06 <
2 -2 0 0 13.95 4.37 1.25 o
-1 2 0 -2 0.04 -1.25 1.25 <
1 -2 0 2 0.04 2.18 1.87 <
-2 2 0 1 1.51 3.43 0.94 o
2 -2 0 -1 1.51 2.50 0.94 <
-1 2 0 -1 0.88 2.50 0.62 o
1 -2 0 1 0.88 2.50 0.62 o
-2 2 0 2 2.84 8.11 0.62 o
2 -2 0 -2 2.84 9.05 0.62 o
-1 2 0 0 56.25 335.47 1.25 o
1 -2 0 0 56.25 334.53 1.25 o
0 2 0 -2 4.97 6.87 0.62 o
0 -2 0 2 4.97 5.62 0.62 o
-1 2 0 1 1.55 -0.62 0.94 <
1 -2 0 -1 1.55 1.56 0.94 <
0 2 0 -1 49.02 -4.37 7.18 <
0 -2 0 1 49.02 -14.67 7.18 <
1 2 0 2 0.01 -19.97 8.74 <
2 2 0 0 12.89 -9.05 4.06 <
3 2 0 -2 0.08 0.31 2.81 <
2 2 0 1 0.20 -14.35 2.18 <
3 2 0 -1 0.42 -0.31 2.18 <
-3 -2 0 1 0.42 1.56 6.87 <
2 2 0 2 0.03 1.25 2.18 <
-2 -2 0 -2 0.03 -3.12 5.62 <
3 2 0 0 5.95 -3.43 2.18 <
-3 -2 0 0 5.95 -0.62 4.06 <
-4 3 0 0 3.13 3.74 1.87 <
4 -3 0 0 3.13 0.62 1.87 <
-3 3 0 -2 0.08 1.56 1.87 <
3 -3 0 2 0.08 -0.62 2.50 <
-4 3 0 1 0.08 3.74 1.87 <
4 -3 0 -1 0.08 1.25 1.87 <
-3 3 0 -1 0.99 6.87 1.56 o
3 -3 0 1 0.99 -0.31 1.87 <
-4 3 0 2 0.08 0.94 1.56 <
4 -3 0 -2 0.08 -10.92 1.87 <
-3 3 0 0 48.35 22.78 1.87 o
3 -3 0 0 48.35 11.23 2.18 o
-2 3 0 -2 0.27 -0.62 1.87 <
2 -3 0 2 0.27 -3.74 1.56 <
-3 3 0 1 1.11 0.62 1.25 <
3 -3 0 -1 1.11 -3.12 3.12 <
-2 3 0 -1 1.61 4.99 0.94 o
2 -3 0 1 1.61 5.93 0.94 o
-3 3 0 2 0.09 3.43 0.62 o
3 -3 0 -2 0.09 -0.62 0.62 <
-2 3 0 0 7.85 29.33 0.62 o
2 -3 0 0 7.85 23.09 0.62 o
-1 3 0 -2 0.03 0.94 0.62 <
1 -3 0 2 0.03 2.50 0.62 o
-2 3 0 1 1.72 9.67 0.62 o
2 -3 0 -1 1.72 8.43 0.62 o
-1 3 0 -1 0.94 6.24 0.62 o
1 -3 0 1 0.94 8.43 0.62 o
-2 3 0 2 3.26 4.99 0.62 o
2 -3 0 -2 3.26 5.31 0.62 o
-1 3 0 0 58.98 54.61 0.94 o
1 -3 0 0 58.98 52.74 0.94 o
0 3 0 -2 3.50 2.18 1.25 <
0 -3 0 2 3.50 1.87 1.25 <
-5 4 0 2 0.02 3.12 1.87 <
5 -4 0 -2 0.02 3.43 2.50 <
-4 4 0 0 4.31 -3.43 1.87 <
4 -4 0 0 4.31 -3.74 1.87 <
-3 4 0 -2 0.10 -7.49 2.50 <
3 -4 0 2 0.10 4.37 2.18 <
-4 4 0 1 0.26 1.25 1.56 <
4 -4 0 -1 0.26 -3.74 1.87 <
-3 4 0 -1 0.93 3.74 1.25 o
3 -4 0 1 0.93 9.67 3.43 <
-4 4 0 2 0.19 0.94 0.94 <
4 -4 0 -2 0.19 0.00 1.25 <
-3 4 0 0 31.64 11.55 0.94 o
3 -4 0 0 31.64 20.28 0.94 o
-2 4 0 -2 0.51 1.25 0.62 <
2 -4 0 2 0.51 1.25 0.62 <
-3 4 0 1 0.65 1.87 0.62 o
3 -4 0 -1 0.65 3.12 0.62 o
-2 4 0 -1 1.74 14.98 0.62 o
2 -4 0 1 1.74 18.72 0.62 o
-3 4 0 2 0.11 0.62 0.62 <
3 -4 0 -2 0.11 2.18 0.62 o
-2 4 0 0 66.10 92.37 0.94 o
2 -4 0 0 66.10 99.86 0.94 o
-1 4 0 -2 0.02 2.18 0.62 o
1 -4 0 2 0.02 3.12 0.62 o
-2 4 0 1 0.82 6.24 0.62 o
2 -4 0 -1 0.82 6.24 0.62 o
-1 4 0 -1 4.22 10.30 0.62 o
1 -4 0 1 4.22 13.11 0.62 o
-2 4 0 2 2.13 -0.94 0.94 <
2 -4 0 -2 2.13 1.25 0.94 <
-1 4 0 0 38.76 9.99 1.25 o
1 -4 0 0 38.76 0.94 1.25 <
-4 5 0 -1 0.19 -1.87 1.56 <
4 -5 0 1 0.19 -4.37 1.87 <
-5 5 0 2 0.03 0.31 1.25 <
5 -5 0 -2 0.03 2.18 4.99 <
-4 5 0 0 5.81 0.94 1.25 <
4 -5 0 0 5.81 2.18 1.56 <
-3 5 0 -2 0.10 0.31 0.94 <
3 -5 0 2 0.10 2.81 1.25 <
-4 5 0 1 0.65 2.81 0.94 <
4 -5 0 -1 0.65 0.94 0.94 <
-3 5 0 -1 0.65 3.43 0.94 o
3 -5 0 1 0.65 6.87 0.94 o
-4 5 0 2 0.30 3.12 0.94 o
4 -5 0 -2 0.30 -0.62 0.94 <
-3 5 0 0 14.03 24.03 0.94 o
3 -5 0 0 14.03 29.02 0.94 o
-2 5 0 -2 0.71 0.00 0.62 <
2 -5 0 2 0.71 2.81 0.94 <
-3 5 0 1 0.24 11.55 0.62 o
3 -5 0 -1 0.24 9.36 0.62 o
-2 5 0 -1 1.92 45.56 0.94 o
2 -5 0 1 1.92 44.94 0.94 o
-3 5 0 2 0.08 -1.25 0.62 <
3 -5 0 -2 0.08 0.94 0.62 <
-2 5 0 0 49.52 53.67 0.94 o
2 -5 0 0 49.52 51.49 0.94 o
-1 5 0 -2 0.01 1.87 0.62 o
1 -5 0 2 0.01 0.62 0.62 <
-2 5 0 1 0.08 3.12 0.62 o
2 -5 0 -1 0.08 2.18 0.62 o
-1 5 0 -1 6.11 1.56 1.25 <
1 -5 0 1 6.11 -7.80 2.81 <
-2 5 0 2 0.73 0.94 1.25 <
2 -5 0 -2 0.73 -0.31 1.25 <
-5 6 0 1 0.06 2.81 1.25 <
5 -6 0 -1 0.06 -7.49 1.56 <
-4 6 0 -1 0.20 -3.43 1.25 <
4 -6 0 1 0.20 2.81 1.25 <
-5 6 0 2 0.03 0.62 1.25 <
5 -6 0 -2 0.03 0.31 1.25 <
-4 6 0 0 9.00 2.81 1.25 <
4 -6 0 0 9.00 3.74 1.25 o
-3 6 0 -2 0.07 0.62 0.94 <
3 -6 0 2 0.07 -0.31 1.25 <
-4 6 0 1 1.22 -0.62 0.94 <
4 -6 0 -1 1.22 1.25 0.94 <
-3 6 0 -1 0.29 4.68 0.94 o
3 -6 0 1 0.29 5.93 0.94 o
-4 6 0 2 0.36 3.12 0.94 o
4 -6 0 -2 0.36 2.81 0.94 <
-3 6 0 0 8.97 8.43 0.94 o
3 -6 0 0 8.97 8.11 0.94 o
-2 6 0 -2 0.71 1.87 0.62 o
2 -6 0 2 0.71 4.06 0.62 o
-3 6 0 1 0.29 2.18 0.62 o
3 -6 0 -1 0.29 2.81 0.62 o
-2 6 0 -1 2.08 19.66 0.62 o
2 -6 0 1 2.08 21.84 0.94 o
-3 6 0 2 0.02 0.62 0.62 <
3 -6 0 -2 0.02 1.87 0.62 o
-2 6 0 0 10.09 22.47 0.94 o
2 -6 0 0 10.09 24.65 0.94 o
-1 6 0 -2 0.00 3.43 1.25 <
1 -6 0 2 0.00 -0.31 0.94 <
-2 6 0 1 0.05 -1.25 1.25 <
2 -6 0 -1 0.05 -2.18 1.25 <
-1 6 0 -1 4.45 6.87 1.56 o
1 -6 0 1 4.45 5.62 1.87 <
-4 7 0 -2 0.02 1.87 1.87 <
4 -7 0 2 0.02 1.87 2.18 <
-5 7 0 1 0.12 1.87 1.25 <
5 -7 0 -1 0.12 -3.12 1.25 <
-4 7 0 -1 0.18 0.00 1.25 <
4 -7 0 1 0.18 -0.62 1.25 <
-5 7 0 2 0.03 5.31 1.25 o
5 -7 0 -2 0.03 -0.31 1.25 <
-4 7 0 0 14.77 12.79 1.25 o
4 -7 0 0 14.77 16.85 1.25 o
-3 7 0 -2 0.04 1.87 0.94 <
3 -7 0 2 0.04 0.94 0.94 <
-4 7 0 1 1.76 1.87 0.94 <
4 -7 0 -1 1.76 2.50 0.94 <
-3 7 0 -1 0.04 6.87 0.94 o
3 -7 0 1 0.04 8.43 0.94 o
-4 7 0 2 0.35 9.67 0.94 o
4 -7 0 -2 0.35 9.99 0.94 o
-3 7 0 0 2.27 3.43 0.94 o
3 -7 0 0 2.27 4.06 0.94 o
-2 7 0 -2 0.52 1.56 0.62 <
2 -7 0 2 0.52 3.74 0.94 o
-3 7 0 1 0.92 8.74 0.62 o
3 -7 0 -1 0.92 6.24 0.62 o
-2 7 0 -1 2.00 9.05 0.94 o
2 -7 0 1 2.00 10.92 0.94 o
-3 7 0 2 0.01 3.12 0.94 o
3 -7 0 -2 0.01 2.81 0.62 o
-2 7 0 0 19.59 0.31 1.25 <
2 -7 0 0 19.59 1.87 1.56 <
-1 7 0 -2 0.00 -0.31 1.25 <
1 -7 0 2 0.00 -0.31 1.25 <
-2 7 0 1 0.19 0.00 1.87 <
2 -7 0 -1 0.19 0.94 2.81 <
-4 8 0 -2 0.01 1.25 1.25 <
4 -8 0 2 0.01 -1.87 1.25 <
-5 8 0 1 0.19 2.81 1.25 <
5 -8 0 -1 0.19 -1.87 1.25 <
-4 8 0 -1 0.16 2.50 1.25 <
4 -8 0 1 0.16 2.81 1.25 <
-5 8 0 2 0.02 -0.31 1.25 <
5 -8 0 -2 0.02 -0.62 1.25 <
-4 8 0 0 22.01 24.65 1.25 o
4 -8 0 0 22.01 43.38 1.25 o
-3 8 0 -2 0.01 0.62 0.94 <
3 -8 0 2 0.01 0.00 0.94 <
-4 8 0 1 2.02 -0.62 0.94 <
4 -8 0 -1 2.02 2.18 0.94 <
-3 8 0 -1 0.04 1.25 0.94 <
3 -8 0 1 0.04 3.12 0.94 o
-4 8 0 2 0.29 4.68 0.94 o
4 -8 0 -2 0.29 4.68 0.94 o
-3 8 0 0 9.29 8.74 0.94 o
3 -8 0 0 9.29 8.11 0.94 o
-2 8 0 -2 0.29 0.94 0.94 <
2 -8 0 2 0.29 1.87 0.94 <
-3 8 0 1 1.69 0.31 0.94 <
3 -8 0 -1 1.69 3.43 0.94 o
-2 8 0 -1 1.54 -3.12 1.56 <
2 -8 0 1 1.54 1.25 1.25 <
-3 8 0 2 0.02 -0.94 1.56 <
3 -8 0 -2 0.02 1.25 1.56 <
-2 8 0 0 12.30 5.93 1.56 o
2 -8 0 0 12.30 3.43 1.56 <
-1 8 0 -2 0.00 -4.37 2.50 <
1 -8 0 2 0.00 -1.87 5.62 <
-4 9 0 -2 0.00 1.56 1.25 <
4 -9 0 2 0.00 -0.62 1.25 <
-5 9 0 1 0.22 0.00 1.25 <
5 -9 0 -1 0.22 0.94 1.25 <
-4 9 0 -1 0.15 4.37 1.25 o
4 -9 0 1 0.15 3.12 1.25 <
-5 9 0 2 0.02 -1.56 1.25 <
5 -9 0 -2 0.02 -2.18 1.25 <
-4 9 0 0 24.65 37.14 1.25 o
4 -9 0 0 24.65 48.68 1.25 o
-3 9 0 -2 0.01 -0.94 0.94 <
3 -9 0 2 0.01 -0.31 0.94 <
-4 9 0 1 1.82 -0.31 0.94 <
4 -9 0 -1 1.82 2.81 0.94 <
-3 9 0 -1 0.31 -0.31 0.94 <
3 -9 0 1 0.31 1.25 0.94 <
-4 9 0 2 0.21 3.43 0.94 o
4 -9 0 -2 0.21 1.25 0.94 <
-3 9 0 0 23.24 5.31 0.94 o
3 -9 0 0 23.24 13.73 1.25 o
-2 9 0 -2 0.13 -5.93 1.25 <
2 -9 0 2 0.13 3.12 0.94 o
-3 9 0 1 2.10 3.74 1.56 <
3 -9 0 -1 2.10 -1.25 1.56 <
-2 9 0 -1 0.85 3.74 1.56 <
2 -9 0 1 0.85 4.06 1.56 <
-3 9 0 2 0.05 -0.62 1.56 <
3 -9 0 -2 0.05 1.87 1.56 <
-2 9 0 0 2.36 0.62 3.12 <
-5 10 0 0 3.60 2.50 1.25 <
5 -10 0 0 3.60 3.43 1.25 <
-4 10 0 -2 0.00 1.25 1.25 <
4 -10 0 2 0.00 2.81 1.25 <
-5 10 0 1 0.20 0.00 1.25 <
5 -10 0 -1 0.20 2.50 1.25 <
-4 10 0 -1 0.16 1.87 1.25 <
4 -10 0 1 0.16 4.68 1.25 o
-5 10 0 2 0.02 2.81 1.25 <
5 -10 0 -2 0.02 0.94 1.25 <
-4 10 0 0 20.38 16.54 1.25 o
4 -10 0 0 20.38 22.78 1.25 o
-3 10 0 -2 0.04 0.31 0.94 <
3 -10 0 2 0.04 0.62 1.25 <
-4 10 0 1 1.29 2.18 0.94 <
4 -10 0 -1 1.29 -0.62 1.25 <
-3 10 0 -1 0.73 1.56 0.94 <
3 -10 0 1 0.73 1.56 1.25 <
-4 10 0 2 0.13 2.81 0.94 <
4 -10 0 -2 0.13 -1.56 0.94 <
-3 10 0 0 49.16 5.93 1.87 o
3 -10 0 0 49.16 5.93 1.25 o
-2 10 0 -2 0.04 -0.94 1.56 <
2 -10 0 2 0.04 -1.87 1.56 <
-3 10 0 1 1.98 0.62 1.56 <
3 -10 0 -1 1.98 -5.93 1.87 <
-2 10 0 -1 0.28 2.50 1.56 <
2 -10 0 1 0.28 0.00 1.87 <
-3 10 0 2 0.08 -4.06 4.68 <
-5 11 0 0 3.63 1.25 1.25 <
5 -11 0 0 3.63 0.62 1.25 <
-4 11 0 -2 0.00 -0.31 1.25 <
4 -11 0 2 0.00 1.56 1.25 <
-5 11 0 1 0.14 -0.62 1.25 <
5 -11 0 -1 0.14 1.25 1.25 <
-4 11 0 -1 0.18 2.50 1.25 <
4 -11 0 1 0.18 2.50 1.25 <
-5 11 0 2 0.02 0.62 1.25 <
5 -11 0 -2 0.02 -2.18 1.25 <
-4 11 0 0 15.06 3.12 1.25 <
4 -11 0 0 15.06 3.74 1.25 o
-3 11 0 -2 0.08 -2.18 1.25 <
3 -11 0 2 0.08 1.25 1.25 <
-4 11 0 1 0.69 2.50 1.25 <
4 -11 0 -1 0.69 0.31 1.25 <
-3 11 0 -1 1.08 5.31 1.25 o
3 -11 0 1 1.08 -0.31 1.25 <
-4 11 0 2 0.06 2.50 1.56 <
4 -11 0 -2 0.06 -0.94 1.56 <
-3 11 0 0 57.95 1.25 1.87 <
3 -11 0 0 57.95 8.11 1.87 o
-2 11 0 -2 0.01 1.25 1.56 <
2 -11 0 2 0.01 -2.18 1.87 <
-3 11 0 1 1.55 0.00 1.87 <
3 -11 0 -1 1.55 0.62 2.18 <
-2 11 0 -1 0.03 -10.61 6.87 <
-5 12 0 0 2.81 0.62 1.25 <
5 -12 0 0 2.81 -0.62 1.25 <
-4 12 0 -2 0.00 -0.31 1.25 <
4 -12 0 2 0.00 0.31 1.25 <
-5 12 0 1 0.08 -1.87 1.25 <
5 -12 0 -1 0.08 1.25 1.25 <
-4 12 0 -1 0.17 2.81 1.25 <
4 -12 0 1 0.17 2.81 1.25 <
-5 12 0 2 0.03 -1.87 1.25 <
5 -12 0 -2 0.03 1.87 1.25 <
-4 12 0 0 10.07 0.31 1.25 <
4 -12 0 0 10.07 3.12 1.25 <
-3 12 0 -2 0.09 0.31 1.25 <
3 -12 0 2 0.09 1.56 1.25 <
-4 12 0 1 0.25 0.62 2.50 <
4 -12 0 -1 0.25 1.87 1.25 <
-3 12 0 -1 1.23 1.87 1.87 <
3 -12 0 1 1.23 -3.74 3.12 <
-4 12 0 2 0.01 3.12 1.87 <
4 -12 0 -2 0.01 1.25 1.87 <
-3 12 0 0 43.40 0.31 1.87 <
3 -12 0 0 43.40 -0.62 1.87 <
-2 12 0 -2 0.00 0.00 1.87 <
2 -12 0 2 0.00 0.94 3.12 <
-3 12 0 1 1.06 19.04 9.36 <
-5 13 0 0 1.70 0.31 1.87 <
5 -13 0 0 1.70 0.94 2.18 <
-4 13 0 -2 0.00 -0.62 1.25 <
4 -13 0 2 0.00 -0.94 1.25 <
-5 13 0 1 0.05 0.94 1.25 <
5 -13 0 -1 0.05 1.87 1.25 <
-4 13 0 -1 0.12 1.87 1.25 <
4 -13 0 1 0.12 2.81 1.25 <
-5 13 0 2 0.03 0.62 1.25 <
5 -13 0 -2 0.03 -1.56 1.25 <
-4 13 0 0 4.05 -2.81 1.56 <
4 -13 0 0 4.05 -1.87 1.25 <
-3 13 0 -2 0.10 0.94 1.87 <
3 -13 0 2 0.10 3.12 1.56 <
-4 13 0 1 0.04 1.87 1.87 <
4 -13 0 -1 0.04 -1.56 1.87 <
-3 13 0 -1 1.12 2.18 1.87 <
3 -13 0 1 1.12 -1.25 1.87 <
-4 13 0 2 0.00 -5.93 1.87 <
4 -13 0 -2 0.00 4.37 1.87 <
-3 13 0 0 32.72 -1.56 1.87 <
3 -13 0 0 32.72 -10.30 5.62 <
-4 14 0 -2 0.00 -0.62 1.25 <
4 -14 0 2 0.00 0.31 1.25 <
-5 14 0 1 0.04 -1.25 1.25 <
5 -14 0 -1 0.04 -1.25 1.25 <
-4 14 0 -1 0.07 3.74 1.25 o
4 -14 0 1 0.07 2.18 1.25 <
-5 14 0 2 0.03 -1.25 3.43 <
5 -14 0 -2 0.03 0.31 1.25 <
-4 14 0 0 0.71 1.56 1.87 <
4 -14 0 0 0.71 0.00 2.18 <
-3 14 0 -2 0.08 3.74 1.87 <
3 -14 0 2 0.08 5.62 2.18 <
-4 14 0 1 0.00 0.31 1.87 <
4 -14 0 -1 0.00 -4.37 2.18 <
-3 14 0 -1 0.85 2.50 1.87 <
3 -14 0 1 0.85 -4.06 2.18 <
-4 14 0 2 0.01 -3.12 2.18 <
4 -14 0 -2 0.01 28.40 9.67 <
-4 15 0 -1 0.02 -1.25 2.18 <
4 -15 0 1 0.02 2.81 1.56 <
-5 15 0 2 0.03 3.12 2.18 <
5 -15 0 -2 0.03 -3.74 4.37 <
-4 15 0 0 0.13 2.81 2.18 <
4 -15 0 0 0.13 -0.94 2.18 <
-3 15 0 -2 0.06 6.24 2.18 <
3 -15 0 2 0.06 -5.62 2.18 <
-4 15 0 1 0.05 0.31 2.18 <
4 -15 0 -1 0.05 1.25 2.50 <
-3 15 0 -1 0.54 -1.56 2.50 <
-3 15 -1 -1 0.06 -1.25 2.81 <
4 -15 1 -1 0.66 4.06 2.81 <
-4 15 -1 1 0.66 -2.81 2.18 <
3 -15 1 2 0.00 1.87 2.18 <
-3 15 -1 -2 0.00 -0.94 2.18 <
4 -15 1 0 16.09 0.62 2.18 <
-4 15 -1 0 16.09 1.87 2.18 <
5 -15 1 -2 0.00 -0.31 2.18 <
-5 15 -1 2 0.00 2.50 2.18 <
-4 14 -1 2 0.03 1.87 2.50 <
3 -14 1 1 0.01 2.18 2.18 <
-3 14 -1 -1 0.01 -1.87 1.87 <
4 -14 1 -1 0.93 1.87 2.18 <
-4 14 -1 1 0.93 4.06 1.87 <
3 -14 1 2 0.00 -0.62 2.18 <
-3 14 -1 -2 0.00 0.00 1.87 <
4 -14 1 0 19.91 -1.25 2.18 <
-4 14 -1 0 19.91 4.68 1.87 <
5 -14 1 -2 0.01 0.94 1.87 <
-5 14 -1 2 0.01 -0.31 1.87 <
4 -14 1 1 0.36 2.18 1.25 <
-4 14 -1 -1 0.36 15.29 3.12 o
5 -14 1 -1 0.22 0.62 1.25 <
-5 14 -1 1 0.22 0.94 1.25 <
3 -13 1 0 0.05 -33.70 10.30 <
-3 13 -1 0 0.05 1.25 2.18 <
4 -13 1 -2 0.03 -0.62 1.87 <
-4 13 -1 2 0.03 -21.53 1.87 <
3 -13 1 1 0.02 -0.31 1.87 <
-3 13 -1 -1 0.02 1.56 1.87 <
4 -13 1 -1 1.10 3.12 1.87 <
-4 13 -1 1 1.10 0.62 1.87 <
3 -13 1 2 0.02 0.00 1.87 <
-3 13 -1 -2 0.02 2.18 1.87 <
4 -13 1 0 20.55 -1.87 1.25 <
-4 13 -1 0 20.55 1.25 1.87 <
5 -13 1 -2 0.04 1.87 1.25 <
-5 13 -1 2 0.04 -1.25 1.56 <
4 -13 1 1 0.28 5.62 1.25 o
-4 13 -1 -1 0.28 2.81 1.25 <
5 -13 1 -1 0.41 3.12 1.25 <
-5 13 -1 1 0.41 4.68 1.25 o
4 -13 1 2 0.02 1.25 1.25 <
-4 13 -1 -2 0.02 0.62 1.25 <
2 -12 1 2 0.01 4.37 5.62 <
-2 12 -1 -2 0.01 3.12 1.87 <
3 -12 1 0 1.28 0.00 1.87 <
-3 12 -1 0 1.28 1.87 1.87 <
4 -12 1 -2 0.04 -5.93 1.87 <
-4 12 -1 2 0.04 -5.93 1.87 <
3 -12 1 1 0.17 0.62 1.87 <
-3 12 -1 -1 0.17 -0.94 1.87 <
4 -12 1 -1 1.08 0.62 1.87 <
-4 12 -1 1 1.08 4.37 1.87 <
3 -12 1 2 0.05 1.56 1.25 <
-3 12 -1 -2 0.05 -5.31 2.18 <
4 -12 1 0 15.67 3.12 1.25 <
-4 12 -1 0 15.67 3.74 1.25 o
5 -12 1 -2 0.07 7.80 1.25 o
-5 12 -1 2 0.07 1.56 1.25 <
4 -12 1 1 0.16 3.12 1.25 <
-4 12 -1 -1 0.16 1.56 1.25 <
5 -12 1 -1 0.57 0.00 1.25 <
-5 12 -1 1 0.57 -0.31 1.25 <
4 -12 1 2 0.01 -1.87 1.25 <
-4 12 -1 -2 0.01 -1.25 1.25 <
3 -11 1 -1 0.01 -0.94 3.12 <
-3 11 -1 1 0.01 -0.31 1.87 <
2 -11 1 2 0.01 -0.94 1.87 <
-2 11 -1 -2 0.01 -1.25 1.56 <
3 -11 1 0 5.32 2.50 1.87 <
-3 11 -1 0 5.32 1.56 1.56 <
4 -11 1 -2 0.04 1.25 1.87 <
-4 11 -1 2 0.04 -0.62 1.56 <
3 -11 1 1 0.50 -1.56 1.25 <
-3 11 -1 -1 0.50 -1.56 1.56 <
4 -11 1 -1 0.82 3.12 1.25 <
-4 11 -1 1 0.82 1.25 1.25 <
3 -11 1 2 0.11 0.62 1.25 <
-3 11 -1 -2 0.11 6.24 1.25 o
4 -11 1 0 8.01 3.12 1.25 <
-4 11 -1 0 8.01 2.81 1.25 <
5 -11 1 -2 0.09 0.00 1.25 <
-5 11 -1 2 0.09 0.94 1.25 <
4 -11 1 1 0.06 3.43 1.25 <
-4 11 -1 -1 0.06 0.62 1.25 <
5 -11 1 -1 0.64 2.18 1.25 <
-5 11 -1 1 0.64 -0.94 1.25 <
4 -11 1 2 0.01 0.94 1.25 <
-4 11 -1 -2 0.01 -0.94 1.25 <
2 -10 1 1 0.07 2.50 2.18 <
-2 10 -1 -1 0.07 -1.87 1.56 <
3 -10 1 -1 0.03 3.43 1.56 <
-3 10 -1 1 0.03 3.12 1.56 <
2 -10 1 2 0.02 0.62 1.56 <
-2 10 -1 -2 0.02 2.81 1.56 <
3 -10 1 0 11.42 -0.62 2.81 <
-3 10 -1 0 11.42 0.00 1.56 <
4 -10 1 -2 0.04 -1.56 1.25 <
-4 10 -1 2 0.04 -3.43 1.56 <
3 -10 1 1 0.96 3.43 1.25 <
-3 10 -1 -1 0.96 4.68 0.94 o
4 -10 1 -1 0.41 3.12 1.25 <
-4 10 -1 1 0.41 -0.31 0.94 <
3 -10 1 2 0.17 0.62 0.94 <
-3 10 -1 -2 0.17 0.94 0.94 <
4 -10 1 0 2.73 1.56 0.94 <
-4 10 -1 0 2.73 1.87 0.94 <
5 -10 1 -2 0.11 2.50 0.94 <
-5 10 -1 2 0.11 1.87 0.94 <
4 -10 1 1 0.01 0.31 0.94 <
-4 10 -1 -1 0.01 0.62 0.94 <
5 -10 1 -1 0.59 0.94 0.94 <
-5 10 -1 1 0.59 0.94 1.25 <
4 -10 1 2 0.02 2.18 1.25 <
-4 10 -1 -2 0.02 -0.62 1.25 <
-2 9 -1 0 23.58 14.35 6.55 <
3 -9 1 -2 0.01 3.43 1.56 <
-3 9 -1 2 0.01 0.00 1.56 <
2 -9 1 1 0.03 2.50 1.56 <
-2 9 -1 -1 0.03 -0.94 1.56 <
3 -9 1 -1 0.17 -1.25 1.56 <
-3 9 -1 1 0.17 1.87 1.56 <
2 -9 1 2 0.06 3.12 1.25 <
-2 9 -1 -2 0.06 -0.31 1.56 <
3 -9 1 0 14.82 2.50 1.25 <
-3 9 -1 0 14.82 8.43 0.94 o
4 -9 1 -2 0.07 2.18 0.94 <
-4 9 -1 2 0.07 2.81 0.94 <
3 -9 1 1 1.42 5.62 0.94 o
-3 9 -1 -1 1.42 3.74 0.94 o
4 -9 1 -1 0.07 0.94 0.94 <
-4 9 -1 1 0.07 -0.62 0.94 <
3 -9 1 2 0.21 2.50 0.94 <
-3 9 -1 -2 0.21 1.87 0.94 <
4 -9 1 0 0.20 4.06 0.94 o
-4 9 -1 0 0.20 -0.31 0.94 <
5 -9 1 -2 0.11 2.18 0.94 <
-5 9 -1 2 0.11 1.25 0.94 <
4 -9 1 1 0.04 0.00 0.94 <
-4 9 -1 -1 0.04 1.87 1.25 <
5 -9 1 -1 0.46 0.62 1.25 <
-5 9 -1 1 0.46 0.62 1.25 <
4 -9 1 2 0.03 -0.94 1.25 <
-4 9 -1 -2 0.03 -1.25 1.25 <
-1 8 -1 -2 0.15 1.87 4.68 <
2 -8 1 0 35.07 3.74 1.56 <
-2 8 -1 0 35.07 4.06 1.25 o
3 -8 1 -2 0.10 2.18 1.56 <
-3 8 -1 2 0.10 -2.81 1.56 <
2 -8 1 1 0.01 2.18 1.56 <
-2 8 -1 -1 0.01 0.00 1.25 <
3 -8 1 -1 0.40 -2.81 0.94 <
-3 8 -1 1 0.40 3.43 1.25 <
2 -8 1 2 0.13 0.62 0.94 <
-2 8 -1 -2 0.13 1.56 0.94 <
3 -8 1 0 23.33 19.97 0.94 o
-3 8 -1 0 23.33 17.79 0.94 o
4 -8 1 -2 0.10 0.94 0.94 <
-4 8 -1 2 0.10 0.62 0.94 <
3 -8 1 1 1.70 19.35 0.94 o
-3 8 -1 -1 1.70 15.92 0.94 o
4 -8 1 -1 0.04 2.50 0.94 <
-4 8 -1 1 0.04 2.81 0.94 <
3 -8 1 2 0.21 3.43 0.94 o
-3 8 -1 -2 0.21 0.62 0.94 <
4 -8 1 0 2.63 6.87 0.94 o
-4 8 -1 0 2.63 5.62 0.94 o
5 -8 1 -2 0.09 1.87 0.94 <
-5 8 -1 2 0.09 2.81 0.94 <
4 -8 1 1 0.11 -1.87 1.25 <
-4 8 -1 -1 0.11 2.50 1.25 <
5 -8 1 -1 0.31 -1.56 1.25 <
-5 8 -1 1 0.31 -0.31 1.25 <
4 -8 1 2 0.03 1.87 1.25 <
-4 8 -1 -2 0.03 0.94 1.25 <
2 -7 1 -1 4.10 1.56 5.62 <
-2 7 -1 1 4.10 -5.93 2.81 <
1 -7 1 2 0.44 1.25 1.25 <
-1 7 -1 -2 0.44 0.00 1.25 <
2 -7 1 0 12.96 14.98 1.56 o
-2 7 -1 0 12.96 13.11 1.56 o
3 -7 1 -2 0.28 1.87 1.25 <
-3 7 -1 2 0.28 -3.74 3.12 <
2 -7 1 1 0.00 8.11 0.62 o
-2 7 -1 -1 0.00 3.74 0.62 o
3 -7 1 -1 0.63 8.43 0.94 o
-3 7 -1 1 0.63 7.18 0.62 o
2 -7 1 2 0.18 0.62 0.62 <
-2 7 -1 -2 0.18 -0.62 0.62 <
3 -7 1 0 34.06 48.37 0.94 o
-3 7 -1 0 34.06 48.06 0.94 o
4 -7 1 -2 0.13 2.50 0.94 <
-4 7 -1 2 0.13 1.87 0.94 <
3 -7 1 1 1.69 15.92 0.94 o
-3 7 -1 -1 1.69 15.29 0.94 o
4 -7 1 -1 0.35 2.50 0.94 <
-4 7 -1 1 0.35 3.43 0.94 o
3 -7 1 2 0.17 0.94 0.94 <
-3 7 -1 -2 0.17 1.56 0.94 <
4 -7 1 0 6.40 8.11 1.25 o
-4 7 -1 0 6.40 6.24 1.25 o
5 -7 1 -2 0.06 -2.18 1.25 <
-5 7 -1 2 0.06 -1.25 1.25 <
4 -7 1 1 0.19 3.43 1.25 <
-4 7 -1 -1 0.19 0.94 1.25 <
5 -7 1 -1 0.20 2.18 1.25 <
-5 7 -1 1 0.20 2.18 1.25 <
1 -6 1 1 2.21 4.06 2.81 <
-1 6 -1 -1 2.21 0.62 1.87 <
2 -6 1 -1 4.75 1.56 1.25 <
-2 6 -1 1 4.75 1.25 1.25 <
1 -6 1 2 0.84 -1.87 1.25 <
-1 6 -1 -2 0.84 0.31 1.25 <
2 -6 1 0 17.49 18.10 0.94 o
-2 6 -1 0 17.49 24.97 1.25 o
3 -6 1 -2 0.46 3.12 0.62 o
-3 6 -1 2 0.46 2.81 0.62 o
2 -6 1 1 0.00 1.25 0.62 <
-2 6 -1 -1 0.00 0.62 0.62 <
3 -6 1 -1 0.69 19.97 0.94 o
-3 6 -1 1 0.69 20.91 0.94 o
2 -6 1 2 0.17 0.62 0.62 <
-2 6 -1 -2 0.17 0.94 0.62 <
3 -6 1 0 36.81 44.31 0.94 o
-3 6 -1 0 36.81 37.14 0.94 o
4 -6 1 -2 0.12 1.25 0.94 <
-4 6 -1 2 0.12 1.87 0.94 <
3 -6 1 1 1.41 12.17 0.94 o
-3 6 -1 -1 1.41 10.92 0.94 o
4 -6 1 -1 0.80 1.25 0.94 <
-4 6 -1 1 0.80 3.12 0.94 o
3 -6 1 2 0.10 4.37 1.25 o
-3 6 -1 -2 0.10 -1.87 0.94 <
4 -6 1 0 10.77 4.68 1.25 o
-4 6 -1 0 10.77 4.37 1.25 o
5 -6 1 -2 0.03 3.74 1.56 <
-5 6 -1 2 0.03 -0.62 1.25 <
4 -6 1 1 0.24 -6.24 4.37 <
-4 6 -1 -1 0.24 2.50 1.25 <
2 -5 1 -2 2.12 1.25 1.87 <
-2 5 -1 2 2.12 4.06 1.56 <
1 -5 1 1 7.91 9.36 1.25 o
-1 5 -1 -1 7.91 4.37 1.25 o
2 -5 1 -1 3.68 1.56 1.25 <
-2 5 -1 1 3.68 2.50 2.18 <
1 -5 1 2 1.19 1.87 0.62 o
-1 5 -1 -2 1.19 4.37 0.62 o
2 -5 1 0 17.59 8.74 0.62 o
-2 5 -1 0 17.59 8.74 0.62 o
3 -5 1 -2 0.45 4.06 0.62 o
-3 5 -1 2 0.45 4.68 0.62 o
2 -5 1 1 0.03 3.43 0.62 o
-2 5 -1 -1 0.03 2.81 0.62 o
3 -5 1 -1 0.56 9.36 0.62 o
-3 5 -1 1 0.56 9.99 0.62 o
2 -5 1 2 0.12 1.87 0.62 o
-2 5 -1 -2 0.12 0.94 0.62 <
3 -5 1 0 15.36 26.84 0.94 o
-3 5 -1 0 15.36 25.59 0.94 o
4 -5 1 -2 0.09 0.62 0.94 <
-4 5 -1 2 0.09 2.81 0.94 <
3 -5 1 1 0.99 3.74 1.25 o
-3 5 -1 -1 0.99 0.94 0.94 <
4 -5 1 -1 1.11 5.93 3.12 <
-4 5 -1 1 1.11 0.62 1.25 <
3 -5 1 2 0.04 -1.87 1.87 <
-3 5 -1 -2 0.04 -0.94 1.25 <
4 -5 1 0 14.80 2.81 1.87 <
-4 5 -1 0 14.80 7.49 2.18 o
5 -5 1 -2 0.01 4.37 1.87 <
-5 5 -1 2 0.01 5.62 4.99 <
4 -5 1 1 0.25 -3.43 1.87 <
-4 5 -1 -1 0.25 4.06 1.87 <
1 -4 1 0 224.85 90.19 1.87 o
-1 4 -1 0 224.85 89.87 1.56 o
2 -4 1 -2 1.03 4.99 0.94 o
-2 4 -1 2 1.03 3.74 0.94 o
1 -4 1 1 17.79 50.55 0.62 o
-1 4 -1 -1 17.79 54.61 0.94 o
2 -4 1 -1 1.18 1.56 0.62 <
-2 4 -1 1 1.18 1.56 0.62 <
1 -4 1 2 1.25 4.68 0.62 o
-1 4 -1 -2 1.25 3.43 0.62 o
2 -4 1 0 23.79 31.52 0.62 o
-2 4 -1 0 23.79 33.70 0.62 o
3 -4 1 -2 0.30 3.43 0.62 o
-3 4 -1 2 0.30 4.37 0.62 o
2 -4 1 1 0.07 0.62 0.62 <
-2 4 -1 -1 0.07 0.94 0.62 <
3 -4 1 -1 0.36 6.87 0.94 o
-3 4 -1 1 0.36 3.74 0.62 o
2 -4 1 2 0.08 0.62 1.87 <
-2 4 -1 -2 0.08 -1.56 0.94 <
3 -4 1 0 15.12 14.35 1.56 o
-3 4 -1 0 15.12 5.31 1.56 o
4 -4 1 -2 0.06 -0.94 1.56 <
-4 4 -1 2 0.06 -2.50 4.37 <
3 -4 1 1 0.56 -1.56 1.56 <
-3 4 -1 -1 0.56 1.56 1.56 <
4 -4 1 -1 1.15 2.81 1.87 <
-4 4 -1 1 1.15 6.55 1.56 o
3 -4 1 2 0.01 3.12 1.87 <
-3 4 -1 -2 0.01 -0.62 1.87 <
4 -4 1 0 13.45 1.87 1.87 <
-4 4 -1 0 13.45 3.43 1.87 <
5 -4 1 -2 0.00 -16.54 2.50 <
-5 4 -1 2 0.00 2.18 1.87 <
2 3 -1 2 0.02 -4.68 3.74 <
3 3 -1 -1 0.11 -9.36 5.62 <
0 -3 1 2 0.42 1.25 0.94 <
0 3 -1 -2 0.42 -0.94 0.94 <
1 -3 1 0 1246.78 802.62 2.81 o
-1 3 -1 0 1246.78 681.54 3.43 o
2 -3 1 -2 0.05 1.56 0.62 <
-2 3 -1 2 0.05 1.25 0.62 <
1 -3 1 1 23.99 53.67 0.62 o
-1 3 -1 -1 23.99 53.05 0.62 o
2 -3 1 -1 0.17 1.87 0.62 o
-2 3 -1 1 0.17 1.87 0.62 o
1 -3 1 2 0.98 0.62 0.62 <
-1 3 -1 -2 0.98 3.12 0.62 o
2 -3 1 0 52.98 11.86 1.56 o
-2 3 -1 0 52.98 16.23 0.94 o
3 -3 1 -2 0.17 5.62 1.25 o
-3 3 -1 2 0.17 4.68 2.81 <
2 -3 1 1 0.04 4.06 1.25 o
-2 3 -1 -1 0.04 1.87 1.25 <
3 -3 1 -1 0.26 -0.94 1.25 <
-3 3 -1 1 0.26 0.62 1.25 <
2 -3 1 2 0.05 -5.62 1.56 <
-2 3 -1 -2 0.05 3.74 1.56 <
3 -3 1 0 17.07 -7.18 1.56 <
-3 3 -1 0 17.07 4.06 1.56 <
4 -3 1 -2 0.05 0.62 1.87 <
-4 3 -1 2 0.05 -2.81 1.56 <
3 -3 1 1 0.25 4.99 1.87 <
-3 3 -1 -1 0.25 -1.87 1.56 <
4 -3 1 -1 0.95 -1.87 1.87 <
-4 3 -1 1 0.95 1.87 1.87 <
3 -3 1 2 0.00 -1.25 1.87 <
-3 3 -1 -2 0.00 0.94 1.87 <
4 -3 1 0 9.36 -1.87 1.87 <
-4 3 -1 0 9.36 12.48 1.87 o
-3 -2 1 0 4.95 0.31 2.50 <
3 2 -1 0 4.95 2.18 2.18 <
-2 -2 1 -2 0.05 -0.62 2.81 <
2 2 -1 2 0.05 2.50 1.87 <
-3 -2 1 1 0.06 -0.31 3.12 <
3 2 -1 -1 0.06 -0.94 1.87 <
-2 -2 1 -1 1.08 0.94 3.74 <
2 2 -1 1 1.08 3.12 1.87 <
-3 -2 1 2 0.01 -3.74 5.31 <
3 2 -1 -2 0.01 1.25 2.18 <
-2 -2 1 0 41.05 -2.50 7.80 <
2 2 -1 0 41.05 2.81 2.18 <
1 2 -1 2 0.02 5.93 3.12 <
2 2 -1 -1 0.58 -8.11 5.93 <
1 -2 1 -1 69.13 20.60 0.94 o
-1 2 -1 1 69.13 22.16 0.94 o
0 -2 1 2 0.04 1.56 0.62 <
0 2 -1 -2 0.04 2.81 0.62 o
1 -2 1 0 1349.12 912.78 1.25 o
-1 2 -1 0 1349.12 944.93 1.25 o
2 -2 1 -2 0.34 -2.81 1.56 <
-2 2 -1 2 0.34 3.43 0.94 o
1 -2 1 1 19.83 54.30 1.25 o
-1 2 -1 -1 19.83 53.36 1.25 o
2 -2 1 -1 2.25 8.11 0.94 o
-2 2 -1 1 2.25 6.24 0.94 o
1 -2 1 2 0.56 2.81 1.25 <
-1 2 -1 -2 0.56 4.68 1.25 o
2 -2 1 0 22.91 15.29 1.25 o
-2 2 -1 0 22.91 22.16 1.25 o
3 -2 1 -2 0.13 0.31 1.56 <
-3 2 -1 2 0.13 3.43 1.25 <
2 -2 1 1 0.00 -0.62 1.25 <
-2 2 -1 -1 0.00 6.24 1.25 o
3 -2 1 -1 0.27 -1.25 1.56 <
-3 2 -1 1 0.27 -3.43 1.25 <
2 -2 1 2 0.03 4.06 1.56 <
-2 2 -1 -2 0.03 2.18 1.56 <
3 -2 1 0 12.87 -6.87 1.56 <
-3 2 -1 0 12.87 0.94 1.56 <
4 -2 1 -2 0.04 12.48 1.87 o
-4 2 -1 2 0.04 -1.25 1.56 <
3 -2 1 1 0.10 2.50 1.87 <
-3 2 -1 -1 0.10 0.94 1.87 <
4 -2 1 -1 0.65 -0.31 1.87 <
-4 2 -1 1 0.65 0.00 1.87 <
3 -2 1 2 0.01 9.36 1.87 o
-3 2 -1 -2 0.01 2.18 1.87 <
-4 -1 1 2 0.03 2.81 1.87 <
4 1 -1 -2 0.03 0.00 2.18 <
-3 -1 1 0 4.80 4.37 1.87 <
3 1 -1 0 4.80 -1.87 1.87 <
-2 -1 1 -2 0.10 0.00 1.87 <
2 1 -1 2 0.10 -0.94 1.87 <
-3 -1 1 1 0.02 3.74 1.87 <
3 1 -1 -1 0.02 1.87 1.87 <
-2 -1 1 -1 1.76 -0.62 1.56 <
2 1 -1 1 1.76 1.56 1.87 <
-3 -1 1 2 0.01 0.62 1.56 <
3 1 -1 -2 0.01 0.62 1.56 <
-2 -1 1 0 94.87 1.87 1.56 <
2 1 -1 0 94.87 1.87 1.56 <
-1 -1 1 -2 0.10 -0.62 1.56 <
1 1 -1 2 0.10 0.31 1.56 <
-2 -1 1 1 0.75 4.37 1.56 <
2 1 -1 -1 0.75 6.24 1.56 o
-1 -1 1 -1 0.40 1.87 1.56 <
1 1 -1 1 0.40 7.49 1.25 o
-2 -1 1 2 0.16 -0.62 1.56 <
2 1 -1 -2 0.16 -0.94 1.25 <
-1 -1 1 0 48.85 4.06 1.87 <
1 1 -1 0 48.85 1.25 1.56 <
0 -1 1 -2 0.03 -7.18 2.50 <
0 1 -1 2 0.03 -1.56 1.87 <
-1 -1 1 1 6.13 0.94 4.99 <
1 1 -1 -1 6.13 -6.24 3.43 <
1 -1 1 -2 4.85 3.74 1.56 <
-1 1 -1 2 4.85 -1.25 1.56 <
0 -1 1 1 0.16 9.99 0.31 o
0 1 -1 -1 0.16 7.80 0.31 o
1 -1 1 -1 72.30 73.02 0.94 o
-1 1 -1 1 72.30 77.39 0.94 o
0 -1 1 2 0.63 57.42 0.94 o
0 1 -1 -2 0.63 49.62 0.94 o
1 -1 1 0 720.37 322.67 1.56 o
-1 1 -1 0 720.37 266.50 1.56 o
2 -1 1 -2 1.21 2.81 0.94 <
-2 1 -1 2 1.21 0.31 0.94 <
1 -1 1 1 10.31 -1.56 0.94 <
-1 1 -1 -1 10.31 -0.31 0.94 <
2 -1 1 -1 4.89 4.06 0.94 o
-2 1 -1 1 4.89 2.18 1.25 <
1 -1 1 2 0.23 2.50 1.25 <
-1 1 -1 -2 0.23 2.81 1.25 <
2 -1 1 0 39.90 15.29 1.56 o
-2 1 -1 0 39.90 19.04 1.56 o
3 -1 1 -2 0.13 0.62 1.56 <
-3 1 -1 2 0.13 -2.50 1.25 <
2 -1 1 1 0.03 -6.87 1.56 <
-2 1 -1 -1 0.03 0.62 1.56 <
3 -1 1 -1 0.32 7.49 1.56 o
-3 1 -1 1 0.32 -2.18 1.56 <
2 -1 1 2 0.01 -0.62 1.87 <
-2 1 -1 -2 0.01 0.62 1.56 <
3 -1 1 0 9.97 -1.25 1.87 <
-3 1 -1 0 9.97 3.12 1.87 <
4 -1 1 -2 0.04 -1.56 1.87 <
-4 1 -1 2 0.04 0.31 1.87 <
3 -1 1 1 0.06 -1.87 1.87 <
-3 1 -1 -1 0.06 -1.87 1.87 <
4 -1 1 -1 0.37 6.87 1.87 o
-4 1 -1 1 0.37 -2.81 1.87 <
-4 0 1 1 0.12 1.56 1.87 <
4 0 -1 -1 0.12 2.81 2.18 <
-3 0 1 -1 0.34 -2.81 1.87 <
3 0 -1 1 0.34 -0.31 1.87 <
-4 0 1 2 0.06 1.87 1.87 <
4 0 -1 -2 0.06 -3.12 1.87 <
-3 0 1 0 4.41 1.25 1.87 <
3 0 -1 0 4.41 -2.81 1.87 <
-2 0 1 -2 0.16 1.87 1.87 <
2 0 -1 2 0.16 0.62 1.87 <
-3 0 1 1 0.09 -2.50 1.56 <
3 0 -1 -1 0.09 -1.87 1.87 <
-2 0 1 -1 2.24 -1.56 1.56 <
2 0 -1 1 2.24 -0.94 1.87 <
-3 0 1 2 0.13 0.00 1.56 <
3 0 -1 -2 0.13 1.87 1.56 <
-2 0 1 0 164.99 26.21 1.87 o
2 0 -1 0 164.99 47.75 1.87 o
-1 0 1 -2 0.29 2.18 1.25 <
1 0 -1 2 0.29 0.00 1.25 <
-2 0 1 1 1.19 4.37 1.25 o
2 0 -1 -1 1.19 3.12 1.25 <
-1 0 1 -1 0.05 6.24 1.25 o
1 0 -1 1 0.05 -0.31 1.25 <
-2 0 1 2 0.17 -0.31 1.25 <
2 0 -1 -2 0.17 -1.87 1.25 <
-1 0 1 0 45.94 1.87 1.25 <
1 0 -1 0 45.94 10.92 1.25 o
0 0 1 -2 0.03 3.12 3.12 <
0 0 -1 2 0.03 0.00 3.74 <
-1 0 1 1 10.39 12.17 1.25 o
1 0 -1 -1 10.39 9.36 1.25 o
0 0 1 -1 7.57 1.25 0.94 <
0 0 -1 1 7.57 0.31 0.94 <
-1 0 1 2 2.40 11.86 0.94 o
1 0 -1 -2 2.40 6.24 1.25 o
0 0 1 0 3.69 12.79 0.94 o
0 0 -1 0 3.69 8.74 0.94 o
1 0 1 -2 4.14 -0.94 1.25 <
-1 0 -1 2 4.14 -1.87 1.25 <
0 0 1 1 4.68 4.37 1.25 o
0 0 -1 -1 4.68 1.87 1.25 <
1 0 1 -1 42.80 17.48 1.25 o
-1 0 -1 1 42.80 20.28 1.25 o
0 0 1 2 1.50 6.24 0.94 o
0 0 -1 -2 1.50 0.94 1.25 <
1 0 1 0 72.12 20.28 1.25 o
-1 0 -1 0 72.12 13.73 1.25 o
2 0 1 -2 1.54 5.62 1.25 o
-2 0 -1 2 1.54 6.55 1.25 o
1 0 1 1 3.32 0.31 1.25 <
-1 0 -1 -1 3.32 1.56 1.25 <
2 0 1 -1 5.39 0.31 1.25 <
-2 0 -1 1 5.39 1.25 1.25 <
1 0 1 2 0.08 -2.18 1.25 <
-1 0 -1 -2 0.08 1.25 1.25 <
2 0 1 0 35.02 -2.81 1.56 <
-2 0 -1 0 35.02 2.18 1.56 <
3 0 1 -2 0.11 -4.37 1.56 <
-3 0 -1 2 0.11 -0.94 1.56 <
2 0 1 1 0.11 -2.81 1.56 <
-2 0 -1 -1 0.11 -1.87 1.56 <
3 0 1 -1 0.34 0.94 1.87 <
-3 0 -1 1 0.34 -0.62 1.56 <
2 0 1 2 0.01 -0.31 1.87 <
-2 0 -1 -2 0.01 -0.62 1.87 <
3 0 1 0 8.28 -0.94 1.87 <
-3 0 -1 0 8.28 2.18 1.87 <
4 0 1 -2 0.03 2.81 1.87 <
-4 0 -1 2 0.03 1.25 1.87 <
3 0 1 1 0.09 2.50 2.18 <
-3 0 -1 -1 0.09 2.18 1.87 <
-3 1 1 -2 0.02 -6.24 1.87 <
3 -1 -1 2 0.02 0.94 2.18 <
-4 1 1 1 0.13 0.62 1.87 <
4 -1 -1 -1 0.13 -0.62 1.87 <
-3 1 1 -1 0.37 -1.87 1.87 <
3 -1 -1 1 0.37 4.99 1.87 <
-4 1 1 2 0.10 1.87 1.87 <
4 -1 -1 -2 0.10 -0.62 1.87 <
-3 1 1 0 6.89 -1.56 1.87 <
3 -1 -1 0 6.89 0.31 1.87 <
-2 1 1 -2 0.22 -1.25 1.56 <
2 -1 -1 2 0.22 -15.29 1.56 <
-3 1 1 1 0.44 1.56 1.56 <
3 -1 -1 -1 0.44 3.12 1.56 <
-2 1 1 -1 2.24 9.67 1.56 o
2 -1 -1 1 2.24 -3.43 1.56 <
-3 1 1 2 0.39 0.62 1.25 <
3 -1 -1 -2 0.39 -1.56 1.25 <
-2 1 1 0 119.85 32.14 1.56 o
2 -1 -1 0 119.85 34.64 1.56 o
-1 1 1 -2 0.61 0.31 1.25 <
1 -1 -1 2 0.61 1.25 1.25 <
-2 1 1 1 1.58 -1.25 1.87 <
2 -1 -1 -1 1.58 0.00 3.12 <
-1 1 1 -1 0.79 9.05 0.94 o
1 -1 -1 1 0.79 7.18 1.25 o
-2 1 1 2 0.12 0.94 0.94 <
2 -1 -1 -2 0.12 2.81 0.94 <
-1 1 1 0 64.96 141.68 1.25 o
1 -1 -1 0 64.96 89.87 1.25 o
0 1 1 -2 0.03 1.87 0.62 o
0 -1 -1 2 0.03 2.18 0.62 o
-1 1 1 1 13.03 20.28 0.62 o
1 -1 -1 -1 13.03 16.85 0.62 o
0 1 1 -1 4.03 48.06 0.94 o
0 -1 -1 1 4.03 47.12 0.62 o
-1 1 1 2 2.21 8.74 1.25 o
1 -1 -1 -2 2.21 4.99 0.94 o
2 1 1 -2 1.28 -4.68 4.68 <
1 1 1 1 0.57 0.62 2.50 <
-1 -1 -1 -1 0.57 -4.99 6.24 <
2 1 1 -1 4.00 0.31 1.87 <
-2 -1 -1 1 4.00 0.00 3.43 <
1 1 1 2 0.06 4.06 1.56 <
-1 -1 -1 -2 0.06 2.81 2.81 <
2 1 1 0 14.68 -2.18 1.56 <
-2 -1 -1 0 14.68 -1.87 2.18 <
3 1 1 -2 0.09 0.62 1.56 <
-3 -1 -1 2 0.09 3.12 1.87 <
2 1 1 1 0.15 4.06 1.87 <
-2 -1 -1 -1 0.15 1.56 1.87 <
3 1 1 -1 0.30 3.12 1.87 <
-3 -1 -1 1 0.30 0.94 1.87 <
2 1 1 2 0.01 0.31 1.87 <
-2 -1 -1 -2 0.01 0.94 1.87 <
3 1 1 0 6.52 0.94 1.87 <
-3 -1 -1 0 6.52 2.50 1.87 <
-4 2 1 0 0.31 8.43 1.87 o
4 -2 -1 0 0.31 -15.60 2.18 <
-3 2 1 -2 0.03 3.12 1.87 <
3 -2 -1 2 0.03 6.87 1.87 o
-4 2 1 1 0.16 2.50 1.87 <
4 -2 -1 -1 0.16 -5.62 1.87 <
-3 2 1 -1 0.39 -2.81 1.87 <
3 -2 -1 1 0.39 4.99 2.18 <
-4 2 1 2 0.13 -2.18 1.56 <
4 -2 -1 -2 0.13 0.62 1.87 <
-3 2 1 0 12.72 1.56 1.56 <
3 -2 -1 0 12.72 0.00 1.56 <
-2 2 1 -2 0.25 -8.43 1.56 <
2 -2 -1 2 0.25 9.36 1.56 o
-3 2 1 1 1.23 2.81 3.12 <
3 -2 -1 -1 1.23 -0.94 1.56 <
-2 2 1 -1 1.72 9.36 1.25 o
2 -2 -1 1 1.72 3.74 3.12 <
-3 2 1 2 0.71 1.87 0.94 <
3 -2 -1 -2 0.71 -0.62 1.25 <
-2 2 1 0 54.17 58.67 1.25 o
2 -2 -1 0 54.17 73.33 1.25 o
-1 2 1 -2 1.01 3.74 0.62 o
1 -2 -1 2 1.01 5.31 0.94 o
-2 2 1 1 1.64 15.60 0.62 o
2 -2 -1 -1 1.64 11.55 0.62 o
-1 2 1 -1 2.44 14.98 0.62 o
1 -2 -1 1 2.44 16.54 0.62 o
-2 2 1 2 0.02 9.36 0.62 o
2 -2 -1 -2 0.02 13.11 0.62 o
-1 2 1 0 150.62 146.36 0.94 o
1 -2 -1 0 150.62 160.40 0.94 o
0 2 1 -2 0.09 3.12 0.62 o
0 -2 -1 2 0.09 2.18 0.62 o
-1 2 1 1 9.14 6.24 0.62 o
1 -2 -1 -1 9.14 4.37 0.62 o
0 2 1 -1 4.21 4.99 1.87 <
0 -2 -1 1 4.21 -1.87 1.56 <
3 2 1 -2 0.06 -9.05 5.62 <
2 2 1 1 0.16 -2.50 3.43 <
3 2 1 -1 0.23 6.87 2.50 <
2 2 1 2 0.02 0.31 2.18 <
-5 3 1 2 0.03 -0.62 1.87 <
5 -3 -1 -2 0.03 0.94 2.18 <
-4 3 1 0 0.02 4.68 1.87 <
4 -3 -1 0 0.02 -13.42 3.43 <
-3 3 1 -2 0.04 -1.25 1.87 <
3 -3 -1 2 0.04 -1.56 1.87 <
-4 3 1 1 0.22 4.68 4.06 <
4 -3 -1 -1 0.22 -5.62 2.18 <
-3 3 1 -1 0.46 2.18 1.87 <
3 -3 -1 1 0.46 0.62 1.87 <
-4 3 1 2 0.12 2.50 1.25 <
4 -3 -1 -2 0.12 8.43 4.37 <
-3 3 1 0 24.00 2.50 1.25 <
3 -3 -1 0 24.00 3.43 1.56 <
-2 3 1 -2 0.20 0.62 0.94 <
2 -3 -1 2 0.20 2.81 1.25 <
-3 3 1 1 2.55 6.24 0.94 o
3 -3 -1 -1 2.55 1.25 0.94 <
-2 3 1 -1 0.96 3.74 0.94 o
2 -3 -1 1 0.96 0.62 0.94 <
-3 3 1 2 0.91 2.81 0.62 o
3 -3 -1 -2 0.91 2.50 0.62 o
-2 3 1 0 49.76 36.20 0.94 o
2 -3 -1 0 49.76 35.89 0.94 o
-1 3 1 -2 1.31 3.43 0.62 o
1 -3 -1 2 1.31 2.50 0.62 o
-2 3 1 1 1.41 9.67 0.62 o
2 -3 -1 -1 1.41 10.92 0.62 o
-1 3 1 -1 2.98 27.77 0.62 o
1 -3 -1 1 2.98 28.09 0.62 o
-2 3 1 2 0.04 1.87 0.62 o
2 -3 -1 -2 0.04 1.56 0.62 <
-1 3 1 0 83.77 70.21 0.94 o
1 -3 -1 0 83.77 86.13 0.94 o
0 3 1 -2 0.12 2.81 0.94 <
0 -3 -1 2 0.12 1.87 0.94 <
-1 3 1 1 3.96 0.62 3.74 <
1 -3 -1 -1 3.96 -12.48 5.62 <
-4 4 1 -1 0.02 1.25 2.18 <
4 -4 -1 1 0.02 -0.62 2.18 <
-5 4 1 2 0.03 -0.94 1.56 <
5 -4 -1 -2 0.03 5.93 3.12 <
-4 4 1 0 0.81 1.87 1.25 <
4 -4 -1 0 0.81 -0.94 1.87 <
-3 4 1 -2 0.04 -1.25 1.25 <
3 -4 -1 2 0.04 3.74 1.87 <
-4 4 1 1 0.30 -0.62 0.94 <
4 -4 -1 -1 0.30 0.00 1.25 <
-3 4 1 -1 0.67 -2.81 0.94 <
3 -4 -1 1 0.67 -0.62 1.25 <
-4 4 1 2 0.08 0.94 0.94 <
4 -4 -1 -2 0.08 0.31 0.94 <
-3 4 1 0 24.27 9.36 0.94 o
3 -4 -1 0 24.27 14.98 0.94 o
-2 4 1 -2 0.08 2.18 0.94 <
2 -4 -1 2 0.08 -0.94 0.94 <
-3 4 1 1 4.19 4.37 0.62 o
3 -4 -1 -1 4.19 2.81 0.62 o
-2 4 1 -1 0.32 6.87 0.62 o
2 -4 -1 1 0.32 9.36 0.62 o
-3 4 1 2 0.91 13.11 0.62 o
3 -4 -1 -2 0.91 10.61 0.62 o
-2 4 1 0 0.55 8.43 0.62 o
2 -4 -1 0 0.55 10.30 0.62 o
-1 4 1 -2 1.33 6.87 0.62 o
1 -4 -1 2 1.33 3.12 0.62 o
-2 4 1 1 0.92 7.80 0.62 o
2 -4 -1 -1 0.92 8.43 0.62 o
-1 4 1 -1 2.23 13.73 0.62 o
1 -4 -1 1 2.23 11.86 0.62 o
-2 4 1 2 0.19 1.25 0.94 <
2 -4 -1 -2 0.19 2.81 0.94 <
-1 4 1 0 0.80 7.80 1.25 o
1 -4 -1 0 0.80 3.43 1.25 <
-5 5 1 1 0.31 2.81 1.25 <
5 -5 -1 -1 0.31 3.12 2.50 <
-4 5 1 -1 0.09 -1.87 1.25 <
4 -5 -1 1 0.09 0.62 1.56 <
-5 5 1 2 0.02 0.31 1.25 <
5 -5 -1 -2 0.02 -1.25 1.25 <
-4 5 1 0 2.60 -1.25 1.25 <
4 -5 -1 0 2.60 -3.12 1.25 <
-3 5 1 -2 0.03 1.87 0.94 <
3 -5 -1 2 0.03 3.12 1.25 <
-4 5 1 1 0.38 0.94 0.94 <
4 -5 -1 -1 0.38 0.31 1.25 <
-3 5 1 -1 0.99 4.06 0.94 o
3 -5 -1 1 0.99 0.62 0.94 <
-4 5 1 2 0.03 0.94 0.94 <
4 -5 -1 -2 0.03 1.56 0.94 <
-3 5 1 0 55.59 54.92 1.25 o
3 -5 -1 0 55.59 58.36 1.25 o
-2 5 1 -2 0.00 2.18 0.62 o
2 -5 -1 2 0.00 2.81 0.94 <
-3 5 1 1 5.50 2.50 0.62 o
3 -5 -1 -1 5.50 4.68 0.62 o
-2 5 1 -1 0.08 2.50 0.62 o
2 -5 -1 1 0.08 5.62 0.62 o
-3 5 1 2 0.81 21.22 0.62 o
3 -5 -1 -2 0.81 24.97 0.62 o
-2 5 1 0 18.74 25.28 0.94 o
2 -5 -1 0 18.74 30.58 0.94 o
-1 5 1 -2 1.02 3.12 0.62 o
1 -5 -1 2 1.02 -1.25 0.62 <
-2 5 1 1 0.37 8.43 0.94 o
2 -5 -1 -1 0.37 10.30 0.94 o
-1 5 1 -1 2.19 1.56 0.94 <
1 -5 -1 1 2.19 0.00 0.94 <
-2 5 1 2 0.21 -0.62 1.25 <
2 -5 -1 -2 0.21 -15.29 3.43 <
-5 6 1 1 0.33 2.50 1.25 <
5 -6 -1 -1 0.33 1.25 1.25 <
-4 6 1 -1 0.21 0.31 1.25 <
4 -6 -1 1 0.21 1.56 1.25 <
-5 6 1 2 0.02 0.31 1.25 <
5 -6 -1 -2 0.02 -0.31 1.25 <
-4 6 1 0 4.90 -0.62 1.25 <
4 -6 -1 0 4.90 3.74 1.25 o
-3 6 1 -2 0.02 -0.94 0.94 <
3 -6 -1 2 0.02 2.81 1.25 <
-4 6 1 1 0.40 1.25 0.94 <
4 -6 -1 -1 0.40 3.43 0.94 o
-3 6 1 -1 1.31 6.55 0.94 o
3 -6 -1 1 1.31 9.99 0.94 o
-4 6 1 2 0.01 1.56 0.94 <
4 -6 -1 -2 0.01 0.62 0.94 <
-3 6 1 0 90.63 116.71 1.25 o
3 -6 -1 0 90.63 138.56 1.25 o
-2 6 1 -2 0.07 0.94 0.62 <
2 -6 -1 2 0.07 2.81 0.62 o
-3 6 1 1 5.67 3.74 0.62 o
3 -6 -1 -1 5.67 4.68 0.62 o
-2 6 1 -1 0.41 2.18 0.62 o
2 -6 -1 1 0.41 4.37 0.62 o
-3 6 1 2 0.68 3.12 0.62 o
3 -6 -1 -2 0.68 4.68 0.62 o
-2 6 1 0 75.49 42.44 0.94 o
2 -6 -1 0 75.49 45.56 0.94 o
-1 6 1 -2 0.61 1.25 0.94 <
1 -6 -1 2 0.61 -0.94 0.94 <
-2 6 1 1 0.29 0.00 1.25 <
2 -6 -1 -1 0.29 4.68 1.25 o
-1 6 1 -1 2.68 9.99 1.25 o
1 -6 -1 1 2.68 8.74 1.56 o
-4 7 1 -2 0.03 -0.94 1.25 <
4 -7 -1 2 0.03 1.87 1.25 <
-5 7 1 1 0.29 0.62 1.25 <
5 -7 -1 -1 0.29 -2.50 1.25 <
-4 7 1 -1 0.34 -0.62 1.25 <
4 -7 -1 1 0.34 0.62 1.25 <
-5 7 1 2 0.01 -0.62 1.25 <
5 -7 -1 -2 0.01 0.00 1.25 <
-4 7 1 0 7.08 1.25 0.94 <
4 -7 -1 0 7.08 0.94 1.25 <
-3 7 1 -2 0.01 -0.62 0.94 <
3 -7 -1 2 0.01 -1.25 1.25 <
-4 7 1 1 0.36 1.87 0.94 <
4 -7 -1 -1 0.36 0.94 0.94 <
-3 7 1 -1 1.51 9.99 0.94 o
3 -7 -1 1 1.51 14.04 0.94 o
-4 7 1 2 0.02 -0.62 0.94 <
4 -7 -1 -2 0.02 -0.62 0.94 <
-3 7 1 0 83.07 130.44 1.25 o
3 -7 -1 0 83.07 127.32 1.25 o
-2 7 1 -2 0.23 3.12 0.62 o
2 -7 -1 2 0.23 1.25 0.94 <
-3 7 1 1 4.48 2.81 0.62 o
3 -7 -1 -1 4.48 4.37 0.62 o
-2 7 1 -1 1.37 5.93 0.94 o
2 -7 -1 1 1.37 9.67 0.94 o
-3 7 1 2 0.55 0.31 0.94 <
3 -7 -1 -2 0.55 0.94 0.94 <
-2 7 1 0 99.90 39.32 1.25 o
2 -7 -1 0 99.90 39.01 1.25 o
-1 7 1 -2 0.29 -1.56 1.25 <
1 -7 -1 2 0.29 7.49 3.12 <
-2 7 1 1 0.70 4.68 1.56 <
2 -7 -1 -1 0.70 6.24 1.87 o
-5 8 1 0 4.53 4.06 1.87 <
5 -8 -1 0 4.53 0.94 2.18 <
-4 8 1 -2 0.02 0.62 1.25 <
4 -8 -1 2 0.02 1.56 1.25 <
-5 8 1 1 0.22 -0.62 1.25 <
5 -8 -1 -1 0.22 2.81 1.25 <
-4 8 1 -1 0.44 3.12 1.25 <
4 -8 -1 1 0.44 4.37 1.25 o
-5 8 1 2 0.01 2.50 1.25 <
5 -8 -1 -2 0.01 0.94 1.25 <
-4 8 1 0 6.72 7.49 1.25 o
4 -8 -1 0 6.72 15.29 1.25 o
-3 8 1 -2 0.00 2.81 0.94 <
3 -8 -1 2 0.00 -0.62 1.25 <
-4 8 1 1 0.31 -0.31 0.94 <
4 -8 -1 -1 0.31 1.87 0.94 <
-3 8 1 -1 1.52 11.86 0.94 o
3 -8 -1 1 1.52 14.35 1.25 o
-4 8 1 2 0.04 -0.31 0.94 <
4 -8 -1 -2 0.04 1.87 0.94 <
-3 8 1 0 48.77 24.03 0.94 o
3 -8 -1 0 48.77 31.52 0.94 o
-2 8 1 -2 0.33 2.50 0.94 <
2 -8 -1 2 0.33 0.62 0.94 <
-3 8 1 1 2.65 0.00 0.94 <
3 -8 -1 -1 2.65 0.31 0.94 <
-2 8 1 -1 2.64 4.37 0.94 o
2 -8 -1 1 2.64 1.56 0.94 <
-3 8 1 2 0.39 -7.80 1.56 <
3 -8 -1 -2 0.39 1.25 1.25 <
-2 8 1 0 199.01 75.83 1.87 o
2 -8 -1 0 199.01 72.09 1.87 o
-1 8 1 -2 0.11 -3.12 1.87 <
1 -8 -1 2 0.11 4.99 2.81 <
-5 9 1 0 6.61 3.12 1.25 <
5 -9 -1 0 6.61 1.87 1.25 <
-4 9 1 -2 0.01 1.25 1.25 <
4 -9 -1 2 0.01 -1.56 1.25 <
-5 9 1 1 0.13 1.87 1.25 <
5 -9 -1 -1 0.13 3.12 1.25 <
-4 9 1 -1 0.44 0.31 1.25 <
4 -9 -1 1 0.44 3.43 1.25 <
-5 9 1 2 0.02 0.31 1.25 <
5 -9 -1 -2 0.02 2.81 1.25 <
-4 9 1 0 6.84 0.31 0.94 <
4 -9 -1 0 6.84 1.25 1.25 <
-3 9 1 -2 0.00 0.00 0.94 <
3 -9 -1 2 0.00 0.94 1.25 <
-4 9 1 1 0.30 3.12 0.94 o
4 -9 -1 -1 0.30 1.87 0.94 <
-3 9 1 -1 1.31 1.87 0.94 <
3 -9 -1 1 1.31 1.25 0.94 <
-4 9 1 2 0.06 1.87 0.94 <
4 -9 -1 -2 0.06 -1.87 0.94 <
-3 9 1 0 39.56 9.67 1.25 o
3 -9 -1 0 39.56 14.04 1.25 o
-2 9 1 -2 0.33 -0.31 0.94 <
2 -9 -1 2 0.33 0.00 0.94 <
-3 9 1 1 1.13 0.31 1.25 <
3 -9 -1 -1 1.13 1.56 0.94 <
-2 9 1 -1 3.59 7.18 1.56 o
2 -9 -1 1 3.59 7.18 2.18 o
-3 9 1 2 0.22 1.87 1.56 <
3 -9 -1 -2 0.22 1.56 1.56 <
-2 9 1 0 146.00 9.99 2.18 o
2 -9 -1 0 146.00 -4.37 5.31 <
-5 10 1 0 9.96 9.99 1.25 o
5 -10 -1 0 9.96 22.16 1.25 o
-4 10 1 -2 0.01 -2.81 1.25 <
4 -10 -1 2 0.01 0.31 1.25 <
-5 10 1 1 0.08 5.31 1.25 o
5 -10 -1 -1 0.08 0.62 1.25 <
-4 10 1 -1 0.35 1.87 1.25 <
4 -10 -1 1 0.35 2.81 1.25 <
-5 10 1 2 0.02 2.81 1.25 <
5 -10 -1 -2 0.02 0.31 1.25 <
-4 10 1 0 3.63 1.87 1.25 <
4 -10 -1 0 3.63 2.50 1.25 <
-3 10 1 -2 0.00 -0.62 0.94 <
3 -10 -1 2 0.00 -0.31 1.25 <
-4 10 1 1 0.35 -0.31 0.94 <
4 -10 -1 -1 0.35 -0.62 1.25 <
-3 10 1 -1 0.94 0.94 0.94 <
3 -10 -1 1 0.94 0.31 1.25 <
-4 10 1 2 0.07 1.56 0.94 <
4 -10 -1 -2 0.07 1.56 1.25 <
-3 10 1 0 25.39 6.24 1.25 o
3 -10 -1 0 25.39 0.62 1.25 <
-2 10 1 -2 0.26 0.94 2.81 <
2 -10 -1 2 0.26 3.74 1.25 o
-3 10 1 1 0.31 -1.25 1.56 <
3 -10 -1 -1 0.31 1.25 1.56 <
-2 10 1 -1 3.73 -0.94 1.56 <
2 -10 -1 1 3.73 1.25 1.87 <
-3 10 1 2 0.07 0.31 2.81 <
-5 11 1 0 11.01 16.23 1.25 o
5 -11 -1 0 11.01 18.10 1.25 o
-4 11 1 -2 0.01 -3.12 1.25 <
4 -11 -1 2 0.01 -3.74 1.25 <
-5 11 1 1 0.08 1.87 1.25 <
5 -11 -1 -1 0.08 12.17 1.25 o
-4 11 1 -1 0.20 0.94 1.25 <
4 -11 -1 1 0.20 2.18 1.25 <
-5 11 1 2 0.02 0.94 1.25 <
5 -11 -1 -2 0.02 0.00 1.25 <
-4 11 1 0 1.39 -0.31 1.25 <
4 -11 -1 0 1.39 1.87 1.25 <
-3 11 1 -2 0.00 0.94 1.25 <
3 -11 -1 2 0.00 -0.62 1.25 <
-4 11 1 1 0.40 2.50 1.25 <
4 -11 -1 -1 0.40 2.50 1.25 <
-3 11 1 -1 0.53 4.37 1.25 o
3 -11 -1 1 0.53 -0.62 1.25 <
-4 11 1 2 0.08 -3.43 1.25 <
4 -11 -1 -2 0.08 -0.62 1.25 <
-3 11 1 0 9.22 2.81 1.87 <
3 -11 -1 0 9.22 -0.94 1.87 <
-2 11 1 -2 0.19 0.94 1.87 <
2 -11 -1 2 0.19 -1.25 1.87 <
-3 11 1 1 0.05 1.25 1.87 <
3 -11 -1 -1 0.05 4.37 1.87 <
-2 11 1 -1 3.06 3.43 3.43 <
-5 12 1 0 9.57 9.99 1.25 o
5 -12 -1 0 9.57 8.74 1.25 o
-4 12 1 -2 0.01 0.62 1.25 <
4 -12 -1 2 0.01 3.43 1.25 <
-5 12 1 1 0.09 0.62 1.25 <
5 -12 -1 -1 0.09 1.25 1.25 <
-4 12 1 -1 0.08 -0.62 1.25 <
4 -12 -1 1 0.08 0.62 1.25 <
-5 12 1 2 0.01 -1.25 1.25 <
5 -12 -1 -2 0.01 2.18 1.25 <
-4 12 1 0 0.39 0.00 1.25 <
4 -12 -1 0 0.39 2.81 1.25 <
-3 12 1 -2 0.00 -0.94 1.25 <
3 -12 -1 2 0.00 0.62 1.25 <
-4 12 1 1 0.40 2.18 1.25 <
4 -12 -1 -1 0.40 -2.50 1.25 <
-3 12 1 -1 0.22 -3.74 3.43 <
3 -12 -1 1 0.22 -0.94 1.25 <
-4 12 1 2 0.08 -1.56 1.87 <
4 -12 -1 -2 0.08 9.05 3.74 <
-3 12 1 0 0.26 -0.31 1.87 <
3 -12 -1 0 0.26 -1.25 1.87 <
-2 12 1 -2 0.13 3.43 1.87 <
2 -12 -1 2 0.13 -4.06 2.50 <
-3 12 1 1 0.08 0.00 4.99 <
-5 13 1 0 7.22 1.87 1.25 <
5 -13 -1 0 7.22 3.43 1.25 <
-4 13 1 -2 0.02 -1.25 1.25 <
4 -13 -1 2 0.02 1.25 1.25 <
-5 13 1 1 0.09 -2.81 1.25 <
5 -13 -1 -1 0.09 -3.43 1.25 <
-4 13 1 -1 0.02 0.00 1.25 <
4 -13 -1 1 0.02 -1.56 1.25 <
-5 13 1 2 0.01 4.68 1.25 o
5 -13 -1 -2 0.01 -4.37 1.25 <
-4 13 1 0 0.16 -1.25 1.25 <
4 -13 -1 0 0.16 -0.31 1.25 <
-3 13 1 -2 0.00 1.87 1.87 <
3 -13 -1 2 0.00 1.25 1.25 <
-4 13 1 1 0.35 -0.94 1.87 <
4 -13 -1 -1 0.35 2.50 1.56 <
-3 13 1 -1 0.07 0.31 1.87 <
3 -13 -1 1 0.07 7.18 1.87 o
-4 13 1 2 0.07 -1.25 1.87 <
4 -13 -1 -2 0.07 3.43 1.87 <
-3 13 1 0 0.68 -1.56 1.87 <
3 -13 -1 0 0.68 -2.50 3.12 <
-2 13 1 -2 0.09 14.67 6.87 <
-4 14 1 -2 0.03 2.50 1.25 <
4 -14 -1 2 0.03 1.87 1.25 <
-5 14 1 1 0.08 0.62 1.25 <
5 -14 -1 -1 0.08 -3.43 1.25 <
-4 14 1 -1 0.02 4.68 1.25 o
4 -14 -1 1 0.02 -4.37 1.25 <
-5 14 1 2 0.00 4.99 1.25 o
5 -14 -1 -2 0.00 2.18 1.25 <
-4 14 1 0 0.03 -7.80 4.68 <
4 -14 -1 0 0.03 -4.68 1.56 <
-3 14 1 -2 0.00 -0.31 1.87 <
3 -14 -1 2 0.00 -0.62 3.12 <
-4 14 1 1 0.27 1.87 1.87 <
4 -14 -1 -1 0.27 -4.37 2.18 <
-3 14 1 -1 0.05 1.87 1.87 <
3 -14 -1 1 0.05 -1.25 2.18 <
-4 14 1 2 0.05 -1.87 2.18 <
4 -14 -1 -2 0.05 16.23 5.31 o
-3 14 1 0 3.09 57.42 8.74 o
-5 15 1 1 0.06 3.74 1.56 <
5 -15 -1 -1 0.06 1.87 1.25 <
-4 15 1 -1 0.03 4.99 2.18 <
4 -15 -1 1 0.03 1.25 1.56 <
-5 15 1 2 0.00 -0.94 2.18 <
5 -15 -1 -2 0.00 -3.12 1.87 <
-4 15 1 0 0.01 4.68 2.18 <
4 -15 -1 0 0.01 -1.56 2.18 <
-3 15 1 -2 0.00 3.12 2.18 <
3 -15 -1 2 0.00 5.62 2.18 <
-4 15 1 1 0.18 -3.12 2.18 <
4 -15 -1 -1 0.18 2.81 2.18 <
-3 15 1 -1 0.10 8.11 2.18 o
3 -15 -1 1 0.10 6.55 10.30 <
-3 15 -2 -1 0.17 -0.94 3.74 <
4 -15 2 -1 0.04 0.00 3.74 <
-4 15 -2 1 0.04 -4.68 2.18 <
3 -15 2 2 0.01 -0.31 2.18 <
-3 15 -2 -2 0.01 3.74 2.18 <
4 -15 2 0 0.35 6.55 2.18 <
-4 15 -2 0 0.35 -2.18 2.18 <
-4 14 -2 2 0.01 -3.74 3.12 <
3 -14 2 1 0.24 1.56 3.43 <
-3 14 -2 -1 0.24 -0.94 1.87 <
4 -14 2 -1 0.02 0.62 2.18 <
-4 14 -2 1 0.02 3.43 1.87 <
3 -14 2 2 0.01 0.62 1.87 <
-3 14 -2 -2 0.01 -0.31 1.87 <
4 -14 2 0 1.10 0.94 2.18 <
-4 14 -2 0 1.10 4.68 1.87 <
5 -14 2 -2 0.02 -1.25 2.18 <
-5 14 -2 2 0.02 -2.81 1.87 <
4 -14 2 1 0.16 4.06 1.56 <
-4 14 -2 -1 0.16 0.00 1.87 <
-3 13 -2 0 4.75 0.31 2.81 <
4 -13 2 -2 0.01 5.62 2.18 <
-4 13 -2 2 0.01 -0.94 1.87 <
3 -13 2 1 0.29 -0.31 1.87 <
-3 13 -2 -1 0.29 1.25 1.87 <
4 -13 2 -1 0.06 -3.43 2.18 <
-4 13 -2 1 0.06 -1.25 1.87 <
3 -13 2 2 0.01 3.43 1.87 <
-3 13 -2 -2 0.01 -0.94 1.87 <
4 -13 2 0 2.84 0.62 3.74 <
-4 13 -2 0 2.84 0.31 1.87 <
5 -13 2 -2 0.03 3.43 1.25 <
-5 13 -2 2 0.03 -0.94 1.87 <
4 -13 2 1 0.38 2.50 1.25 <
-4 13 -2 -1 0.38 6.24 1.25 o
5 -13 2 -1 0.26 0.00 1.25 <
-5 13 -2 1 0.26 -0.62 1.25 <
-2 12 -2 -2 0.03 3.12 2.18 <
3 -12 2 0 6.08 -2.81 1.87 <
-3 12 -2 0 6.08 2.50 1.87 <
4 -12 2 -2 0.02 -5.93 1.87 <
-4 12 -2 2 0.02 4.06 1.87 <
3 -12 2 1 0.30 -2.50 1.87 <
-3 12 -2 -1 0.30 -1.87 1.87 <
4 -12 2 -1 0.20 4.99 1.87 <
-4 12 -2 1 0.20 -1.87 1.87 <
3 -12 2 2 0.01 -1.25 1.56 <
-3 12 -2 -2 0.01 0.31 1.87 <
4 -12 2 0 4.83 0.62 1.25 <
-4 12 -2 0 4.83 3.74 1.87 <
5 -12 2 -2 0.03 -1.25 1.25 <
-5 12 -2 2 0.03 0.94 1.25 <
4 -12 2 1 0.64 2.50 1.25 <
-4 12 -2 -1 0.64 4.99 1.25 o
5 -12 2 -1 0.11 2.18 1.25 <
-5 12 -2 1 0.11 -0.31 1.25 <
4 -12 2 2 0.07 0.00 1.25 <
-4 12 -2 -2 0.07 0.31 1.25 <
3 -11 2 -1 0.58 -5.31 5.62 <
-3 11 -2 1 0.58 1.56 1.87 <
2 -11 2 2 0.10 -2.50 1.87 <
-2 11 -2 -2 0.10 -0.94 1.56 <
3 -11 2 0 6.15 0.62 1.87 <
-3 11 -2 0 6.15 1.25 1.56 <
4 -11 2 -2 0.05 -1.25 1.87 <
-4 11 -2 2 0.05 0.31 1.56 <
3 -11 2 1 0.25 1.25 1.87 <
-3 11 -2 -1 0.25 3.43 1.56 <
4 -11 2 -1 0.41 2.50 1.25 <
-4 11 -2 1 0.41 2.18 4.37 <
3 -11 2 2 0.02 2.81 1.25 <
-3 11 -2 -2 0.02 1.56 1.25 <
4 -11 2 0 6.42 2.18 0.94 <
-4 11 -2 0 6.42 -0.94 1.25 <
5 -11 2 -2 0.04 0.62 0.94 <
-5 11 -2 2 0.04 1.56 0.94 <
4 -11 2 1 0.84 4.99 0.94 o
-4 11 -2 -1 0.84 4.06 0.94 o
5 -11 2 -1 0.07 1.56 0.94 <
-5 11 -2 1 0.07 0.94 0.94 <
4 -11 2 2 0.07 1.25 0.94 <
-4 11 -2 -2 0.07 -0.31 0.94 <
2 -10 2 1 0.45 -5.93 3.12 <
-2 10 -2 -1 0.45 -6.24 1.87 <
3 -10 2 -1 0.46 1.87 1.56 <
-3 10 -2 1 0.46 2.81 1.56 <
2 -10 2 2 0.22 -1.25 1.56 <
-2 10 -2 -2 0.22 0.00 1.56 <
3 -10 2 0 3.63 1.56 1.56 <
-3 10 -2 0 3.63 -0.62 1.56 <
4 -10 2 -2 0.08 3.74 1.56 <
-4 10 -2 2 0.08 1.56 1.56 <
3 -10 2 1 0.16 3.74 1.25 o
-3 10 -2 -1 0.16 2.81 1.25 <
4 -10 2 -1 0.63 -0.31 0.94 <
-4 10 -2 1 0.63 0.62 0.94 <
3 -10 2 2 0.03 1.87 0.94 <
-3 10 -2 -2 0.03 0.94 0.94 <
4 -10 2 0 7.48 5.62 0.94 o
-4 10 -2 0 7.48 4.37 0.94 o
5 -10 2 -2 0.05 1.87 0.94 <
-5 10 -2 2 0.05 -1.56 0.94 <
4 -10 2 1 0.91 12.48 0.94 o
-4 10 -2 -1 0.91 3.43 0.94 o
5 -10 2 -1 0.16 0.62 0.94 <
-5 10 -2 1 0.16 1.56 0.94 <
4 -10 2 2 0.06 0.62 0.94 <
-4 10 -2 -2 0.06 2.81 0.94 <
3 -9 2 -2 0.51 0.62 2.18 <
-3 9 -2 2 0.51 0.62 1.56 <
2 -9 2 1 0.50 -1.87 1.56 <
-2 9 -2 -1 0.50 -0.94 1.56 <
3 -9 2 -1 0.26 2.50 1.56 <
-3 9 -2 1 0.26 2.18 1.56 <
2 -9 2 2 0.33 1.56 1.56 <
-2 9 -2 -2 0.33 -1.56 1.56 <
3 -9 2 0 7.31 7.80 1.25 o
-3 9 -2 0 7.31 6.87 3.43 <
4 -9 2 -2 0.10 2.81 0.94 <
-4 9 -2 2 0.10 4.68 0.94 o
3 -9 2 1 0.06 -0.31 0.94 <
-3 9 -2 -1 0.06 -2.18 0.94 <
4 -9 2 -1 0.74 0.94 0.94 <
-4 9 -2 1 0.74 0.62 0.94 <
3 -9 2 2 0.04 0.94 0.94 <
-3 9 -2 -2 0.04 0.94 0.94 <
4 -9 2 0 9.17 11.86 0.94 o
-4 9 -2 0 9.17 9.36 0.94 o
5 -9 2 -2 0.05 0.62 0.94 <
-5 9 -2 2 0.05 1.56 0.94 <
4 -9 2 1 0.83 7.80 0.94 o
-4 9 -2 -1 0.83 6.24 0.94 o
5 -9 2 -1 0.34 -1.56 0.94 <
-5 9 -2 1 0.34 -1.25 1.25 <
2 -8 2 0 109.24 5.31 1.56 o
-2 8 -2 0 109.24 1.87 1.56 <
3 -8 2 -2 0.46 -0.31 1.56 <
-3 8 -2 2 0.46 -2.81 1.25 <
2 -8 2 1 0.65 -2.81 1.56 <
-2 8 -2 -1 0.65 1.56 1.25 <
3 -8 2 -1 0.14 1.25 2.18 <
-3 8 -2 1 0.14 -3.12 1.56 <
2 -8 2 2 0.35 1.56 0.94 <
-2 8 -2 -2 0.35 -1.25 0.94 <
3 -8 2 0 4.65 6.24 0.94 o
-3 8 -2 0 4.65 6.87 0.94 o
4 -8 2 -2 0.09 1.87 0.94 <
-4 8 -2 2 0.09 3.12 0.94 o
3 -8 2 1 0.00 2.81 0.94 <
-3 8 -2 -1 0.00 0.62 0.94 <
4 -8 2 -1 0.68 3.74 0.94 o
-4 8 -2 1 0.68 3.12 0.94 o
3 -8 2 2 0.05 4.06 0.94 o
-3 8 -2 -2 0.05 1.87 0.94 <
4 -8 2 0 7.16 12.17 0.94 o
-4 8 -2 0 7.16 6.87 0.94 o
5 -8 2 -2 0.04 1.56 0.94 <
-5 8 -2 2 0.04 1.56 0.94 <
4 -8 2 1 0.63 3.43 1.25 <
-4 8 -2 -1 0.63 0.00 1.25 <
5 -8 2 -1 0.50 0.31 1.25 <
-5 8 -2 1 0.50 3.12 1.25 <
-2 7 -2 1 5.05 -5.62 5.62 <
1 -7 2 2 0.89 1.87 1.25 <
-1 7 -2 -2 0.89 0.62 1.25 <
2 -7 2 0 108.16 29.96 1.56 o
-2 7 -2 0 108.16 33.08 1.56 o
3 -7 2 -2 0.24 0.62 1.25 <
-3 7 -2 2 0.24 1.56 1.25 <
2 -7 2 1 1.01 2.18 0.94 <
-2 7 -2 -1 1.01 3.43 2.18 <
3 -7 2 -1 0.26 0.62 0.62 <
-3 7 -2 1 0.26 -0.62 0.62 <
2 -7 2 2 0.30 1.87 0.62 o
-2 7 -2 -2 0.30 2.50 0.62 o
3 -7 2 0 6.43 2.50 0.94 <
-3 7 -2 0 6.43 3.12 0.94 o
4 -7 2 -2 0.08 2.81 0.94 <
-4 7 -2 2 0.08 3.12 0.94 o
3 -7 2 1 0.03 3.43 0.94 o
-3 7 -2 -1 0.03 2.81 0.94 <
4 -7 2 -1 0.46 2.81 0.94 <
-4 7 -2 1 0.46 3.74 0.94 o
3 -7 2 2 0.06 -0.31 0.94 <
-3 7 -2 -2 0.06 9.67 0.94 o
4 -7 2 0 5.82 7.18 1.25 o
-4 7 -2 0 5.82 3.43 1.25 <
5 -7 2 -2 0.03 -0.94 1.25 <
-5 7 -2 2 0.03 -4.06 1.25 <
4 -7 2 1 0.39 5.62 1.56 o
-4 7 -2 -1 0.39 -1.25 1.25 <
1 -6 2 1 12.62 7.49 6.55 <
-1 6 -2 -1 12.62 -1.25 3.12 <
2 -6 2 -1 11.87 2.18 1.25 <
-2 6 -2 1 11.87 3.12 1.25 <
1 -6 2 2 0.51 -0.62 1.25 <
-1 6 -2 -2 0.51 2.81 1.25 <
2 -6 2 0 221.22 91.12 4.06 o
-2 6 -2 0 221.22 205.02 2.18 o
3 -6 2 -2 0.03 0.00 0.62 <
-3 6 -2 2 0.03 0.62 0.62 <
2 -6 2 1 1.42 13.42 0.62 o
-2 6 -2 -1 1.42 8.11 0.62 o
3 -6 2 -1 0.62 0.62 0.62 <
-3 6 -2 1 0.62 0.00 0.62 <
2 -6 2 2 0.22 1.56 0.62 <
-2 6 -2 -2 0.22 4.68 0.62 o
3 -6 2 0 13.73 3.12 0.94 o
-3 6 -2 0 13.73 6.55 0.62 o
4 -6 2 -2 0.08 -0.94 0.94 <
-4 6 -2 2 0.08 2.81 0.94 <
3 -6 2 1 0.12 1.25 0.94 <
-3 6 -2 -1 0.12 0.31 0.94 <
4 -6 2 -1 0.21 2.81 1.25 <
-4 6 -2 1 0.21 3.43 0.94 o
3 -6 2 2 0.05 -3.12 2.18 <
-3 6 -2 -2 0.05 2.81 0.94 <
4 -6 2 0 6.26 4.68 1.87 <
-4 6 -2 0 6.26 1.25 1.25 <
5 -6 2 -2 0.02 0.00 1.87 <
-5 6 -2 2 0.02 0.62 1.87 <
4 -6 2 1 0.19 -0.62 1.87 <
-4 6 -2 -1 0.19 -10.30 2.81 <
2 -5 2 -2 1.27 4.68 3.12 <
-2 5 -2 2 1.27 2.81 2.18 <
1 -5 2 1 11.28 4.68 1.25 o
-1 5 -2 -1 11.28 7.49 1.25 o
2 -5 2 -1 21.44 6.55 0.94 o
-2 5 -2 1 21.44 7.18 1.25 o
1 -5 2 2 0.13 1.25 0.62 <
-1 5 -2 -2 0.13 7.49 1.56 o
2 -5 2 0 350.06 276.49 0.94 o
-2 5 -2 0 350.06 264.01 1.25 o
3 -5 2 -2 0.05 -1.56 0.62 <
-3 5 -2 2 0.05 0.31 0.62 <
2 -5 2 1 1.48 8.74 0.62 o
-2 5 -2 -1 1.48 7.80 0.62 o
3 -5 2 -1 1.12 1.25 0.62 <
-3 5 -2 1 1.12 -1.56 0.62 <
2 -5 2 2 0.17 0.62 0.94 <
-2 5 -2 -2 0.17 0.00 0.62 <
3 -5 2 0 10.15 39.01 1.87 o
-3 5 -2 0 10.15 29.96 0.94 o
4 -5 2 -2 0.11 1.25 1.56 <
-4 5 -2 2 0.11 2.81 1.25 <
3 -5 2 1 0.24 -0.31 1.56 <
-3 5 -2 -1 0.24 2.81 2.18 <
4 -5 2 -1 0.06 0.00 1.56 <
-4 5 -2 1 0.06 -0.31 1.56 <
3 -5 2 2 0.04 0.94 1.87 <
-3 5 -2 -2 0.04 -4.06 1.56 <
4 -5 2 0 5.91 3.43 1.87 <
-4 5 -2 0 5.91 1.25 1.87 <
5 -5 2 -2 0.01 -6.24 2.18 <
-5 5 -2 2 0.01 -6.87 1.87 <
1 -4 2 0 65.02 7.49 1.87 o
-1 4 -2 0 65.02 13.42 1.56 o
2 -4 2 -2 2.62 4.68 0.94 o
-2 4 -2 2 2.62 5.62 0.94 o
1 -4 2 1 4.90 43.69 1.25 o
-1 4 -2 -1 4.90 33.39 1.25 o
2 -4 2 -1 28.59 40.88 0.62 o
-2 4 -2 1 28.59 41.82 0.62 o
1 -4 2 2 0.04 0.62 0.62 <
-1 4 -2 -2 0.04 -0.62 0.62 <
2 -4 2 0 334.86 251.84 1.25 o
-2 4 -2 0 334.86 245.28 0.94 o
3 -4 2 -2 0.26 1.87 1.25 <
-3 4 -2 2 0.26 0.94 0.62 <
2 -4 2 1 1.08 11.86 1.25 o
-2 4 -2 -1 1.08 4.06 1.25 o
3 -4 2 -1 1.51 -0.94 1.25 <
-3 4 -2 1 1.51 -1.25 1.25 <
2 -4 2 2 0.14 -1.56 1.25 <
-2 4 -2 -2 0.14 5.62 1.25 o
3 -4 2 0 9.18 3.74 1.56 <
-3 4 -2 0 9.18 3.74 1.56 <
4 -4 2 -2 0.13 -0.94 1.56 <
-4 4 -2 2 0.13 1.25 1.56 <
3 -4 2 1 0.33 4.37 1.56 <
-3 4 -2 -1 0.33 1.87 1.56 <
4 -4 2 -1 0.04 30.89 2.81 o
-4 4 -2 1 0.04 8.43 1.56 o
3 -4 2 2 0.02 3.74 2.18 <
-3 4 -2 -2 0.02 0.62 1.87 <
4 -4 2 0 4.81 1.87 1.87 <
-4 4 -2 0 4.81 0.62 1.87 <
2 3 -2 2 0.01 -7.18 2.50 <
3 3 -2 -1 0.25 -0.94 3.12 <
2 3 -2 1 0.80 -3.43 4.68 <
3 3 -2 -2 0.13 -12.17 8.11 <
0 -3 2 2 1.96 19.97 1.25 o
0 3 -2 -2 1.96 4.06 1.25 o
1 -3 2 0 37.53 29.65 0.94 o
-1 3 -2 0 37.53 32.14 0.94 o
2 -3 2 -2 3.37 26.21 0.62 o
-2 3 -2 2 3.37 21.84 0.62 o
1 -3 2 1 0.19 25.59 0.62 o
-1 3 -2 -1 0.19 31.52 0.62 o
2 -3 2 -1 27.15 16.85 0.94 o
-2 3 -2 1 27.15 -7.80 3.43 <
1 -3 2 2 0.28 -0.62 0.94 <
-1 3 -2 -2 0.28 1.25 0.94 <
2 -3 2 0 121.60 91.75 1.87 o
-2 3 -2 0 121.60 76.14 1.87 o
3 -3 2 -2 0.44 2.50 1.25 <
-3 3 -2 2 0.44 1.25 1.25 <
2 -3 2 1 0.54 9.36 1.25 o
-2 3 -2 -1 0.54 5.31 1.25 o
3 -3 2 -1 1.60 0.62 1.25 <
-3 3 -2 1 1.60 -2.81 1.25 <
2 -3 2 2 0.12 2.18 1.56 <
-2 3 -2 -2 0.12 5.31 1.56 o
3 -3 2 0 9.01 2.50 1.56 <
-3 3 -2 0 9.01 5.31 1.56 o
4 -3 2 -2 0.12 -0.62 1.56 <
-4 3 -2 2 0.12 11.86 1.56 o
3 -3 2 1 0.36 11.23 1.87 o
-3 3 -2 -1 0.36 4.06 1.56 <
4 -3 2 -1 0.11 -0.94 1.87 <
-4 3 -2 1 0.11 -2.81 1.87 <
3 -3 2 2 0.01 16.23 1.87 o
-3 3 -2 -2 0.01 0.94 1.87 <
-3 -2 2 0 2.71 3.74 2.18 <
3 2 -2 0 2.71 2.18 2.18 <
-2 -2 2 -2 0.01 0.62 2.18 <
2 2 -2 2 0.01 7.80 1.87 o
-3 -2 2 1 0.39 -0.94 2.18 <
3 2 -2 -1 0.39 4.99 1.87 <
-2 -2 2 -1 0.86 -5.62 2.18 <
2 2 -2 1 0.86 4.06 1.87 <
-3 -2 2 2 0.23 0.31 2.50 <
3 2 -2 -2 0.23 0.31 1.87 <
-2 -2 2 0 0.75 0.31 2.81 <
2 2 -2 0 0.75 0.62 1.87 <
-1 -2 2 -2 0.33 1.56 4.37 <
1 2 -2 2 0.33 -3.43 1.87 <
-2 -2 2 1 0.85 -11.23 6.24 <
2 2 -2 -1 0.85 -4.06 2.50 <
1 2 -2 1 4.03 -4.37 3.74 <
2 2 -2 -2 0.26 -2.81 7.18 <
0 -2 2 1 26.61 34.95 1.87 o
0 2 -2 -1 26.61 12.48 2.18 o
1 -2 2 -1 5.26 10.30 0.62 o
-1 2 -2 1 5.26 7.49 0.62 o
0 -2 2 2 2.25 6.55 0.31 o
0 2 -2 -2 2.25 6.87 0.31 o
1 -2 2 0 62.44 23.40 0.62 o
-1 2 -2 0 62.44 28.40 0.62 o
2 -2 2 -2 2.81 8.74 0.94 o
-2 2 -2 2 2.81 8.11 0.94 o
1 -2 2 1 2.34 26.21 0.94 o
-1 2 -2 -1 2.34 19.35 0.94 o
2 -2 2 -1 17.84 3.74 0.94 o
-2 2 -2 1 17.84 -1.87 0.94 <
1 -2 2 2 0.62 2.50 1.25 <
-1 2 -2 -2 0.62 -2.18 1.25 <
2 -2 2 0 61.46 33.08 1.25 o
-2 2 -2 0 61.46 29.33 1.25 o
3 -2 2 -2 0.45 13.73 1.25 o
-3 2 -2 2 0.45 8.74 1.25 o
2 -2 2 1 0.21 -0.62 1.25 <
-2 2 -2 -1 0.21 -2.50 1.25 <
3 -2 2 -1 1.36 -3.43 1.56 <
-3 2 -2 1 1.36 4.37 1.56 <
2 -2 2 2 0.11 4.68 1.56 <
-2 2 -2 -2 0.11 -5.93 1.56 <
3 -2 2 0 6.48 2.50 1.56 <
-3 2 -2 0 6.48 2.50 1.56 <
4 -2 2 -2 0.10 2.18 1.87 <
-4 2 -2 2 0.10 -0.31 1.56 <
3 -2 2 1 0.32 0.62 1.87 <
-3 2 -2 -1 0.32 0.94 1.87 <
4 -2 2 -1 0.16 -1.25 1.87 <
-4 2 -2 1 0.16 1.56 1.87 <
-3 -1 2 -1 0.09 2.50 2.18 <
3 1 -2 1 0.09 3.74 2.18 <
-4 -1 2 2 0.04 1.87 1.87 <
4 1 -2 -2 0.04 1.56 2.18 <
-3 -1 2 0 1.36 -1.25 1.87 <
3 1 -2 0 1.36 -1.56 1.87 <
-2 -1 2 -2 0.02 4.06 1.87 <
2 1 -2 2 0.02 0.62 1.87 <
-3 -1 2 1 0.59 1.56 1.87 <
3 1 -2 -1 0.59 -1.25 1.87 <
-2 -1 2 -1 0.94 -2.18 1.87 <
2 1 -2 1 0.94 2.81 1.87 <
-3 -1 2 2 0.34 -0.62 1.56 <
3 1 -2 -2 0.34 -0.62 1.87 <
-2 -1 2 0 11.97 6.24 1.56 o
2 1 -2 0 11.97 0.94 1.56 <
-1 -1 2 -2 0.37 -0.94 1.56 <
1 1 -2 2 0.37 2.18 1.56 <
-2 -1 2 1 1.24 1.25 1.56 <
2 1 -2 -1 1.24 -0.31 1.56 <
-1 -1 2 -1 3.64 13.11 1.56 o
1 1 -2 1 3.64 3.74 1.56 <
-2 -1 2 2 0.76 0.31 1.25 <
2 1 -2 -2 0.76 1.25 1.25 <
-1 -1 2 0 106.76 3.74 1.56 <
1 1 -2 0 106.76 26.21 1.56 o
0 -1 2 -2 2.00 -2.81 1.25 <
0 1 -2 2 2.00 0.31 1.25 <
-1 -1 2 1 7.01 -4.68 1.56 <
1 1 -2 -1 7.01 -1.25 1.56 <
0 -1 2 -1 2.22 -1.87 1.56 <
0 1 -2 1 2.22 6.24 1.56 o
-1 -1 2 2 0.29 4.68 2.18 <
1 1 -2 -2 0.29 0.94 1.87 <
0 -1 2 0 76.68 119.52 1.56 o
0 1 -2 0 76.68 78.95 1.56 o
1 -1 2 -2 0.66 5.62 0.94 o
-1 1 -2 2 0.66 2.50 0.94 <
0 -1 2 1 30.24 89.87 0.62 o
0 1 -2 -1 30.24 93.62 0.62 o
1 -1 2 -1 6.81 16.85 0.62 o
-1 1 -2 1 6.81 15.29 0.62 o
0 -1 2 2 1.73 3.74 0.62 o
0 1 -2 -2 1.73 -2.50 0.62 <
1 -1 2 0 13.04 2.81 0.94 <
-1 1 -2 0 13.04 7.49 0.94 o
2 -1 2 -2 1.62 1.56 0.94 <
-2 1 -2 2 1.62 3.12 0.94 o
1 -1 2 1 7.24 8.74 1.25 o
-1 1 -2 -1 7.24 18.10 1.25 o
2 -1 2 -1 7.83 -1.25 1.25 <
-2 1 -2 1 7.83 0.94 1.25 <
1 -1 2 2 0.79 2.50 1.25 <
-1 1 -2 -2 0.79 3.43 1.25 <
2 -1 2 0 35.88 9.36 1.25 o
-2 1 -2 0 35.88 10.30 1.25 o
3 -1 2 -2 0.35 -1.87 1.56 <
-3 1 -2 2 0.35 0.31 1.25 <
2 -1 2 1 0.08 -1.87 1.56 <
-2 1 -2 -1 0.08 -0.31 1.56 <
3 -1 2 -1 0.97 -3.43 1.56 <
-3 1 -2 1 0.97 -1.87 1.56 <
2 -1 2 2 0.10 0.31 1.87 <
-2 1 -2 -2 0.10 3.43 1.56 <
3 -1 2 0 3.18 -0.94 1.87 <
-3 1 -2 0 3.18 -0.94 1.87 <
4 -1 2 -2 0.06 3.74 1.87 <
-4 1 -2 2 0.06 1.87 1.87 <
3 -1 2 1 0.24 -0.31 1.87 <
-3 1 -2 -1 0.24 0.94 1.87 <
-4 0 2 1 0.35 0.62 1.87 <
4 0 -2 -1 0.35 2.18 2.18 <
-3 0 2 -1 0.06 6.24 1.87 o
3 0 -2 1 0.06 0.62 1.87 <
-4 0 2 2 0.05 0.62 1.87 <
4 0 -2 -2 0.05 0.94 1.87 <
-3 0 2 0 0.17 -0.62 1.87 <
3 0 -2 0 0.17 1.56 1.87 <
-2 0 2 -2 0.02 -3.12 1.87 <
2 0 -2 2 0.02 -7.80 1.87 <
-3 0 2 1 0.81 -0.94 1.56 <
3 0 -2 -1 0.81 2.18 1.87 <
-2 0 2 -1 1.33 -1.25 1.56 <
2 0 -2 1 1.33 -1.25 1.56 <
-3 0 2 2 0.39 2.50 1.56 <
3 0 -2 -2 0.39 2.18 1.56 <
-2 0 2 0 52.96 1.87 1.56 <
2 0 -2 0 52.96 1.25 1.56 <
-1 0 2 -2 0.33 5.93 1.25 o
1 0 -2 2 0.33 3.43 1.25 <
-2 0 2 1 1.76 -0.62 1.25 <
2 0 -2 -1 1.76 4.37 1.25 o
-1 0 2 -1 2.58 2.50 1.87 <
1 0 -2 1 2.58 -3.74 1.25 <
-2 0 2 2 1.41 -1.56 1.25 <
2 0 -2 -2 1.41 -2.81 1.25 <
-1 0 2 0 61.25 56.17 1.25 o
1 0 -2 0 61.25 51.18 1.25 o
0 0 2 -2 3.86 5.62 0.94 o
0 0 -2 2 3.86 4.37 0.94 o
-1 0 2 1 12.44 18.41 0.62 o
1 0 -2 -1 12.44 11.86 0.62 o
0 0 2 -1 7.41 7.49 0.62 o
0 0 -2 1 7.41 4.68 0.62 o
-1 0 2 2 0.33 -0.31 0.62 <
1 0 -2 -2 0.33 0.94 0.62 <
0 0 2 0 26.96 71.77 0.62 o
0 0 -2 0 26.96 64.91 0.62 o
1 0 2 -2 0.68 0.94 1.25 <
-1 0 -2 2 0.68 2.50 0.94 <
0 0 2 1 19.89 33.39 2.18 o
0 0 -2 -1 19.89 21.22 3.12 o
1 0 2 -1 10.75 9.99 1.56 o
-1 0 -2 1 10.75 10.30 1.87 o
0 0 2 2 0.91 -0.31 1.25 <
0 0 -2 -2 0.91 2.81 1.56 <
1 0 2 0 160.40 54.92 1.56 o
-1 0 -2 0 160.40 71.46 1.56 o
2 0 2 -2 0.73 0.00 1.25 <
-2 0 -2 2 0.73 0.94 1.25 <
1 0 2 1 9.25 3.12 1.25 <
-1 0 -2 -1 9.25 5.62 1.25 o
2 0 2 -1 2.17 2.50 1.25 <
-2 0 -2 1 2.17 1.87 1.25 <
1 0 2 2 0.72 3.12 1.25 <
-1 0 -2 -2 0.72 3.74 1.25 o
2 0 2 0 10.61 1.56 1.56 <
-2 0 -2 0 10.61 0.62 1.56 <
3 0 2 -2 0.22 0.94 1.56 <
-3 0 -2 2 0.22 2.81 1.56 <
2 0 2 1 0.04 1.87 1.56 <
-2 0 -2 -1 0.04 1.56 1.56 <
3 0 2 -1 0.60 -0.62 1.87 <
-3 0 -2 1 0.60 3.12 1.56 <
2 0 2 2 0.09 -0.62 1.87 <
-2 0 -2 -2 0.09 3.12 1.87 <
3 0 2 0 2.23 -1.56 1.87 <
-3 0 -2 0 2.23 -1.25 1.87 <
4 0 2 -2 0.04 0.94 1.87 <
-4 0 -2 2 0.04 -0.94 1.87 <
-3 1 2 -2 0.06 0.00 1.87 <
3 -1 -2 2 0.06 3.12 2.18 <
-4 1 2 1 0.62 4.37 1.87 <
4 -1 -2 -1 0.62 -0.62 1.87 <
-3 1 2 -1 0.13 1.25 1.87 <
3 -1 -2 1 0.13 -1.87 1.87 <
-4 1 2 2 0.04 3.12 1.87 <
4 -1 -2 -2 0.04 4.37 1.87 <
-3 1 2 0 0.31 -2.81 1.56 <
3 -1 -2 0 0.31 1.56 1.87 <
-2 1 2 -2 0.01 2.50 1.56 <
2 -1 -2 2 0.01 11.55 1.56 o
-3 1 2 1 1.02 2.50 1.56 <
3 -1 -2 -1 1.02 2.81 1.56 <
-2 1 2 -1 2.34 -1.25 3.74 <
2 -1 -2 1 2.34 2.81 1.56 <
-3 1 2 2 0.33 0.94 1.56 <
3 -1 -2 -2 0.33 3.43 1.56 <
-2 1 2 0 90.01 16.23 1.25 o
2 -1 -2 0 90.01 9.05 1.56 o
-1 1 2 -2 0.23 2.18 0.94 <
1 -1 -2 2 0.23 0.94 0.94 <
-2 1 2 1 2.87 0.31 0.94 <
2 -1 -2 -1 2.87 9.36 0.94 o
-1 1 2 -1 1.74 13.11 0.94 o
1 -1 -2 1 1.74 10.92 0.94 o
-2 1 2 2 2.03 4.99 0.94 o
2 -1 -2 -2 2.03 1.87 0.94 <
-1 1 2 0 98.20 136.06 1.25 o
1 -1 -2 0 98.20 136.06 1.25 o
0 1 2 -2 5.82 2.50 0.62 o
0 -1 -2 2 5.82 6.24 0.62 o
-1 1 2 1 14.16 9.36 0.62 o
1 -1 -2 -1 14.16 8.74 0.62 o
0 1 2 -1 10.41 14.04 0.62 o
0 -1 -2 1 10.41 15.92 0.62 o
-1 1 2 2 0.88 1.25 0.62 <
1 -1 -2 -2 0.88 2.81 0.62 o
0 1 2 0 99.61 63.66 1.56 o
0 -1 -2 0 99.61 68.03 1.56 o
1 1 2 1 7.89 -3.12 7.18 <
2 1 2 -1 0.59 0.31 3.43 <
1 1 2 2 0.53 -2.50 2.50 <
-1 -1 -2 -2 0.53 6.87 7.80 <
2 1 2 0 1.13 0.62 1.87 <
-2 -1 -2 0 1.13 1.87 5.31 <
3 1 2 -2 0.13 -1.56 1.87 <
-3 -1 -2 2 0.13 1.87 3.43 <
2 1 2 1 0.04 2.81 1.87 <
-2 -1 -2 -1 0.04 -2.81 2.81 <
3 1 2 -1 0.36 -1.56 1.87 <
-3 -1 -2 1 0.36 -1.87 2.50 <
2 1 2 2 0.07 -1.25 1.87 <
-2 -1 -2 -2 0.07 -3.74 2.50 <
3 1 2 0 2.70 1.56 1.87 <
-3 -1 -2 0 2.70 0.62 2.18 <
-4 2 2 0 2.75 -3.43 1.87 <
4 -2 -2 0 2.75 3.74 2.18 <
-3 2 2 -2 0.08 -2.81 1.87 <
3 -2 -2 2 0.08 5.93 1.87 o
-4 2 2 1 0.90 -2.81 1.87 <
4 -2 -2 -1 0.90 -0.31 1.87 <
-3 2 2 -1 0.34 5.62 4.99 <
3 -2 -2 1 0.34 -0.62 1.87 <
-4 2 2 2 0.02 5.62 2.18 <
4 -2 -2 -2 0.02 0.62 1.87 <
-3 2 2 0 2.62 1.56 1.25 <
3 -2 -2 0 2.62 -4.37 1.56 <
-2 2 2 -2 0.01 1.25 1.25 <
2 -2 -2 2 0.01 -1.25 1.56 <
-3 2 2 1 1.10 1.87 0.94 <
3 -2 -2 -1 1.10 -0.62 1.25 <
-2 2 2 -1 3.95 2.81 0.94 <
2 -2 -2 1 3.95 0.00 0.94 <
-3 2 2 2 0.19 4.06 0.94 o
3 -2 -2 -2 0.19 1.25 0.94 <
-2 2 2 0 197.61 116.71 1.25 o
2 -2 -2 0 197.61 130.13 1.25 o
-1 2 2 -2 0.09 -2.81 0.94 <
1 -2 -2 2 0.09 7.80 0.94 o
-2 2 2 1 5.06 18.41 0.94 o
2 -2 -2 -1 5.06 14.35 0.94 o
-1 2 2 -1 2.10 6.24 0.62 o
1 -2 -2 1 2.10 4.68 0.94 o
-2 2 2 2 2.33 21.53 0.94 o
2 -2 -2 -2 2.33 18.41 0.94 o
-1 2 2 0 25.67 51.80 0.94 o
1 -2 -2 0 25.67 43.38 0.94 o
0 2 2 -2 5.19 4.06 0.62 o
0 -2 -2 2 5.19 6.24 0.62 o
-1 2 2 1 9.47 17.16 0.62 o
1 -2 -2 -1 9.47 19.97 0.62 o
0 2 2 -1 6.97 15.29 0.94 o
0 -2 -2 1 6.97 14.98 0.94 o
-1 2 2 2 1.07 12.17 3.12 o
1 -2 -2 -2 1.07 9.36 2.81 o
2 2 2 1 0.04 3.43 7.18 <
3 2 2 -1 0.24 5.93 4.06 <
2 2 2 2 0.05 6.87 2.81 <
-5 3 2 2 0.07 0.62 2.81 <
5 -3 -2 -2 0.07 -2.18 2.18 <
-4 3 2 0 2.86 1.56 1.56 <
4 -3 -2 0 2.86 -2.81 2.81 <
-3 3 2 -2 0.08 0.31 1.25 <
3 -3 -2 2 0.08 5.93 1.87 o
-4 3 2 1 1.12 1.56 1.25 <
4 -3 -2 -1 1.12 0.00 2.18 <
-3 3 2 -1 0.64 3.74 1.25 o
3 -3 -2 1 0.64 2.18 1.25 <
-4 3 2 2 0.01 -2.50 1.25 <
4 -3 -2 -2 0.01 -1.56 1.25 <
-3 3 2 0 3.54 2.18 0.94 <
3 -3 -2 0 3.54 3.12 0.94 o
-2 3 2 -2 0.02 1.25 0.94 <
2 -3 -2 2 0.02 -1.25 0.94 <
-3 3 2 1 0.97 1.25 0.94 <
3 -3 -2 -1 0.97 2.18 0.94 <
-2 3 2 -1 5.72 8.11 0.94 o
2 -3 -2 1 5.72 4.99 0.94 o
-3 3 2 2 0.10 0.31 0.94 <
3 -3 -2 -2 0.10 4.06 0.94 o
-2 3 2 0 324.65 453.11 1.87 o
2 -3 -2 0 324.65 425.03 1.87 o
-1 3 2 -2 0.00 6.24 0.94 o
1 -3 -2 2 0.00 8.43 0.94 o
-2 3 2 1 7.97 23.09 0.94 o
2 -3 -2 -1 7.97 24.65 0.94 o
-1 3 2 -1 3.46 3.74 0.62 o
1 -3 -2 1 3.46 7.18 0.62 o
-2 3 2 2 2.04 17.79 0.94 o
2 -3 -2 -2 2.04 15.92 0.94 o
-1 3 2 0 44.44 95.49 1.25 o
1 -3 -2 0 44.44 103.61 1.25 o
0 3 2 -2 2.69 5.93 0.94 o
0 -3 -2 2 2.69 6.24 0.94 o
-1 3 2 1 4.61 11.23 1.25 o
1 -3 -2 -1 4.61 17.48 1.25 o
-4 4 2 -1 0.06 -0.62 1.25 <
4 -4 -2 1 0.06 2.81 2.81 <
-5 4 2 2 0.10 -5.62 1.25 <
5 -4 -2 -2 0.10 3.12 1.56 <
-4 4 2 0 5.02 0.00 1.25 <
4 -4 -2 0 5.02 2.18 1.25 <
-3 4 2 -2 0.07 5.62 1.25 o
3 -4 -2 2 0.07 2.50 1.25 <
-4 4 2 1 1.16 1.87 1.25 <
4 -4 -2 -1 1.16 0.62 1.25 <
-3 4 2 -1 0.94 0.31 0.94 <
3 -4 -2 1 0.94 3.12 0.94 o
-4 4 2 2 0.00 0.31 0.94 <
4 -4 -2 -2 0.00 1.25 0.94 <
-3 4 2 0 9.23 3.74 0.94 o
3 -4 -2 0 9.23 5.93 0.94 o
-2 4 2 -2 0.04 3.43 0.94 o
2 -4 -2 2 0.04 2.18 0.94 <
-3 4 2 1 0.63 2.81 0.94 <
3 -4 -2 -1 0.63 3.12 0.62 o
-2 4 2 -1 7.23 15.29 0.62 o
2 -4 -2 1 7.23 13.11 0.94 o
-3 4 2 2 0.08 0.62 0.62 <
3 -4 -2 -2 0.08 3.74 0.62 o
-2 4 2 0 850.29 738.03 2.18 o
2 -4 -2 0 850.29 806.37 2.18 o
-1 4 2 -2 0.05 1.87 0.62 o
1 -4 -2 2 0.05 1.87 0.62 o
-2 4 2 1 10.00 13.73 0.62 o
2 -4 -2 -1 10.00 15.92 0.94 o
-1 4 2 -1 4.16 10.61 0.94 o
1 -4 -2 1 4.16 5.93 0.94 o
-2 4 2 2 1.56 0.62 0.94 <
2 -4 -2 -2 1.56 3.74 0.94 o
-1 4 2 0 83.94 95.49 1.25 o
1 -4 -2 0 83.94 100.48 1.25 o
0 4 2 -2 1.00 -11.86 2.50 <
0 -4 -2 2 1.00 -0.62 2.18 <
-5 5 2 1 0.13 0.31 1.25 <
5 -5 -2 -1 0.13 -0.94 1.56 <
-4 5 2 -1 0.05 0.62 1.25 <
4 -5 -2 1 0.05 1.87 1.25 <
-5 5 2 2 0.11 5.93 1.25 o
5 -5 -2 -2 0.11 -6.55 1.25 <
-4 5 2 0 9.41 1.56 1.25 <
4 -5 -2 0 9.41 0.00 1.25 <
-3 5 2 -2 0.05 -0.62 0.94 <
3 -5 -2 2 0.05 -0.31 1.25 <
-4 5 2 1 0.95 1.87 0.94 <
4 -5 -2 -1 0.95 4.37 1.25 o
-3 5 2 -1 1.15 1.56 0.94 <
3 -5 -2 1 1.15 1.87 0.94 <
-4 5 2 2 0.00 1.25 0.94 <
4 -5 -2 -2 0.00 1.25 0.94 <
-3 5 2 0 10.46 28.40 0.94 o
3 -5 -2 0 10.46 27.77 1.25 o
-2 5 2 -2 0.03 1.87 0.94 <
2 -5 -2 2 0.03 2.18 0.94 <
-3 5 2 1 0.37 2.81 0.62 o
3 -5 -2 -1 0.37 1.56 0.62 <
-2 5 2 -1 8.14 13.42 0.94 o
2 -5 -2 1 8.14 14.98 0.62 o
-3 5 2 2 0.09 3.74 0.62 o
3 -5 -2 -2 0.09 3.12 0.62 o
-2 5 2 0 319.88 293.65 1.56 o
2 -5 -2 0 319.88 291.47 1.56 o
-1 5 2 -2 0.20 0.62 0.94 <
1 -5 -2 2 0.20 1.56 0.94 <
-2 5 2 1 9.63 4.68 0.94 o
2 -5 -2 -1 9.63 9.99 0.94 o
-1 5 2 -1 3.95 6.87 0.94 o
1 -5 -2 1 3.95 8.11 0.94 o
-2 5 2 2 1.27 -3.43 0.94 <
2 -5 -2 -2 1.27 3.43 0.94 o
-1 5 2 0 243.65 -13.42 4.99 <
-4 6 2 -2 0.02 4.37 1.25 o
4 -6 -2 2 0.02 -0.94 1.25 <
-5 6 2 1 0.17 2.50 1.25 <
5 -6 -2 -1 0.17 3.43 1.25 <
-4 6 2 -1 0.12 1.56 1.25 <
4 -6 -2 1 0.12 -1.87 1.25 <
-5 6 2 2 0.11 -1.87 1.25 <
5 -6 -2 -2 0.11 0.62 1.25 <
-4 6 2 0 11.31 4.68 1.25 o
4 -6 -2 0 11.31 4.68 1.25 o
-3 6 2 -2 0.03 0.62 0.94 <
3 -6 -2 2 0.03 -1.87 1.25 <
-4 6 2 1 0.57 1.87 0.94 <
4 -6 -2 -1 0.57 1.87 0.94 <
-3 6 2 -1 1.18 1.25 0.94 <
3 -6 -2 1 1.18 3.12 0.94 o
-4 6 2 2 0.02 1.56 0.94 <
4 -6 -2 -2 0.02 1.87 0.94 <
-3 6 2 0 16.47 3.74 0.94 o
3 -6 -2 0 16.47 4.99 0.94 o
-2 6 2 -2 0.01 4.37 0.62 o
2 -6 -2 2 0.01 3.12 0.94 o
-3 6 2 1 0.65 2.50 0.62 o
3 -6 -2 -1 0.65 1.87 0.62 o
-2 6 2 -1 8.14 15.92 0.62 o
2 -6 -2 1 8.14 14.67 0.62 o
-3 6 2 2 0.09 1.87 0.62 o
3 -6 -2 -2 0.09 -2.81 0.62 <
-2 6 2 0 204.53 139.18 1.25 o
2 -6 -2 0 204.53 174.76 1.56 o
-1 6 2 -2 0.32 -0.31 0.94 <
1 -6 -2 2 0.32 1.25 0.94 <
-2 6 2 1 6.98 -0.31 0.94 <
2 -6 -2 -1 6.98 3.74 0.94 o
-1 6 2 -1 4.60 1.25 1.87 <
1 -6 -2 1 4.60 0.94 1.25 <
-4 7 2 -2 0.04 0.94 1.25 <
4 -7 -2 2 0.04 3.74 1.25 o
-5 7 2 1 0.23 0.31 1.25 <
5 -7 -2 -1 0.23 1.25 1.25 <
-4 7 2 -1 0.30 1.87 1.25 <
4 -7 -2 1 0.30 3.74 1.25 o
-5 7 2 2 0.08 0.62 1.25 <
5 -7 -2 -2 0.08 0.31 1.25 <
-4 7 2 0 19.76 29.96 1.25 o
4 -7 -2 0 19.76 34.01 1.25 o
-3 7 2 -2 0.01 1.87 0.94 <
3 -7 -2 2 0.01 0.62 0.94 <
-4 7 2 1 0.22 3.12 0.94 o
4 -7 -2 -1 0.22 2.81 0.94 <
-3 7 2 -1 1.00 4.06 0.94 o
3 -7 -2 1 1.00 3.74 1.25 o
-4 7 2 2 0.05 4.37 0.94 o
4 -7 -2 -2 0.05 0.62 0.94 <
-3 7 2 0 10.15 -0.31 0.94 <
3 -7 -2 0 10.15 0.00 0.94 <
-2 7 2 -2 0.01 2.81 0.94 <
2 -7 -2 2 0.01 0.31 0.94 <
-3 7 2 1 1.52 -1.56 0.94 <
3 -7 -2 -1 1.52 -0.62 0.94 <
-2 7 2 -1 6.93 8.11 0.94 o
2 -7 -2 1 6.93 3.74 0.94 o
-3 7 2 2 0.10 0.00 0.94 <
3 -7 -2 -2 0.10 -0.62 0.94 <
-2 7 2 0 103.44 32.45 1.25 o
2 -7 -2 0 103.44 35.26 1.25 o
-1 7 2 -2 0.33 1.56 1.25 <
1 -7 -2 2 0.33 -3.74 0.94 <
-2 7 2 1 3.64 1.25 1.25 <
2 -7 -2 -1 3.64 -4.06 3.43 <
-5 8 2 0 4.76 4.68 1.25 o
5 -8 -2 0 4.76 3.74 1.25 o
-4 8 2 -2 0.07 -2.18 1.25 <
4 -8 -2 2 0.07 -0.31 1.25 <
-5 8 2 1 0.29 1.56 1.25 <
5 -8 -2 -1 0.29 1.56 1.25 <
-4 8 2 -1 0.55 1.56 1.25 <
4 -8 -2 1 0.55 4.37 1.25 o
-5 8 2 2 0.04 1.56 1.25 <
5 -8 -2 -2 0.04 -1.87 1.25 <
-4 8 2 0 32.88 41.50 1.25 o
4 -8 -2 0 32.88 61.16 1.25 o
-3 8 2 -2 0.00 1.25 0.94 <
3 -8 -2 2 0.00 0.94 1.25 <
-4 8 2 1 0.05 4.68 0.94 o
4 -8 -2 -1 0.05 1.56 1.25 <
-3 8 2 -1 0.64 0.31 0.94 <
3 -8 -2 1 0.64 1.87 0.94 <
-4 8 2 2 0.07 1.25 0.94 <
4 -8 -2 -2 0.07 0.00 0.94 <
-3 8 2 0 10.40 1.87 0.94 <
3 -8 -2 0 10.40 1.87 0.94 <
-2 8 2 -2 0.05 0.00 0.94 <
2 -8 -2 2 0.05 1.25 0.94 <
-3 8 2 1 2.43 1.56 0.94 <
3 -8 -2 -1 2.43 -0.94 0.94 <
-2 8 2 -1 4.74 2.81 0.94 <
2 -8 -2 1 4.74 0.31 0.94 <
-3 8 2 2 0.13 4.68 0.94 o
3 -8 -2 -2 0.13 0.31 0.94 <
-2 8 2 0 77.93 11.86 2.50 o
2 -8 -2 0 77.93 2.81 1.25 <
-1 8 2 -2 0.29 -1.25 1.56 <
1 -8 -2 2 0.29 2.18 1.87 <
-5 9 2 0 2.82 0.62 1.25 <
5 -9 -2 0 2.82 2.18 1.25 <
-4 9 2 -2 0.09 0.62 1.25 <
4 -9 -2 2 0.09 1.87 1.25 <
-5 9 2 1 0.32 1.25 1.25 <
5 -9 -2 -1 0.32 1.25 1.25 <
-4 9 2 -1 0.78 11.86 1.25 o
4 -9 -2 1 0.78 14.67 1.25 o
-5 9 2 2 0.00 -0.62 1.25 <
5 -9 -2 -2 0.00 0.00 1.25 <
-4 9 2 0 32.82 40.26 1.25 o
4 -9 -2 0 32.82 47.75 1.25 o
-3 9 2 -2 0.01 2.18 0.94 <
3 -9 -2 2 0.01 0.62 1.25 <
-4 9 2 1 0.05 3.43 0.94 o
4 -9 -2 -1 0.05 1.25 1.25 <
-3 9 2 -1 0.28 1.56 0.94 <
3 -9 -2 1 0.28 0.62 0.94 <
-4 9 2 2 0.06 0.00 0.94 <
4 -9 -2 -2 0.06 0.94 0.94 <
-3 9 2 0 2.69 -0.62 0.94 <
3 -9 -2 0 2.69 3.43 1.25 <
-2 9 2 -2 0.09 -0.94 0.94 <
2 -9 -2 2 0.09 0.62 0.94 <
-3 9 2 1 2.78 -1.87 0.94 <
3 -9 -2 -1 2.78 4.06 0.94 o
-2 9 2 -1 2.43 5.31 1.25 o
2 -9 -2 1 2.43 -1.87 1.25 <
-3 9 2 2 0.18 1.87 1.56 <
3 -9 -2 -2 0.18 5.62 2.50 <
-2 9 2 0 14.45 3.12 1.87 <
2 -9 -2 0 14.45 1.56 2.81 <
-6 10 2 2 0.06 -0.31 1.25 <
6 -10 -2 -2 0.06 -1.25 1.25 <
-5 10 2 0 0.92 3.12 1.25 <
5 -10 -2 0 0.92 2.81 1.25 <
-4 10 2 -2 0.10 0.62 1.25 <
4 -10 -2 2 0.10 1.56 1.25 <
-5 10 2 1 0.31 1.25 1.25 <
5 -10 -2 -1 0.31 -0.62 1.25 <
-4 10 2 -1 0.88 8.74 1.25 o
4 -10 -2 1 0.88 9.67 1.25 o
-5 10 2 2 0.01 -2.50 1.25 <
5 -10 -2 -2 0.01 -0.62 1.25 <
-4 10 2 0 19.71 19.35 1.25 o
4 -10 -2 0 19.71 17.48 1.25 o
-3 10 2 -2 0.04 -0.31 0.94 <
3 -10 -2 2 0.04 -0.31 1.25 <
-4 10 2 1 0.12 0.94 0.94 <
4 -10 -2 -1 0.12 0.62 1.25 <
-3 10 2 -1 0.07 0.62 0.94 <
3 -10 -2 1 0.07 2.50 1.25 <
-4 10 2 2 0.03 -1.56 0.94 <
4 -10 -2 -2 0.03 3.74 1.25 o
-3 10 2 0 1.36 -1.56 1.25 <
3 -10 -2 0 1.36 -1.87 1.25 <
-2 10 2 -2 0.08 0.62 1.25 <
2 -10 -2 2 0.08 -0.62 1.25 <
-3 10 2 1 2.50 7.49 2.81 <
3 -10 -2 -1 2.50 4.06 1.25 o
-2 10 2 -1 0.91 2.18 1.56 <
2 -10 -2 1 0.91 -1.25 1.87 <
-3 10 2 2 0.22 2.81 1.87 <
3 -10 -2 -2 0.22 -2.50 5.31 <
-6 11 2 2 0.08 0.31 1.25 <
6 -11 -2 -2 0.08 0.62 1.25 <
-5 11 2 0 0.12 1.87 1.25 <
5 -11 -2 0 0.12 3.12 1.25 <
-4 11 2 -2 0.09 1.25 1.25 <
4 -11 -2 2 0.09 -0.94 1.25 <
-5 11 2 1 0.28 0.31 1.25 <
5 -11 -2 -1 0.28 2.50 1.25 <
-4 11 2 -1 0.78 1.87 1.25 <
4 -11 -2 1 0.78 1.87 1.25 <
-5 11 2 2 0.04 0.00 1.25 <
5 -11 -2 -2 0.04 -2.50 1.25 <
-4 11 2 0 15.51 1.25 1.25 <
4 -11 -2 0 15.51 1.87 1.25 <
-3 11 2 -2 0.09 -0.62 1.25 <
3 -11 -2 2 0.09 -0.62 1.25 <
-4 11 2 1 0.17 0.94 1.25 <
4 -11 -2 -1 0.17 0.00 1.25 <
-3 11 2 -1 0.04 1.25 1.25 <
3 -11 -2 1 0.04 2.50 1.25 <
-4 11 2 2 0.01 3.12 1.25 <
4 -11 -2 -2 0.01 -0.94 1.25 <
-3 11 2 0 1.27 1.25 1.56 <
3 -11 -2 0 1.27 2.50 1.25 <
-2 11 2 -2 0.05 -1.56 1.87 <
2 -11 -2 2 0.05 1.87 2.50 <
-3 11 2 1 1.89 1.25 1.87 <
3 -11 -2 -1 1.89 1.87 1.87 <
-2 11 2 -1 0.35 0.00 2.50 <
-6 12 2 2 0.08 0.00 1.25 <
6 -12 -2 -2 0.08 2.50 1.25 <
-5 12 2 0 1.46 3.43 1.25 <
5 -12 -2 0 1.46 3.12 1.25 <
-4 12 2 -2 0.07 1.56 1.25 <
4 -12 -2 2 0.07 -0.94 1.25 <
-5 12 2 1 0.27 0.62 1.25 <
5 -12 -2 -1 0.27 -0.62 1.25 <
-4 12 2 -1 0.54 1.87 1.25 <
4 -12 -2 1 0.54 3.74 1.25 o
-5 12 2 2 0.09 1.56 1.25 <
5 -12 -2 -2 0.09 3.12 1.25 <
-4 12 2 0 9.56 -0.62 1.25 <
4 -12 -2 0 9.56 4.06 1.25 o
-3 12 2 -2 0.12 -0.94 1.25 <
3 -12 -2 2 0.12 0.00 1.25 <
-4 12 2 1 0.18 0.31 1.25 <
4 -12 -2 -1 0.18 -0.62 1.25 <
-3 12 2 -1 0.08 2.81 1.25 <
3 -12 -2 1 0.08 5.31 1.25 o
-4 12 2 2 0.00 -3.74 3.74 <
4 -12 -2 -2 0.00 -1.25 1.25 <
-3 12 2 0 0.97 1.87 1.87 <
3 -12 -2 0 0.97 -0.31 1.87 <
-2 12 2 -2 0.03 -2.81 1.87 <
2 -12 -2 2 0.03 2.18 2.18 <
-3 12 2 1 1.25 2.81 2.81 <
-6 13 2 2 0.07 2.18 1.87 <
6 -13 -2 -2 0.07 3.12 2.18 <
-5 13 2 0 4.19 3.12 1.25 <
5 -13 -2 0 4.19 1.56 1.25 <
-4 13 2 -2 0.05 1.87 1.25 <
4 -13 -2 2 0.05 0.94 1.25 <
-5 13 2 1 0.28 1.87 1.25 <
5 -13 -2 -1 0.28 -0.31 1.25 <
-4 13 2 -1 0.27 -0.31 1.25 <
4 -13 -2 1 0.27 1.87 1.25 <
-5 13 2 2 0.13 1.87 1.25 <
5 -13 -2 -2 0.13 3.12 1.25 <
-4 13 2 0 3.03 -1.87 1.25 <
4 -13 -2 0 3.03 0.94 1.25 <
-3 13 2 -2 0.12 -0.62 1.25 <
3 -13 -2 2 0.12 -1.56 1.25 <
-4 13 2 1 0.16 4.37 1.87 <
4 -13 -2 -1 0.16 0.31 1.25 <
-3 13 2 -1 0.12 -0.62 1.87 <
3 -13 -2 1 0.12 -0.94 1.87 <
-4 13 2 2 0.00 3.43 1.87 <
4 -13 -2 -2 0.00 -6.24 1.87 <
-3 13 2 0 0.66 -3.43 1.87 <
3 -13 -2 0 0.66 -4.68 2.50 <
-2 13 2 -2 0.01 -2.18 3.74 <
-5 14 2 0 7.24 3.43 1.25 <
5 -14 -2 0 7.24 1.25 1.25 <
-4 14 2 -2 0.02 -1.25 1.25 <
4 -14 -2 2 0.02 -1.25 1.25 <
-5 14 2 1 0.30 1.25 1.25 <
5 -14 -2 -1 0.30 -0.62 1.25 <
-4 14 2 -1 0.08 -0.62 1.25 <
4 -14 -2 1 0.08 3.74 1.25 o
-5 14 2 2 0.13 5.93 1.25 o
5 -14 -2 -2 0.13 -1.87 1.25 <
-4 14 2 0 0.23 -3.74 1.56 <
4 -14 -2 0 0.23 0.00 1.56 <
-3 14 2 -2 0.10 -3.74 1.87 <
3 -14 -2 2 0.10 1.56 1.56 <
-4 14 2 1 0.13 0.00 2.18 <
4 -14 -2 -1 0.13 -1.56 3.74 <
-3 14 2 -1 0.10 -2.50 1.87 <
3 -14 -2 1 0.10 2.18 2.18 <
-4 14 2 2 0.01 -0.31 1.87 <
4 -14 -2 -2 0.01 -1.25 3.43 <
-3 14 2 0 0.25 0.94 4.99 <
-5 15 2 1 0.29 1.25 1.56 <
5 -15 -2 -1 0.29 4.06 1.56 <
-4 15 2 -1 0.00 4.06 1.56 <
4 -15 -2 1 0.00 -1.87 1.56 <
-5 15 2 2 0.11 3.43 2.50 <
5 -15 -2 -2 0.11 0.31 1.56 <
-4 15 2 0 0.28 -1.87 2.18 <
4 -15 -2 0 0.28 5.31 1.87 <
-3 15 2 -2 0.07 -0.31 2.18 <
3 -15 -2 2 0.07 -2.50 2.18 <
-4 15 2 1 0.09 -4.37 2.18 <
4 -15 -2 -1 0.09 -1.87 2.50 <
-3 15 2 -1 0.06 7.18 2.18 o
-4 15 2 2 0.01 -2.18 6.24 <
-3 15 -3 -1 0.11 -0.62 6.24 <
4 -15 3 -1 0.16 -15.92 6.24 <
-4 15 -3 1 0.16 0.31 2.18 <
3 -15 3 2 0.01 2.81 2.18 <
-3 15 -3 -2 0.01 2.50 2.18 <
-4 14 -3 2 0.13 14.04 4.68 <
3 -14 3 1 0.15 5.31 3.74 <
-3 14 -3 -1 0.15 -0.62 1.87 <
4 -14 3 -1 0.19 -3.74 1.87 <
-4 14 -3 1 0.19 0.62 1.87 <
3 -14 3 2 0.03 -0.62 2.18 <
-3 14 -3 -2 0.03 1.87 1.87 <
4 -14 3 0 1.26 0.31 2.18 <
-4 14 -3 0 1.26 2.81 1.87 <
5 -14 3 -2 0.02 -2.81 2.18 <
-5 14 -3 2 0.02 4.37 1.87 <
-3 13 -3 0 0.03 -1.87 3.74 <
4 -13 3 -2 0.16 -1.56 2.50 <
-4 13 -3 2 0.16 -2.50 1.87 <
3 -13 3 1 0.17 0.31 1.87 <
-3 13 -3 -1 0.17 1.87 1.87 <
4 -13 3 -1 0.17 0.31 1.87 <
-4 13 -3 1 0.17 2.50 1.87 <
3 -13 3 2 0.06 2.81 1.87 <
-3 13 -3 -2 0.06 -2.18 1.87 <
4 -13 3 0 1.33 2.81 1.87 <
-4 13 -3 0 1.33 -0.62 1.87 <
5 -13 3 -2 0.02 9.05 2.18 o
-5 13 -3 2 0.02 -0.62 1.87 <
4 -13 3 1 0.20 0.00 1.25 <
-4 13 -3 -1 0.20 6.87 5.93 <
-2 12 -3 -2 0.40 -0.94 3.12 <
3 -12 3 0 2.81 -0.31 2.18 <
-3 12 -3 0 2.81 2.50 1.87 <
4 -12 3 -2 0.16 -5.62 1.87 <
-4 12 -3 2 0.16 2.50 1.87 <
3 -12 3 1 0.17 1.25 1.87 <
-3 12 -3 -1 0.17 0.31 1.87 <
4 -12 3 -1 0.11 4.06 1.87 <
-4 12 -3 1 0.11 2.50 1.87 <
3 -12 3 2 0.10 -0.31 1.87 <
-3 12 -3 -2 0.10 1.25 1.87 <
4 -12 3 0 2.15 -1.25 1.25 <
-4 12 -3 0 2.15 0.94 1.87 <
5 -12 3 -2 0.03 -1.25 1.25 <
-5 12 -3 2 0.03 3.43 1.56 <
4 -12 3 1 0.09 -0.31 0.94 <
-4 12 -3 -1 0.09 0.31 1.25 <
5 -12 3 -1 0.41 0.62 0.94 <
-5 12 -3 1 0.41 1.25 0.94 <
-3 11 -3 1 1.25 6.24 2.18 <
2 -11 3 2 0.42 2.18 1.87 <
-2 11 -3 -2 0.42 -1.25 1.56 <
3 -11 3 0 13.30 3.74 1.87 <
-3 11 -3 0 13.30 0.62 1.56 <
4 -11 3 -2 0.13 4.99 1.87 <
-4 11 -3 2 0.13 -4.06 1.56 <
3 -11 3 1 0.13 -1.87 1.87 <
-3 11 -3 -1 0.13 -1.87 1.56 <
4 -11 3 -1 0.06 5.62 2.81 <
-4 11 -3 1 0.06 -2.18 1.56 <
3 -11 3 2 0.13 0.00 1.25 <
-3 11 -3 -2 0.13 -7.80 4.37 <
4 -11 3 0 3.72 1.56 0.94 <
-4 11 -3 0 3.72 1.56 1.25 <
5 -11 3 -2 0.03 1.56 0.94 <
-5 11 -3 2 0.03 2.50 0.94 <
4 -11 3 1 0.02 0.00 0.94 <
-4 11 -3 -1 0.02 0.62 0.94 <
5 -11 3 -1 0.39 1.56 0.94 <
-5 11 -3 1 0.39 1.87 0.94 <
2 -10 3 1 2.37 -9.36 5.93 <
-2 10 -3 -1 2.37 -0.31 1.87 <
3 -10 3 -1 2.79 4.37 1.56 <
-3 10 -3 1 2.79 2.18 1.56 <
2 -10 3 2 0.34 1.56 1.56 <
-2 10 -3 -2 0.34 4.68 1.56 <
3 -10 3 0 29.43 9.67 1.87 o
-3 10 -3 0 29.43 7.80 1.56 o
4 -10 3 -2 0.07 2.81 1.56 <
-4 10 -3 2 0.07 0.00 1.56 <
3 -10 3 1 0.09 1.56 1.25 <
-3 10 -3 -1 0.09 1.25 1.56 <
4 -10 3 -1 0.09 -0.62 0.94 <
-4 10 -3 1 0.09 -0.31 1.25 <
3 -10 3 2 0.13 4.37 0.94 o
-3 10 -3 -2 0.13 -2.81 0.94 <
4 -10 3 0 4.80 1.87 0.94 <
-4 10 -3 0 4.80 0.62 0.94 <
5 -10 3 -2 0.03 0.00 0.94 <
-5 10 -3 2 0.03 0.62 0.94 <
4 -10 3 1 0.01 -0.94 0.94 <
-4 10 -3 -1 0.01 -1.56 0.94 <
5 -10 3 -1 0.30 1.25 0.94 <
-5 10 -3 1 0.30 3.43 0.94 o
3 -9 3 -2 0.10 -3.12 3.12 <
-3 9 -3 2 0.10 -2.50 1.56 <
2 -9 3 1 2.59 0.31 1.56 <
-2 9 -3 -1 2.59 3.43 1.56 <
3 -9 3 -1 4.77 1.25 1.56 <
-3 9 -3 1 4.77 -0.62 1.56 <
2 -9 3 2 0.23 0.31 1.56 <
-2 9 -3 -2 0.23 -0.62 1.56 <
3 -9 3 0 39.75 59.29 1.87 o
-3 9 -3 0 39.75 34.33 1.87 o
4 -9 3 -2 0.02 1.87 0.94 <
-4 9 -3 2 0.02 0.00 1.87 <
3 -9 3 1 0.06 2.50 0.94 <
-3 9 -3 -1 0.06 5.93 0.94 o
4 -9 3 -1 0.24 0.94 0.94 <
-4 9 -3 1 0.24 1.56 0.94 <
3 -9 3 2 0.11 0.62 0.94 <
-3 9 -3 -2 0.11 2.50 0.94 <
4 -9 3 0 5.66 1.25 0.94 <
-4 9 -3 0 5.66 0.62 0.94 <
5 -9 3 -2 0.04 2.50 0.94 <
-5 9 -3 2 0.04 -0.31 0.94 <
4 -9 3 1 0.08 0.62 0.94 <
-4 9 -3 -1 0.08 0.94 0.94 <
5 -9 3 -1 0.17 2.18 0.94 <
-5 9 -3 1 0.17 2.50 0.94 <
2 -8 3 0 72.56 2.50 2.18 <
-2 8 -3 0 72.56 5.31 1.56 o
3 -8 3 -2 0.20 -1.87 1.56 <
-3 8 -3 2 0.20 0.31 1.25 <
2 -8 3 1 2.16 0.31 1.56 <
-2 8 -3 -1 2.16 3.74 1.25 o
3 -8 3 -1 6.56 -0.62 1.56 <
-3 8 -3 1 6.56 1.25 1.25 <
2 -8 3 2 0.14 4.37 1.56 <
-2 8 -3 -2 0.14 1.87 1.25 <
3 -8 3 0 59.43 38.70 0.94 o
-3 8 -3 0 59.43 44.00 1.25 o
4 -8 3 -2 0.02 2.18 0.94 <
-4 8 -3 2 0.02 0.00 0.94 <
3 -8 3 1 0.05 1.56 0.94 <
-3 8 -3 -1 0.05 1.56 0.94 <
4 -8 3 -1 0.45 1.25 0.94 <
-4 8 -3 1 0.45 2.18 0.94 <
3 -8 3 2 0.09 1.87 0.94 <
-3 8 -3 -2 0.09 -0.62 0.94 <
4 -8 3 0 6.05 5.62 0.94 o
-4 8 -3 0 6.05 2.50 0.94 <
5 -8 3 -2 0.05 -0.94 0.94 <
-5 8 -3 2 0.05 0.62 0.94 <
4 -8 3 1 0.18 1.87 1.25 <
-4 8 -3 -1 0.18 -0.94 0.94 <
1 -7 3 2 0.37 0.94 1.56 <
-1 7 -3 -2 0.37 2.18 1.25 <
2 -7 3 0 23.42 1.87 1.25 <
-2 7 -3 0 23.42 4.37 1.25 o
3 -7 3 -2 0.36 0.94 1.25 <
-3 7 -3 2 0.36 0.00 1.25 <
2 -7 3 1 1.09 6.24 1.25 o
-2 7 -3 -1 1.09 7.18 1.25 o
3 -7 3 -1 7.41 1.87 0.62 o
-3 7 -3 1 7.41 1.25 1.25 <
2 -7 3 2 0.13 2.50 0.62 o
-2 7 -3 -2 0.13 1.25 0.62 <
3 -7 3 0 79.99 97.99 0.94 o
-3 7 -3 0 79.99 87.38 0.94 o
4 -7 3 -2 0.05 -0.94 0.94 <
-4 7 -3 2 0.05 2.50 0.94 <
3 -7 3 1 0.06 5.62 0.94 o
-3 7 -3 -1 0.06 1.56 0.94 <
4 -7 3 -1 0.64 -0.62 0.94 <
-4 7 -3 1 0.64 1.25 0.94 <
3 -7 3 2 0.07 1.25 1.25 <
-3 7 -3 -2 0.07 0.00 0.94 <
4 -7 3 0 4.11 -2.81 2.18 <
-4 7 -3 0 4.11 1.56 0.94 <
5 -7 3 -2 0.06 -4.37 1.87 <
-5 7 -3 2 0.06 -0.62 1.25 <
4 -7 3 1 0.28 1.56 1.87 <
-4 7 -3 -1 0.28 -0.94 1.56 <
2 -6 3 -1 6.70 9.36 1.25 o
-2 6 -3 1 6.70 4.99 1.25 o
1 -6 3 2 0.68 2.81 1.25 <
-1 6 -3 -2 0.68 2.81 1.25 <
2 -6 3 0 24.21 18.10 1.25 o
-2 6 -3 0 24.21 18.41 1.25 o
3 -6 3 -2 0.49 -4.37 1.25 <
-3 6 -3 2 0.49 2.50 1.25 <
2 -6 3 1 0.14 1.25 0.62 <
-2 6 -3 -1 0.14 -0.62 0.62 <
3 -6 3 -1 6.94 11.55 0.62 o
-3 6 -3 1 6.94 9.36 0.62 o
2 -6 3 2 0.18 -0.62 0.62 <
-2 6 -3 -2 0.18 2.50 0.62 o
3 -6 3 0 62.61 70.53 1.25 o
-3 6 -3 0 62.61 66.47 0.94 o
4 -6 3 -2 0.08 -2.50 1.56 <
-4 6 -3 2 0.08 0.31 0.94 <
3 -6 3 1 0.06 7.80 1.56 o
-3 6 -3 -1 0.06 4.99 1.25 o
4 -6 3 -1 0.73 1.56 1.56 <
-4 6 -3 1 0.73 0.62 1.87 <
3 -6 3 2 0.06 0.31 1.56 <
-3 6 -3 -2 0.06 6.55 4.37 <
4 -6 3 0 2.64 1.87 1.87 <
-4 6 -3 0 2.64 0.94 1.56 <
5 -6 3 -2 0.07 -2.81 1.87 <
-5 6 -3 2 0.07 -4.68 1.87 <
-2 5 -3 2 0.94 10.30 3.74 <
1 -5 3 1 18.51 4.99 0.94 o
-1 5 -3 -1 18.51 8.11 0.94 o
2 -5 3 -1 3.25 5.93 0.94 o
-2 5 -3 1 3.25 4.68 0.94 o
1 -5 3 2 0.88 1.87 0.94 <
-1 5 -3 -2 0.88 1.87 0.94 <
2 -5 3 0 10.21 4.68 0.62 o
-2 5 -3 0 10.21 3.12 0.62 o
3 -5 3 -2 0.47 2.50 0.62 o
-3 5 -3 2 0.47 1.25 0.62 <
2 -5 3 1 0.20 3.74 0.94 o
-2 5 -3 -1 0.20 5.93 0.62 o
3 -5 3 -1 5.34 2.18 1.25 <
-3 5 -3 1 5.34 3.74 0.94 o
2 -5 3 2 0.24 -0.31 1.25 <
-2 5 -3 -2 0.24 -0.94 2.81 <
3 -5 3 0 37.38 42.75 1.56 o
-3 5 -3 0 37.38 46.81 1.56 o
4 -5 3 -2 0.10 5.93 1.56 o
-4 5 -3 2 0.10 -1.56 1.56 <
3 -5 3 1 0.07 4.37 1.56 <
-3 5 -3 -1 0.07 -0.31 1.56 <
4 -5 3 -1 0.67 0.62 1.56 <
-4 5 -3 1 0.67 7.49 1.56 o
3 -5 3 2 0.06 -0.62 1.87 <
-3 5 -3 -2 0.06 6.55 1.56 o
4 -5 3 0 1.49 2.50 1.87 <
-4 5 -3 0 1.49 6.24 1.87 o
1 -4 3 0 22.57 -4.06 3.43 <
-1 4 -3 0 22.57 3.43 2.18 <
2 -4 3 -2 1.03 -2.81 3.43 <
-2 4 -3 2 1.03 6.87 0.94 o
1 -4 3 1 29.80 37.14 0.62 o
-1 4 -3 -1 29.80 28.71 0.94 o
2 -4 3 -1 1.15 2.81 0.62 o
-2 4 -3 1 1.15 2.18 0.62 o
1 -4 3 2 0.82 -0.62 0.62 <
-1 4 -3 -2 0.82 1.56 0.62 <
2 -4 3 0 7.38 10.30 0.94 o
-2 4 -3 0 7.38 7.18 0.94 o
3 -4 3 -2 0.33 4.37 1.25 o
-3 4 -3 2 0.33 0.94 1.25 <
2 -4 3 1 1.25 17.79 1.25 o
-2 4 -3 -1 1.25 11.55 1.25 o
3 -4 3 -1 3.37 4.99 1.25 o
-3 4 -3 1 3.37 0.31 1.25 <
2 -4 3 2 0.29 1.56 1.56 <
-2 4 -3 -2 0.29 2.50 1.25 <
3 -4 3 0 19.69 9.36 1.56 o
-3 4 -3 0 19.69 3.12 1.56 <
4 -4 3 -2 0.10 4.68 1.56 <
-4 4 -3 2 0.10 4.68 1.56 <
3 -4 3 1 0.08 -6.87 1.56 <
-3 4 -3 -1 0.08 1.25 1.56 <
4 -4 3 -1 0.50 -3.74 1.87 <
-4 4 -3 1 0.50 0.00 1.56 <
3 -4 3 2 0.07 -3.12 1.87 <
-3 4 -3 -2 0.07 -0.62 1.87 <
4 -4 3 0 0.59 8.43 1.87 o
-4 4 -3 0 0.59 -2.50 1.87 <
-2 -3 3 -2 0.07 5.93 8.11 <
2 3 -3 2 0.07 -1.87 2.18 <
3 3 -3 -1 0.51 4.99 2.18 <
2 3 -3 1 0.40 -2.50 2.81 <
3 3 -3 -2 0.08 -3.74 3.43 <
2 3 -3 0 2.00 29.96 5.93 o
1 -3 3 -1 4.27 5.93 1.87 o
-1 3 -3 1 4.27 4.06 2.18 <
0 -3 3 2 0.23 4.06 0.94 o
0 3 -3 -2 0.23 1.87 0.62 o
1 -3 3 0 7.93 15.92 0.62 o
-1 3 -3 0 7.93 15.29 0.62 o
2 -3 3 -2 0.79 6.24 0.62 o
-2 3 -3 2 0.79 6.87 0.62 o
1 -3 3 1 32.53 49.31 0.62 o
-1 3 -3 -1 32.53 51.80 0.62 o
2 -3 3 -1 2.87 22.16 0.94 o
-2 3 -3 1 2.87 23.40 0.94 o
1 -3 3 2 0.56 1.25 0.94 <
-1 3 -3 -2 0.56 2.18 0.94 <
2 -3 3 0 20.75 10.61 1.25 o
-2 3 -3 0 20.75 10.61 1.25 o
3 -3 3 -2 0.20 -1.25 1.25 <
-3 3 -3 2 0.20 0.62 1.25 <
2 -3 3 1 2.38 -2.50 1.25 <
-2 3 -3 -1 2.38 -2.18 1.25 <
3 -3 3 -1 1.82 3.74 1.25 o
-3 3 -3 1 1.82 2.81 1.25 <
2 -3 3 2 0.30 -0.62 1.56 <
-2 3 -3 -2 0.30 -2.81 1.25 <
3 -3 3 0 8.34 6.24 2.18 <
-3 3 -3 0 8.34 -4.06 1.56 <
4 -3 3 -2 0.08 6.55 1.87 o
-4 3 -3 2 0.08 0.00 1.56 <
3 -3 3 1 0.08 4.06 1.87 <
-3 3 -3 -1 0.08 5.31 1.56 o
4 -3 3 -1 0.31 0.31 1.87 <
-4 3 -3 1 0.31 3.43 1.87 <
3 -3 3 2 0.07 7.18 2.18 o
-3 3 -3 -2 0.07 -1.87 1.87 <
-4 -2 3 2 0.02 2.50 2.18 <
4 2 -3 -2 0.02 4.68 2.18 <
-3 -2 3 0 4.64 1.25 2.18 <
3 2 -3 0 4.64 -3.74 2.18 <
-2 -2 3 -2 0.13 0.94 1.87 <
2 2 -3 2 0.13 -1.25 1.87 <
-3 -2 3 1 1.02 -0.62 1.87 <
3 2 -3 -1 1.02 -0.31 1.87 <
-2 -2 3 -1 0.77 -1.25 1.87 <
2 2 -3 1 0.77 -3.43 1.87 <
-3 -2 3 2 0.10 -1.25 1.87 <
3 2 -3 -2 0.10 0.31 1.87 <
-2 -2 3 0 3.48 -4.99 1.87 <
2 2 -3 0 3.48 2.18 1.87 <
-1 -2 3 -2 0.01 0.00 1.87 <
1 2 -3 2 0.01 -1.25 1.87 <
-2 -2 3 1 3.14 0.62 2.50 <
2 2 -3 -1 3.14 -0.94 1.87 <
-1 -2 3 -1 4.53 -1.25 3.12 <
1 2 -3 1 4.53 -0.31 1.87 <
-2 -2 3 2 0.78 -2.18 4.99 <
2 2 -3 -2 0.78 -1.25 2.50 <
1 2 -3 0 84.42 0.31 4.68 <
-1 -2 3 2 6.02 3.74 2.50 <
1 2 -3 -2 6.02 4.99 2.81 <
0 -2 3 0 75.67 91.75 1.87 o
0 2 -3 0 75.67 94.87 1.87 o
1 -2 3 -2 6.83 4.06 1.25 o
-1 2 -3 2 6.83 5.62 1.25 o
0 -2 3 1 10.00 10.30 1.25 o
0 2 -3 -1 10.00 86.44 1.25 o
1 -2 3 -1 5.86 5.62 0.62 o
-1 2 -3 1 5.86 4.99 0.62 o
0 -2 3 2 0.43 4.37 0.31 o
0 2 -3 -2 0.43 4.37 0.31 o
1 -2 3 0 31.65 46.50 0.62 o
-1 2 -3 0 31.65 47.43 0.62 o
2 -2 3 -2 0.43 4.06 1.56 <
-2 2 -3 2 0.43 3.43 0.94 o
1 -2 3 1 24.10 34.95 0.94 o
-1 2 -3 -1 24.10 25.59 0.94 o
2 -2 3 -1 6.73 6.55 1.25 o
-2 2 -3 1 6.73 13.73 0.94 o
1 -2 3 2 0.28 2.50 0.94 <
-1 2 -3 -2 0.28 0.31 0.94 <
2 -2 3 0 33.12 10.30 1.25 o
-2 2 -3 0 33.12 6.87 1.25 o
3 -2 3 -2 0.14 -8.11 1.25 <
-3 2 -3 2 0.14 2.18 1.25 <
2 -2 3 1 2.84 1.25 1.56 <
-2 2 -3 -1 2.84 4.37 1.25 o
3 -2 3 -1 1.04 -1.56 1.56 <
-3 2 -3 1 1.04 3.43 1.25 <
2 -2 3 2 0.27 6.24 1.56 o
-2 2 -3 -2 0.27 1.25 1.56 <
3 -2 3 0 2.37 5.93 1.56 o
-3 2 -3 0 2.37 1.87 1.56 <
4 -2 3 -2 0.06 7.80 1.87 o
-4 2 -3 2 0.06 0.62 1.56 <
3 -2 3 1 0.07 -0.94 1.87 <
-3 2 -3 -1 0.07 0.62 1.87 <
4 -2 3 -1 0.18 4.06 1.87 <
-4 2 -3 1 0.18 -2.50 1.87 <
-3 -1 3 -1 0.28 1.87 2.18 <
3 1 -3 1 0.28 -0.62 2.18 <
-4 -1 3 2 0.06 -1.56 1.87 <
4 1 -3 -2 0.06 -0.94 2.18 <
-3 -1 3 0 4.29 -0.94 1.87 <
3 1 -3 0 4.29 -1.87 1.87 <
-2 -1 3 -2 0.19 2.50 1.87 <
2 1 -3 2 0.19 2.18 1.87 <
-3 -1 3 1 1.68 -1.25 1.87 <
3 1 -3 -1 1.68 -4.06 1.87 <
-2 -1 3 -1 1.54 -2.81 1.56 <
2 1 -3 1 1.54 0.62 1.87 <
-3 -1 3 2 0.09 -1.25 1.56 <
3 1 -3 -2 0.09 1.25 1.87 <
-2 -1 3 0 5.00 2.18 1.56 <
2 1 -3 0 5.00 -4.37 1.56 <
-1 -1 3 -2 0.01 -0.31 1.56 <
1 1 -3 2 0.01 -0.31 1.56 <
-2 -1 3 1 3.34 0.62 1.56 <
2 1 -3 -1 3.34 1.87 1.25 <
-1 -1 3 -1 8.63 -0.31 1.25 <
1 1 -3 1 8.63 -0.94 1.25 <
-2 -1 3 2 0.67 -2.18 2.81 <
2 1 -3 -2 0.67 -2.50 1.25 <
-1 -1 3 0 148.63 9.05 1.56 o
1 1 -3 0 148.63 24.34 1.87 o
0 -1 3 -2 0.22 -1.25 0.94 <
0 1 -3 2 0.22 2.81 0.94 <
-1 -1 3 1 11.38 6.87 0.94 o
1 1 -3 -1 11.38 8.43 0.94 o
0 -1 3 -1 5.15 23.40 0.94 o
0 1 -3 1 5.15 17.79 0.94 o
-1 -1 3 2 11.84 8.74 0.94 o
1 1 -3 -2 11.84 9.99 0.94 o
0 -1 3 0 41.74 64.91 1.25 o
0 1 -3 0 41.74 37.45 1.25 o
1 -1 3 -2 8.32 7.49 1.56 o
-1 1 -3 2 8.32 5.31 0.94 o
0 -1 3 1 12.11 26.84 0.62 o
0 1 -3 -1 12.11 23.72 0.62 o
1 -1 3 -1 5.18 23.72 0.62 o
-1 1 -3 1 5.18 25.59 0.62 o
0 -1 3 2 0.56 -2.18 0.62 <
0 1 -3 -2 0.56 0.62 0.62 <
1 -1 3 0 23.71 15.29 0.94 o
-1 1 -3 0 23.71 13.42 0.94 o
2 -1 3 -2 0.17 2.18 0.94 <
-2 1 -3 2 0.17 2.81 0.94 <
1 -1 3 1 12.14 3.43 0.94 o
-1 1 -3 -1 12.14 0.62 0.94 <
2 -1 3 -1 8.91 9.99 1.25 o
-2 1 -3 1 8.91 3.43 1.25 <
1 -1 3 2 0.10 -0.62 1.25 <
-1 1 -3 -2 0.10 1.87 1.25 <
2 -1 3 0 67.03 5.93 1.56 o
-2 1 -3 0 67.03 6.55 1.25 o
3 -1 3 -2 0.14 -5.62 1.56 <
-3 1 -3 2 0.14 -0.62 1.25 <
2 -1 3 1 2.61 -1.87 1.56 <
-2 1 -3 -1 2.61 -1.87 1.56 <
3 -1 3 -1 0.85 -0.31 1.56 <
-3 1 -3 1 0.85 1.25 1.56 <
2 -1 3 2 0.21 -0.62 1.56 <
-2 1 -3 -2 0.21 1.87 1.56 <
3 -1 3 0 1.00 1.25 1.87 <
-3 1 -3 0 1.00 -0.62 1.56 <
4 -1 3 -2 0.04 -4.06 1.87 <
-4 1 -3 2 0.04 1.56 1.87 <
3 -1 3 1 0.05 3.74 1.87 <
-3 1 -3 -1 0.05 0.62 1.87 <
-4 0 3 1 0.17 0.31 2.18 <
4 0 -3 -1 0.17 -1.87 2.18 <
-3 0 3 -1 0.29 1.56 1.87 <
3 0 -3 1 0.29 0.31 2.18 <
-4 0 3 2 0.11 -1.25 1.87 <
4 0 -3 -2 0.11 -0.62 1.87 <
-3 0 3 0 4.53 0.62 1.87 <
3 0 -3 0 4.53 -3.12 1.87 <
-2 0 3 -2 0.23 3.74 1.87 <
2 0 -3 2 0.23 0.62 1.87 <
-3 0 3 1 2.36 0.00 1.56 <
3 0 -3 -1 2.36 2.18 1.87 <
-2 0 3 -1 2.64 0.62 1.56 <
2 0 -3 1 2.64 3.43 1.56 <
-3 0 3 2 0.07 -0.31 1.56 <
3 0 -3 -2 0.07 0.62 1.56 <
-2 0 3 0 19.63 6.87 1.87 o
2 0 -3 0 19.63 9.36 1.56 o
-1 0 3 -2 0.01 0.62 1.25 <
1 0 -3 2 0.01 5.31 1.25 o
-2 0 3 1 3.01 0.00 0.94 <
2 0 -3 -1 3.01 -0.62 0.94 <
-1 0 3 -1 13.34 2.50 0.94 <
1 0 -3 1 13.34 -0.62 0.94 <
-2 0 3 2 0.54 1.87 0.94 <
2 0 -3 -2 0.54 0.94 0.94 <
-1 0 3 0 204.49 159.15 1.25 o
1 0 -3 0 204.49 143.86 1.25 o
0 0 3 -2 0.15 14.35 0.94 o
0 0 -3 2 0.15 19.97 0.94 o
-1 0 3 1 21.73 9.67 0.62 o
1 0 -3 -1 21.73 8.74 0.62 o
0 0 3 -1 5.41 11.55 0.62 o
0 0 -3 1 5.41 8.74 0.62 o
-1 0 3 2 14.97 14.98 0.62 o
1 0 -3 -2 14.97 13.42 0.62 o
0 0 3 0 57.44 51.18 0.62 o
0 0 -3 0 57.44 50.24 0.62 o
1 0 3 -2 6.28 8.43 1.25 o
-1 0 -3 2 6.28 10.92 1.25 o
0 0 3 1 9.74 3.74 1.25 o
0 0 -3 -1 9.74 0.62 1.25 <
1 0 3 -1 3.05 -0.62 4.06 <
-1 0 -3 1 3.05 -6.24 2.81 <
0 0 3 2 0.52 -1.25 2.81 <
0 0 -3 -2 0.52 0.94 5.62 <
1 0 3 0 18.78 -0.31 1.56 <
-1 0 -3 0 18.78 4.37 2.50 <
2 0 3 -2 0.04 1.87 1.25 <
-2 0 -3 2 0.04 -1.87 1.87 <
1 0 3 1 4.00 3.74 1.25 o
-1 0 -3 -1 4.00 2.50 1.56 <
2 0 3 -1 8.01 1.87 1.25 <
-2 0 -3 1 8.01 1.87 1.56 <
1 0 3 2 0.05 2.50 1.25 <
-1 0 -3 -2 0.05 3.74 1.56 <
2 0 3 0 40.45 -0.94 1.56 <
-2 0 -3 0 40.45 1.25 1.56 <
3 0 3 -2 0.14 0.62 1.56 <
-3 0 -3 2 0.14 -0.62 1.56 <
2 0 3 1 2.02 1.87 1.56 <
-2 0 -3 -1 2.02 0.31 1.56 <
3 0 3 -1 0.92 -4.06 1.87 <
-3 0 -3 1 0.92 0.62 1.56 <
2 0 3 2 0.14 1.25 1.87 <
-2 0 -3 -2 0.14 -0.94 1.87 <
3 0 3 0 1.57 2.18 1.87 <
-3 0 -3 0 1.57 0.62 1.87 <
4 0 3 -2 0.02 -1.87 1.87 <
-4 0 -3 2 0.02 -1.25 1.87 <
-3 1 3 -2 0.00 -0.62 2.18 <
3 -1 -3 2 0.00 -3.12 2.18 <
-4 1 3 1 0.12 -3.12 1.87 <
4 -1 -3 -1 0.12 -1.87 1.87 <
-3 1 3 -1 0.20 0.31 1.87 <
3 -1 -3 1 0.20 -0.31 1.87 <
-4 1 3 2 0.19 2.50 1.87 <
4 -1 -3 -2 0.19 1.25 1.87 <
-3 1 3 0 7.45 -3.12 2.81 <
3 -1 -3 0 7.45 0.31 1.87 <
-2 1 3 -2 0.24 1.87 1.56 <
2 -1 -3 2 0.24 1.56 1.56 <
-3 1 3 1 2.85 2.81 1.25 <
3 -1 -3 -1 2.85 3.43 1.87 <
-2 1 3 -1 3.80 0.94 1.25 <
2 -1 -3 1 3.80 1.56 1.25 <
-3 1 3 2 0.04 0.00 0.94 <
3 -1 -3 -2 0.04 0.00 0.94 <
-2 1 3 0 19.43 8.74 0.94 o
2 -1 -3 0 19.43 17.79 0.94 o
-1 1 3 -2 0.03 -1.56 0.94 <
1 -1 -3 2 0.03 3.74 0.94 o
-2 1 3 1 2.62 1.25 0.94 <
2 -1 -3 -1 2.62 -0.31 0.94 <
-1 1 3 -1 17.40 27.46 0.94 o
1 -1 -3 1 17.40 18.41 0.94 o
-2 1 3 2 0.54 1.56 0.94 <
2 -1 -3 -2 0.54 3.12 0.94 o
-1 1 3 0 1146.05 1457.33 2.50 o
1 -1 -3 0 1146.05 1397.73 2.50 o
0 1 3 -2 0.38 3.43 0.62 o
0 -1 -3 2 0.38 2.50 0.62 o
-1 1 3 1 31.34 27.15 0.62 o
1 -1 -3 -1 31.34 23.72 0.62 o
0 1 3 -1 13.35 52.43 0.94 o
0 -1 -3 1 13.35 50.55 0.94 o
-1 1 3 2 10.90 9.99 0.62 o
1 -1 -3 -2 10.90 11.86 0.62 o
0 1 3 0 143.41 264.32 1.87 o
0 -1 -3 0 143.41 357.31 1.87 o
1 1 3 -2 3.07 -0.94 1.56 <
-1 -1 -3 2 3.07 3.12 1.56 <
1 1 3 2 0.05 -0.62 5.31 <
2 1 3 0 25.88 4.06 2.81 <
3 1 3 -2 0.11 0.31 2.18 <
2 1 3 1 1.38 -1.56 1.87 <
-2 -1 -3 -1 1.38 11.86 6.87 <
3 1 3 -1 0.97 0.62 1.87 <
-3 -1 -3 1 0.97 -5.93 5.31 <
2 1 3 2 0.07 3.12 1.87 <
-2 -1 -3 -2 0.07 0.94 3.74 <
-4 2 3 0 11.42 -4.37 3.43 <
4 -2 -3 0 11.42 8.74 2.18 o
-3 2 3 -2 0.01 4.68 1.87 <
3 -2 -3 2 0.01 0.00 1.87 <
-4 2 3 1 0.11 0.00 1.56 <
4 -2 -3 -1 0.11 0.62 1.87 <
-3 2 3 -1 0.08 13.11 1.25 o
3 -2 -3 1 0.08 -0.62 2.18 <
-4 2 3 2 0.27 4.68 1.25 o
4 -2 -3 -2 0.27 0.31 1.56 <
-3 2 3 0 20.22 0.00 1.25 <
3 -2 -3 0 20.22 2.81 1.25 <
-2 2 3 -2 0.22 -1.56 1.25 <
2 -2 -3 2 0.22 2.50 1.25 <
-3 2 3 1 2.99 2.18 0.94 <
3 -2 -3 -1 2.99 0.62 0.94 <
-2 2 3 -1 4.71 4.99 0.94 o
2 -2 -3 1 4.71 0.62 0.94 <
-3 2 3 2 0.01 0.00 0.94 <
3 -2 -3 -2 0.01 1.87 0.94 <
-2 2 3 0 8.68 42.13 1.25 o
2 -2 -3 0 8.68 50.87 1.25 o
-1 2 3 -2 0.06 -0.62 0.94 <
1 -2 -3 2 0.06 0.62 0.94 <
-2 2 3 1 2.88 6.55 0.94 o
2 -2 -3 -1 2.88 3.74 0.94 o
-1 2 3 -1 20.84 40.88 0.94 o
1 -2 -3 1 20.84 39.32 0.94 o
-2 2 3 2 0.57 4.37 0.94 o
2 -2 -3 -2 0.57 2.81 0.94 <
-1 2 3 0 1132.68 1489.48 2.18 o
1 -2 -3 0 1132.68 1547.83 2.18 o
0 2 3 -2 0.96 2.18 0.62 o
0 -2 -3 2 0.96 3.12 0.62 o
-1 2 3 1 27.37 27.46 0.94 o
1 -2 -3 -1 27.37 26.84 0.94 o
0 2 3 -1 21.02 14.67 0.94 o
0 -2 -3 1 21.02 15.29 0.94 o
-1 2 3 2 5.52 2.81 1.56 <
1 -2 -3 -2 5.52 5.62 1.56 o
0 2 3 0 47.70 2.81 5.31 <
0 -2 -3 0 47.70 12.17 3.43 o
3 2 3 -1 0.89 15.92 8.43 <
-4 3 3 -1 0.56 3.74 2.18 <
4 -3 -3 1 0.56 -1.56 2.18 <
-5 3 3 2 0.05 3.43 1.25 <
5 -3 -3 -2 0.05 -1.25 3.43 <
-4 3 3 0 18.11 0.62 1.25 <
4 -3 -3 0 18.11 2.18 1.56 <
-3 3 3 -2 0.05 3.12 1.25 <
3 -3 -3 2 0.05 1.56 1.25 <
-4 3 3 1 0.22 -0.31 1.25 <
4 -3 -3 -1 0.22 1.56 1.25 <
-3 3 3 -1 0.06 3.12 1.25 <
3 -3 -3 1 0.06 -0.62 1.25 <
-4 3 3 2 0.35 -2.50 1.25 <
4 -3 -3 -2 0.35 2.81 1.25 <
-3 3 3 0 31.59 13.11 1.25 o
3 -3 -3 0 31.59 7.80 1.25 o
-2 3 3 -2 0.17 -0.62 0.94 <
2 -3 -3 2 0.17 2.81 0.94 <
-3 3 3 1 2.77 2.50 0.94 <
3 -3 -3 -1 2.77 3.74 0.94 o
-2 3 3 -1 5.02 0.00 0.94 <
2 -3 -3 1 5.02 4.68 0.94 o
-3 3 3 2 0.04 0.94 0.94 <
3 -3 -3 -2 0.04 -2.50 0.94 <
-2 3 3 0 24.70 14.35 0.94 o
2 -3 -3 0 24.70 10.30 0.94 o
-1 3 3 -2 0.11 5.31 0.94 o
1 -3 -3 2 0.11 3.12 0.94 o
-2 3 3 1 3.63 2.18 0.94 <
2 -3 -3 -1 3.63 2.50 0.94 <
-1 3 3 -1 23.58 35.89 0.94 o
1 -3 -3 1 23.58 36.20 0.94 o
-2 3 3 2 0.46 1.87 0.94 <
2 -3 -3 -2 0.46 2.50 0.94 <
-1 3 3 0 855.77 1106.26 2.50 o
1 -3 -3 0 855.77 1184.90 2.50 o
0 3 3 -2 1.29 6.24 0.94 o
0 -3 -3 2 1.29 2.81 0.94 <
-1 3 3 1 16.56 9.36 0.94 o
1 -3 -3 -1 16.56 12.79 0.94 o
0 3 3 -1 22.75 16.85 1.87 o
0 -3 -3 1 22.75 18.41 1.56 o
-4 4 3 -1 0.87 2.50 1.25 <
4 -4 -3 1 0.87 2.18 1.56 <
-5 4 3 2 0.04 4.68 1.25 o
5 -4 -3 -2 0.04 8.11 1.25 o
-4 4 3 0 24.06 6.87 1.25 o
4 -4 -3 0 24.06 7.80 1.25 o
-3 4 3 -2 0.10 5.62 1.25 o
3 -4 -3 2 0.10 -2.50 1.25 <
-4 4 3 1 0.54 -4.06 1.25 <
4 -4 -3 -1 0.54 5.93 1.25 o
-3 4 3 -1 0.29 3.43 0.94 o
3 -4 -3 1 0.29 3.12 0.94 o
-4 4 3 2 0.39 2.18 0.94 <
4 -4 -3 -2 0.39 2.50 0.94 <
-3 4 3 0 35.46 17.48 0.94 o
3 -4 -3 0 35.46 18.10 1.25 o
-2 4 3 -2 0.14 7.18 0.94 o
2 -4 -3 2 0.14 6.24 0.94 o
-3 4 3 1 2.41 4.99 0.94 o
3 -4 -3 -1 2.41 5.62 0.94 o
-2 4 3 -1 4.44 8.74 0.94 o
2 -4 -3 1 4.44 10.61 0.94 o
-3 4 3 2 0.16 2.50 0.94 <
3 -4 -3 -2 0.16 3.74 0.94 o
-2 4 3 0 1.59 20.28 1.25 o
2 -4 -3 0 1.59 19.66 1.25 o
-1 4 3 -2 0.18 6.55 0.94 o
1 -4 -3 2 0.18 10.61 0.94 o
-2 4 3 1 4.18 6.24 0.94 o
2 -4 -3 -1 4.18 7.18 0.94 o
-1 4 3 -1 24.25 27.77 0.94 o
1 -4 -3 1 24.25 29.96 0.94 o
-2 4 3 2 0.25 2.50 0.94 <
2 -4 -3 -2 0.25 0.31 0.94 <
-1 4 3 0 69.38 44.00 0.94 o
1 -4 -3 0 69.38 45.25 0.94 o
0 4 3 -2 1.17 4.68 0.94 o
0 -4 -3 2 1.17 -1.87 1.25 <
-1 4 3 1 7.59 2.81 4.99 <
1 -4 -3 -1 7.59 9.67 3.12 o
-5 5 3 1 0.05 -0.62 1.25 <
5 -5 -3 -1 0.05 -0.31 1.25 <
-4 5 3 -1 1.12 0.62 1.25 <
4 -5 -3 1 1.12 -0.31 1.25 <
-5 5 3 2 0.06 0.31 1.25 <
5 -5 -3 -2 0.06 0.00 1.25 <
-4 5 3 0 20.29 5.93 1.25 o
4 -5 -3 0 20.29 4.68 1.25 o
-3 5 3 -2 0.17 -0.62 1.25 <
3 -5 -3 2 0.17 -4.06 1.25 <
-4 5 3 1 1.02 1.87 0.94 <
4 -5 -3 -1 1.02 2.81 1.25 <
-3 5 3 -1 0.85 1.56 0.94 <
3 -5 -3 1 0.85 6.87 0.94 o
-4 5 3 2 0.36 0.00 0.94 <
4 -5 -3 -2 0.36 0.31 0.94 <
-3 5 3 0 63.94 83.63 1.25 o
3 -5 -3 0 63.94 91.12 1.25 o
-2 5 3 -2 0.11 2.50 0.94 <
2 -5 -3 2 0.11 3.43 0.94 o
-3 5 3 1 2.15 2.81 0.94 <
3 -5 -3 -1 2.15 2.81 0.94 <
-2 5 3 -1 3.09 4.68 0.94 o
2 -5 -3 1 3.09 1.87 0.94 <
-3 5 3 2 0.25 0.62 0.94 <
3 -5 -3 -2 0.25 0.00 0.94 <
-2 5 3 0 8.70 8.11 0.94 o
2 -5 -3 0 8.70 5.93 0.94 o
-1 5 3 -2 0.25 0.00 0.94 <
1 -5 -3 2 0.25 2.18 0.94 <
-2 5 3 1 4.83 1.25 0.94 <
2 -5 -3 -1 4.83 4.99 0.94 o
-1 5 3 -1 21.21 3.74 0.94 o
1 -5 -3 1 21.21 2.81 0.94 <
-2 5 3 2 0.11 2.50 0.94 <
2 -5 -3 -2 0.11 2.81 0.94 <
-1 5 3 0 286.15 14.67 1.56 o
1 -5 -3 0 286.15 23.09 1.87 o
-4 6 3 -2 0.00 2.81 1.25 <
4 -6 -3 2 0.00 -2.18 1.25 <
-5 6 3 1 0.14 0.62 1.25 <
5 -6 -3 -1 0.14 -1.87 1.25 <
-4 6 3 -1 1.18 4.37 1.25 o
4 -6 -3 1 1.18 2.18 1.25 <
-5 6 3 2 0.11 1.87 1.25 <
5 -6 -3 -2 0.11 -0.31 1.25 <
-4 6 3 0 12.08 11.55 1.25 o
4 -6 -3 0 12.08 7.49 1.25 o
-3 6 3 -2 0.24 0.00 0.94 <
3 -6 -3 2 0.24 1.25 1.25 <
-4 6 3 1 1.46 0.62 0.94 <
4 -6 -3 -1 1.46 4.99 1.25 o
-3 6 3 -1 1.57 17.16 0.94 o
3 -6 -3 1 1.57 19.04 1.25 o
-4 6 3 2 0.24 1.25 0.94 <
4 -6 -3 -2 0.24 1.25 0.94 <
-3 6 3 0 110.42 136.68 1.25 o
3 -6 -3 0 110.42 154.47 1.25 o
-2 6 3 -2 0.09 -0.31 0.94 <
2 -6 -3 2 0.09 2.81 0.94 <
-3 6 3 1 1.90 4.06 0.94 o
3 -6 -3 -1 1.90 4.06 0.94 o
-2 6 3 -1 1.58 1.25 0.94 <
2 -6 -3 1 1.58 1.25 0.94 <
-3 6 3 2 0.20 -0.62 0.94 <
3 -6 -3 -2 0.20 -0.62 0.94 <
-2 6 3 0 7.18 9.67 0.94 o
2 -6 -3 0 7.18 13.42 0.94 o
-1 6 3 -2 0.30 3.12 0.94 o
1 -6 -3 2 0.30 2.18 0.94 <
-2 6 3 1 6.05 4.06 0.94 o
2 -6 -3 -1 6.05 -1.25 0.94 <
-1 6 3 -1 14.36 6.24 0.94 o
1 -6 -3 1 14.36 0.31 0.94 <
-2 6 3 2 0.16 -0.62 2.81 <
2 -6 -3 -2 0.16 0.31 3.43 <
-5 7 3 0 2.99 -0.94 1.25 <
5 -7 -3 0 2.99 0.94 1.25 <
-4 7 3 -2 0.00 -1.25 1.25 <
4 -7 -3 2 0.00 1.25 1.25 <
-5 7 3 1 0.29 -0.31 1.25 <
5 -7 -3 -1 0.29 3.12 1.25 <
-4 7 3 -1 0.97 0.94 1.25 <
4 -7 -3 1 0.97 -1.87 1.25 <
-5 7 3 2 0.19 1.87 1.25 <
5 -7 -3 -2 0.19 0.31 1.25 <
-4 7 3 0 5.98 9.36 1.25 o
4 -7 -3 0 5.98 13.42 1.25 o
-3 7 3 -2 0.28 1.56 0.94 <
3 -7 -3 2 0.28 3.12 1.25 <
-4 7 3 1 1.60 2.81 0.94 <
4 -7 -3 -1 1.60 1.87 1.25 <
-3 7 3 -1 2.12 21.53 1.25 o
3 -7 -3 1 2.12 26.21 1.25 o
-4 7 3 2 0.11 -0.62 0.94 <
4 -7 -3 -2 0.11 1.25 0.94 <
-3 7 3 0 64.49 92.68 1.25 o
3 -7 -3 0 64.49 86.75 1.25 o
-2 7 3 -2 0.07 0.31 0.94 <
2 -7 -3 2 0.07 1.87 0.94 <
-3 7 3 1 1.47 1.25 0.94 <
3 -7 -3 -1 1.47 1.25 0.94 <
-2 7 3 -1 0.66 -1.56 0.94 <
2 -7 -3 1 0.66 3.12 0.94 o
-3 7 3 2 0.07 2.18 0.94 <
3 -7 -3 -2 0.07 -0.62 0.94 <
-2 7 3 0 4.23 2.50 0.94 <
2 -7 -3 0 4.23 1.87 0.94 <
-1 7 3 -2 0.31 1.56 0.94 <
1 -7 -3 2 0.31 0.62 0.94 <
-2 7 3 1 7.00 -2.81 1.25 <
2 -7 -3 -1 7.00 1.87 1.25 <
-1 7 3 -1 6.90 3.74 4.99 <
-5 8 3 0 2.43 0.62 1.25 <
5 -8 -3 0 2.43 1.87 1.25 <
-4 8 3 -2 0.00 0.62 1.25 <
4 -8 -3 2 0.00 -4.37 1.25 <
-5 8 3 1 0.49 4.37 1.25 o
5 -8 -3 -1 0.49 0.94 1.25 <
-4 8 3 -1 0.61 1.56 1.25 <
4 -8 -3 1 0.61 -1.56 1.25 <
-5 8 3 2 0.29 0.31 1.25 <
5 -8 -3 -2 0.29 3.12 1.25 <
-4 8 3 0 0.76 5.93 1.25 o
4 -8 -3 0 0.76 7.49 1.25 o
-3 8 3 -2 0.29 2.18 0.94 <
3 -8 -3 2 0.29 0.62 1.25 <
-4 8 3 1 1.35 0.94 0.94 <
4 -8 -3 -1 1.35 2.50 1.25 <
-3 8 3 -1 2.18 9.99 0.94 o
3 -8 -3 1 2.18 11.55 1.25 o
-4 8 3 2 0.10 -0.94 0.94 <
4 -8 -3 -2 0.10 0.62 0.94 <
-3 8 3 0 23.63 17.48 0.94 o
3 -8 -3 0 23.63 18.41 0.94 o
-2 8 3 -2 0.13 0.62 0.94 <
2 -8 -3 2 0.13 0.62 0.94 <
-3 8 3 1 0.96 3.12 0.94 o
3 -8 -3 -1 0.96 -0.62 0.94 <
-2 8 3 -1 0.57 0.62 0.94 <
2 -8 -3 1 0.57 0.00 0.94 <
-3 8 3 2 0.01 3.12 1.25 <
3 -8 -3 -2 0.01 0.31 0.94 <
-2 8 3 0 7.66 0.94 1.25 <
2 -8 -3 0 7.66 0.94 1.25 <
-1 8 3 -2 0.28 1.25 3.74 <
1 -8 -3 2 0.28 0.31 1.56 <
-2 8 3 1 6.64 1.56 8.11 <
-6 9 3 2 0.04 0.62 1.25 <
6 -9 -3 -2 0.04 -0.62 1.25 <
-5 9 3 0 2.52 0.62 1.25 <
5 -9 -3 0 2.52 3.74 1.25 o
-4 9 3 -2 0.00 1.25 1.25 <
4 -9 -3 2 0.00 -3.12 1.25 <
-5 9 3 1 0.67 1.87 1.25 <
5 -9 -3 -1 0.67 2.18 1.25 <
-4 9 3 -1 0.34 2.81 1.25 <
4 -9 -3 1 0.34 3.43 1.25 <
-5 9 3 2 0.35 3.43 1.25 <
5 -9 -3 -2 0.35 2.18 1.25 <
-4 9 3 0 1.05 3.12 1.25 <
4 -9 -3 0 1.05 3.12 1.25 <
-3 9 3 -2 0.26 -1.56 0.94 <
3 -9 -3 2 0.26 0.62 1.25 <
-4 9 3 1 0.93 1.87 0.94 <
4 -9 -3 -1 0.93 0.94 1.25 <
-3 9 3 -1 1.72 3.74 0.94 o
3 -9 -3 1 1.72 2.81 1.25 <
-4 9 3 2 0.21 1.56 0.94 <
4 -9 -3 -2 0.21 1.87 1.25 <
-3 9 3 0 25.43 8.11 1.25 o
3 -9 -3 0 25.43 4.68 1.25 o
-2 9 3 -2 0.25 2.50 0.94 <
2 -9 -3 2 0.25 1.87 0.94 <
-3 9 3 1 0.62 0.31 1.25 <
3 -9 -3 -1 0.62 -1.87 1.25 <
-2 9 3 -1 0.86 -4.99 1.25 <
2 -9 -3 1 0.86 -0.62 1.25 <
-3 9 3 2 0.00 0.94 1.25 <
3 -9 -3 -2 0.00 1.56 1.25 <
-2 9 3 0 2.52 -2.18 1.56 <
2 -9 -3 0 2.52 4.68 3.74 <
-6 10 3 2 0.04 2.50 1.25 <
6 -10 -3 -2 0.04 0.00 1.25 <
-5 10 3 0 2.55 7.80 1.25 o
5 -10 -3 0 2.55 15.92 1.25 o
-4 10 3 -2 0.00 1.87 1.25 <
4 -10 -3 2 0.00 0.94 1.25 <
-5 10 3 1 0.75 2.18 1.25 <
5 -10 -3 -1 0.75 3.43 1.25 <
-4 10 3 -1 0.35 2.81 1.25 <
4 -10 -3 1 0.35 1.25 1.25 <
-5 10 3 2 0.35 0.31 1.25 <
5 -10 -3 -2 0.35 1.56 1.25 <
-4 10 3 0 8.35 6.24 1.25 o
4 -10 -3 0 8.35 6.55 1.25 o
-3 10 3 -2 0.20 0.31 1.25 <
3 -10 -3 2 0.20 -1.25 1.25 <
-4 10 3 1 0.60 -1.25 0.94 <
4 -10 -3 -1 0.60 1.56 1.25 <
-3 10 3 -1 1.01 4.37 1.25 o
3 -10 -3 1 1.01 1.25 1.25 <
-4 10 3 2 0.35 -0.94 1.25 <
4 -10 -3 -2 0.35 1.25 1.25 <
-3 10 3 0 15.35 -2.18 1.25 <
3 -10 -3 0 15.35 0.62 1.25 <
-2 10 3 -2 0.35 4.68 1.25 o
2 -10 -3 2 0.35 2.81 1.25 <
-3 10 3 1 0.49 -0.62 1.25 <
3 -10 -3 -1 0.49 0.62 1.25 <
-2 10 3 -1 0.98 0.00 1.56 <
2 -10 -3 1 0.98 2.50 1.56 <
-3 10 3 2 0.02 -3.12 1.87 <
3 -10 -3 -2 0.02 1.87 2.81 <
-6 11 3 2 0.03 1.25 1.25 <
6 -11 -3 -2 0.03 3.12 1.25 <
-5 11 3 0 2.59 1.87 1.25 <
5 -11 -3 0 2.59 6.24 1.25 o
-4 11 3 -2 0.00 -0.62 1.25 <
4 -11 -3 2 0.00 -0.94 1.25 <
-5 11 3 1 0.69 1.87 1.25 <
5 -11 -3 -1 0.69 1.56 1.25 <
-4 11 3 -1 0.65 0.00 1.25 <
4 -11 -3 1 0.65 0.62 1.25 <
-5 11 3 2 0.27 2.81 1.25 <
5 -11 -3 -2 0.27 1.87 1.25 <
-4 11 3 0 17.60 6.87 1.25 o
4 -11 -3 0 17.60 7.80 1.25 o
-3 11 3 -2 0.11 1.87 1.25 <
3 -11 -3 2 0.11 2.50 1.25 <
-4 11 3 1 0.46 2.50 1.25 <
4 -11 -3 -1 0.46 -0.94 1.25 <
-3 11 3 -1 0.40 -2.81 1.25 <
3 -11 -3 1 0.40 0.62 1.25 <
-4 11 3 2 0.41 -0.62 1.25 <
4 -11 -3 -2 0.41 0.00 1.25 <
-3 11 3 0 1.80 0.62 1.25 <
3 -11 -3 0 1.80 -2.18 1.25 <
-2 11 3 -2 0.35 0.62 1.87 <
2 -11 -3 2 0.35 -1.25 1.25 <
-3 11 3 1 0.44 4.99 1.87 <
3 -11 -3 -1 0.44 1.56 2.81 <
-2 11 3 -1 0.78 0.62 1.87 <
2 -11 -3 1 0.78 14.04 5.31 <
-6 12 3 2 0.02 2.81 1.25 <
6 -12 -3 -2 0.02 0.62 1.25 <
-5 12 3 0 2.59 2.50 1.25 <
5 -12 -3 0 2.59 4.06 1.25 o
-4 12 3 -2 0.00 3.74 1.25 o
4 -12 -3 2 0.00 0.00 1.25 <
-5 12 3 1 0.51 0.00 1.25 <
5 -12 -3 -1 0.51 2.18 1.25 <
-4 12 3 -1 1.04 2.50 1.25 <
4 -12 -3 1 1.04 1.25 1.25 <
-5 12 3 2 0.17 -1.87 1.25 <
5 -12 -3 -2 0.17 1.25 1.25 <
-4 12 3 0 26.43 4.37 1.25 o
4 -12 -3 0 26.43 7.80 1.25 o
-3 12 3 -2 0.04 -1.87 1.25 <
3 -12 -3 2 0.04 -4.37 1.25 <
-4 12 3 1 0.44 0.00 1.25 <
4 -12 -3 -1 0.44 1.56 1.25 <
-3 12 3 -1 0.08 1.87 1.25 <
3 -12 -3 1 0.08 1.25 1.25 <
-4 12 3 2 0.37 0.31 1.25 <
4 -12 -3 -2 0.37 -2.81 1.25 <
-3 12 3 0 0.08 4.68 1.87 <
3 -12 -3 0 0.08 -2.50 1.56 <
-2 12 3 -2 0.26 1.25 1.87 <
2 -12 -3 2 0.26 3.43 1.87 <
-3 12 3 1 0.37 0.62 2.18 <
3 -12 -3 -1 0.37 -1.56 9.99 <
-6 13 3 2 0.01 0.00 1.25 <
6 -13 -3 -2 0.01 1.25 1.25 <
-5 13 3 0 2.13 0.62 1.25 <
5 -13 -3 0 2.13 3.12 1.25 <
-4 13 3 -2 0.00 -0.31 1.25 <
4 -13 -3 2 0.00 0.94 1.25 <
-5 13 3 1 0.29 0.31 1.25 <
5 -13 -3 -1 0.29 -1.56 1.25 <
-4 13 3 -1 1.31 -3.12 1.25 <
4 -13 -3 1 1.31 1.56 1.25 <
-5 13 3 2 0.08 -2.50 1.25 <
5 -13 -3 -2 0.08 0.31 1.25 <
-4 13 3 0 26.66 9.36 1.25 o
4 -13 -3 0 26.66 2.50 1.25 <
-3 13 3 -2 0.00 5.62 1.25 o
3 -13 -3 2 0.00 -0.31 1.25 <
-4 13 3 1 0.43 0.31 1.25 <
4 -13 -3 -1 0.43 -0.62 1.25 <
-3 13 3 -1 0.06 -7.80 2.50 <
3 -13 -3 1 0.06 0.00 1.25 <
-4 13 3 2 0.27 -0.31 1.87 <
4 -13 -3 -2 0.27 -4.37 1.87 <
-3 13 3 0 1.32 3.43 1.87 <
3 -13 -3 0 1.32 -3.43 2.18 <
-2 13 3 -2 0.16 1.87 2.81 <
-5 14 3 0 1.38 -0.62 1.25 <
5 -14 -3 0 1.38 -0.62 1.25 <
-4 14 3 -2 0.00 2.50 1.25 <
4 -14 -3 2 0.00 -3.43 1.25 <
-5 14 3 1 0.11 1.25 1.56 <
5 -14 -3 -1 0.11 1.87 1.25 <
-4 14 3 -1 1.35 -2.50 1.56 <
4 -14 -3 1 1.35 2.50 1.25 <
-5 14 3 2 0.03 4.06 1.25 o
5 -14 -3 -2 0.03 -1.25 1.56 <
-4 14 3 0 21.27 3.12 1.25 <
4 -14 -3 0 21.27 2.50 1.56 <
-3 14 3 -2 0.00 -2.50 1.56 <
3 -14 -3 2 0.00 1.25 1.56 <
-4 14 3 1 0.37 1.56 2.18 <
4 -14 -3 -1 0.37 0.94 1.56 <
-3 14 3 -1 0.18 0.94 2.18 <
3 -14 -3 1 0.18 -2.50 5.31 <
-4 14 3 2 0.17 2.18 1.87 <
4 -14 -3 -2 0.17 1.56 2.81 <
-3 14 3 0 3.00 4.99 3.12 <
-4 15 3 -2 0.00 0.62 2.18 <
4 -15 -3 2 0.00 -4.37 2.18 <
-5 15 3 1 0.01 0.62 1.56 <
5 -15 -3 -1 0.01 -2.81 1.56 <
-4 15 3 -1 1.16 2.81 1.56 <
4 -15 -3 1 1.16 2.81 1.56 <
-5 15 3 2 0.01 -0.31 1.56 <
5 -15 -3 -2 0.01 1.25 1.56 <
-4 15 3 0 15.87 4.68 3.12 <
4 -15 -3 0 15.87 -1.25 1.56 <
-3 15 3 -2 0.02 -0.31 2.18 <
3 -15 -3 2 0.02 3.43 2.18 <
-4 15 3 1 0.26 0.00 2.18 <
4 -15 -3 -1 0.26 -3.43 2.18 <
-3 15 3 -1 0.30 -4.37 2.18 <
3 -15 -3 1 0.30 0.00 3.74 <
-4 15 3 2 0.09 -0.94 3.74 <
-3 15 -4 -1 0.44 18.41 10.92 <
-4 14 -4 2 0.02 -28.09 7.80 <
-3 14 -4 -1 0.67 4.37 1.87 <
4 -14 4 -1 0.43 1.87 2.18 <
-4 14 -4 1 0.43 -3.12 1.87 <
3 -14 4 2 0.19 7.18 2.18 o
-3 14 -4 -2 0.19 -1.87 1.87 <
4 -14 4 0 1.61 -3.12 2.18 <
-4 14 -4 0 1.61 -2.81 1.87 <
-3 13 -4 0 17.01 -54.92 6.24 <
4 -13 4 -2 0.04 5.62 3.43 <
-4 13 -4 2 0.04 1.87 1.87 <
3 -13 4 1 0.86 2.81 1.87 <
-3 13 -4 -1 0.86 1.87 1.87 <
4 -13 4 -1 0.95 0.62 1.87 <
-4 13 -4 1 0.95 -1.87 1.87 <
3 -13 4 2 0.18 1.87 1.87 <
-3 13 -4 -2 0.18 0.62 1.87 <
4 -13 4 0 5.01 -0.31 1.87 <
-4 13 -4 0 5.01 1.25 1.87 <
5 -13 4 -2 0.03 -1.25 1.87 <
-5 13 -4 2 0.03 -2.81 1.87 <
4 -13 4 1 0.08 0.31 1.87 <
-4 13 -4 -1 0.08 1.25 1.87 <
-2 12 -4 -2 0.02 0.94 4.99 <
3 -12 4 0 20.85 2.18 2.50 <
-3 12 -4 0 20.85 0.00 1.87 <
4 -12 4 -2 0.06 3.43 1.87 <
-4 12 -4 2 0.06 1.87 1.87 <
3 -12 4 1 0.94 -3.74 1.87 <
-3 12 -4 -1 0.94 -1.87 1.87 <
4 -12 4 -1 1.66 4.37 1.87 <
-4 12 -4 1 1.66 -0.62 1.87 <
3 -12 4 2 0.15 -2.50 1.87 <
-3 12 -4 -2 0.15 4.68 1.87 <
4 -12 4 0 8.83 5.93 1.87 o
-4 12 -4 0 8.83 4.99 1.87 <
5 -12 4 -2 0.02 4.37 1.25 o
-5 12 -4 2 0.02 -0.62 1.87 <
4 -12 4 1 0.06 -1.25 0.94 <
-4 12 -4 -1 0.06 9.99 1.56 o
-3 11 -4 1 3.43 3.12 3.12 <
2 -11 4 2 0.07 -1.87 1.87 <
-2 11 -4 -2 0.07 0.62 1.56 <
3 -11 4 0 23.93 3.12 1.87 <
-3 11 -4 0 23.93 2.18 1.87 <
4 -11 4 -2 0.07 2.50 1.87 <
-4 11 -4 2 0.07 0.94 1.56 <
3 -11 4 1 0.82 -2.50 1.87 <
-3 11 -4 -1 0.82 -4.68 1.56 <
4 -11 4 -1 2.34 0.31 1.87 <
-4 11 -4 1 2.34 0.00 1.56 <
3 -11 4 2 0.10 3.74 2.18 <
-3 11 -4 -2 0.10 1.25 1.56 <
4 -11 4 0 11.70 3.74 0.94 o
-4 11 -4 0 11.70 1.56 2.50 <
5 -11 4 -2 0.01 1.25 0.94 <
-5 11 -4 2 0.01 1.87 0.94 <
4 -11 4 1 0.04 -1.25 0.94 <
-4 11 -4 -1 0.04 0.00 0.94 <
-2 10 -4 -1 1.22 0.00 2.50 <
3 -10 4 -1 3.24 -1.25 1.56 <
-3 10 -4 1 3.24 0.00 1.56 <
2 -10 4 2 0.16 1.87 1.56 <
-2 10 -4 -2 0.16 -1.56 1.56 <
3 -10 4 0 17.46 4.37 1.56 <
-3 10 -4 0 17.46 4.68 1.56 <
4 -10 4 -2 0.08 0.94 1.56 <
-4 10 -4 2 0.08 -0.62 1.56 <
3 -10 4 1 0.52 1.87 1.56 <
-3 10 -4 -1 0.52 3.74 1.56 <
4 -10 4 -1 2.73 0.31 1.25 <
-4 10 -4 1 2.73 1.56 1.56 <
3 -10 4 2 0.07 0.31 0.94 <
-3 10 -4 -2 0.07 2.50 1.25 <
4 -10 4 0 13.51 12.17 0.94 o
-4 10 -4 0 13.51 8.74 0.94 o
5 -10 4 -2 0.01 1.56 0.94 <
-5 10 -4 2 0.01 0.62 0.94 <
4 -10 4 1 0.02 0.62 0.94 <
-4 10 -4 -1 0.02 2.18 0.94 <
3 -9 4 -2 0.29 -4.68 5.93 <
-3 9 -4 2 0.29 -0.31 1.87 <
2 -9 4 1 3.00 0.00 1.56 <
-2 9 -4 -1 3.00 -2.81 1.56 <
3 -9 4 -1 2.54 -2.18 1.56 <
-3 9 -4 1 2.54 4.68 1.56 <
2 -9 4 2 0.26 3.43 1.56 <
-2 9 -4 -2 0.26 1.56 1.56 <
3 -9 4 0 11.52 2.81 1.56 <
-3 9 -4 0 11.52 2.81 1.56 <
4 -9 4 -2 0.08 8.11 2.18 o
-4 9 -4 2 0.08 3.43 1.56 <
3 -9 4 1 0.19 -1.25 0.94 <
-3 9 -4 -1 0.19 4.99 1.56 o
4 -9 4 -1 2.68 1.87 0.94 <
-4 9 -4 1 2.68 4.37 0.94 o
3 -9 4 2 0.07 0.62 0.94 <
-3 9 -4 -2 0.07 0.62 0.94 <
4 -9 4 0 13.47 22.47 0.94 o
-4 9 -4 0 13.47 14.98 0.94 o
5 -9 4 -2 0.02 0.31 0.94 <
-5 9 -4 2 0.02 1.25 0.94 <
4 -9 4 1 0.01 2.81 0.94 <
-4 9 -4 -1 0.01 0.31 0.94 <
2 -8 4 0 1.83 -3.74 3.12 <
-2 8 -4 0 1.83 -2.81 1.56 <
3 -8 4 -2 0.46 0.94 1.25 <
-3 8 -4 2 0.46 -0.31 1.25 <
2 -8 4 1 5.70 15.60 1.56 o
-2 8 -4 -1 5.70 8.11 1.25 o
3 -8 4 -1 1.76 3.12 1.56 <
-3 8 -4 1 1.76 4.99 1.25 o
2 -8 4 2 0.31 3.12 1.56 <
-2 8 -4 -2 0.31 0.00 1.25 <
3 -8 4 0 8.80 -0.62 0.94 <
-3 8 -4 0 8.80 0.00 1.25 <
4 -8 4 -2 0.07 3.43 0.94 o
-4 8 -4 2 0.07 1.87 0.62 o
3 -8 4 1 0.01 0.31 0.94 <
-3 8 -4 -1 0.01 0.94 0.94 <
4 -8 4 -1 2.21 -0.31 0.94 <
-4 8 -4 1 2.21 1.87 0.94 <
3 -8 4 2 0.09 0.94 0.94 <
-3 8 -4 -2 0.09 3.43 0.94 o
4 -8 4 0 10.23 14.98 1.25 o
-4 8 -4 0 10.23 11.86 0.94 o
5 -8 4 -2 0.03 3.12 2.18 <
-5 8 -4 2 0.03 -2.50 0.94 <
4 -8 4 1 0.01 0.62 1.87 <
-4 8 -4 -1 0.01 0.00 1.25 <
1 -7 4 2 0.01 -1.25 1.87 <
-1 7 -4 -2 0.01 -1.87 1.25 <
2 -7 4 0 0.90 -1.25 1.25 <
-2 7 -4 0 0.90 1.87 1.25 <
3 -7 4 -2 0.58 2.50 1.25 <
-3 7 -4 2 0.58 0.94 1.25 <
2 -7 4 1 8.46 20.28 1.25 o
-2 7 -4 -1 8.46 15.60 1.25 o
3 -7 4 -1 1.44 21.53 4.37 o
-3 7 -4 1 1.44 0.31 1.25 <
2 -7 4 2 0.30 3.43 0.62 o
-2 7 -4 -2 0.30 4.99 0.94 o
3 -7 4 0 4.20 1.87 0.94 <
-3 7 -4 0 4.20 0.00 0.62 <
4 -7 4 -2 0.06 1.87 0.94 <
-4 7 -4 2 0.06 3.74 0.94 o
3 -7 4 1 0.10 4.68 1.25 o
-3 7 -4 -1 0.10 2.18 0.94 <
4 -7 4 -1 1.55 3.12 1.56 <
-4 7 -4 1 1.55 -0.94 0.94 <
3 -7 4 2 0.12 4.68 1.56 <
-3 7 -4 -2 0.12 -2.18 1.25 <
4 -7 4 0 6.36 2.50 1.87 <
-4 7 -4 0 6.36 -2.50 2.50 <
5 -7 4 -2 0.03 4.99 1.87 <
-5 7 -4 2 0.03 1.87 1.87 <
2 -6 4 -1 2.35 0.62 1.25 <
-2 6 -4 1 2.35 0.94 1.25 <
1 -6 4 2 0.07 -0.62 1.25 <
-1 6 -4 -2 0.07 -0.31 1.25 <
2 -6 4 0 0.09 2.50 1.25 <
-2 6 -4 0 0.09 6.87 1.25 o
3 -6 4 -2 0.58 -0.31 1.25 <
-3 6 -4 2 0.58 2.18 1.25 <
2 -6 4 1 9.78 57.73 0.62 o
-2 6 -4 -1 9.78 33.70 1.25 o
3 -6 4 -1 1.88 2.50 0.62 o
-3 6 -4 1 1.88 3.12 0.62 o
2 -6 4 2 0.22 19.66 4.37 o
-2 6 -4 -2 0.22 1.56 0.62 <
3 -6 4 0 6.55 7.80 1.25 o
-3 6 -4 0 6.55 1.25 1.25 <
4 -6 4 -2 0.06 0.00 1.56 <
-4 6 -4 2 0.06 3.12 1.25 <
3 -6 4 1 0.39 0.62 1.56 <
-3 6 -4 -1 0.39 3.74 1.56 <
4 -6 4 -1 0.97 -0.94 1.56 <
-4 6 -4 1 0.97 -0.62 1.56 <
3 -6 4 2 0.15 -3.74 1.56 <
-3 6 -4 -2 0.15 1.87 1.56 <
4 -6 4 0 3.35 1.87 1.87 <
-4 6 -4 0 3.35 0.62 1.56 <
5 -6 4 -2 0.03 -6.87 1.87 <
-5 6 -4 2 0.03 -1.87 1.87 <
1 -5 4 1 4.44 1.87 3.43 <
-1 5 -4 -1 4.44 4.99 0.94 o
2 -5 4 -1 3.49 0.62 0.62 <
-2 5 -4 1 3.49 3.74 1.25 o
1 -5 4 2 0.24 1.25 0.62 <
-1 5 -4 -2 0.24 1.87 0.62 o
2 -5 4 0 1.54 8.74 0.62 o
-2 5 -4 0 1.54 9.99 0.62 o
3 -5 4 -2 0.48 1.87 0.62 o
-3 5 -4 2 0.48 0.94 0.62 <
2 -5 4 1 8.71 35.89 1.25 o
-2 5 -4 -1 8.71 16.85 1.56 o
3 -5 4 -1 2.82 12.48 1.25 o
-3 5 -4 1 2.82 9.05 1.25 o
2 -5 4 2 0.13 1.25 1.25 <
-2 5 -4 -2 0.13 0.00 1.25 <
3 -5 4 0 13.06 20.60 1.56 o
-3 5 -4 0 13.06 14.35 1.56 o
4 -5 4 -2 0.07 -1.56 1.56 <
-4 5 -4 2 0.07 4.37 1.56 <
3 -5 4 1 0.70 -4.68 1.56 <
-3 5 -4 -1 0.70 -2.18 1.56 <
4 -5 4 -1 0.64 -0.31 1.56 <
-4 5 -4 1 0.64 0.31 1.56 <
3 -5 4 2 0.15 5.31 1.87 <
-3 5 -4 -2 0.15 0.00 1.56 <
4 -5 4 0 1.54 -0.94 1.87 <
-4 5 -4 0 1.54 4.37 1.87 <
3 4 -4 -1 0.50 -0.94 7.18 <
0 -4 4 2 3.27 4.68 2.18 <
0 4 -4 -2 3.27 -8.74 3.43 <
1 -4 4 0 9.58 29.65 1.25 o
-1 4 -4 0 9.58 7.49 2.81 <
2 -4 4 -2 1.46 6.55 0.62 o
-2 4 -4 2 1.46 4.68 0.62 o
1 -4 4 1 3.25 4.68 0.62 o
-1 4 -4 -1 3.25 3.74 0.62 o
2 -4 4 -1 3.49 9.36 0.62 o
-2 4 -4 1 3.49 10.61 0.62 o
1 -4 4 2 0.46 2.81 0.62 o
-1 4 -4 -2 0.46 0.31 0.62 <
2 -4 4 0 2.57 8.11 1.87 o
-2 4 -4 0 2.57 6.24 0.62 o
3 -4 4 -2 0.33 2.81 1.25 <
-3 4 -4 2 0.33 0.94 1.25 <
2 -4 4 1 5.90 40.57 1.25 o
-2 4 -4 -1 5.90 36.51 1.25 o
3 -4 4 -1 3.65 10.61 1.25 o
-3 4 -4 1 3.65 15.29 1.25 o
2 -4 4 2 0.05 -4.06 1.25 <
-2 4 -4 -2 0.05 0.31 1.25 <
3 -4 4 0 18.78 5.93 1.56 o
-3 4 -4 0 18.78 0.62 1.56 <
4 -4 4 -2 0.08 -0.94 1.56 <
-4 4 -4 2 0.08 -2.18 1.56 <
3 -4 4 1 0.88 9.05 1.56 o
-3 4 -4 -1 0.88 -4.37 1.56 <
4 -4 4 -1 0.56 10.92 1.87 o
-4 4 -4 1 0.56 2.81 1.56 <
3 -4 4 2 0.12 0.31 1.87 <
-3 4 -4 -2 0.12 6.24 1.87 o
-3 -3 4 0 4.92 0.94 3.12 <
3 3 -4 0 4.92 0.31 2.18 <
-2 -3 4 -2 0.04 3.12 3.43 <
2 3 -4 2 0.04 1.56 2.18 <
-3 -3 4 1 0.37 0.62 4.68 <
3 3 -4 -1 0.37 -1.56 2.18 <
-2 -3 4 -1 0.68 -6.87 5.93 <
2 3 -4 1 0.68 3.12 2.18 <
-3 -3 4 2 0.13 4.99 8.43 <
3 3 -4 -2 0.13 -0.62 2.18 <
2 3 -4 0 6.68 1.87 2.81 <
1 3 -4 2 0.57 -6.24 4.68 <
2 3 -4 -1 3.58 19.04 8.11 <
0 -3 4 0 136.20 16.23 2.81 o
0 3 -4 0 136.20 14.67 3.43 o
1 -3 4 -2 0.28 1.25 1.25 <
-1 3 -4 2 0.28 0.31 1.25 <
0 -3 4 1 7.99 4.99 1.25 o
0 3 -4 -1 7.99 5.62 1.25 o
1 -3 4 -1 4.12 14.98 0.94 o
-1 3 -4 1 4.12 13.42 0.94 o
0 -3 4 2 4.27 12.79 1.87 o
0 3 -4 -2 4.27 7.18 1.25 o
1 -3 4 0 9.96 56.48 0.62 o
-1 3 -4 0 9.96 43.69 0.62 o
2 -3 4 -2 1.40 14.67 0.62 o
-2 3 -4 2 1.40 16.85 0.62 o
1 -3 4 1 3.34 2.81 0.62 o
-1 3 -4 -1 3.34 1.25 0.62 <
2 -3 4 -1 2.34 11.23 0.62 o
-2 3 -4 1 2.34 8.43 0.62 o
1 -3 4 2 0.57 2.18 0.94 <
-1 3 -4 -2 0.57 -7.49 3.74 <
2 -3 4 0 5.79 4.37 0.94 o
-2 3 -4 0 5.79 5.62 0.94 o
3 -3 4 -2 0.19 0.94 1.25 <
-3 3 -4 2 0.19 0.00 1.25 <
2 -3 4 1 2.94 1.25 1.25 <
-2 3 -4 -1 2.94 4.37 1.25 o
3 -3 4 -1 3.83 0.94 1.25 <
-3 3 -4 1 3.83 -1.87 1.25 <
2 -3 4 2 0.01 -5.93 1.56 <
-2 3 -4 -2 0.01 1.56 1.25 <
3 -3 4 0 21.03 0.62 1.56 <
-3 3 -4 0 21.03 -1.56 1.56 <
4 -3 4 -2 0.09 4.37 1.56 <
-4 3 -4 2 0.09 -0.62 1.56 <
3 -3 4 1 0.88 -6.24 1.87 <
-3 3 -4 -1 0.88 1.87 1.56 <
4 -3 4 -1 0.61 9.67 1.87 o
-4 3 -4 1 0.61 -0.62 1.87 <
-4 -2 4 2 0.13 1.87 2.18 <
4 2 -4 -2 0.13 -2.18 2.18 <
-3 -2 4 0 11.55 0.94 2.18 <
3 2 -4 0 11.55 -1.56 2.18 <
-2 -2 4 -2 0.02 0.62 1.87 <
2 2 -4 2 0.02 0.94 1.87 <
-3 -2 4 1 0.17 0.94 1.87 <
3 2 -4 -1 0.17 0.31 1.87 <
-2 -2 4 -1 0.66 1.25 1.87 <
2 2 -4 1 0.66 -2.18 1.87 <
-3 -2 4 2 0.28 -1.87 1.87 <
3 2 -4 -2 0.28 1.25 1.87 <
-2 -2 4 0 11.87 0.62 1.56 <
2 2 -4 0 11.87 2.18 1.87 <
-1 -2 4 -2 0.83 1.87 1.56 <
1 2 -4 2 0.83 2.81 1.56 <
-2 -2 4 1 6.34 1.25 1.56 <
2 2 -4 -1 6.34 0.94 1.56 <
-1 -2 4 -1 6.10 0.62 1.87 <
1 2 -4 1 6.10 3.74 1.56 <
-2 -2 4 2 0.06 -0.94 1.87 <
2 2 -4 -2 0.06 0.94 1.56 <
-1 -2 4 0 48.73 3.12 3.74 <
1 2 -4 0 48.73 26.84 2.50 o
0 -2 4 -2 0.19 -2.50 2.50 <
0 2 -4 2 0.19 4.68 2.18 <
-1 -2 4 1 8.68 4.06 1.56 <
1 2 -4 -1 8.68 6.24 2.50 <
0 -2 4 -1 48.69 8.43 1.25 o
0 2 -4 1 48.69 10.61 1.25 o
-1 -2 4 2 3.17 0.31 1.25 <
1 2 -4 -2 3.17 0.31 1.25 <
0 -2 4 0 648.03 453.74 2.50 o
0 2 -4 0 648.03 437.20 2.50 o
1 -2 4 -2 0.20 6.55 1.25 o
-1 2 -4 2 0.20 6.55 1.25 o
0 -2 4 1 11.38 41.82 1.25 o
0 2 -4 -1 11.38 29.96 1.25 o
1 -2 4 -1 7.48 1.56 0.62 <
-1 2 -4 1 7.48 3.43 0.62 o
0 -2 4 2 4.25 53.05 0.62 o
0 2 -4 -2 4.25 50.24 0.62 o
1 -2 4 0 88.76 80.51 0.62 o
-1 2 -4 0 88.76 74.90 0.62 o
2 -2 4 -2 1.18 10.92 0.62 o
-2 2 -4 2 1.18 9.67 0.62 o
1 -2 4 1 4.78 1.25 2.18 <
-1 2 -4 -1 4.78 3.12 0.94 o
2 -2 4 -1 0.92 4.68 0.94 o
-2 2 -4 1 0.92 3.43 0.94 o
1 -2 4 2 0.53 0.62 0.94 <
-1 2 -4 -2 0.53 0.94 0.94 <
2 -2 4 0 17.06 2.18 1.25 <
-2 2 -4 0 17.06 1.87 1.25 <
3 -2 4 -2 0.10 -0.94 1.25 <
-3 2 -4 2 0.10 -1.87 1.25 <
2 -2 4 1 0.99 3.12 1.25 <
-2 2 -4 -1 0.99 2.18 1.25 <
3 -2 4 -1 3.28 -5.93 1.56 <
-3 2 -4 1 3.28 0.00 1.56 <
2 -2 4 2 0.01 -1.25 1.56 <
-2 2 -4 -2 0.01 -1.87 1.56 <
3 -2 4 0 15.68 -4.06 1.56 <
-3 2 -4 0 15.68 3.43 1.56 <
4 -2 4 -2 0.09 3.43 1.87 <
-4 2 -4 2 0.09 -1.87 1.56 <
3 -2 4 1 0.76 2.50 1.87 <
-3 2 -4 -1 0.76 -0.62 1.87 <
-3 -1 4 -1 0.57 1.56 2.18 <
3 1 -4 1 0.57 -2.18 2.18 <
-4 -1 4 2 0.14 2.50 1.87 <
4 1 -4 -2 0.14 -2.81 2.18 <
-3 -1 4 0 19.74 0.62 1.87 <
3 1 -4 0 19.74 2.18 1.87 <
-2 -1 4 -2 0.02 0.62 1.87 <
2 1 -4 2 0.02 5.62 1.87 <
-3 -1 4 1 0.05 -1.87 1.87 <
3 1 -4 -1 0.05 -0.62 1.87 <
-2 -1 4 -1 0.41 -1.56 1.56 <
2 1 -4 1 0.41 -3.43 1.87 <
-3 -1 4 2 0.52 1.25 1.56 <
3 1 -4 -2 0.52 1.56 1.56 <
-2 -1 4 0 15.73 -0.62 1.56 <
2 1 -4 0 15.73 3.74 1.56 <
-1 -1 4 -2 1.03 6.87 1.87 o
1 1 -4 2 1.03 0.31 1.56 <
-2 -1 4 1 10.20 0.62 1.25 <
2 1 -4 -1 10.20 8.43 1.87 o
-1 -1 4 -1 8.25 1.25 0.94 <
1 1 -4 1 8.25 4.37 0.94 o
-2 -1 4 2 0.01 24.03 0.94 o
2 1 -4 -2 0.01 26.21 1.25 o
-1 -1 4 0 27.32 8.74 0.94 o
1 1 -4 0 27.32 13.73 0.94 o
0 -1 4 -2 0.21 1.87 0.94 <
0 1 -4 2 0.21 -1.25 0.94 <
-1 -1 4 1 5.90 3.43 0.94 o
1 1 -4 -1 5.90 8.43 0.94 o
0 -1 4 -1 82.53 71.46 1.25 o
0 1 -4 1 82.53 72.40 0.94 o
-1 -1 4 2 2.13 0.00 0.62 <
1 1 -4 -2 2.13 0.94 0.62 <
0 -1 4 0 872.28 774.54 1.56 o
0 1 -4 0 872.28 604.15 1.56 o
1 -1 4 -2 0.61 4.68 0.62 o
-1 1 -4 2 0.61 7.80 0.62 o
0 -1 4 1 13.81 13.42 0.62 o
0 1 -4 -1 13.81 10.30 0.62 o
1 -1 4 -1 12.18 27.77 0.62 o
-1 1 -4 1 12.18 28.71 0.62 o
0 -1 4 2 3.30 8.43 0.62 o
0 1 -4 -2 3.30 6.24 0.62 o
1 -1 4 0 36.42 35.58 0.94 o
-1 1 -4 0 36.42 46.50 0.62 o
2 -1 4 -2 0.83 2.18 0.94 <
-2 1 -4 2 0.83 4.37 0.94 o
1 -1 4 1 5.46 -1.56 0.94 <
-1 1 -4 -1 5.46 4.37 0.94 o
2 -1 4 -1 0.15 1.87 1.25 <
-2 1 -4 1 0.15 0.94 1.25 <
1 -1 4 2 0.39 -0.94 1.25 <
-1 1 -4 -2 0.39 1.25 1.25 <
2 -1 4 0 11.96 0.62 1.25 <
-2 1 -4 0 11.96 -2.50 1.25 <
3 -1 4 -2 0.05 -2.50 1.25 <
-3 1 -4 2 0.05 0.94 1.25 <
2 -1 4 1 0.16 1.56 1.56 <
-2 1 -4 -1 0.16 1.25 1.56 <
3 -1 4 -1 2.33 -0.62 1.56 <
-3 1 -4 1 2.33 -1.25 1.56 <
2 -1 4 2 0.02 0.62 1.87 <
-2 1 -4 -2 0.02 -2.81 1.56 <
3 -1 4 0 9.86 1.87 1.87 <
-3 1 -4 0 9.86 1.25 1.87 <
4 -1 4 -2 0.07 -0.94 1.87 <
-4 1 -4 2 0.07 -0.62 1.87 <
-3 0 4 -2 0.01 1.25 2.18 <
3 0 -4 2 0.01 4.68 2.18 <
-4 0 4 1 0.06 2.50 1.87 <
4 0 -4 -1 0.06 4.06 2.18 <
-3 0 4 -1 1.16 2.50 1.87 <
3 0 -4 1 1.16 -0.31 2.18 <
-4 0 4 2 0.16 0.94 1.87 <
4 0 -4 -2 0.16 -2.81 1.87 <
-3 0 4 0 29.91 3.12 1.87 <
3 0 -4 0 29.91 2.18 1.87 <
-2 0 4 -2 0.07 2.50 3.12 <
2 0 -4 2 0.07 2.18 1.87 <
-3 0 4 1 0.30 0.62 1.87 <
3 0 -4 -1 0.30 -0.94 1.87 <
-2 0 4 -1 0.07 1.87 1.25 <
2 0 -4 1 0.07 1.25 2.18 <
-3 0 4 2 0.86 -0.94 1.25 <
3 0 -4 -2 0.86 0.62 1.25 <
-2 0 4 0 68.19 18.10 1.25 o
2 0 -4 0 68.19 24.97 1.25 o
-1 0 4 -2 1.03 -0.62 0.94 <
1 0 -4 2 1.03 1.25 0.94 <
-2 0 4 1 14.17 0.62 0.94 <
2 0 -4 -1 14.17 1.56 0.94 <
-1 0 4 -1 11.20 7.80 0.94 o
1 0 -4 1 11.20 4.99 0.94 o
-2 0 4 2 0.03 -1.56 0.94 <
2 0 -4 -2 0.03 -1.56 0.94 <
-1 0 4 0 0.31 1.87 0.94 <
1 0 -4 0 0.31 2.50 0.94 <
0 0 4 -2 0.27 4.06 0.94 o
0 0 -4 2 0.27 -3.74 0.94 <
-1 0 4 1 1.90 9.99 0.94 o
1 0 -4 -1 1.90 5.62 0.94 o
0 0 4 -1 105.78 105.79 0.94 o
0 0 -4 1 105.78 96.12 0.94 o
-1 0 4 2 1.30 4.37 0.62 o
1 0 -4 -2 1.30 2.50 0.62 o
0 0 4 0 1085.57 1113.13 1.56 o
0 0 -4 0 1085.57 1134.04 1.87 o
1 0 4 -2 1.22 -0.31 0.94 <
-1 0 -4 2 1.22 1.87 0.94 <
0 0 4 1 13.11 4.06 1.25 o
0 0 -4 -1 13.11 4.68 0.94 o
1 0 4 -1 14.84 3.12 1.25 <
-1 0 -4 1 14.84 8.11 1.25 o
0 0 4 2 2.11 12.17 5.31 <
0 0 -4 -2 2.11 9.99 2.50 o
1 0 4 0 41.04 0.62 4.06 <
2 0 4 -2 0.48 0.00 2.18 <
-2 0 -4 2 0.48 19.35 6.24 o
1 0 4 1 4.45 0.31 1.56 <
-1 0 -4 -1 4.45 -1.56 3.43 <
2 0 4 -1 0.11 -3.43 1.25 <
-2 0 -4 1 0.11 3.12 2.50 <
1 0 4 2 0.25 -0.31 1.56 <
-1 0 -4 -2 0.25 -0.94 1.87 <
2 0 4 0 14.43 4.68 1.56 <
-2 0 -4 0 14.43 2.81 1.87 <
3 0 4 -2 0.05 -0.62 1.56 <
-3 0 -4 2 0.05 -2.50 1.56 <
2 0 4 1 0.05 -1.56 1.56 <
-2 0 -4 -1 0.05 -0.94 1.87 <
3 0 4 -1 1.36 -0.31 1.87 <
-3 0 -4 1 1.36 -3.43 1.87 <
2 0 4 2 0.03 0.00 1.87 <
-2 0 -4 -2 0.03 -4.06 1.87 <
3 0 4 0 6.70 -3.74 1.87 <
-3 0 -4 0 6.70 2.81 1.87 <
-4 1 4 0 3.05 1.87 2.18 <
4 -1 -4 0 3.05 2.81 2.18 <
-3 1 4 -2 0.01 6.24 4.06 <
3 -1 -4 2 0.01 -3.12 2.18 <
-4 1 4 1 0.06 1.87 2.18 <
4 -1 -4 -1 0.06 5.31 1.87 <
-3 1 4 -1 1.97 2.81 1.56 <
3 -1 -4 1 1.97 4.06 1.87 <
-4 1 4 2 0.18 -0.62 1.25 <
4 -1 -4 -2 0.18 3.43 2.81 <
-3 1 4 0 50.02 12.48 1.25 o
3 -1 -4 0 50.02 4.68 1.56 <
-2 1 4 -2 0.20 -1.56 1.25 <
2 -1 -4 2 0.20 -1.56 1.25 <
-3 1 4 1 1.20 0.94 1.25 <
3 -1 -4 -1 1.20 -4.68 1.25 <
-2 1 4 -1 0.11 -1.25 1.25 <
2 -1 -4 1 0.11 1.25 1.25 <
-3 1 4 2 1.23 2.18 0.94 <
3 -1 -4 -2 1.23 3.74 0.94 o
-2 1 4 0 57.46 15.29 1.25 o
2 -1 -4 0 57.46 20.60 1.25 o
-1 1 4 -2 0.80 1.87 0.94 <
1 -1 -4 2 0.80 1.87 0.94 <
-2 1 4 1 16.22 1.25 0.94 <
2 -1 -4 -1 16.22 -0.94 0.94 <
-1 1 4 -1 13.81 1.25 0.94 <
1 -1 -4 1 13.81 4.99 0.94 o
-2 1 4 2 0.31 -0.94 0.94 <
2 -1 -4 -2 0.31 0.00 0.94 <
-1 1 4 0 1.17 12.17 0.94 o
1 -1 -4 0 1.17 10.30 0.94 o
0 1 4 -2 0.47 2.50 0.62 o
0 -1 -4 2 0.47 1.25 0.62 <
-1 1 4 1 2.32 8.74 0.62 o
1 -1 -4 -1 2.32 9.36 0.62 o
0 1 4 -1 93.79 64.91 0.94 o
0 -1 -4 1 93.79 67.09 0.94 o
-1 1 4 2 1.31 3.12 0.62 o
1 -1 -4 -2 1.31 6.87 0.62 o
0 1 4 0 203.14 112.34 1.87 o
0 -1 -4 0 203.14 148.23 3.43 o
1 1 4 -2 1.44 0.62 1.25 <
-1 -1 -4 2 1.44 0.62 1.25 <
0 1 4 1 9.53 -1.56 1.87 <
0 -1 -4 -1 9.53 -4.06 1.56 <
2 1 4 0 9.99 3.74 6.55 <
3 1 4 -2 0.07 0.94 3.43 <
2 1 4 1 0.22 0.31 2.50 <
3 1 4 -1 0.63 -0.31 2.18 <
2 1 4 2 0.03 -1.25 2.18 <
-2 -1 -4 -2 0.03 23.40 10.30 <
-5 2 4 2 0.03 -3.74 1.56 <
5 -2 -4 -2 0.03 0.31 2.18 <
-4 2 4 0 3.48 0.94 1.25 <
4 -2 -4 0 3.48 -6.87 3.74 <
-3 2 4 -2 0.00 -0.94 1.25 <
3 -2 -4 2 0.00 -2.50 1.56 <
-4 2 4 1 0.11 0.62 1.25 <
4 -2 -4 -1 0.11 0.62 1.25 <
-3 2 4 -1 2.88 3.12 1.25 <
3 -2 -4 1 2.88 3.12 1.25 <
-4 2 4 2 0.22 0.62 1.25 <
4 -2 -4 -2 0.22 -1.87 1.25 <
-3 2 4 0 69.23 11.23 1.25 o
3 -2 -4 0 69.23 21.84 1.25 o
-2 2 4 -2 0.37 -0.31 1.25 <
2 -2 -4 2 0.37 0.94 1.25 <
-3 2 4 1 2.75 -0.31 0.94 <
3 -2 -4 -1 2.75 -1.56 1.25 <
-2 2 4 -1 1.17 -2.18 0.94 <
2 -2 -4 1 1.17 3.43 1.25 <
-3 2 4 2 1.41 0.94 0.94 <
3 -2 -4 -2 1.41 2.18 0.94 <
-2 2 4 0 108.50 130.44 1.25 o
2 -2 -4 0 108.50 123.89 1.25 o
-1 2 4 -2 0.47 -2.81 0.94 <
1 -2 -4 2 0.47 1.87 0.94 <
-2 2 4 1 14.96 6.24 0.94 o
2 -2 -4 -1 14.96 9.36 0.94 o
-1 2 4 -1 13.25 19.35 0.94 o
1 -2 -4 1 13.25 19.04 0.94 o
-2 2 4 2 0.73 3.43 0.94 o
2 -2 -4 -2 0.73 3.12 0.94 o
-1 2 4 0 2.35 295.21 1.56 o
1 -2 -4 0 2.35 276.49 1.56 o
0 2 4 -2 0.78 9.99 0.62 o
0 -2 -4 2 0.78 9.36 0.62 o
-1 2 4 1 9.89 4.37 0.62 o
1 -2 -4 -1 9.89 6.55 0.62 o
0 2 4 -1 60.42 22.16 0.94 o
0 -2 -4 1 60.42 18.72 0.94 o
-1 2 4 2 1.55 3.43 1.25 <
1 -2 -4 -2 1.55 0.94 1.25 <
0 2 4 0 175.65 17.16 1.56 o
0 -2 -4 0 175.65 41.19 1.56 o
-1 -2 -4 2 1.21 -9.36 3.74 <
-4 3 4 -1 0.89 1.25 1.25 <
4 -3 -4 1 0.89 -0.62 1.56 <
-5 3 4 2 0.05 3.43 1.25 <
5 -3 -4 -2 0.05 5.93 1.56 o
-4 3 4 0 4.68 0.31 1.25 <
4 -3 -4 0 4.68 2.50 1.56 <
-3 3 4 -2 0.00 -2.81 1.25 <
3 -3 -4 2 0.00 4.68 1.56 <
-4 3 4 1 0.29 0.62 1.25 <
4 -3 -4 -1 0.29 0.62 1.25 <
-3 3 4 -1 3.60 5.93 1.25 o
3 -3 -4 1 3.60 4.68 1.25 o
-4 3 4 2 0.31 -2.50 1.25 <
4 -3 -4 -2 0.31 3.74 1.25 o
-3 3 4 0 37.72 34.64 1.25 o
3 -3 -4 0 37.72 31.21 1.25 o
-2 3 4 -2 0.54 1.87 0.94 <
2 -3 -4 2 0.54 1.25 0.94 <
-3 3 4 1 4.49 3.43 0.94 o
3 -3 -4 -1 4.49 2.81 0.94 <
-2 3 4 -1 3.49 8.43 0.94 o
2 -3 -4 1 3.49 7.49 0.94 o
-3 3 4 2 1.15 1.25 0.94 <
3 -3 -4 -2 1.15 0.94 0.94 <
-2 3 4 0 275.39 296.15 1.87 o
2 -3 -4 0 275.39 313.93 1.87 o
-1 3 4 -2 0.37 0.31 0.94 <
1 -3 -4 2 0.37 3.12 0.94 o
-2 3 4 1 11.95 13.11 0.94 o
2 -3 -4 -1 11.95 13.73 0.94 o
-1 3 4 -1 8.51 12.79 0.94 o
1 -3 -4 1 8.51 10.61 0.94 o
-2 3 4 2 0.77 1.25 0.94 <
2 -3 -4 -2 0.77 3.12 0.94 o
-1 3 4 0 11.35 23.72 0.94 o
1 -3 -4 0 11.35 28.40 0.94 o
0 3 4 -2 0.96 3.74 0.62 o
0 -3 -4 2 0.96 2.50 0.62 o
-1 3 4 1 18.05 7.49 0.62 o
1 -3 -4 -1 18.05 7.18 0.94 o
0 3 4 -1 31.69 5.93 1.56 o
0 -3 -4 1 31.69 8.11 1.56 o
-1 3 4 2 1.56 -14.35 1.87 <
1 -3 -4 -2 1.56 8.74 1.56 o
-5 4 4 1 0.17 0.31 1.25 <
5 -4 -4 -1 0.17 0.31 1.56 <
-4 4 4 -1 0.82 1.25 1.25 <
4 -4 -4 1 0.82 -2.50 1.56 <
-5 4 4 2 0.08 1.25 1.25 <
5 -4 -4 -2 0.08 -3.12 1.25 <
-4 4 4 0 5.42 2.81 1.25 <
4 -4 -4 0 5.42 0.31 1.25 <
-3 4 4 -2 0.00 1.87 1.25 <
3 -4 -4 2 0.00 -3.12 1.25 <
-4 4 4 1 0.65 -2.50 1.25 <
4 -4 -4 -1 0.65 -0.31 1.25 <
-3 4 4 -1 3.76 6.24 1.25 o
3 -4 -4 1 3.76 6.55 1.25 o
-4 4 4 2 0.50 3.12 0.94 o
4 -4 -4 -2 0.50 -1.25 0.94 <
-3 4 4 0 18.84 35.26 1.25 o
3 -4 -4 0 18.84 31.83 1.25 o
-2 4 4 -2 0.68 14.35 0.94 o
2 -4 -4 2 0.68 12.79 0.94 o
-3 4 4 1 5.51 0.00 0.94 <
3 -4 -4 -1 5.51 3.12 0.94 o
-2 4 4 -1 5.94 19.97 0.94 o
2 -4 -4 1 5.94 21.22 0.94 o
-3 4 4 2 0.59 0.31 0.94 <
3 -4 -4 -2 0.59 0.94 0.94 <
-2 4 4 0 340.62 470.59 1.87 o
2 -4 -4 0 340.62 435.64 1.87 o
-1 4 4 -2 0.65 2.18 0.94 <
1 -4 -4 2 0.65 2.50 0.94 <
-2 4 4 1 9.77 8.74 0.94 o
2 -4 -4 -1 9.77 8.74 0.94 o
-1 4 4 -1 2.97 34.64 0.94 o
1 -4 -4 1 2.97 36.20 0.94 o
-2 4 4 2 0.39 4.37 0.94 o
2 -4 -4 -2 0.39 5.31 0.94 o
-1 4 4 0 51.66 61.79 1.25 o
1 -4 -4 0 51.66 77.70 1.25 o
0 4 4 -2 0.95 1.87 0.94 <
0 -4 -4 2 0.95 3.43 0.94 o
-1 4 4 1 21.22 5.93 1.56 o
1 -4 -4 -1 21.22 8.43 1.56 o
0 -4 -4 1 14.11 -5.93 3.74 <
-4 5 4 -2 0.01 0.94 1.56 <
4 -5 -4 2 0.01 -2.18 1.56 <
-5 5 4 1 0.21 3.43 1.25 <
5 -5 -4 -1 0.21 0.31 1.56 <
-4 5 4 -1 0.73 1.87 1.25 <
4 -5 -4 1 0.73 0.94 1.25 <
-5 5 4 2 0.13 -0.94 1.25 <
5 -5 -4 -2 0.13 -2.50 1.25 <
-4 5 4 0 5.59 2.81 1.25 <
4 -5 -4 0 5.59 1.87 1.25 <
-3 5 4 -2 0.00 -0.62 1.25 <
3 -5 -4 2 0.00 0.31 1.25 <
-4 5 4 1 1.20 -0.62 0.94 <
4 -5 -4 -1 1.20 -1.25 1.25 <
-3 5 4 -1 3.19 11.23 1.25 o
3 -5 -4 1 3.19 4.68 1.25 o
-4 5 4 2 0.84 0.31 0.94 <
4 -5 -4 -2 0.84 -1.56 0.94 <
-3 5 4 0 6.94 55.55 1.25 o
3 -5 -4 0 6.94 61.79 1.25 o
-2 5 4 -2 0.80 14.98 0.94 o
2 -5 -4 2 0.80 11.86 0.94 o
-3 5 4 1 5.13 0.62 0.94 <
3 -5 -4 -1 5.13 1.87 0.94 <
-2 5 4 -1 6.62 15.92 0.94 o
2 -5 -4 1 6.62 13.73 0.94 o
-3 5 4 2 0.33 1.56 0.94 <
3 -5 -4 -2 0.33 0.94 0.94 <
-2 5 4 0 149.44 171.32 1.25 o
2 -5 -4 0 149.44 173.20 1.25 o
-1 5 4 -2 1.10 1.56 0.94 <
1 -5 -4 2 1.10 2.50 0.94 <
-2 5 4 1 8.22 3.12 0.94 o
2 -5 -4 -1 8.22 3.12 0.94 o
-1 5 4 -1 0.34 5.93 0.94 o
1 -5 -4 1 0.34 7.49 0.94 o
-2 5 4 2 0.08 2.18 0.94 <
2 -5 -4 -2 0.08 3.12 0.94 o
-1 5 4 0 60.15 19.97 1.25 o
1 -5 -4 0 60.15 12.79 1.25 o
0 5 4 -2 0.82 0.31 2.50 <
0 -5 -4 2 0.82 -0.31 1.87 <
-4 6 4 -2 0.03 -2.50 1.25 <
4 -6 -4 2 0.03 0.94 1.25 <
-5 6 4 1 0.28 1.56 1.25 <
5 -6 -4 -1 0.28 0.31 1.25 <
-4 6 4 -1 0.81 0.31 1.25 <
4 -6 -4 1 0.81 2.81 1.25 <
-5 6 4 2 0.17 0.62 1.25 <
5 -6 -4 -2 0.17 1.87 1.25 <
-4 6 4 0 9.72 8.11 1.25 o
4 -6 -4 0 9.72 8.43 1.25 o
-3 6 4 -2 0.01 -0.62 0.94 <
3 -6 -4 2 0.01 1.87 1.25 <
-4 6 4 1 1.86 1.25 0.94 <
4 -6 -4 -1 1.86 1.25 1.25 <
-3 6 4 -1 2.24 1.87 0.94 <
3 -6 -4 1 2.24 2.81 0.94 <
-4 6 4 2 1.28 3.74 0.94 o
4 -6 -4 -2 1.28 6.24 0.94 o
-3 6 4 0 1.90 4.68 0.94 o
3 -6 -4 0 1.90 3.74 0.94 o
-2 6 4 -2 0.86 12.79 0.94 o
2 -6 -4 2 0.86 18.41 0.94 o
-3 6 4 1 3.62 1.56 0.94 <
3 -6 -4 -1 3.62 0.62 0.94 <
-2 6 4 -1 5.02 8.43 0.94 o
2 -6 -4 1 5.02 7.80 0.94 o
-3 6 4 2 0.66 1.87 0.94 <
3 -6 -4 -2 0.66 0.62 0.94 <
-2 6 4 0 55.31 31.83 1.25 o
2 -6 -4 0 55.31 36.51 1.25 o
-1 6 4 -2 1.40 0.00 0.94 <
1 -6 -4 2 1.40 -1.87 0.94 <
-2 6 4 1 5.93 -0.94 0.94 <
2 -6 -4 -1 5.93 1.87 0.94 <
-1 6 4 -1 0.99 -0.31 0.94 <
1 -6 -4 1 0.99 0.94 0.94 <
-2 6 4 2 0.02 2.81 1.25 <
2 -6 -4 -2 0.02 4.68 1.56 <
1 -6 -4 0 20.16 11.55 3.43 o
-5 7 4 0 2.32 -0.62 1.56 <
5 -7 -4 0 2.32 -0.62 1.25 <
-4 7 4 -2 0.06 -0.62 1.25 <
4 -7 -4 2 0.06 -0.62 1.25 <
-5 7 4 1 0.37 0.94 1.25 <
5 -7 -4 -1 0.37 -2.81 1.25 <
-4 7 4 -1 1.16 0.31 1.25 <
4 -7 -4 1 1.16 2.18 1.25 <
-5 7 4 2 0.16 1.25 1.25 <
5 -7 -4 -2 0.16 -2.50 1.25 <
-4 7 4 0 13.62 25.28 1.25 o
4 -7 -4 0 13.62 21.53 1.25 o
-3 7 4 -2 0.01 0.62 0.94 <
3 -7 -4 2 0.01 0.00 1.25 <
-4 7 4 1 2.42 1.56 0.94 <
4 -7 -4 -1 2.42 4.06 1.25 o
-3 7 4 -1 1.72 3.12 0.94 o
3 -7 -4 1 1.72 2.81 1.25 <
-4 7 4 2 1.60 5.31 0.94 o
4 -7 -4 -2 1.60 4.99 0.94 o
-3 7 4 0 11.31 21.22 1.25 o
3 -7 -4 0 11.31 23.09 1.25 o
-2 7 4 -2 0.82 2.81 0.94 <
2 -7 -4 2 0.82 3.12 0.94 o
-3 7 4 1 1.94 3.12 0.94 o
3 -7 -4 -1 1.94 2.50 0.94 <
-2 7 4 -1 2.57 3.74 0.94 o
2 -7 -4 1 2.57 6.24 0.94 o
-3 7 4 2 1.15 2.81 0.94 <
3 -7 -4 -2 1.15 3.12 0.94 o
-2 7 4 0 59.65 26.21 1.25 o
2 -7 -4 0 59.65 22.16 1.25 o
-1 7 4 -2 1.39 -2.18 1.25 <
1 -7 -4 2 1.39 -0.31 0.94 <
-2 7 4 1 3.36 -0.62 1.25 <
2 -7 -4 -1 3.36 2.50 1.25 <
-1 7 4 -1 2.57 -0.31 1.87 <
1 -7 -4 1 2.57 -6.24 3.12 <
-6 8 4 2 0.01 -2.81 1.25 <
6 -8 -4 -2 0.01 2.81 1.25 <
-5 8 4 0 2.73 -1.25 1.25 <
5 -8 -4 0 2.73 1.25 1.25 <
-4 8 4 -2 0.11 0.94 1.25 <
4 -8 -4 2 0.11 3.12 1.25 <
-5 8 4 1 0.47 0.31 1.25 <
5 -8 -4 -1 0.47 1.87 1.25 <
-4 8 4 -1 1.70 2.81 1.25 <
4 -8 -4 1 1.70 4.06 1.25 o
-5 8 4 2 0.12 1.56 1.25 <
5 -8 -4 -2 0.12 1.87 1.25 <
-4 8 4 0 16.93 63.35 1.25 o
4 -8 -4 0 16.93 71.77 1.56 o
-3 8 4 -2 0.01 0.62 0.94 <
3 -8 -4 2 0.01 1.25 1.25 <
-4 8 4 1 2.63 1.25 0.94 <
4 -8 -4 -1 2.63 4.68 1.25 o
-3 8 4 -1 2.17 0.31 0.94 <
3 -8 -4 1 2.17 2.81 0.94 <
-4 8 4 2 1.55 1.56 0.94 <
4 -8 -4 -2 1.55 2.50 0.94 <
-3 8 4 0 29.92 16.85 0.94 o
3 -8 -4 0 29.92 16.23 0.94 o
-2 8 4 -2 0.61 0.94 0.94 <
2 -8 -4 2 0.61 -1.87 0.94 <
-3 8 4 1 0.82 2.50 0.94 <
3 -8 -4 -1 0.82 1.87 0.94 <
-2 8 4 -1 0.80 0.00 1.25 <
2 -8 -4 1 0.80 3.12 1.25 <
-3 8 4 2 1.29 4.06 1.25 o
3 -8 -4 -2 1.29 3.12 1.25 <
-2 8 4 0 24.41 6.55 1.25 o
2 -8 -4 0 24.41 0.94 1.25 <
-1 8 4 -2 1.12 0.94 1.25 <
1 -8 -4 2 1.12 0.00 1.25 <
-2 8 4 1 1.62 -7.18 3.43 <
2 -8 -4 -1 1.62 -2.18 2.81 <
-6 9 4 2 0.02 -0.31 1.25 <
6 -9 -4 -2 0.02 -0.31 1.25 <
-5 9 4 0 3.00 -0.94 1.25 <
5 -9 -4 0 3.00 2.50 1.25 <
-4 9 4 -2 0.14 1.56 1.25 <
4 -9 -4 2 0.14 2.50 1.25 <
-5 9 4 1 0.60 2.50 1.25 <
5 -9 -4 -1 0.60 -0.94 1.25 <
-4 9 4 -1 2.13 5.62 1.25 o
4 -9 -4 1 2.13 7.80 1.25 o
-5 9 4 2 0.07 2.50 1.25 <
5 -9 -4 -2 0.07 -0.31 1.25 <
-4 9 4 0 14.30 37.76 1.25 o
4 -9 -4 0 14.30 39.32 1.25 o
-3 9 4 -2 0.01 1.87 0.94 <
3 -9 -4 2 0.01 0.94 1.25 <
-4 9 4 1 2.34 -0.31 0.94 <
4 -9 -4 -1 2.34 1.25 1.25 <
-3 9 4 -1 3.31 3.43 0.94 o
3 -9 -4 1 3.31 3.74 1.25 o
-4 9 4 2 1.15 0.31 0.94 <
4 -9 -4 -2 1.15 1.56 1.25 <
-3 9 4 0 67.25 19.35 1.25 o
3 -9 -4 0 67.25 14.35 1.25 o
-2 9 4 -2 0.32 -0.62 1.25 <
2 -9 -4 2 0.32 3.12 1.25 <
-3 9 4 1 0.34 0.62 1.25 <
3 -9 -4 -1 0.34 2.81 1.25 <
-2 9 4 -1 0.10 5.31 1.25 o
2 -9 -4 1 0.10 3.12 1.25 <
-3 9 4 2 1.07 6.24 1.25 o
3 -9 -4 -2 1.07 2.81 1.25 <
-2 9 4 0 0.61 -1.25 1.87 <
2 -9 -4 0 0.61 3.12 1.25 <
-1 9 4 -2 0.76 1.87 5.62 <
-6 10 4 2 0.04 2.50 1.25 <
6 -10 -4 -2 0.04 -2.18 1.25 <
-5 10 4 0 2.94 -2.81 1.25 <
5 -10 -4 0 2.94 0.62 1.25 <
-4 10 4 -2 0.15 1.25 1.25 <
4 -10 -4 2 0.15 -0.62 1.25 <
-5 10 4 1 0.74 0.94 1.25 <
5 -10 -4 -1 0.74 0.62 1.25 <
-4 10 4 -1 2.21 3.74 1.25 o
4 -10 -4 1 2.21 2.81 1.25 <
-5 10 4 2 0.03 1.87 1.25 <
5 -10 -4 -2 0.03 0.31 1.25 <
-4 10 4 0 11.18 9.36 1.25 o
4 -10 -4 0 11.18 11.86 1.25 o
-3 10 4 -2 0.01 1.87 1.25 <
3 -10 -4 2 0.01 -1.56 1.25 <
-4 10 4 1 1.65 1.25 1.25 <
4 -10 -4 -1 1.65 2.18 1.25 <
-3 10 4 -1 4.34 3.74 1.25 o
3 -10 -4 1 4.34 6.55 1.25 o
-4 10 4 2 0.64 2.18 1.25 <
4 -10 -4 -2 0.64 -1.56 1.25 <
-3 10 4 0 77.58 15.29 1.25 o
3 -10 -4 0 77.58 19.35 1.25 o
-2 10 4 -2 0.09 -0.94 1.25 <
2 -10 -4 2 0.09 1.56 1.25 <
-3 10 4 1 0.27 -2.81 1.25 <
3 -10 -4 -1 0.27 -0.31 1.25 <
-2 10 4 -1 0.14 6.24 1.25 o
2 -10 -4 1 0.14 1.25 1.25 <
-3 10 4 2 0.73 -0.94 1.87 <
3 -10 -4 -2 0.73 0.62 1.56 <
-2 10 4 0 0.63 22.16 8.11 <
-5 11 4 -1 0.27 -3.12 2.18 <
5 -11 -4 1 0.27 4.06 2.18 <
-6 11 4 2 0.05 1.25 1.25 <
6 -11 -4 -2 0.05 2.18 1.25 <
-5 11 4 0 2.87 2.18 1.25 <
5 -11 -4 0 2.87 4.37 1.25 o
-4 11 4 -2 0.13 0.62 1.25 <
4 -11 -4 2 0.13 0.62 1.25 <
-5 11 4 1 0.87 1.56 1.25 <
5 -11 -4 -1 0.87 0.31 1.25 <
-4 11 4 -1 1.93 1.25 1.25 <
4 -11 -4 1 1.93 0.00 1.25 <
-5 11 4 2 0.02 0.00 1.25 <
5 -11 -4 -2 0.02 0.31 1.25 <
-4 11 4 0 6.86 1.87 1.25 <
4 -11 -4 0 6.86 5.93 1.25 o
-3 11 4 -2 0.01 -1.87 1.25 <
3 -11 -4 2 0.01 0.31 1.25 <
-4 11 4 1 0.86 2.18 1.25 <
4 -11 -4 -1 0.86 3.43 1.25 <
-3 11 4 -1 4.63 -0.94 1.25 <
3 -11 -4 1 4.63 3.12 1.25 <
-4 11 4 2 0.27 2.18 1.25 <
4 -11 -4 -2 0.27 0.00 1.25 <
-3 11 4 0 59.90 6.87 1.25 o
3 -11 -4 0 59.90 12.79 1.25 o
-2 11 4 -2 0.00 0.62 1.25 <
2 -11 -4 2 0.00 0.31 1.25 <
-3 11 4 1 0.31 0.62 2.18 <
3 -11 -4 -1 0.31 2.18 1.25 <
-2 11 4 -1 0.43 -0.94 1.87 <
2 -11 -4 1 0.43 -4.37 3.74 <
-5 12 4 -1 0.13 -0.94 2.18 <
5 -12 -4 1 0.13 -0.31 2.18 <
-6 12 4 2 0.06 -1.87 1.25 <
6 -12 -4 -2 0.06 1.87 1.25 <
-5 12 4 0 2.33 1.87 1.25 <
5 -12 -4 0 2.33 2.50 1.25 <
-4 12 4 -2 0.09 1.25 1.25 <
4 -12 -4 2 0.09 1.25 1.25 <
-5 12 4 1 0.91 0.62 1.25 <
5 -12 -4 -1 0.91 3.43 1.25 <
-4 12 4 -1 1.43 0.62 1.25 <
4 -12 -4 1 1.43 -1.25 1.25 <
-5 12 4 2 0.02 -1.87 1.25 <
5 -12 -4 -2 0.02 2.81 1.25 <
-4 12 4 0 3.82 -0.31 1.25 <
4 -12 -4 0 3.82 1.87 1.25 <
-3 12 4 -2 0.01 -0.31 1.25 <
3 -12 -4 2 0.01 -2.50 1.25 <
-4 12 4 1 0.27 -0.62 1.25 <
4 -12 -4 -1 0.27 0.00 1.25 <
-3 12 4 -1 4.11 -0.62 1.25 <
3 -12 -4 1 4.11 -1.25 1.25 <
-4 12 4 2 0.09 3.43 1.25 <
4 -12 -4 -2 0.09 -2.18 1.25 <
-3 12 4 0 38.62 -0.94 1.56 <
3 -12 -4 0 38.62 7.80 1.25 o
-2 12 4 -2 0.02 0.00 1.87 <
2 -12 -4 2 0.02 -0.62 1.56 <
-3 12 4 1 0.32 -0.31 1.87 <
3 -12 -4 -1 0.32 2.18 5.31 <
-6 13 4 2 0.05 0.94 1.25 <
6 -13 -4 -2 0.05 -2.50 1.25 <
-5 13 4 0 1.85 1.56 1.25 <
5 -13 -4 0 1.85 0.62 1.25 <
-4 13 4 -2 0.05 1.25 1.25 <
4 -13 -4 2 0.05 2.18 1.25 <
-5 13 4 1 0.85 -3.12 1.25 <
5 -13 -4 -1 0.85 -0.62 1.25 <
-4 13 4 -1 0.92 3.74 1.25 o
4 -13 -4 1 0.92 1.56 1.25 <
-5 13 4 2 0.03 -1.87 1.25 <
5 -13 -4 -2 0.03 0.00 1.25 <
-4 13 4 0 1.47 2.18 1.25 <
4 -13 -4 0 1.47 4.99 1.25 o
-3 13 4 -2 0.00 5.31 1.25 o
3 -13 -4 2 0.00 2.81 1.25 <
-4 13 4 1 0.02 0.62 1.25 <
4 -13 -4 -1 0.02 1.25 1.56 <
-3 13 4 -1 3.08 -8.43 1.25 <
3 -13 -4 1 3.08 1.56 1.56 <
-4 13 4 2 0.04 -0.62 2.81 <
4 -13 -4 -2 0.04 0.31 1.56 <
-3 13 4 0 27.14 0.31 1.87 <
3 -13 -4 0 27.14 4.68 2.81 <
-2 13 4 -2 0.05 -0.94 2.18 <
2 -13 -4 2 0.05 14.04 10.30 <
-5 14 4 0 2.09 1.56 1.56 <
5 -14 -4 0 2.09 1.56 1.56 <
-4 14 4 -2 0.03 1.25 1.56 <
4 -14 -4 2 0.03 -0.31 1.56 <
-5 14 4 1 0.71 0.00 1.56 <
5 -14 -4 -1 0.71 1.87 1.56 <
-4 14 4 -1 0.52 0.62 1.56 <
4 -14 -4 1 0.52 0.62 1.56 <
-5 14 4 2 0.03 3.74 1.56 <
5 -14 -4 -2 0.03 4.99 1.56 o
-4 14 4 0 0.10 1.56 1.56 <
4 -14 -4 0 0.10 -2.18 1.56 <
-3 14 4 -2 0.01 -0.31 1.56 <
3 -14 -4 2 0.01 -4.99 1.56 <
-4 14 4 1 0.04 0.00 1.87 <
4 -14 -4 -1 0.04 -1.87 1.56 <
-3 14 4 -1 1.97 1.56 2.18 <
3 -14 -4 1 1.97 1.56 1.56 <
-4 14 4 2 0.05 -1.25 2.18 <
4 -14 -4 -2 0.05 5.93 2.50 <
-3 14 4 0 16.27 2.50 2.50 <
-4 15 4 -2 0.02 2.81 2.18 <
4 -15 -4 2 0.02 2.50 2.18 <
-5 15 4 1 0.54 2.50 1.56 <
5 -15 -4 -1 0.54 0.00 1.56 <
-4 15 4 -1 0.28 0.31 1.56 <
4 -15 -4 1 0.28 2.81 1.56 <
-5 15 4 2 0.02 -3.12 1.56 <
5 -15 -4 -2 0.02 -2.81 1.56 <
-4 15 4 0 0.18 -1.87 1.56 <
4 -15 -4 0 0.18 -0.62 1.56 <
-3 15 4 -2 0.01 4.37 4.37 <
3 -15 -4 2 0.01 -3.12 1.56 <
-4 15 4 1 0.19 -1.25 2.18 <
4 -15 -4 -1 0.19 -7.80 2.18 <
-3 15 4 -1 1.06 1.56 2.18 <
3 -15 -4 1 1.06 -2.81 2.81 <
-4 15 4 2 0.07 -5.31 2.81 <
-3 14 -5 -1 0.07 2.18 2.18 <
4 -14 5 -1 1.55 0.31 2.18 <
-4 14 -5 1 1.55 -0.94 1.87 <
3 -14 5 2 0.01 0.62 1.87 <
-3 14 -5 -2 0.01 1.87 1.87 <
4 -13 5 -2 0.07 0.00 6.55 <
-4 13 -5 2 0.07 0.94 1.87 <
3 -13 5 1 0.35 0.94 1.87 <
-3 13 -5 -1 0.35 3.43 1.87 <
4 -13 5 -1 1.51 -2.18 1.87 <
-4 13 -5 1 1.51 -1.25 1.87 <
3 -13 5 2 0.04 0.94 1.87 <
-3 13 -5 -2 0.04 1.56 1.87 <
4 -13 5 0 6.83 0.94 1.87 <
-4 13 -5 0 6.83 5.62 1.87 <
5 -13 5 -2 0.03 -2.81 1.87 <
-5 13 -5 2 0.03 -1.87 1.87 <
-2 12 -5 -2 0.03 -10.92 8.11 <
3 -12 5 0 1.10 5.31 3.74 <
-3 12 -5 0 1.10 3.12 1.87 <
4 -12 5 -2 0.13 -0.94 1.87 <
-4 12 -5 2 0.13 0.31 1.87 <
3 -12 5 1 0.99 -2.18 1.87 <
-3 12 -5 -1 0.99 2.50 1.87 <
4 -12 5 -1 1.22 -1.25 1.87 <
-4 12 -5 1 1.22 2.50 1.87 <
3 -12 5 2 0.08 3.12 1.87 <
-3 12 -5 -2 0.08 3.43 1.87 <
4 -12 5 0 4.70 0.00 1.87 <
-4 12 -5 0 4.70 3.12 1.87 <
5 -12 5 -2 0.03 4.68 2.50 <
-5 12 -5 2 0.03 0.31 1.87 <
-3 11 -5 1 0.19 -2.50 5.62 <
2 -11 5 2 0.03 -9.67 2.50 <
-2 11 -5 -2 0.03 0.31 1.56 <
3 -11 5 0 1.26 -2.81 1.87 <
-3 11 -5 0 1.26 -0.31 1.56 <
4 -11 5 -2 0.21 0.62 1.87 <
-4 11 -5 2 0.21 0.31 1.56 <
3 -11 5 1 1.95 1.56 1.87 <
-3 11 -5 -1 1.95 0.62 1.56 <
4 -11 5 -1 0.84 2.81 1.87 <
-4 11 -5 1 0.84 -0.94 1.56 <
3 -11 5 2 0.11 1.25 1.87 <
-3 11 -5 -2 0.11 -1.25 1.87 <
4 -11 5 0 2.75 -0.94 1.25 <
-4 11 -5 0 2.75 3.43 1.87 <
5 -11 5 -2 0.01 1.87 0.94 <
-5 11 -5 2 0.01 -1.56 1.87 <
-2 10 -5 -1 1.12 -2.18 3.74 <
3 -10 5 -1 0.50 3.12 1.87 <
-3 10 -5 1 0.50 0.94 1.56 <
2 -10 5 2 0.03 3.12 1.56 <
-2 10 -5 -2 0.03 2.18 1.56 <
3 -10 5 0 1.86 2.50 1.56 <
-3 10 -5 0 1.86 0.31 1.56 <
4 -10 5 -2 0.29 -1.25 1.56 <
-4 10 -5 2 0.29 -2.18 1.56 <
3 -10 5 1 3.00 4.68 1.56 <
-3 10 -5 -1 3.00 6.55 1.56 o
4 -10 5 -1 0.60 -3.74 5.31 <
-4 10 -5 1 0.60 -0.62 1.56 <
3 -10 5 2 0.13 1.56 0.94 <
-3 10 -5 -2 0.13 0.94 1.56 <
4 -10 5 0 1.87 -0.94 0.94 <
-4 10 -5 0 1.87 0.94 0.94 <
5 -10 5 -2 0.01 0.94 0.94 <
-5 10 -5 2 0.01 1.25 0.94 <
-3 9 -5 2 0.53 3.74 2.81 <
2 -9 5 1 1.03 -1.87 1.56 <
-2 9 -5 -1 1.03 2.81 1.56 <
3 -9 5 -1 1.00 -0.62 1.56 <
-3 9 -5 1 1.00 -0.94 1.56 <
2 -9 5 2 0.03 2.18 1.56 <
-2 9 -5 -2 0.03 0.00 1.56 <
3 -9 5 0 1.62 -0.62 1.56 <
-3 9 -5 0 1.62 3.12 1.56 <
4 -9 5 -2 0.33 0.31 1.56 <
-4 9 -5 2 0.33 -0.62 1.56 <
3 -9 5 1 3.71 6.24 1.25 o
-3 9 -5 -1 3.71 1.87 1.56 <
4 -9 5 -1 0.64 0.62 0.94 <
-4 9 -5 1 0.64 -3.12 1.25 <
3 -9 5 2 0.12 0.62 0.94 <
-3 9 -5 -2 0.12 1.25 0.94 <
4 -9 5 0 1.36 1.25 0.94 <
-4 9 -5 0 1.36 -0.31 0.94 <
5 -9 5 -2 0.01 1.87 1.25 <
-5 9 -5 2 0.01 1.25 0.94 <
2 -8 5 0 22.57 -0.31 6.55 <
-2 8 -5 0 22.57 2.81 2.18 <
3 -8 5 -2 0.68 -3.43 1.25 <
-3 8 -5 2 0.68 -0.31 1.25 <
2 -8 5 1 0.81 4.06 1.25 o
-2 8 -5 -1 0.81 4.37 1.25 o
3 -8 5 -1 1.46 3.12 1.56 <
-3 8 -5 1 1.46 2.81 1.25 <
2 -8 5 2 0.06 5.31 1.25 o
-2 8 -5 -2 0.06 0.94 1.25 <
3 -8 5 0 2.56 4.06 1.56 <
-3 8 -5 0 2.56 3.43 1.25 <
4 -8 5 -2 0.32 0.94 0.94 <
-4 8 -5 2 0.32 -9.36 4.99 <
3 -8 5 1 3.76 6.24 0.94 o
-3 8 -5 -1 3.76 6.24 0.94 o
4 -8 5 -1 0.96 1.25 1.25 <
-4 8 -5 1 0.96 2.50 0.94 <
3 -8 5 2 0.09 2.50 5.62 <
-3 8 -5 -2 0.09 1.25 0.94 <
4 -8 5 0 2.48 4.37 1.87 <
-4 8 -5 0 2.48 2.81 0.94 <
5 -8 5 -2 0.03 3.12 1.87 <
-5 8 -5 2 0.03 2.50 1.87 <
1 -7 5 2 1.37 -5.93 3.12 <
-1 7 -5 -2 1.37 -2.18 1.56 <
2 -7 5 0 11.03 -0.31 1.25 <
-2 7 -5 0 11.03 3.43 1.25 <
3 -7 5 -2 0.76 0.94 1.25 <
-3 7 -5 2 0.76 -0.31 1.25 <
2 -7 5 1 0.68 -1.25 1.56 <
-2 7 -5 -1 0.68 2.18 1.25 <
3 -7 5 -1 1.56 2.50 0.62 o
-3 7 -5 1 1.56 4.68 2.18 <
2 -7 5 2 0.12 -0.62 0.62 <
-2 7 -5 -2 0.12 1.87 0.62 o
3 -7 5 0 3.33 4.37 0.94 o
-3 7 -5 0 3.33 5.93 0.62 o
4 -7 5 -2 0.27 4.06 1.56 <
-4 7 -5 2 0.27 1.87 0.62 o
3 -7 5 1 3.10 10.92 1.56 o
-3 7 -5 -1 3.10 9.36 2.50 o
4 -7 5 -1 1.35 3.43 1.56 <
-4 7 -5 1 1.35 4.06 1.56 <
3 -7 5 2 0.05 0.62 1.56 <
-3 7 -5 -2 0.05 -4.68 1.56 <
4 -7 5 0 3.98 9.36 1.87 o
-4 7 -5 0 3.98 0.31 1.56 <
2 -6 5 -1 1.53 -2.81 3.12 <
-2 6 -5 1 1.53 1.87 1.25 <
1 -6 5 2 1.77 0.94 0.94 <
-1 6 -5 -2 1.77 4.37 2.50 <
2 -6 5 0 6.82 11.23 0.62 o
-2 6 -5 0 6.82 7.49 0.94 o
3 -6 5 -2 0.77 4.06 0.62 o
-3 6 -5 2 0.77 5.62 0.62 o
2 -6 5 1 0.96 1.87 0.62 o
-2 6 -5 -1 0.96 2.18 0.62 o
3 -6 5 -1 1.22 7.49 0.62 o
-3 6 -5 1 1.22 4.68 0.62 o
2 -6 5 2 0.21 -1.87 4.37 <
-2 6 -5 -2 0.21 0.62 0.62 <
3 -6 5 0 4.98 10.92 1.25 o
-3 6 -5 0 4.98 4.37 1.25 o
4 -6 5 -2 0.20 0.31 1.56 <
-4 6 -5 2 0.20 2.81 1.25 <
3 -6 5 1 2.06 6.55 1.56 o
-3 6 -5 -1 2.06 0.00 1.56 <
4 -6 5 -1 1.60 6.55 1.56 o
-4 6 -5 1 1.60 2.18 1.56 <
3 -6 5 2 0.02 3.43 1.56 <
-3 6 -5 -2 0.02 0.31 1.56 <
4 -6 5 0 5.09 7.18 1.87 o
-4 6 -5 0 5.09 1.87 1.56 <
1 -5 5 0 165.99 52.43 2.50 o
-1 5 -5 0 165.99 4.06 4.37 <
2 -5 5 -2 0.07 -0.31 0.94 <
-2 5 -5 2 0.07 -0.94 1.25 <
1 -5 5 1 0.62 1.25 0.62 <
-1 5 -5 -1 0.62 1.87 0.62 o
2 -5 5 -1 4.36 7.18 0.62 o
-2 5 -5 1 4.36 2.50 0.62 o
1 -5 5 2 1.88 2.81 0.62 o
-1 5 -5 -2 1.88 1.87 0.62 o
2 -5 5 0 7.10 4.99 0.62 o
-2 5 -5 0 7.10 6.87 0.62 o
3 -5 5 -2 0.69 4.68 0.62 o
-3 5 -5 2 0.69 4.06 0.62 o
2 -5 5 1 1.64 3.74 0.94 o
-2 5 -5 -1 1.64 3.12 0.62 o
3 -5 5 -1 0.65 7.18 1.25 o
-3 5 -5 1 0.65 9.36 2.18 o
2 -5 5 2 0.28 -1.25 1.25 <
-2 5 -5 -2 0.28 2.81 1.25 <
3 -5 5 0 8.64 3.12 1.25 <
-3 5 -5 0 8.64 2.18 1.25 <
4 -5 5 -2 0.13 0.62 1.56 <
-4 5 -5 2 0.13 3.74 1.25 o
3 -5 5 1 1.05 -1.25 1.56 <
-3 5 -5 -1 1.05 -3.74 1.56 <
4 -5 5 -1 1.56 8.11 1.56 o
-4 5 -5 1 1.56 0.00 1.56 <
3 -5 5 2 0.00 5.93 1.87 o
-3 5 -5 -2 0.00 -5.93 1.56 <
3 4 -5 -1 0.27 -2.50 3.74 <
2 4 -5 1 0.68 -5.31 5.93 <
3 4 -5 -2 0.33 -2.50 10.92 <
1 -4 5 -2 0.38 0.62 2.18 <
-1 4 -5 2 0.38 -4.06 3.43 <
0 -4 5 1 8.46 2.50 1.25 <
0 4 -5 -1 8.46 0.31 1.87 <
1 -4 5 -1 40.51 8.43 1.25 o
-1 4 -5 1 40.51 4.99 1.25 o
0 -4 5 2 1.76 0.62 0.94 <
0 4 -5 -2 1.76 -7.18 1.25 <
1 -4 5 0 254.05 271.18 1.56 o
-1 4 -5 0 254.05 222.50 1.56 o
2 -4 5 -2 0.26 -0.94 0.62 <
-2 4 -5 2 0.26 0.00 0.62 <
1 -4 5 1 0.35 7.18 0.62 o
-1 4 -5 -1 0.35 5.31 0.62 o
2 -4 5 -1 7.61 3.74 0.62 o
-2 4 -5 1 7.61 2.50 0.62 o
1 -4 5 2 1.69 4.06 0.62 o
-1 4 -5 -2 1.69 3.43 0.62 o
2 -4 5 0 12.38 9.05 0.62 o
-2 4 -5 0 12.38 14.35 0.62 o
3 -4 5 -2 0.55 2.81 1.25 <
-3 4 -5 2 0.55 2.50 0.94 <
2 -4 5 1 2.27 2.81 1.25 <
-2 4 -5 -1 2.27 4.99 1.25 o
3 -4 5 -1 0.18 0.00 1.25 <
-3 4 -5 1 0.18 1.25 1.25 <
2 -4 5 2 0.29 -1.56 1.25 <
-2 4 -5 -2 0.29 -4.68 1.25 <
3 -4 5 0 9.75 6.87 1.56 o
-3 4 -5 0 9.75 0.62 1.25 <
4 -4 5 -2 0.07 2.50 1.56 <
-4 4 -5 2 0.07 7.49 1.56 o
3 -4 5 1 0.38 3.74 1.56 <
-3 4 -5 -1 0.38 5.31 1.56 o
4 -4 5 -1 1.26 -3.43 1.87 <
-4 4 -5 1 1.26 2.18 1.56 <
-3 -3 5 0 2.76 1.25 2.50 <
3 3 -5 0 2.76 2.18 2.18 <
-2 -3 5 -2 0.02 4.68 2.50 <
2 3 -5 2 0.02 5.62 2.18 <
-3 -3 5 1 0.35 -0.62 2.50 <
3 3 -5 -1 0.35 3.12 2.18 <
-2 -3 5 -1 1.62 1.25 2.81 <
2 3 -5 1 1.62 -0.94 2.18 <
-3 -3 5 2 0.38 -2.18 3.43 <
3 3 -5 -2 0.38 0.00 1.87 <
-2 -3 5 0 39.15 -2.81 4.68 <
2 3 -5 0 39.15 -2.18 2.18 <
-1 -3 5 -2 0.07 -2.81 6.87 <
1 3 -5 2 0.07 -2.18 2.50 <
2 3 -5 -1 0.01 -0.62 3.12 <
1 3 -5 1 0.24 -9.67 5.31 <
0 -3 5 -2 2.29 3.43 5.93 <
-1 -3 5 1 14.43 -1.25 2.50 <
1 3 -5 -1 14.43 -0.31 4.68 <
0 -3 5 -1 22.88 10.92 1.56 o
0 3 -5 1 22.88 15.29 1.87 o
-1 -3 5 2 0.31 -1.25 1.25 <
1 3 -5 -2 0.31 -4.99 1.25 <
0 -3 5 0 8.31 6.24 1.56 o
0 3 -5 0 8.31 6.87 1.25 o
1 -3 5 -2 0.26 -2.18 1.25 <
-1 3 -5 2 0.26 2.50 1.25 <
0 -3 5 1 4.01 3.74 1.25 o
0 3 -5 -1 4.01 3.74 1.25 o
1 -3 5 -1 51.31 81.45 1.25 o
-1 3 -5 1 51.31 70.21 1.25 o
0 -3 5 2 1.23 -0.31 0.94 <
0 3 -5 -2 1.23 4.68 3.43 <
1 -3 5 0 575.16 421.29 1.25 o
-1 3 -5 0 575.16 405.37 1.25 o
2 -3 5 -2 0.48 3.12 0.31 o
-2 3 -5 2 0.48 2.18 0.31 o
1 -3 5 1 0.38 6.24 0.62 o
-1 3 -5 -1 0.38 6.24 0.62 o
2 -3 5 -1 9.23 4.99 0.62 o
-2 3 -5 1 9.23 3.43 0.62 o
1 -3 5 2 1.33 0.94 0.94 <
-1 3 -5 -2 1.33 2.18 0.62 o
2 -3 5 0 11.25 23.09 1.25 o
-2 3 -5 0 11.25 18.41 1.25 o
3 -3 5 -2 0.39 3.74 1.25 o
-3 3 -5 2 0.39 3.43 1.25 <
2 -3 5 1 2.41 2.50 1.25 <
-2 3 -5 -1 2.41 -0.94 1.25 <
3 -3 5 -1 0.00 0.31 1.25 <
-3 3 -5 1 0.00 2.18 1.25 <
2 -3 5 2 0.24 5.62 1.87 <
-2 3 -5 -2 0.24 2.18 1.25 <
3 -3 5 0 10.31 4.99 1.56 o
-3 3 -5 0 10.31 2.81 1.56 <
4 -3 5 -2 0.05 -4.99 1.56 <
-4 3 -5 2 0.05 -0.31 1.56 <
3 -3 5 1 0.08 2.50 1.87 <
-3 3 -5 -1 0.08 -5.93 1.56 <
-4 -2 5 2 0.06 1.56 2.18 <
4 2 -5 -2 0.06 4.68 2.18 <
-3 -2 5 0 4.04 1.56 2.18 <
3 2 -5 0 4.04 0.94 2.18 <
-2 -2 5 -2 0.02 2.18 1.87 <
2 2 -5 2 0.02 -0.62 1.87 <
-3 -2 5 1 0.36 1.87 1.87 <
3 2 -5 -1 0.36 -2.18 1.87 <
-2 -2 5 -1 3.20 -0.94 1.87 <
2 2 -5 1 3.20 0.94 1.87 <
-3 -2 5 2 0.43 -1.87 1.87 <
3 2 -5 -2 0.43 -3.43 1.87 <
-2 -2 5 0 73.86 14.98 1.87 o
2 2 -5 0 73.86 5.31 1.87 <
-1 -2 5 -2 0.27 1.25 1.56 <
1 2 -5 2 0.27 -2.18 1.56 <
-2 -2 5 1 0.31 1.25 2.50 <
2 2 -5 -1 0.31 -1.56 1.56 <
-1 -2 5 -1 0.02 -0.94 1.25 <
1 2 -5 1 0.02 3.12 2.18 <
-2 -2 5 2 1.95 -0.94 1.25 <
2 2 -5 -2 1.95 -0.94 1.25 <
-1 -2 5 0 27.06 5.31 1.25 o
1 2 -5 0 27.06 11.55 1.25 o
0 -2 5 -2 2.67 0.62 1.25 <
0 2 -5 2 2.67 4.37 1.25 o
-1 -2 5 1 23.67 4.68 1.25 o
1 2 -5 -1 23.67 4.06 1.25 o
0 -2 5 -1 23.16 -3.12 1.87 <
0 2 -5 1 23.16 3.12 1.25 <
-1 -2 5 2 0.78 0.00 1.25 <
1 2 -5 -2 0.78 5.93 2.50 <
0 -2 5 0 28.52 23.09 1.25 o
0 2 -5 0 28.52 21.22 1.25 o
1 -2 5 -2 0.11 3.12 1.25 <
-1 2 -5 2 0.11 6.87 1.25 o
0 -2 5 1 0.73 12.17 0.94 o
0 2 -5 -1 0.73 10.61 0.94 o
1 -2 5 -1 51.07 94.56 1.87 o
-1 2 -5 1 51.07 87.69 1.25 o
0 -2 5 2 0.85 5.62 0.62 o
0 2 -5 -2 0.85 6.87 0.62 o
1 -2 5 0 321.08 314.87 0.94 o
-1 2 -5 0 321.08 333.60 0.94 o
2 -2 5 -2 0.62 1.87 0.62 o
-2 2 -5 2 0.62 1.25 0.62 <
1 -2 5 1 0.61 3.12 0.62 o
-1 2 -5 -1 0.61 3.12 0.62 o
2 -2 5 -1 8.80 2.18 0.94 <
-2 2 -5 1 8.80 0.00 1.25 <
1 -2 5 2 0.96 -2.18 0.94 <
-1 2 -5 -2 0.96 11.23 0.94 o
2 -2 5 0 10.49 3.43 1.25 <
-2 2 -5 0 10.49 10.61 1.25 o
3 -2 5 -2 0.25 1.87 1.25 <
-3 2 -5 2 0.25 0.00 1.25 <
2 -2 5 1 2.02 9.36 1.25 o
-2 2 -5 -1 2.02 1.87 1.25 <
3 -2 5 -1 0.08 -1.87 1.56 <
-3 2 -5 1 0.08 1.25 1.25 <
2 -2 5 2 0.16 -1.87 1.56 <
-2 2 -5 -2 0.16 0.00 1.56 <
3 -2 5 0 8.77 6.24 1.56 o
-3 2 -5 0 8.77 0.94 1.56 <
4 -2 5 -2 0.04 5.62 1.87 <
-4 2 -5 2 0.04 5.62 1.56 o
-4 -1 5 1 0.48 0.94 2.18 <
4 1 -5 -1 0.48 3.74 2.18 <
-3 -1 5 -1 1.68 -2.50 2.18 <
3 1 -5 1 1.68 -0.31 2.18 <
-4 -1 5 2 0.08 0.31 1.87 <
4 1 -5 -2 0.08 2.50 2.18 <
-3 -1 5 0 3.52 3.74 1.87 <
3 1 -5 0 3.52 4.37 1.87 <
-2 -1 5 -2 0.02 -0.94 1.87 <
2 1 -5 2 0.02 3.74 1.87 <
-3 -1 5 1 0.32 9.05 4.06 <
3 1 -5 -1 0.32 -4.37 1.87 <
-2 -1 5 -1 5.49 -4.06 1.87 <
2 1 -5 1 5.49 -0.94 1.87 <
-3 -1 5 2 0.47 0.31 1.25 <
3 1 -5 -2 0.47 0.31 2.81 <
-2 -1 5 0 129.49 21.22 1.25 o
2 1 -5 0 129.49 20.60 1.56 o
-1 -1 5 -2 0.81 -0.62 1.25 <
1 1 -5 2 0.81 0.94 1.25 <
-2 -1 5 1 1.98 1.25 1.25 <
2 1 -5 -1 1.98 0.94 1.25 <
-1 -1 5 -1 1.14 5.62 1.25 o
1 1 -5 1 1.14 3.43 1.25 <
-2 -1 5 2 2.71 3.74 0.94 o
2 1 -5 -2 2.71 -1.87 0.94 <
-1 -1 5 0 42.99 22.47 0.94 o
1 1 -5 0 42.99 23.72 0.94 o
0 -1 5 -2 2.75 0.00 0.94 <
0 1 -5 2 2.75 0.62 0.94 <
-1 -1 5 1 34.88 36.20 0.94 o
1 1 -5 -1 34.88 35.89 0.94 o
0 -1 5 -1 18.83 2.81 0.62 o
0 1 -5 1 18.83 -0.62 0.62 <
-1 -1 5 2 1.19 3.12 0.62 o
1 1 -5 -2 1.19 3.74 0.62 o
0 -1 5 0 15.08 147.61 0.94 o
0 1 -5 0 15.08 90.19 0.94 o
1 -1 5 -2 0.35 2.81 0.62 o
-1 1 -5 2 0.35 1.56 0.62 <
0 -1 5 1 2.17 22.47 0.62 o
0 1 -5 -1 2.17 20.91 0.62 o
1 -1 5 -1 39.83 53.05 0.62 o
-1 1 -5 1 39.83 52.11 0.62 o
0 -1 5 2 0.77 4.37 0.62 o
0 1 -5 -2 0.77 5.62 0.62 o
1 -1 5 0 199.12 84.57 0.62 o
-1 1 -5 0 199.12 92.37 0.94 o
2 -1 5 -2 0.60 -0.31 1.25 <
-2 1 -5 2 0.60 0.00 0.62 <
1 -1 5 1 0.84 -0.31 0.94 <
-1 1 -5 -1 0.84 4.06 0.94 o
2 -1 5 -1 7.24 -1.87 0.94 <
-2 1 -5 1 7.24 1.87 0.94 <
1 -1 5 2 0.66 2.50 1.25 <
-1 1 -5 -2 0.66 -1.56 1.25 <
2 -1 5 0 20.89 5.93 1.25 o
-2 1 -5 0 20.89 -1.87 1.25 <
3 -1 5 -2 0.15 2.50 1.25 <
-3 1 -5 2 0.15 1.87 1.25 <
2 -1 5 1 1.40 0.62 1.56 <
-2 1 -5 -1 1.40 1.56 1.56 <
3 -1 5 -1 0.26 2.18 1.56 <
-3 1 -5 1 0.26 0.00 1.56 <
2 -1 5 2 0.09 2.50 1.87 <
-2 1 -5 -2 0.09 -2.81 1.56 <
3 -1 5 0 6.88 1.87 1.87 <
-3 1 -5 0 6.88 0.00 1.56 <
-3 0 5 -2 0.02 1.87 2.18 <
3 0 -5 2 0.02 -5.31 2.18 <
-4 0 5 1 0.61 3.12 5.31 <
4 0 -5 -1 0.61 2.18 2.18 <
-3 0 5 -1 1.97 1.25 2.50 <
3 0 -5 1 1.97 -1.87 2.18 <
-4 0 5 2 0.13 0.31 1.56 <
4 0 -5 -2 0.13 0.00 1.87 <
-3 0 5 0 2.86 1.87 1.25 <
3 0 -5 0 2.86 2.81 3.12 <
-2 0 5 -2 0.01 1.25 1.25 <
2 0 -5 2 0.01 0.94 1.56 <
-3 0 5 1 0.37 3.43 1.25 <
3 0 -5 -1 0.37 0.00 1.25 <
-2 0 5 -1 8.19 6.87 1.25 o
2 0 -5 1 8.19 8.11 1.25 o
-3 0 5 2 0.61 0.00 1.25 <
3 0 -5 -2 0.61 -0.94 1.25 <
-2 0 5 0 164.56 66.16 1.25 o
2 0 -5 0 164.56 47.43 1.25 o
-1 0 5 -2 1.80 -0.62 0.94 <
1 0 -5 2 1.80 2.81 0.94 <
-2 0 5 1 5.94 2.81 0.94 <
2 0 -5 -1 5.94 6.24 0.94 o
-1 0 5 -1 5.75 10.92 0.94 o
1 0 -5 1 5.75 9.67 0.94 o
-2 0 5 2 2.84 -1.87 0.94 <
2 0 -5 -2 2.84 3.12 0.94 o
-1 0 5 0 13.03 15.60 0.94 o
1 0 -5 0 13.03 10.30 0.94 o
0 0 5 -2 2.63 0.31 0.62 <
0 0 -5 2 2.63 0.31 0.94 <
-1 0 5 1 43.30 18.41 0.62 o
1 0 -5 -1 43.30 17.48 0.62 o
0 0 5 -1 12.07 6.24 0.62 o
0 0 -5 1 12.07 5.62 0.62 o
-1 0 5 2 1.15 2.81 0.62 o
1 0 -5 -2 1.15 3.74 0.62 o
0 0 5 0 42.54 94.87 0.94 o
0 0 -5 0 42.54 101.11 0.94 o
1 0 5 -2 1.04 0.62 0.62 <
-1 0 -5 2 1.04 1.56 0.62 <
0 0 5 1 8.22 12.79 1.25 o
0 0 -5 -1 8.22 9.05 1.25 o
1 0 5 -1 24.74 7.80 1.25 o
-1 0 -5 1 24.74 16.23 1.25 o
0 0 5 2 0.88 4.37 1.25 o
0 0 -5 -2 0.88 5.31 1.25 o
-1 0 -5 0 91.69 4.99 3.12 <
2 0 5 -2 0.44 2.81 7.18 <
1 0 5 1 0.82 0.94 3.43 <
2 0 5 -1 5.44 -1.87 2.18 <
-2 0 -5 1 5.44 5.62 8.11 <
1 0 5 2 0.45 -0.62 1.87 <
-1 0 -5 -2 0.45 -7.49 5.62 <
2 0 5 0 17.75 4.37 1.56 <
-2 0 -5 0 17.75 -4.99 3.43 <
3 0 5 -2 0.10 -1.87 1.56 <
-3 0 -5 2 0.10 1.87 2.50 <
2 0 5 1 0.83 2.50 1.56 <
-2 0 -5 -1 0.83 -0.94 2.50 <
3 0 5 -1 0.38 -0.62 1.87 <
-3 0 -5 1 0.38 -0.31 2.18 <
2 0 5 2 0.04 -2.50 1.87 <
-2 0 -5 -2 0.04 -3.43 2.18 <
-4 1 5 0 1.86 0.62 1.56 <
4 -1 -5 0 1.86 0.00 2.18 <
-3 1 5 -2 0.01 -0.62 1.25 <
3 -1 -5 2 0.01 -2.81 3.74 <
-4 1 5 1 0.75 -1.25 1.25 <
4 -1 -5 -1 0.75 -3.12 1.87 <
-3 1 5 -1 2.09 0.62 1.25 <
3 -1 -5 1 2.09 2.81 1.25 <
-4 1 5 2 0.23 0.62 1.25 <
4 -1 -5 -2 0.23 0.00 1.25 <
-3 1 5 0 4.82 1.87 1.25 <
3 -1 -5 0 4.82 2.50 1.25 <
-2 1 5 -2 0.00 1.25 1.25 <
2 -1 -5 2 0.00 2.18 1.25 <
-3 1 5 1 0.93 2.50 1.25 <
3 -1 -5 -1 0.93 1.87 1.25 <
-2 1 5 -1 10.34 2.18 1.25 <
2 -1 -5 1 10.34 3.74 1.25 o
-3 1 5 2 1.06 -0.94 1.25 <
3 -1 -5 -2 1.06 3.74 1.25 o
-2 1 5 0 88.37 59.29 1.25 o
2 -1 -5 0 88.37 54.61 1.25 o
-1 1 5 -2 3.07 4.68 0.94 o
1 -1 -5 2 3.07 1.25 0.94 <
-2 1 5 1 12.27 6.55 0.94 o
2 -1 -5 -1 12.27 4.99 0.94 o
-1 1 5 -1 14.04 37.76 1.25 o
1 -1 -5 1 14.04 41.82 1.25 o
-2 1 5 2 1.96 1.87 0.94 <
2 -1 -5 -2 1.96 3.43 0.94 o
-1 1 5 0 258.63 213.14 1.56 o
1 -1 -5 0 258.63 198.16 1.56 o
0 1 5 -2 2.55 -0.62 0.62 <
0 -1 -5 2 2.55 2.50 0.62 o
-1 1 5 1 41.86 55.55 0.94 o
1 -1 -5 -1 41.86 57.42 0.94 o
0 1 5 -1 7.67 18.41 0.62 o
0 -1 -5 1 7.67 19.66 0.62 o
-1 1 5 2 0.72 0.62 0.62 <
1 -1 -5 -2 0.72 1.56 0.62 <
0 1 5 0 7.10 66.16 1.25 o
0 -1 -5 0 7.10 72.40 1.25 o
1 1 5 -2 1.64 4.37 1.25 o
-1 -1 -5 2 1.64 -4.37 1.25 <
0 1 5 1 14.63 2.50 1.25 <
0 -1 -5 -1 14.63 -2.81 1.25 <
1 1 5 -1 12.54 -1.56 2.50 <
-1 -1 -5 1 12.54 3.12 1.56 <
3 1 5 -2 0.07 -11.86 8.11 <
2 1 5 1 0.42 -0.31 4.37 <
3 1 5 -1 0.38 1.87 2.81 <
-5 2 5 2 0.02 2.18 1.25 <
5 -2 -5 -2 0.02 0.62 1.56 <
-4 2 5 0 1.46 -0.31 1.25 <
4 -2 -5 0 1.46 -4.68 1.56 <
-3 2 5 -2 0.01 6.87 1.25 o
3 -2 -5 2 0.01 5.93 1.25 o
-4 2 5 1 0.88 0.31 1.25 <
4 -2 -5 -1 0.88 2.50 1.25 <
-3 2 5 -1 2.13 -2.50 1.25 <
3 -2 -5 1 2.13 3.12 1.25 <
-4 2 5 2 0.41 1.25 1.25 <
4 -2 -5 -2 0.41 0.62 1.87 <
-3 2 5 0 5.64 1.87 1.25 <
3 -2 -5 0 5.64 2.50 1.25 <
-2 2 5 -2 0.01 -0.31 1.25 <
2 -2 -5 2 0.01 -0.62 1.25 <
-3 2 5 1 2.41 0.94 1.25 <
3 -2 -5 -1 2.41 3.74 1.25 o
-2 2 5 -1 10.47 6.87 1.25 o
2 -2 -5 1 10.47 3.12 1.25 <
-3 2 5 2 2.17 5.62 0.94 o
3 -2 -5 -2 2.17 -1.87 0.94 <
-2 2 5 0 28.55 136.68 1.56 o
2 -2 -5 0 28.55 138.56 1.56 o
-1 2 5 -2 4.07 4.68 0.94 o
1 -2 -5 2 4.07 4.06 0.94 o
-2 2 5 1 18.49 4.68 0.94 o
2 -2 -5 -1 18.49 2.50 0.94 <
-1 2 5 -1 20.02 46.50 0.94 o
1 -2 -5 1 20.02 44.00 0.94 o
-2 2 5 2 1.15 1.25 0.94 <
2 -2 -5 -2 1.15 -0.62 0.94 <
-1 2 5 0 98.50 84.26 0.94 o
1 -2 -5 0 98.50 85.82 0.94 o
0 2 5 -2 2.60 7.80 0.62 o
0 -2 -5 2 2.60 7.18 0.62 o
-1 2 5 1 30.46 12.79 0.62 o
1 -2 -5 -1 30.46 10.61 0.62 o
0 2 5 -1 7.43 0.62 0.62 <
0 -2 -5 1 7.43 4.68 0.62 o
-1 2 5 2 0.30 0.94 1.25 <
1 -2 -5 -2 0.30 -1.56 1.87 <
0 2 5 0 10.27 4.06 1.25 o
0 -2 -5 0 10.27 5.31 1.25 o
1 2 5 -2 1.76 0.62 1.56 <
-1 -2 -5 2 1.76 3.43 1.25 <
0 -2 -5 -1 17.37 -0.94 3.43 <
-4 3 5 -1 0.30 3.43 1.25 <
4 -3 -5 1 0.30 -0.31 1.56 <
-5 3 5 2 0.02 -3.12 1.25 <
5 -3 -5 -2 0.02 2.18 1.56 <
-4 3 5 0 2.72 3.74 1.25 o
4 -3 -5 0 2.72 6.55 1.25 o
-3 3 5 -2 0.05 -1.25 1.25 <
3 -3 -5 2 0.05 0.31 1.25 <
-4 3 5 1 0.98 4.37 1.25 o
4 -3 -5 -1 0.98 1.25 1.25 <
-3 3 5 -1 2.45 -0.31 1.25 <
3 -3 -5 1 2.45 -0.94 1.25 <
-4 3 5 2 0.65 -0.94 1.25 <
4 -3 -5 -2 0.65 0.31 1.25 <
-3 3 5 0 7.85 0.31 1.25 <
3 -3 -5 0 7.85 6.24 1.25 o
-2 3 5 -2 0.02 3.43 0.94 o
2 -3 -5 2 0.02 0.94 0.94 <
-3 3 5 1 4.84 1.87 0.94 <
3 -3 -5 -1 4.84 2.81 0.94 <
-2 3 5 -1 8.19 11.86 0.94 o
2 -3 -5 1 8.19 11.23 0.94 o
-3 3 5 2 4.02 7.80 0.94 o
3 -3 -5 -2 4.02 7.49 0.94 o
-2 3 5 0 32.16 42.75 1.25 o
2 -3 -5 0 32.16 44.62 1.25 o
-1 3 5 -2 4.17 5.93 0.94 o
1 -3 -5 2 4.17 5.31 0.94 o
-2 3 5 1 19.90 6.55 0.94 o
2 -3 -5 -1 19.90 5.93 0.94 o
-1 3 5 -1 16.95 14.35 0.94 o
1 -3 -5 1 16.95 14.98 0.94 o
-2 3 5 2 1.81 8.43 0.94 o
2 -3 -5 -2 1.81 11.55 0.94 o
-1 3 5 0 25.49 28.40 0.94 o
1 -3 -5 0 25.49 26.84 0.94 o
0 3 5 -2 2.58 4.99 0.62 o
0 -3 -5 2 2.58 6.87 0.62 o
-1 3 5 1 16.88 23.09 0.94 o
1 -3 -5 -1 16.88 21.53 0.94 o
0 3 5 -1 8.82 -2.50 3.12 <
0 -3 -5 1 8.82 9.05 1.56 o
-1 3 5 2 0.06 0.94 1.25 <
1 -3 -5 -2 0.06 4.68 1.25 o
0 3 5 0 47.28 2.50 2.81 <
0 -3 -5 0 47.28 -14.04 1.87 <
-5 4 5 1 1.27 -0.31 1.25 <
5 -4 -5 -1 1.27 2.18 1.56 <
-4 4 5 -1 0.65 1.25 1.25 <
4 -4 -5 1 0.65 6.24 1.56 o
-5 4 5 2 0.01 6.55 1.25 o
5 -4 -5 -2 0.01 6.24 1.56 o
-4 4 5 0 2.85 -2.50 1.25 <
4 -4 -5 0 2.85 -3.74 1.25 <
-3 4 5 -2 0.16 0.62 1.25 <
3 -4 -5 2 0.16 0.94 1.25 <
-4 4 5 1 1.03 0.31 1.25 <
4 -4 -5 -1 1.03 2.81 1.25 <
-3 4 5 -1 3.59 4.68 1.25 o
3 -4 -5 1 3.59 3.74 1.25 o
-4 4 5 2 0.87 0.94 1.25 <
4 -4 -5 -2 0.87 3.12 1.25 <
-3 4 5 0 26.78 54.92 1.25 o
3 -4 -5 0 26.78 54.30 1.25 o
-2 4 5 -2 0.04 4.06 0.94 o
2 -4 -5 2 0.04 6.55 0.94 o
-3 4 5 1 7.46 4.06 0.94 o
3 -4 -5 -1 7.46 3.74 0.94 o
-2 4 5 -1 5.88 2.81 0.94 <
2 -4 -5 1 5.88 4.99 0.94 o
-3 4 5 2 5.77 13.11 0.94 o
3 -4 -5 -2 5.77 13.73 0.94 o
-2 4 5 0 5.08 22.47 0.94 o
2 -4 -5 0 5.08 19.97 0.94 o
-1 4 5 -2 3.26 3.43 0.94 o
1 -4 -5 2 3.26 2.81 0.94 <
-2 4 5 1 14.95 7.49 0.94 o
2 -4 -5 -1 14.95 8.74 0.94 o
-1 4 5 -1 8.18 46.50 0.94 o
1 -4 -5 1 8.18 43.38 0.94 o
-2 4 5 2 3.23 13.42 0.94 o
2 -4 -5 -2 3.23 16.85 0.94 o
-1 4 5 0 33.68 18.72 0.94 o
1 -4 -5 0 33.68 20.60 0.94 o
0 4 5 -2 2.35 3.43 0.94 o
0 -4 -5 2 2.35 5.62 0.94 o
-1 4 5 1 7.25 4.68 1.56 <
1 -4 -5 -1 7.25 1.87 1.56 <
0 4 5 -1 9.14 4.37 1.56 <
0 -4 -5 1 9.14 -2.50 1.56 <
1 -4 -5 -2 0.01 6.24 3.43 <
-4 5 5 -2 0.18 4.06 1.56 <
4 -5 -5 2 0.18 -1.87 1.56 <
-5 5 5 1 1.32 0.94 1.25 <
5 -5 -5 -1 1.32 3.74 1.56 <
-4 5 5 -1 1.03 -0.62 1.25 <
4 -5 -5 1 1.03 -1.87 1.25 <
-5 5 5 2 0.01 -0.94 1.25 <
5 -5 -5 -2 0.01 4.06 1.25 o
-4 5 5 0 3.96 0.31 1.25 <
4 -5 -5 0 3.96 4.99 1.25 o
-3 5 5 -2 0.33 0.62 1.25 <
3 -5 -5 2 0.33 -3.12 1.25 <
-4 5 5 1 1.09 1.87 1.25 <
4 -5 -5 -1 1.09 -0.31 1.25 <
-3 5 5 -1 5.78 5.31 1.25 o
3 -5 -5 1 5.78 2.50 1.25 <
-4 5 5 2 0.90 4.06 0.94 o
4 -5 -5 -2 0.90 -1.87 0.94 <
-3 5 5 0 52.16 99.55 1.25 o
3 -5 -5 0 52.16 99.86 1.25 o
-2 5 5 -2 0.06 -0.62 0.94 <
2 -5 -5 2 0.06 0.00 0.94 <
-3 5 5 1 9.00 9.36 0.94 o
3 -5 -5 -1 9.00 8.11 0.94 o
-2 5 5 -1 6.71 3.43 0.94 o
2 -5 -5 1 6.71 4.68 0.94 o
-3 5 5 2 6.05 13.11 0.94 o
3 -5 -5 -2 6.05 14.98 0.94 o
-2 5 5 0 39.13 63.04 1.25 o
2 -5 -5 0 39.13 57.73 1.25 o
-1 5 5 -2 1.91 3.12 0.94 o
1 -5 -5 2 1.91 1.56 0.94 <
-2 5 5 1 7.79 7.80 0.94 o
2 -5 -5 -1 7.79 7.18 0.94 o
-1 5 5 -1 1.83 12.48 0.94 o
1 -5 -5 1 1.83 13.73 0.94 o
-2 5 5 2 3.78 7.18 0.94 o
2 -5 -5 -2 3.78 8.74 0.94 o
-1 5 5 0 25.08 21.22 1.25 o
1 -5 -5 0 25.08 26.21 1.25 o
0 5 5 -2 1.91 -2.50 1.56 <
0 -5 -5 2 1.91 3.12 1.56 <
-1 5 5 1 2.71 5.93 2.81 <
1 -5 -5 -1 2.71 0.62 1.87 <
-5 6 5 0 2.67 1.87 1.56 <
5 -6 -5 0 2.67 3.74 1.56 <
-4 6 5 -2 0.16 2.50 1.25 <
4 -6 -5 2 0.16 0.62 1.56 <
-5 6 5 1 1.14 -4.06 1.25 <
5 -6 -5 -1 1.14 3.12 1.25 <
-4 6 5 -1 1.25 0.00 1.25 <
4 -6 -5 1 1.25 0.94 1.25 <
-5 6 5 2 0.04 -3.12 1.25 <
5 -6 -5 -2 0.04 0.94 1.25 <
-4 6 5 0 3.34 2.81 1.25 <
4 -6 -5 0 3.34 3.43 1.25 <
-3 6 5 -2 0.51 0.00 1.25 <
3 -6 -5 2 0.51 2.50 1.25 <
-4 6 5 1 1.31 1.56 0.94 <
4 -6 -5 -1 1.31 4.06 1.25 o
-3 6 5 -1 8.32 11.55 1.25 o
3 -6 -5 1 8.32 13.11 1.25 o
-4 6 5 2 0.67 0.94 0.94 <
4 -6 -5 -2 0.67 2.18 0.94 <
-3 6 5 0 51.47 162.59 1.56 o
3 -6 -5 0 51.47 179.44 1.56 o
-2 6 5 -2 0.10 -0.62 0.94 <
2 -6 -5 2 0.10 0.62 0.94 <
-3 6 5 1 8.64 1.25 0.94 <
3 -6 -5 -1 8.64 4.37 0.94 o
-2 6 5 -1 10.39 6.24 0.94 o
2 -6 -5 1 10.39 4.68 0.94 o
-3 6 5 2 4.61 3.12 0.94 o
3 -6 -5 -2 4.61 1.56 0.94 <
-2 6 5 0 56.40 77.39 1.25 o
2 -6 -5 0 56.40 73.33 1.25 o
-1 6 5 -2 0.79 -0.31 0.94 <
1 -6 -5 2 0.79 0.62 0.94 <
-2 6 5 1 2.80 6.87 0.94 o
2 -6 -5 -1 2.80 5.93 0.94 o
-1 6 5 -1 0.02 0.62 0.94 <
1 -6 -5 1 0.02 2.50 0.94 <
-2 6 5 2 3.13 5.93 1.25 o
2 -6 -5 -2 3.13 4.99 1.25 o
-1 6 5 0 14.07 0.94 1.87 <
1 -6 -5 0 14.07 -0.31 1.56 <
0 -6 -5 2 1.36 6.24 4.68 <
-5 7 5 0 5.31 -2.18 1.56 <
5 -7 -5 0 5.31 2.50 1.56 <
-4 7 5 -2 0.11 0.31 1.25 <
4 -7 -5 2 0.11 -3.12 1.25 <
-5 7 5 1 0.81 -0.94 1.25 <
5 -7 -5 -1 0.81 3.12 1.25 <
-4 7 5 -1 1.15 -0.94 1.25 <
4 -7 -5 1 1.15 -0.31 1.25 <
-5 7 5 2 0.09 0.62 1.25 <
5 -7 -5 -2 0.09 1.87 1.25 <
-4 7 5 0 5.78 3.12 1.25 <
4 -7 -5 0 5.78 2.81 1.25 <
-3 7 5 -2 0.62 1.56 1.25 <
3 -7 -5 2 0.62 2.81 1.25 <
-4 7 5 1 1.77 1.87 0.94 <
4 -7 -5 -1 1.77 1.56 1.25 <
-3 7 5 -1 9.83 9.67 0.94 o
3 -7 -5 1 9.83 10.92 1.25 o
-4 7 5 2 0.33 -0.62 0.94 <
4 -7 -5 -2 0.33 0.62 0.94 <
-3 7 5 0 48.74 57.73 1.25 o
3 -7 -5 0 48.74 54.92 1.25 o
-2 7 5 -2 0.11 3.43 0.94 o
2 -7 -5 2 0.11 0.00 0.94 <
-3 7 5 1 6.66 1.56 0.94 <
3 -7 -5 -1 6.66 0.62 0.94 <
-2 7 5 -1 13.46 9.36 1.25 o
2 -7 -5 1 13.46 15.29 1.25 o
-3 7 5 2 2.58 1.56 0.94 <
3 -7 -5 -2 2.58 -2.18 0.94 <
-2 7 5 0 145.84 72.09 1.25 o
2 -7 -5 0 145.84 77.08 1.25 o
-1 7 5 -2 0.18 0.00 1.25 <
1 -7 -5 2 0.18 3.74 1.25 o
-2 7 5 1 0.68 1.56 1.25 <
2 -7 -5 -1 0.68 -0.62 1.25 <
-1 7 5 -1 0.52 6.24 1.25 o
1 -7 -5 1 0.52 -0.31 1.87 <
-2 7 5 2 2.02 5.62 3.12 <
2 -7 -5 -2 2.02 -1.87 1.87 <
-6 8 5 2 0.15 1.25 1.56 <
6 -8 -5 -2 0.15 -0.94 1.56 <
-5 8 5 0 8.79 4.99 1.25 o
5 -8 -5 0 8.79 3.74 1.25 o
-4 8 5 -2 0.06 0.62 1.25 <
4 -8 -5 2 0.06 -0.31 1.25 <
-5 8 5 1 0.45 2.50 1.25 <
5 -8 -5 -1 0.45 1.25 1.25 <
-4 8 5 -1 0.80 0.62 1.25 <
4 -8 -5 1 0.80 0.94 1.25 <
-5 8 5 2 0.13 3.74 1.25 o
5 -8 -5 -2 0.13 -0.31 1.25 <
-4 8 5 0 3.50 37.14 1.25 o
4 -8 -5 0 3.50 35.26 1.25 o
-3 8 5 -2 0.59 0.94 1.25 <
3 -8 -5 2 0.59 2.50 1.25 <
-4 8 5 1 2.42 0.00 0.94 <
4 -8 -5 -1 2.42 2.50 1.25 <
-3 8 5 -1 9.34 3.43 0.94 o
3 -8 -5 1 9.34 2.18 1.25 <
-4 8 5 2 0.12 1.56 0.94 <
4 -8 -5 -2 0.12 1.87 0.94 <
-3 8 5 0 16.80 13.42 1.25 o
3 -8 -5 0 16.80 14.98 1.25 o
-2 8 5 -2 0.09 -0.62 1.25 <
2 -8 -5 2 0.09 0.62 0.94 <
-3 8 5 1 4.06 1.56 1.25 <
3 -8 -5 -1 4.06 1.25 1.25 <
-2 8 5 -1 13.58 3.12 1.25 <
2 -8 -5 1 13.58 1.25 1.25 <
-3 8 5 2 1.10 0.31 1.25 <
3 -8 -5 -2 1.10 1.56 1.25 <
-2 8 5 0 119.29 24.65 1.25 o
2 -8 -5 0 119.29 19.35 1.25 o
-1 8 5 -2 0.01 4.06 1.25 o
1 -8 -5 2 0.01 6.87 1.25 o
-2 8 5 1 0.13 -0.94 1.56 <
2 -8 -5 -1 0.13 8.11 2.81 <
1 -8 -5 1 1.36 -5.93 3.74 <
-6 9 5 2 0.12 -0.94 1.25 <
6 -9 -5 -2 0.12 -0.62 1.25 <
-5 9 5 0 13.06 22.78 1.25 o
5 -9 -5 0 13.06 19.66 1.25 o
-4 9 5 -2 0.03 -1.25 1.25 <
4 -9 -5 2 0.03 1.87 1.25 <
-5 9 5 1 0.17 2.18 1.25 <
5 -9 -5 -1 0.17 2.50 1.25 <
-4 9 5 -1 0.39 0.31 1.25 <
4 -9 -5 1 0.39 2.50 1.25 <
-5 9 5 2 0.16 3.12 1.25 <
5 -9 -5 -2 0.16 -0.62 1.25 <
-4 9 5 0 4.88 2.18 1.25 <
4 -9 -5 0 4.88 0.00 1.25 <
-3 9 5 -2 0.45 3.43 1.25 <
3 -9 -5 2 0.45 2.50 1.25 <
-4 9 5 1 3.01 1.25 1.25 <
4 -9 -5 -1 3.01 1.87 1.25 <
-3 9 5 -1 7.20 0.62 1.25 <
3 -9 -5 1 7.20 1.87 1.25 <
-4 9 5 2 0.09 -2.18 1.25 <
4 -9 -5 -2 0.09 0.62 1.25 <
-3 9 5 0 14.95 6.87 1.25 o
3 -9 -5 0 14.95 6.55 1.25 o
-2 9 5 -2 0.05 -1.56 1.25 <
2 -9 -5 2 0.05 -0.62 1.25 <
-3 9 5 1 1.83 1.25 1.25 <
3 -9 -5 -1 1.83 -1.56 1.25 <
-2 9 5 -1 11.21 -3.12 1.25 <
2 -9 -5 1 11.21 3.74 1.25 o
-3 9 5 2 0.40 0.31 1.25 <
3 -9 -5 -2 0.40 -1.87 1.25 <
-2 9 5 0 69.48 1.56 1.25 <
2 -9 -5 0 69.48 1.56 1.25 <
-1 9 5 -2 0.05 1.25 2.81 <
1 -9 -5 2 0.05 0.31 2.18 <
-5 10 5 -1 0.55 0.62 1.25 <
5 -10 -5 1 0.55 1.87 1.25 <
-6 10 5 2 0.09 2.81 1.25 <
6 -10 -5 -2 0.09 3.12 1.25 <
-5 10 5 0 16.81 30.27 1.56 o
5 -10 -5 0 16.81 43.38 1.56 o
-4 10 5 -2 0.05 -0.62 1.25 <
4 -10 -5 2 0.05 -2.81 1.25 <
-5 10 5 1 0.07 0.94 1.25 <
5 -10 -5 -1 0.07 -0.62 1.25 <
-4 10 5 -1 0.10 0.62 1.25 <
4 -10 -5 1 0.10 0.62 1.25 <
-5 10 5 2 0.14 0.62 1.25 <
5 -10 -5 -2 0.14 0.62 1.25 <
-4 10 5 0 2.86 1.56 1.25 <
4 -10 -5 0 2.86 2.18 1.25 <
-3 10 5 -2 0.29 0.94 1.25 <
3 -10 -5 2 0.29 -0.31 1.25 <
-4 10 5 1 3.30 0.00 1.25 <
4 -10 -5 -1 3.30 0.31 1.25 <
-3 10 5 -1 4.56 0.94 1.25 <
3 -10 -5 1 4.56 0.62 1.25 <
-4 10 5 2 0.15 0.00 1.25 <
4 -10 -5 -2 0.15 -0.94 1.25 <
-3 10 5 0 6.12 0.62 1.25 <
3 -10 -5 0 6.12 0.00 1.25 <
-2 10 5 -2 0.02 0.31 1.25 <
2 -10 -5 2 0.02 0.62 1.25 <
-3 10 5 1 0.47 4.06 1.25 o
3 -10 -5 -1 0.47 1.56 1.25 <
-2 10 5 -1 7.94 -2.18 1.25 <
2 -10 -5 1 7.94 -2.50 1.25 <
-3 10 5 2 0.18 1.87 1.56 <
3 -10 -5 -2 0.18 3.74 1.25 o
-2 10 5 0 43.73 3.12 4.06 <
2 -10 -5 0 43.73 -0.94 3.12 <
-5 11 5 -1 0.72 3.43 1.25 <
5 -11 -5 1 0.72 5.62 1.25 o
-6 11 5 2 0.06 -0.62 1.25 <
6 -11 -5 -2 0.06 -1.56 1.25 <
-5 11 5 0 14.64 21.22 1.25 o
5 -11 -5 0 14.64 24.65 1.25 o
-4 11 5 -2 0.11 0.00 1.25 <
4 -11 -5 2 0.11 0.31 1.25 <
-5 11 5 1 0.16 -0.31 1.25 <
5 -11 -5 -1 0.16 -2.50 1.25 <
-4 11 5 -1 0.01 1.25 1.25 <
4 -11 -5 1 0.01 2.81 1.25 <
-5 11 5 2 0.11 -0.31 1.25 <
5 -11 -5 -2 0.11 -0.62 1.25 <
-4 11 5 0 3.09 -0.94 1.25 <
4 -11 -5 0 3.09 0.94 1.25 <
-3 11 5 -2 0.18 -2.18 1.25 <
3 -11 -5 2 0.18 0.62 1.25 <
-4 11 5 1 3.19 2.50 1.25 <
4 -11 -5 -1 3.19 0.62 1.25 <
-3 11 5 -1 2.42 -2.18 1.25 <
3 -11 -5 1 2.42 -0.94 1.25 <
-4 11 5 2 0.18 -1.25 1.25 <
4 -11 -5 -2 0.18 -2.18 1.25 <
-3 11 5 0 2.55 -0.94 1.25 <
3 -11 -5 0 2.55 0.31 1.25 <
-2 11 5 -2 0.01 -1.87 1.25 <
2 -11 -5 2 0.01 1.56 1.25 <
-3 11 5 1 0.01 2.81 1.25 <
3 -11 -5 -1 0.01 6.87 1.25 o
-2 11 5 -1 4.95 2.18 2.81 <
2 -11 -5 1 4.95 7.18 1.56 o
-3 11 5 2 0.16 1.25 5.31 <
3 -11 -5 -2 0.16 3.43 7.18 <
-5 12 5 -1 0.75 5.93 1.25 o
5 -12 -5 1 0.75 4.68 1.25 o
-6 12 5 2 0.06 1.87 1.25 <
6 -12 -5 -2 0.06 2.50 1.25 <
-5 12 5 0 10.75 9.67 1.25 o
5 -12 -5 0 10.75 8.74 1.25 o
-4 12 5 -2 0.18 1.87 1.25 <
4 -12 -5 2 0.18 2.18 1.25 <
-5 12 5 1 0.35 -0.31 1.25 <
5 -12 -5 -1 0.35 0.00 1.25 <
-4 12 5 -1 0.05 0.62 1.25 <
4 -12 -5 1 0.05 0.62 1.25 <
-5 12 5 2 0.06 0.94 1.25 <
5 -12 -5 -2 0.06 -0.31 1.25 <
-4 12 5 0 3.82 3.12 1.25 <
4 -12 -5 0 3.82 1.87 1.25 <
-3 12 5 -2 0.12 1.87 1.25 <
3 -12 -5 2 0.12 2.18 1.25 <
-4 12 5 1 2.74 0.62 1.25 <
4 -12 -5 -1 2.74 1.56 1.25 <
-3 12 5 -1 1.14 0.00 1.25 <
3 -12 -5 1 1.14 0.62 1.25 <
-4 12 5 2 0.15 -1.87 1.25 <
4 -12 -5 -2 0.15 6.55 1.25 o
-3 12 5 0 0.57 0.94 1.25 <
3 -12 -5 0 0.57 -0.31 1.25 <
-2 12 5 -2 0.01 2.18 1.56 <
2 -12 -5 2 0.01 1.56 1.25 <
-3 12 5 1 0.14 -3.43 1.87 <
3 -12 -5 -1 0.14 0.62 2.18 <
-2 12 5 -1 2.72 -6.55 7.49 <
-6 13 5 2 0.08 2.50 1.25 <
6 -13 -5 -2 0.08 2.50 1.25 <
-5 13 5 0 7.35 2.81 1.56 <
5 -13 -5 0 7.35 1.87 1.25 <
-4 13 5 -2 0.22 2.18 1.25 <
4 -13 -5 2 0.22 -1.87 1.25 <
-5 13 5 1 0.53 -0.94 1.25 <
5 -13 -5 -1 0.53 2.50 1.25 <
-4 13 5 -1 0.14 3.12 1.25 <
4 -13 -5 1 0.14 1.87 1.25 <
-5 13 5 2 0.03 0.94 1.25 <
5 -13 -5 -2 0.03 0.00 1.56 <
-4 13 5 0 2.80 2.81 1.25 <
4 -13 -5 0 2.80 -0.94 1.56 <
-3 13 5 -2 0.10 0.31 1.25 <
3 -13 -5 2 0.10 2.50 1.56 <
-4 13 5 1 2.08 -0.94 1.25 <
4 -13 -5 -1 2.08 -0.62 1.56 <
-3 13 5 -1 0.59 6.55 1.25 o
3 -13 -5 1 0.59 2.50 1.56 <
-4 13 5 2 0.10 0.31 1.25 <
4 -13 -5 -2 0.10 -1.56 1.56 <
-3 13 5 0 1.83 -2.50 3.74 <
3 -13 -5 0 1.83 5.31 1.56 o
-2 13 5 -2 0.03 -0.62 2.18 <
2 -13 -5 2 0.03 4.68 4.37 <
-3 13 5 1 0.45 18.41 10.30 <
-6 14 5 2 0.11 -1.25 1.56 <
6 -14 -5 -2 0.11 -0.31 1.56 <
-5 14 5 0 3.97 1.25 1.56 <
5 -14 -5 0 3.97 0.62 1.56 <
-4 14 5 -2 0.22 -0.94 1.56 <
4 -14 -5 2 0.22 -3.43 1.56 <
-5 14 5 1 0.59 -0.94 1.56 <
5 -14 -5 -1 0.59 1.56 1.56 <
-4 14 5 -1 0.21 -0.31 1.56 <
4 -14 -5 1 0.21 2.81 1.56 <
-5 14 5 2 0.02 -0.62 1.56 <
5 -14 -5 -2 0.02 5.31 1.56 o
-4 14 5 0 1.34 -2.81 1.56 <
4 -14 -5 0 1.34 -1.25 1.56 <
-3 14 5 -2 0.08 1.25 1.56 <
3 -14 -5 2 0.08 2.81 1.56 <
-4 14 5 1 1.37 0.62 1.56 <
4 -14 -5 -1 1.37 1.25 1.56 <
-3 14 5 -1 0.46 -5.62 2.18 <
3 -14 -5 1 0.46 -0.62 1.56 <
-4 14 5 2 0.05 -0.31 2.18 <
4 -14 -5 -2 0.05 -7.80 1.87 <
-3 14 5 0 2.61 2.50 2.18 <
3 -14 -5 0 2.61 25.28 9.99 <
-4 15 5 -2 0.18 -3.43 2.18 <
4 -15 -5 2 0.18 3.12 2.18 <
-5 15 5 1 0.52 -0.94 1.56 <
5 -15 -5 -1 0.52 0.62 1.56 <
-4 15 5 -1 0.21 -2.81 1.56 <
4 -15 -5 1 0.21 3.43 1.56 <
-5 15 5 2 0.02 -4.37 1.56 <
5 -15 -5 -2 0.02 2.18 1.56 <
-4 15 5 0 0.95 4.68 1.56 <
4 -15 -5 0 0.95 0.94 1.56 <
-3 15 5 -2 0.07 0.62 1.56 <
3 -15 -5 2 0.07 -0.62 1.56 <
-4 15 5 1 0.77 -6.24 4.99 <
4 -15 -5 -1 0.77 3.43 1.56 <
-3 15 5 -1 0.47 -9.36 2.18 <
3 -15 -5 1 0.47 0.62 2.81 <
-4 15 5 2 0.02 2.81 2.50 <
-3 14 -6 -1 0.75 2.50 2.50 <
-4 13 -6 2 0.13 2.18 2.18 <
3 -13 6 1 0.74 3.74 2.18 <
-3 13 -6 -1 0.74 1.56 1.87 <
4 -13 6 -1 0.14 -3.43 1.87 <
-4 13 -6 1 0.14 -1.25 1.87 <
3 -13 6 2 0.01 -3.74 1.87 <
-3 13 -6 -2 0.01 2.18 1.87 <
3 -12 6 0 4.85 6.87 6.87 <
-3 12 -6 0 4.85 0.62 1.87 <
4 -12 6 -2 0.19 -2.50 1.87 <
-4 12 -6 2 0.19 1.56 1.87 <
3 -12 6 1 0.60 1.56 1.87 <
-3 12 -6 -1 0.60 -0.94 1.87 <
4 -12 6 -1 0.33 0.62 1.87 <
-4 12 -6 1 0.33 -2.81 1.87 <
3 -12 6 2 0.01 1.56 1.87 <
-3 12 -6 -2 0.01 -0.94 1.87 <
4 -12 6 0 1.13 -1.25 1.87 <
-4 12 -6 0 1.13 2.81 1.87 <
-3 11 -6 1 0.75 -1.25 9.99 <
2 -11 6 2 0.34 1.87 3.74 <
-2 11 -6 -2 0.34 0.31 1.56 <
3 -11 6 0 3.98 -2.18 1.87 <
-3 11 -6 0 3.98 -1.87 1.56 <
4 -11 6 -2 0.25 0.62 1.87 <
-4 11 -6 2 0.25 2.81 1.56 <
3 -11 6 1 0.37 2.18 1.87 <
-3 11 -6 -1 0.37 1.87 1.56 <
4 -11 6 -1 0.52 2.50 1.87 <
-4 11 -6 1 0.52 0.94 1.56 <
3 -11 6 2 0.02 0.94 1.87 <
-3 11 -6 -2 0.02 -0.62 1.56 <
4 -11 6 0 1.30 0.62 1.87 <
-4 11 -6 0 1.30 -1.56 1.56 <
5 -11 6 -2 0.21 0.62 0.94 <
-5 11 -6 2 0.21 3.12 1.87 <
-2 10 -6 -1 0.36 -10.92 7.18 <
3 -10 6 -1 0.51 -1.56 2.50 <
-3 10 -6 1 0.51 1.25 1.56 <
2 -10 6 2 0.53 0.94 1.56 <
-2 10 -6 -2 0.53 -1.25 1.56 <
3 -10 6 0 2.83 -0.62 1.56 <
-3 10 -6 0 2.83 5.93 1.56 o
4 -10 6 -2 0.32 0.00 1.56 <
-4 10 -6 2 0.32 -0.31 1.56 <
3 -10 6 1 0.18 0.94 1.56 <
-3 10 -6 -1 0.18 -0.94 1.56 <
4 -10 6 -1 0.60 -0.62 1.56 <
-4 10 -6 1 0.60 0.31 1.56 <
3 -10 6 2 0.05 5.31 2.18 <
-3 10 -6 -2 0.05 -6.24 1.56 <
4 -10 6 0 1.63 -2.18 0.94 <
-4 10 -6 0 1.63 1.56 1.56 <
5 -10 6 -2 0.20 1.87 0.94 <
-5 10 -6 2 0.20 -1.25 0.94 <
-3 9 -6 2 0.05 2.18 4.37 <
2 -9 6 1 0.24 -0.62 1.87 <
-2 9 -6 -1 0.24 0.31 1.56 <
3 -9 6 -1 0.42 -2.18 1.56 <
-3 9 -6 1 0.42 1.87 1.56 <
2 -9 6 2 0.75 3.43 1.56 <
-2 9 -6 -2 0.75 1.56 1.56 <
3 -9 6 0 2.27 1.87 1.56 <
-3 9 -6 0 2.27 0.31 1.56 <
4 -9 6 -2 0.35 -1.56 4.68 <
-4 9 -6 2 0.35 2.81 1.56 <
3 -9 6 1 0.17 -0.31 1.25 <
-3 9 -6 -1 0.17 1.56 1.56 <
4 -9 6 -1 0.51 1.87 0.94 <
-4 9 -6 1 0.51 0.94 1.56 <
3 -9 6 2 0.10 2.18 0.94 <
-3 9 -6 -2 0.10 1.25 0.94 <
4 -9 6 0 2.21 -3.74 5.62 <
-4 9 -6 0 2.21 1.25 0.94 <
-2 8 -6 0 35.83 0.31 3.12 <
3 -8 6 -2 0.00 2.81 1.56 <
-3 8 -6 2 0.00 0.94 1.25 <
2 -8 6 1 0.17 -2.18 1.25 <
-2 8 -6 -1 0.17 -0.94 1.25 <
3 -8 6 -1 0.82 2.81 1.56 <
-3 8 -6 1 0.82 -0.31 1.25 <
2 -8 6 2 0.91 3.43 0.94 o
-2 8 -6 -2 0.91 1.56 1.25 <
3 -8 6 0 2.11 2.18 0.94 <
-3 8 -6 0 2.11 1.87 1.25 <
4 -8 6 -2 0.35 1.87 0.94 <
-4 8 -6 2 0.35 0.62 0.62 <
3 -8 6 1 0.38 -0.62 0.94 <
-3 8 -6 -1 0.38 -0.62 0.94 <
4 -8 6 -1 0.32 3.43 1.56 <
-4 8 -6 1 0.32 0.62 0.94 <
3 -8 6 2 0.14 5.62 1.56 o
-3 8 -6 -2 0.14 -0.62 2.81 <
4 -8 6 0 3.00 4.99 1.87 <
-4 8 -6 0 3.00 5.31 1.56 o
1 -7 6 2 0.94 -8.74 4.99 <
-1 7 -6 -2 0.94 0.31 2.18 <
2 -7 6 0 48.42 10.92 1.25 o
-2 7 -6 0 48.42 10.30 4.06 <
3 -7 6 -2 0.03 1.87 0.62 o
-3 7 -6 2 0.03 -3.12 1.25 <
2 -7 6 1 0.18 2.18 0.62 o
-2 7 -6 -1 0.18 0.94 0.62 <
3 -7 6 -1 1.81 0.62 0.62 <
-3 7 -6 1 1.81 0.94 0.62 <
2 -7 6 2 0.93 1.25 0.62 <
-2 7 -6 -2 0.93 1.87 0.62 o
3 -7 6 0 4.66 1.87 0.62 o
-3 7 -6 0 4.66 1.25 0.62 <
4 -7 6 -2 0.30 3.43 1.56 <
-4 7 -6 2 0.30 1.56 0.62 <
3 -7 6 1 0.72 0.31 1.56 <
-3 7 -6 -1 0.72 3.12 1.25 <
4 -7 6 -1 0.12 4.06 1.56 <
-4 7 -6 1 0.12 2.81 1.56 <
3 -7 6 2 0.15 19.35 1.56 o
-3 7 -6 -2 0.15 -3.12 1.56 <
4 -7 6 0 3.68 4.06 1.87 <
-4 7 -6 0 3.68 1.56 1.56 <
1 -6 6 0 34.19 39.01 7.49 o
2 -6 6 -2 0.45 -0.31 1.87 <
-2 6 -6 2 0.45 0.62 5.93 <
1 -6 6 1 0.98 5.62 1.25 o
-1 6 -6 -1 0.98 0.00 1.87 <
2 -6 6 -1 18.36 -1.25 1.87 <
-2 6 -6 1 18.36 0.94 0.94 <
1 -6 6 2 0.76 0.62 0.62 <
-1 6 -6 -2 0.76 0.62 0.62 <
2 -6 6 0 57.23 63.97 0.62 o
-2 6 -6 0 57.23 62.10 0.62 o
3 -6 6 -2 0.13 0.62 0.62 <
-3 6 -6 2 0.13 1.25 0.62 <
2 -6 6 1 0.26 3.12 0.62 o
-2 6 -6 -1 0.26 1.87 0.62 o
3 -6 6 -1 3.05 1.87 0.62 o
-3 6 -6 1 3.05 0.62 0.62 <
2 -6 6 2 0.80 0.31 0.62 <
-2 6 -6 -2 0.80 2.18 0.62 o
3 -6 6 0 5.99 1.87 1.25 <
-3 6 -6 0 5.99 7.18 0.94 o
4 -6 6 -2 0.24 -0.62 1.56 <
-4 6 -6 2 0.24 0.94 1.25 <
3 -6 6 1 1.01 3.12 1.56 <
-3 6 -6 -1 1.01 0.94 1.56 <
4 -6 6 -1 0.02 0.31 1.56 <
-4 6 -6 1 0.02 1.87 1.56 <
3 -6 6 2 0.14 4.37 1.56 <
-3 6 -6 -2 0.14 -3.12 1.56 <
1 -5 6 -2 1.90 6.24 7.18 <
0 -5 6 1 17.77 1.25 2.50 <
0 5 -6 -1 17.77 8.43 5.93 <
1 -5 6 -1 15.40 12.17 1.56 o
-1 5 -6 1 15.40 12.17 1.87 o
0 -5 6 2 0.19 1.87 1.25 <
0 5 -6 -2 0.19 -2.50 1.25 <
1 -5 6 0 25.53 10.30 1.25 o
-1 5 -6 0 25.53 6.87 1.25 o
2 -5 6 -2 0.54 6.55 0.94 o
-2 5 -6 2 0.54 1.87 0.94 <
1 -5 6 1 0.10 2.18 0.94 <
-1 5 -6 -1 0.10 0.31 0.62 <
2 -5 6 -1 17.95 6.55 0.62 o
-2 5 -6 1 17.95 7.80 0.62 o
1 -5 6 2 0.65 2.81 0.62 o
-1 5 -6 -2 0.65 2.18 0.62 o
2 -5 6 0 81.06 93.62 0.62 o
-2 5 -6 0 81.06 96.12 0.62 o
3 -5 6 -2 0.22 0.94 0.62 <
-3 5 -6 2 0.22 4.06 0.62 o
2 -5 6 1 0.39 4.99 0.62 o
-2 5 -6 -1 0.39 0.62 0.62 <
3 -5 6 -1 3.93 -0.62 1.56 <
-3 5 -6 1 3.93 0.62 0.62 <
2 -5 6 2 0.58 4.68 1.25 o
-2 5 -6 -2 0.58 0.94 1.87 <
3 -5 6 0 3.82 2.50 1.56 <
-3 5 -6 0 3.82 8.43 1.25 o
4 -5 6 -2 0.17 -2.81 1.56 <
-4 5 -6 2 0.17 -5.62 1.25 <
3 -5 6 1 1.12 0.62 1.56 <
-3 5 -6 -1 1.12 -5.62 1.56 <
4 -5 6 -1 0.03 7.18 1.56 o
-4 5 -6 1 0.03 -2.81 1.56 <
2 4 -6 2 0.07 1.87 2.50 <
3 4 -6 -1 0.79 0.62 2.50 <
2 4 -6 1 2.64 5.31 3.12 <
3 4 -6 -2 0.16 -2.50 4.68 <
2 4 -6 0 5.33 -1.56 7.80 <
-1 -4 6 1 1.70 7.18 7.18 <
0 -4 6 -1 0.77 -3.74 2.50 <
0 4 -6 1 0.77 0.31 5.31 <
-1 -4 6 2 1.18 2.50 1.56 <
1 4 -6 -2 1.18 0.62 2.18 <
0 -4 6 0 71.23 9.05 1.56 o
0 4 -6 0 71.23 4.68 1.56 <
1 -4 6 -2 2.31 1.56 1.25 <
-1 4 -6 2 2.31 7.18 1.25 o
0 -4 6 1 27.34 16.23 1.25 o
0 4 -6 -1 27.34 9.36 1.25 o
1 -4 6 -1 12.49 17.79 1.25 o
-1 4 -6 1 12.49 13.73 1.25 o
0 -4 6 2 0.41 -0.31 0.94 <
0 4 -6 -2 0.41 2.81 0.94 <
1 -4 6 0 29.00 15.29 0.94 o
-1 4 -6 0 29.00 9.67 0.94 o
2 -4 6 -2 0.60 1.25 0.62 <
-2 4 -6 2 0.60 0.62 0.62 <
1 -4 6 1 0.67 1.56 0.62 <
-1 4 -6 -1 0.67 2.18 0.62 o
2 -4 6 -1 14.89 17.48 0.62 o
-2 4 -6 1 14.89 17.48 0.62 o
1 -4 6 2 0.63 1.25 0.62 <
-1 4 -6 -2 0.63 1.25 0.62 <
2 -4 6 0 55.74 71.77 0.62 o
-2 4 -6 0 55.74 86.75 0.94 o
3 -4 6 -2 0.26 1.87 0.62 o
-3 4 -6 2 0.26 1.25 0.62 <
2 -4 6 1 0.49 0.62 1.25 <
-2 4 -6 -1 0.49 0.00 1.25 <
3 -4 6 -1 4.06 1.25 1.25 <
-3 4 -6 1 4.06 -1.25 1.25 <
2 -4 6 2 0.39 0.00 1.25 <
-2 4 -6 -2 0.39 -0.62 1.25 <
3 -4 6 0 4.24 -1.87 1.56 <
-3 4 -6 0 4.24 2.18 1.25 <
4 -4 6 -2 0.12 2.18 1.56 <
-4 4 -6 2 0.12 2.50 1.56 <
3 -4 6 1 1.01 3.74 1.87 <
-3 4 -6 -1 1.01 -4.68 1.56 <
4 -4 6 -1 0.10 -4.37 1.87 <
-4 4 -6 1 0.10 -0.62 1.56 <
-3 -3 6 0 2.84 3.12 2.18 <
3 3 -6 0 2.84 -0.31 2.18 <
-2 -3 6 -2 0.07 0.00 2.18 <
2 3 -6 2 0.07 3.74 2.18 <
-3 -3 6 1 1.35 -1.25 2.18 <
3 3 -6 -1 1.35 0.00 2.18 <
-2 -3 6 -1 3.21 -1.25 2.18 <
2 3 -6 1 3.21 -3.74 2.18 <
-3 -3 6 2 0.28 0.31 2.18 <
3 3 -6 -2 0.28 -5.31 1.87 <
-2 -3 6 0 1.92 -7.80 2.50 <
2 3 -6 0 1.92 4.37 1.87 <
-1 -3 6 -2 0.08 0.31 2.81 <
1 3 -6 2 0.08 5.31 1.87 <
-2 -3 6 1 0.93 1.25 3.43 <
2 3 -6 -1 0.93 -2.50 1.87 <
-1 -3 6 -1 11.45 -7.49 3.74 <
1 3 -6 1 11.45 2.50 2.18 <
-2 -3 6 2 1.11 -3.43 2.50 <
2 3 -6 -2 1.11 -1.25 3.43 <
-1 -3 6 0 168.37 7.18 1.87 o
1 3 -6 0 168.37 4.99 3.12 <
0 -3 6 -2 1.92 -1.56 1.56 <
0 3 -6 2 1.92 0.31 1.56 <
-1 -3 6 1 4.64 1.25 1.25 <
1 3 -6 -1 4.64 0.00 1.25 <
0 -3 6 -1 3.39 2.50 1.25 <
0 3 -6 1 3.39 -0.62 1.25 <
-1 -3 6 2 1.22 3.74 1.25 o
1 3 -6 -2 1.22 -2.18 1.25 <
0 -3 6 0 102.08 35.58 1.56 o
0 3 -6 0 102.08 35.58 1.56 o
1 -3 6 -2 2.90 0.00 1.25 <
-1 3 -6 2 2.90 -0.31 1.25 <
0 -3 6 1 35.85 53.99 1.25 o
0 3 -6 -1 35.85 49.31 1.25 o
1 -3 6 -1 7.84 1.56 0.94 <
-1 3 -6 1 7.84 4.06 0.94 o
0 -3 6 2 0.57 2.81 0.94 <
0 3 -6 -2 0.57 -1.56 0.94 <
1 -3 6 0 17.87 3.12 0.62 o
-1 3 -6 0 17.87 0.94 0.62 <
2 -3 6 -2 0.67 1.87 0.62 o
-2 3 -6 2 0.67 2.81 0.62 o
1 -3 6 1 2.23 7.18 0.62 o
-1 3 -6 -1 2.23 5.31 0.62 o
2 -3 6 -1 10.99 3.43 0.62 o
-2 3 -6 1 10.99 5.62 0.62 o
1 -3 6 2 0.68 3.12 0.62 o
-1 3 -6 -2 0.68 1.56 0.62 <
2 -3 6 0 30.59 3.74 1.56 <
-2 3 -6 0 30.59 0.94 0.62 <
3 -3 6 -2 0.22 4.06 1.25 o
-3 3 -6 2 0.22 0.94 1.25 <
2 -3 6 1 0.51 0.00 1.25 <
-2 3 -6 -1 0.51 0.00 1.25 <
3 -3 6 -1 3.45 1.25 1.25 <
-3 3 -6 1 3.45 -1.25 1.25 <
2 -3 6 2 0.28 0.31 1.56 <
-2 3 -6 -2 0.28 -4.99 1.25 <
3 -3 6 0 4.16 0.00 1.56 <
-3 3 -6 0 4.16 5.62 1.56 o
4 -3 6 -2 0.09 2.50 1.56 <
-4 3 -6 2 0.09 -0.62 1.56 <
3 -3 6 1 0.76 6.24 1.87 o
-3 3 -6 -1 0.76 0.94 1.56 <
-4 -2 6 2 0.05 1.87 2.18 <
4 2 -6 -2 0.05 2.18 2.18 <
-3 -2 6 0 3.11 2.18 1.87 <
3 2 -6 0 3.11 -3.43 2.18 <
-2 -2 6 -2 0.07 -3.12 1.87 <
2 2 -6 2 0.07 -1.56 1.87 <
-3 -2 6 1 2.13 0.00 1.87 <
3 2 -6 -1 2.13 0.00 1.87 <
-2 -2 6 -1 3.52 3.12 4.37 <
2 2 -6 1 3.52 3.12 1.87 <
-3 -2 6 2 0.53 -1.56 2.18 <
3 2 -6 -2 0.53 -1.56 1.87 <
-2 -2 6 0 2.41 2.50 1.25 <
2 2 -6 0 2.41 -3.74 3.43 <
-1 -2 6 -2 0.05 0.62 1.25 <
1 2 -6 2 0.05 2.81 1.56 <
-2 -2 6 1 1.50 -0.62 1.25 <
2 2 -6 -1 1.50 2.18 1.25 <
-1 -2 6 -1 17.10 4.99 1.25 o
1 2 -6 1 17.10 9.36 1.25 o
-2 -2 6 2 1.81 -2.81 1.25 <
2 2 -6 -2 1.81 -0.62 1.25 <
-1 -2 6 0 106.77 54.30 1.25 o
1 2 -6 0 106.77 43.69 1.25 o
0 -2 6 -2 3.76 0.31 0.94 <
0 2 -6 2 3.76 3.74 0.94 o
-1 -2 6 1 9.28 7.49 1.25 o
1 2 -6 -1 9.28 4.99 0.94 o
0 -2 6 -1 7.87 5.93 0.94 o
0 2 -6 1 7.87 4.37 0.94 o
-1 -2 6 2 1.29 -0.31 1.25 <
1 2 -6 -2 1.29 -0.62 0.94 <
0 -2 6 0 127.57 45.25 2.18 o
0 2 -6 0 127.57 47.12 1.25 o
1 -2 6 -2 3.50 3.43 1.25 <
-1 2 -6 2 3.50 5.93 1.87 o
0 -2 6 1 38.93 83.63 1.25 o
0 2 -6 -1 38.93 65.85 1.25 o
1 -2 6 -1 4.45 4.68 0.94 o
-1 2 -6 1 4.45 -0.31 3.43 <
0 -2 6 2 0.55 1.87 0.62 o
0 2 -6 -2 0.55 3.12 0.62 o
1 -2 6 0 14.22 16.85 0.62 o
-1 2 -6 0 14.22 23.40 0.62 o
2 -2 6 -2 0.82 -0.62 0.62 <
-2 2 -6 2 0.82 -0.62 0.62 <
1 -2 6 1 4.15 3.43 0.62 o
-1 2 -6 -1 4.15 0.94 0.62 <
2 -2 6 -1 7.45 0.62 0.62 <
-2 2 -6 1 7.45 2.50 0.62 o
1 -2 6 2 0.73 1.87 0.94 <
-1 2 -6 -2 0.73 2.81 1.25 <
2 -2 6 0 19.96 4.06 1.25 o
-2 2 -6 0 19.96 2.50 1.25 <
3 -2 6 -2 0.15 4.99 1.25 o
-3 2 -6 2 0.15 0.94 1.25 <
2 -2 6 1 0.41 2.81 1.25 <
-2 2 -6 -1 0.41 2.18 1.25 <
3 -2 6 -1 2.47 -0.31 1.56 <
-3 2 -6 1 2.47 0.62 1.25 <
2 -2 6 2 0.24 1.25 1.56 <
-2 2 -6 -2 0.24 1.87 1.56 <
3 -2 6 0 2.84 -1.56 1.56 <
-3 2 -6 0 2.84 0.94 1.56 <
4 -2 6 -2 0.07 2.81 1.87 <
-4 2 -6 2 0.07 -0.31 1.56 <
-4 -1 6 1 1.08 -2.81 2.18 <
4 1 -6 -1 1.08 0.31 2.18 <
-3 -1 6 -1 0.25 1.25 2.18 <
3 1 -6 1 0.25 0.94 2.18 <
-4 -1 6 2 0.06 6.24 2.81 <
4 1 -6 -2 0.06 0.94 2.18 <
-3 -1 6 0 2.19 -2.81 1.56 <
3 1 -6 0 2.19 0.62 1.87 <
-2 -1 6 -2 0.07 0.31 1.25 <
2 1 -6 2 0.07 -0.94 3.74 <
-3 -1 6 1 3.08 3.12 1.25 <
3 1 -6 -1 3.08 2.50 1.56 <
-2 -1 6 -1 3.65 0.62 1.25 <
2 1 -6 1 3.65 0.31 1.25 <
-3 -1 6 2 1.00 0.94 1.25 <
3 1 -6 -2 1.00 2.50 1.25 <
-2 -1 6 0 11.97 1.25 1.25 <
2 1 -6 0 11.97 2.81 1.25 <
-1 -1 6 -2 0.01 2.50 1.25 <
1 1 -6 2 0.01 2.18 1.25 <
-2 -1 6 1 3.94 1.87 1.25 <
2 1 -6 -1 3.94 0.62 1.25 <
-1 -1 6 -1 20.76 16.54 1.25 o
1 1 -6 1 20.76 20.91 1.25 o
-2 -1 6 2 3.85 0.62 0.94 <
2 1 -6 -2 3.85 1.25 0.94 <
-1 -1 6 0 114.95 150.73 1.56 o
1 1 -6 0 114.95 149.79 1.56 o
0 -1 6 -2 5.86 1.56 0.94 <
0 1 -6 2 5.86 2.50 0.94 <
-1 -1 6 1 14.30 18.10 0.94 o
1 1 -6 -1 14.30 16.23 0.94 o
0 -1 6 -1 11.95 9.36 0.62 o
0 1 -6 1 11.95 6.24 0.62 o
-1 -1 6 2 1.54 5.62 0.62 o
1 1 -6 -2 1.54 2.50 0.62 o
0 -1 6 0 223.28 253.40 1.25 o
0 1 -6 0 223.28 243.10 1.25 o
1 -1 6 -2 3.64 2.81 0.62 o
-1 1 -6 2 3.64 0.62 0.62 <
0 -1 6 1 33.80 93.62 0.62 o
0 1 -6 -1 33.80 92.37 0.62 o
1 -1 6 -1 4.09 8.43 0.62 o
-1 1 -6 1 4.09 6.87 1.87 o
0 -1 6 2 0.33 0.62 0.62 <
0 1 -6 -2 0.33 -2.50 0.94 <
1 -1 6 0 19.97 7.80 0.62 o
-1 1 -6 0 19.97 8.11 0.94 o
2 -1 6 -2 1.04 9.67 0.62 o
-2 1 -6 2 1.04 2.81 0.94 <
1 -1 6 1 5.88 2.50 1.56 <
-1 1 -6 -1 5.88 3.12 0.94 o
2 -1 6 -1 4.80 0.94 0.94 <
-2 1 -6 1 4.80 1.25 1.25 <
1 -1 6 2 0.72 0.00 1.25 <
-1 1 -6 -2 0.72 -0.62 1.25 <
2 -1 6 0 6.88 2.18 1.25 <
-2 1 -6 0 6.88 -0.62 1.25 <
3 -1 6 -2 0.08 -1.56 1.56 <
-3 1 -6 2 0.08 -1.87 1.25 <
2 -1 6 1 0.27 1.25 1.56 <
-2 1 -6 -1 0.27 2.81 1.56 <
3 -1 6 -1 1.50 -0.31 1.56 <
-3 1 -6 1 1.50 1.87 1.56 <
2 -1 6 2 0.23 -0.31 1.87 <
-2 1 -6 -2 0.23 -2.81 1.56 <
3 -1 6 0 1.76 0.31 1.87 <
-3 1 -6 0 1.76 0.62 1.56 <
-3 0 6 -2 0.31 2.50 1.56 <
3 0 -6 2 0.31 -0.94 2.18 <
-4 0 6 1 1.87 1.87 1.56 <
4 0 -6 -1 1.87 -0.31 5.31 <
-3 0 6 -1 0.61 2.50 1.25 <
3 0 -6 1 0.61 11.55 2.18 o
-4 0 6 2 0.05 -0.31 1.25 <
4 0 -6 -2 0.05 -2.81 1.56 <
-3 0 6 0 2.58 -2.50 1.25 <
3 0 -6 0 2.58 -1.25 1.25 <
-2 0 6 -2 0.13 3.12 1.25 <
2 0 -6 2 0.13 -0.94 1.25 <
-3 0 6 1 3.93 -0.31 1.25 <
3 0 -6 -1 3.93 0.62 1.25 <
-2 0 6 -1 4.29 -1.87 1.25 <
2 0 -6 1 4.29 -2.81 1.25 <
-3 0 6 2 1.69 3.43 1.25 <
3 0 -6 -2 1.69 2.81 1.25 <
-2 0 6 0 22.49 6.87 1.25 o
2 0 -6 0 22.49 4.68 1.25 o
-1 0 6 -2 0.02 -0.31 0.94 <
1 0 -6 2 0.02 -0.62 0.94 <
-2 0 6 1 9.81 4.68 0.94 o
2 0 -6 -1 9.81 4.68 0.94 o
-1 0 6 -1 18.67 72.40 1.25 o
1 0 -6 1 18.67 72.09 1.25 o
-2 0 6 2 8.06 11.55 0.94 o
2 0 -6 -2 8.06 12.79 0.94 o
-1 0 6 0 55.14 47.12 0.94 o
1 0 -6 0 55.14 42.75 0.94 o
0 0 6 -2 7.12 11.86 0.62 o
0 0 -6 2 7.12 11.86 0.62 o
-1 0 6 1 16.86 6.24 0.62 o
1 0 -6 -1 16.86 6.24 0.62 o
0 0 6 -1 11.96 6.87 0.62 o
0 0 -6 1 11.96 7.80 0.62 o
-1 0 6 2 2.11 3.12 0.62 o
1 0 -6 -2 2.11 1.56 0.62 <
0 0 6 0 152.23 246.22 0.94 o
0 0 -6 0 152.23 247.78 0.94 o
1 0 6 -2 3.18 9.36 0.62 o
-1 0 -6 2 3.18 4.68 0.62 o
0 0 6 1 22.71 82.70 1.56 o
0 0 -6 -1 22.71 87.38 1.56 o
1 0 6 -1 5.62 13.11 1.25 o
-1 0 -6 1 5.62 19.66 1.25 o
0 0 6 2 0.11 -1.56 1.25 <
0 0 -6 -2 0.11 0.94 1.25 <
1 0 6 0 36.34 -3.12 1.56 <
-1 0 -6 0 36.34 4.68 1.25 o
-2 0 -6 2 1.18 -2.81 3.74 <
2 0 6 -1 3.21 8.11 4.37 <
1 0 6 2 0.62 -4.06 2.81 <
2 0 6 0 1.13 -4.37 1.87 <
3 0 6 -2 0.03 1.87 1.87 <
-3 0 -6 2 0.03 4.68 7.18 <
2 0 6 1 0.14 2.50 1.87 <
-2 0 -6 -1 0.14 -4.99 4.68 <
3 0 6 -1 0.80 6.87 1.87 o
-3 0 -6 1 0.80 -0.62 3.74 <
2 0 6 2 0.22 -1.87 1.87 <
-2 0 -6 -2 0.22 1.56 3.12 <
-4 1 6 0 1.69 -1.87 1.56 <
4 -1 -6 0 1.69 -0.62 1.56 <
-3 1 6 -2 0.46 -1.25 1.25 <
3 -1 -6 2 0.46 0.94 1.56 <
-4 1 6 1 2.70 -1.87 1.25 <
4 -1 -6 -1 2.70 4.99 1.25 o
-3 1 6 -1 1.40 0.62 1.25 <
3 -1 -6 1 1.40 1.25 1.25 <
-4 1 6 2 0.03 1.25 1.25 <
4 -1 -6 -2 0.03 1.87 1.25 <
-3 1 6 0 2.35 3.74 1.25 o
3 -1 -6 0 2.35 3.74 1.25 o
-2 1 6 -2 0.35 -3.12 1.25 <
2 -1 -6 2 0.35 1.87 1.25 <
-3 1 6 1 4.26 -0.62 1.25 <
3 -1 -6 -1 4.26 1.56 1.25 <
-2 1 6 -1 7.03 -0.94 1.25 <
2 -1 -6 1 7.03 0.94 1.25 <
-3 1 6 2 2.44 1.87 1.25 <
3 -1 -6 -2 2.44 5.62 1.25 o
-2 1 6 0 26.43 28.71 1.25 o
2 -1 -6 0 26.43 24.65 1.25 o
-1 1 6 -2 0.20 2.18 0.94 <
1 -1 -6 2 0.20 3.74 0.94 o
-2 1 6 1 18.54 4.99 0.94 o
2 -1 -6 -1 18.54 7.80 0.94 o
-1 1 6 -1 12.96 29.65 0.94 o
1 -1 -6 1 12.96 32.77 0.94 o
-2 1 6 2 13.46 24.34 0.94 o
2 -1 -6 -2 13.46 24.65 0.94 o
-1 1 6 0 16.55 16.23 0.94 o
1 -1 -6 0 16.55 19.97 0.94 o
0 1 6 -2 6.45 11.86 0.62 o
0 -1 -6 2 6.45 14.04 0.62 o
-1 1 6 1 14.82 21.22 0.94 o
1 -1 -6 -1 14.82 21.22 0.62 o
0 1 6 -1 7.41 17.79 0.62 o
0 -1 -6 1 7.41 16.54 0.62 o
-1 1 6 2 2.79 6.24 0.62 o
1 -1 -6 -2 2.79 6.24 0.62 o
0 1 6 0 28.77 21.53 0.94 o
0 -1 -6 0 28.77 23.09 0.94 o
1 1 6 -2 2.51 5.62 1.25 o
-1 -1 -6 2 2.51 9.36 1.25 o
0 1 6 1 11.31 7.80 1.25 o
0 -1 -6 -1 11.31 5.31 1.25 o
1 1 6 -1 6.73 2.81 1.25 <
-1 -1 -6 1 6.73 -0.94 1.25 <
0 1 6 2 0.00 9.36 3.12 <
0 -1 -6 -2 0.00 -9.67 1.56 <
2 1 6 1 0.07 -4.06 9.99 <
-5 2 6 2 0.22 1.56 1.56 <
5 -2 -6 -2 0.22 3.43 1.56 <
-4 2 6 0 2.24 -4.37 1.25 <
4 -2 -6 0 2.24 7.49 1.56 o
-3 2 6 -2 0.58 -0.31 1.25 <
3 -2 -6 2 0.58 5.93 1.56 o
-4 2 6 1 3.33 -0.31 1.25 <
4 -2 -6 -1 3.33 2.50 1.56 <
-3 2 6 -1 2.56 -0.62 1.25 <
3 -2 -6 1 2.56 -0.31 1.25 <
-4 2 6 2 0.02 0.00 1.25 <
4 -2 -6 -2 0.02 -0.31 1.25 <
-3 2 6 0 2.48 -0.31 1.25 <
3 -2 -6 0 2.48 0.62 1.25 <
-2 2 6 -2 0.82 0.62 1.25 <
2 -2 -6 2 0.82 1.56 1.25 <
-3 2 6 1 3.88 1.56 1.25 <
3 -2 -6 -1 3.88 2.50 1.25 <
-2 2 6 -1 13.59 3.74 1.25 o
2 -2 -6 1 13.59 -0.31 1.25 <
-3 2 6 2 2.79 0.31 0.94 <
3 -2 -6 -2 2.79 -0.31 0.94 <
-2 2 6 0 120.21 243.10 1.56 o
2 -2 -6 0 120.21 234.67 1.56 o
-1 2 6 -2 0.57 0.94 0.94 <
1 -2 -6 2 0.57 3.43 0.94 o
-2 2 6 1 25.57 2.50 0.94 <
2 -2 -6 -1 25.57 4.37 0.94 o
-1 2 6 -1 14.26 10.61 0.94 o
1 -2 -6 1 14.26 12.48 0.94 o
-2 2 6 2 16.23 26.21 0.94 o
2 -2 -6 -2 16.23 26.53 0.94 o
-1 2 6 0 32.84 56.17 0.94 o
1 -2 -6 0 32.84 60.85 0.94 o
0 2 6 -2 4.22 32.77 0.94 o
0 -2 -6 2 4.22 31.83 0.94 o
-1 2 6 1 9.85 86.75 0.94 o
1 -2 -6 -1 9.85 81.45 0.94 o
0 2 6 -1 2.42 27.15 0.94 o
0 -2 -6 1 2.42 29.02 0.94 o
-1 2 6 2 3.18 1.87 0.94 <
1 -2 -6 -2 3.18 3.43 1.25 <
0 2 6 0 37.99 15.60 1.56 o
0 -2 -6 0 37.99 23.09 1.56 o
1 2 6 -2 1.96 1.87 1.25 <
-1 -2 -6 2 1.96 0.94 1.25 <
0 2 6 1 3.84 3.74 1.56 <
0 -2 -6 -1 3.84 6.24 1.25 o
-1 -2 -6 1 6.28 -1.56 4.68 <
-4 3 6 -1 0.01 -2.50 1.56 <
4 -3 -6 1 0.01 -0.94 1.56 <
-5 3 6 2 0.34 1.56 1.25 <
5 -3 -6 -2 0.34 2.50 1.56 <
-4 3 6 0 4.69 3.74 1.25 o
4 -3 -6 0 4.69 1.56 1.25 <
-3 3 6 -2 0.63 -0.31 1.25 <
3 -3 -6 2 0.63 0.62 1.25 <
-4 3 6 1 3.49 1.25 1.25 <
4 -3 -6 -1 3.49 1.87 1.87 <
-3 3 6 -1 3.73 4.37 1.25 o
3 -3 -6 1 3.73 1.87 1.25 <
-4 3 6 2 0.05 -1.25 1.25 <
4 -3 -6 -2 0.05 1.56 1.25 <
-3 3 6 0 1.05 -1.25 1.25 <
3 -3 -6 0 1.05 6.55 1.25 o
-2 3 6 -2 1.53 3.12 1.25 <
2 -3 -6 2 1.53 2.18 1.25 <
-3 3 6 1 3.28 0.00 0.94 <
3 -3 -6 -1 3.28 -3.12 0.94 <
-2 3 6 -1 23.25 25.28 1.25 o
2 -3 -6 1 23.25 27.46 1.25 o
-3 3 6 2 2.29 0.31 0.94 <
3 -3 -6 -2 2.29 0.31 0.94 <
-2 3 6 0 133.51 145.11 1.25 o
2 -3 -6 0 133.51 144.49 1.25 o
-1 3 6 -2 0.95 0.31 0.94 <
1 -3 -6 2 0.95 1.56 0.94 <
-2 3 6 1 25.79 9.99 0.94 o
2 -3 -6 -1 25.79 12.79 0.94 o
-1 3 6 -1 27.31 44.00 0.94 o
1 -3 -6 1 27.31 40.26 0.94 o
-2 3 6 2 13.72 16.23 0.94 o
2 -3 -6 -2 13.72 18.41 0.94 o
-1 3 6 0 67.90 80.20 1.25 o
1 -3 -6 0 67.90 81.76 1.25 o
0 3 6 -2 1.96 3.43 0.62 o
0 -3 -6 2 1.96 1.25 0.62 <
-1 3 6 1 5.23 3.74 0.62 o
1 -3 -6 -1 5.23 1.25 0.62 <
0 3 6 -1 0.15 -0.62 1.25 <
0 -3 -6 1 0.15 -2.18 1.87 <
-1 3 6 2 2.99 3.12 1.25 <
1 -3 -6 -2 2.99 -5.31 1.25 <
0 3 6 0 7.21 7.80 1.25 o
0 -3 -6 0 7.21 9.67 1.56 o
1 3 6 -2 1.52 4.68 4.37 <
-1 -3 -6 2 1.52 1.56 1.87 <
-5 4 6 1 0.17 0.00 1.56 <
5 -4 -6 -1 0.17 5.62 1.56 o
-4 4 6 -1 0.03 2.50 1.25 <
4 -4 -6 1 0.03 3.43 1.56 <
-5 4 6 2 0.45 -3.12 1.25 <
5 -4 -6 -2 0.45 -6.24 1.25 <
-4 4 6 0 11.23 1.25 1.25 <
4 -4 -6 0 11.23 7.80 1.87 o
-3 4 6 -2 0.56 -3.43 1.25 <
3 -4 -6 2 0.56 4.06 1.25 o
-4 4 6 1 3.12 -5.62 1.25 <
4 -4 -6 -1 3.12 -3.12 1.25 <
-3 4 6 -1 4.24 1.25 1.25 <
3 -4 -6 1 4.24 3.74 1.25 o
-4 4 6 2 0.14 4.37 1.25 o
4 -4 -6 -2 0.14 -2.50 1.25 <
-3 4 6 0 7.73 14.67 1.25 o
3 -4 -6 0 7.73 14.67 1.25 o
-2 4 6 -2 2.17 3.43 0.94 o
2 -4 -6 2 2.17 0.94 0.94 <
-3 4 6 1 3.52 4.06 0.94 o
3 -4 -6 -1 3.52 4.68 0.94 o
-2 4 6 -1 31.05 31.83 0.94 o
2 -4 -6 1 31.05 34.33 0.94 o
-3 4 6 2 1.24 1.25 0.94 <
3 -4 -6 -2 1.24 1.56 0.94 <
-2 4 6 0 164.68 275.86 1.56 o
2 -4 -6 0 164.68 264.32 1.56 o
-1 4 6 -2 1.09 2.50 0.94 <
1 -4 -6 2 1.09 1.87 0.94 <
-2 4 6 1 19.35 13.73 0.94 o
2 -4 -6 -1 19.35 16.23 0.94 o
-1 4 6 -1 40.18 51.18 0.94 o
1 -4 -6 1 40.18 44.94 1.25 o
-2 4 6 2 8.25 8.11 0.94 o
2 -4 -6 -2 8.25 8.74 0.94 o
-1 4 6 0 121.79 131.38 1.25 o
1 -4 -6 0 121.79 140.43 1.25 o
0 4 6 -2 0.58 0.62 0.94 <
0 -4 -6 2 0.58 -0.94 0.94 <
-1 4 6 1 2.31 2.50 1.87 <
1 -4 -6 -1 2.31 -1.87 1.56 <
0 4 6 -1 0.28 9.05 1.56 o
0 -4 -6 1 0.28 7.49 1.56 o
-1 4 6 2 2.32 0.62 1.87 <
1 -4 -6 -2 2.32 1.87 1.56 <
0 -4 -6 0 8.15 -1.87 4.99 <
-4 5 6 -2 0.06 2.81 1.56 <
4 -5 -6 2 0.06 -0.94 1.56 <
-5 5 6 1 0.39 -1.25 1.25 <
5 -5 -6 -1 0.39 3.74 1.56 <
-4 5 6 -1 0.25 -0.62 1.25 <
4 -5 -6 1 0.25 -2.50 1.25 <
-5 5 6 2 0.49 0.31 1.25 <
5 -5 -6 -2 0.49 3.43 1.25 <
-4 5 6 0 18.34 6.87 1.25 o
4 -5 -6 0 18.34 1.25 1.25 <
-3 5 6 -2 0.39 -1.56 1.25 <
3 -5 -6 2 0.39 1.56 1.25 <
-4 5 6 1 2.35 1.56 1.25 <
4 -5 -6 -1 2.35 1.87 1.25 <
-3 5 6 -1 3.63 3.74 1.25 o
3 -5 -6 1 3.63 4.99 1.25 o
-4 5 6 2 0.27 0.62 1.25 <
4 -5 -6 -2 0.27 -0.31 1.25 <
-3 5 6 0 2.51 27.46 1.25 o
3 -5 -6 0 2.51 21.84 1.25 o
-2 5 6 -2 2.31 2.81 0.94 <
2 -5 -6 2 2.31 2.81 0.94 <
-3 5 6 1 5.15 2.18 0.94 <
3 -5 -6 -1 5.15 -0.62 0.94 <
-2 5 6 -1 31.42 34.64 1.25 o
2 -5 -6 1 31.42 30.27 1.25 o
-3 5 6 2 0.50 -0.94 0.94 <
3 -5 -6 -2 0.50 0.00 0.94 <
-2 5 6 0 73.01 93.93 1.25 o
2 -5 -6 0 73.01 93.62 1.25 o
-1 5 6 -2 0.89 3.12 0.94 o
1 -5 -6 2 0.89 3.74 0.94 o
-2 5 6 1 11.01 6.87 0.94 o
2 -5 -6 -1 11.01 9.99 0.94 o
-1 5 6 -1 40.87 19.97 1.25 o
1 -5 -6 1 40.87 20.91 0.94 o
-2 5 6 2 3.68 -1.87 0.94 <
2 -5 -6 -2 3.68 0.94 0.94 <
-1 5 6 0 188.04 21.84 1.25 o
1 -5 -6 0 188.04 30.58 1.25 o
0 5 6 -2 0.07 3.74 3.43 <
0 -5 -6 2 0.07 2.50 1.56 <
-1 5 6 1 0.81 1.56 1.56 <
1 -5 -6 -1 0.81 -3.43 1.56 <
0 5 6 -1 1.25 1.87 4.68 <
0 -5 -6 1 1.25 -2.50 2.18 <
-5 6 6 0 4.83 2.50 1.56 <
5 -6 -6 0 4.83 4.06 1.56 <
-4 6 6 -2 0.08 -2.50 1.25 <
4 -6 -6 2 0.08 -0.62 1.56 <
-5 6 6 1 0.63 0.31 1.25 <
5 -6 -6 -1 0.63 6.24 1.25 o
-4 6 6 -1 0.71 1.25 1.25 <
4 -6 -6 1 0.71 0.31 1.25 <
-5 6 6 2 0.46 3.43 1.25 <
5 -6 -6 -2 0.46 -1.56 1.25 <
-4 6 6 0 26.50 33.70 1.25 o
4 -6 -6 0 26.50 44.62 1.25 o
-3 6 6 -2 0.22 -0.31 1.25 <
3 -6 -6 2 0.22 1.56 1.25 <
-4 6 6 1 1.49 4.06 1.25 o
4 -6 -6 -1 1.49 -1.56 1.25 <
-3 6 6 -1 2.18 1.25 1.25 <
3 -6 -6 1 2.18 1.25 1.25 <
-4 6 6 2 0.38 1.25 0.94 <
4 -6 -6 -2 0.38 1.56 0.94 <
-3 6 6 0 5.80 10.30 1.25 o
3 -6 -6 0 5.80 7.80 1.25 o
-2 6 6 -2 1.86 5.93 0.94 o
2 -6 -6 2 1.86 4.68 0.94 o
-3 6 6 1 7.47 1.87 0.94 <
3 -6 -6 -1 7.47 1.87 0.94 <
-2 6 6 -1 24.35 7.80 1.25 o
2 -6 -6 1 24.35 6.87 0.94 o
-3 6 6 2 0.44 1.25 0.94 <
3 -6 -6 -2 0.44 -0.62 0.94 <
-2 6 6 0 55.40 143.24 1.56 o
2 -6 -6 0 55.40 155.41 1.56 o
-1 6 6 -2 0.54 -0.62 0.94 <
1 -6 -6 2 0.54 2.81 0.94 <
-2 6 6 1 4.66 1.87 0.94 <
2 -6 -6 -1 4.66 -0.31 0.94 <
-1 6 6 -1 31.24 4.68 0.94 o
1 -6 -6 1 31.24 6.87 0.94 o
-2 6 6 2 1.38 3.12 0.94 o
2 -6 -6 -2 1.38 -1.25 1.25 <
-1 6 6 0 151.48 1.87 1.56 <
1 -6 -6 0 151.48 4.37 1.56 <
0 6 6 -2 0.02 0.31 2.18 <
0 -6 -6 2 0.02 4.06 1.87 <
1 -6 -6 -1 0.19 8.11 4.68 <
-5 7 6 0 4.13 1.87 1.56 <
5 -7 -6 0 4.13 0.94 1.56 <
-4 7 6 -2 0.12 3.12 1.25 <
4 -7 -6 2 0.12 0.31 1.25 <
-5 7 6 1 0.81 0.00 1.25 <
5 -7 -6 -1 0.81 1.25 1.25 <
-4 7 6 -1 1.31 1.25 1.25 <
4 -7 -6 1 1.31 2.81 1.25 <
-5 7 6 2 0.37 2.50 1.25 <
5 -7 -6 -2 0.37 0.94 1.25 <
-4 7 6 0 44.75 82.38 1.56 o
4 -7 -6 0 44.75 83.01 1.56 o
-3 7 6 -2 0.20 -0.62 1.25 <
3 -7 -6 2 0.20 3.74 1.25 o
-4 7 6 1 0.88 1.56 1.25 <
4 -7 -6 -1 0.88 4.37 1.25 o
-3 7 6 -1 0.76 4.06 1.25 o
3 -7 -6 1 0.76 6.87 1.25 o
-4 7 6 2 0.40 1.56 1.25 <
4 -7 -6 -2 0.40 1.56 0.94 <
-3 7 6 0 3.75 2.81 1.25 <
3 -7 -6 0 3.75 10.92 1.25 o
-2 7 6 -2 1.22 1.25 0.94 <
2 -7 -6 2 1.22 1.25 0.94 <
-3 7 6 1 9.20 -0.31 0.94 <
3 -7 -6 -1 9.20 0.94 0.94 <
-2 7 6 -1 14.91 4.68 1.25 o
2 -7 -6 1 14.91 7.49 1.25 o
-3 7 6 2 0.66 2.50 1.25 <
3 -7 -6 -2 0.66 2.81 1.25 <
-2 7 6 0 24.13 2.81 1.25 <
2 -7 -6 0 24.13 1.25 1.25 <
-1 7 6 -2 0.23 0.94 1.25 <
1 -7 -6 2 0.23 3.12 1.25 <
-2 7 6 1 1.25 0.62 1.25 <
2 -7 -6 -1 1.25 2.50 1.25 <
-1 7 6 -1 19.48 -1.87 1.25 <
1 -7 -6 1 19.48 5.31 1.25 o
-2 7 6 2 0.64 0.62 1.56 <
2 -7 -6 -2 0.64 2.81 1.56 <
-1 7 6 0 55.59 -4.37 4.99 <
1 -7 -6 0 55.59 -0.31 2.18 <
-6 8 6 2 0.12 0.31 1.56 <
6 -8 -6 -2 0.12 -1.25 1.56 <
-5 8 6 0 2.33 3.43 1.56 <
5 -8 -6 0 2.33 5.93 1.25 o
-4 8 6 -2 0.14 1.25 1.25 <
4 -8 -6 2 0.14 1.87 1.25 <
-5 8 6 1 0.85 1.25 1.25 <
5 -8 -6 -1 0.85 2.81 1.25 <
-4 8 6 -1 1.82 7.18 1.25 o
4 -8 -6 1 1.82 0.62 1.25 <
-5 8 6 2 0.29 0.94 1.25 <
5 -8 -6 -2 0.29 3.43 1.25 <
-4 8 6 0 47.96 127.32 1.56 o
4 -8 -6 0 47.96 139.18 1.56 o
-3 8 6 -2 0.36 1.25 1.25 <
3 -8 -6 2 0.36 0.00 1.25 <
-4 8 6 1 0.74 0.62 1.25 <
4 -8 -6 -1 0.74 4.06 1.25 o
-3 8 6 -1 0.08 0.94 1.25 <
3 -8 -6 1 0.08 -0.31 1.25 <
-4 8 6 2 0.29 1.87 1.25 <
4 -8 -6 -2 0.29 -0.31 1.25 <
-3 8 6 0 2.07 1.25 1.25 <
3 -8 -6 0 2.07 2.18 1.25 <
-2 8 6 -2 0.78 0.62 1.25 <
2 -8 -6 2 0.78 0.31 1.25 <
-3 8 6 1 9.62 1.87 1.25 <
3 -8 -6 -1 9.62 2.81 1.25 <
-2 8 6 -1 7.54 0.62 1.25 <
2 -8 -6 1 7.54 0.94 1.25 <
-3 8 6 2 0.71 -2.18 1.25 <
3 -8 -6 -2 0.71 4.68 1.25 o
-2 8 6 0 34.91 -0.62 1.25 <
2 -8 -6 0 34.91 3.74 1.25 o
-1 8 6 -2 0.05 1.87 1.25 <
1 -8 -6 2 0.05 2.50 1.25 <
-2 8 6 1 0.08 0.00 1.25 <
2 -8 -6 -1 0.08 -0.94 1.87 <
-1 8 6 -1 10.56 3.43 2.50 <
1 -8 -6 1 10.56 5.62 1.87 <
2 -8 -6 -2 0.49 1.87 3.74 <
-5 9 6 -1 1.16 -0.31 2.18 <
5 -9 -6 1 1.16 2.81 2.18 <
-6 9 6 2 0.16 3.12 1.56 <
6 -9 -6 -2 0.16 0.62 1.25 <
-5 9 6 0 0.84 0.00 1.25 <
5 -9 -6 0 0.84 2.18 1.25 <
-4 9 6 -2 0.13 -0.31 1.25 <
4 -9 -6 2 0.13 0.94 1.25 <
-5 9 6 1 0.78 1.25 1.25 <
5 -9 -6 -1 0.78 1.25 1.25 <
-4 9 6 -1 2.04 9.99 1.25 o
4 -9 -6 1 2.04 8.11 1.25 o
-5 9 6 2 0.27 0.00 1.25 <
5 -9 -6 -2 0.27 -0.94 1.25 <
-4 9 6 0 33.44 61.79 1.56 o
4 -9 -6 0 33.44 71.46 1.56 o
-3 9 6 -2 0.59 -0.94 1.25 <
3 -9 -6 2 0.59 3.43 1.25 <
-4 9 6 1 1.01 1.56 1.25 <
4 -9 -6 -1 1.01 0.31 1.25 <
-3 9 6 -1 0.14 1.87 1.25 <
3 -9 -6 1 0.14 2.50 1.25 <
-4 9 6 2 0.15 -0.31 1.25 <
4 -9 -6 -2 0.15 2.50 1.25 <
-3 9 6 0 0.56 0.62 1.25 <
3 -9 -6 0 0.56 2.50 1.25 <
-2 9 6 -2 0.60 2.18 1.25 <
2 -9 -6 2 0.60 -3.74 1.25 <
-3 9 6 1 8.78 0.62 1.25 <
3 -9 -6 -1 8.78 4.37 1.25 o
-2 9 6 -1 3.40 1.25 1.25 <
2 -9 -6 1 3.40 2.50 1.25 <
-3 9 6 2 0.56 4.06 1.25 o
3 -9 -6 -2 0.56 1.56 1.25 <
-2 9 6 0 4.89 0.62 1.25 <
2 -9 -6 0 4.89 0.62 1.25 <
-1 9 6 -2 0.00 1.87 1.56 <
1 -9 -6 2 0.00 8.43 3.12 <
-2 9 6 1 0.11 -5.93 5.62 <
2 -9 -6 -1 0.11 -1.87 2.18 <
-5 10 6 -1 0.93 0.62 1.56 <
5 -10 -6 1 0.93 1.25 1.25 <
-6 10 6 2 0.21 0.00 1.25 <
6 -10 -6 -2 0.21 -4.68 1.25 <
-5 10 6 0 0.10 2.50 1.25 <
5 -10 -6 0 0.10 1.56 1.25 <
-4 10 6 -2 0.10 -0.62 1.25 <
4 -10 -6 2 0.10 2.50 1.25 <
-5 10 6 1 0.64 0.00 1.25 <
5 -10 -6 -1 0.64 0.62 1.25 <
-4 10 6 -1 1.86 5.62 1.25 o
4 -10 -6 1 1.86 4.06 1.25 o
-5 10 6 2 0.31 0.62 1.25 <
5 -10 -6 -2 0.31 1.87 1.25 <
-4 10 6 0 19.92 15.29 1.25 o
4 -10 -6 0 19.92 23.09 1.25 o
-3 10 6 -2 0.73 0.31 1.25 <
3 -10 -6 2 0.73 1.56 1.25 <
-4 10 6 1 1.39 1.56 1.25 <
4 -10 -6 -1 1.39 -1.25 1.25 <
-3 10 6 -1 0.48 1.87 1.25 <
3 -10 -6 1 0.48 -0.31 1.25 <
-4 10 6 2 0.06 -1.87 1.25 <
4 -10 -6 -2 0.06 0.62 1.25 <
-3 10 6 0 4.43 3.12 1.25 <
3 -10 -6 0 4.43 0.31 1.25 <
-2 10 6 -2 0.52 3.12 1.25 <
2 -10 -6 2 0.52 0.94 1.25 <
-3 10 6 1 7.08 0.62 1.25 <
3 -10 -6 -1 7.08 3.12 1.25 <
-2 10 6 -1 1.65 3.43 1.25 <
2 -10 -6 1 1.65 -4.99 1.25 <
-3 10 6 2 0.34 -3.12 1.25 <
3 -10 -6 -2 0.34 2.50 1.25 <
-2 10 6 0 2.97 1.25 1.87 <
2 -10 -6 0 2.97 0.94 1.87 <
1 -10 -6 2 0.03 -8.74 3.74 <
-5 11 6 -1 0.70 5.31 1.56 o
5 -11 -6 1 0.70 1.25 1.25 <
-6 11 6 2 0.25 0.00 1.56 <
6 -11 -6 -2 0.25 2.50 1.25 <
-5 11 6 0 0.40 1.87 1.25 <
5 -11 -6 0 0.40 0.94 1.25 <
-4 11 6 -2 0.05 2.50 1.25 <
4 -11 -6 2 0.05 2.50 1.25 <
-5 11 6 1 0.52 0.62 1.25 <
5 -11 -6 -1 0.52 1.56 1.25 <
-4 11 6 -1 1.39 2.50 1.25 <
4 -11 -6 1 1.39 0.00 1.25 <
-5 11 6 2 0.39 1.25 1.25 <
5 -11 -6 -2 0.39 -0.31 1.25 <
-4 11 6 0 14.15 2.50 1.25 <
4 -11 -6 0 14.15 4.37 1.25 o
-3 11 6 -2 0.72 0.62 1.25 <
3 -11 -6 2 0.72 0.62 1.25 <
-4 11 6 1 1.56 0.62 1.25 <
4 -11 -6 -1 1.56 -1.25 1.25 <
-3 11 6 -1 0.70 0.00 1.25 <
3 -11 -6 1 0.70 1.87 1.25 <
-4 11 6 2 0.04 1.56 1.25 <
4 -11 -6 -2 0.04 -2.81 1.25 <
-3 11 6 0 1.53 4.06 1.25 o
3 -11 -6 0 1.53 -0.31 1.25 <
-2 11 6 -2 0.43 -0.31 1.25 <
2 -11 -6 2 0.43 -0.31 1.25 <
-3 11 6 1 5.00 1.87 1.25 <
3 -11 -6 -1 5.00 3.12 1.25 <
-2 11 6 -1 1.14 1.87 1.25 <
2 -11 -6 1 1.14 -2.81 1.56 <
-3 11 6 2 0.18 -5.62 3.74 <
3 -11 -6 -2 0.18 0.00 2.18 <
2 -11 -6 0 4.46 -0.31 9.36 <
-5 12 6 -1 0.59 0.00 1.56 <
5 -12 -6 1 0.59 1.87 1.56 <
-6 12 6 2 0.26 0.62 1.56 <
6 -12 -6 -2 0.26 1.56 1.56 <
-5 12 6 0 2.45 1.56 1.56 <
5 -12 -6 0 2.45 1.87 1.25 <
-4 12 6 -2 0.02 2.50 1.25 <
4 -12 -6 2 0.02 -0.94 1.25 <
-5 12 6 1 0.45 1.56 1.25 <
5 -12 -6 -1 0.45 -0.31 1.25 <
-4 12 6 -1 0.84 1.25 1.25 <
4 -12 -6 1 0.84 1.25 1.25 <
-5 12 6 2 0.45 -0.31 1.25 <
5 -12 -6 -2 0.45 3.43 1.25 <
-4 12 6 0 6.58 3.12 1.25 <
4 -12 -6 0 6.58 -1.56 1.25 <
-3 12 6 -2 0.59 0.31 1.25 <
3 -12 -6 2 0.59 0.94 1.25 <
-4 12 6 1 1.41 0.94 1.25 <
4 -12 -6 -1 1.41 1.56 1.25 <
-3 12 6 -1 0.68 1.87 1.25 <
3 -12 -6 1 0.68 7.80 1.25 o
-4 12 6 2 0.07 1.87 1.25 <
4 -12 -6 -2 0.07 3.12 1.56 <
-3 12 6 0 1.02 3.43 1.25 <
3 -12 -6 0 1.02 -4.37 1.25 <
-2 12 6 -2 0.32 5.62 1.25 o
2 -12 -6 2 0.32 -2.81 1.25 <
-3 12 6 1 3.03 -2.18 1.87 <
3 -12 -6 -1 3.03 -3.74 1.56 <
-2 12 6 -1 1.09 0.31 4.37 <
2 -12 -6 1 1.09 9.99 3.43 <
-5 13 6 -1 0.65 3.12 2.18 <
5 -13 -6 1 0.65 0.31 2.18 <
-6 13 6 2 0.23 1.87 1.56 <
6 -13 -6 -2 0.23 0.94 1.56 <
-5 13 6 0 5.10 0.94 1.56 <
5 -13 -6 0 5.10 1.25 1.56 <
-4 13 6 -2 0.00 0.62 1.56 <
4 -13 -6 2 0.00 1.87 1.56 <
-5 13 6 1 0.43 0.62 1.25 <
5 -13 -6 -1 0.43 -0.31 1.56 <
-4 13 6 -1 0.43 1.25 1.25 <
4 -13 -6 1 0.43 -2.50 1.56 <
-5 13 6 2 0.46 0.00 1.25 <
5 -13 -6 -2 0.46 0.00 1.56 <
-4 13 6 0 1.22 1.87 1.25 <
4 -13 -6 0 1.22 0.62 1.56 <
-3 13 6 -2 0.41 -0.62 1.25 <
3 -13 -6 2 0.41 -0.31 1.56 <
-4 13 6 1 1.07 6.24 1.25 o
4 -13 -6 -1 1.07 2.18 1.56 <
-3 13 6 -1 0.49 7.80 1.25 o
3 -13 -6 1 0.49 0.00 1.56 <
-4 13 6 2 0.11 6.24 1.25 o
4 -13 -6 -2 0.11 1.87 1.56 <
-3 13 6 0 0.84 0.94 1.56 <
3 -13 -6 0 0.84 1.56 1.56 <
-2 13 6 -2 0.22 0.62 1.87 <
2 -13 -6 2 0.22 -0.94 2.18 <
-3 13 6 1 1.53 -2.50 5.31 <
3 -13 -6 -1 1.53 -4.37 6.55 <
-6 14 6 2 0.18 1.25 1.56 <
6 -14 -6 -2 0.18 -1.56 1.56 <
-5 14 6 0 6.47 0.62 1.56 <
5 -14 -6 0 6.47 3.74 1.56 <
-4 14 6 -2 0.00 -1.25 1.56 <
4 -14 -6 2 0.00 -2.81 1.56 <
-5 14 6 1 0.44 -2.50 1.56 <
5 -14 -6 -1 0.44 1.56 1.56 <
-4 14 6 -1 0.28 -0.94 1.56 <
4 -14 -6 1 0.28 -1.25 1.56 <
-5 14 6 2 0.42 -4.68 1.56 <
5 -14 -6 -2 0.42 -0.31 1.56 <
-4 14 6 0 0.31 1.87 1.56 <
4 -14 -6 0 0.31 -0.94 1.56 <
-3 14 6 -2 0.25 2.81 1.56 <
3 -14 -6 2 0.25 3.43 1.56 <
-4 14 6 1 0.71 1.25 1.56 <
4 -14 -6 -1 0.71 1.87 1.56 <
-3 14 6 -1 0.26 3.43 1.56 <
3 -14 -6 1 0.26 -0.62 1.56 <
-4 14 6 2 0.12 2.81 2.18 <
4 -14 -6 -2 0.12 -0.62 1.56 <
-3 14 6 0 0.69 0.31 2.18 <
3 -14 -6 0 0.69 -6.55 3.43 <
-2 14 6 -2 0.14 -1.87 7.18 <
-4 15 6 -2 0.01 0.00 2.18 <
4 -15 -6 2 0.01 1.25 2.18 <
-5 15 6 1 0.43 0.62 1.56 <
5 -15 -6 -1 0.43 -0.62 1.56 <
-4 15 6 -1 0.34 -1.56 1.56 <
4 -15 -6 1 0.34 -1.87 1.56 <
-5 15 6 2 0.33 -0.94 1.56 <
5 -15 -6 -2 0.33 3.43 1.56 <
-4 15 6 0 1.22 1.87 1.56 <
4 -15 -6 0 1.22 -1.56 1.56 <
-3 15 6 -2 0.13 -2.18 1.56 <
3 -15 -6 2 0.13 1.56 1.87 <
-4 15 6 1 0.43 0.31 1.87 <
4 -15 -6 -1 0.43 -0.62 1.56 <
-3 15 6 -1 0.09 1.56 2.18 <
3 -15 -6 1 0.09 -0.31 1.87 <
-4 13 -7 2 0.08 1.25 2.50 <
3 -13 7 1 0.15 3.43 2.50 <
-3 13 -7 -1 0.15 2.50 1.87 <
4 -13 7 -1 0.14 -2.81 1.87 <
-4 13 -7 1 0.14 1.25 1.87 <
-3 12 -7 0 3.36 -0.31 2.18 <
4 -12 7 -2 0.04 2.50 1.87 <
-4 12 -7 2 0.04 0.00 1.87 <
3 -12 7 1 0.10 1.87 1.87 <
-3 12 -7 -1 0.10 -2.81 1.87 <
4 -12 7 -1 0.10 -2.81 1.87 <
-4 12 -7 1 0.10 -0.62 1.87 <
3 -12 7 2 0.34 -2.50 1.87 <
-3 12 -7 -2 0.34 0.62 1.87 <
2 -11 7 2 0.58 1.56 7.49 <
-2 11 -7 -2 0.58 -0.94 1.87 <
3 -11 7 0 8.84 -1.56 1.87 <
-3 11 -7 0 8.84 -0.62 1.56 <
4 -11 7 -2 0.01 6.24 1.87 o
-4 11 -7 2 0.01 0.62 1.56 <
3 -11 7 1 0.05 0.31 1.87 <
-3 11 -7 -1 0.05 -0.31 1.56 <
4 -11 7 -1 0.24 -1.56 1.87 <
-4 11 -7 1 0.24 0.94 1.56 <
3 -11 7 2 0.40 4.37 1.87 <
-3 11 -7 -2 0.40 3.43 1.56 <
3 -10 7 -1 4.73 -2.81 3.74 <
-3 10 -7 1 4.73 -0.62 1.56 <
2 -10 7 2 0.53 -2.81 1.56 <
-2 10 -7 -2 0.53 0.62 1.56 <
3 -10 7 0 15.65 2.50 1.56 <
-3 10 -7 0 15.65 0.94 1.56 <
4 -10 7 -2 0.00 -0.94 1.56 <
-4 10 -7 2 0.00 -0.31 1.56 <
3 -10 7 1 0.03 -1.87 4.37 <
-3 10 -7 -1 0.03 -1.56 1.56 <
4 -10 7 -1 0.60 -1.25 1.25 <
-4 10 -7 1 0.60 0.94 1.56 <
3 -10 7 2 0.40 1.87 0.94 <
-3 10 -7 -2 0.40 -0.31 1.56 <
4 -10 7 0 1.23 0.94 0.94 <
-4 10 -7 0 1.23 0.62 1.87 <
-3 9 -7 2 0.28 -5.93 8.43 <
2 -9 7 1 1.65 -3.43 2.50 <
-2 9 -7 -1 1.65 0.62 1.56 <
3 -9 7 -1 6.35 1.87 1.56 <
-3 9 -7 1 6.35 0.94 1.25 <
2 -9 7 2 0.41 0.94 1.87 <
-2 9 -7 -2 0.41 0.62 1.25 <
3 -9 7 0 18.74 4.68 0.94 o
-3 9 -7 0 18.74 8.74 1.56 o
4 -9 7 -2 0.03 3.43 0.94 o
-4 9 -7 2 0.03 3.12 1.56 <
3 -9 7 1 0.03 1.87 0.94 <
-3 9 -7 -1 0.03 0.94 0.94 <
4 -9 7 -1 1.10 -0.31 0.94 <
-4 9 -7 1 1.10 0.31 0.94 <
3 -9 7 2 0.35 1.87 0.94 <
-3 9 -7 -2 0.35 2.81 0.94 <
2 -8 7 0 16.01 -12.17 4.68 <
-2 8 -7 0 16.01 -2.50 5.93 <
3 -8 7 -2 0.25 -0.94 1.25 <
-3 8 -7 2 0.25 3.43 1.25 <
2 -8 7 1 0.74 0.94 0.62 <
-2 8 -7 -1 0.74 -0.31 1.56 <
3 -8 7 -1 7.14 0.62 0.62 <
-3 8 -7 1 7.14 -1.87 0.94 <
2 -8 7 2 0.30 -0.31 0.62 <
-2 8 -7 -2 0.30 2.18 0.62 o
3 -8 7 0 21.75 15.60 0.94 o
-3 8 -7 0 21.75 13.73 0.62 o
4 -8 7 -2 0.08 -0.31 0.94 <
-4 8 -7 2 0.08 0.94 0.62 <
3 -8 7 1 0.05 1.25 0.94 <
-3 8 -7 -1 0.05 1.87 0.94 <
4 -8 7 -1 1.53 -1.25 0.94 <
-4 8 -7 1 1.53 1.25 0.94 <
3 -8 7 2 0.27 4.68 1.56 <
-3 8 -7 -2 0.27 0.62 0.94 <
2 -7 7 -2 1.66 14.67 6.55 <
1 -7 7 1 11.60 0.94 2.18 <
2 -7 7 -1 4.77 0.94 1.25 <
-2 7 -7 1 4.77 0.00 2.50 <
1 -7 7 2 0.19 0.00 0.94 <
-1 7 -7 -2 0.19 -1.25 1.87 <
2 -7 7 0 13.30 0.94 0.62 <
-2 7 -7 0 13.30 -0.62 0.62 <
3 -7 7 -2 0.20 1.25 0.62 <
-3 7 -7 2 0.20 0.62 0.62 <
2 -7 7 1 0.17 1.87 0.62 o
-2 7 -7 -1 0.17 1.87 0.62 o
3 -7 7 -1 6.69 3.12 0.62 o
-3 7 -7 1 6.69 2.81 0.62 o
2 -7 7 2 0.26 1.56 0.62 <
-2 7 -7 -2 0.26 -0.62 0.62 <
3 -7 7 0 21.06 20.28 0.94 o
-3 7 -7 0 21.06 21.84 0.94 o
4 -7 7 -2 0.12 1.25 0.94 <
-4 7 -7 2 0.12 1.56 0.62 <
3 -7 7 1 0.09 -1.87 2.50 <
-3 7 -7 -1 0.09 -0.31 0.62 <
4 -7 7 -1 1.70 4.68 1.56 <
-4 7 -7 1 1.70 1.87 1.56 <
3 -7 7 2 0.20 4.99 1.56 o
-3 7 -7 -2 0.20 -0.31 1.56 <
0 -6 7 1 2.55 0.00 7.80 <
1 -6 7 -1 1.02 -3.74 2.50 <
-1 6 -7 1 1.02 -3.43 7.80 <
0 -6 7 2 0.82 3.12 1.56 <
0 6 -7 -2 0.82 7.80 2.50 o
1 -6 7 0 6.39 3.74 1.25 o
-1 6 -7 0 6.39 2.81 1.56 <
2 -6 7 -2 1.77 4.68 1.25 o
-2 6 -7 2 1.77 0.94 1.25 <
1 -6 7 1 14.72 4.06 1.25 o
-1 6 -7 -1 14.72 6.55 1.25 o
2 -6 7 -1 3.65 1.56 0.94 <
-2 6 -7 1 3.65 0.00 1.25 <
1 -6 7 2 0.27 2.18 0.62 o
-1 6 -7 -2 0.27 -0.62 0.62 <
2 -6 7 0 14.47 1.56 0.62 <
-2 6 -7 0 14.47 1.56 0.62 <
3 -6 7 -2 0.21 1.87 0.62 o
-3 6 -7 2 0.21 1.87 0.62 o
2 -6 7 1 0.24 0.31 0.62 <
-2 6 -7 -1 0.24 2.18 0.62 o
3 -6 7 -1 5.23 5.62 0.62 o
-3 6 -7 1 5.23 6.24 0.62 o
2 -6 7 2 0.31 1.87 0.62 o
-2 6 -7 -2 0.31 1.56 0.62 <
3 -6 7 0 15.76 14.67 1.25 o
-3 6 -7 0 15.76 17.16 0.94 o
4 -6 7 -2 0.12 3.12 1.56 <
-4 6 -7 2 0.12 1.56 0.94 <
3 -6 7 1 0.12 1.25 1.56 <
-3 6 -7 -1 0.12 -0.31 1.56 <
4 -6 7 -1 1.55 5.62 1.56 o
-4 6 -7 1 1.55 -0.94 1.56 <
0 -5 7 -1 9.13 2.18 6.55 <
-1 -5 7 2 1.89 2.81 2.81 <
1 5 -7 -2 1.89 2.50 8.43 <
0 -5 7 0 112.66 14.67 1.87 o
0 5 -7 0 112.66 13.42 2.81 o
1 -5 7 -2 2.21 -1.25 1.25 <
-1 5 -7 2 2.21 3.12 1.56 <
0 -5 7 1 4.46 2.50 1.25 <
0 5 -7 -1 4.46 -0.94 1.25 <
1 -5 7 -1 2.78 -2.81 1.25 <
-1 5 -7 1 2.78 2.50 1.25 <
0 -5 7 2 0.77 0.31 1.25 <
0 5 -7 -2 0.77 0.94 1.25 <
1 -5 7 0 13.94 15.60 1.25 o
-1 5 -7 0 13.94 11.23 1.25 o
2 -5 7 -2 1.87 3.74 0.94 o
-2 5 -7 2 1.87 0.00 0.94 <
1 -5 7 1 15.21 3.74 1.87 <
-1 5 -7 -1 15.21 3.12 0.94 o
2 -5 7 -1 2.88 3.43 0.62 o
-2 5 -7 1 2.88 1.25 0.62 <
1 -5 7 2 0.29 0.94 0.62 <
-1 5 -7 -2 0.29 1.87 0.62 o
2 -5 7 0 8.32 1.87 0.62 o
-2 5 -7 0 8.32 1.56 0.62 <
3 -5 7 -2 0.32 3.74 0.62 o
-3 5 -7 2 0.32 1.25 0.62 <
2 -5 7 1 0.96 3.74 0.62 o
-2 5 -7 -1 0.96 4.37 0.62 o
3 -5 7 -1 3.48 2.50 0.62 o
-3 5 -7 1 3.48 0.94 0.62 <
2 -5 7 2 0.40 5.93 2.18 <
-2 5 -7 -2 0.40 3.12 0.62 o
3 -5 7 0 8.61 4.68 1.56 <
-3 5 -7 0 8.61 3.74 2.50 <
4 -5 7 -2 0.09 1.25 1.56 <
-4 5 -7 2 0.09 1.87 1.25 <
3 -5 7 1 0.15 3.12 1.56 <
-3 5 -7 -1 0.15 4.68 1.56 <
4 -5 7 -1 1.18 -2.50 1.56 <
-4 5 -7 1 1.18 -2.18 1.56 <
-2 -4 7 -2 0.29 -3.43 5.62 <
2 4 -7 2 0.29 5.93 2.18 <
-3 -4 7 1 1.12 7.49 7.18 <
3 4 -7 -1 1.12 1.25 2.18 <
-2 -4 7 -1 0.35 13.73 10.61 <
2 4 -7 1 0.35 -7.18 2.50 <
3 4 -7 -2 0.09 -0.31 2.81 <
2 4 -7 0 1.97 -1.87 3.43 <
1 4 -7 2 0.22 -2.18 5.62 <
-2 -4 7 2 1.64 -2.18 5.93 <
-1 -4 7 0 5.06 -1.87 2.50 <
1 4 -7 0 5.06 9.36 7.80 <
0 -4 7 -2 0.05 -0.31 1.87 <
0 4 -7 2 0.05 -1.25 2.50 <
-1 -4 7 1 1.93 -3.12 1.56 <
1 4 -7 -1 1.93 0.31 1.87 <
0 -4 7 -1 10.18 15.29 1.56 o
0 4 -7 1 10.18 18.72 1.56 o
-1 -4 7 2 3.29 1.87 1.56 <
1 4 -7 -2 3.29 3.12 1.56 <
0 -4 7 0 116.57 45.56 1.56 o
0 4 -7 0 116.57 37.76 1.56 o
1 -4 7 -2 3.36 2.18 1.25 <
-1 4 -7 2 3.36 -2.18 1.25 <
0 -4 7 1 6.38 2.18 1.25 <
0 4 -7 -1 6.38 0.00 1.25 <
1 -4 7 -1 4.91 3.74 1.25 o
-1 4 -7 1 4.91 7.80 1.25 o
0 -4 7 2 0.87 0.31 0.94 <
0 4 -7 -2 0.87 2.18 0.94 <
1 -4 7 0 9.11 17.48 0.94 o
-1 4 -7 0 9.11 14.35 0.94 o
2 -4 7 -2 2.07 2.18 0.94 <
-2 4 -7 2 2.07 2.18 0.62 o
1 -4 7 1 13.19 13.73 0.62 o
-1 4 -7 -1 13.19 14.35 0.62 o
2 -4 7 -1 2.63 0.00 0.62 <
-2 4 -7 1 2.63 3.12 0.62 o
1 -4 7 2 0.23 0.94 0.62 <
-1 4 -7 -2 0.23 2.50 0.62 o
2 -4 7 0 5.73 3.74 0.62 o
-2 4 -7 0 5.73 3.12 0.62 o
3 -4 7 -2 0.52 -0.62 0.62 <
-3 4 -7 2 0.52 0.94 0.62 <
2 -4 7 1 1.99 5.31 0.94 o
-2 4 -7 -1 1.99 4.37 0.62 o
3 -4 7 -1 2.13 3.43 1.25 <
-3 4 -7 1 2.13 -0.94 1.25 <
2 -4 7 2 0.45 7.18 1.25 o
-2 4 -7 -2 0.45 2.50 1.25 <
3 -4 7 0 4.20 3.74 1.56 <
-3 4 -7 0 4.20 0.31 1.25 <
4 -4 7 -2 0.05 4.06 1.56 <
-4 4 -7 2 0.05 -1.56 1.56 <
3 -4 7 1 0.14 -2.18 1.87 <
-3 4 -7 -1 0.14 -3.43 1.56 <
-3 -3 7 0 3.23 -2.50 2.18 <
3 3 -7 0 3.23 1.87 2.18 <
-2 -3 7 -2 0.54 -1.25 2.18 <
2 3 -7 2 0.54 4.68 2.18 <
-3 -3 7 1 2.23 -0.31 1.87 <
3 3 -7 -1 2.23 2.81 2.18 <
-2 -3 7 -1 0.88 2.81 1.87 <
2 3 -7 1 0.88 -2.50 2.18 <
-3 -3 7 2 0.08 2.18 1.87 <
3 3 -7 -2 0.08 4.68 1.87 <
-2 -3 7 0 2.26 0.31 2.18 <
2 3 -7 0 2.26 0.94 1.87 <
-1 -3 7 -2 0.38 1.87 1.56 <
1 3 -7 2 0.38 6.24 4.06 <
-2 -3 7 1 7.40 -1.25 1.56 <
2 3 -7 -1 7.40 0.62 1.87 <
-1 -3 7 -1 5.06 0.31 1.56 <
1 3 -7 1 5.06 0.94 1.25 <
-2 -3 7 2 2.92 0.00 1.87 <
2 3 -7 -2 2.92 2.81 1.25 <
-1 -3 7 0 11.93 -1.87 2.50 <
1 3 -7 0 11.93 3.43 1.25 <
0 -3 7 -2 0.00 0.62 1.56 <
0 3 -7 2 0.00 -1.87 1.87 <
-1 -3 7 1 4.72 0.31 1.56 <
1 3 -7 -1 4.72 0.62 3.12 <
0 -3 7 -1 10.09 18.10 1.56 o
0 3 -7 1 10.09 14.98 1.56 o
-1 -3 7 2 5.44 2.50 1.25 <
1 3 -7 -2 5.44 0.62 1.25 <
0 -3 7 0 38.51 51.80 1.56 o
0 3 -7 0 38.51 45.25 1.56 o
1 -3 7 -2 4.13 -0.62 1.25 <
-1 3 -7 2 4.13 2.50 1.25 <
0 -3 7 1 7.26 7.18 1.25 o
0 3 -7 -1 7.26 8.74 1.25 o
1 -3 7 -1 5.93 2.50 0.94 <
-1 3 -7 1 5.93 3.43 0.94 o
0 -3 7 2 1.30 1.25 0.94 <
0 3 -7 -2 1.30 3.43 0.94 o
1 -3 7 0 12.31 24.34 0.62 o
-1 3 -7 0 12.31 24.65 0.62 o
2 -3 7 -2 2.30 1.25 0.62 <
-2 3 -7 2 2.30 1.56 0.62 <
1 -3 7 1 9.77 22.16 0.62 o
-1 3 -7 -1 9.77 27.77 0.62 o
2 -3 7 -1 2.86 5.62 0.62 o
-2 3 -7 1 2.86 4.37 0.62 o
1 -3 7 2 0.13 2.50 0.62 o
-1 3 -7 -2 0.13 2.50 0.62 o
2 -3 7 0 9.54 10.30 0.62 o
-2 3 -7 0 9.54 5.62 0.62 o
3 -3 7 -2 0.71 1.25 3.12 <
-3 3 -7 2 0.71 2.81 0.94 <
2 -3 7 1 2.90 3.12 1.25 <
-2 3 -7 -1 2.90 -1.87 4.06 <
3 -3 7 -1 1.48 -0.31 1.25 <
-3 3 -7 1 1.48 1.56 1.25 <
2 -3 7 2 0.42 -2.81 1.56 <
-2 3 -7 -2 0.42 -0.31 1.25 <
3 -3 7 0 1.25 0.00 1.56 <
-3 3 -7 0 1.25 2.18 1.56 <
4 -3 7 -2 0.02 4.99 1.56 o
-4 3 -7 2 0.02 4.06 1.56 <
-4 -2 7 2 0.18 -0.94 2.18 <
4 2 -7 -2 0.18 -0.31 2.18 <
-3 -2 7 0 2.54 -3.43 3.12 <
3 2 -7 0 2.54 1.87 2.18 <
-2 -2 7 -2 0.88 -0.31 1.87 <
2 2 -7 2 0.88 4.37 1.87 <
-3 -2 7 1 3.78 -0.62 1.56 <
3 2 -7 -1 3.78 -0.62 5.31 <
-2 -2 7 -1 2.13 2.81 1.25 <
2 2 -7 1 2.13 -1.87 1.87 <
-3 -2 7 2 0.05 0.00 1.25 <
3 2 -7 -2 0.05 1.25 1.56 <
-2 -2 7 0 1.10 1.25 1.25 <
2 2 -7 0 1.10 1.56 1.25 <
-1 -2 7 -2 0.73 -0.62 1.25 <
1 2 -7 2 0.73 -0.62 1.25 <
-2 -2 7 1 10.12 2.81 1.25 <
2 2 -7 -1 10.12 0.00 1.25 <
-1 -2 7 -1 8.57 1.87 1.25 <
1 2 -7 1 8.57 1.25 1.25 <
-2 -2 7 2 4.46 -0.31 1.25 <
2 2 -7 -2 4.46 0.62 0.94 <
-1 -2 7 0 41.58 10.61 1.25 o
1 2 -7 0 41.58 13.11 1.25 o
0 -2 7 -2 0.10 2.81 0.94 <
0 2 -7 2 0.10 -0.62 0.94 <
-1 -2 7 1 10.63 2.81 0.94 <
1 2 -7 -1 10.63 2.50 0.94 <
0 -2 7 -1 10.09 26.53 0.94 o
0 2 -7 1 10.09 27.46 0.94 o
-1 -2 7 2 8.03 3.43 0.94 o
1 2 -7 -2 8.03 1.56 0.62 <
0 -2 7 0 71.00 21.53 0.94 o
0 2 -7 0 71.00 20.91 0.94 o
1 -2 7 -2 4.11 1.87 0.94 <
-1 2 -7 2 4.11 0.94 0.94 <
0 -2 7 1 6.70 10.30 1.25 o
0 2 -7 -1 6.70 16.85 0.94 o
1 -2 7 -1 4.65 19.66 0.94 o
-1 2 -7 1 4.65 8.11 0.94 o
0 -2 7 2 2.05 2.50 0.62 o
0 2 -7 -2 2.05 0.94 0.62 <
1 -2 7 0 12.22 13.42 0.62 o
-1 2 -7 0 12.22 10.30 0.62 o
2 -2 7 -2 2.31 3.74 0.62 o
-2 2 -7 2 2.31 0.31 0.62 <
1 -2 7 1 6.13 1.87 0.62 o
-1 2 -7 -1 6.13 2.81 0.62 o
2 -2 7 -1 3.25 5.93 0.62 o
-2 2 -7 1 3.25 1.25 0.62 <
1 -2 7 2 0.03 -0.31 0.94 <
-1 2 -7 -2 0.03 1.25 0.62 <
2 -2 7 0 11.70 6.24 1.25 o
-2 2 -7 0 11.70 4.06 1.56 <
3 -2 7 -2 0.79 4.37 1.25 o
-3 2 -7 2 0.79 -0.62 1.25 <
2 -2 7 1 3.29 -0.31 1.25 <
-2 2 -7 -1 3.29 1.25 1.25 <
3 -2 7 -1 1.39 0.31 1.56 <
-3 2 -7 1 1.39 -0.31 1.25 <
2 -2 7 2 0.32 0.31 1.56 <
-2 2 -7 -2 0.32 -1.25 1.56 <
3 -2 7 0 0.18 -2.81 1.56 <
-3 2 -7 0 0.18 0.31 1.56 <
-4 -1 7 1 0.16 0.62 1.87 <
4 1 -7 -1 0.16 -2.18 2.18 <
-3 -1 7 -1 0.17 -0.94 1.56 <
3 1 -7 1 0.17 2.50 2.18 <
-4 -1 7 2 0.38 0.00 1.25 <
4 1 -7 -2 0.38 -1.25 2.81 <
-3 -1 7 0 2.97 0.31 1.25 <
3 1 -7 0 2.97 -2.81 1.56 <
-2 -1 7 -2 1.28 -0.62 1.25 <
2 1 -7 2 1.28 0.94 1.25 <
-3 -1 7 1 5.60 1.56 1.25 <
3 1 -7 -1 5.60 -0.62 1.25 <
-2 -1 7 -1 4.28 0.00 1.25 <
2 1 -7 1 4.28 -0.94 1.25 <
-3 -1 7 2 0.03 -2.50 1.25 <
3 1 -7 -2 0.03 3.12 1.25 <
-2 -1 7 0 6.23 0.62 1.25 <
2 1 -7 0 6.23 4.06 1.25 o
-1 -1 7 -2 1.34 -2.50 1.25 <
1 1 -7 2 1.34 3.74 1.25 o
-2 -1 7 1 11.20 -0.31 1.25 <
2 1 -7 -1 11.20 1.87 1.25 <
-1 -1 7 -1 20.42 -0.31 0.94 <
1 1 -7 1 20.42 1.56 0.94 <
-2 -1 7 2 5.51 4.68 0.94 o
2 1 -7 -2 5.51 6.24 0.94 o
-1 -1 7 0 114.82 98.92 1.56 o
1 1 -7 0 114.82 93.31 1.56 o
0 -1 7 -2 0.52 1.87 0.94 <
0 1 -7 2 0.52 0.94 0.94 <
-1 -1 7 1 18.24 10.61 0.62 o
1 1 -7 -1 18.24 7.18 0.94 o
0 -1 7 -1 13.37 23.09 0.94 o
0 1 -7 1 13.37 19.66 0.62 o
-1 -1 7 2 10.02 4.68 0.62 o
1 1 -7 -2 10.02 5.93 0.62 o
0 -1 7 0 18.79 17.48 0.62 o
0 1 -7 0 18.79 16.85 0.62 o
1 -1 7 -2 3.27 6.87 0.62 o
-1 1 -7 2 3.27 9.67 0.62 o
0 -1 7 1 5.36 19.04 0.62 o
0 1 -7 -1 5.36 19.04 0.62 o
1 -1 7 -1 1.99 4.68 0.94 o
-1 1 -7 1 1.99 11.23 1.25 o
0 -1 7 2 2.76 0.62 1.56 <
0 1 -7 -2 2.76 2.50 1.25 <
1 -1 7 0 21.24 0.62 0.94 <
-1 1 -7 0 21.24 -1.25 3.74 <
2 -1 7 -2 2.00 0.94 0.94 <
-2 1 -7 2 2.00 -0.31 1.56 <
1 -1 7 1 3.06 1.25 0.94 <
-1 1 -7 -1 3.06 -2.18 1.25 <
2 -1 7 -1 3.37 -2.18 3.12 <
-2 1 -7 1 3.37 -0.62 1.25 <
1 -1 7 2 0.00 0.62 1.25 <
-1 1 -7 -2 0.00 1.87 1.56 <
2 -1 7 0 11.72 0.31 1.25 <
-2 1 -7 0 11.72 -0.31 1.56 <
3 -1 7 -2 0.73 -0.31 1.56 <
-3 1 -7 2 0.73 0.00 1.56 <
2 -1 7 1 3.06 -3.43 1.56 <
-2 1 -7 -1 3.06 -1.87 1.56 <
3 -1 7 -1 1.51 4.68 1.56 <
-3 1 -7 1 1.51 -3.12 1.56 <
2 -1 7 2 0.21 2.18 1.87 <
-2 1 -7 -2 0.21 0.94 1.56 <
-3 0 7 -2 0.05 4.06 1.56 <
3 0 -7 2 0.05 2.50 1.87 <
-4 0 7 1 0.06 3.12 1.56 <
4 0 -7 -1 0.06 1.56 1.56 <
-3 0 7 -1 0.05 4.37 1.25 o
3 0 -7 1 0.05 -3.74 1.25 <
-4 0 7 2 0.69 -3.12 1.25 <
4 0 -7 -2 0.69 1.56 1.25 <
-3 0 7 0 4.99 5.62 1.25 o
3 0 -7 0 4.99 1.56 1.25 <
-2 0 7 -2 1.61 1.56 1.25 <
2 0 -7 2 1.61 -1.87 1.25 <
-3 0 7 1 7.37 4.37 1.25 o
3 0 -7 -1 7.37 -1.87 1.25 <
-2 0 7 -1 7.01 3.74 1.25 o
2 0 -7 1 7.01 1.87 1.25 <
-3 0 7 2 0.09 0.94 1.25 <
3 0 -7 -2 0.09 3.74 1.25 o
-2 0 7 0 2.19 -0.94 1.25 <
2 0 -7 0 2.19 1.25 1.25 <
-1 0 7 -2 2.17 -0.62 1.25 <
1 0 -7 2 2.17 1.25 0.94 <
-2 0 7 1 8.91 8.74 0.94 o
2 0 -7 -1 8.91 2.50 0.94 <
-1 0 7 -1 43.75 16.85 0.94 o
1 0 -7 1 43.75 17.48 0.94 o
-2 0 7 2 5.09 0.00 0.94 <
2 0 -7 -2 5.09 -0.62 0.94 <
-1 0 7 0 184.63 260.57 1.56 o
1 0 -7 0 184.63 240.91 1.56 o
0 0 7 -2 1.27 1.87 0.62 o
0 0 -7 2 1.27 -2.18 0.94 <
-1 0 7 1 23.12 35.58 0.94 o
1 0 -7 -1 23.12 31.52 0.94 o
0 0 7 -1 21.79 6.87 0.62 o
0 0 -7 1 21.79 7.80 0.62 o
-1 0 7 2 10.10 14.67 0.62 o
1 0 -7 -2 10.10 18.10 0.62 o
0 0 7 0 6.29 49.31 0.62 o
0 0 -7 0 6.29 52.74 0.62 o
1 0 7 -2 2.05 2.50 0.62 o
-1 0 -7 2 2.05 1.87 0.62 o
0 0 7 1 4.06 4.99 3.43 <
0 0 -7 -1 4.06 -0.62 1.25 <
1 0 7 -1 0.19 0.62 1.25 <
-1 0 -7 1 0.19 1.56 1.25 <
0 0 7 2 2.99 2.81 1.25 <
0 0 -7 -2 2.99 2.18 1.25 <
1 0 7 0 10.14 -0.31 1.25 <
-1 0 -7 0 10.14 -0.94 1.25 <
2 0 7 -2 1.50 -3.43 2.18 <
-2 0 -7 2 1.50 -2.50 1.56 <
-1 0 -7 -1 1.09 3.12 3.43 <
1 0 7 2 0.03 5.31 7.18 <
2 0 7 0 9.04 0.00 3.43 <
3 0 7 -2 0.57 2.50 2.50 <
2 0 7 1 2.38 0.62 1.87 <
3 0 7 -1 1.55 4.06 1.87 <
-3 0 -7 1 1.55 17.48 10.30 <
-4 1 7 0 6.21 1.25 1.56 <
4 -1 -7 0 6.21 0.62 1.56 <
-3 1 7 -2 0.06 -1.56 1.25 <
3 -1 -7 2 0.06 -1.87 1.56 <
-4 1 7 1 0.18 -0.94 1.25 <
4 -1 -7 -1 0.18 -0.62 1.25 <
-3 1 7 -1 0.01 4.37 1.25 o
3 -1 -7 1 0.01 0.94 1.25 <
-4 1 7 2 1.03 2.18 1.25 <
4 -1 -7 -2 1.03 2.81 1.25 <
-3 1 7 0 9.86 5.93 1.25 o
3 -1 -7 0 9.86 -0.62 1.25 <
-2 1 7 -2 1.72 0.31 1.25 <
2 -1 -7 2 1.72 -1.25 1.25 <
-3 1 7 1 8.65 0.62 1.25 <
3 -1 -7 -1 8.65 3.74 1.25 o
-2 1 7 -1 9.20 4.99 1.25 o
2 -1 -7 1 9.20 2.81 1.25 <
-3 1 7 2 0.26 -0.62 1.25 <
3 -1 -7 -2 0.26 2.81 1.25 <
-2 1 7 0 0.76 27.77 1.25 o
2 -1 -7 0 0.76 26.84 1.25 o
-1 1 7 -2 3.06 0.31 0.94 <
1 -1 -7 2 3.06 0.31 0.94 <
-2 1 7 1 4.54 2.81 0.94 <
2 -1 -7 -1 4.54 -1.87 0.94 <
-1 1 7 -1 70.22 92.99 1.25 o
1 -1 -7 1 70.22 88.94 1.25 o
-2 1 7 2 3.21 0.00 0.94 <
2 -1 -7 -2 3.21 2.50 0.94 <
-1 1 7 0 507.48 538.62 1.87 o
1 -1 -7 0 507.48 534.25 1.87 o
0 1 7 -2 1.98 0.62 0.62 <
0 -1 -7 2 1.98 -1.56 0.62 <
-1 1 7 1 21.79 33.08 0.94 o
1 -1 -7 -1 21.79 29.96 0.94 o
0 1 7 -1 31.12 79.89 0.94 o
0 -1 -7 1 31.12 74.90 0.94 o
-1 1 7 2 8.04 9.99 0.62 o
1 -1 -7 -2 8.04 9.99 0.62 o
0 1 7 0 72.00 98.30 0.94 o
0 -1 -7 0 72.00 97.36 1.25 o
1 1 7 -2 0.97 2.50 1.25 <
-1 -1 -7 2 0.97 3.43 1.25 <
0 1 7 1 3.01 0.94 1.25 <
0 -1 -7 -1 3.01 2.50 1.25 <
1 1 7 -1 0.25 -2.50 1.25 <
-1 -1 -7 1 0.25 2.18 1.25 <
0 1 7 2 2.61 5.62 1.25 o
0 -1 -7 -2 2.61 4.37 1.56 <
1 1 7 0 12.52 1.87 5.62 <
-1 -1 -7 0 12.52 5.93 1.87 o
-5 2 7 2 0.34 2.50 1.56 <
5 -2 -7 -2 0.34 1.87 1.56 <
-4 2 7 0 9.70 2.50 1.25 <
4 -2 -7 0 9.70 3.43 1.56 <
-3 2 7 -2 0.11 3.12 1.25 <
3 -2 -7 2 0.11 -1.25 1.25 <
-4 2 7 1 0.63 -1.25 1.25 <
4 -2 -7 -1 0.63 2.50 1.25 <
-3 2 7 -1 0.32 3.12 1.25 <
3 -2 -7 1 0.32 1.87 1.25 <
-4 2 7 2 1.25 -2.18 1.25 <
4 -2 -7 -2 1.25 -0.62 1.25 <
-3 2 7 0 19.23 4.37 1.25 o
3 -2 -7 0 19.23 2.81 1.25 <
-2 2 7 -2 1.47 1.56 1.25 <
2 -2 -7 2 1.47 -2.81 1.25 <
-3 2 7 1 9.00 3.74 1.25 o
3 -2 -7 -1 9.00 4.68 1.25 o
-2 2 7 -1 9.22 4.37 1.25 o
2 -2 -7 1 9.22 4.68 1.25 o
-3 2 7 2 0.54 -0.62 0.94 <
3 -2 -7 -2 0.54 0.00 1.25 <
-2 2 7 0 3.89 8.11 0.94 o
2 -2 -7 0 3.89 11.23 0.94 o
-1 2 7 -2 3.69 4.68 0.94 o
1 -2 -7 2 3.69 2.18 0.94 <
-2 2 7 1 3.41 3.12 0.94 o
2 -2 -7 -1 3.41 1.56 0.94 <
-1 2 7 -1 80.45 139.80 1.25 o
1 -2 -7 1 80.45 139.49 1.25 o
-2 2 7 2 1.46 3.43 0.94 o
2 -2 -7 -2 1.46 3.12 0.94 o
-1 2 7 0 216.40 359.50 1.56 o
1 -2 -7 0 216.40 365.42 1.56 o
0 2 7 -2 2.10 0.94 0.62 <
0 -2 -7 2 2.10 -1.25 0.62 <
-1 2 7 1 15.71 9.99 0.62 o
1 -2 -7 -1 15.71 10.92 0.62 o
0 2 7 -1 34.37 30.89 0.94 o
0 -2 -7 1 34.37 34.95 0.94 o
-1 2 7 2 5.11 0.62 0.62 <
1 -2 -7 -2 5.11 0.62 0.94 <
0 2 7 0 68.11 22.16 1.56 o
0 -2 -7 0 68.11 26.21 1.56 o
1 2 7 -2 0.31 2.81 1.25 <
-1 -2 -7 2 0.31 2.81 1.25 <
0 2 7 1 2.03 1.87 1.25 <
0 -2 -7 -1 2.03 -4.37 1.56 <
1 2 7 -1 1.35 -2.81 2.18 <
-1 -2 -7 1 1.35 -0.31 1.56 <
0 -2 -7 -2 1.88 4.99 3.74 <
-4 3 7 -1 2.12 -3.12 1.56 <
4 -3 -7 1 2.12 2.18 1.56 <
-5 3 7 2 0.33 -1.25 1.25 <
5 -3 -7 -2 0.33 9.67 1.56 o
-4 3 7 0 12.95 -2.18 1.25 <
4 -3 -7 0 12.95 3.43 1.25 <
-3 3 7 -2 0.20 -6.24 1.25 <
3 -3 -7 2 0.20 -0.62 1.25 <
-4 3 7 1 1.39 2.50 1.25 <
4 -3 -7 -1 1.39 1.87 1.25 <
-3 3 7 -1 1.19 -0.31 1.25 <
3 -3 -7 1 1.19 0.31 1.56 <
-4 3 7 2 1.23 -3.43 1.25 <
4 -3 -7 -2 1.23 0.62 1.25 <
-3 3 7 0 27.18 24.65 1.25 o
3 -3 -7 0 27.18 28.71 1.25 o
-2 3 7 -2 1.00 0.94 1.25 <
2 -3 -7 2 1.00 2.18 1.25 <
-3 3 7 1 8.16 2.81 1.25 <
3 -3 -7 -1 8.16 4.68 1.25 o
-2 3 7 -1 6.43 3.12 0.94 o
2 -3 -7 1 6.43 4.37 1.25 o
-3 3 7 2 0.82 1.25 0.94 <
3 -3 -7 -2 0.82 0.62 0.94 <
-2 3 7 0 4.87 6.87 0.94 o
2 -3 -7 0 4.87 4.99 0.94 o
-1 3 7 -2 3.80 0.31 0.94 <
1 -3 -7 2 3.80 1.87 0.94 <
-2 3 7 1 9.03 1.56 0.94 <
2 -3 -7 -1 9.03 2.50 0.94 <
-1 3 7 -1 65.19 62.41 1.25 o
1 -3 -7 1 65.19 61.48 1.25 o
-2 3 7 2 1.17 0.00 0.94 <
2 -3 -7 -2 1.17 2.81 0.94 <
-1 3 7 0 212.30 338.90 1.87 o
1 -3 -7 0 212.30 338.90 1.87 o
0 3 7 -2 1.57 1.56 0.62 <
0 -3 -7 2 1.57 2.50 0.62 o
-1 3 7 1 8.91 1.25 0.62 <
1 -3 -7 -1 8.91 2.18 0.62 o
0 3 7 -1 29.75 6.55 0.94 o
0 -3 -7 1 29.75 1.87 1.25 <
-1 3 7 2 2.74 0.00 1.25 <
1 -3 -7 -2 2.74 1.87 1.25 <
0 3 7 0 103.56 2.81 1.56 <
0 -3 -7 0 103.56 0.31 1.56 <
1 3 7 -2 0.08 5.62 1.56 o
-1 -3 -7 2 0.08 6.87 1.56 o
0 3 7 1 1.13 6.87 5.62 <
0 -3 -7 -1 1.13 6.87 2.18 o
-5 4 7 1 0.14 3.12 1.56 <
5 -4 -7 -1 0.14 4.99 1.56 o
-4 4 7 -1 2.86 4.06 1.25 o
4 -4 -7 1 2.86 4.99 1.56 o
-5 4 7 2 0.34 0.62 1.25 <
5 -4 -7 -2 0.34 0.94 1.56 <
-4 4 7 0 14.77 7.49 1.25 o
4 -4 -7 0 14.77 19.04 1.56 o
-3 4 7 -2 0.34 4.68 1.25 o
3 -4 -7 2 0.34 2.50 1.25 <
-4 4 7 1 2.21 1.87 1.25 <
4 -4 -7 -1 2.21 2.81 1.25 <
-3 4 7 -1 2.57 5.93 1.25 o
3 -4 -7 1 2.57 6.24 1.25 o
-4 4 7 2 0.97 -1.25 1.25 <
4 -4 -7 -2 0.97 1.87 1.25 <
-3 4 7 0 30.51 45.56 1.25 o
3 -4 -7 0 30.51 43.38 1.25 o
-2 4 7 -2 0.77 2.18 0.94 <
2 -4 -7 2 0.77 1.87 1.25 <
-3 4 7 1 6.39 9.36 1.25 o
3 -4 -7 -1 6.39 8.74 1.25 o
-2 4 7 -1 2.60 2.81 0.94 <
2 -4 -7 1 2.60 1.25 0.94 <
-3 4 7 2 0.93 0.94 0.94 <
3 -4 -7 -2 0.93 0.62 0.94 <
-2 4 7 0 20.58 22.78 1.25 o
2 -4 -7 0 20.58 25.28 1.25 o
-1 4 7 -2 3.42 5.62 0.94 o
1 -4 -7 2 3.42 4.68 0.94 o
-2 4 7 1 17.76 4.06 0.94 o
2 -4 -7 -1 17.76 3.12 0.94 o
-1 4 7 -1 38.13 16.23 0.94 o
1 -4 -7 1 38.13 14.04 0.94 o
-2 4 7 2 1.72 0.62 0.94 <
2 -4 -7 -2 1.72 3.12 0.94 o
-1 4 7 0 55.29 7.80 0.94 o
1 -4 -7 0 55.29 8.43 0.94 o
0 4 7 -2 0.81 0.62 0.94 <
0 -4 -7 2 0.81 -0.31 0.94 <
-1 4 7 1 3.89 -1.56 1.25 <
1 -4 -7 -1 3.89 -8.43 2.18 <
0 4 7 -1 21.12 0.94 1.56 <
0 -4 -7 1 21.12 6.87 1.56 o
-1 4 7 2 1.41 9.05 1.56 o
1 -4 -7 -2 1.41 -2.50 1.56 <
0 4 7 0 69.30 3.12 2.18 <
0 -4 -7 0 69.30 5.31 1.87 <
-1 -4 -7 2 0.08 2.18 5.62 <
-4 5 7 -2 0.07 2.81 1.56 <
4 -5 -7 2 0.07 -2.18 1.56 <
-5 5 7 1 0.43 -0.94 1.25 <
5 -5 -7 -1 0.43 -0.31 1.56 <
-4 5 7 -1 3.32 -0.62 1.25 <
4 -5 -7 1 3.32 2.81 1.56 <
-5 5 7 2 0.40 2.18 1.25 <
5 -5 -7 -2 0.40 -0.94 1.56 <
-4 5 7 0 10.80 15.92 1.25 o
4 -5 -7 0 10.80 21.53 1.56 o
-3 5 7 -2 0.48 1.87 1.25 <
3 -5 -7 2 0.48 0.94 1.25 <
-4 5 7 1 2.75 -1.56 1.25 <
4 -5 -7 -1 2.75 1.87 1.25 <
-3 5 7 -1 3.95 17.48 1.25 o
3 -5 -7 1 3.95 20.28 1.25 o
-4 5 7 2 0.71 0.62 1.25 <
4 -5 -7 -2 0.71 3.43 1.25 <
-3 5 7 0 80.32 106.72 1.56 o
3 -5 -7 0 80.32 112.03 1.56 o
-2 5 7 -2 1.17 -1.25 0.94 <
2 -5 -7 2 1.17 0.62 0.94 <
-3 5 7 1 4.54 12.17 1.25 o
3 -5 -7 -1 4.54 8.11 0.94 o
-2 5 7 -1 0.35 1.56 0.94 <
2 -5 -7 1 0.35 3.74 0.94 o
-3 5 7 2 0.74 -0.62 0.94 <
3 -5 -7 -2 0.74 1.25 0.94 <
-2 5 7 0 10.34 9.36 1.25 o
2 -5 -7 0 10.34 4.68 1.25 o
-1 5 7 -2 2.85 2.50 0.94 <
1 -5 -7 2 2.85 0.94 0.94 <
-2 5 7 1 23.12 1.87 0.94 <
2 -5 -7 -1 23.12 4.99 0.94 o
-1 5 7 -1 17.16 0.94 0.94 <
1 -5 -7 1 17.16 -0.31 0.94 <
-2 5 7 2 1.91 0.31 0.94 <
2 -5 -7 -2 1.91 -3.12 0.94 <
-1 5 7 0 55.42 3.74 0.94 o
1 -5 -7 0 55.42 10.30 0.94 o
0 5 7 -2 0.26 -1.87 1.56 <
0 -5 -7 2 0.26 -4.68 1.56 <
-1 5 7 1 1.13 5.93 1.56 o
1 -5 -7 -1 1.13 3.43 1.56 <
0 5 7 -1 12.84 -4.37 1.56 <
0 -5 -7 1 12.84 1.56 1.56 <
-1 5 7 2 0.87 -0.31 5.62 <
1 -5 -7 -2 0.87 5.31 2.18 <
-5 6 7 0 2.25 2.18 1.56 <
5 -6 -7 0 2.25 2.50 1.56 <
-4 6 7 -2 0.07 2.50 1.56 <
4 -6 -7 2 0.07 4.68 1.56 <
-5 6 7 1 0.90 0.31 1.25 <
5 -6 -7 -1 0.90 -0.94 1.56 <
-4 6 7 -1 3.35 0.62 1.25 <
4 -6 -7 1 3.35 0.62 1.25 <
-5 6 7 2 0.53 1.56 1.25 <
5 -6 -7 -2 0.53 3.74 1.25 o
-4 6 7 0 3.65 13.42 1.25 o
4 -6 -7 0 3.65 20.28 1.25 o
-3 6 7 -2 0.54 1.87 1.25 <
3 -6 -7 2 0.54 2.81 1.25 <
-4 6 7 1 2.82 3.12 1.25 <
4 -6 -7 -1 2.82 0.00 1.25 <
-3 6 7 -1 4.65 19.97 1.25 o
3 -6 -7 1 4.65 18.10 1.25 o
-4 6 7 2 0.67 0.94 1.25 <
4 -6 -7 -2 0.67 2.81 1.25 <
-3 6 7 0 67.32 156.65 1.56 o
3 -6 -7 0 67.32 146.04 1.56 o
-2 6 7 -2 1.98 1.56 1.25 <
2 -6 -7 2 1.98 1.87 1.25 <
-3 6 7 1 3.47 4.68 1.25 o
3 -6 -7 -1 3.47 5.93 1.25 o
-2 6 7 -1 0.42 0.31 1.25 <
2 -6 -7 1 0.42 2.50 1.25 <
-3 6 7 2 0.41 0.62 0.94 <
3 -6 -7 -2 0.41 0.31 0.94 <
-2 6 7 0 1.04 2.50 1.25 <
2 -6 -7 0 1.04 3.12 1.25 <
-1 6 7 -2 2.31 0.94 0.94 <
1 -6 -7 2 2.31 0.31 0.94 <
-2 6 7 1 22.71 -1.56 0.94 <
2 -6 -7 -1 22.71 0.31 0.94 <
-1 6 7 -1 7.07 2.18 0.94 <
1 -6 -7 1 7.07 2.18 0.94 <
-2 6 7 2 1.49 1.25 0.94 <
2 -6 -7 -2 1.49 2.18 1.25 <
-1 6 7 0 22.76 -4.06 2.50 <
1 -6 -7 0 22.76 -12.17 1.87 <
0 6 7 -2 0.03 5.93 1.56 o
0 -6 -7 2 0.03 20.60 1.56 o
-1 6 7 1 0.11 -2.81 2.50 <
1 -6 -7 -1 0.11 -1.25 1.87 <
0 -6 -7 1 6.94 9.99 5.31 <
-6 7 7 2 0.09 1.87 1.56 <
6 -7 -7 -2 0.09 -0.31 1.56 <
-5 7 7 0 1.67 0.94 1.56 <
5 -7 -7 0 1.67 0.62 1.56 <
-4 7 7 -2 0.06 1.25 1.25 <
4 -7 -7 2 0.06 -1.87 1.56 <
-5 7 7 1 1.47 0.31 1.25 <
5 -7 -7 -1 1.47 2.81 1.25 <
-4 7 7 -1 2.98 0.00 1.25 <
4 -7 -7 1 2.98 1.25 1.25 <
-5 7 7 2 0.70 4.37 1.25 o
5 -7 -7 -2 0.70 0.31 1.25 <
-4 7 7 0 1.62 4.99 1.25 o
4 -7 -7 0 1.62 3.12 1.25 <
-3 7 7 -2 0.47 2.50 1.25 <
3 -7 -7 2 0.47 2.81 1.25 <
-4 7 7 1 2.48 -1.25 1.25 <
4 -7 -7 -1 2.48 1.87 1.25 <
-3 7 7 -1 4.27 14.67 1.25 o
3 -7 -7 1 4.27 13.73 1.25 o
-4 7 7 2 0.88 -1.87 1.25 <
4 -7 -7 -2 0.88 2.18 1.25 <
-3 7 7 0 36.54 64.91 1.25 o
3 -7 -7 0 36.54 63.35 1.25 o
-2 7 7 -2 2.51 -0.31 1.25 <
2 -7 -7 2 2.51 0.62 1.25 <
-3 7 7 1 3.20 1.87 1.25 <
3 -7 -7 -1 3.20 2.50 1.25 <
-2 7 7 -1 1.44 0.62 1.25 <
2 -7 -7 1 1.44 3.43 1.25 <
-3 7 7 2 0.19 -1.56 1.25 <
3 -7 -7 -2 0.19 1.56 1.25 <
-2 7 7 0 1.20 0.00 1.25 <
2 -7 -7 0 1.20 2.81 1.25 <
-1 7 7 -2 1.81 -0.31 1.25 <
1 -7 -7 2 1.81 3.43 1.25 <
-2 7 7 1 18.33 3.43 1.25 <
2 -7 -7 -1 18.33 3.12 1.25 <
-1 7 7 -1 3.69 -2.50 1.25 <
1 -7 -7 1 3.69 1.87 1.25 <
-2 7 7 2 0.90 -11.23 3.43 <
2 -7 -7 -2 0.90 -1.87 1.87 <
-1 7 7 0 12.26 0.00 1.87 <
1 -7 -7 0 12.26 2.81 1.87 <
0 7 7 -2 0.04 36.20 8.43 o
0 -7 -7 2 0.04 3.12 2.50 <
-6 8 7 2 0.10 -1.87 1.56 <
6 -8 -7 -2 0.10 0.62 1.56 <
-5 8 7 0 1.04 4.06 1.56 <
5 -8 -7 0 1.04 1.25 1.56 <
-4 8 7 -2 0.06 0.31 1.25 <
4 -8 -7 2 0.06 0.00 1.25 <
-5 8 7 1 1.97 0.62 1.25 <
5 -8 -7 -1 1.97 4.37 1.25 o
-4 8 7 -1 2.43 1.25 1.25 <
4 -8 -7 1 2.43 -2.18 1.25 <
-5 8 7 2 0.86 2.50 1.25 <
5 -8 -7 -2 0.86 5.62 1.25 o
-4 8 7 0 0.57 16.23 1.25 o
4 -8 -7 0 0.57 16.85 1.25 o
-3 8 7 -2 0.28 3.43 1.25 <
3 -8 -7 2 0.28 5.62 1.25 o
-4 8 7 1 1.94 -1.25 1.25 <
4 -8 -7 -1 1.94 3.74 1.25 o
-3 8 7 -1 3.06 17.48 1.25 o
3 -8 -7 1 3.06 18.10 1.25 o
-4 8 7 2 1.18 2.81 1.25 <
4 -8 -7 -2 1.18 0.94 1.25 <
-3 8 7 0 26.70 13.42 1.25 o
3 -8 -7 0 26.70 12.48 1.25 o
-2 8 7 -2 2.40 -1.87 1.25 <
2 -8 -7 2 2.40 1.87 1.25 <
-3 8 7 1 3.09 -0.62 1.25 <
3 -8 -7 -1 3.09 0.62 1.25 <
-2 8 7 -1 2.07 -0.31 1.25 <
2 -8 -7 1 2.07 4.68 1.25 o
-3 8 7 2 0.15 -0.62 1.25 <
3 -8 -7 -2 0.15 0.31 1.25 <
-2 8 7 0 1.49 3.12 1.25 <
2 -8 -7 0 1.49 6.87 1.25 o
-1 8 7 -2 1.35 -2.81 1.25 <
1 -8 -7 2 1.35 7.80 1.25 o
-2 8 7 1 12.73 -1.87 1.25 <
2 -8 -7 -1 12.73 9.67 1.56 o
-1 8 7 -1 2.74 -6.87 1.87 <
1 -8 -7 1 2.74 -4.68 1.87 <
-2 8 7 2 0.46 0.62 2.50 <
2 -8 -7 -2 0.46 -3.43 1.87 <
1 -8 -7 0 6.43 0.00 4.68 <
-5 9 7 -1 0.53 -0.62 1.56 <
5 -9 -7 1 0.53 2.50 1.56 <
-6 9 7 2 0.09 0.94 1.56 <
6 -9 -7 -2 0.09 0.00 1.56 <
-5 9 7 0 0.57 1.25 1.25 <
5 -9 -7 0 0.57 -0.62 1.25 <
-4 9 7 -2 0.07 -1.87 1.25 <
4 -9 -7 2 0.07 2.81 1.25 <
-5 9 7 1 2.20 4.68 1.25 o
5 -9 -7 -1 2.20 4.68 1.25 o
-4 9 7 -1 2.01 4.37 1.25 o
4 -9 -7 1 2.01 2.81 1.25 <
-5 9 7 2 0.94 2.81 1.25 <
5 -9 -7 -2 0.94 3.12 1.25 <
-4 9 7 0 2.05 9.36 1.25 o
4 -9 -7 0 2.05 14.35 1.25 o
-3 9 7 -2 0.10 1.87 1.25 <
3 -9 -7 2 0.10 1.87 1.25 <
-4 9 7 1 1.43 -0.62 1.25 <
4 -9 -7 -1 1.43 2.50 1.25 <
-3 9 7 -1 1.72 4.37 1.25 o
3 -9 -7 1 1.72 4.37 1.25 o
-4 9 7 2 1.37 1.87 1.25 <
4 -9 -7 -2 1.37 2.50 1.25 <
-3 9 7 0 18.10 6.55 1.25 o
3 -9 -7 0 18.10 4.68 1.25 o
-2 9 7 -2 1.84 1.87 1.25 <
2 -9 -7 2 1.84 -1.25 1.25 <
-3 9 7 1 2.67 -0.31 1.25 <
3 -9 -7 -1 2.67 1.25 1.25 <
-2 9 7 -1 1.94 1.25 1.25 <
2 -9 -7 1 1.94 -0.31 1.25 <
-3 9 7 2 0.21 2.81 1.25 <
3 -9 -7 -2 0.21 0.00 1.25 <
-2 9 7 0 1.33 -2.50 1.25 <
2 -9 -7 0 1.33 -3.74 1.25 <
-1 9 7 -2 0.94 2.18 1.25 <
1 -9 -7 2 0.94 0.94 1.87 <
-2 9 7 1 7.73 5.62 1.87 <
2 -9 -7 -1 7.73 -2.81 1.87 <
1 -9 -7 1 2.36 -4.06 2.50 <
-5 10 7 -1 0.83 0.94 1.56 <
5 -10 -7 1 0.83 -3.43 1.56 <
-6 10 7 2 0.06 0.62 1.56 <
6 -10 -7 -2 0.06 1.87 1.25 <
-5 10 7 0 0.26 8.11 1.56 o
5 -10 -7 0 0.26 16.85 1.25 o
-4 10 7 -2 0.09 0.62 1.25 <
4 -10 -7 2 0.09 0.31 1.25 <
-5 10 7 1 2.05 2.50 1.25 <
5 -10 -7 -1 2.05 0.00 1.25 <
-4 10 7 -1 1.97 2.50 1.25 <
4 -10 -7 1 1.97 0.94 1.25 <
-5 10 7 2 0.90 2.50 1.25 <
5 -10 -7 -2 0.90 -0.94 1.25 <
-4 10 7 0 8.14 14.04 1.25 o
4 -10 -7 0 8.14 17.16 1.56 o
-3 10 7 -2 0.01 0.62 1.25 <
3 -10 -7 2 0.01 0.00 1.25 <
-4 10 7 1 1.05 1.87 1.25 <
4 -10 -7 -1 1.05 2.50 1.25 <
-3 10 7 -1 0.85 2.81 1.25 <
3 -10 -7 1 0.85 2.50 1.25 <
-4 10 7 2 1.36 0.94 1.25 <
4 -10 -7 -2 1.36 0.94 1.25 <
-3 10 7 0 5.21 0.94 1.25 <
3 -10 -7 0 5.21 1.25 1.25 <
-2 10 7 -2 1.21 0.00 1.25 <
2 -10 -7 2 1.21 -1.25 1.25 <
-3 10 7 1 2.01 -2.81 1.25 <
3 -10 -7 -1 2.01 2.18 1.25 <
-2 10 7 -1 1.36 4.06 1.25 o
2 -10 -7 1 1.36 -0.62 1.25 <
-3 10 7 2 0.27 -1.56 1.25 <
3 -10 -7 -2 0.27 3.43 1.25 <
-2 10 7 0 1.62 -0.62 1.25 <
2 -10 -7 0 1.62 5.31 3.12 <
-1 10 7 -2 0.61 -3.12 3.74 <
1 -10 -7 2 0.61 -5.62 1.87 <
2 -10 -7 -1 4.07 -3.74 3.74 <
-5 11 7 -1 1.14 -0.62 1.56 <
5 -11 -7 1 1.14 0.94 1.56 <
-6 11 7 2 0.03 3.12 1.56 <
6 -11 -7 -2 0.03 -0.94 1.56 <
-5 11 7 0 0.34 1.87 1.56 <
5 -11 -7 0 0.34 3.43 1.25 <
-4 11 7 -2 0.10 2.18 1.25 <
4 -11 -7 2 0.10 -1.25 1.25 <
-5 11 7 1 1.55 2.81 1.25 <
5 -11 -7 -1 1.55 0.00 1.25 <
-4 11 7 -1 2.33 0.62 1.25 <
4 -11 -7 1 2.33 0.94 1.25 <
-5 11 7 2 0.74 0.62 1.25 <
5 -11 -7 -2 0.74 0.62 1.25 <
-4 11 7 0 14.95 6.24 1.25 o
4 -11 -7 0 14.95 7.49 1.25 o
-3 11 7 -2 0.01 0.31 1.25 <
3 -11 -7 2 0.01 1.56 1.25 <
-4 11 7 1 0.86 -0.62 1.25 <
4 -11 -7 -1 0.86 -0.31 1.25 <
-3 11 7 -1 0.64 -2.50 1.25 <
3 -11 -7 1 0.64 -1.25 1.25 <
-4 11 7 2 1.19 3.12 1.25 <
4 -11 -7 -2 1.19 0.62 1.25 <
-3 11 7 0 0.11 -0.62 1.25 <
3 -11 -7 0 0.11 -1.87 1.25 <
-2 11 7 -2 0.72 -0.62 1.25 <
2 -11 -7 2 0.72 -2.81 1.25 <
-3 11 7 1 1.40 -1.56 1.25 <
3 -11 -7 -1 1.40 -0.62 1.25 <
-2 11 7 -1 0.73 0.00 1.25 <
2 -11 -7 1 0.73 1.87 1.25 <
-3 11 7 2 0.31 9.05 1.56 o
3 -11 -7 -2 0.31 3.43 1.87 <
2 -11 -7 0 1.31 0.31 2.50 <
-5 12 7 -1 1.29 -3.43 1.56 <
5 -12 -7 1 1.29 2.18 1.56 <
-6 12 7 2 0.01 0.31 1.56 <
6 -12 -7 -2 0.01 -0.94 1.56 <
-5 12 7 0 0.38 1.56 1.56 <
5 -12 -7 0 0.38 7.49 1.56 o
-4 12 7 -2 0.11 -0.94 1.25 <
4 -12 -7 2 0.11 0.62 1.56 <
-5 12 7 1 0.92 -1.87 1.25 <
5 -12 -7 -1 0.92 3.43 1.56 <
-4 12 7 -1 2.80 -2.81 1.25 <
4 -12 -7 1 2.80 -3.12 1.56 <
-5 12 7 2 0.52 0.94 1.25 <
5 -12 -7 -2 0.52 0.00 1.56 <
-4 12 7 0 15.09 3.74 1.25 o
4 -12 -7 0 15.09 1.25 1.56 <
-3 12 7 -2 0.05 -1.25 1.25 <
3 -12 -7 2 0.05 5.31 1.56 o
-4 12 7 1 0.77 2.50 1.25 <
4 -12 -7 -1 0.77 1.25 1.25 <
-3 12 7 -1 0.87 -1.25 1.25 <
3 -12 -7 1 0.87 -0.31 1.25 <
-4 12 7 2 0.92 -2.81 1.25 <
4 -12 -7 -2 0.92 1.56 1.56 <
-3 12 7 0 0.90 5.62 1.25 o
3 -12 -7 0 0.90 3.12 1.25 <
-2 12 7 -2 0.39 -0.94 1.25 <
2 -12 -7 2 0.39 5.93 1.25 o
-3 12 7 1 0.97 2.81 1.25 <
3 -12 -7 -1 0.97 4.68 1.56 <
-2 12 7 -1 0.28 0.31 2.50 <
2 -12 -7 1 0.28 11.55 2.18 o
3 -12 -7 -2 0.29 1.56 3.43 <
-5 13 7 -1 1.21 3.12 2.18 <
5 -13 -7 1 1.21 0.94 2.18 <
-6 13 7 2 0.00 0.31 1.56 <
6 -13 -7 -2 0.00 0.62 1.56 <
-5 13 7 0 0.24 1.56 1.56 <
5 -13 -7 0 0.24 2.18 1.56 <
-4 13 7 -2 0.11 -1.25 1.56 <
4 -13 -7 2 0.11 -1.56 1.56 <
-5 13 7 1 0.37 1.87 1.56 <
5 -13 -7 -1 0.37 -1.25 1.56 <
-4 13 7 -1 2.99 -1.25 1.56 <
4 -13 -7 1 2.99 1.56 1.56 <
-5 13 7 2 0.31 0.00 1.25 <
5 -13 -7 -2 0.31 -1.25 1.56 <
-4 13 7 0 13.53 2.81 1.56 <
4 -13 -7 0 13.53 -2.81 1.56 <
-3 13 7 -2 0.08 -2.50 1.25 <
3 -13 -7 2 0.08 0.62 1.56 <
-4 13 7 1 0.69 2.50 1.25 <
4 -13 -7 -1 0.69 3.43 1.56 <
-3 13 7 -1 1.19 1.87 1.25 <
3 -13 -7 1 1.19 3.74 1.56 <
-4 13 7 2 0.63 -0.31 1.25 <
4 -13 -7 -2 0.63 -1.87 1.56 <
-3 13 7 0 2.37 -0.62 1.56 <
3 -13 -7 0 2.37 8.11 1.56 o
-2 13 7 -2 0.19 -1.87 1.87 <
2 -13 -7 2 0.19 -4.99 1.87 <
-3 13 7 1 0.67 3.43 3.12 <
3 -13 -7 -1 0.67 4.06 2.50 <
2 -13 -7 1 0.06 -11.55 8.11 <
-6 14 7 2 0.01 -0.31 2.18 <
6 -14 -7 -2 0.01 4.99 2.18 <
-5 14 7 0 0.22 1.56 1.56 <
5 -14 -7 0 0.22 0.31 1.56 <
-4 14 7 -2 0.10 1.87 1.56 <
4 -14 -7 2 0.10 -0.94 1.56 <
-5 14 7 1 0.09 0.62 1.56 <
5 -14 -7 -1 0.09 1.56 1.56 <
-4 14 7 -1 2.73 -1.87 1.56 <
4 -14 -7 1 2.73 2.18 1.56 <
-5 14 7 2 0.15 2.18 1.56 <
5 -14 -7 -2 0.15 1.25 1.56 <
-4 14 7 0 11.31 -3.43 1.56 <
4 -14 -7 0 11.31 3.74 1.56 <
-3 14 7 -2 0.08 1.87 1.56 <
3 -14 -7 2 0.08 -2.18 1.56 <
-4 14 7 1 0.55 3.43 1.56 <
4 -14 -7 -1 0.55 -0.62 1.56 <
-3 14 7 -1 1.34 3.43 1.56 <
3 -14 -7 1 1.34 6.87 1.56 o
-4 14 7 2 0.38 2.81 1.56 <
4 -14 -7 -2 0.38 -2.18 1.56 <
-3 14 7 0 3.55 2.81 3.12 <
3 -14 -7 0 3.55 1.25 2.18 <
-2 14 7 -2 0.08 3.43 4.06 <
2 -14 -7 2 0.08 0.00 3.43 <
-5 15 7 1 0.06 -1.25 2.18 <
5 -15 -7 -1 0.06 0.62 2.18 <
-4 15 7 -1 2.12 -0.62 1.56 <
4 -15 -7 1 2.12 4.37 1.56 <
-5 15 7 2 0.07 1.87 1.56 <
5 -15 -7 -2 0.07 -5.31 1.56 <
-4 15 7 0 8.20 -3.12 1.56 <
4 -15 -7 0 8.20 -2.81 1.56 <
-3 15 7 -2 0.07 0.94 1.56 <
3 -15 -7 2 0.07 1.87 1.56 <
-4 13 -8 2 0.17 -4.99 2.81 <
-3 12 -8 0 6.72 -1.56 2.50 <
4 -12 8 -2 0.18 5.31 2.18 <
-4 12 -8 2 0.18 5.62 1.87 <
3 -12 8 1 0.82 0.31 1.87 <
-3 12 -8 -1 0.82 0.31 1.87 <
4 -12 8 -1 2.12 1.25 1.87 <
-4 12 -8 1 2.12 1.87 1.87 <
-2 11 -8 -2 0.03 0.62 2.18 <
3 -11 8 0 7.05 3.43 1.87 <
-3 11 -8 0 7.05 -0.62 1.56 <
4 -11 8 -2 0.15 1.56 1.87 <
-4 11 -8 2 0.15 0.00 1.56 <
3 -11 8 1 0.52 1.87 1.87 <
-3 11 -8 -1 0.52 -1.56 1.56 <
4 -11 8 -1 2.43 -2.50 2.81 <
-4 11 -8 1 2.43 3.43 1.56 <
3 -10 8 -1 2.02 6.55 8.11 <
-3 10 -8 1 2.02 3.43 1.87 <
2 -10 8 2 0.07 1.56 1.56 <
-2 10 -8 -2 0.07 1.56 1.56 <
3 -10 8 0 5.80 -0.94 1.56 <
-3 10 -8 0 5.80 -1.56 1.56 <
4 -10 8 -2 0.11 -1.87 0.94 <
-4 10 -8 2 0.11 1.87 1.56 <
3 -10 8 1 0.22 0.00 0.94 <
-3 10 -8 -1 0.22 0.62 3.12 <
4 -10 8 -1 2.35 -0.94 0.94 <
-4 10 -8 1 2.35 0.00 1.25 <
3 -10 8 2 0.14 1.56 1.56 <
-3 10 -8 -2 0.14 -1.87 1.56 <
3 -9 8 -2 0.87 -6.55 4.06 <
2 -9 8 1 5.42 7.18 2.18 o
-2 9 -8 -1 5.42 3.74 1.56 <
3 -9 8 -1 1.35 0.94 0.94 <
-3 9 -8 1 1.35 7.18 2.18 o
2 -9 8 2 0.12 2.81 0.94 <
-2 9 -8 -2 0.12 -1.87 1.25 <
3 -9 8 0 5.32 0.62 0.94 <
-3 9 -8 0 5.32 2.81 0.94 <
4 -9 8 -2 0.08 0.31 0.94 <
-4 9 -8 2 0.08 1.87 0.94 <
3 -9 8 1 0.06 1.25 0.94 <
-3 9 -8 -1 0.06 1.25 0.94 <
4 -9 8 -1 1.92 2.18 0.94 <
-4 9 -8 1 1.92 2.81 0.94 <
1 -8 8 1 0.77 -1.87 6.55 <
2 -8 8 -1 0.94 -5.62 2.18 <
1 -8 8 2 0.38 -0.62 1.56 <
-1 8 -8 -2 0.38 -0.94 4.06 <
2 -8 8 0 0.60 0.31 1.25 <
-2 8 -8 0 0.60 5.31 1.87 <
3 -8 8 -2 1.00 0.62 1.25 <
-3 8 -8 2 1.00 1.56 0.94 <
2 -8 8 1 6.94 -0.31 0.62 <
-2 8 -8 -1 6.94 3.74 0.62 o
3 -8 8 -1 0.78 2.50 0.62 o
-3 8 -8 1 0.78 1.87 0.62 o
2 -8 8 2 0.13 -0.31 0.62 <
-2 8 -8 -2 0.13 2.50 0.62 o
3 -8 8 0 3.93 0.62 0.62 <
-3 8 -8 0 3.93 -0.31 0.62 <
4 -8 8 -2 0.10 1.56 0.94 <
-4 8 -8 2 0.10 1.87 0.62 o
3 -8 8 1 0.15 0.94 0.94 <
-3 8 -8 -1 0.15 0.62 0.62 <
4 -8 8 -1 1.34 -1.87 0.94 <
-4 8 -8 1 1.34 0.62 0.94 <
1 -7 8 -1 4.58 -7.80 6.87 <
0 -7 8 2 1.99 -7.80 2.81 <
1 -7 8 0 40.18 4.06 1.56 <
-1 7 -8 0 40.18 -4.06 3.43 <
2 -7 8 -2 1.50 1.25 1.25 <
-2 7 -8 2 1.50 -1.56 1.87 <
1 -7 8 1 1.05 4.37 1.25 o
-1 7 -8 -1 1.05 2.50 1.25 <
2 -7 8 -1 1.64 -1.56 1.25 <
-2 7 -8 1 1.64 -1.56 1.25 <
1 -7 8 2 0.40 2.81 1.25 <
-1 7 -8 -2 0.40 0.62 3.43 <
2 -7 8 0 0.63 -0.62 0.94 <
-2 7 -8 0 0.63 1.56 0.62 <
3 -7 8 -2 1.14 0.31 0.62 <
-3 7 -8 2 1.14 1.25 0.62 <
2 -7 8 1 7.41 4.06 0.62 o
-2 7 -8 -1 7.41 5.31 0.62 o
3 -7 8 -1 0.63 1.87 0.62 o
-3 7 -8 1 0.63 2.50 0.62 o
2 -7 8 2 0.11 1.25 0.62 <
-2 7 -8 -2 0.11 -1.56 0.62 <
3 -7 8 0 3.70 1.25 0.62 <
-3 7 -8 0 3.70 1.25 0.62 <
4 -7 8 -2 0.18 0.31 0.62 <
-4 7 -8 2 0.18 0.00 0.62 <
3 -7 8 1 0.44 0.31 0.94 <
-3 7 -8 -1 0.44 1.87 0.62 o
4 -7 8 -1 0.86 -4.06 1.56 <
-4 7 -8 1 0.86 2.50 0.94 <
-1 -6 8 2 2.01 -4.37 7.18 <
0 -6 8 0 4.80 2.81 2.81 <
1 -6 8 -2 0.00 -0.94 1.87 <
-1 6 -8 2 0.00 2.81 3.12 <
0 -6 8 1 1.67 1.87 1.56 <
0 6 -8 -1 1.67 3.12 1.87 <
1 -6 8 -1 4.10 2.81 1.56 <
-1 6 -8 1 4.10 9.36 1.56 o
0 -6 8 2 3.26 1.87 1.25 <
0 6 -8 -2 3.26 6.55 1.56 o
1 -6 8 0 17.68 22.16 1.25 o
-1 6 -8 0 17.68 15.92 1.25 o
2 -6 8 -2 2.12 0.94 1.25 <
-2 6 -8 2 2.12 -0.31 1.25 <
1 -6 8 1 1.65 0.62 1.25 <
-1 6 -8 -1 1.65 -0.62 1.25 <
2 -6 8 -1 2.13 7.49 0.94 o
-2 6 -8 1 2.13 2.18 1.87 <
1 -6 8 2 0.56 0.00 0.62 <
-1 6 -8 -2 0.56 0.00 0.62 <
2 -6 8 0 0.24 1.25 0.62 <
-2 6 -8 0 0.24 0.62 0.62 <
3 -6 8 -2 1.23 0.31 0.62 <
-3 6 -8 2 1.23 1.87 0.62 o
2 -6 8 1 6.62 11.23 0.62 o
-2 6 -8 -1 6.62 9.99 0.62 o
3 -6 8 -1 0.90 -0.94 0.62 <
-3 6 -8 1 0.90 1.25 0.62 <
2 -6 8 2 0.06 1.56 0.62 <
-2 6 -8 -2 0.06 -1.56 0.62 <
3 -6 8 0 3.14 1.25 0.62 <
-3 6 -8 0 3.14 1.25 0.62 <
4 -6 8 -2 0.30 2.50 1.56 <
-4 6 -8 2 0.30 -0.31 0.62 <
3 -6 8 1 0.80 0.31 1.56 <
-3 6 -8 -1 0.80 2.50 1.25 <
2 5 -8 1 0.23 3.43 6.87 <
-1 -5 8 0 4.30 12.48 5.62 <
0 -5 8 -2 0.83 2.50 2.50 <
-1 -5 8 1 10.50 -0.62 1.87 <
1 5 -8 -1 10.50 3.12 3.43 <
0 -5 8 -1 6.45 -2.81 1.56 <
0 5 -8 1 6.45 0.00 1.87 <
-1 -5 8 2 2.83 -0.31 1.56 <
1 5 -8 -2 2.83 3.12 1.56 <
0 -5 8 0 9.50 0.00 1.56 <
0 5 -8 0 9.50 1.25 1.56 <
1 -5 8 -2 0.10 -1.87 1.56 <
-1 5 -8 2 0.10 6.55 1.56 o
0 -5 8 1 2.99 2.18 1.25 <
0 5 -8 -1 2.99 -0.62 1.25 <
1 -5 8 -1 3.88 10.61 1.25 o
-1 5 -8 1 3.88 9.05 1.25 o
0 -5 8 2 4.84 3.43 1.25 <
0 5 -8 -2 4.84 1.56 1.25 <
1 -5 8 0 17.88 23.40 1.25 o
-1 5 -8 0 17.88 21.53 1.25 o
2 -5 8 -2 2.42 4.06 1.25 o
-2 5 -8 2 2.42 0.31 1.25 <
1 -5 8 1 2.22 4.99 0.94 o
-1 5 -8 -1 2.22 2.81 1.25 <
2 -5 8 -1 2.06 0.94 0.62 <
-2 5 -8 1 2.06 3.12 0.62 o
1 -5 8 2 0.88 0.31 0.62 <
-1 5 -8 -2 0.88 -0.62 0.62 <
2 -5 8 0 0.05 1.56 0.62 <
-2 5 -8 0 0.05 3.12 0.62 o
3 -5 8 -2 1.22 -0.31 0.62 <
-3 5 -8 2 1.22 0.62 0.62 <
2 -5 8 1 4.92 8.74 0.62 o
-2 5 -8 -1 4.92 11.86 0.62 o
3 -5 8 -1 1.34 4.37 0.62 o
-3 5 -8 1 1.34 5.62 0.62 o
2 -5 8 2 0.02 -1.87 0.94 <
-2 5 -8 -2 0.02 2.50 0.62 o
3 -5 8 0 3.86 0.00 4.99 <
-3 5 -8 0 3.86 0.00 0.94 <
4 -5 8 -2 0.39 0.31 1.56 <
-4 5 -8 2 0.39 -2.50 2.81 <
3 -5 8 1 1.08 6.24 1.56 o
-3 5 -8 -1 1.08 4.37 1.56 <
-2 -4 8 -2 0.09 1.25 3.12 <
2 4 -8 2 0.09 1.25 2.18 <
-3 -4 8 1 0.51 3.74 3.43 <
3 4 -8 -1 0.51 0.62 2.18 <
-2 -4 8 -1 0.17 -2.81 4.37 <
2 4 -8 1 0.17 1.25 2.18 <
-3 -4 8 2 0.52 3.43 5.62 <
3 4 -8 -2 0.52 3.74 2.18 <
-2 -4 8 0 3.42 -22.16 8.11 <
2 4 -8 0 3.42 1.25 2.18 <
-1 -4 8 -2 1.70 -7.49 4.37 <
1 4 -8 2 1.70 0.62 2.81 <
-2 -4 8 1 5.23 -1.87 2.50 <
2 4 -8 -1 5.23 -3.74 3.74 <
-1 -4 8 -1 5.80 4.68 1.87 <
1 4 -8 1 5.80 -0.31 3.43 <
-2 -4 8 2 0.03 -0.62 1.56 <
2 4 -8 -2 0.03 3.12 2.18 <
-1 -4 8 0 0.38 0.62 1.56 <
1 4 -8 0 0.38 1.87 1.87 <
0 -4 8 -2 1.45 2.50 1.56 <
0 4 -8 2 1.45 3.12 1.56 <
-1 -4 8 1 12.12 0.94 1.56 <
1 4 -8 -1 12.12 1.56 1.56 <
0 -4 8 -1 12.10 -3.74 1.56 <
0 4 -8 1 12.10 3.74 1.56 <
-1 -4 8 2 3.47 1.56 1.56 <
1 4 -8 -2 3.47 3.12 1.56 <
0 -4 8 0 27.63 39.32 1.56 o
0 4 -8 0 27.63 40.57 1.56 o
1 -4 8 -2 0.42 3.12 1.25 <
-1 4 -8 2 0.42 -0.62 1.25 <
0 -4 8 1 5.67 3.12 1.25 <
0 4 -8 -1 5.67 11.86 1.25 o
1 -4 8 -1 5.50 8.74 1.25 o
-1 4 -8 1 5.50 9.67 1.25 o
0 -4 8 2 6.18 0.00 1.25 <
0 4 -8 -2 6.18 4.68 1.25 o
1 -4 8 0 3.69 17.79 1.25 o
-1 4 -8 0 3.69 14.04 1.25 o
2 -4 8 -2 2.17 4.68 1.87 <
-2 4 -8 2 2.17 4.68 0.62 o
1 -4 8 1 2.39 1.87 0.62 o
-1 4 -8 -1 2.39 1.87 0.62 o
2 -4 8 -1 1.35 4.68 0.62 o
-2 4 -8 1 1.35 6.55 0.62 o
1 -4 8 2 1.27 0.62 0.62 <
-1 4 -8 -2 1.27 0.31 0.62 <
2 -4 8 0 4.89 1.87 0.62 o
-2 4 -8 0 4.89 3.12 0.62 o
3 -4 8 -2 1.08 2.50 0.62 o
-3 4 -8 2 1.08 1.87 0.62 o
2 -4 8 1 2.92 1.25 0.94 <
-2 4 -8 -1 2.92 3.74 0.62 o
3 -4 8 -1 1.61 6.24 1.25 o
-3 4 -8 1 1.61 0.00 0.94 <
2 -4 8 2 0.00 -1.25 1.56 <
-2 4 -8 -2 0.00 -2.81 1.25 <
3 -4 8 0 4.09 8.11 1.56 o
-3 4 -8 0 4.09 -0.31 1.25 <
4 -4 8 -2 0.41 10.30 1.56 o
-4 4 -8 2 0.41 3.43 1.56 <
-3 -3 8 0 4.56 3.43 2.18 <
3 3 -8 0 4.56 -1.56 2.18 <
-2 -3 8 -2 0.09 -9.67 3.43 <
2 3 -8 2 0.09 0.62 2.18 <
-3 -3 8 1 0.25 0.62 1.87 <
3 3 -8 -1 0.25 0.94 2.18 <
-2 -3 8 -1 0.04 -2.50 1.56 <
2 3 -8 1 0.04 -2.18 2.18 <
-3 -3 8 2 0.99 2.81 1.25 <
3 3 -8 -2 0.99 -2.50 2.50 <
-2 -3 8 0 6.00 3.74 1.25 o
2 3 -8 0 6.00 1.56 1.56 <
-1 -3 8 -2 2.26 -0.62 1.25 <
1 3 -8 2 2.26 1.87 1.25 <
-2 -3 8 1 7.36 -0.94 1.25 <
2 3 -8 -1 7.36 0.62 1.25 <
-1 -3 8 -1 10.53 0.31 1.25 <
1 3 -8 1 10.53 0.94 1.25 <
-2 -3 8 2 0.04 -2.50 1.25 <
2 3 -8 -2 0.04 0.62 1.25 <
-1 -3 8 0 2.97 3.12 1.25 <
1 3 -8 0 2.97 2.50 1.25 <
0 -3 8 -2 2.36 0.31 1.56 <
0 3 -8 2 2.36 -1.87 1.25 <
-1 -3 8 1 10.88 3.43 2.50 <
1 3 -8 -1 10.88 3.12 1.25 <
0 -3 8 -1 22.36 7.80 1.56 o
0 3 -8 1 22.36 2.18 1.87 <
-1 -3 8 2 3.61 3.74 1.25 o
1 3 -8 -2 3.61 4.06 2.81 <
0 -3 8 0 57.66 69.28 1.56 o
0 3 -8 0 57.66 69.59 1.56 o
1 -3 8 -2 0.94 6.24 1.25 o
-1 3 -8 2 0.94 0.94 1.25 <
0 -3 8 1 8.70 9.05 1.25 o
0 3 -8 -1 8.70 6.24 1.25 o
1 -3 8 -1 10.24 3.74 1.25 o
-1 3 -8 1 10.24 4.06 1.25 o
0 -3 8 2 6.60 1.87 0.94 <
0 3 -8 -2 6.60 6.24 0.94 o
1 -3 8 0 3.09 14.35 0.94 o
-1 3 -8 0 3.09 11.55 0.62 o
2 -3 8 -2 1.51 6.24 0.62 o
-2 3 -8 2 1.51 6.24 0.62 o
1 -3 8 1 2.14 0.62 0.62 <
-1 3 -8 -1 2.14 -0.62 0.62 <
2 -3 8 -1 0.44 3.74 0.62 o
-2 3 -8 1 0.44 0.31 0.62 <
1 -3 8 2 1.54 2.50 0.62 o
-1 3 -8 -2 1.54 0.31 0.62 <
2 -3 8 0 5.65 0.00 0.62 <
-2 3 -8 0 5.65 6.55 0.62 o
3 -3 8 -2 0.84 -0.62 0.94 <
-3 3 -8 2 0.84 1.25 0.62 <
2 -3 8 1 1.27 6.24 4.37 <
-2 3 -8 -1 1.27 2.50 0.94 <
3 -3 8 -1 1.54 -2.50 1.25 <
-3 3 -8 1 1.54 -4.37 4.37 <
2 -3 8 2 0.01 -3.12 1.56 <
-2 3 -8 -2 0.01 0.31 1.25 <
3 -3 8 0 4.03 0.31 1.56 <
-3 3 -8 0 4.03 3.12 1.56 <
-3 -2 8 -1 0.96 2.81 1.87 <
3 2 -8 1 0.96 -1.87 2.18 <
-4 -2 8 2 0.66 -0.94 1.56 <
4 2 -8 -2 0.66 -0.62 2.18 <
-3 -2 8 0 8.87 2.50 1.25 <
3 2 -8 0 8.87 1.87 2.81 <
-2 -2 8 -2 0.09 0.62 1.25 <
2 2 -8 2 0.09 2.50 1.87 <
-3 -2 8 1 0.07 0.31 1.25 <
3 2 -8 -1 0.07 2.81 1.56 <
-2 -2 8 -1 0.06 -1.56 1.25 <
2 2 -8 1 0.06 -0.62 1.25 <
-3 -2 8 2 1.58 2.50 1.25 <
3 2 -8 -2 1.58 1.25 1.25 <
-2 -2 8 0 14.26 0.62 1.25 <
2 2 -8 0 14.26 -0.62 1.25 <
-1 -2 8 -2 2.65 1.25 1.25 <
1 2 -8 2 2.65 0.62 1.25 <
-2 -2 8 1 9.50 0.00 1.25 <
2 2 -8 -1 9.50 0.94 1.25 <
-1 -2 8 -1 15.34 0.31 1.25 <
1 2 -8 1 15.34 -0.31 1.25 <
-2 -2 8 2 0.28 1.87 1.25 <
2 2 -8 -2 0.28 2.50 0.94 <
-1 -2 8 0 10.03 9.36 0.94 o
1 2 -8 0 10.03 7.18 1.25 o
0 -2 8 -2 3.46 1.56 0.94 <
0 2 -8 2 3.46 2.18 0.94 <
-1 -2 8 1 6.80 11.86 0.94 o
1 2 -8 -1 6.80 9.99 0.94 o
0 -2 8 -1 35.59 29.65 0.94 o
0 2 -8 1 35.59 29.02 0.94 o
-1 -2 8 2 3.02 0.31 0.62 <
1 2 -8 -2 3.02 -1.56 0.62 <
0 -2 8 0 94.87 84.88 1.25 o
0 2 -8 0 94.87 71.77 1.25 o
1 -2 8 -2 1.49 0.94 0.62 <
-1 2 -8 2 1.49 1.56 0.62 <
0 -2 8 1 10.08 14.67 0.62 o
0 2 -8 -1 10.08 13.73 0.62 o
1 -2 8 -1 17.05 7.80 0.62 o
-1 2 -8 1 17.05 8.11 0.62 o
0 -2 8 2 5.81 6.24 0.62 o
0 2 -8 -2 5.81 4.68 0.62 o
1 -2 8 0 22.18 30.89 0.62 o
-1 2 -8 0 22.18 28.71 0.62 o
2 -2 8 -2 0.78 2.81 0.62 o
-2 2 -8 2 0.78 0.94 0.62 <
1 -2 8 1 1.72 -1.87 0.62 <
-1 2 -8 -1 1.72 -0.62 0.62 <
2 -2 8 -1 0.00 2.18 0.62 o
-2 2 -8 1 0.00 -2.81 0.62 <
1 -2 8 2 1.56 0.00 0.62 <
-1 2 -8 -2 1.56 3.12 0.62 o
2 -2 8 0 5.49 1.56 1.25 <
-2 2 -8 0 5.49 -0.62 0.94 <
3 -2 8 -2 0.61 3.12 1.25 <
-3 2 -8 2 0.61 -3.43 1.87 <
2 -2 8 1 0.33 0.31 1.25 <
-2 2 -8 -1 0.33 0.62 1.25 <
3 -2 8 -1 1.19 2.50 1.56 <
-3 2 -8 1 1.19 -1.87 1.25 <
2 -2 8 2 0.04 2.81 1.56 <
-2 2 -8 -2 0.04 -1.87 1.56 <
-4 -1 8 1 0.07 -0.62 1.56 <
4 1 -8 -1 0.07 -1.25 1.87 <
-3 -1 8 -1 2.06 0.62 1.56 <
3 1 -8 1 2.06 -2.81 1.56 <
-4 -1 8 2 0.75 -0.31 1.25 <
4 1 -8 -2 0.75 -2.18 1.56 <
-3 -1 8 0 13.27 -0.62 1.25 <
3 1 -8 0 13.27 1.87 1.25 <
-2 -1 8 -2 0.16 1.25 1.25 <
2 1 -8 2 0.16 0.31 1.25 <
-3 -1 8 1 0.29 0.62 1.25 <
3 1 -8 -1 0.29 0.62 1.25 <
-2 -1 8 -1 0.65 0.00 1.25 <
2 1 -8 1 0.65 1.56 1.25 <
-3 -1 8 2 2.10 3.12 1.25 <
3 1 -8 -2 2.10 0.31 1.25 <
-2 -1 8 0 26.47 1.25 1.25 <
2 1 -8 0 26.47 2.18 1.25 <
-1 -1 8 -2 2.73 2.50 1.25 <
1 1 -8 2 2.73 0.62 1.25 <
-2 -1 8 1 12.13 5.31 1.25 o
2 1 -8 -1 12.13 8.74 1.25 o
-1 -1 8 -1 17.08 10.61 1.25 o
1 1 -8 1 17.08 4.99 0.94 o
-2 -1 8 2 0.84 -1.56 0.94 <
2 1 -8 -2 0.84 1.56 0.94 <
-1 -1 8 0 11.99 2.81 0.94 <
1 1 -8 0 11.99 1.87 0.94 <
0 -1 8 -2 4.46 -0.62 0.94 <
0 1 -8 2 4.46 -0.62 0.94 <
-1 -1 8 1 3.10 5.62 0.62 o
1 1 -8 -1 3.10 7.18 0.62 o
0 -1 8 -1 45.51 36.20 0.94 o
0 1 -8 1 45.51 36.20 0.94 o
-1 -1 8 2 1.98 1.56 0.62 <
1 1 -8 -2 1.98 0.62 0.62 <
0 -1 8 0 157.27 134.81 0.94 o
0 1 -8 0 157.27 149.17 1.25 o
1 -1 8 -2 1.82 -1.25 0.62 <
-1 1 -8 2 1.82 0.62 0.62 <
0 -1 8 1 8.83 10.61 0.62 o
0 1 -8 -1 8.83 9.36 0.62 o
1 -1 8 -1 22.25 5.31 0.62 o
-1 1 -8 1 22.25 2.50 1.25 <
0 -1 8 2 4.22 1.87 1.25 <
0 1 -8 -2 4.22 1.25 1.25 <
1 -1 8 0 17.28 9.05 2.50 o
-1 1 -8 0 17.28 18.41 1.25 o
2 -1 8 -2 0.30 -2.81 1.25 <
-2 1 -8 2 0.30 1.87 1.25 <
1 -1 8 1 1.33 0.31 0.94 <
-1 1 -8 -1 1.33 0.94 1.25 <
2 -1 8 -1 0.29 1.25 0.94 <
-2 1 -8 1 0.29 1.25 2.50 <
1 -1 8 2 1.30 14.98 4.06 o
-1 1 -8 -2 1.30 -1.87 1.87 <
2 -1 8 0 6.31 -0.31 1.25 <
-2 1 -8 0 6.31 4.37 2.50 <
3 -1 8 -2 0.43 -2.81 1.56 <
-3 1 -8 2 0.43 1.87 2.18 <
2 -1 8 1 0.09 1.87 1.56 <
-2 1 -8 -1 0.09 -3.74 1.87 <
3 -1 8 -1 0.73 -1.87 1.56 <
-3 1 -8 1 0.73 2.50 1.87 <
-3 0 8 -2 0.06 1.56 1.56 <
3 0 -8 2 0.06 -2.50 1.56 <
-4 0 8 1 0.01 -0.62 1.56 <
4 0 -8 -1 0.01 2.50 1.56 <
-3 0 8 -1 3.69 -0.62 1.25 <
3 0 -8 1 3.69 -1.87 1.56 <
-4 0 8 2 0.76 -2.18 1.25 <
4 0 -8 -2 0.76 0.62 1.25 <
-3 0 8 0 19.05 2.50 1.25 <
3 0 -8 0 19.05 -0.94 1.25 <
-2 0 8 -2 0.37 0.62 1.25 <
2 0 -8 2 0.37 0.62 1.25 <
-3 0 8 1 1.19 2.81 1.25 <
3 0 -8 -1 1.19 1.87 1.25 <
-2 0 8 -1 2.11 6.24 1.25 o
2 0 -8 1 2.11 -0.94 1.25 <
-3 0 8 2 2.31 0.94 1.25 <
3 0 -8 -2 2.31 1.25 1.25 <
-2 0 8 0 67.72 49.62 1.25 o
2 0 -8 0 67.72 52.43 1.25 o
-1 0 8 -2 2.55 3.12 0.94 o
1 0 -8 2 2.55 3.12 1.25 <
-2 0 8 1 15.74 1.87 0.94 <
2 0 -8 -1 15.74 3.43 0.94 o
-1 0 8 -1 13.14 4.68 0.94 o
1 0 -8 1 13.14 6.24 0.94 o
-2 0 8 2 1.52 -1.25 0.94 <
2 0 -8 -2 1.52 1.56 0.94 <
-1 0 8 0 6.17 10.92 0.94 o
1 0 -8 0 6.17 13.73 0.94 o
0 0 8 -2 5.00 3.43 0.62 o
0 0 -8 2 5.00 1.87 0.62 o
-1 0 8 1 4.36 -1.25 0.62 <
1 0 -8 -1 4.36 1.25 0.62 <
0 0 8 -1 45.05 117.96 0.94 o
0 0 -8 1 45.05 116.40 0.94 o
-1 0 8 2 1.13 4.37 0.62 o
1 0 -8 -2 1.13 2.18 0.62 o
0 0 8 0 146.93 173.82 0.94 o
0 0 -8 0 146.93 175.07 0.94 o
1 0 8 -2 1.74 1.56 0.62 <
-1 0 -8 2 1.74 0.62 0.62 <
0 0 8 1 6.00 3.43 0.94 o
0 0 -8 -1 6.00 0.62 3.74 <
1 0 8 -1 22.66 1.56 1.25 <
-1 0 -8 1 22.66 0.94 1.25 <
0 0 8 2 2.64 -0.62 1.25 <
0 0 -8 -2 2.64 1.56 1.25 <
1 0 8 0 32.23 5.62 1.25 o
-1 0 -8 0 32.23 0.94 1.25 <
2 0 8 -2 0.11 5.62 1.25 o
-2 0 -8 2 0.11 1.56 1.56 <
1 0 8 1 0.98 3.74 2.50 <
-1 0 -8 -1 0.98 -0.31 1.56 <
-2 0 -8 1 0.94 8.43 3.74 <
2 0 8 0 6.22 -6.55 8.43 <
3 0 8 -2 0.33 -9.67 4.06 <
2 0 8 1 0.27 0.62 2.81 <
-4 1 8 0 1.83 1.87 1.56 <
4 -1 -8 0 1.83 0.62 1.56 <
-3 1 8 -2 0.09 -0.62 1.25 <
3 -1 -8 2 0.09 -0.94 1.56 <
-4 1 8 1 0.06 -0.62 1.25 <
4 -1 -8 -1 0.06 -4.99 1.25 <
-3 1 8 -1 5.47 2.81 1.25 <
3 -1 -8 1 5.47 -2.50 1.25 <
-4 1 8 2 0.76 0.00 1.25 <
4 -1 -8 -2 0.76 -1.87 1.25 <
-3 1 8 0 28.54 6.24 1.25 o
3 -1 -8 0 28.54 5.31 1.25 o
-2 1 8 -2 0.77 2.50 1.25 <
2 -1 -8 2 0.77 -0.94 1.25 <
-3 1 8 1 2.84 5.62 1.25 o
3 -1 -8 -1 2.84 -2.81 1.25 <
-2 1 8 -1 4.29 6.24 1.25 o
2 -1 -8 1 4.29 12.79 1.25 o
-3 1 8 2 2.17 0.94 1.25 <
3 -1 -8 -2 2.17 -2.18 1.25 <
-2 1 8 0 79.18 30.89 1.25 o
2 -1 -8 0 79.18 29.65 1.25 o
-1 1 8 -2 2.36 0.31 0.94 <
1 -1 -8 2 2.36 -0.62 0.94 <
-2 1 8 1 19.14 18.10 1.25 o
2 -1 -8 -1 19.14 18.41 1.25 o
-1 1 8 -1 5.57 5.93 0.94 o
1 -1 -8 1 5.57 0.94 0.94 <
-2 1 8 2 1.83 1.25 0.94 <
2 -1 -8 -2 1.83 0.94 0.94 <
-1 1 8 0 14.92 3.74 0.94 o
1 -1 -8 0 14.92 4.37 0.94 o
0 1 8 -2 4.99 3.43 0.62 o
0 -1 -8 2 4.99 1.87 0.62 o
-1 1 8 1 11.05 17.48 0.62 o
1 -1 -8 -1 11.05 14.35 0.62 o
0 1 8 -1 34.19 48.06 0.94 o
0 -1 -8 1 34.19 45.56 0.94 o
-1 1 8 2 0.91 0.94 0.62 <
1 -1 -8 -2 0.91 1.87 0.62 o
0 1 8 0 65.60 24.34 0.94 o
0 -1 -8 0 65.60 20.60 0.94 o
1 1 8 -2 1.28 -0.62 2.18 <
-1 -1 -8 2 1.28 -1.56 1.25 <
0 1 8 1 3.23 3.12 1.25 <
0 -1 -8 -1 3.23 4.37 1.25 o
1 1 8 -1 18.45 2.18 1.25 <
-1 -1 -8 1 18.45 -4.99 1.56 <
0 1 8 2 1.58 2.81 1.25 <
0 -1 -8 -2 1.58 4.99 1.56 o
1 1 8 0 27.20 3.43 1.56 <
-1 -1 -8 0 27.20 -2.81 1.56 <
-2 -1 -8 2 0.09 -1.25 2.18 <
-5 2 8 2 0.11 3.12 1.56 <
5 -2 -8 -2 0.11 3.74 1.56 <
-4 2 8 0 2.24 0.62 1.25 <
4 -2 -8 0 2.24 0.00 1.56 <
-3 2 8 -2 0.12 -2.18 1.25 <
3 -2 -8 2 0.12 -1.25 1.56 <
-4 2 8 1 0.44 3.12 1.25 <
4 -2 -8 -1 0.44 -0.31 1.56 <
-3 2 8 -1 6.77 7.18 1.25 o
3 -2 -8 1 6.77 -1.25 1.25 <
-4 2 8 2 0.90 0.62 1.25 <
4 -2 -8 -2 0.90 1.25 1.25 <
-3 2 8 0 27.70 24.97 1.25 o
3 -2 -8 0 27.70 23.40 1.25 o
-2 2 8 -2 1.31 1.87 1.25 <
2 -2 -8 2 1.31 3.12 1.25 <
-3 2 8 1 4.80 4.68 1.25 o
3 -2 -8 -1 4.80 6.24 1.25 o
-2 2 8 -1 6.46 19.35 1.25 o
2 -2 -8 1 6.46 25.28 1.25 o
-3 2 8 2 1.99 0.62 1.25 <
3 -2 -8 -2 1.99 -0.62 1.25 <
-2 2 8 0 101.98 114.84 1.25 o
2 -2 -8 0 101.98 110.16 1.25 o
-1 2 8 -2 2.53 3.43 0.94 o
1 -2 -8 2 2.53 0.31 0.94 <
-2 2 8 1 19.38 29.65 0.94 o
2 -2 -8 -1 19.38 31.83 0.94 o
-1 2 8 -1 0.70 -1.25 0.94 <
1 -2 -8 1 0.70 0.00 0.94 <
-2 2 8 2 1.47 1.87 0.94 <
2 -2 -8 -2 1.47 2.50 0.94 <
-1 2 8 0 22.29 71.15 1.25 o
1 -2 -8 0 22.29 61.16 1.25 o
0 2 8 -2 4.65 1.25 0.62 <
0 -2 -8 2 4.65 2.81 0.62 o
-1 2 8 1 18.48 17.16 0.94 o
1 -2 -8 -1 18.48 19.35 0.94 o
0 2 8 -1 20.32 9.99 0.94 o
0 -2 -8 1 20.32 12.17 0.94 o
-1 2 8 2 1.05 -0.62 0.62 <
1 -2 -8 -2 1.05 0.94 0.62 <
0 2 8 0 50.85 0.31 1.56 <
0 -2 -8 0 50.85 3.43 1.56 <
1 2 8 -2 0.68 1.56 1.25 <
-1 -2 -8 2 0.68 1.87 1.56 <
0 2 8 1 1.35 0.00 1.56 <
0 -2 -8 -1 1.35 4.68 1.56 <
1 2 8 -1 12.41 1.87 1.56 <
-1 -2 -8 1 12.41 12.48 1.56 o
0 2 8 2 1.07 -1.87 2.50 <
0 -2 -8 -2 1.07 14.98 1.56 o
-1 -2 -8 0 19.87 -4.99 4.37 <
-4 3 8 -1 1.11 -2.81 1.56 <
4 -3 -8 1 1.11 -1.56 1.56 <
-5 3 8 2 0.20 0.62 1.56 <
5 -3 -8 -2 0.20 5.93 1.56 o
-4 3 8 0 2.33 0.62 1.25 <
4 -3 -8 0 2.33 -0.94 1.56 <
-3 3 8 -2 0.15 -1.25 1.25 <
3 -3 -8 2 0.15 1.56 1.25 <
-4 3 8 1 1.44 -3.43 1.25 <
4 -3 -8 -1 1.44 1.87 1.25 <
-3 3 8 -1 7.02 15.60 1.25 o
3 -3 -8 1 7.02 14.98 1.25 o
-4 3 8 2 1.33 -0.94 1.25 <
4 -3 -8 -2 1.33 1.87 1.25 <
-3 3 8 0 19.76 48.68 1.56 o
3 -3 -8 0 19.76 43.38 1.25 o
-2 3 8 -2 1.76 -0.31 1.25 <
2 -3 -8 2 1.76 0.62 1.25 <
-3 3 8 1 6.28 2.81 1.25 <
3 -3 -8 -1 6.28 4.99 1.25 o
-2 3 8 -1 7.62 13.11 1.25 o
2 -3 -8 1 7.62 12.48 1.25 o
-3 3 8 2 2.15 2.50 0.94 <
3 -3 -8 -2 2.15 2.50 0.94 <
-2 3 8 0 134.67 208.77 1.56 o
2 -3 -8 0 134.67 217.82 1.56 o
-1 3 8 -2 3.13 1.56 0.94 <
1 -3 -8 2 3.13 1.87 0.94 <
-2 3 8 1 15.23 30.89 0.94 o
2 -3 -8 -1 15.23 28.09 0.94 o
-1 3 8 -1 1.54 4.06 0.94 o
1 -3 -8 1 1.54 4.37 0.94 o
-2 3 8 2 0.74 4.68 0.94 o
2 -3 -8 -2 0.74 6.87 0.94 o
-1 3 8 0 3.04 4.68 0.94 o
1 -3 -8 0 3.04 3.43 0.94 o
0 3 8 -2 4.23 1.87 0.94 <
0 -3 -8 2 4.23 1.56 0.94 <
-1 3 8 1 22.09 4.68 0.62 o
1 -3 -8 -1 22.09 1.87 0.94 <
0 3 8 -1 10.10 -0.31 0.94 <
0 -3 -8 1 10.10 -1.87 1.25 <
-1 3 8 2 1.12 1.87 1.56 <
1 -3 -8 -2 1.12 3.74 1.56 <
0 3 8 0 15.73 -0.62 1.56 <
0 -3 -8 0 15.73 -2.81 1.56 <
1 3 8 -2 0.24 3.74 1.56 <
-1 -3 -8 2 0.24 0.94 1.56 <
0 3 8 1 0.41 -0.31 1.87 <
0 -3 -8 -1 0.41 -4.68 1.56 <
-1 -3 -8 1 7.11 9.67 2.18 o
-5 4 8 1 0.58 0.62 1.56 <
5 -4 -8 -1 0.58 0.62 1.56 <
-4 4 8 -1 0.89 4.99 1.56 o
4 -4 -8 1 0.89 0.62 1.56 <
-5 4 8 2 0.29 -0.62 1.25 <
5 -4 -8 -2 0.29 -2.81 1.25 <
-4 4 8 0 2.05 0.94 1.25 <
4 -4 -8 0 2.05 -0.31 1.25 <
-3 4 8 -2 0.18 1.25 1.25 <
3 -4 -8 2 0.18 0.94 1.25 <
-4 4 8 1 3.16 -3.12 1.25 <
4 -4 -8 -1 3.16 0.00 1.25 <
-3 4 8 -1 6.19 4.37 1.25 o
3 -4 -8 1 6.19 10.30 1.25 o
-4 4 8 2 1.96 0.62 1.25 <
4 -4 -8 -2 1.96 0.31 1.25 <
-3 4 8 0 6.08 7.49 1.25 o
3 -4 -8 0 6.08 10.30 1.25 o
-2 4 8 -2 1.76 1.25 1.25 <
2 -4 -8 2 1.76 1.87 1.25 <
-3 4 8 1 6.59 1.56 1.25 <
3 -4 -8 -1 6.59 2.18 1.25 <
-2 4 8 -1 7.16 10.30 1.25 o
2 -4 -8 1 7.16 10.30 1.25 o
-3 4 8 2 2.72 -0.31 0.94 <
3 -4 -8 -2 2.72 0.62 0.94 <
-2 4 8 0 116.99 170.39 1.56 o
2 -4 -8 0 116.99 168.51 1.56 o
-1 4 8 -2 3.75 0.31 0.94 <
1 -4 -8 2 3.75 3.43 0.94 o
-2 4 8 1 9.21 14.35 0.94 o
2 -4 -8 -1 9.21 15.92 0.94 o
-1 4 8 -1 4.44 5.93 0.94 o
1 -4 -8 1 4.44 4.99 0.94 o
-2 4 8 2 0.25 3.12 0.94 o
2 -4 -8 -2 0.25 1.25 0.94 <
-1 4 8 0 3.73 4.68 0.94 o
1 -4 -8 0 3.73 3.12 0.94 o
0 4 8 -2 3.70 0.31 0.94 <
0 -4 -8 2 3.70 3.12 0.94 o
-1 4 8 1 21.04 -2.81 1.25 <
1 -4 -8 -1 21.04 3.12 1.25 <
0 4 8 -1 4.90 0.62 1.56 <
0 -4 -8 1 4.90 -1.87 1.56 <
-1 4 8 2 0.94 0.94 1.56 <
1 -4 -8 -2 0.94 -0.94 1.56 <
0 4 8 0 10.91 6.55 1.56 o
0 -4 -8 0 10.91 0.00 1.87 <
1 4 8 -2 0.06 -1.87 3.12 <
-1 -4 -8 2 0.06 -1.25 1.87 <
0 -4 -8 -1 0.13 -1.56 4.99 <
-4 5 8 -2 0.26 3.74 1.56 <
4 -5 -8 2 0.26 -3.74 1.56 <
-5 5 8 1 0.81 -1.56 1.56 <
5 -5 -8 -1 0.81 -0.94 1.56 <
-4 5 8 -1 0.88 0.62 1.25 <
4 -5 -8 1 0.88 -1.87 1.56 <
-5 5 8 2 0.35 1.56 1.25 <
5 -5 -8 -2 0.35 0.62 1.25 <
-4 5 8 0 1.70 4.37 1.25 o
4 -5 -8 0 1.70 4.37 1.25 o
-3 5 8 -2 0.23 0.62 1.25 <
3 -5 -8 2 0.23 4.06 1.25 o
-4 5 8 1 5.27 -1.56 1.25 <
4 -5 -8 -1 5.27 -1.87 1.25 <
-3 5 8 -1 4.93 2.18 1.25 <
3 -5 -8 1 4.93 0.62 1.25 <
-4 5 8 2 2.52 3.12 1.25 <
4 -5 -8 -2 2.52 2.18 1.25 <
-3 5 8 0 1.44 17.79 1.25 o
3 -5 -8 0 1.44 14.98 1.25 o
-2 5 8 -2 1.22 3.74 1.25 o
2 -5 -8 2 1.22 2.50 1.25 <
-3 5 8 1 5.68 5.93 1.25 o
3 -5 -8 -1 5.68 3.12 1.25 <
-2 5 8 -1 5.34 8.74 1.25 o
2 -5 -8 1 5.34 8.43 1.25 o
-3 5 8 2 3.33 2.18 1.25 <
3 -5 -8 -2 3.33 2.81 0.94 <
-2 5 8 0 31.70 48.68 1.25 o
2 -5 -8 0 31.70 49.93 1.25 o
-1 5 8 -2 3.83 2.81 0.94 <
1 -5 -8 2 3.83 2.50 0.94 <
-2 5 8 1 4.60 2.50 0.94 <
2 -5 -8 -1 4.60 4.99 0.94 o
-1 5 8 -1 5.42 2.18 0.94 <
1 -5 -8 1 5.42 1.87 0.94 <
-2 5 8 2 0.19 0.31 0.94 <
2 -5 -8 -2 0.19 1.25 0.94 <
-1 5 8 0 5.84 2.18 0.94 <
1 -5 -8 0 5.84 -1.25 0.94 <
0 5 8 -2 2.98 0.00 1.25 <
0 -5 -8 2 2.98 -3.12 2.18 <
-1 5 8 1 16.96 0.62 1.56 <
1 -5 -8 -1 16.96 -2.81 1.56 <
0 5 8 -1 2.97 -3.74 1.56 <
0 -5 -8 1 2.97 12.48 1.87 o
-1 5 8 2 0.63 3.74 1.87 <
1 -5 -8 -2 0.63 -0.94 1.87 <
0 -5 -8 0 3.94 1.87 2.50 <
-5 6 8 0 2.54 1.87 1.56 <
5 -6 -8 0 2.54 0.00 1.56 <
-4 6 8 -2 0.44 3.43 1.56 <
4 -6 -8 2 0.44 4.68 1.56 <
-5 6 8 1 1.21 1.56 1.25 <
5 -6 -8 -1 1.21 -0.31 1.56 <
-4 6 8 -1 1.28 1.56 1.25 <
4 -6 -8 1 1.28 2.81 1.25 <
-5 6 8 2 0.34 0.00 1.25 <
5 -6 -8 -2 0.34 0.00 1.25 <
-4 6 8 0 2.30 6.55 1.25 o
4 -6 -8 0 2.30 11.55 1.25 o
-3 6 8 -2 0.32 0.00 1.25 <
3 -6 -8 2 0.32 1.87 1.25 <
-4 6 8 1 6.93 1.87 1.25 <
4 -6 -8 -1 6.93 0.94 1.25 <
-3 6 8 -1 4.17 0.62 1.25 <
3 -6 -8 1 4.17 -1.87 1.25 <
-4 6 8 2 2.72 4.06 1.25 o
4 -6 -8 -2 2.72 9.36 1.25 o
-3 6 8 0 1.38 10.61 1.25 o
3 -6 -8 0 1.38 10.92 1.25 o
-2 6 8 -2 0.51 0.00 1.25 <
2 -6 -8 2 0.51 -0.31 1.25 <
-3 6 8 1 4.15 2.18 1.25 <
3 -6 -8 -1 4.15 2.50 1.25 <
-2 6 8 -1 3.18 8.74 1.25 o
2 -6 -8 1 3.18 6.87 1.25 o
-3 6 8 2 3.59 2.50 1.25 <
3 -6 -8 -2 3.59 2.50 1.25 <
-2 6 8 0 38.58 24.03 1.25 o
2 -6 -8 0 38.58 19.97 1.25 o
-1 6 8 -2 3.28 0.62 0.94 <
1 -6 -8 2 3.28 0.00 1.25 <
-2 6 8 1 2.37 2.50 1.25 <
2 -6 -8 -1 2.37 2.50 1.25 <
-1 6 8 -1 4.33 3.43 1.25 <
1 -6 -8 1 4.33 0.62 0.94 <
-2 6 8 2 0.33 -0.62 1.25 <
2 -6 -8 -2 0.33 1.87 1.25 <
-1 6 8 0 0.27 10.61 1.25 o
1 -6 -8 0 0.27 -4.68 4.06 <
0 6 8 -2 2.17 0.31 1.87 <
0 -6 -8 2 2.17 2.81 1.87 <
-1 6 8 1 11.86 6.55 1.56 o
1 -6 -8 -1 11.86 -7.18 1.87 <
0 6 8 -1 2.44 -18.72 3.43 <
0 -6 -8 1 2.44 -5.93 1.87 <
1 -6 -8 -2 0.34 4.37 4.68 <
-6 7 8 2 0.06 1.56 1.56 <
6 -7 -8 -2 0.06 2.50 1.56 <
-5 7 8 0 2.01 4.68 1.56 <
5 -7 -8 0 2.01 1.87 1.56 <
-4 7 8 -2 0.64 0.62 1.25 <
4 -7 -8 2 0.64 0.31 1.56 <
-5 7 8 1 1.71 -0.31 1.25 <
5 -7 -8 -1 1.71 0.62 1.25 <
-4 7 8 -1 2.11 3.43 1.25 <
4 -7 -8 1 2.11 1.25 1.25 <
-5 7 8 2 0.26 -2.81 1.25 <
5 -7 -8 -2 0.26 -0.31 1.25 <
-4 7 8 0 1.78 9.67 1.25 o
4 -7 -8 0 1.78 8.74 1.25 o
-3 7 8 -2 0.41 -0.62 1.25 <
3 -7 -8 2 0.41 -0.31 1.25 <
-4 7 8 1 7.29 3.12 1.25 <
4 -7 -8 -1 7.29 6.87 1.25 o
-3 7 8 -1 4.47 0.00 1.25 <
3 -7 -8 1 4.47 1.56 1.25 <
-4 7 8 2 2.53 3.12 1.25 <
4 -7 -8 -2 2.53 4.99 1.25 o
-3 7 8 0 7.56 14.35 1.25 o
3 -7 -8 0 7.56 14.98 1.25 o
-2 7 8 -2 0.08 2.18 1.25 <
2 -7 -8 2 0.08 0.62 1.25 <
-3 7 8 1 2.72 2.50 1.25 <
3 -7 -8 -1 2.72 0.00 1.25 <
-2 7 8 -1 1.72 0.62 1.25 <
2 -7 -8 1 1.72 3.74 1.25 o
-3 7 8 2 3.41 2.81 1.25 <
3 -7 -8 -2 3.41 1.56 1.25 <
-2 7 8 0 16.89 4.99 1.25 o
2 -7 -8 0 16.89 4.68 1.25 o
-1 7 8 -2 2.42 1.56 1.25 <
1 -7 -8 2 2.42 0.62 1.25 <
-2 7 8 1 1.69 -1.87 1.25 <
2 -7 -8 -1 1.69 1.25 1.25 <
-1 7 8 -1 2.69 0.62 1.25 <
1 -7 -8 1 2.69 4.06 1.25 o
-2 7 8 2 0.45 1.25 1.87 <
2 -7 -8 -2 0.45 6.24 1.87 o
-1 7 8 0 1.21 -2.50 1.56 <
1 -7 -8 0 1.21 22.16 1.87 o
0 7 8 -2 1.42 -5.31 2.18 <
0 -7 -8 2 1.42 3.43 1.87 <
1 -7 -8 -1 7.17 4.68 2.50 <
-6 8 8 2 0.13 0.62 1.56 <
6 -8 -8 -2 0.13 -1.56 1.56 <
-5 8 8 0 2.38 1.25 1.56 <
5 -8 -8 0 2.38 1.25 1.56 <
-4 8 8 -2 0.78 4.06 1.25 o
4 -8 -8 2 0.78 1.25 1.56 <
-5 8 8 1 2.14 -0.62 1.25 <
5 -8 -8 -1 2.14 3.12 1.25 <
-4 8 8 -1 3.16 2.81 1.25 <
4 -8 -8 1 3.16 1.87 1.25 <
-5 8 8 2 0.15 -1.87 1.25 <
5 -8 -8 -2 0.15 1.56 1.25 <
-4 8 8 0 1.75 35.58 1.25 o
4 -8 -8 0 1.75 42.44 1.56 o
-3 8 8 -2 0.46 -2.81 1.25 <
3 -8 -8 2 0.46 0.62 1.25 <
-4 8 8 1 6.08 1.25 1.25 <
4 -8 -8 -1 6.08 3.12 1.25 <
-3 8 8 -1 5.60 5.62 1.25 o
3 -8 -8 1 5.60 4.37 1.25 o
-4 8 8 2 2.06 -0.94 1.25 <
4 -8 -8 -2 2.06 1.56 1.25 <
-3 8 8 0 26.93 19.97 1.25 o
3 -8 -8 0 26.93 19.66 1.25 o
-2 8 8 -2 0.01 1.56 1.25 <
2 -8 -8 2 0.01 1.25 1.25 <
-3 8 8 1 1.77 2.81 1.25 <
3 -8 -8 -1 1.77 0.94 1.25 <
-2 8 8 -1 1.37 6.55 1.25 o
2 -8 -8 1 1.37 4.06 1.25 o
-3 8 8 2 2.91 2.50 1.25 <
3 -8 -8 -2 2.91 4.68 1.25 o
-2 8 8 0 2.19 0.00 1.25 <
2 -8 -8 0 2.19 4.06 1.25 o
-1 8 8 -2 1.58 -3.12 1.25 <
1 -8 -8 2 1.58 -9.05 1.25 <
-2 8 8 1 1.57 6.87 1.25 o
2 -8 -8 -1 1.57 0.62 1.25 <
-1 8 8 -1 1.37 -6.87 2.81 <
1 -8 -8 1 1.37 9.05 1.87 o
-2 8 8 2 0.50 -5.93 1.87 <
2 -8 -8 -2 0.50 -4.37 1.87 <
-1 8 8 0 3.39 1.56 4.06 <
1 -8 -8 0 3.39 0.31 1.87 <
0 -8 -8 2 0.85 -2.18 5.31 <
-5 9 8 -1 0.21 -1.25 1.56 <
5 -9 -8 1 0.21 1.87 1.56 <
-6 9 8 2 0.21 1.87 1.56 <
6 -9 -8 -2 0.21 0.00 1.56 <
-5 9 8 0 2.24 -1.25 1.56 <
5 -9 -8 0 2.24 -1.25 1.56 <
-4 9 8 -2 0.82 1.25 1.25 <
4 -9 -8 2 0.82 4.68 1.25 o
-5 9 8 1 2.38 1.25 1.25 <
5 -9 -8 -1 2.38 1.87 1.25 <
-4 9 8 -1 3.96 5.62 1.25 o
4 -9 -8 1 3.96 9.67 1.25 o
-5 9 8 2 0.06 1.87 1.25 <
5 -9 -8 -2 0.06 2.81 1.25 <
-4 9 8 0 3.06 19.35 1.25 o
4 -9 -8 0 3.06 20.60 1.56 o
-3 9 8 -2 0.45 0.94 1.25 <
3 -9 -8 2 0.45 -1.87 1.25 <
-4 9 8 1 3.92 2.50 1.25 <
4 -9 -8 -1 3.92 2.18 1.25 <
-3 9 8 -1 6.79 6.87 1.25 o
3 -9 -8 1 6.79 5.62 1.25 o
-4 9 8 2 1.50 2.50 1.25 <
4 -9 -8 -2 1.50 -0.31 1.25 <
-3 9 8 0 37.30 15.29 1.25 o
3 -9 -8 0 37.30 16.85 1.25 o
-2 9 8 -2 0.12 -0.94 1.25 <
2 -9 -8 2 0.12 -1.25 1.25 <
-3 9 8 1 1.26 2.81 1.25 <
3 -9 -8 -1 1.26 3.74 1.25 o
-2 9 8 -1 1.85 -1.87 1.25 <
2 -9 -8 1 1.85 2.50 1.25 <
-3 9 8 2 2.26 1.56 1.25 <
3 -9 -8 -2 2.26 4.99 1.25 o
-2 9 8 0 0.33 3.12 1.25 <
2 -9 -8 0 0.33 -0.62 1.25 <
-1 9 8 -2 0.93 0.31 1.25 <
1 -9 -8 2 0.93 -1.56 1.56 <
-2 9 8 1 1.50 -3.12 3.43 <
2 -9 -8 -1 1.50 4.06 1.87 <
-1 9 8 -1 0.55 5.93 2.50 <
1 -9 -8 1 0.55 -3.74 1.87 <
2 -9 -8 -2 0.49 -5.62 2.50 <
-5 10 8 -1 0.11 -1.25 1.56 <
5 -10 -8 1 0.11 2.81 1.56 <
-6 10 8 2 0.27 1.56 1.56 <
6 -10 -8 -2 0.27 0.31 1.56 <
-5 10 8 0 2.73 1.56 1.56 <
5 -10 -8 0 2.73 2.18 1.56 <
-4 10 8 -2 0.75 0.31 1.25 <
4 -10 -8 2 0.75 -0.62 1.25 <
-5 10 8 1 2.40 2.81 1.25 <
5 -10 -8 -1 2.40 1.87 1.25 <
-4 10 8 -1 4.06 1.25 1.25 <
4 -10 -8 1 4.06 -4.68 1.25 <
-5 10 8 2 0.00 0.62 1.25 <
5 -10 -8 -2 0.00 0.31 1.25 <
-4 10 8 0 2.01 3.74 1.25 o
4 -10 -8 0 2.01 4.06 1.25 o
-3 10 8 -2 0.40 1.25 1.25 <
3 -10 -8 2 0.40 -1.56 1.25 <
-4 10 8 1 1.82 6.55 1.25 o
4 -10 -8 -1 1.82 -1.56 1.25 <
-3 10 8 -1 7.22 2.81 1.25 <
3 -10 -8 1 7.22 4.37 1.25 o
-4 10 8 2 0.96 1.87 1.25 <
4 -10 -8 -2 0.96 0.31 1.25 <
-3 10 8 0 31.43 7.18 1.25 o
3 -10 -8 0 31.43 4.37 1.25 o
-2 10 8 -2 0.21 3.74 1.25 o
2 -10 -8 2 0.21 -1.56 1.25 <
-3 10 8 1 1.00 -0.94 1.25 <
3 -10 -8 -1 1.00 -2.81 1.25 <
-2 10 8 -1 2.51 2.18 1.25 <
2 -10 -8 1 2.51 4.99 1.25 o
-3 10 8 2 1.57 -1.56 1.25 <
3 -10 -8 -2 1.57 2.81 1.25 <
-2 10 8 0 1.12 -1.56 1.25 <
2 -10 -8 0 1.12 3.43 1.87 <
-1 10 8 -2 0.50 -3.74 1.87 <
1 -10 -8 2 0.50 -4.68 1.87 <
-2 10 8 1 1.34 20.91 4.68 o
2 -10 -8 -1 1.34 0.62 2.18 <
1 -10 -8 1 0.15 4.68 4.68 <
-5 11 8 -1 0.03 2.50 1.56 <
5 -11 -8 1 0.03 2.81 1.56 <
-6 11 8 2 0.30 0.62 1.56 <
6 -11 -8 -2 0.30 -0.62 1.56 <
-5 11 8 0 3.00 1.25 1.25 <
5 -11 -8 0 3.00 4.99 1.56 o
-4 11 8 -2 0.59 0.31 1.25 <
4 -11 -8 2 0.59 -0.62 1.56 <
-5 11 8 1 2.27 -0.94 1.25 <
5 -11 -8 -1 2.27 0.31 1.56 <
-4 11 8 -1 3.38 -0.62 1.25 <
4 -11 -8 1 3.38 0.62 1.56 <
-5 11 8 2 0.01 -1.25 1.25 <
5 -11 -8 -2 0.01 0.62 1.25 <
-4 11 8 0 1.24 2.81 1.25 <
4 -11 -8 0 1.24 1.87 1.25 <
-3 11 8 -2 0.34 0.62 1.25 <
3 -11 -8 2 0.34 0.62 1.25 <
-4 11 8 1 0.49 -0.94 1.25 <
4 -11 -8 -1 0.49 -0.62 1.25 <
-3 11 8 -1 6.55 2.81 1.25 <
3 -11 -8 1 6.55 1.25 1.25 <
-4 11 8 2 0.55 -0.62 1.25 <
4 -11 -8 -2 0.55 -0.31 1.25 <
-3 11 8 0 21.90 0.62 1.25 <
3 -11 -8 0 21.90 6.55 1.25 o
-2 11 8 -2 0.22 0.31 1.25 <
2 -11 -8 2 0.22 3.43 1.56 <
-3 11 8 1 0.79 2.18 1.25 <
3 -11 -8 -1 0.79 1.56 1.25 <
-2 11 8 -1 2.82 0.31 1.25 <
2 -11 -8 1 2.82 7.49 1.25 o
-3 11 8 2 0.98 -5.62 1.25 <
3 -11 -8 -2 0.98 -2.81 3.43 <
-2 11 8 0 2.34 3.43 2.50 <
2 -11 -8 0 2.34 -0.94 2.18 <
1 -11 -8 2 0.24 0.62 2.81 <
2 -11 -8 -1 1.08 -10.30 9.99 <
-5 12 8 -1 0.04 0.62 1.56 <
5 -12 -8 1 0.04 0.00 1.56 <
-6 12 8 2 0.27 0.31 1.56 <
6 -12 -8 -2 0.27 -1.87 1.56 <
-5 12 8 0 3.40 2.81 1.56 <
5 -12 -8 0 3.40 -0.62 1.56 <
-4 12 8 -2 0.41 0.00 1.56 <
4 -12 -8 2 0.41 0.00 1.56 <
-5 12 8 1 2.06 -1.87 1.25 <
5 -12 -8 -1 2.06 -0.94 1.56 <
-4 12 8 -1 2.23 -1.56 1.25 <
4 -12 -8 1 2.23 1.56 1.56 <
-5 12 8 2 0.04 0.62 1.25 <
5 -12 -8 -2 0.04 -0.94 1.56 <
-4 12 8 0 1.60 0.62 1.25 <
4 -12 -8 0 1.60 -0.62 1.56 <
-3 12 8 -2 0.29 0.94 1.25 <
3 -12 -8 2 0.29 1.25 1.56 <
-4 12 8 1 0.03 1.25 1.25 <
4 -12 -8 -1 0.03 1.25 1.56 <
-3 12 8 -1 5.07 1.87 1.25 <
3 -12 -8 1 5.07 3.74 1.56 <
-4 12 8 2 0.29 0.62 1.25 <
4 -12 -8 -2 0.29 -0.62 1.56 <
-3 12 8 0 18.02 -1.25 1.25 <
3 -12 -8 0 18.02 3.12 1.56 <
-2 12 8 -2 0.19 -3.43 1.25 <
2 -12 -8 2 0.19 4.06 1.56 <
-3 12 8 1 0.56 0.62 1.25 <
3 -12 -8 -1 0.56 1.56 1.56 <
-2 12 8 -1 2.60 0.62 1.56 <
2 -12 -8 1 2.60 0.94 2.18 <
-3 12 8 2 0.54 3.43 5.62 <
3 -12 -8 -2 0.54 -0.94 2.18 <
2 -12 -8 0 3.08 -3.12 4.06 <
-6 13 8 2 0.21 -0.62 1.56 <
6 -13 -8 -2 0.21 0.31 1.56 <
-5 13 8 0 3.88 0.94 1.56 <
5 -13 -8 0 3.88 1.87 1.56 <
-4 13 8 -2 0.27 -0.62 1.56 <
4 -13 -8 2 0.27 -0.62 1.56 <
-5 13 8 1 1.77 -0.94 1.56 <
5 -13 -8 -1 1.77 1.56 1.56 <
-4 13 8 -1 1.13 2.50 1.56 <
4 -13 -8 1 1.13 -2.50 1.56 <
-5 13 8 2 0.07 0.00 1.56 <
5 -13 -8 -2 0.07 4.37 1.56 <
-4 13 8 0 0.71 -0.31 1.56 <
4 -13 -8 0 0.71 -1.25 1.56 <
-3 13 8 -2 0.24 0.94 1.25 <
3 -13 -8 2 0.24 2.50 1.56 <
-4 13 8 1 0.17 0.94 1.25 <
4 -13 -8 -1 0.17 0.94 1.56 <
-3 13 8 -1 3.37 -3.12 1.56 <
3 -13 -8 1 3.37 -1.87 1.56 <
-4 13 8 2 0.18 3.74 1.25 o
4 -13 -8 -2 0.18 2.81 1.56 <
-3 13 8 0 11.62 -1.25 1.56 <
3 -13 -8 0 11.62 -4.99 1.56 <
-2 13 8 -2 0.13 -2.50 1.56 <
2 -13 -8 2 0.13 1.56 1.56 <
-3 13 8 1 0.34 6.24 1.87 o
3 -13 -8 -1 0.34 -0.62 2.18 <
2 -13 -8 1 2.02 0.31 2.50 <
3 -13 -8 -2 0.29 3.74 7.49 <
-5 14 8 0 3.99 0.62 1.56 <
5 -14 -8 0 3.99 -0.62 1.56 <
-4 14 8 -2 0.18 -1.87 1.56 <
4 -14 -8 2 0.18 1.87 1.56 <
-5 14 8 1 1.40 3.12 1.56 <
5 -14 -8 -1 1.40 -0.31 1.56 <
-4 14 8 -1 0.41 0.62 1.56 <
4 -14 -8 1 0.41 -0.94 1.56 <
-5 14 8 2 0.07 2.50 1.56 <
5 -14 -8 -2 0.07 0.62 1.56 <
-4 14 8 0 0.17 0.94 1.56 <
4 -14 -8 0 0.17 0.62 1.56 <
-3 14 8 -2 0.21 2.50 1.56 <
3 -14 -8 2 0.21 -1.87 1.56 <
-4 14 8 1 0.53 0.94 1.56 <
4 -14 -8 -1 0.53 5.93 1.56 o
-3 14 8 -1 1.92 -14.04 1.56 <
3 -14 -8 1 1.92 0.00 1.56 <
-4 14 8 2 0.14 0.94 1.56 <
4 -14 -8 -2 0.14 1.25 1.56 <
-3 14 8 0 6.40 0.62 1.56 <
3 -14 -8 0 6.40 -2.18 1.87 <
-3 12 -9 0 0.31 3.12 3.12 <
4 -12 9 -2 0.38 -2.81 3.12 <
-4 12 -9 2 0.38 2.81 1.87 <
-2 11 -9 -2 0.14 -1.25 2.50 <
3 -11 9 0 0.12 4.99 4.99 <
-3 11 -9 0 0.12 4.37 1.56 <
4 -11 9 -2 0.46 -8.11 1.56 <
-4 11 -9 2 0.46 -0.62 1.56 <
3 -11 9 1 2.28 1.56 1.25 <
-3 11 -9 -1 2.28 -2.18 1.56 <
2 -10 9 1 0.43 -0.31 4.06 <
3 -10 9 -1 0.56 2.81 1.87 <
-3 10 -9 1 0.56 -2.81 1.87 <
2 -10 9 2 0.14 -2.50 1.25 <
-2 10 -9 -2 0.14 0.00 4.37 <
3 -10 9 0 0.00 2.81 0.94 <
-3 10 -9 0 0.00 1.87 1.56 <
4 -10 9 -2 0.55 2.18 0.94 <
-4 10 -9 2 0.55 1.25 1.25 <
3 -10 9 1 2.79 3.74 0.94 o
-3 10 -9 -1 2.79 -0.31 0.94 <
2 -9 9 -1 1.76 -29.65 5.62 <
1 -9 9 2 1.51 3.12 2.50 <
2 -9 9 0 6.98 3.74 1.56 <
-2 9 -9 0 6.98 14.04 6.24 <
3 -9 9 -2 0.76 1.56 1.25 <
-3 9 -9 2 0.76 6.55 2.18 <
2 -9 9 1 0.31 -4.37 4.68 <
-2 9 -9 -1 0.31 -0.94 1.25 <
3 -9 9 -1 0.68 -1.87 0.94 <
-3 9 -9 1 0.68 3.74 0.94 o
2 -9 9 2 0.23 1.56 0.94 <
-2 9 -9 -2 0.23 0.62 0.62 <
3 -9 9 0 0.07 0.00 0.94 <
-3 9 -9 0 0.07 0.94 0.62 <
4 -9 9 -2 0.60 0.62 0.94 <
-4 9 -9 2 0.60 -0.31 0.94 <
3 -9 9 1 2.85 7.49 0.94 o
-3 9 -9 -1 2.85 4.68 0.94 o
0 -8 9 2 1.80 -1.87 6.87 <
1 -8 9 0 6.54 8.74 2.50 o
2 -8 9 -2 0.02 0.94 1.56 <
-2 8 -9 2 0.02 -2.50 4.37 <
1 -8 9 1 0.60 -1.56 1.56 <
-1 8 -9 -1 0.60 -0.62 2.18 <
2 -8 9 -1 1.52 4.68 1.25 o
-2 8 -9 1 1.52 0.94 1.56 <
1 -8 9 2 2.16 4.06 1.25 o
-1 8 -9 -2 2.16 1.25 1.25 <
2 -8 9 0 4.63 0.31 1.25 <
-2 8 -9 0 4.63 3.74 1.25 o
3 -8 9 -2 0.88 2.81 2.18 <
-3 8 -9 2 0.88 -1.87 0.94 <
2 -8 9 1 0.29 0.62 0.62 <
-2 8 -9 -1 0.29 0.31 0.62 <
3 -8 9 -1 0.61 1.87 0.62 o
-3 8 -9 1 0.61 1.56 0.62 <
2 -8 9 2 0.41 0.00 0.62 <
-2 8 -9 -2 0.41 0.62 0.62 <
3 -8 9 0 0.16 0.31 0.62 <
-3 8 -9 0 0.16 0.31 0.62 <
4 -8 9 -2 0.60 0.00 0.94 <
-4 8 -9 2 0.60 1.25 0.62 <
3 -8 9 1 2.43 4.68 0.94 o
-3 8 -9 -1 2.43 1.87 0.94 <
0 -7 9 0 2.81 18.10 6.55 <
1 -7 9 -2 1.21 -1.87 2.50 <
0 -7 9 1 7.71 -0.62 1.87 <
0 7 -9 -1 7.71 3.12 4.99 <
1 -7 9 -1 5.47 -2.81 1.56 <
-1 7 -9 1 5.47 -3.12 2.18 <
0 -7 9 2 2.20 2.18 1.56 <
0 7 -9 -2 2.20 -1.25 1.56 <
1 -7 9 0 17.16 4.06 1.56 <
-1 7 -9 0 17.16 0.31 1.56 <
2 -7 9 -2 0.15 -0.31 1.25 <
-2 7 -9 2 0.15 6.24 1.25 o
1 -7 9 1 1.26 2.50 1.25 <
-1 7 -9 -1 1.26 0.62 1.25 <
2 -7 9 -1 1.74 3.12 1.25 <
-2 7 -9 1 1.74 5.62 1.25 o
1 -7 9 2 2.74 1.56 1.25 <
-1 7 -9 -2 2.74 3.43 1.25 <
2 -7 9 0 1.70 3.12 1.25 <
-2 7 -9 0 1.70 0.00 0.94 <
3 -7 9 -2 0.84 3.12 0.62 o
-3 7 -9 2 0.84 1.87 0.62 o
2 -7 9 1 0.42 0.94 0.62 <
-2 7 -9 -1 0.42 1.56 0.62 <
3 -7 9 -1 0.37 0.00 0.62 <
-3 7 -9 1 0.37 -0.62 0.62 <
2 -7 9 2 0.61 2.18 0.62 o
-2 7 -9 -2 0.61 0.62 0.62 <
3 -7 9 0 0.76 2.81 0.62 o
-3 7 -9 0 0.76 4.37 0.62 o
4 -7 9 -2 0.53 1.25 0.62 <
-4 7 -9 2 0.53 -0.62 0.62 <
3 -7 9 1 1.70 1.87 0.94 <
-3 7 -9 -1 1.70 3.74 0.62 o
0 -6 9 -2 2.23 -0.62 5.31 <
-1 -6 9 1 4.46 -4.68 2.81 <
0 -6 9 -1 5.91 3.12 1.87 <
0 6 -9 1 5.91 16.54 4.68 o
-1 -6 9 2 0.01 1.25 1.56 <
1 6 -9 -2 0.01 -2.81 2.18 <
0 -6 9 0 2.03 4.68 1.56 <
0 6 -9 0 2.03 -1.25 1.87 <
1 -6 9 -2 1.79 -1.87 1.56 <
-1 6 -9 2 1.79 -1.87 1.56 <
0 -6 9 1 7.51 -0.31 1.56 <
0 6 -9 -1 7.51 -0.62 1.56 <
1 -6 9 -1 9.87 -0.31 1.56 <
-1 6 -9 1 9.87 3.43 1.56 <
0 -6 9 2 2.27 -1.87 1.25 <
0 6 -9 -2 2.27 4.06 1.56 <
1 -6 9 0 35.65 15.60 1.56 o
-1 6 -9 0 35.65 17.48 1.56 o
2 -6 9 -2 0.44 2.81 1.25 <
-2 6 -9 2 0.44 2.18 1.25 <
1 -6 9 1 2.52 1.25 1.25 <
-1 6 -9 -1 2.52 4.99 1.25 o
2 -6 9 -1 2.93 1.87 1.25 <
-2 6 -9 1 2.93 -1.25 3.74 <
1 -6 9 2 3.00 0.00 0.94 <
-1 6 -9 -2 3.00 1.56 0.62 <
2 -6 9 0 0.36 2.18 0.62 o
-2 6 -9 0 0.36 2.50 0.62 o
3 -6 9 -2 0.66 0.62 0.62 <
-3 6 -9 2 0.66 0.31 0.62 <
2 -6 9 1 0.63 2.18 0.62 o
-2 6 -9 -1 0.63 1.87 0.62 o
3 -6 9 -1 0.12 -0.94 0.62 <
-3 6 -9 1 0.12 0.94 0.62 <
2 -6 9 2 0.76 -0.31 0.62 <
-2 6 -9 -2 0.76 0.62 0.62 <
3 -6 9 0 1.95 0.31 0.62 <
-3 6 -9 0 1.95 1.56 0.62 <
4 -6 9 -2 0.41 0.94 0.94 <
-4 6 -9 2 0.41 2.18 0.94 <
2 5 -9 1 0.98 -0.94 3.43 <
3 5 -9 -2 0.94 -0.31 4.99 <
2 5 -9 0 8.64 1.25 8.43 <
-1 -5 9 -2 0.12 5.62 9.67 <
-2 -5 9 1 0.16 11.55 4.68 <
-1 -5 9 -1 0.09 0.62 2.50 <
-2 -5 9 2 1.61 -4.99 1.87 <
2 5 -9 -2 1.61 1.25 5.31 <
-1 -5 9 0 8.00 3.43 1.87 <
1 5 -9 0 8.00 3.43 2.50 <
0 -5 9 -2 2.80 -0.31 1.56 <
0 5 -9 2 2.80 -3.74 1.87 <
-1 -5 9 1 7.05 3.74 1.56 <
1 5 -9 -1 7.05 3.12 1.87 <
0 -5 9 -1 8.48 2.50 1.56 <
0 5 -9 1 8.48 4.06 1.56 <
-1 -5 9 2 0.15 1.25 1.56 <
1 5 -9 -2 0.15 -0.62 1.56 <
0 -5 9 0 9.49 6.87 1.56 o
0 5 -9 0 9.49 4.06 1.56 <
1 -5 9 -2 2.47 3.12 1.56 <
-1 5 -9 2 2.47 0.62 1.56 <
0 -5 9 1 5.31 4.06 1.56 <
0 5 -9 -1 5.31 9.05 1.56 o
1 -5 9 -1 15.65 8.11 1.25 o
-1 5 -9 1 15.65 4.37 1.25 o
0 -5 9 2 1.93 -3.12 1.25 <
0 5 -9 -2 1.93 -1.25 1.25 <
1 -5 9 0 46.87 49.62 1.56 o
-1 5 -9 0 46.87 51.18 1.56 o
2 -5 9 -2 0.80 1.87 1.25 <
-2 5 -9 2 0.80 1.56 1.25 <
1 -5 9 1 3.94 1.87 1.25 <
-1 5 -9 -1 3.94 -1.56 1.87 <
2 -5 9 -1 5.24 -0.31 0.62 <
-2 5 -9 1 5.24 -0.31 0.62 <
1 -5 9 2 2.80 2.81 0.62 o
-1 5 -9 -2 2.80 4.68 0.62 o
2 -5 9 0 1.25 1.56 0.62 <
-2 5 -9 0 1.25 1.87 0.62 o
3 -5 9 -2 0.43 1.87 0.62 o
-3 5 -9 2 0.43 1.56 0.62 <
2 -5 9 1 0.85 0.31 0.62 <
-2 5 -9 -1 0.85 -0.31 0.62 <
3 -5 9 -1 0.02 1.25 0.62 <
-3 5 -9 1 0.02 0.00 0.94 <
2 -5 9 2 0.79 3.12 0.94 o
-2 5 -9 -2 0.79 0.94 0.94 <
3 -5 9 0 2.69 1.25 1.25 <
-3 5 -9 0 2.69 0.62 0.94 <
4 -5 9 -2 0.30 -4.99 1.56 <
-4 5 -9 2 0.30 2.18 0.94 <
-2 -4 9 -2 0.04 -2.50 2.50 <
2 4 -9 2 0.04 -3.43 2.50 <
-3 -4 9 1 0.27 -0.62 3.74 <
3 4 -9 -1 0.27 1.25 2.18 <
-2 -4 9 -1 2.29 -0.31 2.18 <
2 4 -9 1 2.29 -4.68 2.18 <
-3 -4 9 2 1.17 -0.31 1.87 <
3 4 -9 -2 1.17 -1.56 2.18 <
-2 -4 9 0 17.25 -1.56 1.87 <
2 4 -9 0 17.25 -2.50 2.81 <
-1 -4 9 -2 0.18 3.12 2.81 <
1 4 -9 2 0.18 1.25 1.56 <
-2 -4 9 1 0.08 -3.43 3.43 <
2 4 -9 -1 0.08 -2.81 1.56 <
-1 -4 9 -1 0.61 0.62 1.87 <
1 4 -9 1 0.61 0.94 1.56 <
-2 -4 9 2 2.26 -1.56 1.56 <
2 4 -9 -2 2.26 2.18 1.87 <
-1 -4 9 0 10.66 0.00 1.56 <
1 4 -9 0 10.66 8.11 3.43 <
0 -4 9 -2 3.10 -0.31 1.56 <
0 4 -9 2 3.10 -1.25 1.56 <
-1 -4 9 1 10.79 4.68 1.56 <
1 4 -9 -1 10.79 -1.56 1.56 <
0 -4 9 -1 9.97 7.18 1.56 o
0 4 -9 1 9.97 8.74 1.56 o
-1 -4 9 2 0.52 -1.56 1.56 <
1 4 -9 -2 0.52 -4.06 1.56 <
0 -4 9 0 18.23 0.00 1.56 <
0 4 -9 0 18.23 4.99 1.56 o
1 -4 9 -2 3.18 3.12 1.25 <
-1 4 -9 2 3.18 1.56 1.56 <
0 -4 9 1 2.19 14.04 1.25 o
0 4 -9 -1 2.19 11.86 1.25 o
1 -4 9 -1 20.72 19.35 1.25 o
-1 4 -9 1 20.72 18.41 1.25 o
0 -4 9 2 1.37 -2.50 1.25 <
0 4 -9 -2 1.37 1.87 1.25 <
1 -4 9 0 62.43 130.44 1.56 o
-1 4 -9 0 62.43 106.10 1.56 o
2 -4 9 -2 1.04 0.62 1.25 <
-2 4 -9 2 1.04 -1.87 1.25 <
1 -4 9 1 4.61 4.06 0.62 o
-1 4 -9 -1 4.61 1.25 0.62 <
2 -4 9 -1 7.98 2.18 0.62 o
-2 4 -9 1 7.98 0.62 0.62 <
1 -4 9 2 2.22 0.62 0.62 <
-1 4 -9 -2 2.22 2.50 0.62 o
2 -4 9 0 2.30 6.55 0.62 o
-2 4 -9 0 2.30 3.12 0.62 o
3 -4 9 -2 0.23 2.81 0.62 o
-3 4 -9 2 0.23 0.62 0.62 <
2 -4 9 1 0.98 0.94 0.94 <
-2 4 -9 -1 0.98 -0.62 0.62 <
3 -4 9 -1 0.14 5.93 0.94 o
-3 4 -9 1 0.14 2.18 0.94 <
2 -4 9 2 0.71 1.25 1.87 <
-2 4 -9 -2 0.71 1.87 0.94 <
3 -4 9 0 2.65 2.81 1.56 <
-3 4 -9 0 2.65 0.94 1.25 <
-3 -3 9 0 0.79 0.94 1.56 <
3 3 -9 0 0.79 0.00 2.18 <
-2 -3 9 -2 0.08 -1.25 1.56 <
2 3 -9 2 0.08 3.43 3.12 <
-3 -3 9 1 0.18 0.31 1.25 <
3 3 -9 -1 0.18 -0.62 1.87 <
-2 -3 9 -1 4.41 0.94 1.25 <
2 3 -9 1 4.41 2.18 1.56 <
-3 -3 9 2 1.33 -0.62 1.25 <
3 3 -9 -2 1.33 0.62 1.25 <
-2 -3 9 0 22.64 0.94 1.25 <
2 3 -9 0 22.64 0.31 1.25 <
-1 -3 9 -2 0.40 -1.87 1.25 <
1 3 -9 2 0.40 1.87 1.25 <
-2 -3 9 1 0.83 0.62 1.25 <
2 3 -9 -1 0.83 4.68 1.25 o
-1 -3 9 -1 2.16 0.62 1.25 <
1 3 -9 1 2.16 0.00 1.25 <
-2 -3 9 2 2.66 -0.94 1.25 <
2 3 -9 -2 2.66 0.62 1.25 <
-1 -3 9 0 30.38 12.48 1.25 o
1 3 -9 0 30.38 13.73 1.25 o
0 -3 9 -2 3.08 5.31 1.25 o
0 3 -9 2 3.08 1.87 1.25 <
-1 -3 9 1 15.58 0.31 1.25 <
1 3 -9 -1 15.58 0.62 1.25 <
0 -3 9 -1 9.19 8.74 1.56 o
0 3 -9 1 9.19 3.43 1.25 <
-1 -3 9 2 1.08 3.12 1.87 <
1 3 -9 -2 1.08 2.18 1.25 <
0 -3 9 0 13.23 4.99 1.25 o
0 3 -9 0 13.23 4.68 1.25 o
1 -3 9 -2 3.72 2.18 1.25 <
-1 3 -9 2 3.72 1.56 2.18 <
0 -3 9 1 0.76 1.87 1.25 <
0 3 -9 -1 0.76 4.99 1.25 o
1 -3 9 -1 22.37 24.34 1.25 o
-1 3 -9 1 22.37 15.92 1.25 o
0 -3 9 2 0.90 -2.50 1.25 <
0 3 -9 -2 0.90 0.62 1.25 <
1 -3 9 0 69.52 48.06 2.18 o
-1 3 -9 0 69.52 49.62 0.62 o
2 -3 9 -2 1.05 2.50 0.62 o
-2 3 -9 2 1.05 1.87 0.62 o
1 -3 9 1 4.09 1.87 0.62 o
-1 3 -9 -1 4.09 2.18 0.62 o
2 -3 9 -1 9.77 1.87 0.62 o
-2 3 -9 1 9.77 1.56 0.62 <
1 -3 9 2 1.52 2.81 0.62 o
-1 3 -9 -2 1.52 1.56 0.62 <
2 -3 9 0 3.64 0.62 0.62 <
-2 3 -9 0 3.64 1.25 0.62 <
3 -3 9 -2 0.11 1.87 0.94 <
-3 3 -9 2 0.11 0.62 0.62 <
2 -3 9 1 0.96 -6.24 1.25 <
-2 3 -9 -1 0.96 0.00 0.94 <
3 -3 9 -1 0.40 -6.87 1.25 <
-3 3 -9 1 0.40 0.62 1.25 <
2 -3 9 2 0.54 0.00 1.56 <
-2 3 -9 -2 0.54 -5.62 3.12 <
-3 -2 9 -1 2.16 0.62 1.56 <
3 2 -9 1 2.16 0.62 2.18 <
-4 -2 9 2 0.11 1.87 1.56 <
4 2 -9 -2 0.11 -2.50 1.56 <
-3 -2 9 0 1.06 2.81 1.56 <
3 2 -9 0 1.06 4.99 1.56 o
-2 -2 9 -2 0.14 3.12 1.25 <
2 2 -9 2 0.14 2.50 1.56 <
-3 -2 9 1 0.15 0.31 1.25 <
3 2 -9 -1 0.15 0.31 1.25 <
-2 -2 9 -1 7.01 -0.94 1.25 <
2 2 -9 1 7.01 -2.81 1.25 <
-3 -2 9 2 1.49 -0.62 1.25 <
3 2 -9 -2 1.49 1.56 1.25 <
-2 -2 9 0 32.40 4.37 1.25 o
2 2 -9 0 32.40 4.99 1.25 o
-1 -2 9 -2 0.83 -0.94 1.25 <
1 2 -9 2 0.83 0.31 1.25 <
-2 -2 9 1 2.73 0.00 1.25 <
2 2 -9 -1 2.73 3.12 1.25 <
-1 -2 9 -1 4.74 3.74 1.25 o
1 2 -9 1 4.74 2.50 1.25 <
-2 -2 9 2 2.69 1.87 1.25 <
2 2 -9 -2 2.69 0.31 1.25 <
-1 -2 9 0 43.42 17.16 1.25 o
1 2 -9 0 43.42 17.16 1.25 o
0 -2 9 -2 2.96 -1.25 0.94 <
0 2 -9 2 2.96 -0.62 0.94 <
-1 -2 9 1 20.23 3.74 0.94 o
1 2 -9 -1 20.23 4.68 0.94 o
0 -2 9 -1 5.99 4.99 0.94 o
0 2 -9 1 5.99 1.87 0.94 <
-1 -2 9 2 1.52 1.25 0.62 <
1 2 -9 -2 1.52 -1.25 0.62 <
0 -2 9 0 5.99 8.11 0.62 o
0 2 -9 0 5.99 5.31 0.62 o
1 -2 9 -2 3.92 1.56 0.62 <
-1 2 -9 2 3.92 1.87 0.62 o
0 -2 9 1 3.03 4.68 0.62 o
0 2 -9 -1 3.03 7.49 0.62 o
1 -2 9 -1 19.43 12.79 0.62 o
-1 2 -9 1 19.43 14.04 0.62 o
0 -2 9 2 0.75 2.50 0.62 o
0 2 -9 -2 0.75 2.18 0.62 o
1 -2 9 0 62.19 39.01 0.62 o
-1 2 -9 0 62.19 30.89 0.94 o
2 -2 9 -2 0.82 1.56 0.62 <
-2 2 -9 2 0.82 2.50 0.62 o
1 -2 9 1 2.76 -1.25 0.62 <
-1 2 -9 -1 2.76 1.56 0.62 <
2 -2 9 -1 9.59 1.87 0.62 o
-2 2 -9 1 9.59 -0.62 0.62 <
1 -2 9 2 0.98 1.56 0.62 <
-1 2 -9 -2 0.98 0.00 0.62 <
2 -2 9 0 5.05 -0.31 0.94 <
-2 2 -9 0 5.05 -1.56 0.94 <
3 -2 9 -2 0.08 0.31 2.18 <
-3 2 -9 2 0.08 0.94 0.94 <
2 -2 9 1 0.81 1.56 1.25 <
-2 2 -9 -1 0.81 0.94 1.56 <
3 -2 9 -1 0.64 -0.62 1.56 <
-3 2 -9 1 0.64 -0.31 1.25 <
-4 -1 9 1 1.03 -0.62 1.56 <
4 1 -9 -1 1.03 -0.62 1.56 <
-3 -1 9 -1 2.24 -3.12 1.56 <
3 1 -9 1 2.24 2.81 1.56 <
-4 -1 9 2 0.23 -3.74 1.25 <
4 1 -9 -2 0.23 1.25 1.56 <
-3 -1 9 0 0.81 -0.31 1.25 <
3 1 -9 0 0.81 -0.62 1.56 <
-2 -1 9 -2 0.19 3.43 1.25 <
2 1 -9 2 0.19 4.06 1.25 o
-3 -1 9 1 0.49 -2.18 1.25 <
3 1 -9 -1 0.49 1.87 1.25 <
-2 -1 9 -1 9.29 1.25 1.25 <
2 1 -9 1 9.29 0.62 1.25 <
-3 -1 9 2 1.84 1.87 1.25 <
3 1 -9 -2 1.84 1.56 1.25 <
-2 -1 9 0 46.53 8.74 1.25 o
2 1 -9 0 46.53 16.23 1.25 o
-1 -1 9 -2 1.40 1.87 1.25 <
1 1 -9 2 1.40 -0.94 1.25 <
-2 -1 9 1 5.30 3.74 1.25 o
2 1 -9 -1 5.30 -0.62 1.25 <
-1 -1 9 -1 7.48 16.23 1.25 o
1 1 -9 1 7.48 8.11 1.25 o
-2 -1 9 2 2.65 1.56 0.94 <
2 1 -9 -2 2.65 -0.62 0.94 <
-1 -1 9 0 68.53 48.06 1.25 o
1 1 -9 0 68.53 38.07 1.25 o
0 -1 9 -2 3.13 0.94 0.94 <
0 1 -9 2 3.13 2.50 0.94 <
-1 -1 9 1 22.35 12.48 0.94 o
1 1 -9 -1 22.35 15.29 0.94 o
0 -1 9 -1 2.13 0.62 0.62 <
0 1 -9 1 2.13 0.94 0.62 <
-1 -1 9 2 1.52 0.94 0.62 <
1 1 -9 -2 1.52 0.94 0.62 <
0 -1 9 0 7.22 6.87 0.62 o
0 1 -9 0 7.22 3.43 0.62 o
1 -1 9 -2 3.76 2.50 0.62 o
-1 1 -9 2 3.76 -0.62 0.62 <
0 -1 9 1 8.05 7.80 0.62 o
0 1 -9 -1 8.05 5.62 0.62 o
1 -1 9 -1 13.64 10.61 0.62 o
-1 1 -9 1 13.64 6.24 0.62 o
0 -1 9 2 0.84 0.94 1.25 <
0 1 -9 -2 0.84 0.94 1.25 <
1 -1 9 0 37.22 4.99 1.25 o
-1 1 -9 0 37.22 8.11 1.25 o
2 -1 9 -2 0.49 -6.87 4.68 <
-2 1 -9 2 0.49 0.31 1.25 <
1 -1 9 1 1.42 -3.12 1.87 <
-1 1 -9 -1 1.42 -0.62 1.25 <
2 -1 9 -1 7.59 -0.62 1.25 <
-2 1 -9 1 7.59 4.06 1.56 <
1 -1 9 2 0.69 1.87 1.25 <
-1 1 -9 -2 0.69 4.99 1.56 o
2 -1 9 0 5.99 0.31 1.56 <
-2 1 -9 0 5.99 0.94 4.37 <
3 -1 9 -2 0.07 0.00 1.56 <
-3 1 -9 2 0.07 2.81 5.93 <
2 -1 9 1 0.57 1.87 1.56 <
-2 1 -9 -1 0.57 -2.18 4.06 <
-3 0 9 -2 0.19 -5.31 1.56 <
3 0 -9 2 0.19 1.87 1.56 <
-4 0 9 1 1.32 -1.56 1.56 <
4 0 -9 -1 1.32 -0.94 1.56 <
-3 0 9 -1 1.90 2.50 1.25 <
3 0 -9 1 1.90 0.62 1.56 <
-4 0 9 2 0.46 1.25 1.25 <
4 0 -9 -2 0.46 4.68 1.25 o
-3 0 9 0 1.24 0.31 1.25 <
3 0 -9 0 1.24 1.87 1.25 <
-2 0 9 -2 0.24 3.43 1.25 <
2 0 -9 2 0.24 3.43 1.25 <
-3 0 9 1 1.70 0.31 1.25 <
3 0 -9 -1 1.70 -0.31 1.25 <
-2 0 9 -1 10.32 14.67 1.25 o
2 0 -9 1 10.32 7.49 1.25 o
-3 0 9 2 2.64 2.50 1.25 <
3 0 -9 -2 2.64 -0.62 1.25 <
-2 0 9 0 43.18 24.65 1.25 o
2 0 -9 0 43.18 26.84 1.25 o
-1 0 9 -2 1.95 2.50 0.94 <
1 0 -9 2 1.95 1.56 1.25 <
-2 0 9 1 7.24 0.00 0.94 <
2 0 -9 -1 7.24 2.18 0.94 <
-1 0 9 -1 8.88 6.87 0.94 o
1 0 -9 1 8.88 2.50 0.94 <
-2 0 9 2 3.15 2.50 0.94 <
2 0 -9 -2 3.15 1.87 0.94 <
-1 0 9 0 63.60 74.58 1.25 o
1 0 -9 0 63.60 82.70 1.25 o
0 0 9 -2 3.83 -0.94 0.62 <
0 0 -9 2 3.83 -1.25 0.62 <
-1 0 9 1 20.06 45.25 0.94 o
1 0 -9 -1 20.06 39.01 0.94 o
0 0 9 -1 0.09 3.74 0.62 o
0 0 -9 1 0.09 1.87 0.62 o
-1 0 9 2 1.08 0.62 0.62 <
1 0 -9 -2 1.08 1.87 0.62 o
0 0 9 0 4.96 13.73 0.62 o
0 0 -9 0 4.96 11.86 0.62 o
1 0 9 -2 3.48 2.18 0.62 o
-1 0 -9 2 3.48 -2.18 0.62 <
0 0 9 1 12.72 3.43 0.62 o
0 0 -9 -1 12.72 2.50 1.25 <
1 0 9 -1 8.03 3.43 1.25 <
-1 0 -9 1 8.03 1.87 1.25 <
0 0 9 2 0.91 2.50 1.25 <
0 0 -9 -2 0.91 3.12 1.25 <
1 0 9 0 22.07 0.62 1.25 <
-1 0 -9 0 22.07 1.25 1.56 <
2 0 9 -2 0.21 -4.68 1.25 <
-2 0 -9 2 0.21 -2.50 1.56 <
1 0 9 1 0.57 3.43 1.56 <
-1 0 -9 -1 0.57 -2.50 1.56 <
2 0 9 -1 4.88 1.56 4.06 <
-2 0 -9 1 4.88 -0.94 1.56 <
-1 0 -9 -2 0.60 -0.62 3.43 <
3 0 9 -2 0.07 12.48 9.67 <
-4 1 9 0 4.14 -1.87 1.56 <
4 -1 -9 0 4.14 -5.93 1.87 <
-3 1 9 -2 0.28 0.31 1.25 <
3 -1 -9 2 0.28 -3.43 1.56 <
-4 1 9 1 1.65 3.43 1.25 <
4 -1 -9 -1 1.65 1.87 1.56 <
-3 1 9 -1 1.40 3.12 1.25 <
3 -1 -9 1 1.40 3.12 1.25 <
-4 1 9 2 0.72 4.68 1.25 o
4 -1 -9 -2 0.72 4.37 1.56 <
-3 1 9 0 0.72 1.56 1.25 <
3 -1 -9 0 0.72 1.25 1.25 <
-2 1 9 -2 0.34 0.31 1.25 <
2 -1 -9 2 0.34 0.94 1.25 <
-3 1 9 1 4.29 10.30 1.25 o
3 -1 -9 -1 4.29 3.12 1.25 <
-2 1 9 -1 9.88 39.32 1.25 o
2 -1 -9 1 9.88 31.52 1.25 o
-3 1 9 2 3.85 1.25 1.25 <
3 -1 -9 -2 3.85 2.81 1.25 <
-2 1 9 0 29.95 25.28 1.25 o
2 -1 -9 0 29.95 31.52 1.25 o
-1 1 9 -2 2.16 1.87 0.94 <
1 -1 -9 2 2.16 -1.25 0.94 <
-2 1 9 1 7.40 2.81 0.94 <
2 -1 -9 -1 7.40 4.06 0.94 o
-1 1 9 -1 7.89 6.87 0.94 o
1 -1 -9 1 7.89 6.24 0.94 o
-2 1 9 2 4.37 0.62 0.94 <
2 -1 -9 -2 4.37 2.18 0.94 <
-1 1 9 0 90.26 163.83 1.25 o
1 -1 -9 0 90.26 171.32 1.25 o
0 1 9 -2 4.71 2.50 0.62 o
0 -1 -9 2 4.71 1.87 0.62 o
-1 1 9 1 14.29 34.01 0.94 o
1 -1 -9 -1 14.29 37.45 0.94 o
0 1 9 -1 0.55 5.31 0.62 o
0 -1 -9 1 0.55 4.68 0.62 o
-1 1 9 2 0.53 -0.62 0.62 <
1 -1 -9 -2 0.53 0.31 0.62 <
0 1 9 0 8.93 4.06 0.62 o
0 -1 -9 0 8.93 2.50 0.94 <
1 1 9 -2 3.23 0.94 1.25 <
-1 -1 -9 2 3.23 -0.94 3.43 <
0 1 9 1 14.68 4.37 1.25 o
0 -1 -9 -1 14.68 2.18 1.56 <
1 1 9 -1 4.45 4.06 1.56 <
-1 -1 -9 1 4.45 3.43 1.56 <
0 1 9 2 0.83 -1.25 1.56 <
0 -1 -9 -2 0.83 -1.56 1.56 <
1 1 9 0 12.43 -3.12 1.56 <
-1 -1 -9 0 12.43 -5.62 1.56 <
2 1 9 -2 0.07 14.98 2.18 o
-2 -1 -9 2 0.07 -6.87 1.56 <
-1 -1 -9 -1 0.20 1.25 2.18 <
-5 2 9 2 0.03 -1.87 1.56 <
5 -2 -9 -2 0.03 3.43 1.87 <
-4 2 9 0 4.17 4.99 1.56 o
4 -2 -9 0 4.17 -3.74 1.56 <
-3 2 9 -2 0.53 -1.25 1.25 <
3 -2 -9 2 0.53 0.31 1.56 <
-4 2 9 1 2.04 0.62 1.25 <
4 -2 -9 -1 2.04 6.24 1.25 o
-3 2 9 -1 1.31 3.12 1.25 <
3 -2 -9 1 1.31 1.56 1.25 <
-4 2 9 2 0.88 0.31 1.25 <
4 -2 -9 -2 0.88 0.62 1.25 <
-3 2 9 0 2.04 0.62 1.25 <
3 -2 -9 0 2.04 2.81 1.25 <
-2 2 9 -2 0.56 -1.87 1.25 <
2 -2 -9 2 0.56 0.31 1.25 <
-3 2 9 1 8.32 4.06 1.25 o
3 -2 -9 -1 8.32 6.55 1.25 o
-2 2 9 -1 8.75 23.40 1.25 o
2 -2 -9 1 8.75 26.53 1.25 o
-3 2 9 2 5.06 2.50 1.25 <
3 -2 -9 -2 5.06 0.94 1.25 <
-2 2 9 0 23.12 11.55 1.25 o
2 -2 -9 0 23.12 16.85 1.25 o
-1 2 9 -2 1.83 2.81 0.94 <
1 -2 -9 2 1.83 3.43 0.94 o
-2 2 9 1 5.81 1.56 0.94 <
2 -2 -9 -1 5.81 1.87 0.94 <
-1 2 9 -1 5.08 12.17 0.94 o
1 -2 -9 1 5.08 9.99 0.94 o
-2 2 9 2 5.65 4.37 0.94 o
2 -2 -9 -2 5.65 4.06 0.94 o
-1 2 9 0 67.49 114.53 1.25 o
1 -2 -9 0 67.49 116.40 1.25 o
0 2 9 -2 5.11 2.18 0.62 o
0 -2 -9 2 5.11 2.81 0.62 o
-1 2 9 1 8.03 11.86 0.94 o
1 -2 -9 -1 8.03 15.92 0.94 o
0 2 9 -1 1.99 6.24 0.94 o
0 -2 -9 1 1.99 6.55 0.94 o
-1 2 9 2 0.23 2.50 0.62 o
1 -2 -9 -2 0.23 -0.31 0.94 <
0 2 9 0 7.11 0.62 1.56 <
0 -2 -9 0 7.11 3.43 1.56 <
1 2 9 -2 2.94 1.25 1.56 <
-1 -2 -9 2 2.94 0.31 1.56 <
0 2 9 1 13.71 4.68 1.56 <
0 -2 -9 -1 13.71 1.87 1.56 <
1 2 9 -1 2.86 3.12 1.56 <
-1 -2 -9 1 2.86 -4.37 1.56 <
0 2 9 2 0.62 -0.31 1.56 <
0 -2 -9 -2 0.62 4.37 1.56 <
1 2 9 0 6.98 4.06 4.06 <
-1 -2 -9 0 6.98 -4.68 1.87 <
-2 -2 -9 2 0.06 0.00 5.31 <
-4 3 9 -1 0.36 -1.56 1.56 <
4 -3 -9 1 0.36 1.87 1.56 <
-5 3 9 2 0.05 -0.31 1.56 <
5 -3 -9 -2 0.05 1.87 1.56 <
-4 3 9 0 5.39 1.56 1.25 <
4 -3 -9 0 5.39 -0.31 1.56 <
-3 3 9 -2 0.92 -1.87 1.25 <
3 -3 -9 2 0.92 -0.62 1.25 <
-4 3 9 1 2.44 2.81 1.25 <
4 -3 -9 -1 2.44 2.50 1.25 <
-3 3 9 -1 2.20 -1.56 1.25 <
3 -3 -9 1 2.20 2.18 1.25 <
-4 3 9 2 0.85 -0.62 1.25 <
4 -3 -9 -2 0.85 -0.31 1.25 <
-3 3 9 0 5.72 23.40 1.25 o
3 -3 -9 0 5.72 27.77 1.25 o
-2 3 9 -2 0.95 1.87 1.25 <
2 -3 -9 2 0.95 4.06 1.25 o
-3 3 9 1 12.84 5.62 1.25 o
3 -3 -9 -1 12.84 9.36 1.25 o
-2 3 9 -1 8.14 3.43 1.25 <
2 -3 -9 1 8.14 4.37 1.25 o
-3 3 9 2 5.74 4.68 1.25 o
3 -3 -9 -2 5.74 8.74 1.25 o
-2 3 9 0 15.53 2.81 1.25 <
2 -3 -9 0 15.53 2.18 0.94 <
-1 3 9 -2 1.09 1.25 0.94 <
1 -3 -9 2 1.09 3.43 0.94 o
-2 3 9 1 3.55 2.81 0.94 <
2 -3 -9 -1 3.55 5.31 0.94 o
-1 3 9 -1 2.37 7.49 0.94 o
1 -3 -9 1 2.37 9.36 0.94 o
-2 3 9 2 6.15 7.80 0.94 o
2 -3 -9 -2 6.15 8.11 0.94 o
-1 3 9 0 26.57 42.13 0.94 o
1 -3 -9 0 26.57 42.44 0.94 o
0 3 9 -2 4.66 2.81 0.94 <
0 -3 -9 2 4.66 4.68 0.94 o
-1 3 9 1 3.59 2.81 0.94 <
1 -3 -9 -1 3.59 4.06 0.94 o
0 3 9 -1 2.74 -0.94 0.94 <
0 -3 -9 1 2.74 0.00 0.94 <
-1 3 9 2 0.24 1.25 3.12 <
1 -3 -9 -2 0.24 3.74 1.56 <
0 3 9 0 5.68 0.31 1.56 <
0 -3 -9 0 5.68 -5.62 1.56 <
1 3 9 -2 2.48 -0.31 1.56 <
-1 -3 -9 2 2.48 -0.62 1.56 <
0 3 9 1 10.88 -0.31 1.56 <
0 -3 -9 -1 10.88 3.74 1.56 <
1 3 9 -1 2.37 -5.31 2.18 <
-1 -3 -9 1 2.37 3.12 1.87 <
0 -3 -9 -2 0.38 -4.06 2.50 <
-5 4 9 1 2.15 5.62 1.56 o
5 -4 -9 -1 2.15 0.94 1.56 <
-4 4 9 -1 0.57 1.56 1.56 <
4 -4 -9 1 0.57 1.25 1.56 <
-5 4 9 2 0.13 2.81 1.25 <
5 -4 -9 -2 0.13 0.94 1.56 <
-4 4 9 0 2.82 -1.56 1.25 <
4 -4 -9 0 2.82 4.06 1.56 <
-3 4 9 -2 1.40 0.31 1.25 <
3 -4 -9 2 1.40 -2.81 1.25 <
-4 4 9 1 2.82 -0.94 1.25 <
4 -4 -9 -1 2.82 0.94 1.25 <
-3 4 9 -1 4.21 0.31 1.25 <
3 -4 -9 1 4.21 2.50 1.25 <
-4 4 9 2 0.63 0.94 1.25 <
4 -4 -9 -2 0.63 0.31 1.25 <
-3 4 9 0 10.97 35.58 1.25 o
3 -4 -9 0 10.97 40.26 1.25 o
-2 4 9 -2 1.38 -0.31 1.25 <
2 -4 -9 2 1.38 1.25 1.25 <
-3 4 9 1 15.84 8.11 1.25 o
3 -4 -9 -1 15.84 9.99 1.25 o
-2 4 9 -1 8.84 1.87 1.25 <
2 -4 -9 1 8.84 0.94 1.25 <
-3 4 9 2 5.66 9.36 0.94 o
3 -4 -9 -2 5.66 6.87 1.25 o
-2 4 9 0 8.95 11.86 1.25 o
2 -4 -9 0 8.95 9.99 1.25 o
-1 4 9 -2 0.37 2.81 0.94 <
1 -4 -9 2 0.37 1.25 0.94 <
-2 4 9 1 1.71 0.62 0.94 <
2 -4 -9 -1 1.71 0.62 0.94 <
-1 4 9 -1 1.25 3.43 0.94 o
1 -4 -9 1 1.25 4.06 0.94 o
-2 4 9 2 5.71 4.68 0.94 o
2 -4 -9 -2 5.71 4.37 0.94 o
-1 4 9 0 16.65 10.92 0.94 o
1 -4 -9 0 16.65 13.11 0.94 o
0 4 9 -2 3.62 1.25 0.94 <
0 -4 -9 2 3.62 2.50 0.94 <
-1 4 9 1 1.39 -0.94 0.94 <
1 -4 -9 -1 1.39 -1.25 1.25 <
0 4 9 -1 2.44 4.06 1.56 <
0 -4 -9 1 2.44 14.67 1.56 o
-1 4 9 2 0.42 9.36 1.56 o
1 -4 -9 -2 0.42 0.94 1.56 <
0 4 9 0 3.45 0.00 1.56 <
0 -4 -9 0 3.45 1.56 1.87 <
1 4 9 -2 1.86 10.30 1.87 o
-1 -4 -9 2 1.86 0.00 1.87 <
0 4 9 1 7.48 9.05 4.37 <
0 -4 -9 -1 7.48 0.31 1.87 <
-1 -4 -9 1 2.19 -4.37 5.31 <
-4 5 9 -2 0.34 -0.94 1.56 <
4 -5 -9 2 0.34 1.87 1.56 <
-5 5 9 1 1.93 -0.62 1.56 <
5 -5 -9 -1 1.93 4.37 1.56 <
-4 5 9 -1 0.68 2.81 1.25 <
4 -5 -9 1 0.68 1.25 1.56 <
-5 5 9 2 0.28 -0.31 1.25 <
5 -5 -9 -2 0.28 -2.50 1.25 <
-4 5 9 0 2.91 2.50 1.25 <
4 -5 -9 0 2.91 5.93 1.25 o
-3 5 9 -2 1.82 -1.87 1.25 <
3 -5 -9 2 1.82 -2.18 1.25 <
-4 5 9 1 3.14 0.31 1.25 <
4 -5 -9 -1 3.14 1.25 1.25 <
-3 5 9 -1 6.74 2.18 1.25 <
3 -5 -9 1 6.74 4.99 1.25 o
-4 5 9 2 0.34 1.87 1.25 <
4 -5 -9 -2 0.34 0.62 1.25 <
-3 5 9 0 15.18 34.95 1.25 o
3 -5 -9 0 15.18 33.08 1.25 o
-2 5 9 -2 1.63 -1.87 1.25 <
2 -5 -9 2 1.63 0.62 1.25 <
-3 5 9 1 15.43 11.55 1.25 o
3 -5 -9 -1 15.43 10.61 1.25 o
-2 5 9 -1 10.67 10.30 1.25 o
2 -5 -9 1 10.67 12.17 1.25 o
-3 5 9 2 4.95 3.12 1.25 <
3 -5 -9 -2 4.95 4.37 1.25 o
-2 5 9 0 25.29 21.22 1.25 o
2 -5 -9 0 25.29 22.78 1.25 o
-1 5 9 -2 0.03 1.87 0.94 <
1 -5 -9 2 0.03 -2.18 0.94 <
-2 5 9 1 0.76 6.24 1.25 o
2 -5 -9 -1 0.76 4.68 1.25 o
-1 5 9 -1 1.57 3.43 0.94 o
1 -5 -9 1 1.57 6.24 0.94 o
-2 5 9 2 4.76 3.74 0.94 o
2 -5 -9 -2 4.76 4.37 0.94 o
-1 5 9 0 4.59 3.43 1.25 <
1 -5 -9 0 4.59 0.94 1.25 <
0 5 9 -2 2.48 0.62 1.25 <
0 -5 -9 2 2.48 -3.74 1.56 <
-1 5 9 1 0.76 4.06 1.56 <
1 -5 -9 -1 0.76 3.12 1.87 <
0 5 9 -1 1.60 5.93 1.56 o
0 -5 -9 1 1.60 5.62 1.87 <
-1 5 9 2 0.58 7.18 1.56 o
1 -5 -9 -2 0.58 -2.18 1.87 <
0 5 9 0 6.34 0.94 2.18 <
0 -5 -9 0 6.34 -2.18 1.87 <
-1 -5 -9 2 1.24 16.23 2.81 o
-5 6 9 0 3.11 -4.99 1.56 <
5 -6 -9 0 3.11 -1.25 1.56 <
-4 6 9 -2 0.26 -0.94 1.56 <
4 -6 -9 2 0.26 3.12 1.56 <
-5 6 9 1 1.33 -0.31 1.25 <
5 -6 -9 -1 1.33 0.62 1.56 <
-4 6 9 -1 0.63 0.00 1.25 <
4 -6 -9 1 0.63 0.62 1.56 <
-5 6 9 2 0.49 1.25 1.25 <
5 -6 -9 -2 0.49 0.62 1.25 <
-4 6 9 0 3.08 0.62 1.25 <
4 -6 -9 0 3.08 2.18 1.25 <
-3 6 9 -2 2.06 2.81 1.25 <
3 -6 -9 2 2.06 0.31 1.25 <
-4 6 9 1 3.50 1.25 1.25 <
4 -6 -9 -1 3.50 0.94 1.25 <
-3 6 9 -1 8.75 11.55 1.25 o
3 -6 -9 1 8.75 9.67 1.25 o
-4 6 9 2 0.12 1.25 1.25 <
4 -6 -9 -2 0.12 0.62 1.25 <
-3 6 9 0 12.11 63.97 1.56 o
3 -6 -9 0 12.11 57.42 1.56 o
-2 6 9 -2 1.54 -0.31 1.25 <
2 -6 -9 2 1.54 -0.62 1.25 <
-3 6 9 1 11.59 10.61 1.25 o
3 -6 -9 -1 11.59 10.30 1.25 o
-2 6 9 -1 12.67 20.60 1.25 o
2 -6 -9 1 12.67 18.72 1.25 o
-3 6 9 2 3.87 0.31 1.25 <
3 -6 -9 -2 3.87 -0.94 1.25 <
-2 6 9 0 39.59 19.35 1.25 o
2 -6 -9 0 39.59 18.10 1.25 o
-1 6 9 -2 0.05 2.81 1.25 <
1 -6 -9 2 0.05 2.18 1.25 <
-2 6 9 1 0.51 -0.31 1.25 <
2 -6 -9 -1 0.51 0.62 1.25 <
-1 6 9 -1 2.49 -0.62 1.25 <
1 -6 -9 1 2.49 0.31 1.25 <
-2 6 9 2 3.69 0.94 1.25 <
2 -6 -9 -2 3.69 4.06 1.25 o
-1 6 9 0 0.16 -3.12 1.25 <
1 -6 -9 0 0.16 1.87 2.18 <
0 6 9 -2 1.54 4.68 1.87 <
0 -6 -9 2 1.54 -4.06 1.87 <
-1 6 9 1 0.87 2.81 1.87 <
1 -6 -9 -1 0.87 -3.12 1.87 <
0 6 9 -1 0.80 2.18 1.87 <
0 -6 -9 1 0.80 14.35 1.87 o
-1 6 9 2 0.63 -1.56 4.68 <
1 -6 -9 -2 0.63 1.25 1.87 <
0 -6 -9 0 4.42 5.93 4.99 <
-6 7 9 2 0.65 0.94 1.56 <
6 -7 -9 -2 0.65 1.25 1.56 <
-5 7 9 0 5.18 0.62 1.56 <
5 -7 -9 0 5.18 3.74 1.56 <
-4 7 9 -2 0.18 1.56 1.25 <
4 -7 -9 2 0.18 -1.56 1.56 <
-5 7 9 1 0.62 -2.81 1.25 <
5 -7 -9 -1 0.62 2.81 1.56 <
-4 7 9 -1 0.45 1.56 1.25 <
4 -7 -9 1 0.45 1.87 1.25 <
-5 7 9 2 0.70 2.50 1.25 <
5 -7 -9 -2 0.70 4.06 1.25 o
-4 7 9 0 4.19 4.68 1.25 o
4 -7 -9 0 4.19 2.18 1.25 <
-3 7 9 -2 2.07 0.94 1.25 <
3 -7 -9 2 2.07 1.25 1.25 <
-4 7 9 1 4.03 -0.62 1.25 <
4 -7 -9 -1 4.03 2.81 1.25 <
-3 7 9 -1 9.26 8.74 1.25 o
3 -7 -9 1 9.26 7.80 1.25 o
-4 7 9 2 0.02 0.62 1.25 <
4 -7 -9 -2 0.02 0.94 1.25 <
-3 7 9 0 17.63 36.82 1.25 o
3 -7 -9 0 17.63 38.70 1.25 o
-2 7 9 -2 1.23 1.87 1.25 <
2 -7 -9 2 1.23 -0.62 1.25 <
-3 7 9 1 6.43 2.18 1.25 <
3 -7 -9 -1 6.43 2.50 1.25 <
-2 7 9 -1 13.59 5.31 1.25 o
2 -7 -9 1 13.59 4.06 1.25 o
-3 7 9 2 2.68 2.50 1.25 <
3 -7 -9 -2 2.68 4.06 1.25 o
-2 7 9 0 49.59 20.60 1.25 o
2 -7 -9 0 49.59 20.28 1.25 o
-1 7 9 -2 0.21 0.62 1.25 <
1 -7 -9 2 0.21 0.62 1.25 <
-2 7 9 1 0.55 2.18 1.25 <
2 -7 -9 -1 0.55 0.00 1.25 <
-1 7 9 -1 3.39 4.68 1.25 o
1 -7 -9 1 3.39 4.06 1.25 o
-2 7 9 2 2.64 0.94 1.56 <
2 -7 -9 -2 2.64 -0.94 3.74 <
-1 7 9 0 0.16 10.30 1.87 o
1 -7 -9 0 0.16 9.99 1.87 o
0 7 9 -2 0.88 2.81 1.87 <
0 -7 -9 2 0.88 9.99 1.87 o
-1 7 9 1 1.15 0.94 2.50 <
1 -7 -9 -1 1.15 -4.99 1.87 <
0 -7 -9 1 0.30 6.55 2.81 <
-6 8 9 2 0.67 0.62 1.56 <
6 -8 -9 -2 0.67 0.62 1.56 <
-5 8 9 0 7.95 8.43 1.56 o
5 -8 -9 0 7.95 11.55 1.56 o
-4 8 9 -2 0.15 1.25 1.56 <
4 -8 -9 2 0.15 -1.25 1.56 <
-5 8 9 1 0.14 1.87 1.25 <
5 -8 -9 -1 0.14 0.62 1.56 <
-4 8 9 -1 0.26 2.50 1.25 <
4 -8 -9 1 0.26 -0.94 1.25 <
-5 8 9 2 0.82 4.06 1.25 o
5 -8 -9 -2 0.82 2.81 1.25 <
-4 8 9 0 4.72 14.98 1.25 o
4 -8 -9 0 4.72 19.35 1.56 o
-3 8 9 -2 1.84 -0.62 1.25 <
3 -8 -9 2 1.84 1.56 1.25 <
-4 8 9 1 4.73 -0.62 1.25 <
4 -8 -9 -1 4.73 2.50 1.25 <
-3 8 9 -1 7.99 1.87 1.25 <
3 -8 -9 1 7.99 2.81 1.25 <
-4 8 9 2 0.02 -0.31 1.25 <
4 -8 -9 -2 0.02 0.62 1.25 <
-3 8 9 0 7.99 2.50 1.25 <
3 -8 -9 0 7.99 5.62 1.25 o
-2 8 9 -2 0.92 1.25 1.25 <
2 -8 -9 2 0.92 -2.50 1.25 <
-3 8 9 1 2.34 4.37 1.25 o
3 -8 -9 -1 2.34 3.12 1.25 <
-2 8 9 -1 12.64 5.62 1.25 o
2 -8 -9 1 12.64 4.68 1.25 o
-3 8 9 2 1.64 -0.62 1.25 <
3 -8 -9 -2 1.64 1.56 1.25 <
-2 8 9 0 35.63 3.12 1.25 <
2 -8 -9 0 35.63 6.87 1.25 o
-1 8 9 -2 0.32 1.87 1.25 <
1 -8 -9 2 0.32 0.62 1.25 <
-2 8 9 1 0.57 1.25 1.25 <
2 -8 -9 -1 0.57 0.00 1.25 <
-1 8 9 -1 3.86 -1.87 1.56 <
1 -8 -9 1 3.86 12.48 1.87 o
-2 8 9 2 1.71 5.93 1.87 o
2 -8 -9 -2 1.71 5.93 1.87 o
-1 8 9 0 0.74 -2.81 1.87 <
1 -8 -9 0 0.74 -1.87 1.87 <
0 8 9 -2 0.47 -14.04 6.24 <
0 -8 -9 2 0.47 0.62 2.18 <
1 -8 -9 -1 1.27 9.99 4.99 <
-5 9 9 -1 1.18 -0.94 1.56 <
5 -9 -9 1 1.18 3.74 1.56 <
-6 9 9 2 0.60 0.00 1.56 <
6 -9 -9 -2 0.60 -0.31 1.56 <
-5 9 9 0 10.21 24.34 1.56 o
5 -9 -9 0 10.21 18.10 1.56 o
-4 9 9 -2 0.18 -0.62 1.25 <
4 -9 -9 2 0.18 1.25 1.56 <
-5 9 9 1 0.10 2.18 1.25 <
5 -9 -9 -1 0.10 1.56 1.56 <
-4 9 9 -1 0.18 4.37 1.25 o
4 -9 -9 1 0.18 -0.94 1.25 <
-5 9 9 2 0.78 0.94 1.25 <
5 -9 -9 -2 0.78 3.12 1.25 <
-4 9 9 0 6.34 2.81 1.25 <
4 -9 -9 0 6.34 -1.25 1.25 <
-3 9 9 -2 1.46 -0.62 1.25 <
3 -9 -9 2 1.46 0.94 1.25 <
-4 9 9 1 5.27 1.25 1.25 <
4 -9 -9 -1 5.27 1.87 1.25 <
-3 9 9 -1 5.56 1.87 1.25 <
3 -9 -9 1 5.56 0.31 1.25 <
-4 9 9 2 0.09 -1.25 1.25 <
4 -9 -9 -2 0.09 1.87 1.25 <
-3 9 9 0 7.00 4.99 1.25 o
3 -9 -9 0 7.00 14.67 1.25 o
-2 9 9 -2 0.71 0.94 1.25 <
2 -9 -9 2 0.71 0.94 1.25 <
-3 9 9 1 0.34 1.25 1.25 <
3 -9 -9 -1 0.34 -3.12 1.25 <
-2 9 9 -1 10.03 4.06 1.25 o
2 -9 -9 1 10.03 1.87 1.25 <
-3 9 9 2 0.90 3.43 1.25 <
3 -9 -9 -2 0.90 -1.87 1.25 <
-2 9 9 0 26.47 2.81 1.25 <
2 -9 -9 0 26.47 -1.25 1.25 <
-1 9 9 -2 0.33 2.18 1.25 <
1 -9 -9 2 0.33 0.94 1.25 <
-2 9 9 1 0.50 2.50 1.87 <
2 -9 -9 -1 0.50 0.62 1.87 <
-1 9 9 -1 3.71 5.93 1.87 o
1 -9 -9 1 3.71 -4.99 1.87 <
-2 9 9 2 1.00 4.99 2.81 <
2 -9 -9 -2 1.00 4.37 2.18 <
1 -9 -9 0 1.74 -0.62 2.81 <
-5 10 9 -1 1.52 2.50 1.56 <
5 -10 -9 1 1.52 -0.62 1.56 <
-6 10 9 2 0.49 -0.62 1.56 <
6 -10 -9 -2 0.49 -0.62 1.56 <
-5 10 9 0 10.36 35.58 1.56 o
5 -10 -9 0 10.36 41.82 1.56 o
-4 10 9 -2 0.25 0.31 1.25 <
4 -10 -9 2 0.25 1.87 1.56 <
-5 10 9 1 0.40 1.87 1.25 <
5 -10 -9 -1 0.40 0.94 1.56 <
-4 10 9 -1 0.30 2.81 1.25 <
4 -10 -9 1 0.30 2.81 1.56 <
-5 10 9 2 0.62 0.31 1.25 <
5 -10 -9 -2 0.62 1.25 1.25 <
-4 10 9 0 4.90 4.68 1.25 o
4 -10 -9 0 4.90 3.74 1.25 o
-3 10 9 -2 1.05 -0.31 1.25 <
3 -10 -9 2 1.05 0.00 1.25 <
-4 10 9 1 5.27 1.56 1.25 <
4 -10 -9 -1 5.27 0.00 1.25 <
-3 10 9 -1 3.02 -1.56 1.25 <
3 -10 -9 1 3.02 -0.94 1.25 <
-4 10 9 2 0.15 -0.94 1.25 <
4 -10 -9 -2 0.15 2.81 1.25 <
-3 10 9 0 6.80 0.00 1.25 <
3 -10 -9 0 6.80 1.87 1.25 <
-2 10 9 -2 0.58 0.31 1.25 <
2 -10 -9 2 0.58 4.99 1.25 o
-3 10 9 1 0.04 0.00 1.25 <
3 -10 -9 -1 0.04 1.25 1.25 <
-2 10 9 -1 6.77 2.50 1.25 <
2 -10 -9 1 6.77 0.31 1.25 <
-3 10 9 2 0.50 -1.87 1.25 <
3 -10 -9 -2 0.50 -0.31 1.25 <
-2 10 9 0 18.92 -2.18 1.25 <
2 -10 -9 0 18.92 6.55 1.56 o
-1 10 9 -2 0.26 0.31 2.81 <
1 -10 -9 2 0.26 0.94 2.18 <
-2 10 9 1 0.36 0.94 2.18 <
2 -10 -9 -1 0.36 -0.62 2.18 <
-1 10 9 -1 3.01 13.73 7.18 <
1 -10 -9 1 3.01 1.87 2.18 <
2 -10 -9 -2 0.54 -1.87 4.37 <
-5 11 9 -1 1.61 4.68 1.56 <
5 -11 -9 1 1.61 5.31 1.56 o
-6 11 9 2 0.41 -0.62 1.56 <
6 -11 -9 -2 0.41 -0.31 1.56 <
-5 11 9 0 8.33 20.60 1.56 o
5 -11 -9 0 8.33 19.66 1.56 o
-4 11 9 -2 0.34 1.25 1.56 <
4 -11 -9 2 0.34 0.00 1.56 <
-5 11 9 1 0.76 1.56 1.25 <
5 -11 -9 -1 0.76 -0.62 1.56 <
-4 11 9 -1 0.52 0.94 1.25 <
4 -11 -9 1 0.52 -1.25 1.56 <
-5 11 9 2 0.41 1.56 1.25 <
5 -11 -9 -2 0.41 0.62 1.25 <
-4 11 9 0 5.52 1.87 1.25 <
4 -11 -9 0 5.52 0.62 1.25 <
-3 11 9 -2 0.72 1.25 1.25 <
3 -11 -9 2 0.72 1.87 1.25 <
-4 11 9 1 4.60 -0.31 1.25 <
4 -11 -9 -1 4.60 -1.25 1.25 <
-3 11 9 -1 1.21 0.94 1.25 <
3 -11 -9 1 1.21 0.31 1.25 <
-4 11 9 2 0.16 1.56 1.25 <
4 -11 -9 -2 0.16 -3.12 1.25 <
-3 11 9 0 3.27 1.87 1.25 <
3 -11 -9 0 3.27 0.00 1.25 <
-2 11 9 -2 0.49 3.74 1.25 o
2 -11 -9 2 0.49 -2.81 1.25 <
-3 11 9 1 0.54 0.94 1.25 <
3 -11 -9 -1 0.54 -1.56 1.25 <
-2 11 9 -1 3.90 1.25 1.25 <
2 -11 -9 1 3.90 -7.18 1.56 <
-3 11 9 2 0.34 -1.25 1.25 <
3 -11 -9 -2 0.34 5.93 2.18 <
-2 11 9 0 11.99 0.94 3.43 <
2 -11 -9 0 11.99 4.68 2.18 <
-1 11 9 -2 0.16 6.24 3.43 <
1 -11 -9 2 0.16 1.56 2.18 <
2 -11 -9 -1 0.22 -6.55 2.81 <
1 -11 -9 1 2.07 -16.23 11.55 <
-5 12 9 -1 1.41 4.06 1.56 <
5 -12 -9 1 1.41 4.68 1.56 <
-6 12 9 2 0.37 0.31 1.56 <
6 -12 -9 -2 0.37 3.43 1.56 <
-5 12 9 0 6.09 6.24 1.56 o
5 -12 -9 0 6.09 4.68 1.56 <
-4 12 9 -2 0.38 3.12 1.56 <
4 -12 -9 2 0.38 1.56 1.56 <
-5 12 9 1 0.95 0.00 1.25 <
5 -12 -9 -1 0.95 0.62 1.56 <
-4 12 9 -1 0.66 0.00 1.25 <
4 -12 -9 1 0.66 3.74 1.56 <
-5 12 9 2 0.27 -1.87 1.25 <
5 -12 -9 -2 0.27 -2.81 1.56 <
-4 12 9 0 4.42 2.50 1.25 <
4 -12 -9 0 4.42 2.50 1.56 <
-3 12 9 -2 0.52 -0.31 1.25 <
3 -12 -9 2 0.52 -0.62 1.56 <
-4 12 9 1 3.47 0.62 1.25 <
4 -12 -9 -1 3.47 -0.31 1.56 <
-3 12 9 -1 0.33 2.81 1.25 <
3 -12 -9 1 0.33 -1.56 1.56 <
-4 12 9 2 0.12 -5.31 1.25 <
4 -12 -9 -2 0.12 -1.56 1.56 <
-3 12 9 0 1.00 3.74 1.25 o
3 -12 -9 0 1.00 1.87 1.56 <
-2 12 9 -2 0.42 -0.94 1.25 <
2 -12 -9 2 0.42 2.50 1.56 <
-3 12 9 1 1.10 -2.18 1.25 <
3 -12 -9 -1 1.10 2.81 1.56 <
-2 12 9 -1 1.94 1.25 1.56 <
2 -12 -9 1 1.94 5.31 3.74 <
-3 12 9 2 0.27 3.74 4.37 <
3 -12 -9 -2 0.27 6.55 2.18 <
-2 12 9 0 5.65 13.42 8.74 <
2 -12 -9 0 5.65 -0.94 2.18 <
-6 13 9 2 0.39 0.62 1.56 <
6 -13 -9 -2 0.39 -1.56 1.56 <
-5 13 9 0 3.71 1.56 1.56 <
5 -13 -9 0 3.71 -0.62 1.56 <
-4 13 9 -2 0.36 1.87 1.56 <
4 -13 -9 2 0.36 0.62 1.56 <
-5 13 9 1 0.92 -3.12 1.56 <
5 -13 -9 -1 0.92 0.62 1.56 <
-4 13 9 -1 0.63 0.62 1.56 <
4 -13 -9 1 0.63 1.25 1.56 <
-5 13 9 2 0.22 -0.94 1.56 <
5 -13 -9 -2 0.22 -3.43 1.56 <
-4 13 9 0 2.83 1.87 1.56 <
4 -13 -9 0 2.83 1.87 1.56 <
-3 13 9 -2 0.41 -0.31 1.56 <
3 -13 -9 2 0.41 0.00 1.56 <
-4 13 9 1 2.26 3.12 1.56 <
4 -13 -9 -1 2.26 -1.56 1.56 <
-3 13 9 -1 0.11 5.62 1.56 o
3 -13 -9 1 0.11 -0.94 1.56 <
-4 13 9 2 0.07 3.43 1.56 <
4 -13 -9 -2 0.07 -1.87 1.56 <
-3 13 9 0 0.87 1.56 1.56 <
3 -13 -9 0 0.87 7.80 1.56 o
-2 13 9 -2 0.36 2.18 1.56 <
2 -13 -9 2 0.36 -2.50 1.56 <
-3 13 9 1 1.38 2.18 1.56 <
3 -13 -9 -1 1.38 8.11 2.18 o
-5 14 9 0 1.97 1.56 2.18 <
5 -14 -9 0 1.97 1.87 2.50 <
-4 14 9 -2 0.29 0.00 1.56 <
4 -14 -9 2 0.29 0.31 1.56 <
-5 14 9 1 0.74 0.94 1.56 <
5 -14 -9 -1 0.74 2.18 1.56 <
-4 14 9 -1 0.45 -0.62 1.56 <
4 -14 -9 1 0.45 0.00 1.56 <
-5 14 9 2 0.23 0.62 1.56 <
5 -14 -9 -2 0.23 6.24 1.56 o
-4 14 9 0 1.67 3.74 1.56 <
4 -14 -9 0 1.67 1.25 1.56 <
-3 14 9 -2 0.36 -0.62 1.56 <
3 -14 -9 2 0.36 1.87 1.56 <
-4 14 9 1 1.26 -2.18 1.56 <
4 -14 -9 -1 1.26 5.62 1.56 o
-3 14 9 -1 0.17 0.94 1.56 <
3 -14 -9 1 0.17 -2.81 1.56 <
-4 14 9 2 0.02 0.62 1.56 <
4 -14 -9 -2 0.02 -0.31 1.56 <
3 -11 10 -1 0.35 0.62 3.74 <
2 -11 10 2 0.94 -0.31 1.87 <
-2 11 -10 -2 0.94 0.00 3.43 <
3 -11 10 0 1.29 3.43 1.87 <
-3 11 -10 0 1.29 -0.62 1.56 <
1 -10 10 2 1.00 8.11 5.62 <
2 -10 10 0 3.27 -4.06 2.50 <
3 -10 10 -2 0.04 1.56 1.56 <
-3 10 -10 2 0.04 13.11 8.43 <
2 -10 10 1 0.24 0.31 1.25 <
-2 10 -10 -1 0.24 -9.36 3.43 <
3 -10 10 -1 0.44 0.31 1.25 <
-3 10 -10 1 0.44 -0.31 1.56 <
2 -10 10 2 1.17 0.00 1.25 <
-2 10 -10 -2 1.17 3.12 1.25 <
3 -10 10 0 0.56 -0.62 0.94 <
-3 10 -10 0 0.56 0.62 0.94 <
4 -10 10 -2 0.30 0.00 0.94 <
-4 10 -10 2 0.30 -0.94 0.94 <
1 -9 10 0 3.49 7.49 5.93 <
2 -9 10 -2 1.08 -0.94 2.50 <
1 -9 10 1 4.52 3.12 1.87 <
-1 9 -10 -1 4.52 17.16 7.80 <
2 -9 10 -1 3.38 -1.25 1.56 <
-2 9 -10 1 3.38 -2.18 2.81 <
1 -9 10 2 1.05 2.81 1.25 <
-1 9 -10 -2 1.05 2.81 1.87 <
2 -9 10 0 7.62 -0.31 1.25 <
-2 9 -10 0 7.62 5.62 1.56 o
3 -9 10 -2 0.14 0.94 1.25 <
-3 9 -10 2 0.14 0.31 1.25 <
2 -9 10 1 0.40 0.62 1.25 <
-2 9 -10 -1 0.40 2.18 1.25 <
3 -9 10 -1 0.97 0.94 1.25 <
-3 9 -10 1 0.97 0.31 0.94 <
2 -9 10 2 1.27 -0.31 0.94 <
-2 9 -10 -2 1.27 -0.94 0.94 <
3 -9 10 0 0.11 -0.62 0.94 <
-3 9 -10 0 0.11 -1.25 0.62 <
4 -9 10 -2 0.25 0.94 0.94 <
-4 9 -10 2 0.25 2.81 0.62 o
1 -8 10 -2 2.00 0.62 5.62 <
0 -8 10 1 2.26 3.74 2.81 <
1 -8 10 -1 4.36 -0.31 1.87 <
-1 8 -10 1 4.36 7.18 6.24 <
0 -8 10 2 0.07 0.62 1.56 <
0 8 -10 -2 0.07 -0.62 2.81 <
1 -8 10 0 4.62 1.87 1.56 <
-1 8 -10 0 4.62 7.18 1.87 o
2 -8 10 -2 1.35 -0.94 1.56 <
-2 8 -10 2 1.35 -1.87 1.56 <
1 -8 10 1 4.10 0.31 1.25 <
-1 8 -10 -1 4.10 1.25 1.56 <
2 -8 10 -1 5.38 3.12 1.25 <
-2 8 -10 1 5.38 0.31 1.56 <
1 -8 10 2 0.93 1.56 1.25 <
-1 8 -10 -2 0.93 0.94 1.25 <
2 -8 10 0 10.76 7.80 1.25 o
-2 8 -10 0 10.76 4.37 1.25 o
3 -8 10 -2 0.30 2.81 5.31 <
-3 8 -10 2 0.30 -1.25 0.94 <
2 -8 10 1 0.62 -1.25 0.94 <
-2 8 -10 -1 0.62 -0.62 0.94 <
3 -8 10 -1 1.93 1.25 0.62 <
-3 8 -10 1 1.93 0.31 0.94 <
2 -8 10 2 1.19 1.25 0.62 <
-2 8 -10 -2 1.19 0.62 0.62 <
3 -8 10 0 0.03 0.94 0.62 <
-3 8 -10 0 0.03 0.62 0.62 <
4 -8 10 -2 0.18 1.56 0.94 <
-4 8 -10 2 0.18 1.87 0.62 o
-1 -7 10 1 0.11 -2.18 5.62 <
0 -7 10 -1 0.35 3.12 2.81 <
-1 -7 10 2 1.78 3.43 1.87 <
1 7 -10 -2 1.78 -4.37 6.55 <
0 -7 10 0 4.93 0.31 1.56 <
0 7 -10 0 4.93 -1.87 2.81 <
1 -7 10 -2 2.38 -0.31 1.56 <
-1 7 -10 2 2.38 -1.87 1.87 <
0 -7 10 1 4.08 -3.12 1.56 <
0 7 -10 -1 4.08 1.56 1.56 <
1 -7 10 -1 5.18 -1.25 1.56 <
-1 7 -10 1 5.18 0.62 1.56 <
0 -7 10 2 0.25 2.81 1.56 <
0 7 -10 -2 0.25 4.37 1.56 <
1 -7 10 0 7.77 3.12 1.56 <
-1 7 -10 0 7.77 4.06 1.56 <
2 -7 10 -2 1.50 1.56 1.25 <
-2 7 -10 2 1.50 -2.81 1.56 <
1 -7 10 1 2.73 1.87 1.25 <
-1 7 -10 -1 2.73 4.68 1.25 o
2 -7 10 -1 7.41 6.24 1.25 o
-2 7 -10 1 7.41 4.06 1.25 o
1 -7 10 2 0.69 -1.25 1.25 <
-1 7 -10 -2 0.69 -0.31 1.25 <
2 -7 10 0 14.09 -0.94 2.50 <
-2 7 -10 0 14.09 5.93 0.94 o
3 -7 10 -2 0.45 1.25 0.62 <
-3 7 -10 2 0.45 -0.31 0.94 <
2 -7 10 1 0.80 1.25 0.62 <
-2 7 -10 -1 0.80 0.31 0.94 <
3 -7 10 -1 3.01 0.00 0.62 <
-3 7 -10 1 3.01 0.62 0.62 <
2 -7 10 2 0.97 0.31 0.62 <
-2 7 -10 -2 0.97 0.62 0.62 <
3 -7 10 0 0.27 0.62 0.62 <
-3 7 -10 0 0.27 1.87 0.62 o
4 -7 10 -2 0.12 1.25 0.62 <
-4 7 -10 2 0.12 0.00 0.62 <
-2 -6 10 1 0.49 -8.11 10.61 <
-1 -6 10 -1 3.42 -2.50 4.68 <
-2 -6 10 2 1.45 -2.18 2.81 <
-1 -6 10 0 18.91 2.81 1.87 <
1 6 -10 0 18.91 -41.19 6.24 <
0 -6 10 -2 0.26 3.12 1.87 <
0 6 -10 2 0.26 2.50 2.81 <
-1 -6 10 1 0.02 1.87 1.87 <
1 6 -10 -1 0.02 2.18 1.87 <
0 -6 10 -1 1.27 1.56 1.87 <
0 6 -10 1 1.27 1.56 1.87 <
-1 -6 10 2 2.32 -5.31 1.56 <
1 6 -10 -2 2.32 0.62 1.87 <
0 -6 10 0 4.73 1.87 1.56 <
0 6 -10 0 4.73 0.94 1.87 <
1 -6 10 -2 2.54 1.25 1.56 <
-1 6 -10 2 2.54 1.56 1.56 <
0 -6 10 1 6.99 1.25 1.56 <
0 6 -10 -1 6.99 -1.56 1.56 <
1 -6 10 -1 4.94 6.24 1.56 o
-1 6 -10 1 4.94 -4.99 1.56 <
0 -6 10 2 0.54 1.87 1.25 <
0 6 -10 -2 0.54 0.94 1.56 <
1 -6 10 0 10.27 -0.62 1.25 <
-1 6 -10 0 10.27 2.18 1.25 <
2 -6 10 -2 1.52 -2.50 1.25 <
-2 6 -10 2 1.52 -1.25 1.25 <
1 -6 10 1 1.04 0.31 1.25 <
-1 6 -10 -1 1.04 1.87 1.25 <
2 -6 10 -1 8.58 9.05 1.25 o
-2 6 -10 1 8.58 7.80 1.25 o
1 -6 10 2 0.46 2.50 1.25 <
-1 6 -10 -2 0.46 0.62 0.62 <
2 -6 10 0 17.30 6.87 0.62 o
-2 6 -10 0 17.30 11.86 0.62 o
3 -6 10 -2 0.52 0.00 0.62 <
-3 6 -10 2 0.52 -0.31 0.62 <
2 -6 10 1 0.85 0.94 0.62 <
-2 6 -10 -1 0.85 1.87 0.62 o
3 -6 10 -1 3.76 -0.62 0.62 <
-3 6 -10 1 3.76 -0.31 0.94 <
2 -6 10 2 0.72 4.37 0.62 o
-2 6 -10 -2 0.72 0.62 0.94 <
3 -6 10 0 0.58 2.50 0.94 <
-3 6 -10 0 0.58 0.62 0.94 <
-2 -5 10 -1 2.62 6.24 6.87 <
2 5 -10 1 2.62 -1.25 2.50 <
-3 -5 10 2 0.14 3.12 3.74 <
3 5 -10 -2 0.14 4.37 2.81 <
-2 -5 10 0 1.24 0.94 2.50 <
2 5 -10 0 1.24 4.37 3.74 <
-1 -5 10 -2 0.14 -1.87 2.18 <
1 5 -10 2 0.14 2.50 4.37 <
-2 -5 10 1 0.44 -2.50 1.87 <
2 5 -10 -1 0.44 -1.25 5.62 <
-1 -5 10 -1 5.63 -0.62 1.87 <
1 5 -10 1 5.63 0.31 2.18 <
-2 -5 10 2 1.67 0.94 1.87 <
2 5 -10 -2 1.67 0.94 1.87 <
-1 -5 10 0 27.13 1.87 1.87 <
1 5 -10 0 27.13 6.24 1.87 o
0 -5 10 -2 0.62 -0.62 1.87 <
0 5 -10 2 0.62 0.00 1.87 <
-1 -5 10 1 0.48 1.56 1.56 <
1 5 -10 -1 0.48 -1.87 1.87 <
0 -5 10 -1 3.11 3.12 1.56 <
0 5 -10 1 3.11 -3.12 1.87 <
-1 -5 10 2 2.66 -3.74 1.56 <
1 5 -10 -2 2.66 -1.87 1.87 <
0 -5 10 0 14.54 2.18 1.56 <
0 5 -10 0 14.54 4.68 1.56 <
1 -5 10 -2 2.48 0.62 1.56 <
-1 5 -10 2 2.48 -1.87 1.56 <
0 -5 10 1 10.66 6.55 1.56 o
0 5 -10 -1 10.66 0.62 1.56 <
1 -5 10 -1 3.59 0.94 1.25 <
-1 5 -10 1 3.59 0.00 1.56 <
0 -5 10 2 0.79 -0.31 1.25 <
0 5 -10 -2 0.79 -1.87 1.25 <
1 -5 10 0 9.88 -0.31 1.25 <
-1 5 -10 0 9.88 4.06 1.25 o
2 -5 10 -2 1.53 2.50 1.25 <
-2 5 -10 2 1.53 1.25 1.25 <
1 -5 10 1 0.24 -0.31 1.25 <
-1 5 -10 -1 0.24 -3.12 4.37 <
2 -5 10 -1 8.17 6.24 0.94 o
-2 5 -10 1 8.17 5.31 0.62 o
1 -5 10 2 0.36 0.62 0.62 <
-1 5 -10 -2 0.36 0.62 0.62 <
2 -5 10 0 21.21 8.74 0.62 o
-2 5 -10 0 21.21 9.67 0.62 o
3 -5 10 -2 0.48 0.31 0.62 <
-3 5 -10 2 0.48 1.56 0.62 <
2 -5 10 1 0.74 2.50 0.62 o
-2 5 -10 -1 0.74 1.87 0.62 o
3 -5 10 -1 3.85 0.62 0.94 <
-3 5 -10 1 3.85 1.56 0.94 <
2 -5 10 2 0.50 -0.62 0.94 <
-2 5 -10 -2 0.50 1.25 0.94 <
3 -5 10 0 0.72 3.43 0.94 o
-3 5 -10 0 0.72 3.74 0.94 o
-3 -4 10 1 1.45 0.00 1.56 <
3 4 -10 -1 1.45 7.80 4.37 <
-2 -4 10 -1 2.93 1.87 1.56 <
2 4 -10 1 2.93 1.25 2.18 <
-3 -4 10 2 0.29 0.62 1.56 <
3 4 -10 -2 0.29 -0.94 1.56 <
-2 -4 10 0 1.34 0.62 1.56 <
2 4 -10 0 1.34 0.94 1.56 <
-1 -4 10 -2 0.22 3.43 1.56 <
1 4 -10 2 0.22 5.31 1.25 o
-2 -4 10 1 0.57 2.81 1.87 <
2 4 -10 -1 0.57 -1.87 1.25 <
-1 -4 10 -1 7.60 2.18 2.50 <
1 4 -10 1 7.60 -0.62 1.25 <
-2 -4 10 2 2.09 1.56 3.12 <
2 4 -10 -2 2.09 -1.25 1.56 <
-1 -4 10 0 32.53 11.23 1.87 o
1 4 -10 0 32.53 4.99 1.56 o
0 -4 10 -2 1.20 4.68 1.56 <
0 4 -10 2 1.20 3.43 2.18 <
-1 -4 10 1 1.64 4.06 1.56 <
1 4 -10 -1 1.64 -1.56 3.43 <
0 -4 10 -1 5.56 4.06 1.56 <
0 4 -10 1 5.56 8.11 1.56 o
-1 -4 10 2 2.79 4.99 1.56 o
1 4 -10 -2 2.79 -1.25 1.56 <
0 -4 10 0 17.69 11.86 1.56 o
0 4 -10 0 17.69 9.36 1.56 o
1 -4 10 -2 2.38 1.87 1.25 <
-1 4 -10 2 2.38 1.25 1.56 <
0 -4 10 1 13.79 12.79 1.56 o
0 4 -10 -1 13.79 15.60 1.56 o
1 -4 10 -1 1.75 1.25 1.25 <
-1 4 -10 1 1.75 2.50 1.25 <
0 -4 10 2 0.84 1.87 1.25 <
0 4 -10 -2 0.84 4.99 1.25 o
1 -4 10 0 6.99 5.31 1.25 o
-1 4 -10 0 6.99 5.31 1.25 o
2 -4 10 -2 1.63 4.06 1.25 o
-2 4 -10 2 1.63 1.87 1.56 <
1 -4 10 1 1.24 -0.31 0.62 <
-1 4 -10 -1 1.24 0.94 0.62 <
2 -4 10 -1 6.26 8.74 0.62 o
-2 4 -10 1 6.26 7.18 0.62 o
1 -4 10 2 0.38 0.31 0.62 <
-1 4 -10 -2 0.38 0.00 0.62 <
2 -4 10 0 17.01 6.87 0.62 o
-2 4 -10 0 17.01 5.93 0.62 o
3 -4 10 -2 0.35 1.56 0.62 <
-3 4 -10 2 0.35 1.25 0.62 <
2 -4 10 1 0.55 0.62 0.94 <
-2 4 -10 -1 0.55 -1.25 0.62 <
3 -4 10 -1 3.27 1.25 0.94 <
-3 4 -10 1 3.27 1.25 0.94 <
2 -4 10 2 0.39 4.06 0.94 o
-2 4 -10 -2 0.39 1.25 0.94 <
-3 -3 10 0 3.67 -0.62 1.56 <
3 3 -10 0 3.67 -3.12 1.87 <
-2 -3 10 -2 0.35 0.62 1.56 <
2 3 -10 2 0.35 0.00 1.56 <
-3 -3 10 1 2.15 0.00 1.25 <
3 3 -10 -1 2.15 0.00 1.56 <
-2 -3 10 -1 2.69 0.94 1.25 <
2 3 -10 1 2.69 2.81 1.56 <
-3 -3 10 2 0.60 -1.87 1.25 <
3 3 -10 -2 0.60 -1.87 1.25 <
-2 -3 10 0 0.26 1.87 1.25 <
2 3 -10 0 0.26 4.37 1.25 o
-1 -3 10 -2 0.34 0.62 1.25 <
1 3 -10 2 0.34 -0.31 1.25 <
-2 -3 10 1 1.41 2.50 1.25 <
2 3 -10 -1 1.41 -0.62 1.25 <
-1 -3 10 -1 8.46 4.37 1.25 o
1 3 -10 1 8.46 5.31 1.25 o
-2 -3 10 2 2.95 -1.25 1.25 <
2 3 -10 -2 2.95 -1.87 1.25 <
-1 -3 10 0 55.27 42.75 1.25 o
1 3 -10 0 55.27 34.01 1.25 o
0 -3 10 -2 1.85 1.25 1.25 <
0 3 -10 2 1.85 0.62 1.25 <
-1 -3 10 1 3.24 0.94 1.25 <
1 3 -10 -1 3.24 1.25 0.94 <
0 -3 10 -1 7.58 0.62 1.25 <
0 3 -10 1 7.58 -1.56 0.94 <
-1 -3 10 2 2.96 2.81 1.25 <
1 3 -10 -2 2.96 0.62 0.94 <
0 -3 10 0 11.66 8.11 1.56 o
0 3 -10 0 11.66 7.80 0.94 o
1 -3 10 -2 2.49 0.00 2.18 <
-1 3 -10 2 2.49 0.31 0.94 <
0 -3 10 1 14.66 5.93 4.06 <
0 3 -10 -1 14.66 9.99 1.25 o
1 -3 10 -1 0.37 -0.94 1.25 <
-1 3 -10 1 0.37 -0.31 1.25 <
0 -3 10 2 0.65 4.68 1.25 o
0 3 -10 -2 0.65 5.62 1.87 <
1 -3 10 0 8.94 -0.94 1.25 <
-1 3 -10 0 8.94 1.56 0.94 <
2 -3 10 -2 1.83 2.50 0.62 o
-2 3 -10 2 1.83 1.87 0.62 o
1 -3 10 1 3.69 1.87 0.62 o
-1 3 -10 -1 3.69 3.12 0.62 o
2 -3 10 -1 3.85 1.87 0.62 o
-2 3 -10 1 3.85 0.62 0.62 <
1 -3 10 2 0.44 0.62 0.62 <
-1 3 -10 -2 0.44 1.56 0.62 <
2 -3 10 0 11.61 -2.81 0.62 <
-2 3 -10 0 11.61 0.94 0.62 <
3 -3 10 -2 0.20 1.25 0.94 <
-3 3 -10 2 0.20 0.00 0.94 <
2 -3 10 1 0.36 4.37 0.94 o
-2 3 -10 -1 0.36 0.94 0.94 <
3 -3 10 -1 2.31 0.94 1.56 <
-3 3 -10 1 2.31 3.43 0.94 o
-4 -2 10 2 0.04 1.87 1.56 <
4 2 -10 -2 0.04 -0.31 1.56 <
-3 -2 10 0 4.58 0.62 1.56 <
3 2 -10 0 4.58 4.37 1.56 <
-2 -2 10 -2 0.50 -2.18 1.25 <
2 2 -10 2 0.50 1.25 1.56 <
-3 -2 10 1 2.95 0.31 1.25 <
3 2 -10 -1 2.95 -0.94 1.25 <
-2 -2 10 -1 2.06 4.99 1.25 o
2 2 -10 1 2.06 2.18 1.25 <
-3 -2 10 2 1.05 -0.62 1.25 <
3 2 -10 -2 1.05 -0.31 1.25 <
-2 -2 10 0 0.02 -0.31 1.25 <
2 2 -10 0 0.02 -1.87 1.25 <
-1 -2 10 -2 0.54 1.56 1.25 <
1 2 -10 2 0.54 1.87 1.25 <
-2 -2 10 1 3.56 0.94 1.25 <
2 2 -10 -1 3.56 0.31 1.25 <
-1 -2 10 -1 8.10 24.03 1.25 o
1 2 -10 1 8.10 27.15 1.25 o
-2 -2 10 2 4.35 3.12 1.25 <
2 2 -10 -2 4.35 0.00 1.25 <
-1 -2 10 0 37.07 45.87 1.25 o
1 2 -10 0 37.07 49.62 1.25 o
0 -2 10 -2 2.26 0.62 0.94 <
0 2 -10 2 2.26 1.25 0.94 <
-1 -2 10 1 4.56 1.56 0.94 <
1 2 -10 -1 4.56 2.50 0.94 <
0 -2 10 -1 7.87 0.94 0.94 <
0 2 -10 1 7.87 2.18 0.94 <
-1 -2 10 2 3.60 2.18 0.62 o
1 2 -10 -2 3.60 1.87 0.94 <
0 -2 10 0 6.59 23.72 0.94 o
0 2 -10 0 6.59 21.53 0.94 o
1 -2 10 -2 2.93 0.00 0.62 <
-1 2 -10 2 2.93 0.94 0.62 <
0 -2 10 1 12.51 8.74 0.62 o
0 2 -10 -1 12.51 11.86 0.62 o
1 -2 10 -1 0.02 0.00 0.62 <
-1 2 -10 1 0.02 0.00 0.62 <
0 -2 10 2 0.35 1.87 0.62 o
0 2 -10 -2 0.35 2.81 0.62 o
1 -2 10 0 2.65 -0.31 0.62 <
-1 2 -10 0 2.65 2.18 1.25 <
2 -2 10 -2 2.03 1.25 0.62 <
-2 2 -10 2 2.03 0.94 1.25 <
1 -2 10 1 6.14 0.62 0.62 <
-1 2 -10 -1 6.14 -0.62 0.94 <
2 -2 10 -1 2.03 3.74 0.62 o
-2 2 -10 1 2.03 0.62 0.94 <
1 -2 10 2 0.45 1.25 0.62 <
-1 2 -10 -2 0.45 -1.56 0.94 <
2 -2 10 0 6.29 4.06 0.94 o
-2 2 -10 0 6.29 2.50 0.94 <
3 -2 10 -2 0.09 0.00 0.94 <
-3 2 -10 2 0.09 5.62 0.94 o
2 -2 10 1 0.22 1.87 3.43 <
-2 2 -10 -1 0.22 -1.56 0.94 <
-4 -1 10 1 2.00 -1.56 1.56 <
4 1 -10 -1 2.00 2.50 1.56 <
-3 -1 10 -1 0.25 2.18 1.56 <
3 1 -10 1 0.25 -1.56 1.56 <
-4 -1 10 2 0.04 0.94 1.56 <
4 1 -10 -2 0.04 0.00 1.56 <
-3 -1 10 0 4.32 1.87 1.25 <
3 1 -10 0 4.32 2.81 1.56 <
-2 -1 10 -2 0.86 -2.81 1.25 <
2 1 -10 2 0.86 1.87 1.25 <
-3 -1 10 1 3.68 3.43 1.25 <
3 1 -10 -1 3.68 0.31 1.25 <
-2 -1 10 -1 1.75 -1.56 1.25 <
2 1 -10 1 1.75 -5.31 1.25 <
-3 -1 10 2 1.48 -1.25 1.25 <
3 1 -10 -2 1.48 1.87 1.25 <
-2 -1 10 0 0.02 -1.56 1.25 <
2 1 -10 0 0.02 1.25 1.25 <
-1 -1 10 -2 0.89 4.99 1.25 o
1 1 -10 2 0.89 -1.56 1.25 <
-2 -1 10 1 7.39 10.30 1.25 o
2 1 -10 -1 7.39 0.94 1.25 <
-1 -1 10 -1 7.65 11.55 1.25 o
1 1 -10 1 7.65 11.23 1.25 o
-2 -1 10 2 5.89 -0.62 0.94 <
2 1 -10 -2 5.89 1.56 0.94 <
-1 -1 10 0 31.87 15.60 0.94 o
1 1 -10 0 31.87 17.79 0.94 o
0 -1 10 -2 2.14 1.25 0.94 <
0 1 -10 2 2.14 0.31 0.94 <
-1 -1 10 1 4.86 0.62 0.94 <
1 1 -10 -1 4.86 0.31 0.94 <
0 -1 10 -1 6.07 3.12 0.62 o
0 1 -10 1 6.07 5.62 0.94 o
-1 -1 10 2 4.80 0.62 0.62 <
1 1 -10 -2 4.80 0.94 0.62 <
0 -1 10 0 5.97 15.92 0.62 o
0 1 -10 0 5.97 19.35 0.94 o
1 -1 10 -2 3.41 7.18 0.62 o
-1 1 -10 2 3.41 10.61 0.62 o
0 -1 10 1 8.43 31.21 0.94 o
0 1 -10 -1 8.43 31.21 0.94 o
1 -1 10 -1 0.52 2.18 0.62 o
-1 1 -10 1 0.52 2.18 0.62 o
0 -1 10 2 0.15 37.14 4.37 o
0 1 -10 -2 0.15 1.87 1.25 <
1 -1 10 0 2.45 -0.62 1.25 <
-1 1 -10 0 2.45 -0.62 1.25 <
2 -1 10 -2 2.08 4.06 1.25 o
-2 1 -10 2 2.08 1.25 1.56 <
1 -1 10 1 7.28 0.94 1.25 <
-1 1 -10 -1 7.28 -0.31 1.56 <
2 -1 10 -1 1.24 -3.74 2.50 <
-2 1 -10 1 1.24 -0.94 1.56 <
1 -1 10 2 0.38 -1.87 1.56 <
-1 1 -10 -2 0.38 -3.12 1.56 <
2 -1 10 0 3.36 -0.94 1.56 <
-2 1 -10 0 3.36 3.12 1.56 <
3 -1 10 -2 0.05 -1.87 1.87 <
-3 1 -10 2 0.05 7.18 2.18 o
-3 0 10 -2 0.70 -4.68 1.56 <
3 0 -10 2 0.70 2.81 1.56 <
-4 0 10 1 2.94 -1.25 1.56 <
4 0 -10 -1 2.94 0.00 1.56 <
-3 0 10 -1 0.63 0.31 1.25 <
3 0 -10 1 0.63 -3.74 1.56 <
-4 0 10 2 0.10 -0.62 1.25 <
4 0 -10 -2 0.10 0.62 1.25 <
-3 0 10 0 3.91 1.25 1.25 <
3 0 -10 0 3.91 1.25 1.25 <
-2 0 10 -2 1.49 4.99 1.25 o
2 0 -10 2 1.49 2.50 1.25 <
-3 0 10 1 4.14 0.62 1.25 <
3 0 -10 -1 4.14 -3.12 1.25 <
-2 0 10 -1 2.71 1.25 1.25 <
2 0 -10 1 2.71 0.62 1.25 <
-3 0 10 2 1.66 -0.94 1.25 <
3 0 -10 -2 1.66 -0.94 1.25 <
-2 0 10 0 0.36 2.50 1.25 <
2 0 -10 0 0.36 6.24 1.25 o
-1 0 10 -2 1.44 0.62 1.25 <
1 0 -10 2 1.44 2.81 1.25 <
-2 0 10 1 12.44 8.11 1.25 o
2 0 -10 -1 12.44 3.74 1.25 o
-1 0 10 -1 8.48 8.43 0.94 o
1 0 -10 1 8.48 10.61 0.94 o
-2 0 10 2 6.94 4.68 0.94 o
2 0 -10 -2 6.94 2.81 0.94 <
-1 0 10 0 20.24 5.93 0.94 o
1 0 -10 0 20.24 3.12 0.94 o
0 0 10 -2 1.50 0.62 0.94 <
0 0 -10 2 1.50 1.25 0.62 <
-1 0 10 1 4.02 2.18 0.62 o
1 0 -10 -1 4.02 1.87 0.62 o
0 0 10 -1 3.27 4.06 0.62 o
0 0 -10 1 3.27 7.80 0.62 o
-1 0 10 2 6.03 2.81 0.62 o
1 0 -10 -2 6.03 3.12 0.94 o
0 0 10 0 5.96 39.94 0.94 o
0 0 -10 0 5.96 39.32 0.94 o
1 0 10 -2 3.50 5.62 0.62 o
-1 0 -10 2 3.50 4.37 0.94 o
0 0 10 1 4.37 1.25 0.94 <
0 0 -10 -1 4.37 3.12 1.25 <
1 0 10 -1 1.17 -1.25 1.25 <
-1 0 -10 1 1.17 0.62 1.56 <
0 0 10 2 0.13 0.00 1.25 <
0 0 -10 -2 0.13 1.87 1.56 <
1 0 10 0 4.44 -0.62 1.56 <
-1 0 -10 0 4.44 -2.81 1.56 <
2 0 10 -2 1.91 1.25 1.56 <
-2 0 -10 2 1.91 3.12 1.56 <
1 0 10 1 6.84 -3.12 1.56 <
-1 0 -10 -1 6.84 4.37 1.56 <
2 0 10 -1 1.18 0.31 1.87 <
-2 0 -10 1 1.18 4.68 1.56 <
1 0 10 2 0.25 2.50 6.24 <
-1 0 -10 -2 0.25 2.81 1.87 <
-2 0 -10 0 1.67 -1.25 3.74 <
-4 1 10 0 1.76 3.12 1.56 <
4 -1 -10 0 1.76 -4.06 1.56 <
-3 1 10 -2 0.83 1.87 1.56 <
3 -1 -10 2 0.83 2.81 1.56 <
-4 1 10 1 3.67 -0.31 1.25 <
4 -1 -10 -1 3.67 0.31 1.56 <
-3 1 10 -1 1.06 0.00 1.25 <
3 -1 -10 1 1.06 1.87 1.25 <
-4 1 10 2 0.28 4.68 1.25 o
4 -1 -10 -2 0.28 -1.87 1.25 <
-3 1 10 0 2.75 2.18 1.25 <
3 -1 -10 0 2.75 -1.87 1.25 <
-2 1 10 -2 2.31 2.18 1.25 <
2 -1 -10 2 2.31 2.81 1.25 <
-3 1 10 1 4.12 4.68 1.25 o
3 -1 -10 -1 4.12 -0.94 1.25 <
-2 1 10 -1 5.45 4.68 1.25 o
2 -1 -10 1 5.45 9.36 1.25 o
-3 1 10 2 1.49 1.87 1.25 <
3 -1 -10 -2 1.49 1.56 1.25 <
-2 1 10 0 11.71 13.11 1.25 o
2 -1 -10 0 11.71 10.92 1.25 o
-1 1 10 -2 2.17 1.87 0.94 <
1 -1 -10 2 2.17 -0.62 1.25 <
-2 1 10 1 17.13 5.62 0.94 o
2 -1 -10 -1 17.13 3.43 0.94 o
-1 1 10 -1 10.72 2.50 0.94 <
1 -1 -10 1 10.72 2.50 0.94 <
-2 1 10 2 7.12 4.68 0.94 o
2 -1 -10 -2 7.12 2.81 0.94 <
-1 1 10 0 12.73 3.74 0.94 o
1 -1 -10 0 12.73 4.37 0.94 o
0 1 10 -2 0.70 1.87 0.62 o
0 -1 -10 2 0.70 0.94 0.94 <
-1 1 10 1 2.61 3.74 0.94 o
1 -1 -10 -1 2.61 5.62 0.94 o
0 1 10 -1 1.15 2.81 0.62 o
0 -1 -10 1 1.15 6.87 0.94 o
-1 1 10 2 6.56 8.11 0.94 o
1 -1 -10 -2 6.56 6.24 0.94 o
0 1 10 0 3.12 1.87 0.94 <
0 -1 -10 0 3.12 2.50 0.94 <
1 1 10 -2 3.04 0.62 0.94 <
-1 -1 -10 2 3.04 2.50 1.56 <
0 1 10 1 1.65 0.62 1.56 <
0 -1 -10 -1 1.65 -0.31 1.56 <
1 1 10 -1 1.44 4.37 1.56 <
-1 -1 -10 1 1.44 2.50 1.56 <
0 1 10 2 0.24 -2.18 1.56 <
0 -1 -10 -2 0.24 0.62 1.56 <
1 1 10 0 3.09 8.11 1.56 o
-1 -1 -10 0 3.09 0.94 1.56 <
2 1 10 -2 1.56 -1.25 1.56 <
-2 -1 -10 2 1.56 -3.43 1.56 <
1 1 10 1 5.35 3.12 2.50 <
-1 -1 -10 -1 5.35 -0.31 1.87 <
-2 -1 -10 1 1.33 -4.06 2.50 <
-1 -1 -10 -2 0.14 7.18 9.67 <
-5 2 10 2 0.83 -0.94 1.56 <
5 -2 -10 -2 0.83 0.62 1.56 <
-4 2 10 0 3.15 -3.12 1.56 <
4 -2 -10 0 3.15 0.62 1.56 <
-3 2 10 -2 0.84 0.31 1.25 <
3 -2 -10 2 0.84 -2.50 1.56 <
-4 2 10 1 3.87 -0.62 1.25 <
4 -2 -10 -1 3.87 -0.31 1.25 <
-3 2 10 -1 1.33 2.50 1.25 <
3 -2 -10 1 1.33 2.18 1.25 <
-4 2 10 2 0.63 6.24 1.25 o
4 -2 -10 -2 0.63 -1.87 1.25 <
-3 2 10 0 2.04 1.25 1.25 <
3 -2 -10 0 2.04 3.43 1.25 <
-2 2 10 -2 3.13 6.24 1.25 o
2 -2 -10 2 3.13 1.56 1.25 <
-3 2 10 1 3.67 -2.18 1.25 <
3 -2 -10 -1 3.67 5.62 1.25 o
-2 2 10 -1 9.51 24.65 1.25 o
2 -2 -10 1 9.51 21.22 1.25 o
-3 2 10 2 1.04 2.81 1.25 <
3 -2 -10 -2 1.04 -0.31 1.25 <
-2 2 10 0 9.07 17.79 1.25 o
2 -2 -10 0 9.07 17.79 1.25 o
-1 2 10 -2 2.83 -0.31 0.94 <
1 -2 -10 2 2.83 0.94 0.94 <
-2 2 10 1 19.24 13.73 0.94 o
2 -2 -10 -1 19.24 13.73 0.94 o
-1 2 10 -1 13.08 4.68 0.94 o
1 -2 -10 1 13.08 2.81 0.94 <
-2 2 10 2 6.54 3.12 0.94 o
2 -2 -10 -2 6.54 4.68 0.94 o
-1 2 10 0 23.27 17.79 0.94 o
1 -2 -10 0 23.27 20.91 0.94 o
0 2 10 -2 0.16 4.06 0.94 o
0 -2 -10 2 0.16 2.50 0.94 <
-1 2 10 1 1.39 13.11 0.94 o
1 -2 -10 -1 1.39 9.99 0.94 o
0 2 10 -1 0.69 5.93 0.94 o
0 -2 -10 1 0.69 7.18 0.94 o
-1 2 10 2 6.11 2.81 0.94 <
1 -2 -10 -2 6.11 2.18 0.94 <
0 2 10 0 1.00 -0.62 1.25 <
0 -2 -10 0 1.00 4.37 3.12 <
1 2 10 -2 2.25 3.12 1.56 <
-1 -2 -10 2 2.25 2.50 1.56 <
0 2 10 1 0.45 1.25 1.56 <
0 -2 -10 -1 0.45 -0.31 1.56 <
1 2 10 -1 1.24 2.18 1.56 <
-1 -2 -10 1 1.24 -4.99 1.56 <
0 2 10 2 0.40 2.81 1.56 <
0 -2 -10 -2 0.40 -11.23 1.87 <
1 2 10 0 4.40 8.11 1.87 o
-1 -2 -10 0 4.40 1.25 1.87 <
2 2 10 -2 1.14 -3.43 7.49 <
-2 -2 -10 2 1.14 1.25 1.87 <
-1 -2 -10 -1 3.55 -1.87 4.06 <
-4 3 10 -1 0.18 0.94 1.56 <
4 -3 -10 1 0.18 3.74 1.56 <
-5 3 10 2 1.20 6.24 1.25 o
5 -3 -10 -2 1.20 3.12 1.56 <
-4 3 10 0 5.81 2.18 1.25 <
4 -3 -10 0 5.81 2.18 1.56 <
-3 3 10 -2 0.73 -0.62 1.25 <
3 -3 -10 2 0.73 -0.94 1.25 <
-4 3 10 1 3.35 0.31 1.25 <
4 -3 -10 -1 3.35 -1.87 1.25 <
-3 3 10 -1 1.27 2.50 1.25 <
3 -3 -10 1 1.27 3.12 1.25 <
-4 3 10 2 1.11 -0.62 1.25 <
4 -3 -10 -2 1.11 -0.62 1.25 <
-3 3 10 0 1.05 3.12 1.25 <
3 -3 -10 0 1.05 6.55 1.25 o
-2 3 10 -2 3.73 1.25 1.25 <
2 -3 -10 2 3.73 -0.62 1.25 <
-3 3 10 1 3.26 2.50 1.25 <
3 -3 -10 -1 3.26 -0.62 1.25 <
-2 3 10 -1 13.47 34.01 1.25 o
2 -3 -10 1 13.47 36.20 1.25 o
-3 3 10 2 0.52 2.50 1.25 <
3 -3 -10 -2 0.52 -1.87 1.25 <
-2 3 10 0 14.64 28.40 1.25 o
2 -3 -10 0 14.64 25.59 1.25 o
-1 3 10 -2 3.12 -2.81 0.94 <
1 -3 -10 2 3.12 -0.94 0.94 <
-2 3 10 1 17.43 13.11 0.94 o
2 -3 -10 -1 17.43 13.73 0.94 o
-1 3 10 -1 14.47 14.35 0.94 o
1 -3 -10 1 14.47 19.66 0.94 o
-2 3 10 2 5.49 3.74 0.94 o
2 -3 -10 -2 5.49 1.87 0.94 <
-1 3 10 0 22.82 34.64 1.25 o
1 -3 -10 0 22.82 34.95 1.25 o
0 3 10 -2 0.02 3.12 0.94 o
0 -3 -10 2 0.02 1.87 0.94 <
-1 3 10 1 0.69 0.00 0.94 <
1 -3 -10 -1 0.69 2.50 0.94 <
0 3 10 -1 1.67 1.56 0.94 <
0 -3 -10 1 1.67 0.31 0.94 <
-1 3 10 2 4.95 -1.87 1.56 <
1 -3 -10 -2 4.95 5.62 1.56 o
0 3 10 0 0.47 -5.93 1.56 <
0 -3 -10 0 0.47 -5.62 1.56 <
1 3 10 -2 1.47 6.24 1.56 o
-1 -3 -10 2 1.47 6.87 1.87 o
0 3 10 1 0.30 5.62 1.56 o
0 -3 -10 -1 0.30 0.00 1.87 <
1 3 10 -1 0.80 1.25 1.87 <
-1 -3 -10 1 0.80 -7.49 1.87 <
0 3 10 2 0.49 -1.25 2.50 <
0 -3 -10 -2 0.49 -13.42 1.87 <
-1 -3 -10 0 4.59 4.37 2.50 <
-5 4 10 1 0.52 3.74 1.56 <
5 -4 -10 -1 0.52 0.62 1.56 <
-4 4 10 -1 0.54 3.12 1.56 <
4 -4 -10 1 0.54 3.12 1.56 <
-5 4 10 2 1.52 0.31 1.25 <
5 -4 -10 -2 1.52 -2.50 1.56 <
-4 4 10 0 10.02 4.06 1.25 o
4 -4 -10 0 10.02 6.55 1.56 o
-3 4 10 -2 0.56 1.25 1.25 <
3 -4 -10 2 0.56 3.12 1.56 <
-4 4 10 1 2.29 4.99 1.25 o
4 -4 -10 -1 2.29 0.94 1.25 <
-3 4 10 -1 0.96 5.62 1.25 o
3 -4 -10 1 0.96 6.55 1.25 o
-4 4 10 2 1.59 0.62 1.25 <
4 -4 -10 -2 1.59 0.31 1.25 <
-3 4 10 0 6.08 8.11 1.25 o
3 -4 -10 0 6.08 10.61 1.25 o
-2 4 10 -2 4.01 2.50 1.25 <
2 -4 -10 2 4.01 1.25 1.25 <
-3 4 10 1 3.79 1.25 1.25 <
3 -4 -10 -1 3.79 2.18 1.25 <
-2 4 10 -1 15.63 51.18 1.25 o
2 -4 -10 1 15.63 44.94 1.25 o
-3 4 10 2 0.14 -1.56 0.94 <
3 -4 -10 -2 0.14 -0.62 1.25 <
-2 4 10 0 29.76 56.17 1.25 o
2 -4 -10 0 29.76 51.80 1.25 o
-1 4 10 -2 2.92 0.62 0.94 <
1 -4 -10 2 2.92 1.56 0.94 <
-2 4 10 1 12.40 11.86 0.94 o
2 -4 -10 -1 12.40 15.29 1.25 o
-1 4 10 -1 14.70 18.10 0.94 o
1 -4 -10 1 14.70 14.67 0.94 o
-2 4 10 2 4.17 2.50 0.94 <
2 -4 -10 -2 4.17 2.81 0.94 <
-1 4 10 0 48.47 54.92 1.25 o
1 -4 -10 0 48.47 57.73 1.25 o
0 4 10 -2 0.14 -0.31 0.94 <
0 -4 -10 2 0.14 2.18 0.94 <
-1 4 10 1 0.40 -3.43 0.94 <
1 -4 -10 -1 0.40 -0.94 0.94 <
0 4 10 -1 3.13 4.68 2.18 <
0 -4 -10 1 3.13 4.06 1.87 <
-1 4 10 2 3.53 -0.31 1.56 <
1 -4 -10 -2 3.53 7.80 1.87 o
0 4 10 0 0.70 1.25 1.56 <
0 -4 -10 0 0.70 -0.94 1.87 <
1 4 10 -2 0.88 -6.55 1.87 <
-1 -4 -10 2 0.88 1.56 1.87 <
0 4 10 1 0.62 7.18 1.87 o
0 -4 -10 -1 0.62 0.94 1.87 <
1 4 10 -1 0.39 -1.87 7.49 <
-1 -4 -10 1 0.39 -2.50 1.87 <
0 -4 -10 -2 0.50 3.12 4.37 <
-4 5 10 -2 0.05 0.94 1.56 <
4 -5 -10 2 0.05 0.94 1.56 <
-5 5 10 1 0.79 0.62 1.56 <
5 -5 -10 -1 0.79 3.74 1.56 <
-4 5 10 -1 1.26 -2.81 1.25 <
4 -5 -10 1 1.26 3.12 1.56 <
-5 5 10 2 1.69 -1.25 1.25 <
5 -5 -10 -2 1.69 0.62 1.25 <
-4 5 10 0 15.02 10.92 1.25 o
4 -5 -10 0 15.02 15.60 1.56 o
-3 5 10 -2 0.43 1.25 1.25 <
3 -5 -10 2 0.43 -3.12 1.25 <
-4 5 10 1 1.21 1.87 1.25 <
4 -5 -10 -1 1.21 1.87 1.25 <
-3 5 10 -1 0.65 1.25 1.25 <
3 -5 -10 1 0.65 4.37 1.25 o
-4 5 10 2 1.92 1.56 1.25 <
4 -5 -10 -2 1.92 4.68 1.25 o
-3 5 10 0 4.61 9.99 1.25 o
3 -5 -10 0 4.61 4.37 1.25 o
-2 5 10 -2 3.97 1.56 1.25 <
2 -5 -10 2 3.97 0.31 1.25 <
-3 5 10 1 5.83 0.94 1.25 <
3 -5 -10 -1 5.83 0.94 1.25 <
-2 5 10 -1 14.91 25.28 1.25 o
2 -5 -10 1 14.91 24.65 1.25 o
-3 5 10 2 0.01 1.87 1.25 <
3 -5 -10 -2 0.01 3.43 1.25 <
-2 5 10 0 21.66 13.11 1.25 o
2 -5 -10 0 21.66 18.41 1.25 o
-1 5 10 -2 2.37 0.31 0.94 <
1 -5 -10 2 2.37 0.00 0.94 <
-2 5 10 1 6.57 0.62 0.94 <
2 -5 -10 -1 6.57 3.12 0.94 o
-1 5 10 -1 13.86 5.31 1.25 o
1 -5 -10 1 13.86 10.61 1.25 o
-2 5 10 2 2.80 0.62 0.94 <
2 -5 -10 -2 2.80 -0.62 1.25 <
-1 5 10 0 30.55 8.43 1.25 o
1 -5 -10 0 30.55 4.37 1.25 o
0 5 10 -2 0.30 2.81 0.94 <
0 -5 -10 2 0.30 -0.62 1.25 <
-1 5 10 1 0.29 1.87 3.43 <
1 -5 -10 -1 0.29 3.74 1.87 <
0 5 10 -1 4.15 1.25 1.87 <
0 -5 -10 1 4.15 -3.74 1.87 <
-1 5 10 2 2.25 0.62 1.87 <
1 -5 -10 -2 2.25 -6.24 1.87 <
0 5 10 0 0.33 -0.94 1.87 <
0 -5 -10 0 0.33 3.43 1.87 <
1 5 10 -2 0.51 -3.74 3.12 <
-1 -5 -10 2 0.51 9.05 1.87 o
0 -5 -10 -1 0.96 6.87 2.50 <
-5 6 10 0 1.63 0.00 1.56 <
5 -6 -10 0 1.63 2.81 1.56 <
-4 6 10 -2 0.06 0.62 1.56 <
4 -6 -10 2 0.06 2.50 1.56 <
-5 6 10 1 1.00 0.62 1.56 <
5 -6 -10 -1 1.00 -1.25 1.56 <
-4 6 10 -1 2.25 0.94 1.25 <
4 -6 -10 1 2.25 3.74 1.56 <
-5 6 10 2 1.65 0.62 1.25 <
5 -6 -10 -2 1.65 0.31 1.25 <
-4 6 10 0 19.61 19.04 1.25 o
4 -6 -10 0 19.61 24.34 1.56 o
-3 6 10 -2 0.42 -0.62 1.25 <
3 -6 -10 2 0.42 -0.62 1.25 <
-4 6 10 1 0.62 2.81 1.25 <
4 -6 -10 -1 0.62 -0.31 1.25 <
-3 6 10 -1 0.60 1.87 1.25 <
3 -6 -10 1 0.60 0.31 1.25 <
-4 6 10 2 1.95 2.18 1.25 <
4 -6 -10 -2 1.95 0.94 1.25 <
-3 6 10 0 11.41 7.80 1.25 o
3 -6 -10 0 11.41 7.80 1.25 o
-2 6 10 -2 3.59 3.43 1.25 <
2 -6 -10 2 3.59 2.50 1.25 <
-3 6 10 1 8.70 5.93 1.25 o
3 -6 -10 -1 8.70 0.31 1.25 <
-2 6 10 -1 11.57 4.68 1.25 o
2 -6 -10 1 11.57 6.87 1.25 o
-3 6 10 2 0.07 -0.31 1.25 <
3 -6 -10 -2 0.07 0.62 1.25 <
-2 6 10 0 15.31 35.89 1.25 o
2 -6 -10 0 15.31 25.90 1.25 o
-1 6 10 -2 1.72 0.62 1.25 <
1 -6 -10 2 1.72 1.87 1.25 <
-2 6 10 1 2.26 2.18 1.25 <
2 -6 -10 -1 2.26 0.62 1.25 <
-1 6 10 -1 11.80 2.81 1.25 <
1 -6 -10 1 11.80 3.74 1.25 o
-2 6 10 2 1.66 0.31 1.25 <
2 -6 -10 -2 1.66 3.12 1.25 <
-1 6 10 0 27.06 0.00 1.25 <
1 -6 -10 0 27.06 1.87 1.56 <
0 6 10 -2 0.38 -4.68 1.87 <
0 -6 -10 2 0.38 -4.06 1.87 <
-1 6 10 1 0.23 -4.99 1.87 <
1 -6 -10 -1 0.23 1.56 1.87 <
0 6 10 -1 4.26 9.99 1.87 o
0 -6 -10 1 4.26 -7.80 1.87 <
-1 6 10 2 1.29 0.31 1.87 <
1 -6 -10 -2 1.29 3.12 1.87 <
0 6 10 0 0.49 1.87 7.80 <
0 -6 -10 0 0.49 -0.31 2.18 <
-1 -6 -10 2 0.29 7.80 5.62 <
-6 7 10 2 0.20 -2.18 1.56 <
6 -7 -10 -2 0.20 -1.56 1.56 <
-5 7 10 0 1.33 5.62 1.56 o
5 -7 -10 0 1.33 0.62 1.56 <
-4 7 10 -2 0.06 0.31 1.56 <
4 -7 -10 2 0.06 -1.56 1.56 <
-5 7 10 1 1.07 0.00 1.25 <
5 -7 -10 -1 1.07 -0.31 1.56 <
-4 7 10 -1 3.11 4.68 1.25 o
4 -7 -10 1 3.11 7.18 1.56 o
-5 7 10 2 1.46 1.56 1.25 <
5 -7 -10 -2 1.46 0.31 1.25 <
-4 7 10 0 22.32 52.74 1.56 o
4 -7 -10 0 22.32 47.43 1.56 o
-3 7 10 -2 0.52 0.94 1.25 <
3 -7 -10 2 0.52 -1.56 1.25 <
-4 7 10 1 0.64 6.24 1.25 o
4 -7 -10 -1 0.64 4.68 1.25 o
-3 7 10 -1 0.85 6.87 1.25 o
3 -7 -10 1 0.85 6.87 1.25 o
-4 7 10 2 1.67 1.25 1.25 <
4 -7 -10 -2 1.67 4.68 1.25 o
-3 7 10 0 7.31 2.81 1.25 <
3 -7 -10 0 7.31 10.30 1.25 o
-2 7 10 -2 2.91 -1.87 1.25 <
2 -7 -10 2 2.91 0.62 1.25 <
-3 7 10 1 10.75 2.50 1.25 <
3 -7 -10 -1 10.75 0.31 1.25 <
-2 7 10 -1 7.12 -0.31 1.25 <
2 -7 -10 1 7.12 2.81 1.25 <
-3 7 10 2 0.19 0.31 1.25 <
3 -7 -10 -2 0.19 1.25 1.25 <
-2 7 10 0 6.90 0.00 1.25 <
2 -7 -10 0 6.90 1.25 1.25 <
-1 7 10 -2 1.19 -0.62 1.25 <
1 -7 -10 2 1.19 0.00 1.25 <
-2 7 10 1 0.30 1.25 1.25 <
2 -7 -10 -1 0.30 -1.56 1.25 <
-1 7 10 -1 8.71 0.62 1.25 <
1 -7 -10 1 8.71 -1.87 1.25 <
-2 7 10 2 0.95 -1.25 1.25 <
2 -7 -10 -2 0.95 1.25 2.18 <
-1 7 10 0 17.65 1.25 1.87 <
1 -7 -10 0 17.65 4.06 1.87 <
0 7 10 -2 0.35 0.00 1.87 <
0 -7 -10 2 0.35 -0.62 1.87 <
-1 7 10 1 0.18 1.25 1.87 <
1 -7 -10 -1 0.18 12.79 1.87 o
0 7 10 -1 3.58 11.86 3.12 o
0 -7 -10 1 3.58 6.55 1.87 o
1 -7 -10 -2 0.70 0.31 2.81 <
-6 8 10 2 0.24 0.94 1.56 <
6 -8 -10 -2 0.24 0.62 1.56 <
-5 8 10 0 0.51 2.50 1.56 <
5 -8 -10 0 0.51 -0.62 1.56 <
-4 8 10 -2 0.05 1.56 1.25 <
4 -8 -10 2 0.05 -0.31 1.56 <
-5 8 10 1 0.97 0.31 1.25 <
5 -8 -10 -1 0.97 -2.50 1.56 <
-4 8 10 -1 3.44 7.80 1.25 o
4 -8 -10 1 3.44 6.24 1.56 o
-5 8 10 2 1.24 2.81 1.25 <
5 -8 -10 -2 1.24 0.00 1.25 <
-4 8 10 0 20.55 58.67 1.56 o
4 -8 -10 0 20.55 59.92 1.56 o
-3 8 10 -2 0.70 -0.94 1.25 <
3 -8 -10 2 0.70 2.50 1.25 <
-4 8 10 1 0.96 0.62 1.25 <
4 -8 -10 -1 0.96 2.81 1.25 <
-3 8 10 -1 1.23 3.12 1.25 <
3 -8 -10 1 1.23 1.87 1.25 <
-4 8 10 2 1.21 2.18 1.25 <
4 -8 -10 -2 1.21 -1.87 1.25 <
-3 8 10 0 6.68 1.25 1.25 <
3 -8 -10 0 6.68 -4.37 1.25 <
-2 8 10 -2 2.13 0.94 1.25 <
2 -8 -10 2 2.13 0.00 1.25 <
-3 8 10 1 10.79 2.50 1.25 <
3 -8 -10 -1 10.79 0.62 1.25 <
-2 8 10 -1 3.32 2.50 1.25 <
2 -8 -10 1 3.32 -0.62 1.25 <
-3 8 10 2 0.26 1.25 1.25 <
3 -8 -10 -2 0.26 2.81 1.25 <
-2 8 10 0 8.98 0.94 1.25 <
2 -8 -10 0 8.98 -4.68 1.25 <
-1 8 10 -2 0.85 2.50 1.25 <
1 -8 -10 2 0.85 -5.62 1.25 <
-2 8 10 1 0.13 -0.62 1.25 <
2 -8 -10 -1 0.13 0.94 1.25 <
-1 8 10 -1 5.43 1.87 1.56 <
1 -8 -10 1 5.43 -18.10 4.06 <
-2 8 10 2 0.61 -0.62 1.87 <
2 -8 -10 -2 0.61 2.50 1.87 <
-1 8 10 0 12.60 5.31 1.87 <
1 -8 -10 0 12.60 -6.55 1.87 <
0 8 10 -2 0.25 2.81 2.18 <
0 -8 -10 2 0.25 -9.99 2.18 <
-1 8 10 1 0.14 -27.77 8.11 <
1 -8 -10 -1 0.14 -1.56 2.18 <
0 -8 -10 1 2.53 2.50 5.31 <
-5 9 10 -1 1.55 -1.56 1.56 <
5 -9 -10 1 1.55 1.56 1.56 <
-6 9 10 2 0.34 0.62 1.56 <
6 -9 -10 -2 0.34 -0.31 1.56 <
-5 9 10 0 0.20 0.31 1.56 <
5 -9 -10 0 0.20 1.87 1.56 <
-4 9 10 -2 0.04 -1.25 1.25 <
4 -9 -10 2 0.04 0.94 1.56 <
-5 9 10 1 0.81 -1.25 1.25 <
5 -9 -10 -1 0.81 3.43 1.56 <
-4 9 10 -1 3.06 11.86 1.25 o
4 -9 -10 1 3.06 11.86 1.56 o
-5 9 10 2 1.14 1.25 1.25 <
5 -9 -10 -2 1.14 3.12 1.25 <
-4 9 10 0 14.28 30.27 1.56 o
4 -9 -10 0 14.28 30.89 1.56 o
-3 9 10 -2 0.85 0.62 1.25 <
3 -9 -10 2 0.85 -2.50 1.25 <
-4 9 10 1 1.20 0.62 1.25 <
4 -9 -10 -1 1.20 0.31 1.25 <
-3 9 10 -1 1.45 0.00 1.25 <
3 -9 -10 1 1.45 2.18 1.25 <
-4 9 10 2 0.81 1.87 1.25 <
4 -9 -10 -2 0.81 -1.87 1.25 <
-3 9 10 0 5.12 1.25 1.25 <
3 -9 -10 0 5.12 -0.31 1.25 <
-2 9 10 -2 1.48 1.56 1.25 <
2 -9 -10 2 1.48 -3.12 1.25 <
-3 9 10 1 8.96 -0.31 1.25 <
3 -9 -10 -1 8.96 2.50 1.25 <
-2 9 10 -1 1.08 1.56 1.25 <
2 -9 -10 1 1.08 0.62 1.25 <
-3 9 10 2 0.23 0.62 1.25 <
3 -9 -10 -2 0.23 -1.56 1.25 <
-2 9 10 0 2.72 1.56 1.25 <
2 -9 -10 0 2.72 1.56 1.25 <
-1 9 10 -2 0.67 0.62 1.25 <
1 -9 -10 2 0.67 4.06 1.25 o
-2 9 10 1 0.71 0.94 1.56 <
2 -9 -10 -1 0.71 -5.31 1.87 <
-1 9 10 -1 2.84 1.56 1.87 <
1 -9 -10 1 2.84 -4.68 2.18 <
-2 9 10 2 0.47 0.31 1.87 <
2 -9 -10 -2 0.47 4.37 2.18 <
-1 9 10 0 7.47 3.74 3.43 <
1 -9 -10 0 7.47 5.62 2.18 <
0 -9 -10 2 0.14 3.12 2.81 <
1 -9 -10 -1 0.11 18.72 11.55 <
-5 10 10 -1 1.00 4.37 1.56 <
5 -10 -10 1 1.00 0.00 1.56 <
-6 10 10 2 0.45 -2.81 1.56 <
6 -10 -10 -2 0.45 2.50 1.56 <
-5 10 10 0 0.10 1.87 1.56 <
5 -10 -10 0 0.10 5.31 1.56 o
-4 10 10 -2 0.03 -0.31 1.56 <
4 -10 -10 2 0.03 -0.62 1.56 <
-5 10 10 1 0.74 0.00 1.25 <
5 -10 -10 -1 0.74 -0.31 1.56 <
-4 10 10 -1 2.21 2.18 1.25 <
4 -10 -10 1 2.21 -0.62 1.56 <
-5 10 10 2 1.16 2.50 1.25 <
5 -10 -10 -2 1.16 0.00 1.25 <
-4 10 10 0 10.74 4.37 1.25 o
4 -10 -10 0 10.74 9.05 1.56 o
-3 10 10 -2 0.88 0.94 1.25 <
3 -10 -10 2 0.88 0.94 1.25 <
-4 10 10 1 1.22 0.94 1.25 <
4 -10 -10 -1 1.22 -0.31 1.25 <
-3 10 10 -1 1.36 -1.87 1.25 <
3 -10 -10 1 1.36 0.31 1.25 <
-4 10 10 2 0.60 0.62 1.25 <
4 -10 -10 -2 0.60 0.31 1.25 <
-3 10 10 0 3.76 -0.31 1.25 <
3 -10 -10 0 3.76 -0.62 1.25 <
-2 10 10 -2 1.06 0.31 1.25 <
2 -10 -10 2 1.06 -0.62 1.25 <
-3 10 10 1 6.26 -0.31 1.25 <
3 -10 -10 -1 6.26 -0.31 1.25 <
-2 10 10 -1 0.26 0.31 1.25 <
2 -10 -10 1 0.26 1.56 1.25 <
-3 10 10 2 0.14 1.25 1.25 <
3 -10 -10 -2 0.14 0.62 1.25 <
-2 10 10 0 2.05 4.37 1.25 o
2 -10 -10 0 2.05 0.00 1.56 <
-1 10 10 -2 0.59 -4.37 1.87 <
1 -10 -10 2 0.59 0.31 2.18 <
-2 10 10 1 1.26 -3.12 2.18 <
2 -10 -10 -1 1.26 7.49 2.18 o
-1 10 10 -1 1.31 8.11 2.50 o
1 -10 -10 1 1.31 8.74 2.18 o
-2 10 10 2 0.37 4.37 9.36 <
2 -10 -10 -2 0.37 5.93 2.18 <
-5 11 10 -1 0.61 1.87 1.56 <
5 -11 -10 1 0.61 2.18 1.56 <
-6 11 10 2 0.51 1.56 1.56 <
6 -11 -10 -2 0.51 -0.94 1.56 <
-5 11 10 0 0.18 3.12 1.56 <
5 -11 -10 0 0.18 4.37 1.56 <
-4 11 10 -2 0.04 2.50 1.56 <
4 -11 -10 2 0.04 1.25 1.56 <
-5 11 10 1 0.83 1.87 1.25 <
5 -11 -10 -1 0.83 1.56 1.56 <
-4 11 10 -1 1.34 2.18 1.25 <
4 -11 -10 1 1.34 -0.94 1.56 <
-5 11 10 2 1.21 0.94 1.25 <
5 -11 -10 -2 1.21 0.00 1.56 <
-4 11 10 0 6.63 1.25 1.25 <
4 -11 -10 0 6.63 -0.62 1.56 <
-3 11 10 -2 0.76 -1.56 1.25 <
3 -11 -10 2 0.76 3.12 1.56 <
-4 11 10 1 1.06 -0.94 1.25 <
4 -11 -10 -1 1.06 4.68 1.56 <
-3 11 10 -1 0.98 -1.25 1.25 <
3 -11 -10 1 0.98 0.62 1.25 <
-4 11 10 2 0.58 0.62 1.25 <
4 -11 -10 -2 0.58 -2.18 1.25 <
-3 11 10 0 1.42 -2.50 1.25 <
3 -11 -10 0 1.42 -2.18 1.25 <
-2 11 10 -2 0.83 -1.25 1.25 <
2 -11 -10 2 0.83 -0.62 1.56 <
-3 11 10 1 3.72 6.24 1.25 o
3 -11 -10 -1 3.72 -1.25 1.56 <
-2 11 10 -1 0.21 1.56 1.25 <
2 -11 -10 1 0.21 1.87 1.56 <
-3 11 10 2 0.05 -3.43 1.25 <
3 -11 -10 -2 0.05 4.37 1.87 <
-2 11 10 0 1.56 2.81 2.18 <
2 -11 -10 0 1.56 3.12 2.18 <
-1 11 10 -2 0.53 0.62 2.18 <
1 -11 -10 2 0.53 5.62 2.18 <
-2 11 10 1 1.47 3.12 4.37 <
2 -11 -10 -1 1.47 -1.25 2.18 <
-6 12 10 2 0.49 1.56 1.56 <
6 -12 -10 -2 0.49 0.62 1.56 <
-5 12 10 0 1.14 3.43 1.56 <
5 -12 -10 0 1.14 0.00 1.56 <
-4 12 10 -2 0.07 0.00 1.56 <
4 -12 -10 2 0.07 0.62 1.56 <
-5 12 10 1 0.99 1.25 1.56 <
5 -12 -10 -1 0.99 -0.94 1.56 <
-4 12 10 -1 0.80 -0.31 1.25 <
4 -12 -10 1 0.80 0.00 1.56 <
-5 12 10 2 1.19 -0.31 1.25 <
5 -12 -10 -2 1.19 0.31 1.56 <
-4 12 10 0 3.47 3.12 1.25 <
4 -12 -10 0 3.47 1.56 1.56 <
-3 12 10 -2 0.55 -1.25 1.25 <
3 -12 -10 2 0.55 -0.31 1.56 <
-4 12 10 1 0.82 0.94 1.25 <
4 -12 -10 -1 0.82 0.31 1.56 <
-3 12 10 -1 0.52 0.00 1.25 <
3 -12 -10 1 0.52 -3.12 1.56 <
-4 12 10 2 0.62 0.62 1.25 <
4 -12 -10 -2 0.62 0.62 1.56 <
-3 12 10 0 0.78 2.50 1.25 <
3 -12 -10 0 0.78 -2.81 1.56 <
-2 12 10 -2 0.66 -0.62 1.56 <
2 -12 -10 2 0.66 1.56 1.56 <
-3 12 10 1 1.85 1.25 1.56 <
3 -12 -10 -1 1.85 -0.62 1.56 <
-2 12 10 -1 0.35 -3.74 1.56 <
2 -12 -10 1 0.35 9.36 2.50 o
-3 12 10 2 0.01 3.43 2.50 <
3 -12 -10 -2 0.01 -0.31 2.18 <
-6 13 10 2 0.40 -0.94 1.56 <
6 -13 -10 -2 0.40 1.87 1.56 <
-5 13 10 0 1.83 1.25 1.56 <
5 -13 -10 0 1.83 3.74 1.56 <
-4 13 10 -2 0.11 -2.50 1.56 <
4 -13 -10 2 0.11 1.56 1.56 <
-5 13 10 1 1.09 0.00 1.56 <
5 -13 -10 -1 1.09 0.31 1.56 <
-4 13 10 -1 0.66 3.43 1.56 <
4 -13 -10 1 0.66 1.56 1.56 <
-5 13 10 2 1.04 -0.62 1.56 <
5 -13 -10 -2 1.04 1.25 1.56 <
-4 13 10 0 1.62 4.99 1.56 o
4 -13 -10 0 1.62 2.81 1.56 <
-3 13 10 -2 0.31 1.87 1.56 <
3 -13 -10 2 0.31 2.18 1.56 <
-4 13 10 1 0.56 0.31 1.56 <
4 -13 -10 -1 0.56 4.68 1.56 <
-3 13 10 -1 0.17 1.87 1.56 <
3 -13 -10 1 0.17 0.00 1.56 <
-4 13 10 2 0.62 -3.43 1.56 <
4 -13 -10 -2 0.62 1.25 1.56 <
-3 13 10 0 0.29 -3.43 1.56 <
3 -13 -10 0 0.29 8.74 1.56 o
-2 13 10 -2 0.49 4.68 1.56 <
2 -13 -10 2 0.49 2.81 1.56 <
-4 14 10 -2 0.13 2.81 2.18 <
4 -14 -10 2 0.13 -0.62 2.18 <
-5 14 10 1 1.03 3.74 1.56 <
5 -14 -10 -1 1.03 3.12 1.56 <
-4 14 10 -1 0.76 -0.62 1.56 <
4 -14 -10 1 0.76 0.94 1.56 <
-5 14 10 2 0.80 0.94 1.56 <
5 -14 -10 -2 0.80 -3.12 1.56 <
-4 14 10 0 1.16 0.00 1.56 <
4 -14 -10 0 1.16 0.00 1.56 <
-3 14 10 -2 0.14 0.94 1.56 <
3 -14 -10 2 0.14 0.31 1.56 <
-4 14 10 1 0.35 2.81 2.18 <
4 -14 -10 -1 0.35 0.00 2.18 <
2 -11 11 0 3.02 0.31 4.37 <
3 -11 11 -2 0.62 2.50 2.18 <
2 -11 11 1 1.72 2.18 1.56 <
3 -11 11 -1 1.91 0.00 1.56 <
-3 11 -11 1 1.91 2.81 4.68 <
2 -11 11 2 0.36 2.18 1.25 <
-2 11 -11 -2 0.36 1.56 2.81 <
2 -10 11 -2 1.15 -18.10 5.31 <
1 -10 11 1 1.08 -2.81 2.50 <
2 -10 11 -1 2.23 4.99 1.87 <
-2 10 -11 1 2.23 -9.05 10.30 <
1 -10 11 2 0.10 1.87 1.56 <
-1 10 -11 -2 0.10 -5.31 4.06 <
2 -10 11 0 4.30 0.31 1.56 <
-2 10 -11 0 4.30 -4.37 2.18 <
3 -10 11 -2 0.68 -0.94 1.56 <
-3 10 -11 2 0.68 1.25 1.56 <
2 -10 11 1 1.27 0.62 1.25 <
-2 10 -11 -1 1.27 4.68 1.56 <
3 -10 11 -1 2.54 0.62 1.25 <
-3 10 -11 1 2.54 2.81 2.18 <
2 -10 11 2 0.29 -2.50 1.87 <
-2 10 -11 -2 0.29 2.50 0.94 <
0 -9 11 1 0.08 -2.50 5.93 <
1 -9 11 -1 0.64 2.81 2.81 <
0 -9 11 2 1.27 2.50 1.87 <
0 9 -11 -2 1.27 -0.94 9.99 <
1 -9 11 0 1.85 3.12 1.56 <
-1 9 -11 0 1.85 -0.62 3.43 <
2 -9 11 -2 1.25 1.87 1.56 <
-2 9 -11 2 1.25 -0.62 2.18 <
1 -9 11 1 2.17 -2.50 1.56 <
-1 9 -11 -1 2.17 0.62 1.87 <
2 -9 11 -1 2.35 3.12 1.56 <
-2 9 -11 1 2.35 4.37 1.56 <
1 -9 11 2 0.21 -1.25 1.56 <
-1 9 -11 -2 0.21 5.62 1.56 o
2 -9 11 0 5.17 0.62 1.25 <
-2 9 -11 0 5.17 3.12 1.56 <
3 -9 11 -2 0.68 -1.25 1.25 <
-3 9 -11 2 0.68 -0.62 1.56 <
2 -9 11 1 0.62 1.25 1.25 <
-2 9 -11 -1 0.62 -2.81 1.56 <
3 -9 11 -1 2.85 -1.25 1.25 <
-3 9 -11 1 2.85 -1.25 0.94 <
2 -9 11 2 0.22 1.56 0.94 <
-2 9 -11 -2 0.22 -0.31 0.94 <
3 -9 11 0 4.27 1.25 0.94 <
-3 9 -11 0 4.27 3.12 0.94 o
0 -8 11 -1 3.27 -1.25 4.99 <
-1 -8 11 2 1.38 -1.87 2.81 <
0 -8 11 0 13.06 3.43 1.87 <
0 8 -11 0 13.06 -8.43 8.43 <
1 -8 11 -2 0.25 -1.87 1.87 <
-1 8 -11 2 0.25 -1.56 3.12 <
0 -8 11 1 0.03 -2.18 1.87 <
0 8 -11 -1 0.03 -6.24 2.18 <
1 -8 11 -1 1.50 -0.94 1.56 <
-1 8 -11 1 1.50 2.81 1.87 <
0 -8 11 2 1.39 2.50 1.56 <
0 8 -11 -2 1.39 4.06 1.56 <
1 -8 11 0 3.00 -0.31 1.56 <
-1 8 -11 0 3.00 1.87 1.56 <
2 -8 11 -2 1.29 -0.94 1.56 <
-2 8 -11 2 1.29 4.99 1.56 o
1 -8 11 1 3.90 2.50 1.56 <
-1 8 -11 -1 3.90 5.31 1.56 o
2 -8 11 -1 1.97 -0.94 1.25 <
-2 8 -11 1 1.97 -0.94 1.56 <
1 -8 11 2 0.33 0.31 1.25 <
-1 8 -11 -2 0.33 1.25 1.56 <
2 -8 11 0 5.83 0.31 1.25 <
-2 8 -11 0 5.83 2.81 1.25 <
3 -8 11 -2 0.65 -1.87 1.25 <
-3 8 -11 2 0.65 -4.06 1.25 <
2 -8 11 1 0.12 0.62 0.94 <
-2 8 -11 -1 0.12 0.62 0.94 <
3 -8 11 -1 2.68 2.81 0.94 <
-3 8 -11 1 2.68 3.12 0.94 o
2 -8 11 2 0.18 0.62 0.94 <
-2 8 -11 -2 0.18 0.62 0.94 <
3 -8 11 0 5.22 1.56 0.62 <
-3 8 -11 0 5.22 2.50 0.94 <
-1 -7 11 -1 2.62 -2.18 9.36 <
-2 -7 11 2 0.21 1.25 4.99 <
-1 -7 11 0 1.65 2.81 2.81 <
0 -7 11 -2 0.19 2.81 2.18 <
0 7 -11 2 0.19 6.55 7.80 <
-1 -7 11 1 0.56 -1.87 1.87 <
1 7 -11 -1 0.56 0.94 3.43 <
0 -7 11 -1 4.80 -0.31 1.87 <
0 7 -11 1 4.80 2.18 2.18 <
-1 -7 11 2 1.65 2.50 1.87 <
1 7 -11 -2 1.65 1.87 1.87 <
0 -7 11 0 13.77 2.18 1.87 <
0 7 -11 0 13.77 1.56 1.87 <
1 -7 11 -2 0.55 0.00 1.56 <
-1 7 -11 2 0.55 1.25 1.87 <
0 -7 11 1 0.19 3.74 1.56 <
0 7 -11 -1 0.19 -0.94 1.87 <
1 -7 11 -1 2.72 -0.31 1.56 <
-1 7 -11 1 2.72 -3.74 1.56 <
0 -7 11 2 1.39 -2.18 1.56 <
0 7 -11 -2 1.39 1.87 1.56 <
1 -7 11 0 4.73 1.87 1.56 <
-1 7 -11 0 4.73 1.87 1.56 <
2 -7 11 -2 1.36 0.31 1.25 <
-2 7 -11 2 1.36 4.68 1.56 <
1 -7 11 1 5.99 6.55 1.25 o
-1 7 -11 -1 5.99 5.62 1.56 o
2 -7 11 -1 1.23 -1.87 1.25 <
-2 7 -11 1 1.23 7.49 1.25 o
1 -7 11 2 0.38 2.18 1.25 <
-1 7 -11 -2 0.38 0.94 1.25 <
2 -7 11 0 4.50 3.74 1.25 o
-2 7 -11 0 4.50 0.62 0.94 <
3 -7 11 -2 0.66 2.50 0.94 <
-3 7 -11 2 0.66 1.25 0.94 <
2 -7 11 1 0.10 -1.56 0.94 <
-2 7 -11 -1 0.10 0.62 0.94 <
3 -7 11 -1 2.10 1.87 0.94 <
-3 7 -11 1 2.10 1.87 0.94 <
2 -7 11 2 0.19 1.56 0.94 <
-2 7 -11 -2 0.19 1.25 0.94 <
3 -7 11 0 5.35 0.94 0.94 <
-3 7 -11 0 5.35 0.94 0.94 <
-2 -6 11 0 2.68 1.87 3.74 <
-1 -6 11 -2 0.47 2.81 2.50 <
-2 -6 11 1 2.39 0.00 2.18 <
2 6 -11 -1 2.39 -4.37 9.67 <
-1 -6 11 -1 2.56 6.55 1.87 o
1 6 -11 1 2.56 -3.43 3.74 <
-2 -6 11 2 0.46 -0.31 1.87 <
2 6 -11 -2 0.46 0.31 2.50 <
-1 -6 11 0 0.69 1.56 1.87 <
1 6 -11 0 0.69 -0.94 1.87 <
0 -6 11 -2 0.25 1.25 1.87 <
0 6 -11 2 0.25 -0.62 1.87 <
-1 -6 11 1 0.84 -1.25 1.87 <
1 6 -11 -1 0.84 0.31 1.87 <
0 -6 11 -1 5.96 4.99 1.87 <
0 6 -11 1 5.96 2.81 1.87 <
-1 -6 11 2 2.16 -1.56 1.56 <
1 6 -11 -2 2.16 0.00 1.87 <
0 -6 11 0 18.95 6.55 1.56 o
0 6 -11 0 18.95 2.50 1.87 <
1 -6 11 -2 0.97 0.00 1.56 <
-1 6 -11 2 0.97 5.93 1.56 o
0 -6 11 1 0.54 1.25 1.56 <
0 6 -11 -1 0.54 -0.62 1.56 <
1 -6 11 -1 3.83 1.87 1.56 <
-1 6 -11 1 3.83 -0.31 1.56 <
0 -6 11 2 1.44 -2.81 1.56 <
0 6 -11 -2 1.44 1.25 1.56 <
1 -6 11 0 8.15 7.80 1.56 o
-1 6 -11 0 8.15 5.93 1.56 o
2 -6 11 -2 1.48 4.06 1.25 o
-2 6 -11 2 1.48 1.87 1.56 <
1 -6 11 1 7.76 5.31 1.25 o
-1 6 -11 -1 7.76 5.31 1.25 o
2 -6 11 -1 0.47 0.62 1.25 <
-2 6 -11 1 0.47 0.94 1.25 <
1 -6 11 2 0.33 4.99 2.81 <
-1 6 -11 -2 0.33 1.87 0.94 <
2 -6 11 0 3.48 -0.31 0.62 <
-2 6 -11 0 3.48 0.31 0.62 <
3 -6 11 -2 0.74 1.56 0.62 <
-3 6 -11 2 0.74 -0.62 0.62 <
2 -6 11 1 0.63 -0.62 0.62 <
-2 6 -11 -1 0.63 -0.31 0.62 <
3 -6 11 -1 1.36 0.62 0.94 <
-3 6 -11 1 1.36 4.68 0.62 o
2 -6 11 2 0.20 0.62 0.94 <
-2 6 -11 -2 0.20 0.94 0.94 <
-2 -5 11 -1 0.03 4.37 3.74 <
2 5 -11 1 0.03 -2.50 5.31 <
-3 -5 11 2 0.04 -3.43 5.31 <
3 5 -11 -2 0.04 2.50 2.81 <
-2 -5 11 0 3.50 4.37 2.18 <
2 5 -11 0 3.50 2.50 1.87 <
-1 -5 11 -2 0.63 1.25 1.87 <
1 5 -11 2 0.63 0.62 1.87 <
-2 -5 11 1 3.73 3.74 1.87 <
2 5 -11 -1 3.73 4.68 2.18 <
-1 -5 11 -1 2.06 -0.94 1.87 <
1 5 -11 1 2.06 1.25 3.43 <
-2 -5 11 2 0.86 0.31 1.87 <
2 5 -11 -2 0.86 2.50 1.87 <
-1 -5 11 0 0.34 -0.62 1.87 <
1 5 -11 0 0.34 6.24 1.87 o
0 -5 11 -2 0.39 0.31 1.87 <
0 5 -11 2 0.39 3.74 1.87 <
-1 -5 11 1 1.88 -1.25 1.56 <
1 5 -11 -1 1.88 0.94 1.87 <
0 -5 11 -1 6.27 7.49 1.56 o
0 5 -11 1 6.27 3.12 1.87 <
-1 -5 11 2 3.12 0.94 1.56 <
1 5 -11 -2 3.12 1.25 1.56 <
0 -5 11 0 19.54 5.62 1.56 o
0 5 -11 0 19.54 12.17 1.56 o
1 -5 11 -2 1.34 5.62 1.56 o
-1 5 -11 2 1.34 -1.25 1.56 <
0 -5 11 1 1.00 2.18 1.56 <
0 5 -11 -1 1.00 2.50 1.56 <
1 -5 11 -1 4.16 0.94 1.25 <
-1 5 -11 1 4.16 1.56 1.56 <
0 -5 11 2 1.77 2.50 1.25 <
0 5 -11 -2 1.77 4.06 1.56 <
1 -5 11 0 4.10 6.24 1.25 o
-1 5 -11 0 4.10 8.43 1.25 o
2 -5 11 -2 1.64 1.25 1.25 <
-2 5 -11 2 1.64 -2.81 1.25 <
1 -5 11 1 8.29 11.55 1.25 o
-1 5 -11 -1 8.29 13.42 1.25 o
2 -5 11 -1 0.05 -0.31 1.25 <
-2 5 -11 1 0.05 -1.87 0.62 <
1 -5 11 2 0.21 -1.56 0.62 <
-1 5 -11 -2 0.21 -0.62 0.62 <
2 -5 11 0 2.24 1.25 0.62 <
-2 5 -11 0 2.24 1.56 0.62 <
3 -5 11 -2 0.87 0.31 0.62 <
-3 5 -11 2 0.87 -2.81 0.62 <
2 -5 11 1 1.47 1.87 0.62 o
-2 5 -11 -1 1.47 3.12 0.62 o
3 -5 11 -1 0.78 0.62 0.94 <
-3 5 -11 1 0.78 0.62 0.62 <
2 -5 11 2 0.21 0.62 0.94 <
-2 5 -11 -2 0.21 1.56 0.94 <
-3 -4 11 1 1.67 0.31 1.56 <
3 4 -11 -1 1.67 2.18 1.56 <
-2 -4 11 -1 0.24 -2.81 1.56 <
2 4 -11 1 0.24 6.24 1.56 o
-3 -4 11 2 0.04 0.94 1.25 <
3 4 -11 -2 0.04 -2.81 1.56 <
-2 -4 11 0 4.43 -0.94 1.25 <
2 4 -11 0 4.43 -0.31 1.56 <
-1 -4 11 -2 0.97 -1.87 1.25 <
1 4 -11 2 0.97 -0.94 1.25 <
-2 -4 11 1 5.01 1.87 1.56 <
2 4 -11 -1 5.01 2.81 1.25 <
-1 -4 11 -1 1.60 0.31 1.56 <
1 4 -11 1 1.60 0.62 1.25 <
-2 -4 11 2 1.30 0.62 1.56 <
2 4 -11 -2 1.30 3.43 1.25 <
-1 -4 11 0 1.83 -3.43 1.87 <
1 4 -11 0 1.83 1.56 1.25 <
0 -4 11 -2 0.70 4.37 3.12 <
0 4 -11 2 0.70 2.50 1.25 <
-1 -4 11 1 4.09 0.62 1.56 <
1 4 -11 -1 4.09 1.87 1.56 <
0 -4 11 -1 5.82 13.11 1.56 o
0 4 -11 1 5.82 7.18 1.87 o
-1 -4 11 2 4.53 3.12 1.56 <
1 4 -11 -2 4.53 4.68 3.12 <
0 -4 11 0 20.71 16.54 1.56 o
0 4 -11 0 20.71 12.48 1.56 o
1 -4 11 -2 1.45 -0.62 1.56 <
-1 4 -11 2 1.45 1.25 1.56 <
0 -4 11 1 1.39 3.43 1.25 <
0 4 -11 -1 1.39 3.43 1.56 <
1 -4 11 -1 3.38 4.06 1.25 o
-1 4 -11 1 3.38 -2.18 1.25 <
0 -4 11 2 2.47 0.31 1.25 <
0 4 -11 -2 2.47 2.18 1.25 <
1 -4 11 0 4.19 16.54 1.25 o
-1 4 -11 0 4.19 9.05 1.25 o
2 -4 11 -2 1.74 0.62 1.25 <
-2 4 -11 2 1.74 8.43 4.37 <
1 -4 11 1 7.14 6.87 0.94 o
-1 4 -11 -1 7.14 7.80 0.62 o
2 -4 11 -1 0.07 -0.62 0.62 <
-2 4 -11 1 0.07 1.25 0.62 <
1 -4 11 2 0.10 0.62 0.62 <
-1 4 -11 -2 0.10 -0.62 0.62 <
2 -4 11 0 1.73 -1.25 0.62 <
-2 4 -11 0 1.73 1.87 0.62 o
3 -4 11 -2 0.99 -0.62 0.62 <
-3 4 -11 2 0.99 0.62 0.62 <
2 -4 11 1 2.19 3.43 0.94 o
-2 4 -11 -1 2.19 0.94 0.94 <
3 -4 11 -1 0.50 1.56 0.94 <
-3 4 -11 1 0.50 0.00 0.94 <
-3 -3 11 0 2.21 0.62 1.56 <
3 3 -11 0 2.21 0.62 1.56 <
-2 -3 11 -2 0.97 -1.56 1.56 <
2 3 -11 2 0.97 3.12 1.56 <
-3 -3 11 1 2.77 0.31 1.25 <
3 3 -11 -1 2.77 2.18 1.56 <
-2 -3 11 -1 0.76 1.87 1.25 <
2 3 -11 1 0.76 2.50 1.56 <
-3 -3 11 2 0.09 1.25 1.25 <
3 3 -11 -2 0.09 2.50 1.25 <
-2 -3 11 0 3.69 1.87 1.25 <
2 3 -11 0 3.69 -0.62 1.25 <
-1 -3 11 -2 1.65 0.31 1.25 <
1 3 -11 2 1.65 4.99 1.25 o
-2 -3 11 1 5.66 -0.62 1.25 <
2 3 -11 -1 5.66 0.62 1.25 <
-1 -3 11 -1 1.93 2.18 1.25 <
1 3 -11 1 1.93 1.56 1.25 <
-2 -3 11 2 1.61 2.50 1.25 <
2 3 -11 -2 1.61 -2.18 1.25 <
-1 -3 11 0 5.02 2.81 1.25 <
1 3 -11 0 5.02 2.50 1.25 <
0 -3 11 -2 1.29 1.87 1.25 <
0 3 -11 2 1.29 1.25 1.25 <
-1 -3 11 1 7.53 3.43 0.94 o
1 3 -11 -1 7.53 3.43 0.94 o
0 -3 11 -1 5.56 8.74 0.94 o
0 3 -11 1 5.56 5.93 0.94 o
-1 -3 11 2 6.03 3.12 0.94 o
1 3 -11 -2 6.03 6.24 0.94 o
0 -3 11 0 16.11 2.50 1.25 <
0 3 -11 0 16.11 2.81 0.94 <
1 -3 11 -2 1.19 2.81 0.94 <
-1 3 -11 2 1.19 0.31 0.94 <
0 -3 11 1 1.56 0.00 1.25 <
0 3 -11 -1 1.56 1.25 0.94 <
1 -3 11 -1 1.89 3.74 1.87 <
-1 3 -11 1 1.89 5.93 0.62 o
0 -3 11 2 3.35 -7.80 4.68 <
0 3 -11 -2 3.35 -0.62 0.62 <
1 -3 11 0 3.28 14.35 1.25 o
-1 3 -11 0 3.28 5.62 0.62 o
2 -3 11 -2 1.71 0.31 0.62 <
-2 3 -11 2 1.71 1.87 0.62 o
1 -3 11 1 4.80 11.86 0.62 o
-1 3 -11 -1 4.80 6.24 0.94 o
2 -3 11 -1 0.33 1.25 0.62 <
-2 3 -11 1 0.33 3.12 0.62 o
1 -3 11 2 0.07 1.56 0.62 <
-1 3 -11 -2 0.07 -1.87 0.62 <
2 -3 11 0 1.83 4.37 0.62 o
-2 3 -11 0 1.83 1.56 0.94 <
3 -3 11 -2 1.03 0.31 0.62 <
-3 3 -11 2 1.03 0.62 0.94 <
2 -3 11 1 2.49 -1.87 0.94 <
-2 3 -11 -1 2.49 3.12 0.94 o
-4 -2 11 2 0.77 1.25 1.56 <
4 2 -11 -2 0.77 -1.87 1.56 <
-3 -2 11 0 3.10 1.56 1.56 <
3 2 -11 0 3.10 0.94 1.56 <
-2 -2 11 -2 1.26 -1.87 1.25 <
2 2 -11 2 1.26 -2.50 1.56 <
-3 -2 11 1 3.88 2.50 1.25 <
3 2 -11 -1 3.88 0.00 1.25 <
-2 -2 11 -1 1.50 -0.31 1.25 <
2 2 -11 1 1.50 -2.50 1.25 <
-3 -2 11 2 0.31 3.12 1.25 <
3 2 -11 -2 0.31 -0.31 1.25 <
-2 -2 11 0 2.30 0.31 1.25 <
2 2 -11 0 2.30 0.62 1.25 <
-1 -2 11 -2 2.74 1.25 1.25 <
1 2 -11 2 2.74 2.18 1.25 <
-2 -2 11 1 5.24 1.87 1.25 <
2 2 -11 -1 5.24 -0.62 1.25 <
-1 -2 11 -1 3.55 3.12 1.25 <
1 2 -11 1 3.55 0.62 1.25 <
-2 -2 11 2 1.63 2.50 1.25 <
2 2 -11 -2 1.63 1.56 1.25 <
-1 -2 11 0 12.18 8.74 1.25 o
1 2 -11 0 12.18 10.61 1.25 o
0 -2 11 -2 2.16 -0.94 0.94 <
0 2 -11 2 2.16 -1.25 0.94 <
-1 -2 11 1 11.49 0.62 0.94 <
1 2 -11 -1 11.49 2.81 0.94 <
0 -2 11 -1 6.64 4.68 0.94 o
0 2 -11 1 6.64 4.68 0.94 o
-1 -2 11 2 6.94 7.80 0.94 o
1 2 -11 -2 6.94 8.74 0.94 o
0 -2 11 0 11.44 1.56 0.62 <
0 2 -11 0 11.44 3.12 0.94 o
1 -2 11 -2 0.67 2.81 0.62 o
-1 2 -11 2 0.67 2.50 0.94 <
0 -2 11 1 1.43 4.68 0.62 o
0 2 -11 -1 1.43 3.12 0.94 o
1 -2 11 -1 0.57 0.31 0.62 <
-1 2 -11 1 0.57 0.31 0.62 <
0 -2 11 2 4.00 4.37 0.62 o
0 2 -11 -2 4.00 2.81 0.62 o
1 -2 11 0 2.16 3.43 0.62 o
-1 2 -11 0 2.16 1.25 1.25 <
2 -2 11 -2 1.53 1.25 0.62 <
-2 2 -11 2 1.53 4.99 1.56 o
1 -2 11 1 2.36 1.56 0.62 <
-1 2 -11 -1 2.36 0.62 2.81 <
2 -2 11 -1 0.56 -0.31 0.62 <
-2 2 -11 1 0.56 0.62 1.87 <
1 -2 11 2 0.14 -0.62 0.94 <
-1 2 -11 -2 0.14 2.50 1.56 <
2 -2 11 0 2.70 -0.62 0.94 <
-2 2 -11 0 2.70 -0.31 1.25 <
3 -2 11 -2 0.95 -1.25 0.94 <
-3 2 -11 2 0.95 3.12 1.25 <
-4 -1 11 1 0.29 -0.62 1.56 <
4 1 -11 -1 0.29 -3.74 1.56 <
-3 -1 11 -1 0.13 4.68 1.56 <
3 1 -11 1 0.13 7.49 1.56 o
-4 -1 11 2 1.27 3.12 1.56 <
4 1 -11 -2 1.27 0.00 1.56 <
-3 -1 11 0 5.10 -2.50 1.25 <
3 1 -11 0 5.10 0.00 1.56 <
-2 -1 11 -2 1.42 1.87 1.25 <
2 1 -11 2 1.42 2.18 1.25 <
-3 -1 11 1 4.63 -1.56 1.25 <
3 1 -11 -1 4.63 -2.81 1.25 <
-2 -1 11 -1 2.17 0.62 1.25 <
2 1 -11 1 2.17 4.37 1.25 o
-3 -1 11 2 0.79 -0.31 1.25 <
3 1 -11 -2 0.79 1.56 1.25 <
-2 -1 11 0 0.89 1.56 1.25 <
2 1 -11 0 0.89 -0.94 1.25 <
-1 -1 11 -2 4.15 2.81 1.25 <
1 1 -11 2 4.15 1.87 1.25 <
-2 -1 11 1 3.90 5.31 1.25 o
2 1 -11 -1 3.90 4.68 1.25 o
-1 -1 11 -1 6.24 3.74 1.25 o
1 1 -11 1 6.24 9.67 1.25 o
-2 -1 11 2 1.33 2.81 0.94 <
2 1 -11 -2 1.33 3.43 0.94 o
-1 -1 11 0 25.47 25.90 1.25 o
1 1 -11 0 25.47 30.27 1.25 o
0 -1 11 -2 3.07 -2.50 0.94 <
0 1 -11 2 3.07 -1.87 0.94 <
-1 -1 11 1 14.48 4.37 0.94 o
1 1 -11 -1 14.48 2.81 0.94 <
0 -1 11 -1 9.31 0.31 0.94 <
0 1 -11 1 9.31 -0.94 0.94 <
-1 -1 11 2 6.80 9.36 0.94 o
1 1 -11 -2 6.80 9.67 0.94 o
0 -1 11 0 7.01 5.31 0.62 o
0 1 -11 0 7.01 4.68 0.94 o
1 -1 11 -2 0.21 5.93 0.94 o
-1 1 -11 2 0.21 3.12 0.94 o
0 -1 11 1 1.06 4.68 0.94 o
0 1 -11 -1 1.06 8.11 0.94 o
1 -1 11 -1 0.08 1.25 0.62 <
-1 1 -11 1 0.08 3.12 0.94 o
0 -1 11 2 4.11 1.87 1.25 <
0 1 -11 -2 4.11 9.05 1.56 o
1 -1 11 0 1.20 3.74 1.56 <
-1 1 -11 0 1.20 3.12 1.56 <
2 -1 11 -2 1.24 1.87 1.56 <
-2 1 -11 2 1.24 5.31 1.56 o
1 -1 11 1 0.71 -0.62 1.56 <
-1 1 -11 -1 0.71 -4.68 1.56 <
2 -1 11 -1 0.58 -5.31 1.56 <
-2 1 -11 1 0.58 2.50 1.56 <
1 -1 11 2 0.24 2.81 3.12 <
-1 1 -11 -2 0.24 4.06 1.56 <
2 -1 11 0 2.79 1.87 1.87 <
-2 1 -11 0 2.79 -4.99 1.56 <
-3 0 11 -2 0.04 -0.31 1.56 <
3 0 -11 2 0.04 2.18 1.56 <
-4 0 11 1 0.39 -1.25 1.56 <
4 0 -11 -1 0.39 1.25 1.56 <
-3 0 11 -1 0.27 -2.81 1.25 <
3 0 -11 1 0.27 1.25 1.56 <
-4 0 11 2 1.89 3.74 1.25 o
4 0 -11 -2 1.89 3.43 1.25 <
-3 0 11 0 7.17 4.37 1.25 o
3 0 -11 0 7.17 0.94 1.25 <
-2 0 11 -2 1.37 1.25 1.25 <
2 0 -11 2 1.37 6.24 1.25 o
-3 0 11 1 4.70 3.74 1.25 o
3 0 -11 -1 4.70 0.62 1.25 <
-2 0 11 -1 2.42 2.50 1.25 <
2 0 -11 1 2.42 3.12 1.25 <
-3 0 11 2 1.55 5.93 1.25 o
3 0 -11 -2 1.55 1.56 1.25 <
-2 0 11 0 0.09 2.81 1.25 <
2 0 -11 0 0.09 4.37 1.25 o
-1 0 11 -2 5.54 -0.62 1.25 <
1 0 -11 2 5.54 -2.81 1.25 <
-2 0 11 1 2.52 4.99 1.25 o
2 0 -11 -1 2.52 7.18 1.25 o
-1 0 11 -1 9.28 16.54 1.25 o
1 0 -11 1 9.28 14.98 1.25 o
-2 0 11 2 0.84 1.56 0.94 <
2 0 -11 -2 0.84 0.00 0.94 <
-1 0 11 0 29.92 31.21 0.94 o
1 0 -11 0 29.92 38.70 1.25 o
0 0 11 -2 3.63 0.94 0.94 <
0 0 -11 2 3.63 0.62 0.94 <
-1 0 11 1 14.87 4.68 0.94 o
1 0 -11 -1 14.87 6.24 0.94 o
0 0 11 -1 12.50 6.55 0.94 o
0 0 -11 1 12.50 8.43 0.94 o
-1 0 11 2 5.70 6.24 0.94 o
1 0 -11 -2 5.70 7.49 0.94 o
0 0 11 0 6.76 26.21 0.94 o
0 0 -11 0 6.76 26.84 0.94 o
1 0 11 -2 0.01 1.25 0.94 <
-1 0 -11 2 0.01 0.00 0.94 <
0 0 11 1 0.63 0.94 0.94 <
0 0 -11 -1 0.63 1.56 0.94 <
1 0 11 -1 0.51 -2.81 2.50 <
-1 0 -11 1 0.51 2.18 1.56 <
0 0 11 2 3.66 1.25 1.56 <
0 0 -11 -2 3.66 2.81 1.56 <
1 0 11 0 0.06 -4.68 1.56 <
-1 0 -11 0 0.06 2.18 1.56 <
2 0 11 -2 0.91 -1.87 1.56 <
-2 0 -11 2 0.91 -4.37 1.56 <
1 0 11 1 0.06 2.81 1.56 <
-1 0 -11 -1 0.06 -0.62 1.56 <
2 0 11 -1 0.45 1.25 1.56 <
-2 0 -11 1 0.45 5.31 1.87 <
1 0 11 2 0.32 0.00 1.87 <
-1 0 -11 -2 0.32 5.62 1.87 <
-4 1 11 0 2.08 -1.87 1.56 <
4 -1 -11 0 2.08 -1.25 1.56 <
-3 1 11 -2 0.07 0.00 1.56 <
3 -1 -11 2 0.07 -4.68 1.56 <
-4 1 11 1 0.67 3.12 1.25 <
4 -1 -11 -1 0.67 -7.80 1.56 <
-3 1 11 -1 0.81 2.81 1.25 <
3 -1 -11 1 0.81 4.06 1.25 o
-4 1 11 2 2.56 5.62 1.25 o
4 -1 -11 -2 2.56 -1.56 1.25 <
-3 1 11 0 13.03 2.81 1.25 <
3 -1 -11 0 13.03 5.93 1.25 o
-2 1 11 -2 1.18 -1.56 1.25 <
2 -1 -11 2 1.18 4.68 1.25 o
-3 1 11 1 4.05 3.12 1.25 <
3 -1 -11 -1 4.05 2.81 1.25 <
-2 1 11 -1 2.13 1.25 1.25 <
2 -1 -11 1 2.13 1.87 1.25 <
-3 1 11 2 2.47 -0.94 1.25 <
3 -1 -11 -2 2.47 -3.43 1.25 <
-2 1 11 0 0.99 3.43 1.25 <
2 -1 -11 0 0.99 9.67 1.25 o
-1 1 11 -2 6.45 4.99 1.25 o
1 -1 -11 2 6.45 0.00 1.25 <
-2 1 11 1 2.30 2.18 0.94 <
2 -1 -11 -1 2.30 -4.06 0.94 <
-1 1 11 -1 11.83 20.28 0.94 o
1 -1 -11 1 11.83 20.28 0.94 o
-2 1 11 2 0.34 3.12 0.94 o
2 -1 -11 -2 0.34 2.81 0.94 <
-1 1 11 0 36.73 39.94 0.94 o
1 -1 -11 0 36.73 40.26 0.94 o
0 1 11 -2 3.57 3.12 0.94 o
0 -1 -11 2 3.57 0.31 0.94 <
-1 1 11 1 12.18 10.30 0.94 o
1 -1 -11 -1 12.18 11.55 0.94 o
0 1 11 -1 14.62 23.72 0.94 o
0 -1 -11 1 14.62 22.47 0.94 o
-1 1 11 2 4.17 2.81 0.94 <
1 -1 -11 -2 4.17 3.74 0.94 o
0 1 11 0 9.45 14.04 0.94 o
0 -1 -11 0 9.45 10.92 0.94 o
1 1 11 -2 0.06 0.62 0.94 <
-1 -1 -11 2 0.06 0.94 1.25 <
0 1 11 1 0.31 1.87 1.56 <
0 -1 -11 -1 0.31 0.00 1.56 <
1 1 11 -1 1.46 0.94 1.56 <
-1 -1 -11 1 1.46 -0.62 1.56 <
0 1 11 2 2.85 1.87 1.56 <
0 -1 -11 -2 2.85 0.94 1.56 <
1 1 11 0 0.36 0.31 1.56 <
-1 -1 -11 0 0.36 -4.68 1.56 <
2 1 11 -2 0.62 1.25 1.56 <
-2 -1 -11 2 0.62 -0.31 1.87 <
1 1 11 1 0.11 4.68 1.87 <
-1 -1 -11 -1 0.11 3.12 1.87 <
2 1 11 -1 0.26 1.87 3.74 <
-2 -1 -11 1 0.26 -2.81 1.87 <
-5 2 11 2 0.61 1.87 1.56 <
5 -2 -11 -2 0.61 1.87 1.56 <
-4 2 11 0 2.99 0.62 1.56 <
4 -2 -11 0 2.99 -3.74 2.50 <
-3 2 11 -2 0.12 4.37 1.25 o
3 -2 -11 2 0.12 -4.37 1.56 <
-4 2 11 1 1.13 -0.62 1.25 <
4 -2 -11 -1 1.13 0.00 1.25 <
-3 2 11 -1 1.91 7.80 1.25 o
3 -2 -11 1 1.91 -1.25 1.25 <
-4 2 11 2 3.15 2.81 1.25 <
4 -2 -11 -2 3.15 1.56 1.25 <
-3 2 11 0 19.42 5.31 1.25 o
3 -2 -11 0 19.42 9.67 1.25 o
-2 2 11 -2 0.96 -7.18 1.25 <
2 -2 -11 2 0.96 -2.81 1.25 <
-3 2 11 1 3.06 -0.31 1.25 <
3 -2 -11 -1 3.06 3.43 1.25 <
-2 2 11 -1 1.64 0.31 1.25 <
2 -2 -11 1 1.64 2.81 1.25 <
-3 2 11 2 3.26 0.31 1.25 <
3 -2 -11 -2 3.26 1.25 1.25 <
-2 2 11 0 2.65 8.11 1.25 o
2 -2 -11 0 2.65 9.36 1.25 o
-1 2 11 -2 6.57 0.62 0.94 <
1 -2 -11 2 6.57 1.87 0.94 <
-2 2 11 1 3.99 0.62 0.94 <
2 -2 -11 -1 3.99 0.62 0.94 <
-1 2 11 -1 13.05 25.59 1.25 o
1 -2 -11 1 13.05 22.47 0.94 o
-2 2 11 2 0.05 0.62 0.94 <
2 -2 -11 -2 0.05 0.62 0.94 <
-1 2 11 0 52.31 56.48 1.25 o
1 -2 -11 0 52.31 62.41 1.25 o
0 2 11 -2 2.98 2.18 0.94 <
0 -2 -11 2 2.98 3.12 0.94 o
-1 2 11 1 7.65 3.74 0.94 o
1 -2 -11 -1 7.65 1.87 0.94 <
0 2 11 -1 14.60 8.74 0.94 o
0 -2 -11 1 14.60 4.68 0.94 o
-1 2 11 2 2.75 0.31 0.94 <
1 -2 -11 -2 2.75 0.62 0.94 <
0 2 11 0 12.45 2.81 0.94 <
0 -2 -11 0 12.45 5.62 1.56 o
1 2 11 -2 0.20 1.56 1.56 <
-1 -2 -11 2 0.20 1.25 1.56 <
0 2 11 1 0.14 -2.81 1.56 <
0 -2 -11 -1 0.14 -0.31 1.56 <
1 2 11 -1 2.36 -1.56 1.56 <
-1 -2 -11 1 2.36 0.31 1.87 <
0 2 11 2 1.95 -4.68 1.56 <
0 -2 -11 -2 1.95 2.50 1.87 <
1 2 11 0 0.37 0.94 1.87 <
-1 -2 -11 0 0.37 -9.99 1.87 <
2 2 11 -2 0.40 0.62 2.18 <
-2 -2 -11 2 0.40 3.43 1.87 <
1 2 11 1 0.40 20.91 10.61 <
-1 -2 -11 -1 0.40 7.49 1.87 o
-4 3 11 -1 3.30 0.00 1.56 <
4 -3 -11 1 3.30 0.94 1.87 <
-5 3 11 2 0.52 2.81 1.56 <
5 -3 -11 -2 0.52 2.50 1.56 <
-4 3 11 0 4.31 -0.62 1.25 <
4 -3 -11 0 4.31 4.68 1.56 <
-3 3 11 -2 0.17 1.25 1.25 <
3 -3 -11 2 0.17 4.99 1.56 o
-4 3 11 1 1.66 0.62 1.25 <
4 -3 -11 -1 1.66 -1.25 1.56 <
-3 3 11 -1 3.47 0.62 1.25 <
3 -3 -11 1 3.47 1.25 1.25 <
-4 3 11 2 3.52 -0.31 1.25 <
4 -3 -11 -2 3.52 0.00 1.25 <
-3 3 11 0 29.37 34.64 1.25 o
3 -3 -11 0 29.37 35.58 1.25 o
-2 3 11 -2 0.84 0.00 1.25 <
2 -3 -11 2 0.84 -1.87 1.25 <
-3 3 11 1 2.28 5.31 1.25 o
3 -3 -11 -1 2.28 4.68 1.25 o
-2 3 11 -1 1.48 4.37 1.25 o
2 -3 -11 1 1.48 3.74 1.25 o
-3 3 11 2 3.55 4.99 1.25 o
3 -3 -11 -2 3.55 3.74 1.25 o
-2 3 11 0 4.94 2.81 1.25 <
2 -3 -11 0 4.94 1.25 1.25 <
-1 3 11 -2 5.92 -0.31 0.94 <
1 -3 -11 2 5.92 0.94 0.94 <
-2 3 11 1 7.30 2.50 0.94 <
2 -3 -11 -1 7.30 2.81 0.94 <
-1 3 11 -1 12.21 17.48 0.94 o
1 -3 -11 1 12.21 17.48 1.25 o
-2 3 11 2 0.02 -0.94 0.94 <
2 -3 -11 -2 0.02 2.18 0.94 <
-1 3 11 0 41.59 44.94 1.25 o
1 -3 -11 0 41.59 39.01 1.25 o
0 3 11 -2 2.18 1.87 0.94 <
0 -3 -11 2 2.18 2.50 0.94 <
-1 3 11 1 3.39 1.56 0.94 <
1 -3 -11 -1 3.39 1.56 0.94 <
0 3 11 -1 12.44 -0.31 0.94 <
0 -3 -11 1 12.44 0.62 1.25 <
-1 3 11 2 1.71 2.18 1.25 <
1 -3 -11 -2 1.71 1.25 3.12 <
0 3 11 0 16.38 -8.43 1.56 <
0 -3 -11 0 16.38 -3.43 1.87 <
1 3 11 -2 0.30 -7.18 1.56 <
-1 -3 -11 2 0.30 -0.94 1.87 <
0 3 11 1 0.07 2.50 1.56 <
0 -3 -11 -1 0.07 -2.81 1.87 <
1 3 11 -1 2.80 4.37 1.87 <
-1 -3 -11 1 2.80 3.12 1.87 <
0 3 11 2 1.19 8.74 1.87 o
0 -3 -11 -2 1.19 -2.18 1.87 <
1 3 11 0 0.26 4.68 3.74 <
-1 -3 -11 0 0.26 8.11 1.87 o
-2 -3 -11 2 0.26 -1.25 2.81 <
-5 4 11 1 0.55 2.18 1.56 <
5 -4 -11 -1 0.55 -0.62 1.56 <
-4 4 11 -1 4.08 -0.31 1.56 <
4 -4 -11 1 4.08 0.31 1.87 <
-5 4 11 2 0.46 -0.94 1.25 <
5 -4 -11 -2 0.46 -2.50 1.56 <
-4 4 11 0 5.26 9.05 1.56 o
4 -4 -11 0 5.26 11.86 1.56 o
-3 4 11 -2 0.20 2.81 1.25 <
3 -4 -11 2 0.20 4.06 1.25 o
-4 4 11 1 2.06 2.18 1.25 <
4 -4 -11 -1 2.06 0.00 1.25 <
-3 4 11 -1 5.01 7.80 1.25 o
3 -4 -11 1 5.01 5.62 1.25 o
-4 4 11 2 3.58 -0.62 1.25 <
4 -4 -11 -2 3.58 0.62 1.25 <
-3 4 11 0 32.36 57.42 1.56 o
3 -4 -11 0 32.36 67.09 1.56 o
-2 4 11 -2 0.86 0.94 1.25 <
2 -4 -11 2 0.86 3.43 1.25 <
-3 4 11 1 1.97 7.80 1.25 o
3 -4 -11 -1 1.97 8.43 1.25 o
-2 4 11 -1 1.82 6.55 1.25 o
2 -4 -11 1 1.82 3.43 1.25 <
-3 4 11 2 3.15 2.81 1.25 <
3 -4 -11 -2 3.15 4.37 1.25 o
-2 4 11 0 9.28 8.11 1.25 o
2 -4 -11 0 9.28 12.48 1.25 o
-1 4 11 -2 4.83 2.18 0.94 <
1 -4 -11 2 4.83 2.18 0.94 <
-2 4 11 1 10.87 3.74 0.94 o
2 -4 -11 -1 10.87 4.68 0.94 o
-1 4 11 -1 9.32 1.56 0.94 <
1 -4 -11 1 9.32 1.56 0.94 <
-2 4 11 2 0.16 0.31 0.94 <
2 -4 -11 -2 0.16 2.50 0.94 <
-1 4 11 0 21.50 1.25 0.94 <
1 -4 -11 0 21.50 -0.62 1.25 <
0 4 11 -2 1.46 0.31 0.94 <
0 -4 -11 2 1.46 -2.50 0.94 <
-1 4 11 1 0.84 1.56 0.94 <
1 -4 -11 -1 0.84 3.43 1.25 <
0 4 11 -1 9.00 4.06 1.25 o
0 -4 -11 1 9.00 4.06 1.87 <
-1 4 11 2 1.10 1.56 1.87 <
1 -4 -11 -2 1.10 0.62 1.87 <
0 4 11 0 11.62 5.93 1.87 o
0 -4 -11 0 11.62 -0.62 1.87 <
1 4 11 -2 0.30 15.92 1.87 o
-1 -4 -11 2 0.30 4.37 1.87 <
0 4 11 1 0.06 3.43 1.87 <
0 -4 -11 -1 0.06 1.87 1.87 <
1 4 11 -1 2.64 -12.48 2.18 <
-1 -4 -11 1 2.64 6.55 1.87 o
0 4 11 2 0.67 31.21 10.30 o
0 -4 -11 -2 0.67 2.18 2.18 <
-4 5 11 -2 0.43 6.87 1.56 o
4 -5 -11 2 0.43 -4.68 1.87 <
-5 5 11 1 1.14 1.25 1.56 <
5 -5 -11 -1 1.14 0.94 1.56 <
-4 5 11 -1 4.17 5.31 1.56 o
4 -5 -11 1 4.17 3.12 1.56 <
-5 5 11 2 0.52 0.31 1.25 <
5 -5 -11 -2 0.52 0.62 1.56 <
-4 5 11 0 3.99 1.87 1.25 <
4 -5 -11 0 3.99 6.24 1.25 o
-3 5 11 -2 0.19 -1.87 1.25 <
3 -5 -11 2 0.19 3.74 1.25 o
-4 5 11 1 2.16 -0.62 1.25 <
4 -5 -11 -1 2.16 1.87 1.25 <
-3 5 11 -1 5.83 10.30 1.25 o
3 -5 -11 1 5.83 13.11 1.25 o
-4 5 11 2 3.38 -1.25 1.25 <
4 -5 -11 -2 3.38 -0.31 1.25 <
-3 5 11 0 35.49 110.16 1.56 o
3 -5 -11 0 35.49 102.36 1.56 o
-2 5 11 -2 1.02 0.94 1.25 <
2 -5 -11 2 1.02 1.87 1.25 <
-3 5 11 1 1.87 8.11 1.25 o
3 -5 -11 -1 1.87 9.05 1.25 o
-2 5 11 -1 2.33 1.25 1.25 <
2 -5 -11 1 2.33 1.87 1.25 <
-3 5 11 2 2.27 3.43 1.25 <
3 -5 -11 -2 2.27 1.56 1.25 <
-2 5 11 0 6.32 4.37 1.25 o
2 -5 -11 0 6.32 -5.62 1.25 <
-1 5 11 -2 3.70 1.25 1.25 <
1 -5 -11 2 3.70 2.50 1.25 <
-2 5 11 1 12.96 2.50 1.25 <
2 -5 -11 -1 12.96 -0.31 1.25 <
-1 5 11 -1 5.51 1.87 1.25 <
1 -5 -11 1 5.51 3.74 1.25 o
-2 5 11 2 0.29 0.94 1.25 <
2 -5 -11 -2 0.29 2.18 1.25 <
-1 5 11 0 19.19 2.50 1.25 <
1 -5 -11 0 19.19 -0.94 1.25 <
0 5 11 -2 0.99 -1.87 1.25 <
0 -5 -11 2 0.99 -0.31 1.25 <
-1 5 11 1 0.05 7.18 1.56 o
1 -5 -11 -1 0.05 2.18 1.87 <
0 5 11 -1 5.50 -1.56 1.87 <
0 -5 -11 1 5.50 0.00 1.87 <
-1 5 11 2 0.79 2.81 1.87 <
1 -5 -11 -2 0.79 -1.25 1.87 <
0 5 11 0 9.22 -1.87 1.87 <
0 -5 -11 0 9.22 6.24 1.87 o
1 5 11 -2 0.24 7.18 1.87 o
-1 -5 -11 2 0.24 8.74 1.87 o
0 5 11 1 0.07 3.12 3.74 <
0 -5 -11 -1 0.07 -0.94 1.87 <
-1 -5 -11 1 2.05 0.31 2.81 <
-5 6 11 0 2.16 -0.31 1.56 <
5 -6 -11 0 2.16 -0.94 1.56 <
-4 6 11 -2 0.43 0.62 1.56 <
4 -6 -11 2 0.43 -0.62 1.56 <
-5 6 11 1 1.91 2.50 1.56 <
5 -6 -11 -1 1.91 -2.81 1.56 <
-4 6 11 -1 3.45 3.43 1.25 <
4 -6 -11 1 3.45 6.87 1.56 o
-5 6 11 2 0.75 0.31 1.25 <
5 -6 -11 -2 0.75 0.31 1.25 <
-4 6 11 0 2.07 -0.62 1.25 <
4 -6 -11 0 2.07 4.68 1.25 o
-3 6 11 -2 0.14 -0.31 1.25 <
3 -6 -11 2 0.14 0.62 1.25 <
-4 6 11 1 1.93 0.00 1.25 <
4 -6 -11 -1 1.93 -0.31 1.25 <
-3 6 11 -1 5.48 16.23 1.25 o
3 -6 -11 1 5.48 14.98 1.25 o
-4 6 11 2 3.14 1.25 1.25 <
4 -6 -11 -2 3.14 0.62 1.25 <
-3 6 11 0 28.08 108.29 1.56 o
3 -6 -11 0 28.08 110.47 1.56 o
-2 6 11 -2 1.24 1.87 1.25 <
2 -6 -11 2 1.24 1.87 1.25 <
-3 6 11 1 1.65 2.50 1.25 <
3 -6 -11 -1 1.65 2.81 1.25 <
-2 6 11 -1 2.52 2.50 1.25 <
2 -6 -11 1 2.52 0.62 1.25 <
-3 6 11 2 1.43 1.87 1.25 <
3 -6 -11 -2 1.43 1.87 1.25 <
-2 6 11 0 1.70 3.43 1.25 <
2 -6 -11 0 1.70 0.94 1.25 <
-1 6 11 -2 2.78 -2.50 1.25 <
1 -6 -11 2 2.78 0.94 1.25 <
-2 6 11 1 12.64 4.68 1.25 o
2 -6 -11 -1 12.64 0.94 1.25 <
-1 6 11 -1 2.34 3.12 1.25 <
1 -6 -11 1 2.34 0.94 1.25 <
-2 6 11 2 0.30 1.25 1.25 <
2 -6 -11 -2 0.30 1.87 1.25 <
-1 6 11 0 11.00 2.50 1.25 <
1 -6 -11 0 11.00 1.87 1.25 <
0 6 11 -2 0.74 -0.31 2.50 <
0 -6 -11 2 0.74 0.62 1.87 <
-1 6 11 1 0.28 -0.62 1.87 <
1 -6 -11 -1 0.28 -2.18 1.87 <
0 6 11 -1 2.82 5.93 1.87 o
0 -6 -11 1 2.82 -1.56 1.87 <
-1 6 11 2 0.63 -5.31 1.87 <
1 -6 -11 -2 0.63 2.18 1.87 <
0 6 11 0 5.59 -4.68 2.50 <
0 -6 -11 0 5.59 -9.05 2.18 <
-1 -6 -11 2 0.15 0.94 2.18 <
-5 7 11 0 1.85 1.25 1.56 <
5 -7 -11 0 1.85 4.99 1.56 o
-4 7 11 -2 0.43 -0.62 1.56 <
4 -7 -11 2 0.43 -0.31 1.56 <
-5 7 11 1 2.65 -2.81 1.25 <
5 -7 -11 -1 2.65 1.25 1.56 <
-4 7 11 -1 2.28 1.56 1.25 <
4 -7 -11 1 2.28 0.00 1.56 <
-5 7 11 2 1.08 4.68 1.25 o
5 -7 -11 -2 1.08 1.25 1.25 <
-4 7 11 0 1.61 2.81 1.25 <
4 -7 -11 0 1.61 -0.31 1.25 <
-3 7 11 -2 0.09 1.25 1.25 <
3 -7 -11 2 0.09 8.74 1.25 o
-4 7 11 1 1.60 0.00 1.25 <
4 -7 -11 -1 1.60 -1.87 1.25 <
-3 7 11 -1 4.15 8.43 1.25 o
3 -7 -11 1 4.15 10.92 1.25 o
-4 7 11 2 3.03 1.25 1.25 <
4 -7 -11 -2 3.03 -0.62 1.25 <
-3 7 11 0 17.82 33.08 1.25 o
3 -7 -11 0 17.82 29.33 1.25 o
-2 7 11 -2 1.41 -0.62 1.25 <
2 -7 -11 2 1.41 1.25 1.25 <
-3 7 11 1 1.30 -0.31 1.25 <
3 -7 -11 -1 1.30 0.62 1.25 <
-2 7 11 -1 2.22 1.87 1.25 <
2 -7 -11 1 2.22 1.87 1.25 <
-3 7 11 2 0.99 4.06 1.25 o
3 -7 -11 -2 0.99 2.18 1.25 <
-2 7 11 0 1.24 0.31 1.25 <
2 -7 -11 0 1.24 1.56 1.25 <
-1 7 11 -2 2.12 0.31 1.25 <
1 -7 -11 2 2.12 1.25 1.25 <
-2 7 11 1 10.27 1.25 1.25 <
2 -7 -11 -1 10.27 -1.25 1.25 <
-1 7 11 -1 0.64 0.31 1.25 <
1 -7 -11 1 0.64 -0.31 1.25 <
-2 7 11 2 0.20 0.62 1.25 <
2 -7 -11 -2 0.20 3.74 1.56 <
-1 7 11 0 4.79 16.85 3.74 o
1 -7 -11 0 4.79 -1.25 1.87 <
0 7 11 -2 0.66 3.12 1.87 <
0 -7 -11 2 0.66 -0.62 1.87 <
-1 7 11 1 0.76 3.74 1.87 <
1 -7 -11 -1 0.76 1.25 1.87 <
0 7 11 -1 1.25 -1.87 2.18 <
0 -7 -11 1 1.25 -7.80 2.18 <
-1 7 11 2 0.50 2.18 4.06 <
1 -7 -11 -2 0.50 2.81 2.18 <
-6 8 11 2 0.03 -0.31 1.56 <
6 -8 -11 -2 0.03 3.74 1.56 <
-5 8 11 0 1.11 2.50 1.56 <
5 -8 -11 0 1.11 0.94 1.56 <
-4 8 11 -2 0.46 -2.50 1.56 <
4 -8 -11 2 0.46 -0.94 1.56 <
-5 8 11 1 3.04 2.18 1.25 <
5 -8 -11 -1 3.04 0.31 1.56 <
-4 8 11 -1 1.30 -1.56 1.25 <
4 -8 -11 1 1.30 -4.99 1.56 <
-5 8 11 2 1.32 0.00 1.25 <
5 -8 -11 -2 1.32 -1.25 1.25 <
-4 8 11 0 1.28 13.11 1.25 o
4 -8 -11 0 1.28 9.67 1.56 o
-3 8 11 -2 0.08 3.74 1.25 o
3 -8 -11 2 0.08 -0.94 1.25 <
-4 8 11 1 1.46 0.31 1.25 <
4 -8 -11 -1 1.46 1.56 1.25 <
-3 8 11 -1 2.60 3.74 1.25 o
3 -8 -11 1 2.60 2.81 1.25 <
-4 8 11 2 3.01 0.00 1.25 <
4 -8 -11 -2 3.01 0.94 1.25 <
-3 8 11 0 9.84 6.87 1.25 o
3 -8 -11 0 9.84 4.37 1.25 o
-2 8 11 -2 1.37 -0.31 1.25 <
2 -8 -11 2 1.37 0.31 1.25 <
-3 8 11 1 0.99 2.81 1.25 <
3 -8 -11 -1 0.99 -4.37 1.25 <
-2 8 11 -1 1.58 -0.62 1.25 <
2 -8 -11 1 1.58 0.31 1.25 <
-3 8 11 2 0.97 0.94 1.25 <
3 -8 -11 -2 0.97 3.12 1.25 <
-2 8 11 0 0.75 1.56 1.25 <
2 -8 -11 0 0.75 -0.31 1.25 <
-1 8 11 -2 1.64 0.31 1.25 <
1 -8 -11 2 1.64 0.94 1.25 <
-2 8 11 1 7.03 1.87 1.25 <
2 -8 -11 -1 7.03 0.00 1.25 <
-1 8 11 -1 0.19 3.43 1.25 <
1 -8 -11 1 0.19 -3.43 2.50 <
-2 8 11 2 0.09 -0.31 5.31 <
2 -8 -11 -2 0.09 -4.06 1.87 <
-1 8 11 0 2.24 -6.87 1.87 <
1 -8 -11 0 2.24 5.93 2.18 <
0 8 11 -2 0.63 -1.87 2.18 <
0 -8 -11 2 0.63 6.55 2.18 <
-1 8 11 1 1.07 -6.55 2.50 <
1 -8 -11 -1 1.07 -4.99 2.18 <
-6 9 11 2 0.01 2.50 1.56 <
6 -9 -11 -2 0.01 5.93 1.56 o
-5 9 11 0 0.60 -1.56 1.56 <
5 -9 -11 0 0.60 9.36 1.56 o
-4 9 11 -2 0.54 1.25 1.25 <
4 -9 -11 2 0.54 -2.50 1.56 <
-5 9 11 1 2.88 2.81 1.25 <
5 -9 -11 -1 2.88 4.68 1.56 <
-4 9 11 -1 0.96 0.00 1.25 <
4 -9 -11 1 0.96 1.56 1.56 <
-5 9 11 2 1.34 0.94 1.25 <
5 -9 -11 -2 1.34 -0.31 1.25 <
-4 9 11 0 1.31 4.99 1.25 o
4 -9 -11 0 1.31 7.80 1.25 o
-3 9 11 -2 0.12 1.87 1.25 <
3 -9 -11 2 0.12 3.12 1.25 <
-4 9 11 1 1.56 0.00 1.25 <
4 -9 -11 -1 1.56 0.94 1.25 <
-3 9 11 -1 1.55 2.50 1.25 <
3 -9 -11 1 1.55 2.50 1.25 <
-4 9 11 2 2.89 -0.31 1.25 <
4 -9 -11 -2 2.89 0.31 1.25 <
-3 9 11 0 6.93 3.43 1.25 <
3 -9 -11 0 6.93 2.50 1.25 <
-2 9 11 -2 1.10 -0.31 1.25 <
2 -9 -11 2 1.10 0.62 1.25 <
-3 9 11 1 0.80 -0.31 1.25 <
3 -9 -11 -1 0.80 -0.94 1.25 <
-2 9 11 -1 0.88 1.25 1.25 <
2 -9 -11 1 0.88 -1.87 1.25 <
-3 9 11 2 1.10 0.62 1.25 <
3 -9 -11 -2 1.10 -3.74 1.25 <
-2 9 11 0 1.05 1.87 1.25 <
2 -9 -11 0 1.05 0.62 1.25 <
-1 9 11 -2 1.24 -0.31 1.25 <
1 -9 -11 2 1.24 -1.87 1.25 <
-2 9 11 1 4.04 1.56 1.25 <
2 -9 -11 -1 4.04 1.87 4.06 <
-1 9 11 -1 0.29 0.31 1.87 <
1 -9 -11 1 0.29 -0.62 2.18 <
-2 9 11 2 0.02 -2.18 2.18 <
2 -9 -11 -2 0.02 2.81 2.18 <
-1 9 11 0 1.64 8.74 2.18 o
1 -9 -11 0 1.64 -2.18 2.18 <
-5 10 11 -1 0.76 -2.50 2.18 <
5 -10 -11 1 0.76 2.81 2.18 <
-6 10 11 2 0.01 0.62 1.56 <
6 -10 -11 -2 0.01 -0.31 1.56 <
-5 10 11 0 0.23 7.18 1.56 o
5 -10 -11 0 0.23 10.92 1.56 o
-4 10 11 -2 0.65 -0.31 1.56 <
4 -10 -11 2 0.65 -1.25 1.56 <
-5 10 11 1 2.22 1.87 1.56 <
5 -10 -11 -1 2.22 2.50 1.56 <
-4 10 11 -1 1.26 2.50 1.25 <
4 -10 -11 1 1.26 4.37 1.56 <
-5 10 11 2 1.12 0.62 1.25 <
5 -10 -11 -2 1.12 3.74 1.56 <
-4 10 11 0 3.91 1.87 1.25 <
4 -10 -11 0 3.91 1.87 1.56 <
-3 10 11 -2 0.22 0.31 1.25 <
3 -10 -11 2 0.22 -0.94 1.25 <
-4 10 11 1 1.74 0.62 1.25 <
4 -10 -11 -1 1.74 1.25 1.25 <
-3 10 11 -1 1.25 1.25 1.25 <
3 -10 -11 1 1.25 -0.94 1.25 <
-4 10 11 2 2.51 1.25 1.25 <
4 -10 -11 -2 2.51 2.81 1.25 <
-3 10 11 0 3.62 0.31 1.25 <
3 -10 -11 0 3.62 0.31 1.25 <
-2 10 11 -2 0.71 -1.25 1.25 <
2 -10 -11 2 0.71 0.00 1.25 <
-3 10 11 1 0.68 0.62 1.25 <
3 -10 -11 -1 0.68 0.31 1.25 <
-2 10 11 -1 0.34 0.94 1.25 <
2 -10 -11 1 0.34 1.25 1.56 <
-3 10 11 2 1.15 2.50 1.25 <
3 -10 -11 -2 1.15 -3.43 1.56 <
-2 10 11 0 0.55 0.62 1.25 <
2 -10 -11 0 0.55 3.12 1.56 <
-1 10 11 -2 0.88 2.50 1.56 <
1 -10 -11 2 0.88 0.62 2.18 <
-2 10 11 1 1.90 0.00 2.18 <
2 -10 -11 -1 1.90 -19.35 2.18 <
-1 10 11 -1 0.43 -1.87 2.18 <
1 -10 -11 1 0.43 1.25 2.18 <
-6 11 11 2 0.04 0.62 1.56 <
6 -11 -11 -2 0.04 -0.31 1.56 <
-5 11 11 0 0.07 1.25 1.56 <
5 -11 -11 0 0.07 1.25 1.56 <
-4 11 11 -2 0.72 4.06 1.56 <
4 -11 -11 2 0.72 0.94 1.56 <
-5 11 11 1 1.33 4.68 1.56 <
5 -11 -11 -1 1.33 1.87 1.56 <
-4 11 11 -1 1.81 0.94 1.25 <
4 -11 -11 1 1.81 -1.87 1.56 <
-5 11 11 2 0.78 -0.62 1.25 <
5 -11 -11 -2 0.78 1.87 1.56 <
-4 11 11 0 4.63 -1.87 1.25 <
4 -11 -11 0 4.63 0.94 1.56 <
-3 11 11 -2 0.31 -2.18 1.25 <
3 -11 -11 2 0.31 0.31 1.56 <
-4 11 11 1 1.75 0.94 1.25 <
4 -11 -11 -1 1.75 1.56 1.56 <
-3 11 11 -1 1.45 0.00 1.25 <
3 -11 -11 1 1.45 -0.62 1.56 <
-4 11 11 2 1.94 0.00 1.25 <
4 -11 -11 -2 1.94 -0.31 1.56 <
-3 11 11 0 2.43 1.56 1.25 <
3 -11 -11 0 2.43 1.56 1.56 <
-2 11 11 -2 0.36 0.00 1.25 <
2 -11 -11 2 0.36 0.94 1.56 <
-3 11 11 1 0.56 3.74 1.25 o
3 -11 -11 -1 0.56 2.18 1.56 <
-2 11 11 -1 0.07 2.50 1.56 <
2 -11 -11 1 0.07 2.81 1.56 <
-3 11 11 2 1.06 3.12 1.56 <
3 -11 -11 -2 1.06 2.81 1.56 <
-2 11 11 0 0.41 -0.62 1.87 <
2 -11 -11 0 0.41 5.62 2.18 <
-1 11 11 -2 0.58 3.12 2.18 <
1 -11 -11 2 0.58 6.24 2.18 <
-6 12 11 2 0.10 -2.18 1.56 <
6 -12 -11 -2 0.10 -1.25 1.56 <
-5 12 11 0 0.04 2.50 1.56 <
5 -12 -11 0 0.04 0.31 1.56 <
-4 12 11 -2 0.73 1.87 1.56 <
4 -12 -11 2 0.73 4.68 1.56 <
-5 12 11 1 0.56 -0.94 1.56 <
5 -12 -11 -1 0.56 4.37 1.56 <
-4 12 11 -1 2.21 -1.25 1.56 <
4 -12 -11 1 2.21 -0.62 1.56 <
-5 12 11 2 0.44 0.94 1.56 <
5 -12 -11 -2 0.44 -5.93 1.56 <
-4 12 11 0 4.85 -2.50 1.56 <
4 -12 -11 0 4.85 1.56 1.56 <
-3 12 11 -2 0.35 -1.56 1.56 <
3 -12 -11 2 0.35 -2.18 1.56 <
-4 12 11 1 1.52 -0.94 1.56 <
4 -12 -11 -1 1.52 2.50 1.56 <
-3 12 11 -1 1.74 -1.56 1.56 <
3 -12 -11 1 1.74 0.62 1.56 <
-4 12 11 2 1.33 -1.87 1.56 <
4 -12 -11 -2 1.33 2.81 1.56 <
-3 12 11 0 1.79 -2.18 1.56 <
3 -12 -11 0 1.79 -0.31 1.56 <
-2 12 11 -2 0.13 -0.31 1.56 <
2 -12 -11 2 0.13 2.50 1.56 <
-3 12 11 1 0.42 1.87 1.56 <
3 -12 -11 -1 0.42 0.31 1.56 <
-2 12 11 -1 0.03 -1.25 1.56 <
2 -12 -11 1 0.03 0.62 1.87 <
-5 13 11 0 0.11 0.94 1.56 <
5 -13 -11 0 0.11 -1.87 1.56 <
-4 13 11 -2 0.65 -0.62 1.56 <
4 -13 -11 2 0.65 -0.94 1.56 <
-5 13 11 1 0.14 1.87 1.56 <
5 -13 -11 -1 0.14 0.94 1.56 <
-4 13 11 -1 2.23 0.31 1.56 <
4 -13 -11 1 2.23 -0.62 1.56 <
-5 13 11 2 0.20 0.62 1.56 <
5 -13 -11 -2 0.20 0.31 1.56 <
-4 13 11 0 5.26 -0.31 1.56 <
4 -13 -11 0 5.26 -1.56 1.56 <
-3 13 11 -2 0.32 1.25 1.56 <
3 -13 -11 2 0.32 0.62 1.56 <
-4 13 11 1 1.12 2.50 1.56 <
4 -13 -11 -1 1.12 5.62 1.56 o
-3 13 11 -1 1.84 2.18 1.56 <
3 -13 -11 1 1.84 0.31 1.56 <
-4 13 11 2 0.81 -1.25 1.56 <
4 -13 -11 -2 0.81 -3.12 1.56 <
-3 13 11 0 1.69 2.81 2.18 <
3 -13 -11 0 1.69 6.55 2.18 <
1 -11 12 1 0.13 -1.25 4.99 <
2 -11 12 -1 0.64 -2.18 2.50 <
1 -11 12 2 0.65 -1.87 1.87 <
2 -11 12 0 0.42 -2.50 1.56 <
-2 11 -12 0 0.42 -3.74 6.24 <
3 -11 12 -2 0.56 4.37 1.56 <
-3 11 -12 2 0.56 6.87 2.81 <
1 -10 12 -1 2.13 0.94 5.31 <
0 -10 12 2 0.93 0.62 2.81 <
1 -10 12 0 6.12 0.00 1.87 <
2 -10 12 -2 0.22 3.12 1.87 <
-2 10 -12 2 0.22 9.99 4.37 <
1 -10 12 1 0.12 0.94 1.87 <
-1 10 -12 -1 0.12 0.62 2.81 <
2 -10 12 -1 1.09 1.25 1.56 <
-2 10 -12 1 1.09 1.56 1.87 <
1 -10 12 2 0.62 0.31 1.56 <
-1 10 -12 -2 0.62 2.18 1.87 <
2 -10 12 0 0.37 -1.56 1.56 <
-2 10 -12 0 0.37 -1.25 1.56 <
3 -10 12 -2 0.59 -2.18 1.56 <
-3 10 -12 2 0.59 -2.81 1.56 <
2 -10 12 1 2.02 3.12 1.56 <
-2 10 -12 -1 2.02 -0.31 1.56 <
3 -10 12 -1 0.49 -0.62 1.25 <
-3 10 -12 1 0.49 -3.12 2.81 <
-1 -9 12 2 0.25 1.25 5.31 <
0 -9 12 0 1.91 -1.56 2.81 <
1 -9 12 -2 0.13 2.50 2.18 <
0 -9 12 1 0.43 3.74 1.87 <
0 9 -12 -1 0.43 4.06 4.99 <
1 -9 12 -1 2.59 -1.25 1.87 <
-1 9 -12 1 2.59 2.18 2.50 <
0 -9 12 2 1.21 -1.56 1.87 <
0 9 -12 -2 1.21 0.00 1.87 <
1 -9 12 0 7.28 2.81 1.56 <
-1 9 -12 0 7.28 -0.31 1.87 <
2 -9 12 -2 0.39 1.25 1.56 <
-2 9 -12 2 0.39 0.62 1.87 <
1 -9 12 1 0.17 -2.81 1.56 <
-1 9 -12 -1 0.17 -1.25 1.56 <
2 -9 12 -1 1.53 1.56 1.56 <
-2 9 -12 1 1.53 -0.31 1.56 <
1 -9 12 2 0.60 -0.31 1.56 <
-1 9 -12 -2 0.60 3.43 1.56 <
2 -9 12 0 0.49 0.00 1.56 <
-2 9 -12 0 0.49 -4.06 1.56 <
3 -9 12 -2 0.64 0.00 1.25 <
-3 9 -12 2 0.64 2.18 1.56 <
2 -9 12 1 2.86 3.12 1.25 <
-2 9 -12 -1 2.86 -0.94 2.18 <
3 -9 12 -1 0.23 1.25 1.87 <
-3 9 -12 1 0.23 -1.87 0.94 <
-1 -8 12 0 1.40 -2.50 4.68 <
0 -8 12 -2 0.57 0.31 2.81 <
-1 -8 12 1 2.68 -0.62 2.18 <
0 -8 12 -1 1.67 3.43 1.87 <
0 8 -12 1 1.67 11.23 4.68 <
-1 -8 12 2 0.52 0.94 1.87 <
1 8 -12 -2 0.52 -1.56 2.81 <
0 -8 12 0 1.69 2.50 1.87 <
0 8 -12 0 1.69 3.74 1.87 <
1 -8 12 -2 0.17 -0.94 1.87 <
-1 8 -12 2 0.17 14.35 1.87 o
0 -8 12 1 0.67 1.87 1.87 <
0 8 -12 -1 0.67 0.94 1.87 <
1 -8 12 -1 2.64 0.31 1.87 <
-1 8 -12 1 2.64 -2.18 1.87 <
0 -8 12 2 1.67 3.74 1.56 <
0 8 -12 -2 1.67 4.37 1.87 <
1 -8 12 0 8.94 0.94 1.56 <
-1 8 -12 0 8.94 -2.18 1.56 <
2 -8 12 -2 0.55 0.94 1.56 <
-2 8 -12 2 0.55 -2.50 1.56 <
1 -8 12 1 0.25 1.25 1.56 <
-1 8 -12 -1 0.25 1.56 1.56 <
2 -8 12 -1 1.72 -0.62 1.56 <
-2 8 -12 1 1.72 3.43 1.56 <
1 -8 12 2 0.70 2.50 1.25 <
-1 8 -12 -2 0.70 2.81 1.56 <
2 -8 12 0 0.57 -0.62 1.25 <
-2 8 -12 0 0.57 -0.31 1.56 <
3 -8 12 -2 0.70 -1.25 1.25 <
-3 8 -12 2 0.70 4.68 1.25 o
2 -8 12 1 3.35 0.94 1.25 <
-2 8 -12 -1 3.35 1.25 0.94 <
3 -8 12 -1 0.05 0.94 0.94 <
-3 8 -12 1 0.05 -1.25 0.94 <
-1 -7 12 -1 0.10 0.62 2.18 <
-2 -7 12 2 0.02 1.25 2.18 <
2 7 -12 -2 0.02 -1.25 5.31 <
-1 -7 12 0 1.72 -1.25 1.87 <
1 7 -12 0 1.72 3.12 2.81 <
0 -7 12 -2 0.85 -2.18 1.87 <
0 7 -12 2 0.85 -4.99 2.18 <
-1 -7 12 1 4.06 1.25 1.87 <
1 7 -12 -1 4.06 -0.31 1.87 <
0 -7 12 -1 1.20 1.25 1.87 <
0 7 -12 1 1.20 0.31 1.87 <
-1 -7 12 2 0.89 0.62 1.87 <
1 7 -12 -2 0.89 -0.62 1.87 <
0 -7 12 0 1.71 -1.25 1.87 <
0 7 -12 0 1.71 -0.62 1.87 <
1 -7 12 -2 0.30 3.12 1.87 <
-1 7 -12 2 0.30 -3.12 1.87 <
0 -7 12 1 1.40 1.87 1.56 <
0 7 -12 -1 1.40 4.68 1.87 <
1 -7 12 -1 2.31 7.49 1.56 o
-1 7 -12 1 2.31 10.30 1.87 o
0 -7 12 2 2.34 0.62 1.56 <
0 7 -12 -2 2.34 2.18 1.56 <
1 -7 12 0 9.84 -1.87 1.56 <
-1 7 -12 0 9.84 8.74 1.56 o
2 -7 12 -2 0.62 0.31 1.56 <
-2 7 -12 2 0.62 3.12 1.56 <
1 -7 12 1 0.31 -1.87 1.56 <
-1 7 -12 -1 0.31 -0.94 1.56 <
2 -7 12 -1 1.49 3.74 1.25 o
-2 7 -12 1 1.49 2.18 1.56 <
1 -7 12 2 1.01 0.00 1.25 <
-1 7 -12 -2 1.01 0.94 1.25 <
2 -7 12 0 0.22 1.56 1.25 <
-2 7 -12 0 0.22 1.25 1.25 <
3 -7 12 -2 0.75 -1.25 0.94 <
-3 7 -12 2 0.75 -0.31 0.62 <
2 -7 12 1 3.25 1.87 0.94 <
-2 7 -12 -1 3.25 3.12 0.94 o
3 -7 12 -1 0.00 1.87 0.94 <
-3 7 -12 1 0.00 -0.31 0.94 <
-1 -6 12 -2 0.95 1.25 2.18 <
1 6 -12 2 0.95 4.37 2.81 <
-2 -6 12 1 1.57 3.43 2.18 <
2 6 -12 -1 1.57 -1.87 2.18 <
-1 -6 12 -1 0.44 -0.31 2.18 <
1 6 -12 1 0.44 5.93 2.18 <
-2 -6 12 2 0.07 1.25 1.87 <
2 6 -12 -2 0.07 3.43 2.18 <
-1 -6 12 0 1.63 7.18 1.87 o
1 6 -12 0 1.63 -4.68 1.87 <
0 -6 12 -2 1.37 1.25 1.87 <
0 6 -12 2 1.37 -4.68 1.87 <
-1 -6 12 1 5.21 0.62 1.87 <
1 6 -12 -1 5.21 1.87 1.87 <
0 -6 12 -1 0.99 3.74 1.87 <
0 6 -12 1 0.99 1.87 1.87 <
-1 -6 12 2 1.24 -0.62 1.87 <
1 6 -12 -2 1.24 1.56 1.87 <
0 -6 12 0 2.09 0.31 1.56 <
0 6 -12 0 2.09 -1.25 1.87 <
1 -6 12 -2 0.61 1.56 1.56 <
-1 6 -12 2 0.61 -4.06 1.87 <
0 -6 12 1 2.74 0.94 1.56 <
0 6 -12 -1 2.74 -4.99 1.56 <
1 -6 12 -1 2.03 11.86 1.56 o
-1 6 -12 1 2.03 4.37 1.56 <
0 -6 12 2 3.04 0.94 1.56 <
0 6 -12 -2 3.04 -0.31 1.56 <
1 -6 12 0 6.83 1.56 1.56 <
-1 6 -12 0 6.83 -3.74 1.56 <
2 -6 12 -2 0.54 2.50 1.25 <
-2 6 -12 2 0.54 3.43 1.56 <
1 -6 12 1 0.33 1.56 1.25 <
-1 6 -12 -1 0.33 -1.87 1.56 <
2 -6 12 -1 0.91 0.00 1.25 <
-2 6 -12 1 0.91 -0.94 1.25 <
1 -6 12 2 1.48 1.56 1.25 <
-1 6 -12 -2 1.48 0.31 0.94 <
2 -6 12 0 0.09 0.31 0.62 <
-2 6 -12 0 0.09 1.87 0.62 o
3 -6 12 -2 0.75 1.25 0.62 <
-3 6 -12 2 0.75 0.31 0.62 <
2 -6 12 1 2.58 0.31 0.62 <
-2 6 -12 -1 2.58 2.50 0.62 o
3 -6 12 -1 0.06 -0.62 0.94 <
-3 6 -12 1 0.06 1.25 0.62 <
-3 -5 12 2 0.86 0.62 2.50 <
3 5 -12 -2 0.86 -0.31 1.56 <
-2 -5 12 0 2.70 2.18 3.43 <
2 5 -12 0 2.70 -0.62 1.56 <
-1 -5 12 -2 1.36 -1.25 4.68 <
1 5 -12 2 1.36 2.81 1.56 <
-2 -5 12 1 2.49 -0.31 1.87 <
2 5 -12 -1 2.49 -3.43 1.56 <
-1 -5 12 -1 1.03 -1.25 1.87 <
1 5 -12 1 1.03 -1.25 1.87 <
-2 -5 12 2 0.28 -4.37 1.87 <
2 5 -12 -2 0.28 -4.37 2.18 <
-1 -5 12 0 0.61 2.81 1.87 <
1 5 -12 0 0.61 -1.25 3.43 <
0 -5 12 -2 2.18 1.56 1.87 <
0 5 -12 2 2.18 -0.94 1.87 <
-1 -5 12 1 5.55 1.25 1.87 <
1 5 -12 -1 5.55 3.43 1.87 <
0 -5 12 -1 1.71 0.94 1.56 <
0 5 -12 1 1.71 -3.43 1.87 <
-1 -5 12 2 1.41 2.18 1.56 <
1 5 -12 -2 1.41 0.00 1.87 <
0 -5 12 0 4.80 5.93 1.56 o
0 5 -12 0 4.80 6.55 1.87 o
1 -5 12 -2 1.16 -1.56 1.56 <
-1 5 -12 2 1.16 4.99 1.56 o
0 -5 12 1 4.49 1.87 1.56 <
0 5 -12 -1 4.49 7.49 1.56 o
1 -5 12 -1 2.43 10.30 1.56 o
-1 5 -12 1 2.43 6.55 1.56 o
0 -5 12 2 3.53 5.93 1.56 o
0 5 -12 -2 3.53 2.81 1.56 <
1 -5 12 0 6.13 3.12 1.25 <
-1 5 -12 0 6.13 -2.81 1.56 <
2 -5 12 -2 0.36 3.12 1.25 <
-2 5 -12 2 0.36 3.12 1.56 <
1 -5 12 1 0.33 1.25 1.25 <
-1 5 -12 -1 0.33 2.18 1.25 <
2 -5 12 -1 0.30 4.37 3.12 <
-2 5 -12 1 0.30 0.94 0.62 <
1 -5 12 2 1.95 2.18 0.62 o
-1 5 -12 -2 1.95 0.62 0.62 <
2 -5 12 0 0.32 0.94 0.62 <
-2 5 -12 0 0.32 1.25 0.62 <
3 -5 12 -2 0.70 2.18 0.62 o
-3 5 -12 2 0.70 0.94 0.62 <
2 -5 12 1 1.62 2.50 0.62 o
-2 5 -12 -1 1.62 -0.31 0.62 <
-3 -4 12 1 0.44 -3.74 1.56 <
3 4 -12 -1 0.44 0.94 1.56 <
-2 -4 12 -1 0.07 0.31 1.56 <
2 4 -12 1 0.07 3.12 1.56 <
-3 -4 12 2 1.44 0.62 1.56 <
3 4 -12 -2 1.44 -0.94 1.56 <
-2 -4 12 0 4.23 0.62 1.25 <
2 4 -12 0 4.23 2.50 1.56 <
-1 -4 12 -2 1.71 0.00 1.25 <
1 4 -12 2 1.71 2.18 1.25 <
-2 -4 12 1 3.52 -0.31 1.25 <
2 4 -12 -1 3.52 -0.62 1.25 <
-1 -4 12 -1 1.69 1.87 1.25 <
1 4 -12 1 1.69 0.62 1.25 <
-2 -4 12 2 0.76 0.62 1.25 <
2 4 -12 -2 0.76 2.81 1.25 <
-1 -4 12 0 0.08 0.62 1.56 <
1 4 -12 0 0.08 0.62 1.25 <
0 -4 12 -2 3.25 -1.25 1.56 <
0 4 -12 2 3.25 1.25 1.25 <
-1 -4 12 1 4.67 -1.25 1.87 <
1 4 -12 -1 4.67 2.81 1.25 <
0 -4 12 -1 3.77 -6.87 3.12 <
0 4 -12 1 3.77 3.12 1.25 <
-1 -4 12 2 1.26 -2.50 1.56 <
1 4 -12 -2 1.26 0.31 1.25 <
0 -4 12 0 7.13 5.62 1.56 o
0 4 -12 0 7.13 2.81 1.56 <
1 -4 12 -2 1.89 -3.74 1.56 <
-1 4 -12 2 1.89 -0.31 2.18 <
0 -4 12 1 6.11 6.24 1.56 o
0 4 -12 -1 6.11 13.11 4.06 o
1 -4 12 -1 3.80 1.87 1.25 <
-1 4 -12 1 3.80 -2.18 1.56 <
0 -4 12 2 3.57 6.24 1.25 o
0 4 -12 -2 3.57 5.31 1.56 o
1 -4 12 0 5.04 2.50 1.25 <
-1 4 -12 0 5.04 0.94 1.56 <
2 -4 12 -2 0.15 1.87 1.25 <
-2 4 -12 2 0.15 3.43 1.25 <
1 -4 12 1 0.37 4.37 1.25 o
-1 4 -12 -1 0.37 0.31 0.62 <
2 -4 12 -1 0.00 0.94 0.62 <
-2 4 -12 1 0.00 0.62 0.62 <
1 -4 12 2 2.21 4.06 0.62 o
-1 4 -12 -2 2.21 1.25 0.94 <
2 -4 12 0 0.69 3.12 0.62 o
-2 4 -12 0 0.69 -0.94 0.94 <
3 -4 12 -2 0.58 0.31 0.62 <
-3 4 -12 2 0.58 0.94 0.94 <
2 -4 12 1 0.74 -1.87 0.94 <
-2 4 -12 -1 0.74 2.81 0.94 <
-3 -3 12 0 1.41 -1.25 1.56 <
3 3 -12 0 1.41 0.00 1.56 <
-2 -3 12 -2 0.03 0.94 1.56 <
2 3 -12 2 0.03 3.12 1.56 <
-3 -3 12 1 0.44 1.87 1.56 <
3 3 -12 -1 0.44 -1.25 1.56 <
-2 -3 12 -1 0.21 1.87 1.25 <
2 3 -12 1 0.21 1.25 1.56 <
-3 -3 12 2 2.22 0.00 1.25 <
3 3 -12 -2 2.22 2.18 1.56 <
-2 -3 12 0 6.71 0.94 1.25 <
2 3 -12 0 6.71 -1.25 1.25 <
-1 -3 12 -2 1.86 3.43 1.25 <
1 3 -12 2 1.86 0.00 1.25 <
-2 -3 12 1 4.51 -0.62 1.25 <
2 3 -12 -1 4.51 0.31 1.25 <
-1 -3 12 -1 2.18 1.87 1.25 <
1 3 -12 1 2.18 1.87 1.25 <
-2 -3 12 2 1.53 2.50 1.25 <
2 3 -12 -2 1.53 1.56 1.25 <
-1 -3 12 0 0.18 1.25 1.25 <
1 3 -12 0 0.18 2.50 1.25 <
0 -3 12 -2 4.36 0.00 1.25 <
0 3 -12 2 4.36 3.12 1.25 <
-1 -3 12 1 2.81 0.00 0.94 <
1 3 -12 -1 2.81 1.87 1.25 <
0 -3 12 -1 6.79 4.06 0.94 o
0 3 -12 1 6.79 4.68 0.94 o
-1 -3 12 2 0.85 -0.62 0.94 <
1 3 -12 -2 0.85 2.18 0.94 <
0 -3 12 0 12.67 9.67 0.94 o
0 3 -12 0 12.67 10.92 0.94 o
1 -3 12 -2 2.52 1.25 0.94 <
-1 3 -12 2 2.52 1.56 0.94 <
0 -3 12 1 6.95 0.94 0.94 <
0 3 -12 -1 6.95 3.43 0.94 o
1 -3 12 -1 5.78 -0.62 0.94 <
-1 3 -12 1 5.78 1.56 0.94 <
0 -3 12 2 3.15 3.12 1.25 <
0 3 -12 -2 3.15 4.68 0.94 o
1 -3 12 0 3.92 3.12 1.25 <
-1 3 -12 0 3.92 1.87 0.94 <
2 -3 12 -2 0.03 1.87 0.62 o
-2 3 -12 2 0.03 1.25 0.94 <
1 -3 12 1 0.40 0.62 0.62 <
-1 3 -12 -1 0.40 0.31 0.94 <
2 -3 12 -1 0.16 0.94 0.62 <
-2 3 -12 1 0.16 -0.62 0.94 <
1 -3 12 2 2.15 -0.31 0.62 <
-1 3 -12 -2 2.15 0.31 0.94 <
2 -3 12 0 0.56 -0.62 0.94 <
-2 3 -12 0 0.56 -0.62 0.94 <
3 -3 12 -2 0.44 2.18 0.94 <
-3 3 -12 2 0.44 0.31 0.94 <
-4 -2 12 2 1.03 -1.87 1.56 <
4 2 -12 -2 1.03 3.74 1.56 <
-3 -2 12 0 2.92 -1.87 1.56 <
3 2 -12 0 2.92 0.62 1.56 <
-2 -2 12 -2 0.07 0.31 1.25 <
2 2 -12 2 0.07 2.18 1.56 <
-3 -2 12 1 0.66 -2.50 1.25 <
3 2 -12 -1 0.66 -1.56 1.56 <
-2 -2 12 -1 0.74 -2.50 1.25 <
2 2 -12 1 0.74 4.37 1.25 o
-3 -2 12 2 3.11 -0.62 1.25 <
3 2 -12 -2 3.11 -2.18 1.25 <
-2 -2 12 0 8.03 2.81 1.25 <
2 2 -12 0 8.03 3.12 1.25 <
-1 -2 12 -2 1.74 0.62 1.25 <
1 2 -12 2 1.74 2.81 1.25 <
-2 -2 12 1 5.22 0.62 1.25 <
2 2 -12 -1 5.22 1.56 1.25 <
-1 -2 12 -1 2.34 4.37 1.25 o
1 2 -12 1 2.34 -2.50 1.25 <
-2 -2 12 2 2.54 1.87 1.25 <
2 2 -12 -2 2.54 0.62 1.25 <
-1 -2 12 0 0.71 1.25 1.25 <
1 2 -12 0 0.71 3.74 1.25 o
0 -2 12 -2 5.20 0.62 0.94 <
0 2 -12 2 5.20 -3.43 0.94 <
-1 -2 12 1 1.00 -1.25 0.94 <
1 2 -12 -1 1.00 2.50 0.94 <
0 -2 12 -1 9.63 17.16 0.94 o
0 2 -12 1 9.63 14.67 1.25 o
-1 -2 12 2 0.38 -0.94 0.94 <
1 2 -12 -2 0.38 -1.87 0.94 <
0 -2 12 0 17.33 20.91 0.94 o
0 2 -12 0 17.33 18.72 0.94 o
1 -2 12 -2 2.75 3.12 0.94 o
-1 2 -12 2 2.75 1.25 0.94 <
0 -2 12 1 6.56 3.12 0.94 o
0 2 -12 -1 6.56 6.55 0.94 o
1 -2 12 -1 7.48 4.68 0.94 o
-1 2 -12 1 7.48 3.74 0.94 o
0 -2 12 2 2.43 1.87 0.94 <
0 2 -12 -2 2.43 2.50 0.94 <
1 -2 12 0 4.41 1.87 0.94 <
-1 2 -12 0 4.41 1.56 1.87 <
2 -2 12 -2 0.01 0.00 1.25 <
-2 2 -12 2 0.01 4.99 1.56 o
1 -2 12 1 0.40 -0.94 0.94 <
-1 2 -12 -1 0.40 -2.81 1.56 <
2 -2 12 -1 0.62 -0.94 0.94 <
-2 2 -12 1 0.62 0.62 1.56 <
1 -2 12 2 1.81 -0.62 0.94 <
-1 2 -12 -2 1.81 1.25 5.31 <
2 -2 12 0 0.54 2.18 0.94 <
-2 2 -12 0 0.54 -2.81 2.81 <
-3 -1 12 -1 2.47 1.87 1.56 <
3 1 -12 1 2.47 6.24 1.56 o
-4 -1 12 2 1.07 -1.56 1.56 <
4 1 -12 -2 1.07 0.94 1.56 <
-3 -1 12 0 5.23 3.12 1.25 <
3 1 -12 0 5.23 0.00 1.56 <
-2 -1 12 -2 0.15 -0.94 1.25 <
2 1 -12 2 0.15 10.30 1.25 o
-3 -1 12 1 1.18 2.50 1.25 <
3 1 -12 -1 1.18 0.00 1.25 <
-2 -1 12 -1 1.91 -1.87 1.25 <
2 1 -12 1 1.91 1.25 1.25 <
-3 -1 12 2 3.96 1.56 1.25 <
3 1 -12 -2 3.96 -3.12 1.25 <
-2 -1 12 0 14.12 0.62 1.25 <
2 1 -12 0 14.12 3.43 1.25 <
-1 -1 12 -2 1.42 2.81 1.25 <
1 1 -12 2 1.42 0.62 1.25 <
-2 -1 12 1 5.40 0.62 1.25 <
2 1 -12 -1 5.40 3.43 1.25 <
-1 -1 12 -1 2.31 -0.62 1.25 <
1 1 -12 1 2.31 0.62 1.25 <
-2 -1 12 2 3.52 1.25 0.94 <
2 1 -12 -2 3.52 0.62 1.25 <
-1 -1 12 0 0.33 4.06 0.94 o
1 1 -12 0 0.33 3.43 0.94 o
0 -1 12 -2 5.53 4.06 0.94 o
0 1 -12 2 5.53 4.99 0.94 o
-1 -1 12 1 0.63 -1.25 0.94 <
1 1 -12 -1 0.63 -1.87 0.94 <
0 -1 12 -1 11.00 14.98 0.94 o
0 1 -12 1 11.00 16.85 0.94 o
-1 -1 12 2 0.08 0.94 0.94 <
1 1 -12 -2 0.08 1.56 0.94 <
0 -1 12 0 24.93 28.09 0.94 o
0 1 -12 0 24.93 27.46 0.94 o
1 -1 12 -2 2.48 2.18 0.94 <
-1 1 -12 2 2.48 -0.94 0.94 <
0 -1 12 1 5.05 5.62 0.94 o
0 1 -12 -1 5.05 3.12 0.94 o
1 -1 12 -1 8.11 4.99 0.94 o
-1 1 -12 1 8.11 5.31 0.94 o
0 -1 12 2 1.69 -0.62 0.94 <
0 1 -12 -2 1.69 2.18 1.56 <
1 -1 12 0 3.43 5.31 1.56 o
-1 1 -12 0 3.43 7.80 1.56 o
2 -1 12 -2 0.07 1.25 1.56 <
-2 1 -12 2 0.07 -1.87 1.56 <
1 -1 12 1 0.34 1.87 1.56 <
-1 1 -12 -1 0.34 -1.56 1.56 <
2 -1 12 -1 1.13 1.25 1.56 <
-2 1 -12 1 1.13 -0.62 1.56 <
1 -1 12 2 1.33 -0.62 1.56 <
-1 1 -12 -2 1.33 5.62 1.87 <
-3 0 12 -2 0.52 0.62 1.56 <
3 0 -12 2 0.52 -0.62 1.56 <
-4 0 12 1 0.08 -0.31 1.56 <
4 0 -12 -1 0.08 -1.56 1.56 <
-3 0 12 -1 4.02 0.31 1.25 <
3 0 -12 1 4.02 -1.25 1.56 <
-4 0 12 2 1.02 0.62 1.25 <
4 0 -12 -2 1.02 2.50 1.56 <
-3 0 12 0 6.91 2.81 1.25 <
3 0 -12 0 6.91 4.06 1.25 o
-2 0 12 -2 0.24 0.00 1.25 <
2 0 -12 2 0.24 -0.62 1.25 <
-3 0 12 1 1.91 -3.12 1.25 <
3 0 -12 -1 1.91 3.74 1.25 o
-2 0 12 -1 3.79 2.18 1.25 <
2 0 -12 1 3.79 3.43 1.25 <
-3 0 12 2 4.62 3.43 1.25 <
3 0 -12 -2 4.62 3.12 1.25 <
-2 0 12 0 20.04 8.74 1.25 o
2 0 -12 0 20.04 3.43 1.25 <
-1 0 12 -2 1.13 1.25 1.25 <
1 0 -12 2 1.13 0.62 1.25 <
-2 0 12 1 4.98 6.24 1.25 o
2 0 -12 -1 4.98 7.80 1.25 o
-1 0 12 -1 2.41 2.81 0.94 <
1 0 -12 1 2.41 0.62 0.94 <
-2 0 12 2 4.09 3.12 0.94 o
2 0 -12 -2 4.09 1.56 0.94 <
-1 0 12 0 1.64 -0.62 0.94 <
1 0 -12 0 1.64 0.00 0.94 <
0 0 12 -2 5.30 3.74 0.94 o
0 0 -12 2 5.30 5.62 0.94 o
-1 0 12 1 2.57 2.18 0.94 <
1 0 -12 -1 2.57 0.94 0.94 <
0 0 12 -1 10.26 22.47 0.94 o
0 0 -12 1 10.26 20.60 0.94 o
-1 0 12 2 0.01 1.87 0.94 <
1 0 -12 -2 0.01 -0.62 0.94 <
0 0 12 0 28.94 30.89 0.94 o
0 0 -12 0 28.94 32.77 0.94 o
1 0 12 -2 1.88 0.62 0.94 <
-1 0 -12 2 1.88 0.00 0.94 <
0 0 12 1 3.03 0.94 0.94 <
0 0 -12 -1 3.03 2.18 0.94 <
1 0 12 -1 7.42 0.62 1.25 <
-1 0 -12 1 7.42 2.50 1.56 <
0 0 12 2 1.12 -3.74 1.56 <
0 0 -12 -2 1.12 2.18 1.56 <
1 0 12 0 4.74 -0.62 1.56 <
-1 0 -12 0 4.74 -3.74 1.56 <
2 0 12 -2 0.15 -3.12 1.56 <
-2 0 -12 2 0.15 -6.24 1.56 <
1 0 12 1 0.24 2.81 1.56 <
-1 0 -12 -1 0.24 1.87 1.87 <
2 0 12 -1 1.44 3.12 1.87 <
-2 0 -12 1 1.44 5.62 1.87 <
-4 1 12 0 1.53 6.24 1.56 o
4 -1 -12 0 1.53 4.37 1.56 <
-3 1 12 -2 0.68 0.94 1.56 <
3 -1 -12 2 0.68 -0.31 1.56 <
-4 1 12 1 0.49 -0.31 1.25 <
4 -1 -12 -1 0.49 0.31 1.56 <
-3 1 12 -1 5.52 3.12 1.25 <
3 -1 -12 1 5.52 0.62 1.56 <
-4 1 12 2 0.93 4.06 1.25 o
4 -1 -12 -2 0.93 3.74 1.25 o
-3 1 12 0 11.08 8.11 1.25 o
3 -1 -12 0 11.08 3.74 1.25 o
-2 1 12 -2 0.32 0.31 1.25 <
2 -1 -12 2 0.32 2.50 1.25 <
-3 1 12 1 2.61 4.99 1.25 o
3 -1 -12 -1 2.61 0.00 1.25 <
-2 1 12 -1 5.95 2.81 1.25 <
2 -1 -12 1 5.95 6.87 1.25 o
-3 1 12 2 4.93 1.87 1.25 <
3 -1 -12 -2 4.93 3.43 1.25 <
-2 1 12 0 15.29 24.97 1.25 o
2 -1 -12 0 15.29 29.33 1.25 o
-1 1 12 -2 1.11 1.87 1.25 <
1 -1 -12 2 1.11 2.50 1.25 <
-2 1 12 1 4.17 6.87 1.25 o
2 -1 -12 -1 4.17 5.31 1.25 o
-1 1 12 -1 2.88 0.00 0.94 <
1 -1 -12 1 2.88 1.25 0.94 <
-2 1 12 2 3.90 4.06 0.94 o
2 -1 -12 -2 3.90 1.87 0.94 <
-1 1 12 0 3.75 -0.31 0.94 <
1 -1 -12 0 3.75 0.62 0.94 <
0 1 12 -2 4.67 1.87 0.94 <
0 -1 -12 2 4.67 0.62 0.94 <
-1 1 12 1 6.25 5.62 0.94 o
1 -1 -12 -1 6.25 4.06 0.94 o
0 1 12 -1 7.79 12.79 0.94 o
0 -1 -12 1 7.79 12.79 0.94 o
-1 1 12 2 0.10 0.62 0.94 <
1 -1 -12 -2 0.10 1.25 0.94 <
0 1 12 0 20.84 2.50 0.94 <
0 -1 -12 0 20.84 3.43 0.94 o
1 1 12 -2 1.26 -0.94 0.94 <
-1 -1 -12 2 1.26 0.31 0.94 <
0 1 12 1 1.28 0.31 1.87 <
0 -1 -12 -1 1.28 1.87 1.56 <
1 1 12 -1 5.74 1.56 1.56 <
-1 -1 -12 1 5.74 1.25 1.87 <
0 1 12 2 0.78 -7.18 1.56 <
0 -1 -12 -2 0.78 0.31 1.87 <
1 1 12 0 4.99 1.56 1.56 <
-1 -1 -12 0 4.99 -2.81 1.87 <
2 1 12 -2 0.18 -6.87 1.87 <
-2 -1 -12 2 0.18 4.68 1.87 <
1 1 12 1 0.16 -4.68 1.87 <
-1 -1 -12 -1 0.16 5.62 1.87 <
-5 2 12 2 0.10 0.94 1.56 <
5 -2 -12 -2 0.10 2.50 1.56 <
-4 2 12 0 2.01 -0.62 1.56 <
4 -2 -12 0 2.01 2.18 1.56 <
-3 2 12 -2 0.81 -0.31 1.25 <
3 -2 -12 2 0.81 0.62 1.56 <
-4 2 12 1 1.43 0.94 1.25 <
4 -2 -12 -1 1.43 2.50 1.56 <
-3 2 12 -1 6.40 4.99 1.25 o
3 -2 -12 1 6.40 6.55 1.25 o
-4 2 12 2 0.96 2.81 1.25 <
4 -2 -12 -2 0.96 4.37 1.25 o
-3 2 12 0 12.93 9.36 1.25 o
3 -2 -12 0 12.93 16.23 1.25 o
-2 2 12 -2 0.34 2.18 1.25 <
2 -2 -12 2 0.34 0.94 1.25 <
-3 2 12 1 2.98 2.18 1.25 <
3 -2 -12 -1 2.98 3.12 1.25 <
-2 2 12 -1 7.44 18.41 1.25 o
2 -2 -12 1 7.44 15.60 1.25 o
-3 2 12 2 4.95 3.43 1.25 <
3 -2 -12 -2 4.95 2.50 1.25 <
-2 2 12 0 20.54 63.97 1.25 o
2 -2 -12 0 20.54 63.04 1.56 o
-1 2 12 -2 1.43 -0.94 1.25 <
1 -2 -12 2 1.43 2.18 1.25 <
-2 2 12 1 3.31 10.30 0.94 o
2 -2 -12 -1 3.31 11.55 1.25 o
-1 2 12 -1 3.45 1.87 0.94 <
1 -2 -12 1 3.45 1.87 0.94 <
-2 2 12 2 2.99 2.18 0.94 <
2 -2 -12 -2 2.99 2.81 1.25 <
-1 2 12 0 3.06 15.92 1.25 o
1 -2 -12 0 3.06 15.60 1.25 o
0 2 12 -2 3.87 2.81 0.94 <
0 -2 -12 2 3.87 0.31 0.94 <
-1 2 12 1 9.87 2.50 0.94 <
1 -2 -12 -1 9.87 1.87 0.94 <
0 2 12 -1 4.73 2.50 0.94 <
0 -2 -12 1 4.73 2.18 0.94 <
-1 2 12 2 0.20 1.56 0.94 <
1 -2 -12 -2 0.20 1.25 0.94 <
0 2 12 0 11.81 0.62 0.94 <
0 -2 -12 0 11.81 -2.18 1.25 <
1 2 12 -2 0.83 -7.49 4.06 <
-1 -2 -12 2 0.83 -4.37 1.87 <
0 2 12 1 0.29 -1.25 1.56 <
0 -2 -12 -1 0.29 -1.56 1.87 <
1 2 12 -1 3.72 -10.30 1.87 <
-1 -2 -12 1 3.72 3.12 1.87 <
0 2 12 2 0.61 -1.87 1.87 <
0 -2 -12 -2 0.61 0.00 1.87 <
1 2 12 0 4.22 -0.94 1.87 <
-1 -2 -12 0 4.22 0.94 1.87 <
2 2 12 -2 0.16 1.56 1.87 <
-2 -2 -12 2 0.16 -1.25 1.87 <
-4 3 12 -1 0.30 0.31 1.56 <
4 -3 -12 1 0.30 1.87 1.56 <
-5 3 12 2 0.14 2.81 1.56 <
5 -3 -12 -2 0.14 -0.31 1.56 <
-4 3 12 0 2.66 -3.12 1.25 <
4 -3 -12 0 2.66 3.74 2.18 <
-3 3 12 -2 0.90 -0.94 1.25 <
3 -3 -12 2 0.90 1.25 1.56 <
-4 3 12 1 2.92 0.94 1.25 <
4 -3 -12 -1 2.92 2.81 1.25 <
-3 3 12 -1 6.15 9.67 1.25 o
3 -3 -12 1 6.15 3.43 1.25 <
-4 3 12 2 1.25 -0.62 1.25 <
4 -3 -12 -2 1.25 12.17 1.25 o
-3 3 12 0 9.14 6.55 1.25 o
3 -3 -12 0 9.14 8.11 1.25 o
-2 3 12 -2 0.30 1.87 1.25 <
2 -3 -12 2 0.30 4.37 1.25 o
-3 3 12 1 2.86 1.87 1.25 <
3 -3 -12 -1 2.86 2.81 1.25 <
-2 3 12 -1 7.31 19.04 1.25 o
2 -3 -12 1 7.31 23.09 1.25 o
-3 3 12 2 4.94 1.87 1.25 <
3 -3 -12 -2 4.94 0.31 1.25 <
-2 3 12 0 18.38 53.05 1.25 o
2 -3 -12 0 18.38 50.55 1.25 o
-1 3 12 -2 1.88 2.18 0.94 <
1 -3 -12 2 1.88 0.31 0.94 <
-2 3 12 1 2.54 8.74 1.25 o
2 -3 -12 -1 2.54 11.55 1.25 o
-1 3 12 -1 3.58 0.31 0.94 <
1 -3 -12 1 3.58 2.81 0.94 <
-2 3 12 2 1.89 2.18 0.94 <
2 -3 -12 -2 1.89 1.56 1.25 <
-1 3 12 0 1.32 2.18 0.94 <
1 -3 -12 0 1.32 3.12 0.94 o
0 3 12 -2 3.12 0.62 0.94 <
0 -3 -12 2 3.12 0.62 0.94 <
-1 3 12 1 11.59 -1.25 0.94 <
1 -3 -12 -1 11.59 0.94 0.94 <
0 3 12 -1 2.21 -1.87 0.94 <
0 -3 -12 1 2.21 3.12 1.25 <
-1 3 12 2 0.22 -1.25 0.94 <
1 -3 -12 -2 0.22 4.37 1.87 <
0 3 12 0 9.41 3.12 1.87 <
0 -3 -12 0 9.41 -1.25 1.87 <
1 3 12 -2 0.62 0.31 1.87 <
-1 -3 -12 2 0.62 2.81 1.87 <
0 3 12 1 0.03 -2.81 1.87 <
0 -3 -12 -1 0.03 8.43 1.87 o
1 3 12 -1 1.97 -1.56 1.87 <
-1 -3 -12 1 1.97 16.85 1.87 o
0 3 12 2 0.53 6.55 1.87 o
0 -3 -12 -2 0.53 0.62 1.87 <
1 3 12 0 2.96 2.18 2.18 <
-1 -3 -12 0 2.96 3.12 1.87 <
-5 4 12 1 0.58 -3.43 1.56 <
5 -4 -12 -1 0.58 -1.56 1.56 <
-4 4 12 -1 0.06 -1.25 1.56 <
4 -4 -12 1 0.06 -0.62 1.56 <
-5 4 12 2 0.14 3.12 1.25 <
5 -4 -12 -2 0.14 3.43 1.56 <
-4 4 12 0 3.53 8.43 1.25 o
4 -4 -12 0 3.53 4.37 1.56 <
-3 4 12 -2 0.98 0.62 1.25 <
3 -4 -12 2 0.98 -0.94 1.25 <
-4 4 12 1 4.65 -0.62 1.25 <
4 -4 -12 -1 4.65 2.18 1.25 <
-3 4 12 -1 4.83 6.24 1.25 o
3 -4 -12 1 4.83 10.30 1.25 o
-4 4 12 2 1.82 3.43 1.25 <
4 -4 -12 -2 1.82 -1.56 1.25 <
-3 4 12 0 6.43 1.25 1.25 <
3 -4 -12 0 6.43 6.24 1.25 o
-2 4 12 -2 0.21 2.18 1.25 <
2 -4 -12 2 0.21 1.25 1.25 <
-3 4 12 1 2.41 1.56 1.25 <
3 -4 -12 -1 2.41 -0.94 1.25 <
-2 4 12 -1 5.49 13.42 1.25 o
2 -4 -12 1 5.49 13.42 1.25 o
-3 4 12 2 5.12 3.12 1.25 <
3 -4 -12 -2 5.12 5.62 1.25 o
-2 4 12 0 20.62 44.31 1.25 o
2 -4 -12 0 20.62 40.57 1.25 o
-1 4 12 -2 2.17 2.18 1.25 <
1 -4 -12 2 2.17 -0.62 1.25 <
-2 4 12 1 1.80 2.50 0.94 <
2 -4 -12 -1 1.80 1.87 1.25 <
-1 4 12 -1 3.06 3.43 0.94 o
1 -4 -12 1 3.06 1.56 1.25 <
-2 4 12 2 1.21 0.00 0.94 <
2 -4 -12 -2 1.21 2.81 1.25 <
-1 4 12 0 0.23 2.50 0.94 <
1 -4 -12 0 0.23 0.31 1.25 <
0 4 12 -2 2.50 -1.25 0.94 <
0 -4 -12 2 2.50 -0.62 1.25 <
-1 4 12 1 10.85 -0.62 0.94 <
1 -4 -12 -1 10.85 0.62 1.25 <
0 4 12 -1 0.77 0.62 1.25 <
0 -4 -12 1 0.77 3.43 3.43 <
-1 4 12 2 0.16 -1.87 1.87 <
1 -4 -12 -2 0.16 -1.25 1.87 <
0 4 12 0 5.60 2.18 1.87 <
0 -4 -12 0 5.60 10.30 1.87 o
1 4 12 -2 0.56 -0.62 1.87 <
-1 -4 -12 2 0.56 3.43 1.87 <
0 4 12 1 0.18 4.68 1.87 <
0 -4 -12 -1 0.18 2.81 1.87 <
1 4 12 -1 0.85 -1.56 1.87 <
-1 -4 -12 1 0.85 11.86 1.87 o
-4 5 12 -2 0.79 1.25 1.56 <
4 -5 -12 2 0.79 3.74 1.56 <
-5 5 12 1 0.86 1.56 1.56 <
5 -5 -12 -1 0.86 0.31 1.87 <
-4 5 12 -1 0.17 -0.62 1.25 <
4 -5 -12 1 0.17 1.87 1.56 <
-5 5 12 2 0.10 -1.25 1.25 <
5 -5 -12 -2 0.10 1.87 1.56 <
-4 5 12 0 3.11 2.50 1.25 <
4 -5 -12 0 3.11 2.50 1.56 <
-3 5 12 -2 1.10 -0.62 1.25 <
3 -5 -12 2 1.10 2.50 1.25 <
-4 5 12 1 6.02 0.00 1.25 <
4 -5 -12 -1 6.02 4.99 1.25 o
-3 5 12 -1 3.16 3.74 1.25 o
3 -5 -12 1 3.16 3.43 1.25 <
-4 5 12 2 2.46 3.74 1.25 o
4 -5 -12 -2 2.46 2.50 1.25 <
-3 5 12 0 6.30 6.87 1.25 o
3 -5 -12 0 6.30 8.43 1.25 o
-2 5 12 -2 0.13 0.00 1.25 <
2 -5 -12 2 0.13 0.31 1.25 <
-3 5 12 1 1.95 2.50 1.25 <
3 -5 -12 -1 1.95 3.74 1.25 o
-2 5 12 -1 3.13 7.18 1.25 o
2 -5 -12 1 3.13 6.55 1.25 o
-3 5 12 2 5.37 4.37 1.25 o
3 -5 -12 -2 5.37 3.74 1.25 o
-2 5 12 0 11.76 5.62 1.25 o
2 -5 -12 0 11.76 8.43 1.25 o
-1 5 12 -2 2.10 -0.62 1.25 <
1 -5 -12 2 2.10 0.62 1.25 <
-2 5 12 1 1.12 2.50 1.25 <
2 -5 -12 -1 1.12 1.87 1.25 <
-1 5 12 -1 2.14 2.81 1.25 <
1 -5 -12 1 2.14 -0.62 1.25 <
-2 5 12 2 1.11 1.56 1.25 <
2 -5 -12 -2 1.11 0.62 1.25 <
-1 5 12 0 0.03 1.56 1.25 <
1 -5 -12 0 0.03 -0.31 1.25 <
0 5 12 -2 2.00 -1.87 1.25 <
0 -5 -12 2 2.00 0.94 1.25 <
-1 5 12 1 8.40 2.50 1.25 <
1 -5 -12 -1 8.40 -4.68 1.87 <
0 5 12 -1 0.28 4.37 1.87 <
0 -5 -12 1 0.28 0.94 1.87 <
-1 5 12 2 0.07 0.94 1.87 <
1 -5 -12 -2 0.07 3.12 1.87 <
0 5 12 0 2.40 3.12 1.87 <
0 -5 -12 0 2.40 -1.87 1.87 <
1 5 12 -2 0.56 3.12 1.87 <
-1 -5 -12 2 0.56 3.43 2.18 <
0 5 12 1 0.41 2.50 2.18 <
0 -5 -12 -1 0.41 -4.68 2.18 <
-5 6 12 0 1.69 1.87 1.56 <
5 -6 -12 0 1.69 -1.25 1.56 <
-4 6 12 -2 1.09 4.37 1.56 <
4 -6 -12 2 1.09 1.25 1.56 <
-5 6 12 1 1.17 2.50 1.56 <
5 -6 -12 -1 1.17 2.81 1.56 <
-4 6 12 -1 0.70 -0.94 1.25 <
4 -6 -12 1 0.70 4.68 1.56 <
-5 6 12 2 0.04 1.87 1.25 <
5 -6 -12 -2 0.04 1.25 1.56 <
-4 6 12 0 1.34 4.37 1.25 o
4 -6 -12 0 1.34 4.68 1.25 o
-3 6 12 -2 1.31 0.62 1.25 <
3 -6 -12 2 1.31 -3.74 1.25 <
-4 6 12 1 6.43 3.74 1.25 o
4 -6 -12 -1 6.43 2.18 1.25 <
-3 6 12 -1 2.09 0.62 1.25 <
3 -6 -12 1 2.09 2.50 1.25 <
-4 6 12 2 2.79 2.81 1.25 <
4 -6 -12 -2 2.79 1.87 1.25 <
-3 6 12 0 6.09 3.74 1.25 o
3 -6 -12 0 6.09 2.81 1.25 <
-2 6 12 -2 0.16 -2.18 1.25 <
2 -6 -12 2 0.16 -0.94 1.25 <
-3 6 12 1 1.73 1.25 1.25 <
3 -6 -12 -1 1.73 1.56 1.25 <
-2 6 12 -1 1.57 2.81 1.25 <
2 -6 -12 1 1.57 0.94 1.25 <
-3 6 12 2 5.28 3.74 1.25 o
3 -6 -12 -2 5.28 3.74 1.25 o
-2 6 12 0 7.00 5.62 1.25 o
2 -6 -12 0 7.00 1.87 1.25 <
-1 6 12 -2 1.68 2.50 1.25 <
1 -6 -12 2 1.68 2.50 1.25 <
-2 6 12 1 0.65 4.68 1.25 o
2 -6 -12 -1 0.65 4.99 1.25 o
-1 6 12 -1 1.23 1.87 1.25 <
1 -6 -12 1 1.23 3.74 1.25 o
-2 6 12 2 1.34 5.62 1.25 o
2 -6 -12 -2 1.34 -5.62 1.25 <
-1 6 12 0 1.28 1.25 1.25 <
1 -6 -12 0 1.28 3.43 1.25 <
0 6 12 -2 1.54 -0.62 1.56 <
0 -6 -12 2 1.54 3.43 1.87 <
-1 6 12 1 5.46 -0.31 1.87 <
1 -6 -12 -1 5.46 -1.56 1.87 <
0 6 12 -1 0.30 -5.93 1.87 <
0 -6 -12 1 0.30 12.79 1.87 o
-1 6 12 2 0.02 8.43 1.87 o
1 -6 -12 -2 0.02 -3.43 2.18 <
0 6 12 0 1.45 5.62 2.18 <
0 -6 -12 0 1.45 3.74 2.18 <
-5 7 12 0 1.75 0.94 1.56 <
5 -7 -12 0 1.75 -1.87 1.56 <
-4 7 12 -2 1.33 0.62 1.56 <
4 -7 -12 2 1.33 0.00 1.56 <
-5 7 12 1 1.44 2.50 1.25 <
5 -7 -12 -1 1.44 -0.62 1.56 <
-4 7 12 -1 1.45 -1.25 1.25 <
4 -7 -12 1 1.45 4.06 1.56 <
-5 7 12 2 0.02 0.31 1.25 <
5 -7 -12 -2 0.02 -1.25 1.56 <
-4 7 12 0 0.71 4.68 1.25 o
4 -7 -12 0 0.71 4.68 1.25 o
-3 7 12 -2 1.56 -1.56 1.25 <
3 -7 -12 2 1.56 0.62 1.25 <
-4 7 12 1 5.64 6.87 1.25 o
4 -7 -12 -1 5.64 6.87 1.25 o
-3 7 12 -1 2.09 9.67 1.25 o
3 -7 -12 1 2.09 9.05 1.25 o
-4 7 12 2 2.59 2.81 1.25 <
4 -7 -12 -2 2.59 3.74 1.25 o
-3 7 12 0 5.36 9.36 1.25 o
3 -7 -12 0 5.36 7.80 1.25 o
-2 7 12 -2 0.32 0.94 1.25 <
2 -7 -12 2 0.32 0.00 1.25 <
-3 7 12 1 1.73 1.25 1.25 <
3 -7 -12 -1 1.73 -2.50 1.25 <
-2 7 12 -1 1.30 0.00 1.25 <
2 -7 -12 1 1.30 0.00 1.25 <
-3 7 12 2 4.62 0.62 1.25 <
3 -7 -12 -2 4.62 4.37 1.25 o
-2 7 12 0 4.08 2.81 1.25 <
2 -7 -12 0 4.08 1.87 1.25 <
-1 7 12 -2 1.11 0.62 1.25 <
1 -7 -12 2 1.11 0.62 1.25 <
-2 7 12 1 0.45 0.00 1.25 <
2 -7 -12 -1 0.45 -1.56 1.25 <
-1 7 12 -1 0.56 -0.62 1.25 <
1 -7 -12 1 0.56 1.56 1.25 <
-2 7 12 2 1.52 0.94 1.25 <
2 -7 -12 -2 1.52 3.12 1.56 <
-1 7 12 0 1.49 4.99 1.87 <
1 -7 -12 0 1.49 3.12 1.87 <
0 7 12 -2 1.11 0.62 1.87 <
0 -7 -12 2 1.11 2.81 2.18 <
-1 7 12 1 2.97 2.50 1.87 <
1 -7 -12 -1 2.97 2.50 2.18 <
0 7 12 -1 0.40 -0.31 2.18 <
0 -7 -12 1 0.40 -1.87 2.18 <
-6 8 12 2 0.68 0.31 1.56 <
6 -8 -12 -2 0.68 0.00 1.56 <
-5 8 12 0 2.38 -2.50 1.56 <
5 -8 -12 0 2.38 -0.62 1.56 <
-4 8 12 -2 1.39 -1.87 1.56 <
4 -8 -12 2 1.39 0.62 1.56 <
-5 8 12 1 1.66 0.00 1.25 <
5 -8 -12 -1 1.66 -0.62 1.56 <
-4 8 12 -1 2.04 3.12 1.25 <
4 -8 -12 1 2.04 3.43 1.56 <
-5 8 12 2 0.09 3.12 1.25 <
5 -8 -12 -2 0.09 -0.62 1.56 <
-4 8 12 0 0.83 12.48 1.56 o
4 -8 -12 0 0.83 11.86 1.56 o
-3 8 12 -2 1.73 1.87 1.25 <
3 -8 -12 2 1.73 2.81 1.25 <
-4 8 12 1 3.98 4.68 1.25 o
4 -8 -12 -1 3.98 3.74 1.25 o
-3 8 12 -1 2.84 8.43 1.25 o
3 -8 -12 1 2.84 6.24 1.25 o
-4 8 12 2 1.95 -0.94 1.25 <
4 -8 -12 -2 1.95 0.62 1.25 <
-3 8 12 0 9.48 5.62 1.25 o
3 -8 -12 0 9.48 3.74 1.25 o
-2 8 12 -2 0.53 1.87 1.25 <
2 -8 -12 2 0.53 -1.25 1.25 <
-3 8 12 1 1.77 -0.62 1.25 <
3 -8 -12 -1 1.77 -0.62 1.25 <
-2 8 12 -1 1.86 1.87 1.25 <
2 -8 -12 1 1.86 -1.87 1.25 <
-3 8 12 2 3.54 1.25 1.25 <
3 -8 -12 -2 3.54 1.87 1.25 <
-2 8 12 0 2.67 1.56 1.25 <
2 -8 -12 0 2.67 3.43 1.25 <
-1 8 12 -2 0.59 3.43 1.25 <
1 -8 -12 2 0.59 0.62 1.25 <
-2 8 12 1 0.44 -0.94 1.25 <
2 -8 -12 -1 0.44 1.87 1.25 <
-1 8 12 -1 0.19 0.31 1.25 <
1 -8 -12 1 0.19 -1.25 1.87 <
-2 8 12 2 1.48 -4.68 2.50 <
2 -8 -12 -2 1.48 5.31 2.18 <
-1 8 12 0 1.17 4.99 1.87 <
1 -8 -12 0 1.17 -2.81 2.18 <
0 8 12 -2 0.74 -5.31 2.18 <
0 -8 -12 2 0.74 -0.31 2.18 <
-6 9 12 2 0.83 5.62 1.56 o
6 -9 -12 -2 0.83 4.99 1.56 o
-5 9 12 0 2.76 0.94 1.56 <
5 -9 -12 0 2.76 0.00 1.56 <
-4 9 12 -2 1.25 1.25 1.56 <
4 -9 -12 2 1.25 0.62 1.56 <
-5 9 12 1 1.79 0.31 1.25 <
5 -9 -12 -1 1.79 2.81 1.56 <
-4 9 12 -1 2.21 0.31 1.25 <
4 -9 -12 1 2.21 4.68 1.56 <
-5 9 12 2 0.23 2.18 1.25 <
5 -9 -12 -2 0.23 1.87 1.56 <
-4 9 12 0 0.83 1.87 1.25 <
4 -9 -12 0 0.83 3.12 1.56 <
-3 9 12 -2 1.70 1.87 1.25 <
3 -9 -12 2 1.70 -1.25 1.25 <
-4 9 12 1 2.13 2.81 1.25 <
4 -9 -12 -1 2.13 0.62 1.25 <
-3 9 12 -1 3.59 2.50 1.25 <
3 -9 -12 1 3.59 2.50 1.25 <
-4 9 12 2 1.19 2.81 1.25 <
4 -9 -12 -2 1.19 0.62 1.25 <
-3 9 12 0 6.99 2.50 1.25 <
3 -9 -12 0 6.99 3.12 1.25 <
-2 9 12 -2 0.68 0.94 1.25 <
2 -9 -12 2 0.68 0.62 1.25 <
-3 9 12 1 1.65 0.00 1.25 <
3 -9 -12 -1 1.65 -2.50 1.25 <
-2 9 12 -1 2.52 0.94 1.25 <
2 -9 -12 1 2.52 1.25 1.25 <
-3 9 12 2 2.38 0.62 1.25 <
3 -9 -12 -2 2.38 1.25 1.25 <
-2 9 12 0 1.43 1.56 1.25 <
2 -9 -12 0 1.43 -1.56 1.56 <
-1 9 12 -2 0.24 0.00 1.25 <
1 -9 -12 2 0.24 3.43 1.56 <
-2 9 12 1 0.48 0.31 1.56 <
2 -9 -12 -1 0.48 -4.99 2.81 <
-1 9 12 -1 0.09 -8.11 3.74 <
1 -9 -12 1 0.09 -0.94 2.18 <
-2 9 12 2 1.23 0.94 2.18 <
2 -9 -12 -2 1.23 -6.55 2.18 <
-6 10 12 2 0.87 0.31 1.56 <
6 -10 -12 -2 0.87 -1.56 1.56 <
-5 10 12 0 3.51 -0.31 1.56 <
5 -10 -12 0 3.51 1.87 1.56 <
-4 10 12 -2 0.96 0.31 1.56 <
4 -10 -12 2 0.96 2.81 1.56 <
-5 10 12 1 1.82 -0.94 1.56 <
5 -10 -12 -1 1.82 0.31 1.56 <
-4 10 12 -1 1.93 1.56 1.25 <
4 -10 -12 1 1.93 4.99 1.56 o
-5 10 12 2 0.36 0.62 1.25 <
5 -10 -12 -2 0.36 3.43 1.56 <
-4 10 12 0 0.56 -0.62 1.25 <
4 -10 -12 0 0.56 -1.56 1.56 <
-3 10 12 -2 1.48 0.94 1.25 <
3 -10 -12 2 1.48 0.31 1.25 <
-4 10 12 1 0.73 -2.50 1.25 <
4 -10 -12 -1 0.73 1.25 1.25 <
-3 10 12 -1 3.79 2.18 1.25 <
3 -10 -12 1 3.79 -0.31 1.25 <
-4 10 12 2 0.58 0.62 1.25 <
4 -10 -12 -2 0.58 -1.25 1.56 <
-3 10 12 0 7.37 0.62 1.25 <
3 -10 -12 0 7.37 1.56 1.56 <
-2 10 12 -2 0.67 3.74 1.25 o
2 -10 -12 2 0.67 2.81 1.56 <
-3 10 12 1 1.35 0.62 1.25 <
3 -10 -12 -1 1.35 2.18 1.56 <
-2 10 12 -1 2.79 -0.94 1.25 <
2 -10 -12 1 2.79 3.12 1.56 <
-3 10 12 2 1.44 -2.81 1.56 <
3 -10 -12 -2 1.44 0.62 1.56 <
-2 10 12 0 1.20 2.81 1.56 <
2 -10 -12 0 1.20 4.99 1.56 o
-1 10 12 -2 0.07 3.74 1.56 <
1 -10 -12 2 0.07 -0.31 4.37 <
-2 10 12 1 0.46 -23.40 4.99 <
2 -10 -12 -1 0.46 0.31 2.18 <
-6 11 12 2 0.81 4.37 1.56 <
6 -11 -12 -2 0.81 2.50 1.56 <
-5 11 12 0 3.69 0.31 1.56 <
5 -11 -12 0 3.69 0.62 1.56 <
-4 11 12 -2 0.64 1.87 1.56 <
4 -11 -12 2 0.64 1.56 1.56 <
-5 11 12 1 1.72 0.62 1.56 <
5 -11 -12 -1 1.72 0.94 1.56 <
-4 11 12 -1 1.39 -0.62 1.25 <
4 -11 -12 1 1.39 1.56 1.56 <
-5 11 12 2 0.42 -0.94 1.56 <
5 -11 -12 -2 0.42 0.62 1.56 <
-4 11 12 0 0.61 -0.31 1.25 <
4 -11 -12 0 0.61 2.18 1.56 <
-3 11 12 -2 1.17 -1.87 1.25 <
3 -11 -12 2 1.17 0.62 1.56 <
-4 11 12 1 0.09 0.62 1.25 <
4 -11 -12 -1 0.09 -0.31 1.56 <
-3 11 12 -1 3.34 2.81 1.25 <
3 -11 -12 1 3.34 2.50 1.56 <
-4 11 12 2 0.23 -3.74 1.25 <
4 -11 -12 -2 0.23 1.56 1.56 <
-3 11 12 0 7.54 -0.31 1.56 <
3 -11 -12 0 7.54 4.37 1.56 <
-2 11 12 -2 0.54 3.74 1.25 o
2 -11 -12 2 0.54 -1.56 1.56 <
-3 11 12 1 0.94 1.87 1.56 <
3 -11 -12 -1 0.94 -0.62 1.56 <
-2 11 12 -1 2.58 0.31 1.56 <
2 -11 -12 1 2.58 3.43 1.56 <
-3 11 12 2 0.80 -1.56 1.56 <
3 -11 -12 -2 0.80 -0.31 1.56 <
-2 11 12 0 1.08 -0.94 2.18 <
-5 12 12 0 3.65 0.00 1.56 <
5 -12 -12 0 3.65 2.18 1.56 <
-4 12 12 -2 0.39 0.00 1.56 <
4 -12 -12 2 0.39 -2.18 1.56 <
-5 12 12 1 1.49 0.94 1.56 <
5 -12 -12 -1 1.49 1.56 1.56 <
-4 12 12 -1 0.83 0.94 1.56 <
4 -12 -12 1 0.83 0.62 1.56 <
-5 12 12 2 0.39 2.18 1.56 <
5 -12 -12 -2 0.39 1.25 1.56 <
-4 12 12 0 0.68 -0.94 1.56 <
4 -12 -12 0 0.68 2.50 1.56 <
-3 12 12 -2 0.86 1.56 1.56 <
3 -12 -12 2 0.86 0.62 1.56 <
-4 12 12 1 0.11 0.94 1.56 <
4 -12 -12 -1 0.11 1.87 1.56 <
-3 12 12 -1 2.49 -0.31 1.56 <
3 -12 -12 1 2.49 0.62 1.56 <
-4 12 12 2 0.09 0.62 1.56 <
4 -12 -12 -2 0.09 1.25 1.56 <
-3 12 12 0 6.23 1.56 1.56 <
3 -12 -12 0 6.23 0.31 1.56 <
-2 12 12 -2 0.36 -6.24 1.56 <
2 -12 -12 2 0.36 3.74 1.56 <
-3 12 12 1 0.54 2.50 2.18 <
3 -12 -12 -1 0.54 -1.25 2.18 <
-4 13 12 -2 0.26 4.99 2.18 <
4 -13 -12 2 0.26 0.62 2.18 <
-5 13 12 1 1.17 -0.31 1.56 <
5 -13 -12 -1 1.17 -0.62 1.56 <
-4 13 12 -1 0.40 0.31 1.56 <
4 -13 -12 1 0.40 0.62 1.56 <
-5 13 12 2 0.28 0.31 1.56 <
5 -13 -12 -2 0.28 4.37 1.56 <
-4 13 12 0 0.24 0.00 1.56 <
4 -13 -12 0 0.24 0.31 1.56 <
-3 13 12 -2 0.62 0.00 1.56 <
3 -13 -12 2 0.62 0.94 1.56 <
-4 13 12 1 0.46 -2.81 1.56 <
4 -13 -12 -1 0.46 -0.62 1.56 <
0 -10 13 1 2.31 3.74 2.18 <
1 -10 13 -1 0.71 2.18 1.87 <
-1 10 -13 1 0.71 -0.94 6.24 <
0 -10 13 2 0.38 -0.62 1.87 <
0 10 -13 -2 0.38 2.50 3.12 <
1 -10 13 0 1.28 1.87 1.87 <
-1 10 -13 0 1.28 3.12 2.18 <
2 -10 13 -2 0.12 2.50 1.87 <
-2 10 -13 2 0.12 -2.81 1.87 <
1 -10 13 1 0.43 -3.74 1.87 <
-1 10 -13 -1 0.43 -11.55 1.87 <
2 -10 13 -1 0.68 0.62 1.56 <
-2 10 -13 1 0.68 -1.56 1.87 <
1 -10 13 2 1.05 0.94 1.56 <
-1 10 -13 -2 1.05 1.56 1.87 <
2 -10 13 0 2.84 1.56 1.56 <
-2 10 -13 0 2.84 0.94 1.56 <
0 -9 13 -1 0.19 -0.62 2.18 <
-1 -9 13 2 0.03 2.81 2.18 <
1 9 -13 -2 0.03 7.49 6.24 <
0 -9 13 0 0.86 0.62 1.87 <
0 9 -13 0 0.86 0.00 3.12 <
1 -9 13 -2 0.83 5.93 1.87 o
-1 9 -13 2 0.83 -3.74 2.18 <
0 -9 13 1 3.29 1.25 1.87 <
0 9 -13 -1 3.29 -5.31 1.87 <
1 -9 13 -1 0.53 1.25 1.87 <
-1 9 -13 1 0.53 -1.25 1.87 <
0 -9 13 2 0.54 -0.31 1.87 <
0 9 -13 -2 0.54 -6.55 1.87 <
1 -9 13 0 1.26 2.81 1.87 <
-1 9 -13 0 1.26 -0.94 1.87 <
2 -9 13 -2 0.25 1.87 1.56 <
-2 9 -13 2 0.25 -0.94 1.87 <
1 -9 13 1 0.73 -2.81 1.56 <
-1 9 -13 -1 0.73 0.00 1.87 <
2 -9 13 -1 0.48 -0.62 1.56 <
-2 9 -13 1 0.48 0.62 1.56 <
1 -9 13 2 1.37 -0.31 1.56 <
-1 9 -13 -2 1.37 -2.18 1.56 <
2 -9 13 0 2.70 -0.31 1.56 <
-2 9 -13 0 2.70 3.12 1.56 <
3 -9 13 -2 0.21 0.62 1.56 <
-3 9 -13 2 0.21 0.62 1.56 <
0 -8 13 -2 0.99 1.56 2.18 <
0 8 -13 2 0.99 -3.12 3.12 <
-1 -8 13 1 1.02 -1.56 1.87 <
1 8 -13 -1 1.02 -3.12 2.50 <
0 -8 13 -1 0.59 0.62 1.87 <
0 8 -13 1 0.59 -1.25 2.18 <
-1 -8 13 2 0.16 0.62 1.87 <
1 8 -13 -2 0.16 -2.18 2.18 <
0 -8 13 0 1.39 4.68 1.87 <
0 8 -13 0 1.39 1.25 1.87 <
1 -8 13 -2 1.28 4.68 1.87 <
-1 8 -13 2 1.28 1.87 1.87 <
0 -8 13 1 3.92 -0.31 1.87 <
0 8 -13 -1 3.92 -3.43 1.87 <
1 -8 13 -1 0.65 1.87 1.87 <
-1 8 -13 1 0.65 -4.99 1.87 <
0 -8 13 2 0.64 -0.62 1.87 <
0 8 -13 -2 0.64 -3.74 1.87 <
1 -8 13 0 1.88 -0.62 1.56 <
-1 8 -13 0 1.88 2.18 1.87 <
2 -8 13 -2 0.49 -0.31 1.56 <
-2 8 -13 2 0.49 -4.06 1.56 <
1 -8 13 1 1.17 1.87 1.56 <
-1 8 -13 -1 1.17 -2.18 1.56 <
2 -8 13 -1 0.57 0.62 1.56 <
-2 8 -13 1 0.57 3.74 1.56 <
1 -8 13 2 1.60 3.12 1.56 <
-1 8 -13 -2 1.60 1.87 1.56 <
2 -8 13 0 2.08 -0.31 1.25 <
-2 8 -13 0 2.08 3.43 1.56 <
3 -8 13 -2 0.15 0.00 1.25 <
-3 8 -13 2 0.15 -4.68 2.18 <
2 -8 13 1 0.04 4.06 1.87 <
-2 8 -13 -1 0.04 1.56 0.94 <
-1 -7 13 -1 0.02 0.94 2.18 <
1 7 -13 1 0.02 -4.06 2.50 <
-2 -7 13 2 1.26 -0.31 2.18 <
2 7 -13 -2 1.26 -0.31 2.18 <
-1 -7 13 0 3.33 0.62 2.18 <
1 7 -13 0 3.33 -4.99 2.18 <
0 -7 13 -2 1.30 0.62 1.87 <
0 7 -13 2 1.30 1.25 1.87 <
-1 -7 13 1 1.54 -2.50 1.87 <
1 7 -13 -1 1.54 8.11 1.87 o
0 -7 13 -1 1.22 1.87 1.87 <
0 7 -13 1 1.22 -1.56 1.87 <
-1 -7 13 2 0.50 -1.87 1.87 <
1 7 -13 -2 0.50 -1.56 1.87 <
0 -7 13 0 0.94 1.25 1.87 <
0 7 -13 0 0.94 0.00 1.87 <
1 -7 13 -2 1.84 -0.94 1.87 <
-1 7 -13 2 1.84 -0.94 1.87 <
0 -7 13 1 3.80 0.94 1.87 <
0 7 -13 -1 3.80 -0.31 1.87 <
1 -7 13 -1 1.32 0.62 1.56 <
-1 7 -13 1 1.32 0.31 1.87 <
0 -7 13 2 0.61 0.94 1.56 <
0 7 -13 -2 0.61 0.62 1.87 <
1 -7 13 0 3.01 1.56 1.56 <
-1 7 -13 0 3.01 1.25 1.56 <
2 -7 13 -2 0.82 2.18 1.56 <
-2 7 -13 2 0.82 0.94 1.56 <
1 -7 13 1 1.62 0.62 1.56 <
-1 7 -13 -1 1.62 0.62 1.56 <
2 -7 13 -1 1.17 4.99 1.56 o
-2 7 -13 1 1.17 -2.81 1.56 <
1 -7 13 2 1.65 5.62 1.25 o
-1 7 -13 -2 1.65 3.74 1.56 <
2 -7 13 0 1.57 0.31 1.25 <
-2 7 -13 0 1.57 3.12 1.56 <
3 -7 13 -2 0.08 -0.31 1.25 <
-3 7 -13 2 0.08 1.25 0.94 <
2 -7 13 1 0.09 -0.62 0.94 <
-2 7 -13 -1 0.09 1.87 0.62 o
-1 -6 13 -2 0.01 0.62 2.18 <
1 6 -13 2 0.01 1.25 3.12 <
-2 -6 13 1 0.44 -2.50 2.18 <
2 6 -13 -1 0.44 9.05 4.99 <
-1 -6 13 -1 0.15 -2.18 2.18 <
1 6 -13 1 0.15 4.99 2.18 <
-2 -6 13 2 1.93 -5.93 1.87 <
2 6 -13 -2 1.93 -3.43 2.18 <
-1 -6 13 0 5.33 1.56 1.87 <
1 6 -13 0 5.33 -4.37 2.18 <
0 -6 13 -2 1.48 -1.56 1.87 <
0 6 -13 2 1.48 0.00 1.87 <
-1 -6 13 1 2.16 -2.18 1.87 <
1 6 -13 -1 2.16 1.87 1.87 <
0 -6 13 -1 1.95 -0.31 1.87 <
0 6 -13 1 1.95 2.81 1.87 <
-1 -6 13 2 1.06 0.00 1.87 <
1 6 -13 -2 1.06 4.06 1.87 <
0 -6 13 0 0.50 0.62 1.87 <
0 6 -13 0 0.50 0.31 1.87 <
1 -6 13 -2 2.41 3.74 1.56 <
-1 6 -13 2 2.41 1.56 1.87 <
0 -6 13 1 2.82 6.87 1.56 o
0 6 -13 -1 2.82 2.50 1.87 <
1 -6 13 -1 2.50 2.81 1.56 <
-1 6 -13 1 2.50 5.31 1.56 o
0 -6 13 2 0.45 4.68 1.56 <
0 6 -13 -2 0.45 0.94 1.56 <
1 -6 13 0 4.99 5.31 1.56 o
-1 6 -13 0 4.99 1.87 1.56 <
2 -6 13 -2 1.16 0.94 1.56 <
-2 6 -13 2 1.16 -0.94 1.56 <
1 -6 13 1 1.92 2.81 1.56 <
-1 6 -13 -1 1.92 -0.62 1.56 <
2 -6 13 -1 2.17 3.74 1.25 o
-2 6 -13 1 2.17 0.62 1.56 <
1 -6 13 2 1.48 0.62 1.25 <
-1 6 -13 -2 1.48 1.25 1.25 <
2 -6 13 0 1.24 -2.18 0.94 <
-2 6 -13 0 1.24 0.00 0.94 <
3 -6 13 -2 0.02 1.56 0.62 <
-3 6 -13 2 0.02 1.56 0.94 <
2 -6 13 1 0.17 0.94 1.25 <
-2 6 -13 -1 0.17 -0.94 1.56 <
-3 -5 13 2 1.17 3.43 1.87 <
3 5 -13 -2 1.17 1.56 1.56 <
-2 -5 13 0 2.52 2.81 2.18 <
2 5 -13 0 2.52 3.74 1.56 <
-1 -5 13 -2 0.04 3.74 2.18 <
1 5 -13 2 0.04 2.50 1.56 <
-2 -5 13 1 0.38 7.49 2.81 <
2 5 -13 -1 0.38 -0.31 1.56 <
-1 -5 13 -1 0.60 3.74 4.06 <
1 5 -13 1 0.60 -1.56 1.56 <
-2 -5 13 2 2.70 0.94 1.87 <
2 5 -13 -2 2.70 -1.25 1.56 <
-1 -5 13 0 6.86 -1.56 1.87 <
1 5 -13 0 6.86 -3.74 1.56 <
0 -5 13 -2 1.47 3.43 1.87 <
0 5 -13 2 1.47 -1.56 2.18 <
-1 -5 13 1 2.86 0.62 1.87 <
1 5 -13 -1 2.86 -6.87 3.12 <
0 -5 13 -1 2.53 -2.18 1.87 <
0 5 -13 1 2.53 -0.94 1.87 <
-1 -5 13 2 1.78 0.00 1.56 <
1 5 -13 -2 1.78 0.62 1.87 <
0 -5 13 0 0.99 3.12 1.56 <
0 5 -13 0 0.99 4.68 1.87 <
1 -5 13 -2 2.83 -0.31 1.56 <
-1 5 -13 2 2.83 -0.62 1.56 <
0 -5 13 1 1.38 0.31 1.56 <
0 5 -13 -1 1.38 8.11 1.56 o
1 -5 13 -1 3.81 12.17 1.56 o
-1 5 -13 1 3.81 12.48 1.56 o
0 -5 13 2 0.24 2.50 1.56 <
0 5 -13 -2 0.24 -1.25 1.56 <
1 -5 13 0 6.33 13.11 1.56 o
-1 5 -13 0 6.33 6.24 1.56 o
2 -5 13 -2 1.39 0.31 1.25 <
-2 5 -13 2 1.39 1.56 1.56 <
1 -5 13 1 1.94 0.31 1.25 <
-1 5 -13 -1 1.94 1.87 1.56 <
2 -5 13 -1 3.17 2.50 1.25 <
-2 5 -13 1 3.17 0.62 0.94 <
1 -5 13 2 1.17 1.25 0.62 <
-1 5 -13 -2 1.17 0.31 0.94 <
2 -5 13 0 0.92 -0.31 0.62 <
-2 5 -13 0 0.92 2.81 0.94 <
3 -5 13 -2 0.00 0.62 0.62 <
-3 5 -13 2 0.00 0.00 0.94 <
-3 -4 13 1 0.13 -1.56 1.56 <
3 4 -13 -1 0.13 1.56 1.56 <
-2 -4 13 -1 1.89 3.12 1.56 <
2 4 -13 1 1.89 -6.87 1.56 <
-3 -4 13 2 1.29 -1.56 1.56 <
3 4 -13 -2 1.29 1.25 1.56 <
-2 -4 13 0 4.19 0.62 1.25 <
2 4 -13 0 4.19 4.06 1.56 <
-1 -4 13 -2 0.13 2.81 1.25 <
1 4 -13 2 0.13 0.62 1.56 <
-2 -4 13 1 0.52 -3.43 1.25 <
2 4 -13 -1 0.52 2.50 1.25 <
-1 -4 13 -1 1.54 0.94 1.25 <
1 4 -13 1 1.54 -0.31 1.25 <
-2 -4 13 2 3.44 0.62 1.25 <
2 4 -13 -2 3.44 1.56 1.25 <
-1 -4 13 0 9.41 2.81 1.25 <
1 4 -13 0 9.41 1.25 1.25 <
0 -4 13 -2 1.28 0.62 1.25 <
0 4 -13 2 1.28 -0.62 1.25 <
-1 -4 13 1 3.61 2.18 1.25 <
1 4 -13 -1 3.61 -0.31 1.25 <
0 -4 13 -1 2.77 0.00 1.56 <
0 4 -13 1 2.77 0.62 1.25 <
-1 -4 13 2 2.42 0.62 1.87 <
1 4 -13 -2 2.42 2.18 1.25 <
0 -4 13 0 1.60 3.12 2.50 <
0 4 -13 0 1.60 1.25 1.25 <
1 -4 13 -2 2.99 -3.43 1.56 <
-1 4 -13 2 2.99 0.62 1.25 <
0 -4 13 1 0.25 0.62 1.56 <
0 4 -13 -1 0.25 -2.50 1.25 <
1 -4 13 -1 4.67 7.18 1.56 o
-1 4 -13 1 4.67 6.55 1.56 o
0 -4 13 2 0.07 3.43 1.56 <
0 4 -13 -2 0.07 0.62 2.18 <
1 -4 13 0 10.50 4.68 1.56 <
-1 4 -13 0 10.50 6.87 4.68 <
2 -4 13 -2 1.41 -0.94 1.25 <
-2 4 -13 2 1.41 0.62 1.56 <
1 -4 13 1 1.68 -10.61 4.99 <
-1 4 -13 -1 1.68 0.31 0.94 <
2 -4 13 -1 3.75 2.18 0.62 o
-2 4 -13 1 3.75 2.18 0.94 <
1 -4 13 2 0.83 0.62 0.94 <
-1 4 -13 -2 0.83 1.25 0.94 <
2 -4 13 0 0.80 2.50 0.94 <
-2 4 -13 0 0.80 2.50 0.94 <
3 -4 13 -2 0.02 0.62 1.56 <
-3 4 -13 2 0.02 1.56 1.56 <
-2 -3 13 -2 0.59 -2.50 1.56 <
2 3 -13 2 0.59 1.87 1.56 <
-3 -3 13 1 0.07 -1.25 1.56 <
3 3 -13 -1 0.07 -4.37 1.56 <
-2 -3 13 -1 3.37 -1.87 1.56 <
2 3 -13 1 3.37 3.43 1.56 <
-3 -3 13 2 1.27 -0.62 1.25 <
3 3 -13 -2 1.27 0.00 1.56 <
-2 -3 13 0 6.38 0.31 1.25 <
2 3 -13 0 6.38 2.18 1.56 <
-1 -3 13 -2 0.28 1.87 1.25 <
1 3 -13 2 0.28 -1.87 1.25 <
-2 -3 13 1 0.91 0.62 1.25 <
2 3 -13 -1 0.91 -1.87 1.25 <
-1 -3 13 -1 3.07 -1.25 1.25 <
1 3 -13 1 3.07 0.62 1.25 <
-2 -3 13 2 4.04 2.81 1.25 <
2 3 -13 -2 4.04 0.00 1.25 <
-1 -3 13 0 14.58 1.87 1.25 <
1 3 -13 0 14.58 3.74 1.25 o
0 -3 13 -2 1.03 -0.62 1.25 <
0 3 -13 2 1.03 0.31 1.25 <
-1 -3 13 1 4.30 2.50 0.94 <
1 3 -13 -1 4.30 3.43 1.25 <
0 -3 13 -1 2.68 1.25 0.94 <
0 3 -13 1 2.68 0.00 0.94 <
-1 -3 13 2 2.72 1.25 0.94 <
1 3 -13 -2 2.72 -0.31 0.94 <
0 -3 13 0 0.90 0.62 0.94 <
0 3 -13 0 0.90 1.56 0.94 <
1 -3 13 -2 2.93 1.56 0.94 <
-1 3 -13 2 2.93 0.62 0.94 <
0 -3 13 1 0.20 -0.62 0.94 <
0 3 -13 -1 0.20 -0.31 0.94 <
1 -3 13 -1 4.67 4.99 0.94 o
-1 3 -13 1 4.67 8.11 0.94 o
0 -3 13 2 0.00 1.87 0.94 <
0 3 -13 -2 0.00 1.56 0.94 <
1 -3 13 0 12.84 4.37 0.94 o
-1 3 -13 0 12.84 3.12 0.94 o
2 -3 13 -2 1.22 1.87 0.94 <
-2 3 -13 2 1.22 1.87 0.94 <
1 -3 13 1 1.23 2.81 0.94 <
-1 3 -13 -1 1.23 0.31 0.94 <
2 -3 13 -1 3.67 -0.31 0.94 <
-2 3 -13 1 3.67 4.37 0.94 o
1 -3 13 2 0.56 2.18 0.94 <
-1 3 -13 -2 0.56 0.31 0.94 <
2 -3 13 0 0.90 -0.62 0.94 <
-2 3 -13 0 0.90 0.94 0.94 <
-4 -2 13 2 0.05 2.18 1.56 <
4 2 -13 -2 0.05 0.62 1.56 <
-3 -2 13 0 0.71 0.31 1.56 <
3 2 -13 0 0.71 -1.87 1.56 <
-2 -2 13 -2 0.83 0.00 1.56 <
2 2 -13 2 0.83 7.80 1.56 o
-3 -2 13 1 0.25 0.94 1.25 <
3 2 -13 -1 0.25 -1.87 1.56 <
-2 -2 13 -1 5.05 0.62 1.25 <
2 2 -13 1 5.05 1.56 1.56 <
-3 -2 13 2 1.18 2.18 1.25 <
3 2 -13 -2 1.18 -0.31 1.25 <
-2 -2 13 0 9.11 2.50 1.25 <
2 2 -13 0 9.11 -1.87 1.25 <
-1 -2 13 -2 0.44 -0.31 1.25 <
1 2 -13 2 0.44 1.25 1.25 <
-2 -2 13 1 1.49 2.81 1.25 <
2 2 -13 -1 1.49 0.94 1.25 <
-1 -2 13 -1 5.02 2.50 1.25 <
1 2 -13 1 5.02 4.68 1.25 o
-2 -2 13 2 4.41 2.50 1.25 <
2 2 -13 -2 4.41 0.94 1.25 <
-1 -2 13 0 21.01 7.49 1.25 o
1 2 -13 0 21.01 8.43 1.25 o
0 -2 13 -2 0.91 1.87 0.94 <
0 2 -13 2 0.91 -0.62 1.25 <
-1 -2 13 1 4.76 4.06 0.94 o
1 2 -13 -1 4.76 3.74 1.25 o
0 -2 13 -1 2.45 1.87 0.94 <
0 2 -13 1 2.45 -2.50 0.94 <
-1 -2 13 2 2.54 0.31 0.94 <
1 2 -13 -2 2.54 3.43 0.94 o
0 -2 13 0 0.68 -0.62 0.94 <
0 2 -13 0 0.68 4.06 0.94 o
1 -2 13 -2 2.76 0.62 0.94 <
-1 2 -13 2 2.76 2.81 0.94 <
0 -2 13 1 1.49 3.74 0.94 o
0 2 -13 -1 1.49 2.81 0.94 <
1 -2 13 -1 3.81 4.99 0.94 o
-1 2 -13 1 3.81 6.87 0.94 o
0 -2 13 2 0.02 2.18 0.94 <
0 2 -13 -2 0.02 1.25 0.94 <
1 -2 13 0 13.94 2.81 0.94 <
-1 2 -13 0 13.94 3.12 1.25 <
2 -2 13 -2 0.90 -3.12 2.18 <
-2 2 -13 2 0.90 -0.62 1.56 <
1 -2 13 1 0.73 -2.50 1.56 <
-1 2 -13 -1 0.73 -0.94 1.56 <
2 -2 13 -1 3.02 -0.94 1.25 <
-2 2 -13 1 3.02 -2.50 1.56 <
1 -2 13 2 0.41 -0.62 1.25 <
-1 2 -13 -2 0.41 2.81 1.56 <
-3 -1 13 -1 1.16 0.00 1.56 <
3 1 -13 1 1.16 0.31 1.56 <
-4 -1 13 2 0.12 1.56 1.56 <
4 1 -13 -2 0.12 2.50 1.56 <
-3 -1 13 0 0.95 2.50 1.25 <
3 1 -13 0 0.95 1.56 1.56 <
-2 -1 13 -2 1.06 -2.50 1.25 <
2 1 -13 2 1.06 1.25 1.56 <
-3 -1 13 1 1.04 -0.94 1.25 <
3 1 -13 -1 1.04 0.62 1.25 <
-2 -1 13 -1 6.42 -0.62 1.25 <
2 1 -13 1 6.42 0.00 1.25 <
-3 -1 13 2 1.18 -1.25 1.25 <
3 1 -13 -2 1.18 1.87 1.25 <
-2 -1 13 0 13.68 6.55 1.25 o
2 1 -13 0 13.68 3.43 1.25 <
-1 -1 13 -2 0.52 0.62 1.25 <
1 1 -13 2 0.52 2.81 1.25 <
-2 -1 13 1 2.12 -3.43 1.25 <
2 1 -13 -1 2.12 0.00 1.25 <
-1 -1 13 -1 6.74 2.81 1.25 <
1 1 -13 1 6.74 4.37 1.25 o
-2 -1 13 2 4.58 0.62 0.94 <
2 1 -13 -2 4.58 3.12 1.25 <
-1 -1 13 0 13.02 20.60 1.25 o
1 1 -13 0 13.02 26.84 1.25 o
0 -1 13 -2 1.04 0.62 0.94 <
0 1 -13 2 1.04 1.56 0.94 <
-1 -1 13 1 4.74 2.50 0.94 <
1 1 -13 -1 4.74 3.74 0.94 o
0 -1 13 -1 2.25 0.94 0.94 <
0 1 -13 1 2.25 0.62 0.94 <
-1 -1 13 2 1.97 0.31 0.94 <
1 1 -13 -2 1.97 5.62 0.94 o
0 -1 13 0 0.45 2.50 0.94 <
0 1 -13 0 0.45 1.56 0.94 <
1 -1 13 -2 2.57 0.62 0.94 <
-1 1 -13 2 2.57 2.81 0.94 <
0 -1 13 1 3.62 1.56 0.94 <
0 1 -13 -1 3.62 3.12 0.94 o
1 -1 13 -1 2.51 0.94 0.94 <
-1 1 -13 1 2.51 0.31 0.94 <
0 -1 13 2 0.07 1.25 0.94 <
0 1 -13 -2 0.07 -1.56 2.18 <
1 -1 13 0 9.53 -0.31 1.56 <
-1 1 -13 0 9.53 -1.87 1.56 <
2 -1 13 -2 0.60 -0.94 1.56 <
-2 1 -13 2 0.60 4.37 1.56 <
1 -1 13 1 0.33 0.94 1.56 <
-1 1 -13 -1 0.33 3.12 1.87 <
2 -1 13 -1 2.08 1.25 1.56 <
-2 1 -13 1 2.08 -6.24 1.87 <
-3 0 13 -2 0.45 1.87 2.18 <
3 0 -13 2 0.45 3.43 2.18 <
-4 0 13 1 0.81 -1.25 1.56 <
4 0 -13 -1 0.81 -5.62 1.56 <
-3 0 13 -1 0.73 -2.81 1.56 <
3 0 -13 1 0.73 0.00 1.56 <
-4 0 13 2 0.20 -1.87 1.25 <
4 0 -13 -2 0.20 -1.25 1.56 <
-3 0 13 0 0.77 0.62 1.25 <
3 0 -13 0 0.77 0.00 1.56 <
-2 0 13 -2 1.28 1.87 1.25 <
2 0 -13 2 1.28 -1.25 1.25 <
-3 0 13 1 2.78 -0.31 1.25 <
3 0 -13 -1 2.78 -0.62 1.25 <
-2 0 13 -1 6.83 2.81 1.25 <
2 0 -13 1 6.83 6.87 1.25 o
-3 0 13 2 1.47 1.25 1.25 <
3 0 -13 -2 1.47 3.74 1.25 o
-2 0 13 0 18.47 14.04 1.25 o
2 0 -13 0 18.47 20.60 1.25 o
-1 0 13 -2 0.46 4.06 1.25 o
1 0 -13 2 0.46 5.31 1.25 o
-2 0 13 1 2.62 1.87 1.25 <
2 0 -13 -1 2.62 1.87 1.25 <
-1 0 13 -1 7.24 3.43 0.94 o
1 0 -13 1 7.24 6.87 1.25 o
-2 0 13 2 4.82 2.81 0.94 <
2 0 -13 -2 4.82 1.25 1.25 <
-1 0 13 0 15.72 52.43 1.25 o
1 0 -13 0 15.72 51.80 1.25 o
0 0 13 -2 1.35 1.87 0.94 <
0 0 -13 2 1.35 1.56 0.94 <
-1 0 13 1 4.08 8.43 0.94 o
1 0 -13 -1 4.08 7.49 0.94 o
0 0 13 -1 2.08 -0.62 0.94 <
0 0 -13 1 2.08 0.00 0.94 <
-1 0 13 2 1.31 1.25 0.94 <
1 0 -13 -2 1.31 2.50 0.94 <
0 0 13 0 0.05 4.37 0.94 o
0 0 -13 0 0.05 1.87 0.94 <
1 0 13 -2 2.36 0.94 0.94 <
-1 0 -13 2 2.36 0.00 0.94 <
0 0 13 1 5.57 0.94 0.94 <
0 0 -13 -1 5.57 0.31 0.94 <
1 0 13 -1 1.29 3.43 0.94 o
-1 0 -13 1 1.29 -1.25 1.56 <
0 0 13 2 0.09 -0.31 1.56 <
0 0 -13 -2 0.09 -0.62 1.87 <
1 0 13 0 6.52 0.00 1.56 <
-1 0 -13 0 6.52 2.81 1.87 <
2 0 13 -2 0.41 0.62 1.56 <
-2 0 -13 2 0.41 2.18 1.87 <
1 0 13 1 0.10 -4.37 1.87 <
-1 0 -13 -1 0.10 -1.25 1.87 <
-4 1 13 0 2.45 -1.87 1.56 <
4 -1 -13 0 2.45 5.31 1.56 o
-3 1 13 -2 0.72 0.00 1.56 <
3 -1 -13 2 0.72 4.37 1.56 <
-4 1 13 1 0.95 -3.43 1.25 <
4 -1 -13 -1 0.95 -3.74 1.56 <
-3 1 13 -1 0.23 1.56 1.25 <
3 -1 -13 1 0.23 -3.12 1.56 <
-4 1 13 2 0.23 2.50 1.25 <
4 -1 -13 -2 0.23 -1.87 1.56 <
-3 1 13 0 0.89 -0.62 1.25 <
3 -1 -13 0 0.89 3.12 1.56 <
-2 1 13 -2 1.49 0.94 1.25 <
2 -1 -13 2 1.49 1.87 1.25 <
-3 1 13 1 5.37 1.87 1.25 <
3 -1 -13 -1 5.37 1.87 1.56 <
-2 1 13 -1 5.96 10.92 1.25 o
2 -1 -13 1 5.96 12.48 1.25 o
-3 1 13 2 2.17 2.50 1.25 <
3 -1 -13 -2 2.17 3.74 1.25 o
-2 1 13 0 12.15 7.18 1.25 o
2 -1 -13 0 12.15 4.99 1.25 o
-1 1 13 -2 0.28 4.06 1.25 o
1 -1 -13 2 0.28 -0.31 1.25 <
-2 1 13 1 2.88 -0.31 0.94 <
2 -1 -13 -1 2.88 1.25 1.25 <
-1 1 13 -1 5.92 12.17 1.25 o
1 -1 -13 1 5.92 11.55 1.25 o
-2 1 13 2 5.34 -1.25 0.94 <
2 -1 -13 -2 5.34 2.18 0.94 <
-1 1 13 0 16.41 35.89 1.25 o
1 -1 -13 0 16.41 32.77 1.25 o
0 1 13 -2 1.64 2.50 0.94 <
0 -1 -13 2 1.64 0.62 0.94 <
-1 1 13 1 2.88 12.48 0.94 o
1 -1 -13 -1 2.88 14.98 1.25 o
0 1 13 -1 1.80 3.12 0.94 o
0 -1 -13 1 1.80 0.94 0.94 <
-1 1 13 2 0.91 0.62 0.94 <
1 -1 -13 -2 0.91 1.87 0.94 <
0 1 13 0 0.20 -1.25 0.94 <
0 -1 -13 0 0.20 1.25 0.94 <
1 1 13 -2 2.10 -2.18 0.94 <
-1 -1 -13 2 2.10 -0.94 0.94 <
0 1 13 1 6.45 2.50 1.25 <
0 -1 -13 -1 6.45 3.12 1.87 <
1 1 13 -1 0.51 -0.31 1.56 <
-1 -1 -13 1 0.51 -1.87 1.87 <
0 1 13 2 0.07 2.50 1.56 <
0 -1 -13 -2 0.07 -1.56 1.87 <
1 1 13 0 4.00 -0.94 1.87 <
-1 -1 -13 0 4.00 2.18 1.87 <
2 1 13 -2 0.34 -0.31 1.87 <
-2 -1 -13 2 0.34 1.87 1.87 <
-5 2 13 2 0.42 1.87 1.56 <
5 -2 -13 -2 0.42 2.50 1.56 <
-4 2 13 0 1.95 2.81 1.56 <
4 -2 -13 0 1.95 0.62 1.56 <
-3 2 13 -2 1.18 3.74 1.25 o
3 -2 -13 2 1.18 -3.12 1.56 <
-4 2 13 1 1.09 2.18 1.25 <
4 -2 -13 -1 1.09 2.81 1.87 <
-3 2 13 -1 0.04 -1.56 1.25 <
3 -2 -13 1 0.04 1.25 1.56 <
-4 2 13 2 0.20 -0.94 1.25 <
4 -2 -13 -2 0.20 4.37 1.25 o
-3 2 13 0 2.26 1.87 1.25 <
3 -2 -13 0 2.26 2.50 1.25 <
-2 2 13 -2 1.77 2.81 1.25 <
2 -2 -13 2 1.77 0.00 1.25 <
-3 2 13 1 8.09 4.06 1.25 o
3 -2 -13 -1 8.09 3.12 1.25 <
-2 2 13 -1 4.26 6.24 1.25 o
2 -2 -13 1 4.26 7.18 1.25 o
-3 2 13 2 3.08 7.80 1.25 o
3 -2 -13 -2 3.08 7.80 1.25 o
-2 2 13 0 7.68 5.62 1.25 o
2 -2 -13 0 7.68 1.25 1.25 <
-1 2 13 -2 0.12 2.18 1.25 <
1 -2 -13 2 0.12 -0.62 1.25 <
-2 2 13 1 2.83 1.25 0.94 <
2 -2 -13 -1 2.83 1.87 1.25 <
-1 2 13 -1 3.39 3.12 0.94 o
1 -2 -13 1 3.39 3.74 1.25 o
-2 2 13 2 6.03 5.93 0.94 o
2 -2 -13 -2 6.03 5.31 1.25 o
-1 2 13 0 10.65 24.03 1.25 o
1 -2 -13 0 10.65 28.40 1.25 o
0 2 13 -2 1.70 4.68 0.94 o
0 -2 -13 2 1.70 1.56 1.25 <
-1 2 13 1 1.55 5.62 0.94 o
1 -2 -13 -1 1.55 6.24 1.25 o
0 2 13 -1 1.39 2.50 0.94 <
0 -2 -13 1 1.39 2.50 1.25 <
-1 2 13 2 0.88 0.31 0.94 <
1 -2 -13 -2 0.88 1.56 1.25 <
0 2 13 0 0.52 3.43 0.94 o
0 -2 -13 0 0.52 -1.56 1.25 <
1 2 13 -2 1.78 -0.62 1.87 <
-1 -2 -13 2 1.78 2.81 1.87 <
0 2 13 1 6.01 1.87 1.87 <
0 -2 -13 -1 6.01 -1.56 1.87 <
1 2 13 -1 0.20 0.00 1.87 <
-1 -2 -13 1 0.20 4.99 1.87 <
0 2 13 2 0.03 -1.87 1.87 <
0 -2 -13 -2 0.03 4.68 1.87 <
1 2 13 0 2.04 -4.68 1.87 <
-1 -2 -13 0 2.04 -0.62 1.87 <
-4 3 13 -1 0.08 6.87 1.56 o
4 -3 -13 1 0.08 6.55 1.56 o
-5 3 13 2 0.68 -0.62 1.56 <
5 -3 -13 -2 0.68 2.81 1.87 <
-4 3 13 0 1.93 2.81 1.56 <
4 -3 -13 0 1.93 1.87 1.56 <
-3 3 13 -2 1.77 2.81 1.25 <
3 -3 -13 2 1.77 -1.87 1.56 <
-4 3 13 1 1.21 -0.62 1.25 <
4 -3 -13 -1 1.21 0.94 1.25 <
-3 3 13 -1 0.52 2.81 1.25 <
3 -3 -13 1 0.52 6.24 1.25 o
-4 3 13 2 0.13 5.31 1.25 o
4 -3 -13 -2 0.13 1.56 1.25 <
-3 3 13 0 2.06 -0.94 1.25 <
3 -3 -13 0 2.06 3.12 1.25 <
-2 3 13 -2 2.20 0.31 1.25 <
2 -3 -13 2 2.20 0.94 1.25 <
-3 3 13 1 9.81 6.55 1.25 o
3 -3 -13 -1 9.81 6.87 1.25 o
-2 3 13 -1 2.85 -0.62 1.25 <
2 -3 -13 1 2.85 2.18 1.25 <
-3 3 13 2 3.71 3.74 1.25 o
3 -3 -13 -2 3.71 4.99 1.25 o
-2 3 13 0 6.88 3.12 1.25 <
2 -3 -13 0 6.88 2.81 1.25 <
-1 3 13 -2 0.12 1.25 1.25 <
1 -3 -13 2 0.12 0.62 1.25 <
-2 3 13 1 2.49 1.87 0.94 <
2 -3 -13 -1 2.49 1.87 1.25 <
-1 3 13 -1 1.27 3.43 0.94 o
1 -3 -13 1 1.27 3.43 1.25 <
-2 3 13 2 6.37 6.24 0.94 o
2 -3 -13 -2 6.37 4.06 1.25 o
-1 3 13 0 6.77 9.36 1.25 o
1 -3 -13 0 6.77 6.87 1.25 o
0 3 13 -2 1.46 1.87 0.94 <
0 -3 -13 2 1.46 0.94 1.25 <
-1 3 13 1 0.55 1.87 1.25 <
1 -3 -13 -1 0.55 4.68 1.25 o
0 3 13 -1 0.91 0.62 1.25 <
0 -3 -13 1 0.91 0.31 1.25 <
-1 3 13 2 1.10 1.25 1.25 <
1 -3 -13 -2 1.10 1.25 1.56 <
0 3 13 0 0.87 3.43 2.50 <
0 -3 -13 0 0.87 -0.94 1.87 <
1 3 13 -2 1.42 0.94 1.87 <
-1 -3 -13 2 1.42 -8.74 1.87 <
0 3 13 1 4.64 1.25 1.87 <
0 -3 -13 -1 4.64 -5.93 1.87 <
1 3 13 -1 0.19 -1.25 1.87 <
-1 -3 -13 1 0.19 -4.37 1.87 <
-5 4 13 1 1.51 -4.37 1.56 <
5 -4 -13 -1 1.51 -2.50 1.56 <
-4 4 13 -1 0.07 1.87 1.56 <
4 -4 -13 1 0.07 1.87 1.56 <
-5 4 13 2 1.06 -1.25 1.56 <
5 -4 -13 -2 1.06 4.37 1.87 <
-4 4 13 0 2.20 3.12 1.25 <
4 -4 -13 0 2.20 3.12 1.56 <
-3 4 13 -2 2.34 2.81 1.25 <
3 -4 -13 2 2.34 -1.56 1.25 <
-4 4 13 1 1.35 1.56 1.25 <
4 -4 -13 -1 1.35 -3.74 1.25 <
-3 4 13 -1 1.68 4.68 1.25 o
3 -4 -13 1 1.68 1.87 1.25 <
-4 4 13 2 0.10 0.94 1.25 <
4 -4 -13 -2 0.10 2.18 1.25 <
-3 4 13 0 2.00 7.80 1.25 o
3 -4 -13 0 2.00 11.86 1.25 o
-2 4 13 -2 2.74 1.56 1.25 <
2 -4 -13 2 2.74 0.62 1.25 <
-3 4 13 1 9.69 5.31 1.25 o
3 -4 -13 -1 9.69 7.80 1.25 o
-2 4 13 -1 2.65 1.87 1.25 <
2 -4 -13 1 2.65 1.87 1.25 <
-3 4 13 2 3.64 3.12 1.25 <
3 -4 -13 -2 3.64 1.87 1.25 <
-2 4 13 0 4.31 3.43 1.25 <
2 -4 -13 0 4.31 6.24 1.25 o
-1 4 13 -2 0.34 0.62 1.25 <
1 -4 -13 2 0.34 2.81 1.25 <
-2 4 13 1 2.04 -0.94 1.25 <
2 -4 -13 -1 2.04 -1.87 1.25 <
-1 4 13 -1 0.68 1.87 1.25 <
1 -4 -13 1 0.68 0.94 1.25 <
-2 4 13 2 5.91 2.50 1.25 <
2 -4 -13 -2 5.91 3.74 1.25 o
-1 4 13 0 3.95 2.81 1.25 <
1 -4 -13 0 3.95 -2.81 1.25 <
0 4 13 -2 1.04 3.12 1.25 <
0 -4 -13 2 1.04 -0.31 1.25 <
-1 4 13 1 0.13 -1.25 1.25 <
1 -4 -13 -1 0.13 0.00 1.25 <
0 4 13 -1 0.49 -1.87 1.25 <
0 -4 -13 1 0.49 1.87 1.87 <
-1 4 13 2 1.33 12.79 4.37 <
1 -4 -13 -2 1.33 3.12 1.87 <
0 4 13 0 1.61 -2.50 1.87 <
0 -4 -13 0 1.61 2.18 1.87 <
1 4 13 -2 1.05 -3.74 1.87 <
-1 -4 -13 2 1.05 4.37 1.87 <
0 4 13 1 3.00 4.37 1.87 <
0 -4 -13 -1 3.00 10.61 1.87 o
-4 5 13 -2 0.16 0.31 1.56 <
4 -5 -13 2 0.16 -2.18 1.56 <
-5 5 13 1 1.13 0.31 1.56 <
5 -5 -13 -1 1.13 0.00 1.56 <
-4 5 13 -1 0.08 0.62 1.56 <
4 -5 -13 1 0.08 0.62 1.56 <
-5 5 13 2 1.48 1.56 1.25 <
5 -5 -13 -2 1.48 1.87 1.56 <
-4 5 13 0 3.63 3.74 1.25 o
4 -5 -13 0 3.63 0.94 1.56 <
-3 5 13 -2 2.66 3.43 1.25 <
3 -5 -13 2 2.66 0.00 1.25 <
-4 5 13 1 1.59 0.31 1.25 <
4 -5 -13 -1 1.59 3.74 1.25 o
-3 5 13 -1 3.08 9.05 1.25 o
3 -5 -13 1 3.08 9.99 1.25 o
-4 5 13 2 0.18 -0.62 1.25 <
4 -5 -13 -2 0.18 -2.18 1.25 <
-3 5 13 0 1.96 5.62 1.25 o
3 -5 -13 0 1.96 7.80 1.25 o
-2 5 13 -2 3.17 1.87 1.25 <
2 -5 -13 2 3.17 2.81 1.25 <
-3 5 13 1 7.80 10.30 1.25 o
3 -5 -13 -1 7.80 8.43 1.25 o
-2 5 13 -1 3.50 7.49 1.25 o
2 -5 -13 1 3.50 8.11 1.25 o
-3 5 13 2 2.89 -0.62 1.25 <
3 -5 -13 -2 2.89 1.25 1.25 <
-2 5 13 0 6.93 6.55 1.25 o
2 -5 -13 0 6.93 13.42 1.25 o
-1 5 13 -2 0.66 0.62 1.25 <
1 -5 -13 2 0.66 -1.87 1.25 <
-2 5 13 1 1.64 2.81 1.25 <
2 -5 -13 -1 1.64 4.99 1.25 o
-1 5 13 -1 1.42 1.56 1.25 <
1 -5 -13 1 1.42 1.56 1.25 <
-2 5 13 2 4.72 1.25 1.25 <
2 -5 -13 -2 4.72 2.81 1.25 <
-1 5 13 0 3.08 -1.25 1.25 <
1 -5 -13 0 3.08 1.56 1.25 <
0 5 13 -2 0.60 0.62 1.25 <
0 -5 -13 2 0.60 1.25 1.25 <
-1 5 13 1 0.14 -1.25 1.25 <
1 -5 -13 -1 0.14 0.62 1.87 <
0 5 13 -1 0.23 1.56 1.87 <
0 -5 -13 1 0.23 -1.87 1.87 <
-1 5 13 2 1.39 0.62 1.87 <
1 -5 -13 -2 1.39 4.99 2.18 <
0 5 13 0 1.91 3.12 1.87 <
0 -5 -13 0 1.91 2.81 1.87 <
-4 6 13 -2 0.09 -1.56 1.56 <
4 -6 -13 2 0.09 -1.56 1.56 <
-5 6 13 1 0.65 1.87 1.56 <
5 -6 -13 -1 0.65 0.00 1.56 <
-4 6 13 -1 0.16 0.31 1.25 <
4 -6 -13 1 0.16 1.87 1.56 <
-5 6 13 2 1.81 -1.56 1.25 <
5 -6 -13 -2 1.81 -1.25 1.56 <
-4 6 13 0 4.43 0.00 1.25 <
4 -6 -13 0 4.43 3.43 1.56 <
-3 6 13 -2 2.57 0.31 1.25 <
3 -6 -13 2 2.57 -0.31 1.25 <
-4 6 13 1 1.99 0.00 1.25 <
4 -6 -13 -1 1.99 4.99 1.25 o
-3 6 13 -1 4.02 8.11 1.25 o
3 -6 -13 1 4.02 9.99 1.25 o
-4 6 13 2 0.40 1.87 1.25 <
4 -6 -13 -2 0.40 0.62 1.25 <
-3 6 13 0 5.79 14.67 1.25 o
3 -6 -13 0 5.79 9.99 1.25 o
-2 6 13 -2 3.22 0.94 1.25 <
2 -6 -13 2 3.22 0.62 1.25 <
-3 6 13 1 4.99 2.18 1.25 <
3 -6 -13 -1 4.99 3.12 1.25 <
-2 6 13 -1 4.49 5.62 1.25 o
2 -6 -13 1 4.49 6.24 1.25 o
-3 6 13 2 1.86 0.00 1.25 <
3 -6 -13 -2 1.86 -0.31 1.25 <
-2 6 13 0 8.95 5.31 1.25 o
2 -6 -13 0 8.95 3.12 1.25 <
-1 6 13 -2 0.90 3.43 1.25 <
1 -6 -13 2 0.90 2.18 1.25 <
-2 6 13 1 1.32 2.18 1.25 <
2 -6 -13 -1 1.32 -1.56 1.25 <
-1 6 13 -1 2.52 0.62 1.25 <
1 -6 -13 1 2.52 -0.94 1.25 <
-2 6 13 2 3.25 0.94 1.25 <
2 -6 -13 -2 3.25 -0.62 1.25 <
-1 6 13 0 1.91 2.50 1.25 <
1 -6 -13 0 1.91 -4.68 1.25 <
0 6 13 -2 0.28 2.18 1.25 <
0 -6 -13 2 0.28 -0.62 1.87 <
-1 6 13 1 0.33 1.25 1.87 <
1 -6 -13 -1 0.33 1.87 2.18 <
0 6 13 -1 0.12 0.00 1.87 <
0 -6 -13 1 0.12 0.00 2.18 <
-1 6 13 2 1.24 0.94 1.87 <
1 -6 -13 -2 1.24 7.18 2.18 o
-5 7 13 0 2.76 3.12 1.56 <
5 -7 -13 0 2.76 7.49 1.56 o
-4 7 13 -2 0.05 3.12 1.56 <
4 -7 -13 2 0.05 1.87 1.56 <
-5 7 13 1 0.25 1.56 1.56 <
5 -7 -13 -1 0.25 1.56 1.56 <
-4 7 13 -1 0.38 0.31 1.25 <
4 -7 -13 1 0.38 4.99 1.56 o
-5 7 13 2 1.91 -0.62 1.25 <
5 -7 -13 -2 1.91 3.74 1.56 <
-4 7 13 0 6.10 0.94 1.25 <
4 -7 -13 0 6.10 0.31 1.25 <
-3 7 13 -2 2.11 0.94 1.25 <
3 -7 -13 2 2.11 2.50 1.25 <
-4 7 13 1 2.47 0.00 1.25 <
4 -7 -13 -1 2.47 4.37 1.25 o
-3 7 13 -1 4.08 0.94 1.25 <
3 -7 -13 1 4.08 3.74 1.25 o
-4 7 13 2 0.66 2.50 1.25 <
4 -7 -13 -2 0.66 3.43 1.25 <
-3 7 13 0 4.63 4.68 1.25 o
3 -7 -13 0 4.63 0.31 1.25 <
-2 7 13 -2 2.81 1.87 1.25 <
2 -7 -13 2 2.81 -0.94 1.25 <
-3 7 13 1 2.37 2.50 1.25 <
3 -7 -13 -1 2.37 1.87 1.25 <
-2 7 13 -1 4.81 3.74 1.25 o
2 -7 -13 1 4.81 4.37 1.25 o
-3 7 13 2 0.98 0.62 1.25 <
3 -7 -13 -2 0.98 -1.25 1.25 <
-2 7 13 0 10.06 7.18 1.25 o
2 -7 -13 0 10.06 6.24 1.25 o
-1 7 13 -2 0.95 -0.62 1.25 <
1 -7 -13 2 0.95 2.81 1.25 <
-2 7 13 1 1.04 -0.31 1.25 <
2 -7 -13 -1 1.04 -0.31 1.25 <
-1 7 13 -1 3.17 1.25 1.25 <
1 -7 -13 1 3.17 0.62 1.25 <
-2 7 13 2 1.96 1.25 1.25 <
2 -7 -13 -2 1.96 1.25 1.56 <
-1 7 13 0 0.95 1.87 1.56 <
1 -7 -13 0 0.95 -1.56 2.18 <
0 7 13 -2 0.10 -2.50 2.18 <
0 -7 -13 2 0.10 -5.93 2.18 <
-1 7 13 1 0.48 2.50 2.18 <
1 -7 -13 -1 0.48 2.18 2.18 <
-5 8 13 0 3.52 2.81 1.56 <
5 -8 -13 0 3.52 10.92 1.56 o
-4 8 13 -2 0.07 6.87 1.56 o
4 -8 -13 2 0.07 -0.94 1.56 <
-5 8 13 1 0.04 0.94 1.56 <
5 -8 -13 -1 0.04 -0.31 1.56 <
-4 8 13 -1 0.70 -0.62 1.25 <
4 -8 -13 1 0.70 2.18 1.56 <
-5 8 13 2 1.77 0.00 1.25 <
5 -8 -13 -2 1.77 0.00 1.56 <
-4 8 13 0 6.05 5.93 1.25 o
4 -8 -13 0 6.05 6.87 1.56 o
-3 8 13 -2 1.49 3.12 1.25 <
3 -8 -13 2 1.49 -1.87 1.25 <
-4 8 13 1 2.88 1.87 1.25 <
4 -8 -13 -1 2.88 3.12 1.25 <
-3 8 13 -1 3.34 5.62 1.25 o
3 -8 -13 1 3.34 1.87 1.25 <
-4 8 13 2 0.81 -0.31 1.25 <
4 -8 -13 -2 0.81 -0.94 1.25 <
-3 8 13 0 2.87 2.50 1.25 <
3 -8 -13 0 2.87 0.62 1.25 <
-2 8 13 -2 2.15 2.81 1.25 <
2 -8 -13 2 2.15 -1.56 1.25 <
-3 8 13 1 0.66 -0.62 1.25 <
3 -8 -13 -1 0.66 -1.87 1.25 <
-2 8 13 -1 4.29 0.62 1.25 <
2 -8 -13 1 4.29 -0.31 1.25 <
-3 8 13 2 0.43 2.81 1.25 <
3 -8 -13 -2 0.43 1.87 1.25 <
-2 8 13 0 8.71 1.25 1.25 <
2 -8 -13 0 8.71 3.12 1.25 <
-1 8 13 -2 0.81 -0.31 1.25 <
1 -8 -13 2 0.81 0.00 1.25 <
-2 8 13 1 0.76 1.56 1.25 <
2 -8 -13 -1 0.76 -0.62 1.56 <
-1 8 13 -1 3.12 3.43 1.25 <
1 -8 -13 1 3.12 -0.31 1.56 <
-2 8 13 2 1.07 -4.99 1.87 <
2 -8 -13 -2 1.07 -3.74 2.18 <
-1 8 13 0 0.50 0.31 2.18 <
1 -8 -13 0 0.50 0.94 2.18 <
-6 9 13 2 0.86 1.56 1.56 <
6 -9 -13 -2 0.86 -2.50 1.56 <
-5 9 13 0 3.75 10.30 1.56 o
5 -9 -13 0 3.75 11.86 1.56 o
-4 9 13 -2 0.12 0.62 1.56 <
4 -9 -13 2 0.12 0.00 1.56 <
-5 9 13 1 0.07 0.62 1.56 <
5 -9 -13 -1 0.07 4.06 1.56 <
-4 9 13 -1 1.01 2.81 1.56 <
4 -9 -13 1 1.01 3.43 1.56 <
-5 9 13 2 1.47 2.50 1.25 <
5 -9 -13 -2 1.47 6.24 1.56 o
-4 9 13 0 5.77 3.12 1.25 <
4 -9 -13 0 5.77 1.56 1.56 <
-3 9 13 -2 0.95 1.87 1.25 <
3 -9 -13 2 0.95 1.25 1.25 <
-4 9 13 1 3.03 -2.50 1.25 <
4 -9 -13 -1 3.03 1.56 1.25 <
-3 9 13 -1 2.25 -1.87 1.25 <
3 -9 -13 1 2.25 -1.25 1.25 <
-4 9 13 2 0.78 -0.62 1.25 <
4 -9 -13 -2 0.78 -0.94 1.25 <
-3 9 13 0 2.92 1.25 1.25 <
3 -9 -13 0 2.92 0.62 1.56 <
-2 9 13 -2 1.50 0.62 1.25 <
2 -9 -13 2 1.50 0.62 1.25 <
-3 9 13 1 0.02 0.00 1.25 <
3 -9 -13 -1 0.02 -0.62 1.56 <
-2 9 13 -1 3.23 0.94 1.25 <
2 -9 -13 1 3.23 2.18 1.56 <
-3 9 13 2 0.18 1.25 1.25 <
3 -9 -13 -2 0.18 -1.56 1.56 <
-2 9 13 0 8.68 0.00 1.25 <
2 -9 -13 0 8.68 1.25 1.56 <
-1 9 13 -2 0.57 -4.06 1.56 <
1 -9 -13 2 0.57 -0.31 1.56 <
-2 9 13 1 0.49 2.50 1.56 <
2 -9 -13 -1 0.49 -1.25 2.18 <
-1 9 13 -1 2.56 16.23 2.18 o
1 -9 -13 1 2.56 5.31 2.18 <
-6 10 13 2 0.66 0.62 1.56 <
6 -10 -13 -2 0.66 1.87 1.56 <
-5 10 13 0 3.99 17.48 1.56 o
5 -10 -13 0 3.99 16.23 1.56 o
-4 10 13 -2 0.18 1.87 1.56 <
4 -10 -13 2 0.18 0.00 1.56 <
-5 10 13 1 0.26 0.62 1.56 <
5 -10 -13 -1 0.26 0.62 1.56 <
-4 10 13 -1 1.18 4.06 1.56 <
4 -10 -13 1 1.18 7.80 1.56 o
-5 10 13 2 1.14 1.87 1.25 <
5 -10 -13 -2 1.14 4.37 1.56 <
-4 10 13 0 4.09 3.43 1.25 <
4 -10 -13 0 4.09 2.50 1.56 <
-3 10 13 -2 0.63 0.62 1.25 <
3 -10 -13 2 0.63 1.25 1.56 <
-4 10 13 1 2.85 3.12 1.25 <
4 -10 -13 -1 2.85 -0.62 1.56 <
-3 10 13 -1 1.25 0.62 1.25 <
3 -10 -13 1 1.25 1.56 1.56 <
-4 10 13 2 0.59 3.43 1.25 <
4 -10 -13 -2 0.59 -0.31 1.56 <
-3 10 13 0 1.59 1.25 1.25 <
3 -10 -13 0 1.59 -0.31 1.56 <
-2 10 13 -2 1.04 0.94 1.56 <
2 -10 -13 2 1.04 -0.31 1.56 <
-3 10 13 1 0.17 -1.87 1.56 <
3 -10 -13 -1 0.17 0.31 1.56 <
-2 10 13 -1 2.08 4.37 1.56 <
2 -10 -13 1 2.08 -1.87 1.56 <
-3 10 13 2 0.10 -0.31 1.56 <
3 -10 -13 -2 0.10 4.68 1.56 <
-2 10 13 0 6.00 -1.87 1.56 <
2 -10 -13 0 6.00 5.62 1.56 o
-1 10 13 -2 0.34 -2.18 1.56 <
1 -10 -13 2 0.34 -8.43 3.12 <
-5 11 13 0 3.69 3.74 1.56 <
5 -11 -13 0 3.69 1.25 1.56 <
-4 11 13 -2 0.20 -1.25 1.56 <
4 -11 -13 2 0.20 -0.31 1.56 <
-5 11 13 1 0.46 -0.62 1.56 <
5 -11 -13 -1 0.46 -1.87 1.56 <
-4 11 13 -1 1.13 2.50 1.56 <
4 -11 -13 1 1.13 0.00 1.56 <
-5 11 13 2 0.90 -0.94 1.56 <
5 -11 -13 -2 0.90 -1.25 1.56 <
-4 11 13 0 3.12 0.94 1.56 <
4 -11 -13 0 3.12 2.50 1.56 <
-3 11 13 -2 0.48 1.87 1.25 <
3 -11 -13 2 0.48 -0.31 1.56 <
-4 11 13 1 2.36 1.56 1.56 <
4 -11 -13 -1 2.36 -0.62 1.56 <
-3 11 13 -1 0.56 -0.62 1.56 <
3 -11 -13 1 0.56 -0.31 1.56 <
-4 11 13 2 0.36 1.87 1.56 <
4 -11 -13 -2 0.36 -0.62 1.56 <
-3 11 13 0 0.48 0.31 1.56 <
3 -11 -13 0 0.48 0.94 1.56 <
-2 11 13 -2 0.76 0.31 1.56 <
2 -11 -13 2 0.76 1.25 1.56 <
-3 11 13 1 0.63 1.25 1.56 <
3 -11 -13 -1 0.63 2.18 1.56 <
-2 11 13 -1 1.13 -2.50 1.56 <
2 -11 -13 1 1.13 2.18 1.56 <
-4 12 13 -2 0.17 -1.25 1.56 <
4 -12 -13 2 0.17 -0.62 1.56 <
-5 12 13 1 0.57 -0.94 1.56 <
5 -12 -13 -1 0.57 1.25 1.56 <
-4 12 13 -1 0.87 -0.31 1.56 <
4 -12 -13 1 0.87 -0.62 1.56 <
-5 12 13 2 0.77 -0.31 1.56 <
5 -12 -13 -2 0.77 3.43 1.56 <
-4 12 13 0 1.83 -1.25 1.56 <
4 -12 -13 0 1.83 1.56 1.56 <
-3 12 13 -2 0.43 0.62 1.56 <
3 -12 -13 2 0.43 -1.25 1.56 <
-4 12 13 1 1.71 -0.62 1.56 <
4 -12 -13 -1 1.71 4.68 1.56 <
-3 12 13 -1 0.21 -2.81 1.56 <
3 -12 -13 1 0.21 -1.87 1.56 <
-4 12 13 2 0.17 0.00 1.56 <
4 -12 -13 -2 0.17 0.31 1.56 <
-3 12 13 0 0.07 0.62 2.18 <
3 -12 -13 0 0.07 -1.25 2.18 <
2 -10 14 -2 0.84 2.81 1.87 <
-2 10 -14 2 0.84 2.50 1.87 <
0 -9 14 0 2.26 0.00 1.87 <
0 9 -14 0 2.26 -0.62 2.18 <
1 -9 14 -2 0.84 0.94 1.87 <
-1 9 -14 2 0.84 -4.06 2.18 <
0 -9 14 1 0.68 -1.25 1.87 <
0 9 -14 -1 0.68 2.81 1.87 <
1 -9 14 -1 0.89 1.25 1.87 <
-1 9 -14 1 0.89 -3.43 1.87 <
0 -9 14 2 0.54 2.81 1.87 <
0 9 -14 -2 0.54 0.31 1.87 <
1 -9 14 0 1.15 4.99 1.87 <
-1 9 -14 0 1.15 0.62 1.87 <
2 -9 14 -2 1.08 5.31 1.87 <
-2 9 -14 2 1.08 3.43 1.87 <
1 -9 14 1 1.76 -1.25 1.56 <
-1 9 -14 -1 1.76 1.87 1.87 <
2 -9 14 -1 0.84 -1.56 1.56 <
-2 9 -14 1 0.84 0.62 1.87 <
1 -9 14 2 0.18 1.87 1.56 <
-1 9 -14 -2 0.18 2.50 1.56 <
-1 -8 14 1 0.26 1.56 2.18 <
1 8 -14 -1 0.26 1.87 2.18 <
0 -8 14 -1 0.39 1.56 1.87 <
0 8 -14 1 0.39 4.37 2.18 <
-1 -8 14 2 1.70 6.24 1.87 o
1 8 -14 -2 1.70 1.25 2.18 <
0 -8 14 0 2.93 -0.31 1.87 <
0 8 -14 0 2.93 2.18 1.87 <
1 -8 14 -2 0.85 2.81 1.87 <
-1 8 -14 2 0.85 -0.62 1.87 <
0 -8 14 1 1.08 -0.62 1.87 <
0 8 -14 -1 1.08 -1.25 1.87 <
1 -8 14 -1 1.33 -0.31 1.87 <
-1 8 -14 1 1.33 -2.18 1.87 <
0 -8 14 2 0.94 -0.62 1.87 <
0 8 -14 -2 0.94 1.56 1.87 <
1 -8 14 0 1.26 0.62 1.56 <
-1 8 -14 0 1.26 0.62 1.87 <
2 -8 14 -2 1.26 -0.31 1.56 <
-2 8 -14 2 1.26 -2.50 1.87 <
1 -8 14 1 1.12 1.87 1.56 <
-1 8 -14 -1 1.12 -1.56 1.87 <
2 -8 14 -1 1.31 -4.37 1.56 <
-2 8 -14 1 1.31 8.74 1.56 o
1 -8 14 2 0.11 -3.12 1.56 <
-1 8 -14 -2 0.11 -1.87 1.56 <
2 -8 14 0 2.79 0.94 1.56 <
-2 8 -14 0 2.79 3.74 1.56 <
-2 -7 14 2 1.11 5.31 2.18 <
2 7 -14 -2 1.11 6.55 2.18 <
-1 -7 14 0 3.01 -4.37 2.18 <
1 7 -14 0 3.01 7.49 2.18 o
0 -7 14 -2 0.07 2.50 1.87 <
0 7 -14 2 0.07 0.31 2.18 <
-1 -7 14 1 0.18 2.50 1.87 <
1 7 -14 -1 0.18 0.00 2.18 <
0 -7 14 -1 0.99 3.12 1.87 <
0 7 -14 1 0.99 -5.31 2.18 <
-1 -7 14 2 2.05 -0.94 1.87 <
1 7 -14 -2 2.05 0.94 1.87 <
0 -7 14 0 3.96 1.56 1.87 <
0 7 -14 0 3.96 -2.50 1.87 <
1 -7 14 -2 0.75 2.50 1.87 <
-1 7 -14 2 0.75 1.87 1.87 <
0 -7 14 1 1.71 4.06 1.87 <
0 7 -14 -1 1.71 -3.12 1.87 <
1 -7 14 -1 1.64 2.50 1.87 <
-1 7 -14 1 1.64 -4.99 1.87 <
0 -7 14 2 1.32 -0.62 1.56 <
0 7 -14 -2 1.32 2.18 1.87 <
1 -7 14 0 1.82 3.12 1.56 <
-1 7 -14 0 1.82 5.62 1.56 o
2 -7 14 -2 1.35 -0.31 1.56 <
-2 7 -14 2 1.35 -2.50 1.56 <
1 -7 14 1 0.42 -2.50 1.56 <
-1 7 -14 -1 0.42 3.12 1.56 <
2 -7 14 -1 1.65 1.25 1.56 <
-2 7 -14 1 1.65 2.18 1.56 <
1 -7 14 2 0.04 -0.31 1.56 <
-1 7 -14 -2 0.04 -1.87 1.56 <
2 -7 14 0 4.14 2.81 1.56 <
-2 7 -14 0 4.14 6.24 2.18 <
-2 -6 14 1 0.26 4.37 2.18 <
2 6 -14 -1 0.26 4.06 2.18 <
-1 -6 14 -1 2.03 -1.87 2.18 <
1 6 -14 1 2.03 -1.87 3.43 <
-2 -6 14 2 1.15 -4.99 2.18 <
2 6 -14 -2 1.15 -2.81 5.31 <
-1 -6 14 0 4.65 0.00 1.87 <
1 6 -14 0 4.65 4.37 1.87 <
0 -6 14 -2 0.17 -0.94 1.87 <
0 6 -14 2 0.17 -1.87 1.87 <
-1 -6 14 1 0.25 0.00 1.87 <
1 6 -14 -1 0.25 0.94 1.87 <
0 -6 14 -1 1.89 1.25 1.87 <
0 6 -14 1 1.89 -1.25 1.87 <
-1 -6 14 2 2.25 2.50 1.87 <
1 6 -14 -2 2.25 2.50 1.87 <
0 -6 14 0 4.28 -0.94 1.87 <
0 6 -14 0 4.28 2.18 1.87 <
1 -6 14 -2 0.61 1.25 1.87 <
-1 6 -14 2 0.61 0.94 1.87 <
0 -6 14 1 2.51 0.31 1.56 <
0 6 -14 -1 2.51 1.56 1.87 <
1 -6 14 -1 1.74 0.00 1.56 <
-1 6 -14 1 1.74 -0.62 1.87 <
0 -6 14 2 1.55 1.87 1.56 <
0 6 -14 -2 1.55 3.43 1.56 <
1 -6 14 0 1.97 -3.43 1.56 <
-1 6 -14 0 1.97 1.87 1.56 <
2 -6 14 -2 1.34 -0.31 1.56 <
-2 6 -14 2 1.34 1.25 1.56 <
1 -6 14 1 0.02 0.94 1.56 <
-1 6 -14 -1 0.02 0.00 1.56 <
2 -6 14 -1 1.70 1.25 1.56 <
-2 6 -14 1 1.70 0.31 1.56 <
1 -6 14 2 0.01 3.43 1.56 <
-1 6 -14 -2 0.01 0.62 1.25 <
2 -6 14 0 5.27 4.06 1.25 o
-2 6 -14 0 5.27 3.43 0.94 o
-2 -5 14 0 0.43 0.31 1.56 <
2 5 -14 0 0.43 0.94 1.56 <
-1 -5 14 -2 0.68 -3.12 1.87 <
1 5 -14 2 0.68 0.62 1.56 <
-2 -5 14 1 0.24 1.87 1.87 <
2 5 -14 -1 0.24 -0.31 1.56 <
-1 -5 14 -1 3.25 0.62 2.18 <
1 5 -14 1 3.25 1.56 1.56 <
-2 -5 14 2 1.10 -3.12 2.81 <
2 5 -14 -2 1.10 -0.94 1.56 <
-1 -5 14 0 6.58 2.81 4.06 <
1 5 -14 0 6.58 2.50 1.25 <
0 -5 14 -2 0.29 1.56 1.87 <
0 5 -14 2 0.29 0.62 1.56 <
-1 -5 14 1 0.53 -2.50 1.87 <
1 5 -14 -1 0.53 -0.62 1.56 <
0 -5 14 -1 2.92 1.56 1.87 <
0 5 -14 1 2.92 0.62 1.87 <
-1 -5 14 2 2.36 1.87 1.87 <
1 5 -14 -2 2.36 5.62 2.81 <
0 -5 14 0 5.69 -2.18 1.56 <
0 5 -14 0 5.69 4.37 4.68 <
1 -5 14 -2 0.53 0.00 1.56 <
-1 5 -14 2 0.53 2.50 1.87 <
0 -5 14 1 3.29 2.50 1.56 <
0 5 -14 -1 3.29 1.25 1.87 <
1 -5 14 -1 1.63 0.31 1.56 <
-1 5 -14 1 1.63 1.87 1.56 <
0 -5 14 2 1.51 3.74 1.56 <
0 5 -14 -2 1.51 0.62 1.56 <
1 -5 14 0 1.37 0.94 1.56 <
-1 5 -14 0 1.37 1.87 1.56 <
2 -5 14 -2 1.27 1.87 1.56 <
-2 5 -14 2 1.27 -0.31 1.56 <
1 -5 14 1 0.16 -2.81 1.56 <
-1 5 -14 -1 0.16 2.18 1.56 <
2 -5 14 -1 1.45 4.06 1.56 <
-2 5 -14 1 1.45 1.56 0.94 <
1 -5 14 2 0.00 0.94 0.94 <
-1 5 -14 -2 0.00 0.62 0.94 <
2 -5 14 0 5.83 1.56 0.94 <
-2 5 -14 0 5.83 4.37 0.94 o
-2 -4 14 -1 1.52 3.43 1.56 <
2 4 -14 1 1.52 2.81 1.56 <
-3 -4 14 2 0.11 -2.18 1.56 <
3 4 -14 -2 0.11 0.00 1.56 <
-2 -4 14 0 0.68 -0.62 1.56 <
2 4 -14 0 0.68 3.12 1.56 <
-1 -4 14 -2 0.87 1.87 1.25 <
1 4 -14 2 0.87 -1.25 1.56 <
-2 -4 14 1 0.55 -0.62 1.25 <
2 4 -14 -1 0.55 1.87 1.56 <
-1 -4 14 -1 4.42 2.81 1.25 <
1 4 -14 1 4.42 -0.62 1.25 <
-2 -4 14 2 1.09 0.31 1.25 <
2 4 -14 -2 1.09 -0.62 1.25 <
-1 -4 14 0 9.83 5.62 1.25 o
1 4 -14 0 9.83 7.80 1.25 o
0 -4 14 -2 0.37 -2.81 1.25 <
0 4 -14 2 0.37 -2.50 1.25 <
-1 -4 14 1 0.94 0.94 1.25 <
1 4 -14 -1 0.94 -0.62 1.25 <
0 -4 14 -1 3.71 2.81 1.25 <
0 4 -14 1 3.71 2.18 1.25 <
-1 -4 14 2 2.52 0.31 1.25 <
1 4 -14 -2 2.52 2.50 1.25 <
0 -4 14 0 4.58 0.94 1.56 <
0 4 -14 0 4.58 6.55 1.25 o
1 -4 14 -2 0.58 1.56 1.87 <
-1 4 -14 2 0.58 0.94 0.94 <
0 -4 14 1 3.79 0.62 2.81 <
0 4 -14 -1 3.79 2.81 0.94 <
1 -4 14 -1 1.40 -2.18 1.56 <
-1 4 -14 1 1.40 0.31 0.94 <
0 -4 14 2 1.23 4.06 1.56 <
0 4 -14 -2 1.23 0.31 1.25 <
1 -4 14 0 0.53 0.94 1.56 <
-1 4 -14 0 0.53 4.68 1.25 o
2 -4 14 -2 1.20 0.62 1.56 <
-2 4 -14 2 1.20 0.31 1.25 <
1 -4 14 1 0.81 -1.25 1.56 <
-1 4 -14 -1 0.81 1.56 0.94 <
2 -4 14 -1 1.02 0.62 0.94 <
-2 4 -14 1 1.02 0.00 0.94 <
1 -4 14 2 0.01 0.62 0.94 <
-1 4 -14 -2 0.01 2.18 0.94 <
-2 -3 14 -2 0.52 0.31 1.56 <
2 3 -14 2 0.52 2.50 1.56 <
-3 -3 14 1 1.34 0.62 1.56 <
3 3 -14 -1 1.34 -1.87 1.56 <
-2 -3 14 -1 1.20 0.31 1.56 <
2 3 -14 1 1.20 4.68 1.56 <
-3 -3 14 2 0.19 2.50 1.25 <
3 3 -14 -2 0.19 0.94 1.56 <
-2 -3 14 0 0.36 -0.31 1.25 <
2 3 -14 0 0.36 2.50 1.56 <
-1 -3 14 -2 1.08 0.00 1.25 <
1 3 -14 2 1.08 0.00 1.25 <
-2 -3 14 1 1.55 -0.94 1.25 <
2 3 -14 -1 1.55 0.00 1.25 <
-1 -3 14 -1 5.07 4.99 1.25 o
1 3 -14 1 5.07 0.62 1.25 <
-2 -3 14 2 1.28 -1.87 1.25 <
2 3 -14 -2 1.28 1.87 1.25 <
-1 -3 14 0 14.46 1.87 1.25 <
1 3 -14 0 14.46 6.87 1.25 o
0 -3 14 -2 0.36 0.62 1.25 <
0 3 -14 2 0.36 2.81 1.25 <
-1 -3 14 1 1.31 1.56 1.25 <
1 3 -14 -1 1.31 2.18 1.25 <
0 -3 14 -1 3.81 1.25 0.94 <
0 3 -14 1 3.81 3.43 1.25 <
-1 -3 14 2 2.89 1.87 0.94 <
1 3 -14 -2 2.89 1.56 1.25 <
0 -3 14 0 3.20 3.74 0.94 o
0 3 -14 0 3.20 4.37 1.25 o
1 -3 14 -2 0.74 0.62 0.94 <
-1 3 -14 2 0.74 2.81 0.94 <
0 -3 14 1 3.76 1.25 0.94 <
0 3 -14 -1 3.76 1.56 0.94 <
1 -3 14 -1 1.16 1.87 0.94 <
-1 3 -14 1 1.16 1.25 0.94 <
0 -3 14 2 0.86 0.62 0.94 <
0 3 -14 -2 0.86 2.81 0.94 <
1 -3 14 0 0.12 -2.50 0.94 <
-1 3 -14 0 0.12 -0.62 0.94 <
2 -3 14 -2 1.16 -0.62 0.94 <
-2 3 -14 2 1.16 0.62 0.94 <
1 -3 14 1 1.69 0.94 0.94 <
-1 3 -14 -1 1.69 1.56 1.25 <
2 -3 14 -1 0.58 0.00 0.94 <
-2 3 -14 1 0.58 0.31 1.25 <
-3 -2 14 0 2.53 1.56 1.56 <
3 2 -14 0 2.53 0.94 1.56 <
-2 -2 14 -2 0.80 1.25 1.56 <
2 2 -14 2 0.80 1.87 1.56 <
-3 -2 14 1 1.68 3.43 1.25 <
3 2 -14 -1 1.68 2.81 1.56 <
-2 -2 14 -1 0.63 3.43 1.25 <
2 2 -14 1 0.63 0.94 1.56 <
-3 -2 14 2 0.25 3.43 1.25 <
3 2 -14 -2 0.25 4.68 1.25 o
-2 -2 14 0 0.29 2.18 1.25 <
2 2 -14 0 0.29 0.62 1.25 <
-1 -2 14 -2 1.38 1.87 1.25 <
1 2 -14 2 1.38 -2.81 1.25 <
-2 -2 14 1 3.53 0.62 1.25 <
2 2 -14 -1 3.53 -2.50 1.25 <
-1 -2 14 -1 4.77 2.81 1.25 <
1 2 -14 1 4.77 2.50 1.25 <
-2 -2 14 2 1.80 -1.87 1.25 <
2 2 -14 -2 1.80 -1.56 1.25 <
-1 -2 14 0 15.88 5.62 1.25 o
1 2 -14 0 15.88 5.31 1.25 o
0 -2 14 -2 0.24 2.81 0.94 <
0 2 -14 2 0.24 -2.50 1.25 <
-1 -2 14 1 1.49 -3.43 0.94 <
1 2 -14 -1 1.49 -1.25 1.25 <
0 -2 14 -1 3.05 6.55 0.94 o
0 2 -14 1 3.05 5.62 1.25 o
-1 -2 14 2 3.52 5.93 0.94 o
1 2 -14 -2 3.52 -0.62 0.94 <
0 -2 14 0 3.07 1.25 0.94 <
0 2 -14 0 3.07 2.50 0.94 <
1 -2 14 -2 0.89 2.81 0.94 <
-1 2 -14 2 0.89 1.25 0.94 <
0 -2 14 1 3.12 3.74 0.94 o
0 2 -14 -1 3.12 3.74 0.94 o
1 -2 14 -1 0.94 0.62 0.94 <
-1 2 -14 1 0.94 0.62 0.94 <
0 -2 14 2 0.58 1.25 0.94 <
0 2 -14 -2 0.58 2.50 0.94 <
1 -2 14 0 0.11 0.00 0.94 <
-1 2 -14 0 0.11 1.87 0.94 <
2 -2 14 -2 1.14 0.62 1.25 <
-2 2 -14 2 1.14 1.25 1.56 <
1 -2 14 1 2.41 4.37 5.62 <
-1 2 -14 -1 2.41 0.31 1.87 <
2 -2 14 -1 0.26 -0.31 2.18 <
-2 2 -14 1 0.26 1.56 1.87 <
-3 -1 14 -1 0.07 -3.43 1.56 <
3 1 -14 1 0.07 0.00 1.56 <
-4 -1 14 2 0.55 1.25 1.56 <
4 1 -14 -2 0.55 -1.25 1.56 <
-3 -1 14 0 1.62 -1.56 1.56 <
3 1 -14 0 1.62 -9.99 1.56 <
-2 -1 14 -2 1.32 3.12 1.25 <
2 1 -14 2 1.32 -0.31 1.56 <
-3 -1 14 1 1.86 -2.18 1.25 <
3 1 -14 -1 1.86 -2.50 1.56 <
-2 -1 14 -1 0.10 1.25 1.25 <
2 1 -14 1 0.10 3.43 1.25 <
-3 -1 14 2 0.24 -2.81 1.25 <
3 1 -14 -2 0.24 -3.12 1.25 <
-2 -1 14 0 0.56 1.87 1.25 <
2 1 -14 0 0.56 0.62 1.25 <
-1 -1 14 -2 1.83 0.00 1.25 <
1 1 -14 2 1.83 -3.43 1.25 <
-2 -1 14 1 6.27 4.68 1.25 o
2 1 -14 -1 6.27 1.87 1.25 <
-1 -1 14 -1 3.61 8.74 1.25 o
1 1 -14 1 3.61 5.62 1.25 o
-2 -1 14 2 2.56 3.12 1.25 <
2 1 -14 -2 2.56 -0.31 1.25 <
-1 -1 14 0 12.70 0.62 0.94 <
1 1 -14 0 12.70 3.12 1.25 <
0 -1 14 -2 0.10 1.25 0.94 <
0 1 -14 2 0.10 6.55 1.25 o
-1 -1 14 1 1.43 0.94 0.94 <
1 1 -14 -1 1.43 1.25 0.94 <
0 -1 14 -1 1.71 2.50 0.94 <
0 1 -14 1 1.71 0.62 0.94 <
-1 -1 14 2 4.24 3.74 0.94 o
1 1 -14 -2 4.24 -0.31 0.94 <
0 -1 14 0 4.21 3.12 0.94 o
0 1 -14 0 4.21 7.18 0.94 o
1 -1 14 -2 0.95 1.56 0.94 <
-1 1 -14 2 0.95 3.12 0.94 o
0 -1 14 1 2.08 8.74 0.94 o
0 1 -14 -1 2.08 5.62 0.94 o
1 -1 14 -1 0.72 2.18 0.94 <
-1 1 -14 1 0.72 0.31 0.94 <
0 -1 14 2 0.52 2.18 0.94 <
0 1 -14 -2 0.52 1.87 1.25 <
1 -1 14 0 0.61 3.74 2.50 <
-1 1 -14 0 0.61 1.87 1.87 <
2 -1 14 -2 1.08 -1.56 1.56 <
-2 1 -14 2 1.08 1.87 1.87 <
1 -1 14 1 2.70 -0.62 1.87 <
-1 1 -14 -1 2.70 -1.25 1.87 <
-4 0 14 1 2.17 0.94 1.56 <
4 0 -14 -1 2.17 -1.25 1.56 <
-3 0 14 -1 0.11 -4.68 1.56 <
3 0 -14 1 0.11 2.18 1.56 <
-4 0 14 2 0.97 8.11 1.25 o
4 0 -14 -2 0.97 -4.37 1.56 <
-3 0 14 0 1.47 2.50 1.25 <
3 0 -14 0 1.47 -2.18 1.56 <
-2 0 14 -2 2.10 0.94 1.25 <
2 0 -14 2 2.10 3.43 1.56 <
-3 0 14 1 1.76 3.43 1.25 <
3 0 -14 -1 1.76 -2.81 1.56 <
-2 0 14 -1 0.11 0.62 1.25 <
2 0 -14 1 0.11 -1.87 1.25 <
-3 0 14 2 0.19 -2.81 1.25 <
3 0 -14 -2 0.19 0.00 1.25 <
-2 0 14 0 2.25 0.94 1.25 <
2 0 -14 0 2.25 -0.31 1.25 <
-1 0 14 -2 2.45 6.87 1.25 o
1 0 -14 2 2.45 6.55 1.25 o
-2 0 14 1 8.88 4.99 1.25 o
2 0 -14 -1 8.88 6.87 1.25 o
-1 0 14 -1 2.39 1.25 1.25 <
1 0 -14 1 2.39 0.31 1.25 <
-2 0 14 2 3.20 2.18 1.25 <
2 0 -14 -2 3.20 1.25 1.25 <
-1 0 14 0 11.00 0.31 0.94 <
1 0 -14 0 11.00 -1.56 1.25 <
0 0 14 -2 0.07 0.31 0.94 <
0 0 -14 2 0.07 4.06 1.25 o
-1 0 14 1 1.19 1.87 0.94 <
1 0 -14 -1 1.19 -0.94 0.94 <
0 0 14 -1 0.51 0.62 0.94 <
0 0 -14 1 0.51 6.24 0.94 o
-1 0 14 2 4.70 2.18 0.94 <
1 0 -14 -2 4.70 3.12 0.94 o
0 0 14 0 1.82 4.06 0.94 o
0 0 -14 0 1.82 1.25 0.94 <
1 0 14 -2 0.87 1.56 0.94 <
-1 0 -14 2 0.87 3.12 0.94 o
0 0 14 1 1.02 3.43 0.94 o
0 0 -14 -1 1.02 0.94 0.94 <
1 0 14 -1 0.48 0.31 0.94 <
-1 0 -14 1 0.48 1.87 2.81 <
0 0 14 2 0.66 1.25 1.56 <
0 0 -14 -2 0.66 5.31 1.87 <
1 0 14 0 1.25 -1.25 1.87 <
-1 0 -14 0 1.25 1.25 1.87 <
2 0 14 -2 0.95 -2.18 1.87 <
-2 0 -14 2 0.95 0.62 1.87 <
-3 1 14 -2 0.37 3.43 1.56 <
3 -1 -14 2 0.37 -2.81 1.56 <
-4 1 14 1 2.36 -2.18 1.56 <
4 -1 -14 -1 2.36 2.81 1.56 <
-3 1 14 -1 0.18 4.37 1.56 <
3 -1 -14 1 0.18 -1.87 1.56 <
-4 1 14 2 1.61 1.25 1.25 <
4 -1 -14 -2 1.61 2.50 1.56 <
-3 1 14 0 1.58 0.94 1.25 <
3 -1 -14 0 1.58 5.31 1.56 o
-2 1 14 -2 2.97 1.87 1.25 <
2 -1 -14 2 2.97 1.56 1.56 <
-3 1 14 1 1.39 4.68 1.25 o
3 -1 -14 -1 1.39 -1.56 1.56 <
-2 1 14 -1 1.04 0.62 1.25 <
2 -1 -14 1 1.04 2.81 1.25 <
-3 1 14 2 0.18 1.25 1.25 <
3 -1 -14 -2 0.18 3.74 1.25 o
-2 1 14 0 4.47 2.50 1.25 <
2 -1 -14 0 4.47 5.31 1.25 o
-1 1 14 -2 3.14 2.18 1.25 <
1 -1 -14 2 3.14 1.87 1.25 <
-2 1 14 1 10.14 6.24 1.25 o
2 -1 -14 -1 10.14 6.87 1.25 o
-1 1 14 -1 2.16 -1.56 1.25 <
1 -1 -14 1 2.16 0.62 1.25 <
-2 1 14 2 3.31 3.12 0.94 o
2 -1 -14 -2 3.31 2.50 1.25 <
-1 1 14 0 9.47 2.81 0.94 <
1 -1 -14 0 9.47 2.50 1.25 <
0 1 14 -2 0.22 1.56 0.94 <
0 -1 -14 2 0.22 0.62 1.25 <
-1 1 14 1 0.87 4.68 0.94 o
1 -1 -14 -1 0.87 5.62 1.25 o
0 1 14 -1 0.10 2.18 0.94 <
0 -1 -14 1 0.10 2.81 1.25 <
-1 1 14 2 4.62 6.24 1.25 o
1 -1 -14 -2 4.62 5.93 1.25 o
0 1 14 0 1.01 1.56 0.94 <
0 -1 -14 0 1.01 0.62 0.94 <
1 1 14 -2 0.67 1.25 0.94 <
-1 -1 -14 2 0.67 -1.87 1.25 <
0 1 14 1 0.29 -1.25 1.25 <
0 -1 -14 -1 0.29 3.74 1.87 <
1 1 14 -1 0.28 1.56 1.87 <
-1 -1 -14 1 0.28 -0.31 1.87 <
0 1 14 2 0.85 -0.94 1.87 <
0 -1 -14 -2 0.85 -4.99 1.87 <
1 1 14 0 1.71 0.31 1.87 <
-1 -1 -14 0 1.71 8.43 1.87 o
-4 2 14 0 2.86 -2.50 1.56 <
4 -2 -14 0 2.86 2.50 1.56 <
-3 2 14 -2 0.30 0.62 1.56 <
3 -2 -14 2 0.30 -3.12 1.87 <
-4 2 14 1 2.14 3.12 1.25 <
4 -2 -14 -1 2.14 1.25 1.56 <
-3 2 14 -1 0.31 5.93 1.25 o
3 -2 -14 1 0.31 4.99 1.56 o
-4 2 14 2 2.39 -2.50 1.25 <
4 -2 -14 -2 2.39 2.18 1.25 <
-3 2 14 0 2.15 2.81 1.25 <
3 -2 -14 0 2.15 2.18 1.25 <
-2 2 14 -2 3.65 7.18 1.25 o
2 -2 -14 2 3.65 0.00 1.25 <
-3 2 14 1 1.06 -1.87 1.25 <
3 -2 -14 -1 1.06 1.56 1.25 <
-2 2 14 -1 2.72 8.11 1.25 o
2 -2 -14 1 2.72 7.80 1.25 o
-3 2 14 2 0.30 0.94 1.25 <
3 -2 -14 -2 0.30 0.00 1.25 <
-2 2 14 0 4.80 13.11 1.25 o
2 -2 -14 0 4.80 13.73 1.25 o
-1 2 14 -2 3.64 0.62 1.25 <
1 -2 -14 2 3.64 -0.94 1.25 <
-2 2 14 1 9.41 7.49 1.25 o
2 -2 -14 -1 9.41 9.05 1.25 o
-1 2 14 -1 3.14 3.43 1.25 <
1 -2 -14 1 3.14 3.74 1.25 o
-2 2 14 2 2.78 0.62 0.94 <
2 -2 -14 -2 2.78 2.81 1.25 <
-1 2 14 0 6.37 4.99 1.25 o
1 -2 -14 0 6.37 4.37 1.25 o
0 2 14 -2 0.52 2.81 0.94 <
0 -2 -14 2 0.52 0.62 1.25 <
-1 2 14 1 0.60 2.18 0.94 <
1 -2 -14 -1 0.60 2.18 1.25 <
0 2 14 -1 0.55 0.31 1.25 <
0 -2 -14 1 0.55 0.62 1.25 <
-1 2 14 2 3.96 1.87 1.25 <
1 -2 -14 -2 3.96 1.25 1.25 <
0 2 14 0 0.66 -0.31 1.25 <
0 -2 -14 0 0.66 -2.81 1.25 <
1 2 14 -2 0.43 2.81 1.25 <
-1 -2 -14 2 0.43 -0.31 1.87 <
0 2 14 1 0.01 -4.99 1.87 <
0 -2 -14 -1 0.01 -1.25 1.87 <
1 2 14 -1 0.14 -0.62 1.87 <
-1 -2 -14 1 0.14 4.06 1.87 <
-5 3 14 2 1.88 -4.99 1.56 <
5 -3 -14 -2 1.88 -1.56 1.56 <
-4 3 14 0 3.52 0.94 1.56 <
4 -3 -14 0 3.52 -0.62 1.56 <
-3 3 14 -2 0.18 -2.81 1.25 <
3 -3 -14 2 0.18 -1.25 1.56 <
-4 3 14 1 1.57 2.81 1.25 <
4 -3 -14 -1 1.57 -0.94 1.56 <
-3 3 14 -1 0.55 0.62 1.25 <
3 -3 -14 1 0.55 0.94 1.25 <
-4 3 14 2 3.06 0.62 1.25 <
4 -3 -14 -2 3.06 -0.31 1.25 <
-3 3 14 0 2.86 2.18 1.25 <
3 -3 -14 0 2.86 0.62 1.25 <
-2 3 14 -2 3.80 -1.87 1.25 <
2 -3 -14 2 3.80 2.81 1.25 <
-3 3 14 1 1.14 3.12 1.25 <
3 -3 -14 -1 1.14 0.31 1.25 <
-2 3 14 -1 4.40 8.74 1.25 o
2 -3 -14 1 4.40 9.67 1.25 o
-3 3 14 2 0.57 1.87 1.25 <
3 -3 -14 -2 0.57 -1.25 1.25 <
-2 3 14 0 6.58 8.11 1.25 o
2 -3 -14 0 6.58 5.62 1.25 o
-1 3 14 -2 3.71 -1.87 1.25 <
1 -3 -14 2 3.71 1.56 1.25 <
-2 3 14 1 7.05 7.18 1.25 o
2 -3 -14 -1 7.05 6.55 1.25 o
-1 3 14 -1 4.48 9.99 1.25 o
1 -3 -14 1 4.48 14.35 1.25 o
-2 3 14 2 1.89 -0.62 1.25 <
2 -3 -14 -2 1.89 1.56 1.25 <
-1 3 14 0 4.41 3.12 1.25 <
1 -3 -14 0 4.41 5.31 1.25 o
0 3 14 -2 0.81 0.62 1.25 <
0 -3 -14 2 0.81 1.87 1.25 <
-1 3 14 1 0.43 0.94 1.25 <
1 -3 -14 -1 0.43 0.62 1.25 <
0 3 14 -1 1.42 1.56 1.25 <
0 -3 -14 1 1.42 0.62 1.25 <
-1 3 14 2 2.94 0.31 1.25 <
1 -3 -14 -2 2.94 -0.94 1.25 <
0 3 14 0 0.54 0.00 1.56 <
0 -3 -14 0 0.54 -0.31 1.87 <
1 3 14 -2 0.22 2.18 1.87 <
-1 -3 -14 2 0.22 0.62 1.87 <
0 3 14 1 0.07 0.62 1.87 <
0 -3 -14 -1 0.07 -8.74 1.87 <
-4 4 14 -1 0.63 0.62 1.56 <
4 -4 -14 1 0.63 0.00 1.87 <
-5 4 14 2 2.08 1.87 1.56 <
5 -4 -14 -2 2.08 1.25 1.56 <
-4 4 14 0 3.80 4.06 1.25 o
4 -4 -14 0 3.80 4.06 1.56 <
-3 4 14 -2 0.08 2.50 1.25 <
3 -4 -14 2 0.08 1.56 1.56 <
-4 4 14 1 0.86 2.50 1.25 <
4 -4 -14 -1 0.86 2.81 1.25 <
-3 4 14 -1 0.92 0.62 1.25 <
3 -4 -14 1 0.92 0.31 1.25 <
-4 4 14 2 3.33 1.25 1.25 <
4 -4 -14 -2 3.33 4.06 1.25 o
-3 4 14 0 4.47 2.81 1.25 <
3 -4 -14 0 4.47 4.37 1.25 o
-2 4 14 -2 3.33 2.81 1.25 <
2 -4 -14 2 3.33 1.87 1.25 <
-3 4 14 1 1.80 1.87 1.25 <
3 -4 -14 -1 1.80 0.62 1.25 <
-2 4 14 -1 5.19 4.99 1.25 o
2 -4 -14 1 5.19 0.94 1.25 <
-3 4 14 2 0.91 1.56 1.25 <
3 -4 -14 -2 0.91 1.25 1.25 <
-2 4 14 0 9.84 9.36 1.25 o
2 -4 -14 0 9.84 8.74 1.25 o
-1 4 14 -2 3.30 0.94 1.25 <
1 -4 -14 2 3.30 1.25 1.25 <
-2 4 14 1 4.14 2.81 1.25 <
2 -4 -14 -1 4.14 1.87 1.25 <
-1 4 14 -1 5.09 6.55 1.25 o
1 -4 -14 1 5.09 4.99 1.25 o
-2 4 14 2 1.06 1.87 1.25 <
2 -4 -14 -2 1.06 -0.62 1.25 <
-1 4 14 0 6.76 2.81 1.25 <
1 -4 -14 0 6.76 -0.62 1.25 <
0 4 14 -2 0.95 0.94 1.25 <
0 -4 -14 2 0.95 0.00 1.25 <
-1 4 14 1 0.34 -0.62 1.25 <
1 -4 -14 -1 0.34 1.25 1.25 <
0 4 14 -1 2.15 -0.62 1.25 <
0 -4 -14 1 2.15 0.94 1.56 <
-1 4 14 2 1.89 -3.74 1.87 <
1 -4 -14 -2 1.89 1.56 1.87 <
0 4 14 0 0.28 0.31 1.87 <
0 -4 -14 0 0.28 5.62 1.87 <
1 4 14 -2 0.09 4.68 1.87 <
-1 -4 -14 2 0.09 -0.31 2.18 <
-5 5 14 1 0.66 0.62 1.56 <
5 -5 -14 -1 0.66 -0.62 1.56 <
-4 5 14 -1 1.21 -1.87 1.56 <
4 -5 -14 1 1.21 0.94 1.56 <
-5 5 14 2 2.04 2.50 1.56 <
5 -5 -14 -2 2.04 0.00 1.56 <
-4 5 14 0 4.10 3.43 1.56 <
4 -5 -14 0 4.10 9.05 1.56 o
-3 5 14 -2 0.06 -2.81 1.25 <
3 -5 -14 2 0.06 -0.62 1.25 <
-4 5 14 1 0.29 1.56 1.25 <
4 -5 -14 -1 0.29 3.12 1.25 <
-3 5 14 -1 1.38 -0.31 1.25 <
3 -5 -14 1 1.38 0.62 1.25 <
-4 5 14 2 3.08 2.81 1.25 <
4 -5 -14 -2 3.08 3.74 1.25 o
-3 5 14 0 5.54 2.50 1.25 <
3 -5 -14 0 5.54 1.56 1.25 <
-2 5 14 -2 2.47 2.81 1.25 <
2 -5 -14 2 2.47 0.31 1.25 <
-3 5 14 1 2.83 4.37 1.25 o
3 -5 -14 -1 2.83 2.18 1.25 <
-2 5 14 -1 4.78 2.81 1.25 <
2 -5 -14 1 4.78 6.87 1.25 o
-3 5 14 2 1.13 -0.94 1.25 <
3 -5 -14 -2 1.13 1.87 1.25 <
-2 5 14 0 7.12 2.18 1.25 <
2 -5 -14 0 7.12 0.94 1.25 <
-1 5 14 -2 2.58 1.87 1.25 <
1 -5 -14 2 2.58 0.31 1.25 <
-2 5 14 1 1.74 0.62 1.25 <
2 -5 -14 -1 1.74 -1.25 1.25 <
-1 5 14 -1 4.64 0.62 1.25 <
1 -5 -14 1 4.64 1.87 1.25 <
-2 5 14 2 0.51 -0.94 1.25 <
2 -5 -14 -2 0.51 -0.62 1.25 <
-1 5 14 0 6.74 -0.31 1.25 <
1 -5 -14 0 6.74 2.81 1.25 <
0 5 14 -2 0.88 3.74 1.25 o
0 -5 -14 2 0.88 0.31 1.25 <
-1 5 14 1 0.28 -2.18 1.25 <
1 -5 -14 -1 0.28 -1.87 2.18 <
0 5 14 -1 2.40 -5.62 2.81 <
0 -5 -14 1 2.40 1.25 2.18 <
-1 5 14 2 1.07 4.06 1.87 <
1 -5 -14 -2 1.07 -0.94 2.18 <
-4 6 14 -2 0.28 1.87 1.56 <
4 -6 -14 2 0.28 -1.25 1.56 <
-5 6 14 1 0.63 0.31 1.56 <
5 -6 -14 -1 0.63 2.81 1.56 <
-4 6 14 -1 1.80 5.62 1.56 o
4 -6 -14 1 1.80 10.92 1.56 o
-5 6 14 2 1.81 -0.62 1.25 <
5 -6 -14 -2 1.81 1.56 1.56 <
-4 6 14 0 5.14 9.99 1.56 o
4 -6 -14 0 5.14 18.72 1.56 o
-3 6 14 -2 0.15 1.25 1.25 <
3 -6 -14 2 0.15 0.31 1.25 <
-4 6 14 1 0.02 1.56 1.25 <
4 -6 -14 -1 0.02 1.87 1.25 <
-3 6 14 -1 1.82 1.56 1.25 <
3 -6 -14 1 1.82 3.74 1.25 o
-4 6 14 2 2.48 1.56 1.25 <
4 -6 -14 -2 2.48 4.68 1.25 o
-3 6 14 0 6.44 2.81 1.25 <
3 -6 -14 0 6.44 2.50 1.25 <
-2 6 14 -2 1.65 2.50 1.25 <
2 -6 -14 2 1.65 0.62 1.25 <
-3 6 14 1 3.77 1.25 1.25 <
3 -6 -14 -1 3.77 1.25 1.25 <
-2 6 14 -1 3.57 0.00 1.25 <
2 -6 -14 1 3.57 0.31 1.25 <
-3 6 14 2 1.13 -0.31 1.25 <
3 -6 -14 -2 1.13 -0.62 1.25 <
-2 6 14 0 4.27 3.12 1.25 <
2 -6 -14 0 4.27 2.81 1.25 <
-1 6 14 -2 1.85 -0.31 1.25 <
1 -6 -14 2 1.85 -2.81 1.25 <
-2 6 14 1 0.39 -2.81 1.25 <
2 -6 -14 -1 0.39 -1.87 1.25 <
-1 6 14 -1 3.48 1.25 1.25 <
1 -6 -14 1 3.48 0.31 1.25 <
-2 6 14 2 0.24 1.56 1.25 <
2 -6 -14 -2 0.24 -1.87 1.25 <
-1 6 14 0 6.92 0.62 1.25 <
1 -6 -14 0 6.92 0.00 1.25 <
0 6 14 -2 0.67 -2.50 1.25 <
0 -6 -14 2 0.67 7.18 3.74 <
-1 6 14 1 0.23 -1.87 4.37 <
1 -6 -14 -1 0.23 3.12 2.18 <
-4 7 14 -2 0.30 -1.56 1.56 <
4 -7 -14 2 0.30 0.31 1.56 <
-5 7 14 1 0.57 0.62 1.56 <
5 -7 -14 -1 0.57 1.56 1.56 <
-4 7 14 -1 2.20 11.55 1.56 o
4 -7 -14 1 2.20 8.11 1.56 o
-5 7 14 2 1.51 0.62 1.25 <
5 -7 -14 -2 1.51 1.87 1.56 <
-4 7 14 0 5.35 11.86 1.56 o
4 -7 -14 0 5.35 12.48 1.56 o
-3 7 14 -2 0.27 -0.94 1.25 <
3 -7 -14 2 0.27 -1.25 1.25 <
-4 7 14 1 0.07 2.81 1.25 <
4 -7 -14 -1 0.07 4.37 1.25 o
-3 7 14 -1 2.07 -0.62 1.25 <
3 -7 -14 1 2.07 4.68 1.25 o
-4 7 14 2 1.83 1.56 1.25 <
4 -7 -14 -2 1.83 1.25 1.25 <
-3 7 14 0 4.28 8.43 1.25 o
3 -7 -14 0 4.28 4.06 1.25 o
-2 7 14 -2 1.11 0.00 1.25 <
2 -7 -14 2 1.11 0.00 1.25 <
-3 7 14 1 4.25 2.18 1.25 <
3 -7 -14 -1 4.25 -1.25 1.25 <
-2 7 14 -1 2.19 0.62 1.25 <
2 -7 -14 1 2.19 -2.50 1.25 <
-3 7 14 2 0.91 -1.56 1.25 <
3 -7 -14 -2 0.91 1.87 1.25 <
-2 7 14 0 3.63 -1.25 1.25 <
2 -7 -14 0 3.63 2.50 1.25 <
-1 7 14 -2 1.29 0.62 1.25 <
1 -7 -14 2 1.29 1.25 1.25 <
-2 7 14 1 0.02 1.87 1.25 <
2 -7 -14 -1 0.02 3.43 1.25 <
-1 7 14 -1 2.20 -4.68 1.25 <
1 -7 -14 1 2.20 0.94 1.25 <
-2 7 14 2 0.14 4.68 1.25 o
2 -7 -14 -2 0.14 0.31 1.56 <
-1 7 14 0 5.60 4.68 1.56 <
1 -7 -14 0 5.60 1.56 2.18 <
0 7 14 -2 0.43 -0.31 2.18 <
0 -7 -14 2 0.43 0.62 2.18 <
-5 8 14 0 0.40 0.31 1.56 <
5 -8 -14 0 0.40 1.56 1.56 <
-4 8 14 -2 0.29 1.87 1.56 <
4 -8 -14 2 0.29 0.00 1.56 <
-5 8 14 1 0.57 1.87 1.56 <
5 -8 -14 -1 0.57 -0.94 1.56 <
-4 8 14 -1 2.22 6.24 1.56 o
4 -8 -14 1 2.22 14.67 1.56 o
-5 8 14 2 1.26 2.50 1.25 <
5 -8 -14 -2 1.26 0.62 1.56 <
-4 8 14 0 6.70 16.23 1.56 o
4 -8 -14 0 6.70 16.54 1.56 o
-3 8 14 -2 0.35 -0.62 1.25 <
3 -8 -14 2 0.35 1.25 1.56 <
-4 8 14 1 0.32 0.00 1.25 <
4 -8 -14 -1 0.32 -0.31 1.56 <
-3 8 14 -1 1.97 0.94 1.25 <
3 -8 -14 1 1.97 1.56 1.56 <
-4 8 14 2 1.39 1.87 1.25 <
4 -8 -14 -2 1.39 0.00 1.25 <
-3 8 14 0 2.72 1.56 1.25 <
3 -8 -14 0 2.72 -0.31 1.56 <
-2 8 14 -2 0.85 0.62 1.25 <
2 -8 -14 2 0.85 1.25 1.25 <
-3 8 14 1 4.10 0.94 1.25 <
3 -8 -14 -1 4.10 0.00 1.56 <
-2 8 14 -1 1.11 0.62 1.25 <
2 -8 -14 1 1.11 -1.87 1.56 <
-3 8 14 2 0.59 0.94 1.25 <
3 -8 -14 -2 0.59 1.87 1.56 <
-2 8 14 0 1.94 0.94 1.25 <
2 -8 -14 0 1.94 -0.31 1.56 <
-1 8 14 -2 0.95 0.94 1.25 <
1 -8 -14 2 0.95 0.31 1.56 <
-2 8 14 1 0.25 -2.50 1.56 <
2 -8 -14 -1 0.25 3.74 1.56 <
-1 8 14 -1 1.17 -4.99 1.56 <
1 -8 -14 1 1.17 -7.18 1.56 <
-2 8 14 2 0.10 1.87 1.56 <
2 -8 -14 -2 0.10 -1.56 2.18 <
-5 9 14 0 0.34 -0.31 1.56 <
5 -9 -14 0 0.34 -0.31 1.56 <
-4 9 14 -2 0.28 -1.87 1.56 <
4 -9 -14 2 0.28 3.74 1.56 <
-5 9 14 1 0.69 3.74 1.56 <
5 -9 -14 -1 0.69 0.31 1.56 <
-4 9 14 -1 1.88 9.36 1.56 o
4 -9 -14 1 1.88 7.80 1.56 o
-5 9 14 2 1.12 -4.06 1.25 <
5 -9 -14 -2 1.12 0.62 1.56 <
-4 9 14 0 5.82 7.49 1.56 o
4 -9 -14 0 5.82 13.42 1.56 o
-3 9 14 -2 0.34 2.81 1.25 <
3 -9 -14 2 0.34 0.62 1.56 <
-4 9 14 1 0.57 0.62 1.25 <
4 -9 -14 -1 0.57 0.94 1.56 <
-3 9 14 -1 1.55 0.00 1.25 <
3 -9 -14 1 1.55 3.12 1.56 <
-4 9 14 2 1.22 -1.56 1.25 <
4 -9 -14 -2 1.22 2.81 1.56 <
-3 9 14 0 1.56 0.31 1.25 <
3 -9 -14 0 1.56 3.74 1.56 <
-2 9 14 -2 0.74 -2.81 1.25 <
2 -9 -14 2 0.74 -5.93 1.56 <
-3 9 14 1 3.40 0.94 1.25 <
3 -9 -14 -1 3.40 2.50 1.56 <
-2 9 14 -1 0.46 3.74 1.25 o
2 -9 -14 1 0.46 4.68 1.56 <
-3 9 14 2 0.31 1.87 1.56 <
3 -9 -14 -2 0.31 0.00 1.56 <
-2 9 14 0 0.53 -0.31 1.56 <
2 -9 -14 0 0.53 -1.56 1.56 <
-1 9 14 -2 0.76 2.81 1.56 <
1 -9 -14 2 0.76 -2.50 1.56 <
-5 10 14 0 0.14 2.81 1.56 <
5 -10 -14 0 0.14 0.62 1.56 <
-4 10 14 -2 0.29 3.74 1.56 <
4 -10 -14 2 0.29 1.87 1.56 <
-5 10 14 1 0.90 -1.56 1.56 <
5 -10 -14 -1 0.90 0.62 1.56 <
-4 10 14 -1 1.34 4.37 1.56 <
4 -10 -14 1 1.34 0.94 1.56 <
-5 10 14 2 1.07 2.50 1.56 <
5 -10 -14 -2 1.07 2.18 1.56 <
-4 10 14 0 4.32 -1.56 1.25 <
4 -10 -14 0 4.32 3.74 1.56 <
-3 10 14 -2 0.24 2.81 1.25 <
3 -10 -14 2 0.24 3.43 1.56 <
-4 10 14 1 0.67 -0.31 1.25 <
4 -10 -14 -1 0.67 1.56 1.56 <
-3 10 14 -1 0.98 0.31 1.25 <
3 -10 -14 1 0.98 -1.25 1.56 <
-4 10 14 2 1.22 -0.62 1.56 <
4 -10 -14 -2 1.22 0.00 1.56 <
-3 10 14 0 0.78 0.31 1.56 <
3 -10 -14 0 0.78 -1.56 1.56 <
-2 10 14 -2 0.65 0.00 1.56 <
2 -10 -14 2 0.65 0.94 1.56 <
-3 10 14 1 2.41 1.87 1.56 <
3 -10 -14 -1 2.41 4.37 1.56 <
-2 10 14 -1 0.15 -1.25 1.56 <
2 -10 -14 1 0.15 4.06 1.56 <
-3 10 14 2 0.14 -2.50 1.56 <
3 -10 -14 -2 0.14 1.25 1.56 <
-4 11 14 -2 0.32 1.25 1.56 <
4 -11 -14 2 0.32 -2.50 1.56 <
-5 11 14 1 1.12 2.81 1.56 <
5 -11 -14 -1 1.12 -2.50 1.56 <
-4 11 14 -1 0.81 -0.31 1.56 <
4 -11 -14 1 0.81 -0.62 1.56 <
-5 11 14 2 1.02 0.31 1.56 <
5 -11 -14 -2 1.02 0.62 1.56 <
-4 11 14 0 3.60 1.25 1.56 <
4 -11 -14 0 3.60 1.25 1.56 <
-3 11 14 -2 0.12 1.87 1.56 <
3 -11 -14 2 0.12 -0.62 1.56 <
-4 11 14 1 0.61 0.62 1.56 <
4 -11 -14 -1 0.61 -0.62 1.56 <
-3 11 14 -1 0.45 1.56 1.56 <
3 -11 -14 1 0.45 -0.94 1.56 <
-4 11 14 2 1.25 -0.94 1.56 <
4 -11 -14 -2 1.25 2.18 1.56 <
-3 11 14 0 0.28 0.62 1.56 <
3 -11 -14 0 0.28 1.87 1.56 <
-2 11 14 -2 0.54 0.31 1.56 <
2 -11 -14 2 0.54 -0.94 1.56 <
-4 12 14 -1 0.49 -0.94 1.56 <
4 -12 -14 1 0.49 3.43 1.56 <
-5 12 14 2 0.92 1.25 1.56 <
5 -12 -14 -2 0.92 1.87 1.56 <
-4 12 14 0 2.82 2.18 1.56 <
4 -12 -14 0 2.82 -0.62 1.56 <
-3 12 14 -2 0.04 2.50 1.56 <
3 -12 -14 2 0.04 -0.62 1.56 <
1 -9 15 -1 0.91 0.94 1.87 <
-1 9 -15 1 0.91 -0.31 1.87 <
0 -9 15 2 1.11 1.25 1.87 <
0 9 -15 -2 1.11 -3.12 1.87 <
1 -9 15 0 1.52 3.12 1.87 <
-1 9 -15 0 1.52 1.25 1.87 <
0 -8 15 -1 1.43 2.81 2.18 <
0 8 -15 1 1.43 -0.31 2.18 <
-1 -8 15 2 0.71 1.56 2.18 <
1 8 -15 -2 0.71 -5.31 2.18 <
0 -8 15 0 3.08 0.62 1.87 <
0 8 -15 0 3.08 0.00 2.18 <
1 -8 15 -2 0.16 0.62 1.87 <
-1 8 -15 2 0.16 -0.94 1.87 <
0 -8 15 1 0.05 4.68 1.87 <
0 8 -15 -1 0.05 1.56 1.87 <
1 -8 15 -1 1.39 4.06 1.87 <
-1 8 -15 1 1.39 0.94 1.87 <
0 -8 15 2 1.10 0.31 1.87 <
0 8 -15 -2 1.10 -4.37 1.87 <
1 -8 15 0 1.77 0.94 1.87 <
-1 8 -15 0 1.77 -4.06 1.87 <
2 -8 15 -2 0.24 1.25 1.56 <
-2 8 -15 2 0.24 -0.62 1.87 <
1 -8 15 1 1.51 2.50 1.56 <
-1 8 -15 -1 1.51 -4.06 1.87 <
-1 -7 15 0 0.59 -4.06 2.18 <
1 7 -15 0 0.59 2.50 2.18 <
0 -7 15 -2 0.55 3.74 2.18 <
0 7 -15 2 0.55 -0.62 2.18 <
-1 -7 15 1 0.40 1.87 1.87 <
1 7 -15 -1 0.40 1.87 2.18 <
0 -7 15 -1 1.90 4.37 1.87 <
0 7 -15 1 1.90 -0.62 2.18 <
-1 -7 15 2 0.72 -0.62 1.87 <
1 7 -15 -2 0.72 0.31 1.87 <
0 -7 15 0 4.69 -0.62 1.87 <
0 7 -15 0 4.69 -1.25 1.87 <
1 -7 15 -2 0.21 3.74 1.87 <
-1 7 -15 2 0.21 -3.74 1.87 <
0 -7 15 1 0.19 4.68 1.87 <
0 7 -15 -1 0.19 2.18 1.87 <
1 -7 15 -1 1.77 -1.56 1.87 <
-1 7 -15 1 1.77 2.50 1.87 <
0 -7 15 2 1.12 0.31 1.87 <
0 7 -15 -2 1.12 -0.62 1.87 <
1 -7 15 0 1.45 -0.94 1.56 <
-1 7 -15 0 1.45 4.68 1.87 <
2 -7 15 -2 0.23 0.31 1.56 <
-2 7 -15 2 0.23 2.18 1.87 <
1 -7 15 1 2.00 0.31 1.56 <
-1 7 -15 -1 2.00 0.62 1.56 <
2 -7 15 -1 0.64 -0.94 1.56 <
-2 7 -15 1 0.64 -0.31 1.56 <
-1 -6 15 -1 1.28 2.50 2.18 <
1 6 -15 1 1.28 1.87 1.87 <
-2 -6 15 2 0.13 1.25 2.18 <
2 6 -15 -2 0.13 4.06 2.18 <
-1 -6 15 0 0.52 4.06 1.87 <
1 6 -15 0 0.52 11.55 3.43 o
0 -6 15 -2 0.68 1.25 1.87 <
0 6 -15 2 0.68 1.56 5.31 <
-1 -6 15 1 0.68 -2.81 1.87 <
1 6 -15 -1 0.68 -3.12 2.18 <
0 -6 15 -1 2.11 1.25 1.87 <
0 6 -15 1 2.11 -0.62 1.87 <
-1 -6 15 2 0.82 -0.62 1.87 <
1 6 -15 -2 0.82 1.25 1.87 <
0 -6 15 0 7.17 -0.62 1.87 <
0 6 -15 0 7.17 -6.55 1.87 <
1 -6 15 -2 0.21 -1.56 1.87 <
-1 6 -15 2 0.21 1.25 1.87 <
0 -6 15 1 0.39 2.18 1.87 <
0 6 -15 -1 0.39 0.00 1.87 <
1 -6 15 -1 1.87 -1.87 1.56 <
-1 6 -15 1 1.87 0.31 1.87 <
0 -6 15 2 1.29 2.18 1.56 <
0 6 -15 -2 1.29 -0.31 1.87 <
1 -6 15 0 0.96 0.31 1.56 <
-1 6 -15 0 0.96 0.31 1.87 <
2 -6 15 -2 0.28 0.31 1.56 <
-2 6 -15 2 0.28 3.43 1.56 <
1 -6 15 1 2.21 3.74 1.56 <
-1 6 -15 -1 2.21 0.31 1.56 <
2 -6 15 -1 0.49 1.87 1.56 <
-2 6 -15 1 0.49 -4.68 1.56 <
-1 -5 15 -2 0.68 -0.62 1.56 <
1 5 -15 2 0.68 0.94 1.56 <
-2 -5 15 1 1.80 0.00 1.56 <
2 5 -15 -1 1.80 0.31 1.56 <
-1 -5 15 -1 0.87 0.94 1.56 <
1 5 -15 1 0.87 1.25 1.56 <
-2 -5 15 2 0.18 0.62 1.56 <
2 5 -15 -2 0.18 -0.94 1.56 <
-1 -5 15 0 0.26 0.62 1.87 <
1 5 -15 0 0.26 0.62 1.25 <
0 -5 15 -2 0.90 0.62 2.50 <
0 5 -15 2 0.90 3.12 1.25 <
-1 -5 15 1 1.43 -5.62 3.74 <
1 5 -15 -1 1.43 -0.62 1.25 <
0 -5 15 -1 1.95 -0.62 1.87 <
0 5 -15 1 1.95 2.50 1.25 <
-1 -5 15 2 1.06 5.93 1.87 o
1 5 -15 -2 1.06 0.62 1.56 <
0 -5 15 0 8.97 2.18 1.87 <
0 5 -15 0 8.97 2.50 1.56 <
1 -5 15 -2 0.15 1.56 1.56 <
-1 5 -15 2 0.15 0.62 2.18 <
0 -5 15 1 0.54 1.56 1.56 <
0 5 -15 -1 0.54 10.61 3.43 o
1 -5 15 -1 1.60 1.25 1.56 <
-1 5 -15 1 1.60 -0.62 1.87 <
0 -5 15 2 1.66 0.31 1.56 <
0 5 -15 -2 1.66 4.68 1.56 <
1 -5 15 0 0.34 1.87 1.56 <
-1 5 -15 0 0.34 -3.12 1.87 <
2 -5 15 -2 0.36 -1.56 1.56 <
-2 5 -15 2 0.36 2.50 1.56 <
1 -5 15 1 2.07 4.37 1.56 <
-1 5 -15 -1 2.07 5.93 1.56 o
2 -5 15 -1 0.35 0.00 1.56 <
-2 5 -15 1 0.35 -0.31 1.25 <
-3 -4 15 2 0.54 0.00 1.56 <
3 4 -15 -2 0.54 -0.31 1.56 <
-2 -4 15 0 1.59 1.56 1.56 <
2 4 -15 0 1.59 2.50 1.56 <
-1 -4 15 -2 1.10 -0.94 1.25 <
1 4 -15 2 1.10 0.62 1.56 <
-2 -4 15 1 2.25 0.94 1.25 <
2 4 -15 -1 2.25 -0.31 1.56 <
-1 -4 15 -1 0.31 0.94 1.25 <
1 4 -15 1 0.31 -0.31 1.56 <
-2 -4 15 2 0.20 1.56 1.25 <
2 4 -15 -2 0.20 -0.31 1.25 <
-1 -4 15 0 0.01 1.56 1.25 <
1 4 -15 0 0.01 -2.50 1.25 <
0 -4 15 -2 1.25 0.62 1.25 <
0 4 -15 2 1.25 -0.31 1.25 <
-1 -4 15 1 2.74 1.87 1.25 <
1 4 -15 -1 2.74 -1.25 1.25 <
0 -4 15 -1 1.53 5.31 1.25 o
0 4 -15 1 1.53 4.06 1.25 o
-1 -4 15 2 1.37 -0.94 1.25 <
1 4 -15 -2 1.37 0.31 1.25 <
0 -4 15 0 8.41 1.25 1.25 <
0 4 -15 0 8.41 1.25 1.25 <
1 -4 15 -2 0.07 -0.31 1.25 <
-1 4 -15 2 0.07 0.31 1.25 <
0 -4 15 1 0.57 -1.56 1.56 <
0 4 -15 -1 0.57 -0.31 0.94 <
1 -4 15 -1 1.01 2.50 1.87 <
-1 4 -15 1 1.01 -0.62 0.94 <
0 -4 15 2 2.18 -4.37 3.12 <
0 4 -15 -2 2.18 0.00 0.94 <
1 -4 15 0 0.32 -0.62 1.56 <
-1 4 -15 0 0.32 0.94 0.94 <
2 -4 15 -2 0.42 -0.31 1.56 <
-2 4 -15 2 0.42 0.31 0.94 <
1 -4 15 1 1.61 3.43 1.56 <
-1 4 -15 -1 1.61 1.25 0.94 <
2 -4 15 -1 0.24 2.81 1.56 <
-2 4 -15 1 0.24 5.31 1.56 o
-3 -3 15 1 1.89 -0.31 1.56 <
3 3 -15 -1 1.89 -2.50 1.56 <
-2 -3 15 -1 0.13 0.00 1.56 <
2 3 -15 1 0.13 -5.31 1.56 <
-3 -3 15 2 1.03 1.25 1.25 <
3 3 -15 -2 1.03 0.62 1.56 <
-2 -3 15 0 0.44 3.43 1.25 <
2 3 -15 0 0.44 0.94 1.56 <
-1 -3 15 -2 1.73 -0.31 1.25 <
1 3 -15 2 1.73 -1.87 1.56 <
-2 -3 15 1 2.38 2.50 1.25 <
2 3 -15 -1 2.38 0.62 1.25 <
-1 -3 15 -1 0.00 0.31 1.25 <
1 3 -15 1 0.00 -0.62 1.25 <
-2 -3 15 2 0.18 0.94 1.25 <
2 3 -15 -2 0.18 -2.81 1.25 <
-1 -3 15 0 0.25 3.74 1.25 o
1 3 -15 0 0.25 -0.62 1.25 <
0 -3 15 -2 1.76 -0.62 1.25 <
0 3 -15 2 1.76 1.56 1.25 <
-1 -3 15 1 4.38 3.43 1.25 <
1 3 -15 -1 4.38 2.50 1.25 <
0 -3 15 -1 1.13 0.62 1.25 <
0 3 -15 1 1.13 1.56 1.25 <
-1 -3 15 2 1.65 0.62 0.94 <
1 3 -15 -2 1.65 0.31 1.25 <
0 -3 15 0 6.12 0.31 0.94 <
0 3 -15 0 6.12 1.25 1.25 <
1 -3 15 -2 0.03 0.62 0.94 <
-1 3 -15 2 0.03 -0.62 0.94 <
0 -3 15 1 0.49 0.62 0.94 <
0 3 -15 -1 0.49 -0.31 0.94 <
1 -3 15 -1 0.38 0.31 0.94 <
-1 3 -15 1 0.38 0.00 0.94 <
0 -3 15 2 2.63 1.25 0.94 <
0 3 -15 -2 2.63 -0.31 0.94 <
1 -3 15 0 0.21 -0.31 0.94 <
-1 3 -15 0 0.21 1.25 0.94 <
2 -3 15 -2 0.41 -0.94 0.94 <
-2 3 -15 2 0.41 -0.94 0.94 <
1 -3 15 1 1.01 1.25 0.94 <
-1 3 -15 -1 1.01 0.00 1.87 <
-3 -2 15 0 3.21 2.81 1.56 <
3 2 -15 0 3.21 1.25 1.56 <
-2 -2 15 -2 0.47 1.87 1.56 <
2 2 -15 2 0.47 1.25 1.56 <
-3 -2 15 1 2.41 1.56 1.56 <
3 2 -15 -1 2.41 -0.62 1.56 <
-2 -2 15 -1 0.28 0.62 1.25 <
2 2 -15 1 0.28 -0.31 1.56 <
-3 -2 15 2 1.83 0.31 1.25 <
3 2 -15 -2 1.83 1.56 1.56 <
-2 -2 15 0 0.45 1.25 1.25 <
2 2 -15 0 0.45 1.56 1.25 <
-1 -2 15 -2 2.45 0.62 1.25 <
1 2 -15 2 2.45 -1.87 1.25 <
-2 -2 15 1 2.00 1.56 1.25 <
2 2 -15 -1 2.00 -0.94 1.25 <
-1 -2 15 -1 0.39 -1.25 1.25 <
1 2 -15 1 0.39 2.18 1.25 <
-2 -2 15 2 0.18 1.56 1.25 <
2 2 -15 -2 0.18 -1.56 1.25 <
-1 -2 15 0 2.21 0.31 1.25 <
1 2 -15 0 2.21 1.25 1.25 <
0 -2 15 -2 2.36 3.12 1.25 <
0 2 -15 2 2.36 -1.87 1.25 <
-1 -2 15 1 5.75 3.74 1.25 o
1 2 -15 -1 5.75 3.12 1.25 <
0 -2 15 -1 1.14 2.50 0.94 <
0 2 -15 1 1.14 0.94 1.25 <
-1 -2 15 2 1.73 4.68 0.94 o
1 2 -15 -2 1.73 2.81 1.25 <
0 -2 15 0 5.59 2.81 0.94 <
0 2 -15 0 5.59 2.18 0.94 <
1 -2 15 -2 0.10 0.00 0.94 <
-1 2 -15 2 0.10 3.74 0.94 o
0 -2 15 1 0.36 4.68 0.94 o
0 2 -15 -1 0.36 1.87 0.94 <
1 -2 15 -1 0.02 -0.31 0.94 <
-1 2 -15 1 0.02 1.87 0.94 <
0 -2 15 2 2.81 2.81 0.94 <
0 2 -15 -2 2.81 3.74 0.94 o
1 -2 15 0 0.15 -0.62 0.94 <
-1 2 -15 0 0.15 0.62 0.94 <
2 -2 15 -2 0.33 2.50 0.94 <
-2 2 -15 2 0.33 1.56 1.87 <
-4 -1 15 2 1.76 6.24 1.56 o
4 1 -15 -2 1.76 2.50 1.56 <
-3 -1 15 0 4.17 0.62 1.56 <
3 1 -15 0 4.17 0.00 1.56 <
-2 -1 15 -2 0.42 0.62 1.25 <
2 1 -15 2 0.42 -0.94 1.56 <
-3 -1 15 1 2.60 -0.31 1.25 <
3 1 -15 -1 2.60 1.56 1.56 <
-2 -1 15 -1 0.58 12.48 1.25 o
2 1 -15 1 0.58 0.31 1.56 <
-3 -1 15 2 2.83 -0.62 1.25 <
3 1 -15 -2 2.83 1.25 1.25 <
-2 -1 15 0 0.89 -0.62 1.25 <
2 1 -15 0 0.89 0.62 1.25 <
-1 -1 15 -2 3.06 0.94 1.25 <
1 1 -15 2 3.06 -2.50 1.25 <
-2 -1 15 1 1.20 3.43 1.25 <
2 1 -15 -1 1.20 3.12 1.25 <
-1 -1 15 -1 1.65 6.87 1.25 o
1 1 -15 1 1.65 9.67 1.25 o
-2 -1 15 2 0.29 1.56 1.25 <
2 1 -15 -2 0.29 -2.50 1.25 <
-1 -1 15 0 3.11 6.24 1.25 o
1 1 -15 0 3.11 3.12 1.25 <
0 -1 15 -2 2.88 -3.12 0.94 <
0 1 -15 2 2.88 3.12 1.25 <
-1 -1 15 1 6.23 9.36 1.25 o
1 1 -15 -1 6.23 5.62 1.25 o
0 -1 15 -1 1.68 -0.62 0.94 <
0 1 -15 1 1.68 1.56 1.25 <
-1 -1 15 2 1.53 1.56 0.94 <
1 1 -15 -2 1.53 2.81 0.94 <
0 -1 15 0 4.26 1.87 0.94 <
0 1 -15 0 4.26 0.62 0.94 <
1 -1 15 -2 0.26 1.87 0.94 <
-1 1 -15 2 0.26 1.25 0.94 <
0 -1 15 1 0.22 1.87 0.94 <
0 1 -15 -1 0.22 -1.87 0.94 <
1 -1 15 -1 0.11 2.50 0.94 <
-1 1 -15 1 0.11 0.62 0.94 <
0 -1 15 2 2.60 1.25 0.94 <
0 1 -15 -2 2.60 0.62 1.25 <
1 -1 15 0 0.18 1.87 1.25 <
-1 1 -15 0 0.18 1.87 1.87 <
-4 0 15 1 0.62 1.87 1.56 <
4 0 -15 -1 0.62 -1.87 1.56 <
-3 0 15 -1 0.22 5.62 1.56 o
3 0 -15 1 0.22 0.00 1.56 <
-4 0 15 2 2.34 2.81 1.56 <
4 0 -15 -2 2.34 -2.18 1.56 <
-3 0 15 0 5.44 0.00 1.25 <
3 0 -15 0 5.44 -0.62 1.56 <
-2 0 15 -2 0.27 0.00 1.25 <
2 0 -15 2 0.27 4.99 1.56 o
-3 0 15 1 2.38 1.87 1.25 <
3 0 -15 -1 2.38 1.25 1.25 <
-2 0 15 -1 1.06 2.81 1.25 <
2 0 -15 1 1.06 -0.62 1.25 <
-3 0 15 2 3.73 0.00 1.25 <
3 0 -15 -2 3.73 1.25 1.25 <
-2 0 15 0 1.63 5.31 1.25 o
2 0 -15 0 1.63 3.74 1.25 o
-1 0 15 -2 3.30 1.56 1.25 <
1 0 -15 2 3.30 1.56 1.25 <
-2 0 15 1 0.44 3.74 1.25 o
2 0 -15 -1 0.44 -0.62 1.25 <
-1 0 15 -1 3.35 4.68 1.25 o
1 0 -15 1 3.35 8.74 1.25 o
-2 0 15 2 0.55 2.50 1.25 <
2 0 -15 -2 0.55 1.87 1.25 <
-1 0 15 0 5.59 1.56 1.25 <
1 0 -15 0 5.59 4.06 1.25 o
0 0 15 -2 3.09 1.87 0.94 <
0 0 -15 2 3.09 -1.87 1.25 <
-1 0 15 1 5.58 6.55 0.94 o
1 0 -15 -1 5.58 7.18 1.25 o
0 0 15 -1 2.48 3.43 1.25 <
0 0 -15 1 2.48 1.56 1.25 <
-1 0 15 2 1.14 3.74 0.94 o
1 0 -15 -2 1.14 2.50 0.94 <
0 0 15 0 2.59 4.37 0.94 o
0 0 -15 0 2.59 0.31 0.94 <
1 0 15 -2 0.46 0.00 0.94 <
-1 0 -15 2 0.46 0.31 0.94 <
0 0 15 1 0.13 -0.62 0.94 <
0 0 -15 -1 0.13 -0.94 0.94 <
1 0 15 -1 0.55 -0.31 0.94 <
-1 0 -15 1 0.55 1.25 1.56 <
0 0 15 2 2.07 -1.87 1.87 <
0 0 -15 -2 2.07 -1.25 1.87 <
-3 1 15 -2 0.23 -12.48 1.56 <
3 -1 -15 2 0.23 -0.62 1.56 <
-4 1 15 1 0.89 -1.87 1.56 <
4 -1 -15 -1 0.89 -0.94 1.56 <
-3 1 15 -1 0.62 0.62 1.56 <
3 -1 -15 1 0.62 2.50 1.56 <
-4 1 15 2 2.72 -1.87 1.25 <
4 -1 -15 -2 2.72 -0.62 1.56 <
-3 1 15 0 6.59 0.00 1.25 <
3 -1 -15 0 6.59 4.68 1.56 <
-2 1 15 -2 0.11 0.62 1.25 <
2 -1 -15 2 0.11 -1.56 1.56 <
-3 1 15 1 1.80 4.68 1.25 o
3 -1 -15 -1 1.80 -4.37 1.25 <
-2 1 15 -1 1.65 0.62 1.25 <
2 -1 -15 1 1.65 3.43 1.25 <
-3 1 15 2 4.17 0.62 1.25 <
3 -1 -15 -2 4.17 0.94 1.25 <
-2 1 15 0 2.37 4.68 1.25 o
2 -1 -15 0 2.37 0.00 1.25 <
-1 1 15 -2 3.09 0.94 1.25 <
1 -1 -15 2 3.09 6.24 1.25 o
-2 1 15 1 0.34 -0.62 1.25 <
2 -1 -15 -1 0.34 -0.31 1.25 <
-1 1 15 -1 4.59 4.68 1.25 o
1 -1 -15 1 4.59 7.49 1.25 o
-2 1 15 2 0.86 1.87 0.94 <
2 -1 -15 -2 0.86 0.31 1.25 <
-1 1 15 0 7.93 3.12 1.25 <
1 -1 -15 0 7.93 0.94 1.25 <
0 1 15 -2 2.88 2.18 1.25 <
0 -1 -15 2 2.88 0.00 1.25 <
-1 1 15 1 4.10 4.68 1.25 o
1 -1 -15 -1 4.10 6.55 1.25 o
0 1 15 -1 3.06 9.99 1.25 o
0 -1 -15 1 3.06 8.43 1.25 o
-1 1 15 2 0.71 0.31 1.25 <
1 -1 -15 -2 0.71 0.62 1.25 <
0 1 15 0 3.04 0.62 1.25 <
0 -1 -15 0 3.04 1.25 1.25 <
1 1 15 -2 0.60 0.94 1.25 <
-1 -1 -15 2 0.60 3.43 1.25 <
0 1 15 1 0.08 0.62 1.25 <
0 -1 -15 -1 0.08 9.05 2.81 o
1 1 15 -1 1.05 12.79 4.06 o
-1 -1 -15 1 1.05 -3.12 1.87 <
-4 2 15 0 0.87 -1.56 1.56 <
4 -2 -15 0 0.87 6.24 1.56 o
-3 2 15 -2 0.35 0.94 1.56 <
3 -2 -15 2 0.35 -1.25 1.56 <
-4 2 15 1 1.15 0.00 1.25 <
4 -2 -15 -1 1.15 1.87 1.87 <
-3 2 15 -1 1.26 2.81 1.25 <
3 -2 -15 1 1.26 -1.56 1.56 <
-4 2 15 2 2.78 4.99 1.25 o
4 -2 -15 -2 2.78 6.87 1.56 o
-3 2 15 0 6.66 12.48 1.25 o
3 -2 -15 0 6.66 8.11 1.56 o
-2 2 15 -2 0.04 2.50 1.25 <
2 -2 -15 2 0.04 1.25 1.25 <
-3 2 15 1 1.08 1.87 1.25 <
3 -2 -15 -1 1.08 0.00 1.25 <
-2 2 15 -1 2.21 3.43 1.25 <
2 -2 -15 1 2.21 3.12 1.25 <
-3 2 15 2 3.94 3.12 1.25 <
3 -2 -15 -2 3.94 2.81 1.25 <
-2 2 15 0 3.87 -0.31 1.25 <
2 -2 -15 0 3.87 -0.62 1.25 <
-1 2 15 -2 2.51 0.94 1.25 <
1 -2 -15 2 2.51 3.43 1.25 <
-2 2 15 1 1.18 0.31 1.25 <
2 -2 -15 -1 1.18 1.25 1.25 <
-1 2 15 -1 4.73 3.12 1.25 <
1 -2 -15 1 4.73 2.18 1.25 <
-2 2 15 2 1.09 1.87 1.25 <
2 -2 -15 -2 1.09 2.81 1.25 <
-1 2 15 0 10.30 3.74 1.25 o
1 -2 -15 0 10.30 4.68 1.25 o
0 2 15 -2 2.35 2.50 1.25 <
0 -2 -15 2 2.35 -2.18 1.25 <
-1 2 15 1 2.39 0.00 1.25 <
1 -2 -15 -1 2.39 2.18 1.25 <
0 2 15 -1 3.07 3.43 1.25 <
0 -2 -15 1 3.07 2.81 1.25 <
-1 2 15 2 0.38 0.00 1.25 <
1 -2 -15 -2 0.38 2.18 1.25 <
0 2 15 0 3.44 1.87 1.25 <
0 -2 -15 0 3.44 1.25 1.25 <
1 2 15 -2 0.62 -1.25 1.25 <
-1 -2 -15 2 0.62 -0.31 1.87 <
0 2 15 1 0.05 0.62 1.87 <
0 -2 -15 -1 0.05 2.81 1.87 <
-5 3 15 2 0.08 2.81 1.56 <
5 -3 -15 -2 0.08 -1.56 1.87 <
-4 3 15 0 1.46 1.87 1.56 <
4 -3 -15 0 1.46 0.62 1.56 <
-3 3 15 -2 0.43 1.56 1.25 <
3 -3 -15 2 0.43 1.87 1.87 <
-4 3 15 1 1.31 1.87 1.25 <
4 -3 -15 -1 1.31 3.12 1.56 <
-3 3 15 -1 1.98 -1.25 1.25 <
3 -3 -15 1 1.98 1.87 1.56 <
-4 3 15 2 2.56 1.56 1.25 <
4 -3 -15 -2 2.56 -0.94 1.25 <
-3 3 15 0 6.09 22.47 1.25 o
3 -3 -15 0 6.09 22.47 1.56 o
-2 3 15 -2 0.12 0.62 1.25 <
2 -3 -15 2 0.12 -0.62 1.25 <
-3 3 15 1 0.46 2.18 1.25 <
3 -3 -15 -1 0.46 0.62 1.25 <
-2 3 15 -1 2.60 0.62 1.25 <
2 -3 -15 1 2.60 1.56 1.25 <
-3 3 15 2 3.19 2.81 1.25 <
3 -3 -15 -2 3.19 4.68 1.25 o
-2 3 15 0 4.59 1.56 1.25 <
2 -3 -15 0 4.59 1.87 1.25 <
-1 3 15 -2 1.84 -0.62 1.25 <
1 -3 -15 2 1.84 1.87 1.25 <
-2 3 15 1 2.63 0.31 1.25 <
2 -3 -15 -1 2.63 0.00 1.25 <
-1 3 15 -1 3.86 3.12 1.25 <
1 -3 -15 1 3.86 7.18 1.25 o
-2 3 15 2 1.11 3.12 1.25 <
2 -3 -15 -2 1.11 1.56 1.25 <
-1 3 15 0 6.64 2.50 1.25 <
1 -3 -15 0 6.64 2.50 1.25 <
0 3 15 -2 1.71 0.62 1.25 <
0 -3 -15 2 1.71 0.00 1.25 <
-1 3 15 1 1.00 0.00 1.25 <
1 -3 -15 -1 1.00 -0.31 1.25 <
0 3 15 -1 2.53 -1.87 1.25 <
0 -3 -15 1 2.53 3.12 1.25 <
-1 3 15 2 0.19 1.56 1.25 <
1 -3 -15 -2 0.19 0.31 1.25 <
0 3 15 0 3.84 3.12 1.25 <
0 -3 -15 0 3.84 0.62 1.87 <
1 3 15 -2 0.52 2.18 1.87 <
-1 -3 -15 2 0.52 -1.56 2.18 <
-4 4 15 -1 2.43 5.62 1.56 o
4 -4 -15 1 2.43 0.62 1.56 <
-5 4 15 2 0.04 1.87 1.56 <
5 -4 -15 -2 0.04 2.18 1.56 <
-4 4 15 0 2.14 2.81 1.56 <
4 -4 -15 0 2.14 3.12 1.87 <
-3 4 15 -2 0.46 0.62 1.25 <
3 -4 -15 2 0.46 0.31 1.56 <
-4 4 15 1 1.32 0.62 1.25 <
4 -4 -15 -1 1.32 -2.81 1.56 <
-3 4 15 -1 2.47 4.68 1.25 o
3 -4 -15 1 2.47 5.93 1.56 o
-4 4 15 2 2.24 -0.94 1.25 <
4 -4 -15 -2 2.24 4.68 1.25 o
-3 4 15 0 6.55 18.10 1.25 o
3 -4 -15 0 6.55 23.40 1.56 o
-2 4 15 -2 0.30 -0.94 1.25 <
2 -4 -15 2 0.30 2.50 1.25 <
-3 4 15 1 0.14 3.12 1.25 <
3 -4 -15 -1 0.14 2.50 1.25 <
-2 4 15 -1 2.75 1.87 1.25 <
2 -4 -15 1 2.75 2.81 1.25 <
-3 4 15 2 2.32 3.12 1.25 <
3 -4 -15 -2 2.32 3.43 1.25 <
-2 4 15 0 3.72 2.50 1.25 <
2 -4 -15 0 3.72 -1.25 1.25 <
-1 4 15 -2 1.32 0.62 1.25 <
1 -4 -15 2 1.32 3.12 1.25 <
-2 4 15 1 4.00 -0.94 1.25 <
2 -4 -15 -1 4.00 1.87 1.25 <
-1 4 15 -1 2.56 -2.18 1.25 <
1 -4 -15 1 2.56 1.87 1.25 <
-2 4 15 2 0.93 0.94 1.25 <
2 -4 -15 -2 0.93 0.00 1.25 <
-1 4 15 0 4.12 0.62 1.25 <
1 -4 -15 0 4.12 1.87 1.25 <
0 4 15 -2 1.19 -0.94 1.25 <
0 -4 -15 2 1.19 0.62 1.25 <
-1 4 15 1 0.22 -1.25 1.25 <
1 -4 -15 -1 0.22 0.31 1.25 <
0 4 15 -1 1.74 1.87 1.25 <
0 -4 -15 1 1.74 0.62 1.56 <
-1 4 15 2 0.12 -0.31 1.56 <
1 -4 -15 -2 0.12 -1.25 2.18 <
-5 5 15 1 0.98 2.50 1.56 <
5 -5 -15 -1 0.98 -2.18 1.56 <
-4 5 15 -1 2.33 0.94 1.56 <
4 -5 -15 1 2.33 -0.62 1.56 <
-5 5 15 2 0.11 -1.56 1.25 <
5 -5 -15 -2 0.11 1.87 1.56 <
-4 5 15 0 1.54 1.87 1.56 <
4 -5 -15 0 1.54 1.25 1.56 <
-3 5 15 -2 0.44 2.81 1.25 <
3 -5 -15 2 0.44 4.37 1.56 <
-4 5 15 1 1.25 0.62 1.25 <
4 -5 -15 -1 1.25 -3.12 1.56 <
-3 5 15 -1 2.52 6.24 1.25 o
3 -5 -15 1 2.52 11.23 1.56 o
-4 5 15 2 2.00 0.31 1.25 <
4 -5 -15 -2 2.00 2.81 1.25 <
-3 5 15 0 8.21 15.29 1.25 o
3 -5 -15 0 8.21 14.35 1.56 o
-2 5 15 -2 0.46 3.74 1.25 o
2 -5 -15 2 0.46 3.43 1.25 <
-3 5 15 1 0.13 1.87 1.25 <
3 -5 -15 -1 0.13 3.12 1.25 <
-2 5 15 -1 2.58 -0.31 1.25 <
2 -5 -15 1 2.58 1.56 1.25 <
-3 5 15 2 1.70 0.31 1.25 <
3 -5 -15 -2 1.70 3.74 1.25 o
-2 5 15 0 2.04 1.25 1.25 <
2 -5 -15 0 2.04 0.62 1.25 <
-1 5 15 -2 1.02 1.87 1.25 <
1 -5 -15 2 1.02 2.81 1.25 <
-2 5 15 1 4.69 3.12 1.25 <
2 -5 -15 -1 4.69 0.62 1.25 <
-1 5 15 -1 1.40 1.87 1.25 <
1 -5 -15 1 1.40 2.81 1.25 <
-2 5 15 2 0.64 0.62 1.25 <
2 -5 -15 -2 0.64 -1.25 1.25 <
-1 5 15 0 2.70 -0.31 1.25 <
1 -5 -15 0 2.70 -1.56 1.25 <
0 5 15 -2 0.87 1.87 1.25 <
0 -5 -15 2 0.87 1.87 1.25 <
-1 5 15 1 0.02 -0.94 1.25 <
1 -5 -15 -1 0.02 3.12 1.87 <
0 5 15 -1 0.98 0.62 1.87 <
0 -5 -15 1 0.98 -3.43 2.18 <
-5 6 15 1 1.45 -0.94 1.56 <
5 -6 -15 -1 1.45 -1.87 1.56 <
-4 6 15 -1 1.82 3.12 1.56 <
4 -6 -15 1 1.82 3.12 1.56 <
-5 6 15 2 0.25 0.31 1.56 <
5 -6 -15 -2 0.25 -1.56 1.56 <
-4 6 15 0 1.02 1.87 1.25 <
4 -6 -15 0 1.02 0.94 1.56 <
-3 6 15 -2 0.41 -0.31 1.25 <
3 -6 -15 2 0.41 -1.25 1.56 <
-4 6 15 1 1.22 0.00 1.25 <
4 -6 -15 -1 1.22 1.56 1.56 <
-3 6 15 -1 2.10 2.50 1.25 <
3 -6 -15 1 2.10 3.74 1.56 <
-4 6 15 2 1.90 -0.94 1.25 <
4 -6 -15 -2 1.90 -1.56 1.25 <
-3 6 15 0 8.40 17.79 1.56 o
3 -6 -15 0 8.40 22.47 1.56 o
-2 6 15 -2 0.47 -1.25 1.25 <
2 -6 -15 2 0.47 -2.81 1.25 <
-3 6 15 1 0.29 4.37 1.25 o
3 -6 -15 -1 0.29 0.31 1.25 <
-2 6 15 -1 2.11 1.56 1.25 <
2 -6 -15 1 2.11 -1.25 1.25 <
-3 6 15 2 1.46 0.62 1.25 <
3 -6 -15 -2 1.46 0.62 1.25 <
-2 6 15 0 0.90 4.06 1.25 o
2 -6 -15 0 0.90 1.25 1.25 <
-1 6 15 -2 0.87 0.00 1.25 <
1 -6 -15 2 0.87 0.94 1.25 <
-2 6 15 1 4.50 1.25 1.25 <
2 -6 -15 -1 4.50 -2.18 1.25 <
-1 6 15 -1 0.62 1.25 1.25 <
1 -6 -15 1 0.62 0.62 1.25 <
-2 6 15 2 0.37 -3.43 1.25 <
2 -6 -15 -2 0.37 2.18 1.25 <
-1 6 15 0 1.22 1.56 1.25 <
1 -6 -15 0 1.22 1.25 1.25 <
0 6 15 -2 0.71 0.62 1.56 <
0 -6 -15 2 0.71 -1.87 2.18 <
-4 7 15 -2 0.59 3.12 1.56 <
4 -7 -15 2 0.59 -2.50 1.56 <
-5 7 15 1 1.80 4.99 1.56 o
5 -7 -15 -1 1.80 2.81 1.56 <
-4 7 15 -1 1.08 -1.87 1.56 <
4 -7 -15 1 1.08 2.81 1.56 <
-5 7 15 2 0.37 2.81 1.25 <
5 -7 -15 -2 0.37 2.81 1.56 <
-4 7 15 0 0.76 0.00 1.25 <
4 -7 -15 0 0.76 0.31 1.56 <
-3 7 15 -2 0.44 0.94 1.25 <
3 -7 -15 2 0.44 2.18 1.56 <
-4 7 15 1 1.30 -1.25 1.25 <
4 -7 -15 -1 1.30 1.25 1.25 <
-3 7 15 -1 1.43 2.18 1.25 <
3 -7 -15 1 1.43 4.68 1.25 o
-4 7 15 2 1.86 1.56 1.25 <
4 -7 -15 -2 1.86 4.99 1.25 o
-3 7 15 0 7.73 5.31 1.25 o
3 -7 -15 0 7.73 3.12 1.56 <
-2 7 15 -2 0.36 2.18 1.25 <
2 -7 -15 2 0.36 -0.31 1.56 <
-3 7 15 1 0.45 3.12 1.25 <
3 -7 -15 -1 0.45 -2.81 1.56 <
-2 7 15 -1 1.44 3.12 1.25 <
2 -7 -15 1 1.44 0.00 1.25 <
-3 7 15 2 1.52 -1.87 1.25 <
3 -7 -15 -2 1.52 -1.56 1.25 <
-2 7 15 0 0.51 0.62 1.25 <
2 -7 -15 0 0.51 0.62 1.56 <
-1 7 15 -2 0.76 0.62 1.25 <
1 -7 -15 2 0.76 0.31 1.56 <
-2 7 15 1 3.62 0.62 1.25 <
2 -7 -15 -1 3.62 1.25 1.56 <
-1 7 15 -1 0.21 -0.94 1.56 <
1 -7 -15 1 0.21 -1.56 1.56 <
-2 7 15 2 0.18 -1.25 1.56 <
2 -7 -15 -2 0.18 -0.31 1.56 <
-4 8 15 -2 0.73 -0.62 1.56 <
4 -8 -15 2 0.73 4.37 1.56 <
-5 8 15 1 1.88 3.74 1.56 <
5 -8 -15 -1 1.88 2.50 1.56 <
-4 8 15 -1 0.42 1.56 1.56 <
4 -8 -15 1 0.42 4.99 1.56 o
-5 8 15 2 0.42 -0.31 1.25 <
5 -8 -15 -2 0.42 0.94 1.56 <
-4 8 15 0 0.23 3.43 1.56 <
4 -8 -15 0 0.23 4.06 1.56 <
-3 8 15 -2 0.53 2.50 1.25 <
3 -8 -15 2 0.53 -1.87 1.56 <
-4 8 15 1 1.45 3.12 1.25 <
4 -8 -15 -1 1.45 1.87 1.56 <
-3 8 15 -1 0.81 0.31 1.25 <
3 -8 -15 1 0.81 0.62 1.56 <
-4 8 15 2 1.76 -1.25 1.25 <
4 -8 -15 -2 1.76 1.25 1.56 <
-3 8 15 0 5.25 0.94 1.25 <
3 -8 -15 0 5.25 2.81 1.56 <
-2 8 15 -2 0.20 0.94 1.25 <
2 -8 -15 2 0.20 -1.25 1.56 <
-3 8 15 1 0.48 0.94 1.25 <
3 -8 -15 -1 0.48 1.56 1.56 <
-2 8 15 -1 0.77 0.00 1.25 <
2 -8 -15 1 0.77 2.81 1.56 <
-3 8 15 2 1.63 2.81 1.56 <
3 -8 -15 -2 1.63 -0.62 1.56 <
-2 8 15 0 0.21 -0.31 1.56 <
2 -8 -15 0 0.21 2.81 1.56 <
-1 8 15 -2 0.63 -1.56 1.56 <
1 -8 -15 2 0.63 4.68 1.56 <
-2 8 15 1 2.47 3.74 1.56 <
2 -8 -15 -1 2.47 1.25 1.56 <
-4 9 15 -2 0.87 2.50 1.56 <
4 -9 -15 2 0.87 1.87 1.56 <
-5 9 15 1 1.63 0.62 1.56 <
5 -9 -15 -1 1.63 6.55 1.56 o
-4 9 15 -1 0.09 1.87 1.56 <
4 -9 -15 1 0.09 -1.25 1.56 <
-5 9 15 2 0.38 1.87 1.56 <
5 -9 -15 -2 0.38 0.00 1.56 <
-4 9 15 0 0.42 1.56 1.56 <
4 -9 -15 0 0.42 0.94 1.56 <
-3 9 15 -2 0.65 0.31 1.25 <
3 -9 -15 2 0.65 0.00 1.56 <
-4 9 15 1 1.56 2.18 1.25 <
4 -9 -15 -1 1.56 -0.94 1.56 <
-3 9 15 -1 0.47 0.62 1.25 <
3 -9 -15 1 0.47 0.94 1.56 <
-4 9 15 2 1.55 3.12 1.25 <
4 -9 -15 -2 1.55 2.50 1.56 <
-3 9 15 0 5.00 1.87 1.25 <
3 -9 -15 0 5.00 1.56 1.56 <
-2 9 15 -2 0.07 -0.62 1.56 <
2 -9 -15 2 0.07 0.62 1.56 <
-3 9 15 1 0.41 0.00 1.56 <
3 -9 -15 -1 0.41 4.68 1.56 <
-2 9 15 -1 0.29 1.25 1.56 <
2 -9 -15 1 0.29 0.31 1.56 <
-3 9 15 2 1.65 0.31 1.56 <
3 -9 -15 -2 1.65 -1.25 1.56 <
-2 9 15 0 0.07 -1.87 1.56 <
2 -9 -15 0 0.07 0.62 1.56 <
-4 10 15 -2 0.96 1.25 1.56 <
4 -10 -15 2 0.96 6.24 1.56 o
-5 10 15 1 1.15 2.81 1.56 <
5 -10 -15 -1 1.15 -0.62 1.56 <
-4 10 15 -1 0.14 0.62 1.56 <
4 -10 -15 1 0.14 -2.50 1.56 <
-5 10 15 2 0.27 2.18 1.56 <
5 -10 -15 -2 0.27 0.31 1.56 <
-4 10 15 0 0.98 0.00 1.56 <
4 -10 -15 0 0.98 0.00 1.56 <
-3 10 15 -2 0.72 0.94 1.56 <
3 -10 -15 2 0.72 1.25 1.56 <
-4 10 15 1 1.56 0.00 1.56 <
4 -10 -15 -1 1.56 1.25 1.56 <
-3 10 15 -1 0.45 0.00 1.56 <
3 -10 -15 1 0.45 1.56 1.56 <
-4 10 15 2 1.24 0.31 1.56 <
4 -10 -15 -2 1.24 -4.99 1.56 <
-3 10 15 0 3.43 3.12 1.56 <
3 -10 -15 0 3.43 3.43 1.56 <
-2 10 15 -2 0.01 -2.18 1.56 <
2 -10 -15 2 0.01 0.62 1.56 <
-3 10 15 1 0.30 1.56 1.56 <
3 -10 -15 -1 0.30 -0.94 1.56 <
-4 11 15 -1 0.43 -0.31 1.56 <
4 -11 -15 1 0.43 1.87 1.56 <
-5 11 15 2 0.16 0.62 1.56 <
5 -11 -15 -2 0.16 2.81 1.56 <
-4 11 15 0 1.39 -0.62 1.56 <
4 -11 -15 0 1.39 -1.87 1.56 <
-3 11 15 -2 0.72 -3.74 1.56 <
3 -11 -15 2 0.72 -0.94 1.56 <
-4 11 15 1 1.39 2.81 1.56 <
4 -11 -15 -1 1.39 0.62 1.56 <
-3 11 15 -1 0.60 -0.62 1.56 <
3 -11 -15 1 0.60 0.94 1.56 <
1 -8 16 -1 0.69 2.81 1.87 <
-1 8 -16 1 0.69 -3.74 1.87 <
-1 -7 16 1 1.88 2.50 1.87 <
1 7 -16 -1 1.88 -1.87 2.18 <
0 -7 16 -1 0.39 4.37 1.87 <
0 7 -16 1 0.39 0.94 2.18 <
-1 -7 16 2 0.08 0.62 1.87 <
1 7 -16 -2 0.08 -5.31 2.18 <
0 -7 16 0 0.18 4.99 1.87 <
0 7 -16 0 0.18 1.87 1.87 <
1 -7 16 -2 0.63 0.94 1.87 <
-1 7 -16 2 0.63 6.55 1.87 o
0 -7 16 1 0.82 -5.62 1.87 <
0 7 -16 -1 0.82 6.55 1.87 o
1 -7 16 -1 0.50 -3.12 1.87 <
-1 7 -16 1 0.50 0.94 1.87 <
0 -7 16 2 0.67 2.81 1.87 <
0 7 -16 -2 0.67 -0.94 1.87 <
1 -7 16 0 3.58 -1.25 1.87 <
-1 7 -16 0 3.58 0.31 1.87 <
2 -7 16 -2 0.03 0.31 1.56 <
-2 7 -16 2 0.03 -4.68 1.87 <
-2 -6 16 2 0.74 1.25 2.18 <
2 6 -16 -2 0.74 1.56 1.56 <
-1 -6 16 0 0.52 -3.74 2.18 <
1 6 -16 0 0.52 -4.37 1.87 <
0 -6 16 -2 1.06 -2.18 1.87 <
0 6 -16 2 1.06 0.00 2.18 <
-1 -6 16 1 2.22 -1.56 1.87 <
1 6 -16 -1 2.22 -1.87 3.12 <
0 -6 16 -1 0.09 -2.81 1.87 <
0 6 -16 1 0.09 -0.94 4.68 <
-1 -6 16 2 0.07 1.56 1.87 <
1 6 -16 -2 0.07 -1.56 1.87 <
0 -6 16 0 0.36 -1.56 1.87 <
0 6 -16 0 0.36 -2.18 1.87 <
1 -6 16 -2 0.92 -1.87 1.87 <
-1 6 -16 2 0.92 4.68 1.87 <
0 -6 16 1 1.38 -0.62 1.87 <
0 6 -16 -1 1.38 -4.99 1.87 <
1 -6 16 -1 0.34 -3.12 1.87 <
-1 6 -16 1 0.34 -0.62 1.87 <
0 -6 16 2 0.80 0.00 1.87 <
0 6 -16 -2 0.80 0.00 1.87 <
1 -6 16 0 3.38 -4.37 1.56 <
-1 6 -16 0 3.38 0.94 1.87 <
2 -6 16 -2 0.01 0.00 1.56 <
-2 6 -16 2 0.01 -1.87 1.87 <
-2 -5 16 1 1.48 2.18 1.56 <
2 5 -16 -1 1.48 2.81 1.56 <
-1 -5 16 -1 0.32 0.00 1.56 <
1 5 -16 1 0.32 1.25 1.56 <
-2 -5 16 2 1.40 1.56 1.56 <
2 5 -16 -2 1.40 -0.62 1.56 <
-1 -5 16 0 0.08 0.62 1.56 <
1 5 -16 0 0.08 -0.31 1.56 <
0 -5 16 -2 1.52 -1.25 1.56 <
0 5 -16 2 1.52 -0.31 1.56 <
-1 -5 16 1 2.15 -2.50 1.87 <
1 5 -16 -1 2.15 -2.50 1.25 <
0 -5 16 -1 0.03 -4.37 2.50 <
0 5 -16 1 0.03 -3.74 1.25 <
-1 -5 16 2 0.09 2.81 3.74 <
1 5 -16 -2 0.09 1.56 1.25 <
0 -5 16 0 1.25 2.50 1.87 <
0 5 -16 0 1.25 0.62 1.25 <
1 -5 16 -2 1.28 0.94 1.87 <
-1 5 -16 2 1.28 0.00 1.25 <
0 -5 16 1 2.06 0.94 1.87 <
0 5 -16 -1 2.06 1.25 1.56 <
1 -5 16 -1 0.38 4.06 1.87 <
-1 5 -16 1 0.38 -1.25 1.56 <
0 -5 16 2 0.83 -4.06 1.87 <
0 5 -16 -2 0.83 1.25 2.18 <
1 -5 16 0 2.88 2.81 1.56 <
-1 5 -16 0 2.88 1.25 3.12 <
2 -5 16 -2 0.04 3.12 1.56 <
-2 5 -16 2 0.04 6.24 1.87 o
-2 -4 16 0 3.88 1.87 1.56 <
2 4 -16 0 3.88 -1.25 1.56 <
-1 -4 16 -2 0.37 0.62 1.56 <
1 4 -16 2 0.37 0.00 1.56 <
-2 -4 16 1 1.79 3.74 1.56 <
2 4 -16 -1 1.79 0.62 1.56 <
-1 -4 16 -1 0.68 -0.94 1.25 <
1 4 -16 1 0.68 0.31 1.56 <
-2 -4 16 2 2.26 1.87 1.25 <
2 4 -16 -2 2.26 -0.62 1.25 <
-1 -4 16 0 0.08 -2.50 1.25 <
1 4 -16 0 0.08 2.81 1.25 <
0 -4 16 -2 1.94 0.62 1.25 <
0 4 -16 2 1.94 0.31 1.25 <
-1 -4 16 1 1.58 0.31 1.25 <
1 4 -16 -1 1.58 0.94 1.25 <
0 -4 16 -1 0.37 -0.94 1.25 <
0 4 -16 1 0.37 1.87 1.25 <
-1 -4 16 2 0.17 1.25 1.25 <
1 4 -16 -2 0.17 -2.81 1.25 <
0 -4 16 0 2.91 3.12 1.25 <
0 4 -16 0 2.91 4.37 1.25 o
1 -4 16 -2 1.61 -0.62 1.25 <
-1 4 -16 2 1.61 -0.62 1.25 <
0 -4 16 1 2.60 -0.62 1.25 <
0 4 -16 -1 2.60 2.18 1.25 <
1 -4 16 -1 0.69 1.87 1.25 <
-1 4 -16 1 0.69 0.94 0.94 <
0 -4 16 2 0.75 3.43 1.56 <
0 4 -16 -2 0.75 3.74 0.94 o
1 -4 16 0 2.32 -0.62 1.87 <
-1 4 -16 0 2.32 0.00 0.94 <
2 -4 16 -2 0.12 5.93 3.74 <
-2 4 -16 2 0.12 -0.62 0.94 <
-2 -3 16 -1 0.19 -1.87 1.56 <
2 3 -16 1 0.19 -0.62 1.56 <
-3 -3 16 2 2.06 -0.94 1.56 <
3 3 -16 -2 2.06 2.81 1.56 <
-2 -3 16 0 4.80 3.74 1.56 <
2 3 -16 0 4.80 -2.18 1.56 <
-1 -3 16 -2 0.26 -2.81 1.25 <
1 3 -16 2 0.26 1.25 1.56 <
-2 -3 16 1 1.85 0.00 1.25 <
2 3 -16 -1 1.85 1.25 1.56 <
-1 -3 16 -1 1.20 0.00 1.25 <
1 3 -16 1 1.20 -1.25 1.25 <
-2 -3 16 2 3.12 2.50 1.25 <
2 3 -16 -2 3.12 -0.94 1.25 <
-1 -3 16 0 0.34 3.12 1.25 <
1 3 -16 0 0.34 -0.62 1.25 <
0 -3 16 -2 2.16 2.50 1.25 <
0 3 -16 2 2.16 1.87 1.25 <
-1 -3 16 1 0.75 1.87 1.25 <
1 3 -16 -1 0.75 0.94 1.25 <
0 -3 16 -1 1.07 0.31 1.25 <
0 3 -16 1 1.07 3.43 1.25 <
-1 -3 16 2 0.35 -1.87 1.25 <
1 3 -16 -2 0.35 -0.31 1.25 <
0 -3 16 0 5.13 2.18 1.25 <
0 3 -16 0 5.13 1.56 1.25 <
1 -3 16 -2 1.79 1.56 0.94 <
-1 3 -16 2 1.79 1.56 1.25 <
0 -3 16 1 2.73 0.94 0.94 <
0 3 -16 -1 2.73 -1.25 0.94 <
1 -3 16 -1 1.18 1.25 0.94 <
-1 3 -16 1 1.18 2.18 0.94 <
0 -3 16 2 0.56 0.00 0.94 <
0 3 -16 -2 0.56 0.62 0.94 <
1 -3 16 0 1.44 0.31 0.94 <
-1 3 -16 0 1.44 0.94 0.94 <
-2 -2 16 -2 0.27 -2.50 1.56 <
2 2 -16 2 0.27 0.00 1.56 <
-3 -2 16 1 0.73 -3.74 1.56 <
3 2 -16 -1 0.73 -3.74 1.56 <
-2 -2 16 -1 0.54 0.62 1.56 <
2 2 -16 1 0.54 0.62 1.56 <
-3 -2 16 2 2.47 -1.56 1.56 <
3 2 -16 -2 2.47 -0.31 1.56 <
-2 -2 16 0 5.78 -1.56 1.25 <
2 2 -16 0 5.78 3.43 1.56 <
-1 -2 16 -2 0.12 2.81 1.25 <
1 2 -16 2 0.12 2.50 1.25 <
-2 -2 16 1 1.65 1.87 1.25 <
2 2 -16 -1 1.65 -0.31 1.25 <
-1 -2 16 -1 1.80 0.94 1.25 <
1 2 -16 1 1.80 -1.56 1.25 <
-2 -2 16 2 3.63 0.62 1.25 <
2 2 -16 -2 3.63 0.00 1.25 <
-1 -2 16 0 1.09 3.74 1.25 o
1 2 -16 0 1.09 -4.06 1.25 <
0 -2 16 -2 2.10 -1.87 1.25 <
0 2 -16 2 2.10 -0.62 1.25 <
-1 -2 16 1 0.11 -1.87 1.25 <
1 2 -16 -1 0.11 0.31 1.25 <
0 -2 16 -1 1.85 1.56 1.25 <
0 2 -16 1 1.85 1.25 1.25 <
-1 -2 16 2 0.58 -0.94 1.25 <
1 2 -16 -2 0.58 0.00 1.25 <
0 -2 16 0 6.58 2.81 1.25 <
0 2 -16 0 6.58 0.31 1.25 <
1 -2 16 -2 1.76 -3.74 0.94 <
-1 2 -16 2 1.76 0.62 0.94 <
0 -2 16 1 2.40 1.25 0.94 <
0 2 -16 -1 2.40 3.74 0.94 o
1 -2 16 -1 1.64 3.43 0.94 o
-1 2 -16 1 1.64 2.18 0.94 <
0 -2 16 2 0.35 1.87 0.94 <
0 2 -16 -2 0.35 -1.25 0.94 <
1 -2 16 0 0.80 -0.62 1.87 <
-1 2 -16 0 0.80 4.06 1.87 <
-3 -1 16 0 1.37 -2.81 1.56 <
3 1 -16 0 1.37 -0.62 1.56 <
-2 -1 16 -2 0.42 -3.43 1.56 <
2 1 -16 2 0.42 2.50 1.56 <
-3 -1 16 1 1.08 1.87 1.56 <
3 1 -16 -1 1.08 1.87 1.56 <
-2 -1 16 -1 1.11 0.62 1.25 <
2 1 -16 1 1.11 -3.12 1.56 <
-3 -1 16 2 2.63 0.94 1.25 <
3 1 -16 -2 2.63 0.94 1.56 <
-2 -1 16 0 5.95 1.56 1.25 <
2 1 -16 0 5.95 4.37 1.56 <
-1 -1 16 -2 0.03 -0.31 1.25 <
1 1 -16 2 0.03 1.56 1.25 <
-2 -1 16 1 1.32 -0.62 1.25 <
2 1 -16 -1 1.32 -0.62 1.25 <
-1 -1 16 -1 2.29 0.00 1.25 <
1 1 -16 1 2.29 1.25 1.25 <
-2 -1 16 2 3.55 -1.87 1.25 <
2 1 -16 -2 3.55 3.74 1.25 o
-1 -1 16 0 1.63 -1.87 1.25 <
1 1 -16 0 1.63 2.50 1.25 <
0 -1 16 -2 1.78 4.68 1.25 o
0 1 -16 2 1.78 0.62 1.25 <
-1 -1 16 1 0.12 1.87 1.25 <
1 1 -16 -1 0.12 0.00 1.25 <
0 -1 16 -1 2.34 4.68 1.25 o
0 1 -16 1 2.34 1.25 1.25 <
-1 -1 16 2 0.78 0.31 1.25 <
1 1 -16 -2 0.78 2.18 1.25 <
0 -1 16 0 8.33 2.81 0.94 <
0 1 -16 0 8.33 1.25 0.94 <
1 -1 16 -2 1.51 1.25 0.94 <
-1 1 -16 2 1.51 2.81 0.94 <
0 -1 16 1 1.72 0.62 0.94 <
0 1 -16 -1 1.72 -0.62 0.94 <
1 -1 16 -1 1.82 3.12 0.94 o
-1 1 -16 1 1.82 -0.62 0.94 <
0 -1 16 2 0.19 2.18 0.94 <
0 1 -16 -2 0.19 1.87 1.25 <
-3 0 16 -1 2.16 -1.87 1.56 <
3 0 -16 1 2.16 -0.94 1.56 <
-4 0 16 2 0.14 -10.92 1.56 <
4 0 -16 -2 0.14 1.56 1.56 <
-3 0 16 0 2.14 -0.62 1.56 <
3 0 -16 0 2.14 4.68 1.56 <
-2 0 16 -2 0.53 0.62 1.25 <
2 0 -16 2 0.53 -0.62 1.56 <
-3 0 16 1 1.47 4.37 1.25 o
3 0 -16 -1 1.47 6.24 1.56 o
-2 0 16 -1 1.73 -3.12 1.25 <
2 0 -16 1 1.73 -1.87 1.25 <
-3 0 16 2 2.56 -2.18 1.25 <
3 0 -16 -2 2.56 1.87 1.25 <
-2 0 16 0 4.43 4.06 1.25 o
2 0 -16 0 4.43 4.68 1.25 o
-1 0 16 -2 0.04 4.68 1.25 o
1 0 -16 2 0.04 -2.18 1.25 <
-2 0 16 1 0.99 3.12 1.25 <
2 0 -16 -1 0.99 2.50 1.25 <
-1 0 16 -1 2.55 2.18 1.25 <
1 0 -16 1 2.55 2.18 1.25 <
-2 0 16 2 2.93 1.56 1.25 <
2 0 -16 -2 2.93 -0.31 1.25 <
-1 0 16 0 2.31 3.12 1.25 <
1 0 -16 0 2.31 2.81 1.25 <
0 0 16 -2 1.38 0.00 1.25 <
0 0 -16 2 1.38 2.18 1.25 <
-1 0 16 1 0.86 -1.25 1.25 <
1 0 -16 -1 0.86 0.31 1.25 <
0 0 16 -1 2.34 3.12 1.25 <
0 0 -16 1 2.34 0.62 1.25 <
-1 0 16 2 0.84 -0.62 1.25 <
1 0 -16 -2 0.84 0.62 1.25 <
0 0 16 0 7.37 1.87 0.94 <
0 0 -16 0 7.37 1.87 0.94 <
1 0 16 -2 1.14 0.62 0.94 <
-1 0 -16 2 1.14 1.25 0.94 <
0 0 16 1 0.98 -0.62 0.94 <
0 0 -16 -1 0.98 1.56 0.94 <
1 0 16 -1 1.66 1.56 0.94 <
-1 0 -16 1 1.66 0.31 1.56 <
-4 1 16 1 0.33 -0.94 1.56 <
4 -1 -16 -1 0.33 -3.12 1.87 <
-3 1 16 -1 2.78 -8.74 1.56 <
3 -1 -16 1 2.78 0.00 1.56 <
-4 1 16 2 0.04 0.62 1.25 <
4 -1 -16 -2 0.04 3.12 1.56 <
-3 1 16 0 3.45 2.50 1.56 <
3 -1 -16 0 3.45 1.56 1.56 <
-2 1 16 -2 0.55 -4.06 1.25 <
2 -1 -16 2 0.55 -3.12 1.56 <
-3 1 16 1 1.77 4.37 1.25 o
3 -1 -16 -1 1.77 -1.56 1.56 <
-2 1 16 -1 2.16 3.43 1.25 <
2 -1 -16 1 2.16 4.68 1.56 <
-3 1 16 2 2.41 -3.43 1.25 <
3 -1 -16 -2 2.41 -0.62 1.25 <
-2 1 16 0 3.82 9.36 1.25 o
2 -1 -16 0 3.82 6.24 1.25 o
-1 1 16 -2 0.15 1.25 1.25 <
1 -1 -16 2 0.15 -0.31 1.25 <
-2 1 16 1 0.72 1.87 1.25 <
2 -1 -16 -1 0.72 1.87 1.25 <
-1 1 16 -1 2.53 -3.12 1.25 <
1 -1 -16 1 2.53 0.62 1.25 <
-2 1 16 2 2.10 0.31 1.25 <
2 -1 -16 -2 2.10 2.18 1.25 <
-1 1 16 0 2.79 1.25 1.25 <
1 -1 -16 0 2.79 0.62 1.25 <
0 1 16 -2 1.04 -0.94 1.25 <
0 -1 -16 2 1.04 -0.31 1.25 <
-1 1 16 1 2.01 1.25 1.25 <
1 -1 -16 -1 2.01 3.12 1.25 <
0 1 16 -1 1.89 4.68 1.25 o
0 -1 -16 1 1.89 0.62 1.25 <
-1 1 16 2 0.75 0.31 1.25 <
1 -1 -16 -2 0.75 2.18 1.25 <
0 1 16 0 5.26 2.18 1.25 <
0 -1 -16 0 5.26 1.25 1.25 <
1 1 16 -2 0.80 0.31 1.25 <
-1 -1 -16 2 0.80 1.25 1.25 <
0 1 16 1 0.39 0.62 1.25 <
0 -1 -16 -1 0.39 0.62 1.87 <
-3 2 16 -2 0.76 1.56 1.56 <
3 -2 -16 2 0.76 0.62 1.56 <
-4 2 16 1 0.90 -1.25 1.56 <
4 -2 -16 -1 0.90 5.93 1.56 o
-3 2 16 -1 2.95 -3.74 1.56 <
3 -2 -16 1 2.95 3.12 1.56 <
-4 2 16 2 0.07 0.00 1.25 <
4 -2 -16 -2 0.07 2.50 1.56 <
-3 2 16 0 4.62 0.62 1.25 <
3 -2 -16 0 4.62 4.37 1.56 <
-2 2 16 -2 0.50 1.56 1.25 <
2 -2 -16 2 0.50 0.94 1.25 <
-3 2 16 1 1.87 0.00 1.25 <
3 -2 -16 -1 1.87 4.37 1.25 o
-2 2 16 -1 2.20 1.25 1.25 <
2 -2 -16 1 2.20 15.29 1.56 o
-3 2 16 2 2.31 3.74 1.25 o
3 -2 -16 -2 2.31 0.00 1.25 <
-2 2 16 0 4.27 6.87 1.25 o
2 -2 -16 0 4.27 8.43 1.25 o
-1 2 16 -2 0.28 -1.87 1.25 <
1 -2 -16 2 0.28 -0.62 1.25 <
-2 2 16 1 0.51 3.43 1.25 <
2 -2 -16 -1 0.51 3.12 1.25 <
-1 2 16 -1 2.28 1.56 1.25 <
1 -2 -16 1 2.28 -0.62 1.25 <
-2 2 16 2 1.46 2.18 1.25 <
2 -2 -16 -2 1.46 2.81 1.25 <
-1 2 16 0 1.75 0.31 1.25 <
1 -2 -16 0 1.75 0.00 1.25 <
0 2 16 -2 0.84 -1.25 1.25 <
0 -2 -16 2 0.84 -0.31 1.25 <
-1 2 16 1 3.05 2.18 1.25 <
1 -2 -16 -1 3.05 0.31 1.25 <
0 2 16 -1 1.25 1.87 1.25 <
0 -2 -16 1 1.25 0.62 1.25 <
-1 2 16 2 0.55 2.50 1.25 <
1 -2 -16 -2 0.55 2.18 1.25 <
0 2 16 0 3.13 0.31 1.25 <
0 -2 -16 0 3.13 -1.87 1.25 <
1 2 16 -2 0.57 -0.31 1.87 <
-1 -2 -16 2 0.57 -4.37 1.87 <
-4 3 16 0 2.24 0.94 1.56 <
4 -3 -16 0 2.24 1.56 1.56 <
-3 3 16 -2 0.80 -3.12 1.56 <
3 -3 -16 2 0.80 9.36 2.18 o
-4 3 16 1 1.74 0.00 1.56 <
4 -3 -16 -1 1.74 1.87 1.56 <
-3 3 16 -1 2.57 0.94 1.25 <
3 -3 -16 1 2.57 0.00 1.56 <
-4 3 16 2 0.21 -1.25 1.25 <
4 -3 -16 -2 0.21 1.25 1.56 <
-3 3 16 0 3.59 -0.62 1.25 <
3 -3 -16 0 3.59 -2.81 1.56 <
-2 3 16 -2 0.44 0.94 1.25 <
2 -3 -16 2 0.44 4.37 1.25 o
-3 3 16 1 1.77 0.94 1.25 <
3 -3 -16 -1 1.77 2.18 1.25 <
-2 3 16 -1 1.82 10.30 1.25 o
2 -3 -16 1 1.82 11.23 1.56 o
-3 3 16 2 2.32 -0.94 1.25 <
3 -3 -16 -2 2.32 0.31 1.25 <
-2 3 16 0 5.69 5.62 1.25 o
2 -3 -16 0 5.69 5.31 1.25 o
-1 3 16 -2 0.34 3.12 1.25 <
1 -3 -16 2 0.34 0.62 1.25 <
-2 3 16 1 0.36 4.06 1.25 o
2 -3 -16 -1 0.36 0.00 1.25 <
-1 3 16 -1 1.86 -0.31 1.25 <
1 -3 -16 1 1.86 3.12 1.25 <
-2 3 16 2 1.21 0.31 1.25 <
2 -3 -16 -2 1.21 2.81 1.25 <
-1 3 16 0 0.94 -0.62 1.25 <
1 -3 -16 0 0.94 1.87 1.25 <
0 3 16 -2 0.75 -0.94 1.25 <
0 -3 -16 2 0.75 -3.74 1.25 <
-1 3 16 1 3.54 0.62 1.25 <
1 -3 -16 -1 3.54 -1.87 1.25 <
0 3 16 -1 0.66 0.94 1.25 <
0 -3 -16 1 0.66 -0.31 1.25 <
-1 3 16 2 0.34 0.94 1.25 <
1 -3 -16 -2 0.34 -1.25 1.25 <
-5 4 16 2 0.07 -4.06 1.56 <
5 -4 -16 -2 0.07 -1.25 1.56 <
-4 4 16 0 2.11 1.87 1.56 <
4 -4 -16 0 2.11 2.18 1.56 <
-3 4 16 -2 0.93 -4.37 1.56 <
3 -4 -16 2 0.93 4.68 1.56 <
-4 4 16 1 2.66 1.25 1.25 <
4 -4 -16 -1 2.66 1.87 1.56 <
-3 4 16 -1 1.77 2.50 1.25 <
3 -4 -16 1 1.77 2.18 1.56 <
-4 4 16 2 0.38 0.00 1.25 <
4 -4 -16 -2 0.38 -1.87 1.56 <
-3 4 16 0 2.65 -0.62 1.25 <
3 -4 -16 0 2.65 2.18 1.56 <
-2 4 16 -2 0.47 -2.81 1.25 <
2 -4 -16 2 0.47 1.87 1.25 <
-3 4 16 1 1.60 2.81 1.25 <
3 -4 -16 -1 1.60 1.25 1.25 <
-2 4 16 -1 1.19 5.62 1.25 o
2 -4 -16 1 1.19 4.99 1.25 o
-3 4 16 2 2.34 4.37 1.25 o
3 -4 -16 -2 2.34 5.62 1.25 o
-2 4 16 0 5.53 4.99 1.25 o
2 -4 -16 0 5.53 6.24 1.25 o
-1 4 16 -2 0.29 3.12 1.25 <
1 -4 -16 2 0.29 -0.94 1.25 <
-2 4 16 1 0.25 1.87 1.25 <
2 -4 -16 -1 0.25 0.62 1.25 <
-1 4 16 -1 1.35 -1.87 1.25 <
1 -4 -16 1 1.35 3.74 1.25 o
-2 4 16 2 1.28 0.31 1.25 <
2 -4 -16 -2 1.28 0.94 1.25 <
-1 4 16 0 0.51 2.81 1.25 <
1 -4 -16 0 0.51 0.62 1.25 <
0 4 16 -2 0.68 1.87 1.25 <
0 -4 -16 2 0.68 0.62 1.25 <
-1 4 16 1 3.37 -1.25 1.25 <
1 -4 -16 -1 3.37 -0.31 1.25 <
0 4 16 -1 0.27 -1.87 1.25 <
0 -4 -16 1 0.27 -4.68 1.56 <
-4 5 16 -1 0.04 2.50 1.56 <
4 -5 -16 1 0.04 2.81 1.56 <
-5 5 16 2 0.18 -1.56 1.56 <
5 -5 -16 -2 0.18 3.12 1.56 <
-4 5 16 0 1.26 -0.31 1.56 <
4 -5 -16 0 1.26 4.68 1.56 <
-3 5 16 -2 1.14 0.31 1.25 <
3 -5 -16 2 1.14 -0.31 1.56 <
-4 5 16 1 3.30 0.31 1.25 <
4 -5 -16 -1 3.30 9.99 1.56 o
-3 5 16 -1 0.88 -0.94 1.25 <
3 -5 -16 1 0.88 -1.87 1.56 <
-4 5 16 2 0.47 0.94 1.25 <
4 -5 -16 -2 0.47 0.00 1.56 <
-3 5 16 0 2.03 2.50 1.25 <
3 -5 -16 0 2.03 4.37 1.25 o
-2 5 16 -2 0.62 0.00 1.25 <
2 -5 -16 2 0.62 -1.87 1.25 <
-3 5 16 1 1.47 0.31 1.25 <
3 -5 -16 -1 1.47 3.12 1.25 <
-2 5 16 -1 0.59 1.56 1.25 <
2 -5 -16 1 0.59 1.25 1.25 <
-3 5 16 2 2.27 4.06 1.25 o
3 -5 -16 -2 2.27 0.00 1.25 <
-2 5 16 0 4.06 1.87 1.25 <
2 -5 -16 0 4.06 1.87 1.25 <
-1 5 16 -2 0.18 2.50 1.25 <
1 -5 -16 2 0.18 -1.56 1.25 <
-2 5 16 1 0.18 0.62 1.25 <
2 -5 -16 -1 0.18 2.50 1.25 <
-1 5 16 -1 0.82 0.31 1.25 <
1 -5 -16 1 0.82 0.31 1.25 <
-2 5 16 2 1.49 0.00 1.25 <
2 -5 -16 -2 1.49 -2.18 1.25 <
-1 5 16 0 0.41 -1.25 1.25 <
1 -5 -16 0 0.41 0.62 1.25 <
0 5 16 -2 0.58 1.56 1.25 <
0 -5 -16 2 0.58 -0.62 1.25 <
-5 6 16 1 0.86 -1.87 2.18 <
5 -6 -16 -1 0.86 -0.62 2.18 <
-4 6 16 -1 0.16 2.81 1.56 <
4 -6 -16 1 0.16 1.87 1.56 <
-5 6 16 2 0.42 2.18 1.56 <
5 -6 -16 -2 0.42 -1.56 1.56 <
-4 6 16 0 0.47 1.87 1.56 <
4 -6 -16 0 0.47 4.06 1.56 <
-3 6 16 -2 1.37 0.00 1.25 <
3 -6 -16 2 1.37 0.62 1.56 <
-4 6 16 1 3.38 4.37 1.25 o
4 -6 -16 -1 3.38 2.18 1.56 <
-3 6 16 -1 0.26 -0.31 1.25 <
3 -6 -16 1 0.26 0.31 1.56 <
-4 6 16 2 0.46 1.56 1.25 <
4 -6 -16 -2 0.46 2.50 1.56 <
-3 6 16 0 0.80 1.87 1.25 <
3 -6 -16 0 0.80 0.31 1.56 <
-2 6 16 -2 0.83 0.31 1.25 <
2 -6 -16 2 0.83 2.81 1.25 <
-3 6 16 1 1.42 -1.25 1.25 <
3 -6 -16 -1 1.42 1.56 1.56 <
-2 6 16 -1 0.28 -0.31 1.25 <
2 -6 -16 1 0.28 3.43 1.25 <
-3 6 16 2 2.02 1.87 1.25 <
3 -6 -16 -2 2.02 0.62 1.25 <
-2 6 16 0 3.65 0.31 1.25 <
2 -6 -16 0 3.65 0.62 1.25 <
-1 6 16 -2 0.07 1.56 1.25 <
1 -6 -16 2 0.07 1.87 1.56 <
-2 6 16 1 0.15 -0.31 1.25 <
2 -6 -16 -1 0.15 3.74 1.25 o
-1 6 16 -1 0.39 -1.87 1.56 <
1 -6 -16 1 0.39 0.62 1.25 <
-2 6 16 2 1.62 -0.62 1.56 <
2 -6 -16 -2 1.62 0.31 1.25 <
-5 7 16 1 1.08 -1.87 1.56 <
5 -7 -16 -1 1.08 3.43 1.56 <
-4 7 16 -1 0.43 1.56 1.56 <
4 -7 -16 1 0.43 0.94 1.56 <
-5 7 16 2 0.75 1.25 1.56 <
5 -7 -16 -2 0.75 -3.12 1.56 <
-4 7 16 0 0.32 0.00 1.56 <
4 -7 -16 0 0.32 -2.50 1.56 <
-3 7 16 -2 1.52 -2.81 1.25 <
3 -7 -16 2 1.52 -1.25 1.56 <
-4 7 16 1 2.83 4.68 1.25 o
4 -7 -16 -1 2.83 5.93 1.56 o
-3 7 16 -1 0.11 1.56 1.25 <
3 -7 -16 1 0.11 2.81 1.56 <
-4 7 16 2 0.36 -0.62 1.25 <
4 -7 -16 -2 0.36 -1.25 1.56 <
-3 7 16 0 0.83 3.74 1.25 o
3 -7 -16 0 0.83 4.68 1.56 <
-2 7 16 -2 0.99 -1.25 1.25 <
2 -7 -16 2 0.99 -0.62 1.56 <
-3 7 16 1 1.39 -0.31 1.25 <
3 -7 -16 -1 1.39 -0.31 1.56 <
-2 7 16 -1 0.31 1.87 1.25 <
2 -7 -16 1 0.31 -1.25 1.56 <
-3 7 16 2 1.62 -0.94 1.25 <
3 -7 -16 -2 1.62 0.00 1.56 <
-2 7 16 0 3.36 1.87 1.56 <
2 -7 -16 0 3.36 1.87 1.56 <
-1 7 16 -2 0.01 1.87 1.56 <
1 -7 -16 2 0.01 0.94 1.56 <
-2 7 16 1 0.16 0.94 1.56 <
2 -7 -16 -1 0.16 1.56 1.56 <
-5 8 16 1 1.15 3.12 1.56 <
5 -8 -16 -1 1.15 0.62 1.56 <
-4 8 16 -1 0.74 2.50 1.56 <
4 -8 -16 1 0.74 4.68 1.56 <
-5 8 16 2 1.08 -0.62 1.56 <
5 -8 -16 -2 1.08 6.24 1.56 o
-4 8 16 0 0.23 1.56 1.56 <
4 -8 -16 0 0.23 6.87 1.56 o
-3 8 16 -2 1.52 -0.62 1.56 <
3 -8 -16 2 1.52 1.87 1.56 <
-4 8 16 1 1.89 2.50 1.56 <
4 -8 -16 -1 1.89 1.56 1.56 <
-3 8 16 -1 0.34 2.81 1.25 <
3 -8 -16 1 0.34 -0.94 1.56 <
-4 8 16 2 0.24 -0.62 1.25 <
4 -8 -16 -2 0.24 1.25 1.56 <
-3 8 16 0 1.74 2.50 1.56 <
3 -8 -16 0 1.74 -0.31 1.56 <
-2 8 16 -2 1.04 0.94 1.56 <
2 -8 -16 2 1.04 0.31 1.56 <
-3 8 16 1 1.31 -0.31 1.56 <
3 -8 -16 -1 1.31 1.87 1.56 <
-2 8 16 -1 0.56 1.56 1.56 <
2 -8 -16 1 0.56 3.43 1.56 <
-3 8 16 2 1.15 0.62 1.56 <
3 -8 -16 -2 1.15 -0.94 1.56 <
-2 8 16 0 2.31 0.94 1.56 <
2 -8 -16 0 2.31 -1.87 1.56 <
-5 9 16 1 1.08 0.94 1.56 <
5 -9 -16 -1 1.08 1.87 1.56 <
-4 9 16 -1 0.98 2.50 1.56 <
4 -9 -16 1 0.98 0.00 1.56 <
-5 9 16 2 1.26 3.43 1.56 <
5 -9 -16 -2 1.26 2.81 1.56 <
-4 9 16 0 0.25 -1.87 1.56 <
4 -9 -16 0 0.25 0.31 1.56 <
-3 9 16 -2 1.36 2.50 1.56 <
3 -9 -16 2 1.36 1.25 1.56 <
-4 9 16 1 0.93 0.94 1.56 <
4 -9 -16 -1 0.93 -0.94 1.56 <
-3 9 16 -1 0.70 0.94 1.56 <
3 -9 -16 1 0.70 1.56 1.56 <
-4 9 16 2 0.15 0.94 1.56 <
4 -9 -16 -2 0.15 0.31 1.56 <
-3 9 16 0 2.39 -0.31 1.56 <
3 -9 -16 0 2.39 -0.62 1.56 <
-2 9 16 -2 0.95 -0.31 1.56 <
2 -9 -16 2 0.95 -4.37 1.56 <
-3 9 16 1 1.13 0.00 1.56 <
3 -9 -16 -1 1.13 0.62 1.56 <
-4 10 16 -1 1.04 3.43 1.56 <
4 -10 -16 1 1.04 0.62 1.56 <
-5 10 16 2 1.23 2.50 1.56 <
5 -10 -16 -2 1.23 -1.25 1.56 <
-4 10 16 0 0.36 -1.25 1.56 <
4 -10 -16 0 0.36 1.25 1.56 <
-3 10 16 -2 1.09 0.62 1.56 <
3 -10 -16 2 1.09 0.94 1.56 <
-4 10 16 1 0.27 -0.94 1.56 <
4 -10 -16 -1 0.27 2.81 1.56 <
-3 10 16 -1 0.94 0.62 1.56 <
3 -10 -16 1 0.94 0.62 1.56 <
-4 10 16 2 0.10 1.25 1.56 <
4 -10 -16 -2 0.10 1.56 1.56 <
0 -6 17 -2 0.19 -1.25 2.18 <
0 6 -17 2 0.19 2.18 1.56 <
-1 -6 17 1 0.96 14.04 1.87 o
1 6 -17 -1 0.96 3.43 1.56 <
0 -6 17 -1 0.73 3.12 1.87 <
0 6 -17 1 0.73 -4.37 2.18 <
-1 -6 17 2 1.93 0.31 1.87 <
1 6 -17 -2 1.93 2.81 2.50 <
0 -6 17 0 0.26 -0.31 1.87 <
0 6 -17 0 0.26 0.31 4.06 <
1 -6 17 -2 1.06 -2.18 1.87 <
-1 6 -17 2 1.06 1.56 1.87 <
0 -6 17 1 0.96 0.62 1.87 <
0 6 -17 -1 0.96 -3.43 1.87 <
1 -6 17 -1 0.31 -0.94 1.87 <
-1 6 -17 1 0.31 0.00 1.87 <
-1 -5 17 -1 0.34 0.62 1.56 <
1 5 -17 1 0.34 -1.87 1.56 <
-2 -5 17 2 1.60 1.25 1.56 <
2 5 -17 -2 1.60 -2.18 1.56 <
-1 -5 17 0 3.66 -1.56 1.56 <
1 5 -17 0 3.66 0.62 1.56 <
0 -5 17 -2 0.10 0.31 1.56 <
0 5 -17 2 0.10 6.24 1.56 o
-1 -5 17 1 1.10 0.31 1.56 <
1 5 -17 -1 1.10 -1.87 1.56 <
0 -5 17 -1 1.13 0.94 1.56 <
0 5 -17 1 1.13 0.31 1.25 <
-1 -5 17 2 2.35 2.50 1.87 <
1 5 -17 -2 2.35 0.62 1.25 <
0 -5 17 0 0.52 1.87 2.81 <
0 5 -17 0 0.52 0.62 1.25 <
1 -5 17 -2 1.06 1.25 4.68 <
-1 5 -17 2 1.06 0.62 1.25 <
0 -5 17 1 0.40 -0.94 1.87 <
0 5 -17 -1 0.40 1.25 1.25 <
1 -5 17 -1 0.65 -1.56 1.87 <
-1 5 -17 1 0.65 2.50 1.25 <
0 -5 17 2 0.30 -1.56 1.87 <
0 5 -17 -2 0.30 1.25 1.87 <
-1 -4 17 -2 0.35 1.56 1.56 <
1 4 -17 2 0.35 2.50 1.56 <
-2 -4 17 1 0.68 -1.25 1.56 <
2 4 -17 -1 0.68 0.94 1.56 <
-1 -4 17 -1 0.73 1.87 1.25 <
1 4 -17 1 0.73 4.37 1.56 <
-2 -4 17 2 1.70 0.62 1.25 <
2 4 -17 -2 1.70 -0.94 1.56 <
-1 -4 17 0 4.62 0.94 1.25 <
1 4 -17 0 4.62 1.87 1.56 <
0 -4 17 -2 0.02 -0.62 1.25 <
0 4 -17 2 0.02 0.62 1.25 <
-1 -4 17 1 1.18 0.31 1.25 <
1 4 -17 -1 1.18 -0.31 1.25 <
0 -4 17 -1 1.50 2.50 1.25 <
0 4 -17 1 1.50 0.62 1.25 <
-1 -4 17 2 2.44 3.43 1.25 <
1 4 -17 -2 2.44 1.25 1.25 <
0 -4 17 0 0.68 1.87 1.25 <
0 4 -17 0 0.68 2.18 1.25 <
1 -4 17 -2 0.93 1.25 1.25 <
-1 4 -17 2 0.93 1.87 1.25 <
0 -4 17 1 0.04 0.31 1.25 <
0 4 -17 -1 0.04 2.50 1.25 <
1 -4 17 -1 0.96 1.25 1.25 <
-1 4 -17 1 0.96 2.18 0.94 <
0 -4 17 2 0.40 -2.81 1.87 <
0 4 -17 -2 0.40 4.06 1.87 <
-3 -3 17 2 0.21 9.05 1.56 o
3 3 -17 -2 0.21 4.68 1.56 <
-2 -3 17 0 2.19 -1.25 1.56 <
2 3 -17 0 2.19 3.12 1.56 <
-1 -3 17 -2 0.46 -1.25 1.56 <
1 3 -17 2 0.46 -3.12 1.56 <
-2 -3 17 1 1.07 4.06 1.25 o
2 3 -17 -1 1.07 -0.31 1.56 <
-1 -3 17 -1 1.18 0.94 1.25 <
1 3 -17 1 1.18 2.18 1.56 <
-2 -3 17 2 1.68 -0.31 1.25 <
2 3 -17 -2 1.68 -1.87 1.25 <
-1 -3 17 0 3.61 -0.62 1.25 <
1 3 -17 0 3.61 2.50 1.25 <
0 -3 17 -2 0.01 -1.25 1.25 <
0 3 -17 2 0.01 -2.50 1.25 <
-1 -3 17 1 1.20 -0.62 1.25 <
1 3 -17 -1 1.20 -0.62 1.25 <
0 -3 17 -1 1.75 1.87 1.25 <
0 3 -17 1 1.75 0.94 1.25 <
-1 -3 17 2 2.13 0.62 1.25 <
1 3 -17 -2 2.13 2.50 1.25 <
0 -3 17 0 0.57 0.00 1.25 <
0 3 -17 0 0.57 -3.74 1.25 <
1 -3 17 -2 0.74 2.81 1.25 <
-1 3 -17 2 0.74 1.25 1.25 <
0 -3 17 1 0.10 -2.18 0.94 <
0 3 -17 -1 0.10 2.50 0.94 <
1 -3 17 -1 1.08 1.87 0.94 <
-1 3 -17 1 1.08 4.68 0.94 o
-3 -2 17 1 0.14 -0.62 1.56 <
3 2 -17 -1 0.14 -2.50 1.56 <
-2 -2 17 -1 2.13 0.62 1.56 <
2 2 -17 1 2.13 0.94 1.56 <
-3 -2 17 2 0.08 -0.62 1.56 <
3 2 -17 -2 0.08 -0.62 1.56 <
-2 -2 17 0 3.17 2.81 1.56 <
2 2 -17 0 3.17 1.87 1.56 <
-1 -2 17 -2 0.50 -1.25 1.25 <
1 2 -17 2 0.50 1.56 1.56 <
-2 -2 17 1 1.48 1.25 1.25 <
2 2 -17 -1 1.48 2.50 1.25 <
-1 -2 17 -1 1.52 1.25 1.25 <
1 2 -17 1 1.52 4.37 1.25 o
-2 -2 17 2 1.63 -1.25 1.25 <
2 2 -17 -2 1.63 4.99 1.25 o
-1 -2 17 0 2.40 3.74 1.25 o
1 2 -17 0 2.40 1.56 1.25 <
0 -2 17 -2 0.06 -3.74 1.25 <
0 2 -17 2 0.06 -0.94 1.25 <
-1 -2 17 1 1.14 -2.81 1.25 <
1 2 -17 -1 1.14 3.43 1.25 <
0 -2 17 -1 1.80 -2.50 1.25 <
0 2 -17 1 1.80 1.87 1.25 <
-1 -2 17 2 1.59 1.56 1.25 <
1 2 -17 -2 1.59 1.87 1.25 <
0 -2 17 0 0.43 1.25 1.25 <
0 2 -17 0 0.43 -0.94 1.25 <
1 -2 17 -2 0.57 3.43 0.94 o
-1 2 -17 2 0.57 -0.31 0.94 <
0 -2 17 1 0.60 -1.87 0.94 <
0 2 -17 -1 0.60 -1.25 0.94 <
1 -2 17 -1 0.99 0.94 0.94 <
-1 2 -17 1 0.99 0.94 0.94 <
-3 -1 17 0 1.10 5.93 2.18 <
3 1 -17 0 1.10 -1.25 2.18 <
-2 -1 17 -2 0.77 -0.62 1.56 <
2 1 -17 2 0.77 0.62 1.56 <
-3 -1 17 1 0.51 -4.06 1.56 <
3 1 -17 -1 0.51 1.25 1.56 <
-2 -1 17 -1 2.50 4.99 1.56 o
2 1 -17 1 2.50 1.25 1.56 <
-3 -1 17 2 0.03 5.62 1.25 o
3 1 -17 -2 0.03 2.50 1.56 <
-2 -1 17 0 4.80 -0.62 1.25 <
2 1 -17 0 4.80 2.18 1.56 <
-1 -1 17 -2 0.47 1.25 1.25 <
1 1 -17 2 0.47 0.62 1.25 <
-2 -1 17 1 1.70 0.62 1.25 <
2 1 -17 -1 1.70 -1.25 1.25 <
-1 -1 17 -1 1.57 4.37 1.25 o
1 1 -17 1 1.57 4.68 1.25 o
-2 -1 17 2 1.68 0.62 1.25 <
2 1 -17 -2 1.68 0.31 1.25 <
-1 -1 17 0 1.65 3.74 1.25 o
1 1 -17 0 1.65 2.81 1.25 <
0 -1 17 -2 0.13 0.94 1.25 <
0 1 -17 2 0.13 -0.62 1.25 <
-1 -1 17 1 0.97 3.12 1.25 <
1 1 -17 -1 0.97 5.62 1.25 o
0 -1 17 -1 1.65 -0.94 1.25 <
0 1 -17 1 1.65 1.25 1.25 <
-1 -1 17 2 1.05 3.12 1.25 <
1 1 -17 -2 1.05 2.50 1.25 <
0 -1 17 0 0.42 -1.25 1.25 <
0 1 -17 0 0.42 0.31 0.94 <
1 -1 17 -2 0.47 -1.25 0.94 <
-1 1 -17 2 0.47 -0.62 0.94 <
0 -1 17 1 1.29 0.62 0.94 <
0 1 -17 -1 1.29 -1.25 0.94 <
-4 0 17 2 0.07 -0.62 1.56 <
4 0 -17 -2 0.07 0.31 1.56 <
-3 0 17 0 1.49 1.25 1.56 <
3 0 -17 0 1.49 1.56 1.56 <
-2 0 17 -2 0.84 5.62 1.56 o
2 0 -17 2 0.84 -1.25 1.56 <
-3 0 17 1 1.26 -1.25 1.25 <
3 0 -17 -1 1.26 0.62 1.56 <
-2 0 17 -1 2.43 3.12 1.56 <
2 0 -17 1 2.43 9.05 1.56 o
-3 0 17 2 0.09 0.94 1.25 <
3 0 -17 -2 0.09 2.18 1.56 <
-2 0 17 0 5.02 -0.62 1.25 <
2 0 -17 0 5.02 -2.81 1.25 <
-1 0 17 -2 0.42 -0.94 1.25 <
1 0 -17 2 0.42 1.87 1.25 <
-2 0 17 1 1.64 1.87 1.25 <
2 0 -17 -1 1.64 -0.94 1.25 <
-1 0 17 -1 1.30 3.43 1.25 <
1 0 -17 1 1.30 4.68 1.25 o
-2 0 17 2 1.84 2.50 1.25 <
2 0 -17 -2 1.84 -0.31 1.25 <
-1 0 17 0 2.18 0.94 1.25 <
1 0 -17 0 2.18 1.56 1.25 <
0 0 17 -2 0.18 2.81 1.25 <
0 0 -17 2 0.18 0.31 1.25 <
-1 0 17 1 0.72 3.74 1.25 o
1 0 -17 -1 0.72 4.68 1.25 o
0 0 17 -1 1.36 1.25 1.25 <
0 0 -17 1 1.36 0.62 1.25 <
-1 0 17 2 0.76 -0.62 1.25 <
1 0 -17 -2 0.76 -0.94 1.25 <
0 0 17 0 0.37 1.56 1.25 <
0 0 -17 0 0.37 3.43 1.25 <
1 0 17 -2 0.44 0.62 0.94 <
-1 0 -17 2 0.44 0.00 0.94 <
-3 1 17 -1 0.30 2.18 1.56 <
3 -1 -17 1 0.30 3.74 2.18 <
-4 1 17 2 0.06 0.00 1.56 <
4 -1 -17 -2 0.06 -5.31 1.56 <
-3 1 17 0 2.01 11.55 1.56 o
3 -1 -17 0 2.01 0.31 1.56 <
-2 1 17 -2 1.02 2.50 1.25 <
2 -1 -17 2 1.02 0.94 1.56 <
-3 1 17 1 2.34 5.62 1.25 o
3 -1 -17 -1 2.34 0.94 1.56 <
-2 1 17 -1 1.92 1.87 1.25 <
2 -1 -17 1 1.92 0.94 1.56 <
-3 1 17 2 0.21 2.50 1.25 <
3 -1 -17 -2 0.21 1.87 1.25 <
-2 1 17 0 3.73 3.43 1.25 <
2 -1 -17 0 3.73 1.87 1.25 <
-1 1 17 -2 0.42 -0.94 1.25 <
1 -1 -17 2 0.42 1.25 1.25 <
-2 1 17 1 1.34 2.50 1.25 <
2 -1 -17 -1 1.34 3.74 1.25 o
-1 1 17 -1 0.82 5.62 1.25 o
1 -1 -17 1 0.82 3.74 1.25 o
-2 1 17 2 2.02 2.81 1.25 <
2 -1 -17 -2 2.02 2.81 1.25 <
-1 1 17 0 2.69 1.56 1.25 <
1 -1 -17 0 2.69 2.50 1.25 <
0 1 17 -2 0.17 2.50 1.25 <
0 -1 -17 2 0.17 2.50 1.25 <
-1 1 17 1 0.43 0.94 1.25 <
1 -1 -17 -1 0.43 2.50 1.25 <
0 1 17 -1 1.00 0.62 1.25 <
0 -1 -17 1 1.00 3.12 1.25 <
-1 1 17 2 0.76 -0.31 1.25 <
1 -1 -17 -2 0.76 -1.87 1.25 <
0 1 17 0 0.47 0.94 1.25 <
0 -1 -17 0 0.47 0.94 1.25 <
-4 2 17 1 0.46 3.43 1.56 <
4 -2 -17 -1 0.46 0.94 1.56 <
-3 2 17 -1 0.11 2.50 1.56 <
3 -2 -17 1 0.11 0.00 1.56 <
-4 2 17 2 0.19 1.87 1.56 <
4 -2 -17 -2 0.19 -0.31 1.56 <
-3 2 17 0 1.98 6.24 1.25 o
3 -2 -17 0 1.98 0.94 1.56 <
-2 2 17 -2 1.30 5.31 1.25 o
2 -2 -17 2 1.30 3.12 1.56 <
-3 2 17 1 3.47 2.18 1.25 <
3 -2 -17 -1 3.47 2.50 1.56 <
-2 2 17 -1 1.18 -1.56 1.25 <
2 -2 -17 1 1.18 1.87 1.25 <
-3 2 17 2 0.32 -1.56 1.25 <
3 -2 -17 -2 0.32 3.12 1.25 <
-2 2 17 0 3.00 0.62 1.25 <
2 -2 -17 0 3.00 -2.81 1.25 <
-1 2 17 -2 0.53 1.87 1.25 <
1 -2 -17 2 0.53 -0.62 1.25 <
-2 2 17 1 0.97 0.62 1.25 <
2 -2 -17 -1 0.97 -1.56 1.25 <
-1 2 17 -1 0.34 1.87 1.25 <
1 -2 -17 1 0.34 3.12 1.25 <
-2 2 17 2 2.07 1.87 1.25 <
2 -2 -17 -2 2.07 2.81 1.25 <
-1 2 17 0 2.87 2.50 1.25 <
1 -2 -17 0 2.87 5.62 1.25 o
0 2 17 -2 0.12 3.43 1.25 <
0 -2 -17 2 0.12 1.87 1.25 <
-1 2 17 1 0.19 4.68 1.25 o
1 -2 -17 -1 0.19 -0.62 1.25 <
0 2 17 -1 0.65 -0.94 1.25 <
0 -2 -17 1 0.65 0.62 1.25 <
-1 2 17 2 0.94 -0.62 1.25 <
1 -2 -17 -2 0.94 -3.12 1.25 <
-3 3 17 -2 0.83 -0.62 1.56 <
3 -3 -17 2 0.83 3.74 1.56 <
-4 3 17 1 0.62 -1.25 1.56 <
4 -3 -17 -1 0.62 0.00 1.56 <
-3 3 17 -1 0.14 1.87 1.56 <
3 -3 -17 1 0.14 -2.81 1.56 <
-4 3 17 2 0.53 4.06 1.56 <
4 -3 -17 -2 0.53 3.12 1.56 <
-3 3 17 0 1.11 8.11 1.25 o
3 -3 -17 0 1.11 5.93 1.56 o
-2 3 17 -2 1.60 1.87 1.25 <
2 -3 -17 2 1.60 -0.62 1.56 <
-3 3 17 1 4.21 2.81 1.25 <
3 -3 -17 -1 4.21 6.24 1.56 o
-2 3 17 -1 0.52 -3.12 1.25 <
2 -3 -17 1 0.52 -0.31 1.25 <
-3 3 17 2 0.36 0.62 1.25 <
3 -3 -17 -2 0.36 3.12 1.25 <
-2 3 17 0 2.22 -0.62 1.25 <
2 -3 -17 0 2.22 0.31 1.25 <
-1 3 17 -2 0.74 0.94 1.25 <
1 -3 -17 2 0.74 3.43 1.25 <
-2 3 17 1 0.72 0.62 1.25 <
2 -3 -17 -1 0.72 0.62 1.25 <
-1 3 17 -1 0.07 -1.25 1.25 <
1 -3 -17 1 0.07 2.81 1.25 <
-2 3 17 2 1.92 1.87 1.25 <
2 -3 -17 -2 1.92 1.25 1.25 <
-1 3 17 0 2.50 1.87 1.25 <
1 -3 -17 0 2.50 1.56 1.25 <
0 3 17 -2 0.05 0.94 1.25 <
0 -3 -17 2 0.05 -1.56 1.25 <
-1 3 17 1 0.05 0.62 1.25 <
1 -3 -17 -1 0.05 0.62 1.25 <
-4 4 17 0 2.18 1.87 1.56 <
4 -4 -17 0 2.18 -0.94 1.56 <
-3 4 17 -2 0.88 -0.62 1.56 <
3 -4 -17 2 0.88 0.31 1.56 <
-4 4 17 1 0.77 -0.62 1.56 <
4 -4 -17 -1 0.77 -0.62 1.56 <
-3 4 17 -1 0.44 0.31 1.56 <
3 -4 -17 1 0.44 0.31 1.56 <
-4 4 17 2 1.04 0.00 1.56 <
4 -4 -17 -2 1.04 0.62 1.56 <
-3 4 17 0 0.91 0.94 1.25 <
3 -4 -17 0 0.91 0.94 1.56 <
-2 4 17 -2 1.80 1.56 1.25 <
2 -4 -17 2 1.80 1.25 1.56 <
-3 4 17 1 4.20 3.12 1.25 <
3 -4 -17 -1 4.20 3.43 1.56 <
-2 4 17 -1 0.19 0.31 1.25 <
2 -4 -17 1 0.19 1.56 1.25 <
-3 4 17 2 0.33 -0.62 1.25 <
3 -4 -17 -2 0.33 -1.87 1.25 <
-2 4 17 0 1.10 1.87 1.25 <
2 -4 -17 0 1.10 0.62 1.25 <
-1 4 17 -2 0.96 1.25 1.25 <
1 -4 -17 2 0.96 -0.62 1.25 <
-2 4 17 1 0.62 1.56 1.25 <
2 -4 -17 -1 0.62 -0.62 1.25 <
-1 4 17 -1 0.08 -2.50 1.25 <
1 -4 -17 1 0.08 -1.25 1.25 <
-2 4 17 2 1.59 0.94 1.25 <
2 -4 -17 -2 1.59 -1.25 1.25 <
-1 4 17 0 2.39 0.00 1.25 <
1 -4 -17 0 2.39 -2.81 1.25 <
0 4 17 -2 0.01 -0.94 1.25 <
0 -4 -17 2 0.01 0.62 1.25 <
-5 5 17 2 1.65 -0.62 1.56 <
5 -5 -17 -2 1.65 -0.62 1.56 <
-4 5 17 0 2.91 -0.62 1.56 <
4 -5 -17 0 2.91 0.62 1.56 <
-3 5 17 -2 0.80 -0.62 1.56 <
3 -5 -17 2 0.80 1.25 1.56 <
-4 5 17 1 0.88 -1.25 1.56 <
4 -5 -17 -1 0.88 -0.62 1.56 <
-3 5 17 -1 0.91 3.43 1.25 <
3 -5 -17 1 0.91 3.43 1.56 <
-4 5 17 2 1.57 0.31 1.25 <
4 -5 -17 -2 1.57 0.94 1.56 <
-3 5 17 0 0.88 0.62 1.25 <
3 -5 -17 0 0.88 1.25 1.56 <
-2 5 17 -2 1.82 -0.62 1.25 <
2 -5 -17 2 1.82 4.06 1.56 <
-3 5 17 1 3.43 2.18 1.25 <
3 -5 -17 -1 3.43 0.31 1.56 <
-2 5 17 -1 0.25 3.12 1.25 <
2 -5 -17 1 0.25 0.31 1.56 <
-3 5 17 2 0.27 0.94 1.25 <
3 -5 -17 -2 0.27 0.62 1.25 <
-2 5 17 0 1.61 2.50 1.25 <
2 -5 -17 0 1.61 3.43 1.25 <
-1 5 17 -2 1.08 1.25 1.25 <
1 -5 -17 2 1.08 -0.94 1.25 <
-2 5 17 1 0.62 0.94 1.25 <
2 -5 -17 -1 0.62 -2.18 1.25 <
-1 5 17 -1 0.31 1.56 1.25 <
1 -5 -17 1 0.31 0.00 1.25 <
-2 5 17 2 1.15 0.00 1.25 <
2 -5 -17 -2 1.15 1.87 1.25 <
-5 6 17 2 1.76 0.94 1.56 <
5 -6 -17 -2 1.76 0.62 1.56 <
-4 6 17 0 3.77 -1.25 1.56 <
4 -6 -17 0 3.77 1.87 1.56 <
-3 6 17 -2 0.60 1.25 1.56 <
3 -6 -17 2 0.60 -2.50 1.56 <
-4 6 17 1 0.96 2.50 1.25 <
4 -6 -17 -1 0.96 -1.56 1.56 <
-3 6 17 -1 1.36 1.56 1.56 <
3 -6 -17 1 1.36 2.18 1.56 <
-4 6 17 2 1.92 -0.62 1.25 <
4 -6 -17 -2 1.92 1.56 1.56 <
-3 6 17 0 1.12 1.87 1.56 <
3 -6 -17 0 1.12 0.94 1.56 <
-2 6 17 -2 1.64 -1.25 1.56 <
2 -6 -17 2 1.64 -0.62 1.56 <
-3 6 17 1 2.22 2.81 1.56 <
3 -6 -17 -1 2.22 4.99 1.56 o
-2 6 17 -1 0.55 -3.74 1.56 <
2 -6 -17 1 0.55 -0.62 1.56 <
-3 6 17 2 0.20 1.25 1.56 <
3 -6 -17 -2 0.20 0.62 1.56 <
-2 6 17 0 2.10 1.25 1.56 <
2 -6 -17 0 2.10 0.94 1.56 <
-1 6 17 -2 1.05 -3.12 1.56 <
1 -6 -17 2 1.05 0.62 1.56 <
-2 6 17 1 0.62 2.50 1.56 <
2 -6 -17 -1 0.62 1.56 1.56 <
-4 7 17 -1 0.36 1.56 1.56 <
4 -7 -17 1 0.36 0.31 1.56 <
-5 7 17 2 1.66 0.94 1.56 <
5 -7 -17 -2 1.66 6.87 1.56 o
-4 7 17 0 4.36 5.93 1.56 o
4 -7 -17 0 4.36 0.31 1.56 <
-3 7 17 -2 0.38 1.56 1.56 <
3 -7 -17 2 0.38 -3.74 1.56 <
-4 7 17 1 1.04 3.12 1.56 <
4 -7 -17 -1 1.04 3.43 1.56 <
-3 7 17 -1 1.61 3.74 1.56 <
3 -7 -17 1 1.61 -1.87 1.56 <
-4 7 17 2 1.96 3.43 1.56 <
4 -7 -17 -2 1.96 0.62 1.56 <
-3 7 17 0 0.97 -0.31 1.56 <
3 -7 -17 0 0.97 1.56 1.56 <
-2 7 17 -2 1.33 -1.56 1.56 <
2 -7 -17 2 1.33 3.43 1.56 <
-3 7 17 1 1.06 -0.62 1.56 <
3 -7 -17 -1 1.06 0.31 1.56 <
-2 7 17 -1 0.84 0.94 1.56 <
2 -7 -17 1 0.84 1.56 1.56 <
-3 7 17 2 0.15 2.50 1.56 <
3 -7 -17 -2 0.15 -0.62 1.56 <
-2 7 17 0 2.84 1.56 1.56 <
2 -7 -17 0 2.84 2.81 1.56 <
-5 8 17 2 1.40 0.62 1.56 <
5 -8 -17 -2 1.40 2.18 1.56 <
-4 8 17 0 3.49 -1.56 1.56 <
4 -8 -17 0 3.49 -0.62 1.56 <
-3 8 17 -2 0.19 1.56 1.56 <
3 -8 -17 2 0.19 0.31 1.56 <
-4 8 17 1 1.10 0.94 1.56 <
4 -8 -17 -1 1.10 1.25 1.56 <
-3 8 17 -1 1.58 0.62 1.56 <
3 -8 -17 1 1.58 1.25 1.56 <
-4 8 17 2 1.67 -1.25 1.56 <
4 -8 -17 -2 1.67 1.87 1.56 <
-3 8 17 0 0.75 1.87 1.56 <
3 -8 -17 0 0.75 0.62 1.56 <
-2 8 17 -2 0.98 0.00 1.56 <
2 -8 -17 2 0.98 -1.25 1.56 <
-3 8 17 1 0.31 -1.25 1.56 <
3 -8 -17 -1 0.31 1.56 1.56 <
-2 8 17 -1 0.95 -0.94 1.56 <
2 -8 -17 1 0.95 0.62 1.56 <
-4 9 17 0 2.37 2.50 1.56 <
4 -9 -17 0 2.37 2.50 1.56 <
-3 9 17 -2 0.09 -3.12 1.56 <
3 -9 -17 2 0.09 -1.56 1.56 <
-4 9 17 1 1.11 0.62 1.56 <
4 -9 -17 -1 1.11 0.62 1.56 <
-3 9 17 -1 1.32 1.25 1.56 <
3 -9 -17 1 1.32 1.25 1.56 <
-4 9 17 2 1.21 -0.31 1.56 <
4 -9 -17 -2 1.21 1.25 1.56 <
0 -5 18 -2 0.33 2.50 1.87 <
0 5 -18 2 0.33 0.31 2.18 <
-1 -5 18 1 0.69 1.87 1.25 <
1 5 -18 -1 0.69 3.12 1.56 <
0 -5 18 -1 0.91 3.43 1.25 <
0 5 -18 1 0.91 -0.94 1.25 <
-1 -5 18 2 0.80 1.87 1.56 <
1 5 -18 -2 0.80 0.94 1.25 <
-1 -4 18 -1 1.41 -0.62 1.56 <
1 4 -18 1 1.41 -2.18 1.56 <
-2 -4 18 2 0.03 1.56 1.25 <
2 4 -18 -2 0.03 3.12 1.56 <
-1 -4 18 0 3.07 1.25 1.56 <
1 4 -18 0 3.07 1.56 1.56 <
0 -4 18 -2 0.31 -0.31 1.25 <
0 4 -18 2 0.31 0.62 1.25 <
-1 -4 18 1 0.93 -1.25 1.25 <
1 4 -18 -1 0.93 -1.25 1.25 <
0 -4 18 -1 1.04 0.94 1.25 <
0 4 -18 1 1.04 -2.81 1.25 <
-1 -4 18 2 0.84 0.62 1.25 <
1 4 -18 -2 0.84 -0.31 1.25 <
0 -4 18 0 0.72 -0.94 1.25 <
0 4 -18 0 0.72 1.56 1.25 <
1 -4 18 -2 0.04 -0.31 1.87 <
-1 4 -18 2 0.04 0.94 1.87 <
-1 -3 18 -2 0.64 -0.31 1.56 <
1 3 -18 2 0.64 -0.62 1.56 <
-2 -3 18 1 0.60 2.81 1.56 <
2 3 -18 -1 0.60 -1.25 1.56 <
-1 -3 18 -1 1.50 3.12 1.56 <
1 3 -18 1 1.50 -0.31 1.56 <
-2 -3 18 2 0.02 -0.31 1.25 <
2 3 -18 -2 0.02 0.00 1.56 <
-1 -3 18 0 4.00 -0.94 1.25 <
1 3 -18 0 4.00 -0.62 1.25 <
0 -3 18 -2 0.26 -0.94 1.25 <
0 3 -18 2 0.26 -1.87 1.25 <
-1 -3 18 1 1.03 -0.62 1.25 <
1 3 -18 -1 1.03 -0.62 1.25 <
0 -3 18 -1 0.97 0.31 1.25 <
0 3 -18 1 0.97 -1.87 1.25 <
-1 -3 18 2 0.99 -0.31 1.25 <
1 3 -18 -2 0.99 1.25 1.25 <
0 -3 18 0 0.57 1.25 1.25 <
0 3 -18 0 0.57 0.00 1.25 <
1 -3 18 -2 0.07 0.00 1.87 <
-1 3 -18 2 0.07 -4.99 1.87 <
-3 -2 18 2 0.04 1.25 1.56 <
3 2 -18 -2 0.04 1.56 1.56 <
-2 -2 18 0 0.51 2.50 1.56 <
2 2 -18 0 0.51 2.81 1.56 <
-1 -2 18 -2 0.79 -0.94 1.25 <
1 2 -18 2 0.79 0.94 1.56 <
-2 -2 18 1 1.32 1.25 1.25 <
2 2 -18 -1 1.32 0.00 1.56 <
-1 -2 18 -1 1.32 1.56 1.25 <
1 2 -18 1 1.32 2.81 1.56 <
-2 -2 18 2 0.06 0.31 1.25 <
2 2 -18 -2 0.06 0.94 1.25 <
-1 -2 18 0 4.02 4.68 1.25 o
1 2 -18 0 4.02 0.94 1.25 <
0 -2 18 -2 0.24 0.00 1.25 <
0 2 -18 2 0.24 1.87 1.25 <
-1 -2 18 1 0.94 1.87 1.25 <
1 2 -18 -1 0.94 -0.94 1.25 <
0 -2 18 -1 0.71 1.87 1.25 <
0 2 -18 1 0.71 -1.56 1.25 <
-1 -2 18 2 1.21 4.68 1.25 o
1 2 -18 -2 1.21 1.87 1.25 <
0 -2 18 0 0.55 -0.31 1.25 <
0 2 -18 0 0.55 -1.56 1.25 <
-3 -1 18 1 0.57 -5.93 1.56 <
3 1 -18 -1 0.57 -2.50 1.56 <
-2 -1 18 -1 0.22 0.31 1.56 <
2 1 -18 1 0.22 -2.81 1.56 <
-3 -1 18 2 0.14 2.81 1.56 <
3 1 -18 -2 0.14 2.18 1.56 <
-2 -1 18 0 0.85 0.62 1.25 <
2 1 -18 0 0.85 2.18 1.56 <
-1 -1 18 -2 1.04 1.87 1.25 <
1 1 -18 2 1.04 3.43 1.56 <
-2 -1 18 1 2.30 7.80 1.25 o
2 1 -18 -1 2.30 -0.62 1.25 <
-1 -1 18 -1 0.95 -2.81 1.25 <
1 1 -18 1 0.95 3.12 1.25 <
-2 -1 18 2 0.13 0.00 1.25 <
2 1 -18 -2 0.13 -1.87 1.25 <
-1 -1 18 0 3.13 0.62 1.25 <
1 1 -18 0 3.13 0.62 1.25 <
0 -1 18 -2 0.31 -4.06 1.25 <
0 1 -18 2 0.31 0.62 1.25 <
-1 -1 18 1 0.71 2.18 1.25 <
1 1 -18 -1 0.71 -0.31 1.25 <
0 -1 18 -1 0.37 0.31 1.25 <
0 1 -18 1 0.37 1.25 1.25 <
-1 -1 18 2 1.37 2.81 1.25 <
1 1 -18 -2 1.37 2.50 1.25 <
0 -1 18 0 0.74 2.81 1.87 <
0 1 -18 0 0.74 0.94 1.87 <
-3 0 18 0 0.58 2.50 1.56 <
3 0 -18 0 0.58 -1.25 1.56 <
-2 0 18 -2 0.75 -1.87 1.56 <
2 0 -18 2 0.75 2.50 1.56 <
-3 0 18 1 0.54 0.62 1.56 <
3 0 -18 -1 0.54 0.62 1.56 <
-2 0 18 -1 0.10 -1.25 1.56 <
2 0 -18 1 0.10 -1.56 1.56 <
-3 0 18 2 0.45 1.56 1.25 <
3 0 -18 -2 0.45 0.62 1.56 <
-2 0 18 0 1.08 -2.50 1.56 <
2 0 -18 0 1.08 -2.81 1.56 <
-1 0 18 -2 1.35 2.81 1.25 <
1 0 -18 2 1.35 -2.81 1.56 <
-2 0 18 1 3.26 1.25 1.25 <
2 0 -18 -1 3.26 0.62 1.25 <
-1 0 18 -1 0.55 0.62 1.25 <
1 0 -18 1 0.55 0.62 1.25 <
-2 0 18 2 0.18 -1.87 1.25 <
2 0 -18 -2 0.18 0.62 1.25 <
-1 0 18 0 2.52 0.94 1.25 <
1 0 -18 0 2.52 -1.87 1.25 <
0 0 18 -2 0.47 0.62 1.25 <
0 0 -18 2 0.47 -0.94 1.25 <
-1 0 18 1 0.45 1.87 1.25 <
1 0 -18 -1 0.45 1.56 1.25 <
0 0 18 -1 0.10 0.31 1.25 <
0 0 -18 1 0.10 0.31 1.25 <
-1 0 18 2 1.40 4.68 1.25 o
1 0 -18 -2 1.40 -3.12 1.25 <
-4 1 18 2 1.71 -0.31 1.56 <
4 -1 -18 -2 1.71 0.31 1.56 <
-3 1 18 0 1.48 -0.62 1.56 <
3 -1 -18 0 1.48 0.31 1.56 <
-2 1 18 -2 0.84 -4.06 1.56 <
2 -1 -18 2 0.84 1.87 1.56 <
-3 1 18 1 0.46 -1.56 1.56 <
3 -1 -18 -1 0.46 0.94 1.56 <
-2 1 18 -1 0.26 1.25 1.25 <
2 -1 -18 1 0.26 4.06 1.56 <
-3 1 18 2 0.98 -7.80 1.25 <
3 -1 -18 -2 0.98 1.25 1.56 <
-2 1 18 0 1.43 -0.62 1.25 <
2 -1 -18 0 1.43 1.25 1.25 <
-1 1 18 -2 1.60 -0.62 1.25 <
1 -1 -18 2 1.60 3.43 1.25 <
-2 1 18 1 3.79 -0.62 1.25 <
2 -1 -18 -1 3.79 -0.62 1.25 <
-1 1 18 -1 0.29 -3.12 1.25 <
1 -1 -18 1 0.29 2.81 1.25 <
-2 1 18 2 0.19 2.50 1.25 <
2 -1 -18 -2 0.19 0.31 1.25 <
-1 1 18 0 1.54 -2.50 1.25 <
1 -1 -18 0 1.54 0.94 1.25 <
0 1 18 -2 0.66 -0.31 1.25 <
0 -1 -18 2 0.66 -1.25 1.25 <
-1 1 18 1 0.25 3.12 1.25 <
1 -1 -18 -1 0.25 0.62 1.25 <
0 1 18 -1 0.00 0.94 1.25 <
0 -1 -18 1 0.00 0.62 1.25 <
-3 2 18 -1 0.17 -1.25 1.56 <
3 -2 -18 1 0.17 0.62 1.56 <
-4 2 18 2 2.06 0.94 1.56 <
4 -2 -18 -2 2.06 -0.94 1.56 <
-3 2 18 0 2.42 0.62 1.56 <
3 -2 -18 0 2.42 1.25 1.56 <
-2 2 18 -2 0.80 2.81 1.56 <
2 -2 -18 2 0.80 -1.25 1.56 <
-3 2 18 1 0.38 1.25 1.25 <
3 -2 -18 -1 0.38 2.50 1.56 <
-2 2 18 -1 0.70 -0.94 1.25 <
2 -2 -18 1 0.70 -1.87 1.56 <
-3 2 18 2 1.60 0.62 1.25 <
3 -2 -18 -2 1.60 2.18 1.56 <
-2 2 18 0 1.62 1.87 1.25 <
2 -2 -18 0 1.62 1.56 1.25 <
-1 2 18 -2 1.69 -2.18 1.25 <
1 -2 -18 2 1.69 0.62 1.25 <
-2 2 18 1 3.66 4.06 1.25 o
2 -2 -18 -1 3.66 0.94 1.25 <
-1 2 18 -1 0.25 2.81 1.25 <
1 -2 -18 1 0.25 4.37 1.25 o
-2 2 18 2 0.19 0.00 1.25 <
2 -2 -18 -2 0.19 0.62 1.25 <
-1 2 18 0 0.85 1.56 1.25 <
1 -2 -18 0 0.85 -2.81 1.25 <
0 2 18 -2 0.79 -0.62 1.25 <
0 -2 -18 2 0.79 -0.62 1.25 <
-1 2 18 1 0.17 -1.56 1.87 <
1 -2 -18 -1 0.17 4.06 2.18 <
-4 3 18 1 0.64 2.81 1.56 <
4 -3 -18 -1 0.64 2.50 1.56 <
-3 3 18 -1 0.34 -1.25 1.56 <
3 -3 -18 1 0.34 -0.31 1.56 <
-4 3 18 2 2.20 -4.68 1.56 <
4 -3 -18 -2 2.20 0.94 1.56 <
-3 3 18 0 3.44 0.62 1.56 <
3 -3 -18 0 3.44 3.12 1.56 <
-2 3 18 -2 0.64 1.25 1.56 <
2 -3 -18 2 0.64 0.94 1.56 <
-3 3 18 1 0.41 0.62 1.25 <
3 -3 -18 -1 0.41 0.62 1.56 <
-2 3 18 -1 1.26 -0.62 1.25 <
2 -3 -18 1 1.26 -0.62 1.56 <
-3 3 18 2 2.08 -0.94 1.25 <
3 -3 -18 -2 2.08 -2.50 1.25 <
-2 3 18 0 2.35 0.31 1.25 <
2 -3 -18 0 2.35 3.12 1.25 <
-1 3 18 -2 1.57 -0.94 1.25 <
1 -3 -18 2 1.57 2.81 1.25 <
-2 3 18 1 2.89 3.74 1.25 o
2 -3 -18 -1 2.89 0.62 1.25 <
-1 3 18 -1 0.39 1.25 1.25 <
1 -3 -18 1 0.39 0.62 1.25 <
-2 3 18 2 0.17 1.25 1.25 <
2 -3 -18 -2 0.17 0.62 1.25 <
-1 3 18 0 1.24 2.50 1.25 <
1 -3 -18 0 1.24 2.50 1.25 <
-3 4 18 -2 0.10 1.87 1.56 <
3 -4 -18 2 0.10 3.12 1.56 <
-4 4 18 1 0.24 1.87 1.56 <
4 -4 -18 -1 0.24 3.12 1.56 <
-3 4 18 -1 0.56 0.62 1.56 <
3 -4 -18 1 0.56 0.94 1.56 <
-4 4 18 2 2.08 0.94 1.56 <
4 -4 -18 -2 2.08 3.12 1.56 <
-3 4 18 0 4.72 1.56 1.56 <
3 -4 -18 0 4.72 4.99 1.56 o
-2 4 18 -2 0.43 2.81 1.56 <
2 -4 -18 2 0.43 -0.62 1.56 <
-3 4 18 1 0.61 -0.31 1.25 <
3 -4 -18 -1 0.61 3.12 1.56 <
-2 4 18 -1 1.71 0.62 1.56 <
2 -4 -18 1 1.71 0.62 1.56 <
-3 4 18 2 2.25 2.81 1.25 <
3 -4 -18 -2 2.25 -0.62 1.56 <
-2 4 18 0 2.25 3.12 1.25 <
2 -4 -18 0 2.25 0.31 1.25 <
-1 4 18 -2 1.28 -0.62 1.25 <
1 -4 -18 2 1.28 -1.87 1.25 <
-2 4 18 1 1.82 0.31 1.25 <
2 -4 -18 -1 1.82 -2.50 1.25 <
-1 4 18 -1 0.60 0.62 1.25 <
1 -4 -18 1 0.60 4.06 1.25 o
-2 4 18 2 0.15 -0.62 1.25 <
2 -4 -18 -2 0.15 1.87 1.25 <
-4 5 18 0 1.06 -1.25 2.18 <
4 -5 -18 0 1.06 3.12 2.18 <
-3 5 18 -2 0.16 0.62 1.56 <
3 -5 -18 2 0.16 0.62 1.56 <
-4 5 18 1 0.06 0.94 1.56 <
4 -5 -18 -1 0.06 0.62 1.56 <
-3 5 18 -1 0.78 1.87 1.56 <
3 -5 -18 1 0.78 -0.62 1.56 <
-4 5 18 2 1.73 0.62 1.56 <
4 -5 -18 -2 1.73 2.81 1.56 <
-3 5 18 0 4.98 -1.25 1.56 <
3 -5 -18 0 4.98 -3.12 1.56 <
-2 5 18 -2 0.23 1.87 1.56 <
2 -5 -18 2 0.23 1.25 1.56 <
-3 5 18 1 0.96 2.81 1.56 <
3 -5 -18 -1 0.96 2.50 1.56 <
-2 5 18 -1 1.86 0.62 1.56 <
2 -5 -18 1 1.86 3.12 1.56 <
-3 5 18 2 2.03 2.50 1.56 <
3 -5 -18 -2 2.03 -1.87 1.56 <
-2 5 18 0 1.74 1.56 1.56 <
2 -5 -18 0 1.74 0.00 1.25 <
-1 5 18 -2 0.94 0.94 1.56 <
1 -5 -18 2 0.94 0.31 1.25 <
-2 5 18 1 0.85 0.94 1.25 <
2 -5 -18 -1 0.85 2.81 1.25 <
-4 6 18 0 1.28 2.81 1.56 <
4 -6 -18 0 1.28 2.50 1.56 <
-3 6 18 -2 0.19 5.93 1.56 o
3 -6 -18 2 0.19 -4.68 1.56 <
-4 6 18 1 0.12 0.31 1.56 <
4 -6 -18 -1 0.12 0.00 1.56 <
-3 6 18 -1 0.92 1.56 1.56 <
3 -6 -18 1 0.92 0.00 1.56 <
-4 6 18 2 1.31 1.56 1.56 <
4 -6 -18 -2 1.31 0.31 1.56 <
-3 6 18 0 3.28 3.12 1.56 <
3 -6 -18 0 3.28 3.74 1.56 <
-2 6 18 -2 0.10 0.00 1.56 <
2 -6 -18 2 0.10 -2.50 1.56 <
-3 6 18 1 1.31 1.87 1.56 <
3 -6 -18 -1 1.31 1.25 1.56 <
-2 6 18 -1 1.69 0.94 1.56 <
2 -6 -18 1 1.69 -2.18 1.56 <
-3 6 18 2 1.54 2.81 1.56 <
3 -6 -18 -2 1.54 0.31 1.56 <
-2 6 18 0 1.00 0.94 1.56 <
2 -6 -18 0 1.00 0.31 1.56 <
-4 7 18 0 1.77 3.12 2.18 <
4 -7 -18 0 1.77 2.81 2.18 <
-3 7 18 -2 0.18 0.31 1.56 <
3 -7 -18 2 0.18 2.50 1.56 <
-4 7 18 1 0.31 -2.50 1.56 <
4 -7 -18 -1 0.31 -0.31 1.56 <
-3 7 18 -1 0.94 3.43 1.56 <
3 -7 -18 1 0.94 1.56 1.56 <
-4 7 18 2 0.98 -0.31 1.56 <
4 -7 -18 -2 0.98 -0.62 1.56 <
-3 7 18 0 1.88 3.12 1.56 <
3 -7 -18 0 1.88 0.31 1.56 <
-2 7 18 -2 0.06 -3.43 1.56 <
2 -7 -18 2 0.06 1.56 1.56 <
-3 7 18 1 1.50 -2.50 1.56 <
3 -7 -18 -1 1.50 1.56 1.56 <
-1 -3 19 0 0.49 -0.31 1.87 <
1 3 -19 0 0.49 8.43 2.18 o
0 -3 19 -2 0.82 -0.62 1.87 <
0 3 -19 2 0.82 1.25 2.18 <
-1 -2 19 -2 0.61 0.94 1.56 <
1 2 -19 2 0.61 3.43 1.56 <
-2 -2 19 1 0.51 0.62 1.56 <
2 2 -19 -1 0.51 2.81 1.56 <
-1 -2 19 -1 0.07 0.62 1.56 <
1 2 -19 1 0.07 0.31 1.56 <
-2 -2 19 2 0.68 0.62 1.25 <
2 2 -19 -2 0.68 1.25 1.25 <
-1 -2 19 0 1.03 -1.25 1.25 <
1 2 -19 0 1.03 -0.31 1.25 <
0 -2 19 -2 1.02 1.87 1.25 <
0 2 -19 2 1.02 2.81 1.25 <
-1 -2 19 1 2.17 -2.18 1.87 <
1 2 -19 -1 2.17 0.62 2.18 <
-3 -1 19 2 1.96 0.31 1.56 <
3 1 -19 -2 1.96 1.56 1.56 <
-2 -1 19 0 1.04 2.50 1.56 <
2 1 -19 0 1.04 -0.62 1.56 <
-1 -1 19 -2 0.62 6.24 1.56 o
1 1 -19 2 0.62 -3.12 1.56 <
-2 -1 19 1 0.26 -1.25 1.56 <
2 1 -19 -1 0.26 0.94 1.56 <
-1 -1 19 -1 0.28 -0.31 1.25 <
1 1 -19 1 0.28 0.94 1.25 <
-2 -1 19 2 1.17 1.87 1.25 <
2 1 -19 -2 1.17 1.56 1.25 <
-1 -1 19 0 1.51 -2.50 1.25 <
1 1 -19 0 1.51 2.50 1.25 <
0 -1 19 -2 1.11 1.87 1.25 <
0 1 -19 2 1.11 -0.62 1.25 <
-1 -1 19 1 2.44 2.18 1.87 <
1 1 -19 -1 2.44 2.18 2.18 <
-3 0 19 1 0.75 0.94 1.56 <
3 0 -19 -1 0.75 -6.24 1.56 <
-2 0 19 -1 0.47 -1.56 1.56 <
2 0 -19 1 0.47 -2.50 1.87 <
-3 0 19 2 2.13 -0.94 1.56 <
3 0 -19 -2 2.13 3.74 1.56 <
-2 0 19 0 1.61 6.55 1.56 o
2 0 -19 0 1.61 -0.62 1.56 <
-1 0 19 -2 0.52 8.43 1.25 o
1 0 -19 2 0.52 1.87 1.56 <
-2 0 19 1 0.09 2.18 1.25 <
2 0 -19 -1 0.09 1.25 1.25 <
-1 0 19 -1 0.67 4.37 1.25 o
1 0 -19 1 0.67 -0.31 1.25 <
-2 0 19 2 1.62 1.56 1.25 <
2 0 -19 -2 1.62 0.94 1.25 <
-1 0 19 0 2.02 -0.62 1.25 <
1 0 -19 0 2.02 0.62 1.25 <
0 0 19 -2 1.07 -1.56 1.25 <
0 0 -19 2 1.07 -1.25 1.25 <
-2 1 19 -2 0.11 -0.31 1.56 <
2 -1 -19 2 0.11 0.94 1.56 <
-3 1 19 1 0.36 -0.62 1.56 <
3 -1 -19 -1 0.36 -4.68 1.56 <
-2 1 19 -1 0.66 -0.31 1.56 <
2 -1 -19 1 0.66 2.18 1.56 <
-3 1 19 2 2.01 0.00 1.56 <
3 -1 -19 -2 2.01 2.81 1.56 <
-2 1 19 0 2.27 0.62 1.56 <
2 -1 -19 0 2.27 1.25 1.56 <
-1 1 19 -2 0.36 2.81 1.25 <
1 -1 -19 2 0.36 3.12 1.25 <
-2 1 19 1 0.15 1.87 1.25 <
2 -1 -19 -1 0.15 0.00 1.25 <
-1 1 19 -1 1.10 0.31 1.25 <
1 -1 -19 1 1.10 5.62 1.25 o
-2 1 19 2 1.84 2.18 1.25 <
2 -1 -19 -2 1.84 0.62 1.25 <
-1 1 19 0 2.31 -0.62 1.25 <
1 -1 -19 0 2.31 -1.25 1.25 <
-3 2 19 0 1.18 4.99 1.56 o
3 -2 -19 0 1.18 3.43 1.56 <
-2 2 19 -2 0.17 -6.24 1.56 <
2 -2 -19 2 0.17 -1.87 1.56 <
-3 2 19 1 0.08 3.43 1.56 <
3 -2 -19 -1 0.08 -1.25 1.56 <
-2 2 19 -1 0.85 -0.62 1.56 <
2 -2 -19 1 0.85 3.43 1.56 <
-3 2 19 2 1.65 2.50 1.56 <
3 -2 -19 -2 1.65 -0.62 1.56 <
-2 2 19 0 2.99 -2.50 1.56 <
2 -2 -19 0 2.99 -0.94 1.25 <
-1 2 19 -2 0.20 0.62 1.25 <
1 -2 -19 2 0.20 6.24 1.25 o
-2 2 19 1 0.46 0.00 1.25 <
2 -2 -19 -1 0.46 1.56 1.25 <
-1 2 19 -1 1.38 2.50 1.25 <
1 -2 -19 1 1.38 0.00 1.25 <
-2 2 19 2 1.77 1.25 1.25 <
2 -2 -19 -2 1.77 2.50 1.25 <
-4 3 19 2 0.66 0.94 1.56 <
4 -3 -19 -2 0.66 -3.74 1.56 <
-3 3 19 0 1.17 2.50 1.56 <
3 -3 -19 0 1.17 2.81 1.56 <
-2 3 19 -2 0.21 0.62 1.56 <
2 -3 -19 2 0.21 -2.81 1.56 <
-3 3 19 1 0.00 0.62 1.56 <
3 -3 -19 -1 0.00 -1.56 1.56 <
-2 3 19 -1 0.99 -1.56 1.56 <
2 -3 -19 1 0.99 1.87 1.56 <
-3 3 19 2 1.19 0.31 1.56 <
3 -3 -19 -2 1.19 2.81 1.56 <
-2 3 19 0 2.63 0.94 1.56 <
2 -3 -19 0 2.63 -2.18 1.25 <
-1 3 19 -2 0.09 1.87 1.25 <
1 -3 -19 2 0.09 1.56 1.25 <
-2 3 19 1 0.93 -0.62 1.25 <
2 -3 -19 -1 0.93 2.50 1.25 <
-3 4 19 -1 0.69 1.56 1.56 <
3 -4 -19 1 0.69 6.55 1.56 o
-4 4 19 2 0.45 0.62 1.56 <
4 -4 -19 -2 0.45 0.31 1.56 <
-3 4 19 0 1.41 -1.25 1.56 <
3 -4 -19 0 1.41 0.00 1.56 <
-2 4 19 -2 0.21 1.87 1.56 <
2 -4 -19 2 0.21 1.56 1.56 <
-3 4 19 1 0.09 5.93 1.56 o
3 -4 -19 -1 0.09 0.62 1.56 <
-2 4 19 -1 1.02 0.31 1.56 <
2 -4 -19 1 1.02 3.74 1.56 <
-3 4 19 2 0.81 1.25 1.56 <
3 -4 -19 -2 0.81 0.31 1.56 <
-2 4 19 0 1.60 1.87 1.56 <
2 -4 -19 0 1.60 2.81 1.56 <
-1 4 19 -2 0.04 1.87 2.18 <
1 -4 -19 2 0.04 0.00 2.18 <
-3 5 19 -1 0.78 4.37 1.56 <
3 -5 -19 1 0.78 -1.87 1.56 <
-4 5 19 2 0.29 1.87 1.56 <
4 -5 -19 -2 0.29 2.81 1.56 <
-3 5 19 0 2.10 4.99 1.56 o
3 -5 -19 0 2.10 0.94 1.56 <
-2 5 19 -2 0.16 0.31 1.56 <
2 -5 -19 2 0.16 1.87 1.56 <
-3 5 19 1 0.24 -0.94 1.56 <
3 -5 -19 -1 0.24 2.81 1.56 <
-2 5 19 -1 0.93 0.31 1.56 <
2 -5 -19 1 0.93 3.12 1.56 <
loop_
_restr_distance_atom_site_label_1
_restr_distance_site_symmetry_1
_restr_distance_atom_site_label_2
_restr_distance_site_symmetry_2
_restr_distance_target
_restr_distance_target_weight_param
Mo1_1 . O1a_1 1_6655 1.95 0.002
Mo1_1 . O1b_1 . 1.95 0.002
Mo2_1 . O2a_1 1_6555 1.95 0.002
Mo2_1 . O2b_1 . 1.95 0.002
Mo1_2 . O1a_2 1_4455 1.95 0.002
Mo1_2 . O1b_2 . 1.95 0.002
Mo2_2 . O2a_2 1_4555 1.95 0.002
Mo2_2 . O2b_2 . 1.95 0.002
U1_1 . O1a_1 1_6655 1.85 0.002
U1_1 . O1b_1 . 1.85 0.002
U2_1 . O2a_1 1_6555 1.85 0.002
U2_1 . O2b_1 . 1.85 0.002
U1_2 . O1a_2 1_4455 1.85 0.002
U1_2 . O1b_2 . 1.85 0.002
U2_2 . O2a_2 1_4555 1.85 0.002
U2_2 . O2b_2 . 1.85 0.002
Mo1_1 . O5b_1 . 2 0.01
Mo1_1 . O3_1 1_5655 2 0.01
Mo1_1 . O3_1 1_6655 2 0.01
Mo1_2 . O5b_2 . 2 0.01
Mo1_2 . O3_2 1_5455 2 0.01
Mo1_2 . O3_2 1_4455 2 0.01
Mo1_2 . O3_1 1_4445 2 0.01
Mo2_1 . O4_1 1_6555 2 0.004
Mo2_1 . O5a_1 . 2 0.004
Mo2_1 . O4_2 1_6755 2 0.004
Mo2_1 . O4_1 . 2 0.002
Mo2_2 . O5a_2 . 2 0.01
Mo2_2 . O4_2 . 2 0.01
Mo2_2 . O4_2 1_4555 2 0.01
Mo2_2 . O4_1 1_4355 2 0.01
Mo2_2 . O5a_2 . 2 0.0032
Mo2_2 . O4_1 1_4355 2 0.005
Mo1_1 . O3_2 1_6665 2 0.01
Mo2_1 . O4_2 1_6755 2 0.01
Mo2_1 . O5a_1 . 2 0.01
U1_1 . O5c_1 1_4555 2.5 0.01
U1_2 . O5c_2 1_6555 2.5 0.01
U2_1 . O5d_1 1_6555 2.5 0.01
U1_1 . O5c_1 . 2.5 0.01
U1_1 . O3_1 1_6655 2.5 0.01
U1_2 . O5a_2 1_6555 2.5 0.01
U1_2 . O3_2 1_5455 2.5 0.01
U2_1 . O4_1 1_6555 2.5 0.01
U2_2 . O4_2 . 2.5 0.01
O1a_1 . O5c_1 1_4455 2.8 0.01
O1a_1 . O5a_1 1_3455 2.8 0.01
O1a_1 . O3_2 1_5565 2.8 0.01
O1a_1 . O5d_1 1_4455 2.8 0.01
O1a_2 . O5b_2 1_6655 2.8 0.003
O2b_2 . O5a_2 . 2.8 0.003
O2b_1 . O5a_1 . 2.8 0.003
O1a_2 . O3_2 1_6555 2.8 0.003
O2b_1 . O4_1 1_6555 2.8 0.003
O1b_1 . O5b_1 . 2.8 0.003
O2a_1 . O4_2 1_5755 2.8 0.003
O1a_1 . O5c_1 1_3455 2.85 0.005
O1a_1 . O3_1 1_4555 2.8 0.002
O1a_1 . O3_1 . 2.8 0.002
O1a_1 . O5b_1 1_4455 2.8 0.002
O2a_1 . O5a_1 1_4555 2.8 0.002
O1a_2 . O5a_2 1_7655 2.8 0.01
O1a_2 . O5c_2 1_6655 2.8 0.01
O1a_2 . O5c_2 1_7655 2.8 0.01
O1a_2 . O5d_2 1_6655 2.8 0.01
O1a_2 . O3_2 . 2.8 0.01
O1b_1 . O5a_1 1_4555 2.8 0.01
O1b_1 . O5c_1 1_4555 2.8 0.01
O1b_1 . O5c_1 . 2.8 0.01
O1b_1 . O5d_1 . 2.8 0.01
O1b_1 . O3_1 1_5655 2.8 0.01
O1b_1 . O3_1 1_6655 2.8 0.01
O1b_1 . O3_2 1_6665 2.8 0.01
O1b_2 . O5a_2 1_6555 2.8 0.01
O1b_2 . O5b_2 . 2.8 0.01
O1b_2 . O5c_2 . 2.8 0.01
O1b_2 . O5c_2 1_6555 2.8 0.01
O1b_2 . O5d_2 . 2.8 0.01
O1b_2 . O3_1 1_4445 2.8 0.01
O1b_2 . O3_2 1_4455 2.8 0.01
O1b_2 . O3_2 1_5455 2.8 0.01
O2a_1 . O5b_1 . 2.8 0.01
O2a_1 . O5c_1 1_4555 2.8 0.01
O2a_1 . O5d_1 1_4555 2.8 0.01
O2a_1 . O5d_1 . 2.8 0.01
O2a_1 . O4_1 1_4555 2.8 0.01
O2a_1 . O4_1 . 2.8 0.01
O2a_2 . O5a_2 1_6555 2.8 0.01
O2a_2 . O5b_2 . 2.8 0.01
O2a_2 . O5c_2 1_6555 2.8 0.01
O2a_2 . O5d_2 . 2.8 0.01
O2a_2 . O5d_2 1_6555 2.8 0.01
O2a_2 . O4_1 1_5355 2.8 0.01
O2a_2 . O4_2 . 2.8 0.01
O2a_2 . O4_2 1_6555 2.8 0.01
O2b_1 . O5b_1 1_6555 2.8 0.01
O2b_1 . O5d_1 . 2.8 0.01
O2b_1 . O5d_1 1_6555 2.8 0.01
O2b_1 . O4_2 1_6755 2.8 0.01
O2b_2 . O5b_2 1_4555 2.8 0.01
O2b_2 . O5c_2 . 2.8 0.01
O2b_2 . O5d_2 1_4555 2.8 0.01
O2b_2 . O5d_2 . 2.8 0.01
O2b_2 . O4_1 1_4355 2.8 0.01
O2b_2 . O4_2 1_4555 2.8 0.01
O2b_2 . O4_2 . 2.8 0.01
O5a_1 . O5c_1 1_6555 2.8 0.01
O5a_1 . O3_1 1_6655 2.8 0.01
O5a_1 . O4_1 . 2.8 0.01
O5a_1 . O4_1 1_6555 2.8 0.01
O5a_1 . O5b_1 . 2.8 0.005
O5b_1 . O5d_1 1_4555 2.8 0.005
O5b_2 . O5d_2 1_6555 2.8 0.005
O2b_1 . O5c_1 . 2.8 0.005
O5d_2 . O3_2 1_4455 2.8 0.006
O5a_2 . O5b_2 . 2.8 0.01
O5a_2 . O5c_2 1_4555 2.8 0.01
O5a_2 . O3_2 1_4455 2.8 0.01
O5a_2 . O4_2 . 2.8 0.01
O5a_2 . O4_2 1_4555 2.8 0.01
O5b_1 . O3_1 1_5655 2.8 0.01
O5b_1 . O3_1 1_6655 2.8 0.01
O5b_2 . O3_2 1_5455 2.8 0.01
O5b_2 . O3_2 1_4455 2.8 0.01
O5c_1 . O5d_1 1_6555 2.8 0.01
O5c_1 . O4_1 . 2.8 0.01
O5c_2 . O5d_2 1_4555 2.8 0.01
O5c_1 . O3_1 1_6655 2.8 0.002
O5d_1 . O4_1 . 2.8 0.002
O5d_2 . O4_2 . 2.8 0.002
O5d_1 . O3_1 1_6655 2.8 0.01
O3_1 . O3_2 1_5565 2.8 0.003
O4_1 . O4_2 1_5755 2.8 0.003
O5b_1 . O4_1 . 2.8 0.003
O5b_2 . O4_2 . 2.8 0.003
O5b_1 . O5c_1 1_4555 2.8 0.003
O5b_2 . O5c_2 1_6555 2.8 0.003
O2b_1 . O4_1 . 2.8 0.003
O5c_2 . O3_2 1_4455 2.8 0.003
O5c_2 . O4_2 . 2.8 0.003
O3_1 . O3_2 1_6565 2.8 0.003
O4_1 . O4_2 1_6755 2.8 0.003
Ca1_1 . O1a_1 . 2.5 0.01
Ca1_1 . O1b_1 1_6555 2.5 0.01
Ca1_1 . O2a_1 1_4455 2.5 0.01
Ca1_1 . O2a_1 1_5455 2.5 0.01
Ca1_1 . Ow1_1 1_6555 2.5 0.01
Ca1_1 . Ow2_1 . 2.5 0.01
Ca1_1 . Ow2_1 1_6555 2.5 0.01
Ca1_2 . O1a_2 . 2.5 0.01
Ca1_2 . O1b_2 1_4555 2.5 0.01
Ca1_2 . O2a_2 1_5655 2.5 0.01
Ca1_2 . O2a_2 1_6655 2.5 0.01
Ca1_2 . Ow1_2 1_4555 2.5 0.01
Ca1_2 . Ow2_2 1_4555 2.5 0.01
Ca1_2 . Ow2_2 . 2.5 0.01
Ow1_1 . O2b_1 1_4555 2.85 0.01
Ow1_1 . O2b_1 . 2.85 0.01
Ow1_1 . O2b_2 1_4655 2.85 0.01
Ow1_2 . O1b_2 . 2.85 0.01
Ow1_2 . O2a_2 1_6655 2.85 0.01
Ow1_2 . O2a_2 1_7655 2.85 0.01
Ow1_2 . O2b_1 1_6455 2.85 0.01
Ow1_2 . O2b_2 1_6555 2.85 0.01
Ow2_1 . O1a_1 . 2.85 0.01
Ow2_1 . O1a_2 1_6665 2.85 0.01
Ow2_1 . O1b_1 1_6555 2.85 0.01
Ow2_1 . Ow2_2 1_6665 2.85 0.01
Ow2_2 . O1a_2 . 2.85 0.01
Ow2_2 . O1b_2 1_4555 2.85 0.01
Ow2_2 . O2a_2 1_6655 2.85 0.01
Ow2_2 . Ow2_1 1_4445 2.85 0.01
