#------------------------------------------------------------------------------
#$Date: 2018-11-13 05:31:07 +0200 (Tue, 13 Nov 2018) $
#$Revision: 211918 $
#$URL: file:///home/coder/svn-repositories/cod/cif/2/02/13/2021333.cif $
#------------------------------------------------------------------------------
#
# This file is available in the Crystallography Open Database (COD),
# http://www.crystallography.net/. The original data for this entry
# were provided by IUCr Journals, http://journals.iucr.org/.
#
# The file may be used within the scientific community so long as
# proper attribution is given to the journal article from which the
# data were obtained.
#
data_2021333
loop_
_publ_author_name
'Spiridonova, Tatyana S.'
'Solodovnikov, Sergey F.'
'Savina, Aleksandra A.'
'Kadyrova, Yulia M.'
'Solodovnikova, Zoya A.'
'Yudin, Vasiliy N.'
'Stefanovich, Sergey Yu.'
'Khaikina, Elena G.'
_publ_section_title
;
 New triple molybdate Rb~2~AgIn(MoO~4~)~3~: synthesis, framework crystal
 structure and ion-transport behaviour
;
_journal_coeditor_code           LY3077
_journal_issue                   12
_journal_name_full               'Acta Crystallographica Section C'
_journal_page_first
;
;
_journal_paper_doi               10.1107/S2053229618014717
_journal_volume                  74
_journal_year                    2018
_chemical_compound_source        'synthesised by authors, see text'
_chemical_formula_iupac          'Ag1.01 In Mo3 O12 Rb2'
_chemical_formula_moiety         'Ag1.01 In Mo3 O12 Rb2'
_chemical_formula_sum            'Ag1.01 In Mo3 O12 Rb2'
_chemical_formula_weight         874.15
_chemical_melting_point          831
_space_group_IT_number           167
_symmetry_cell_setting           trigonal
_symmetry_space_group_name_Hall  '-R 3 2"c'
_symmetry_space_group_name_H-M   'R -3 c :H'
_atom_sites_solution_primary     direct
_atom_sites_solution_secondary   difmap
_cell_angle_alpha                90
_cell_angle_beta                 90
_cell_angle_gamma                120
_cell_formula_units_Z            12
_cell_length_a                   10.3982(15)
_cell_length_b                   10.3982(15)
_cell_length_c                   38.858(8)
_cell_measurement_reflns_used    12966
_cell_measurement_temperature    293(2)
_cell_measurement_theta_max      30.60
_cell_measurement_theta_min      3.92
_cell_volume                     3638.5(11)
_computing_cell_refinement
;
SAINT (Bruker, 2004)
;
_computing_data_collection
;
APEX2 (Bruker, 2004)
;
_computing_data_reduction
;
SAINT (Bruker, 2004)
;
_computing_molecular_graphics
;
DIAMOND (Brandenburg, 2008)
;
_computing_structure_refinement
;
SHELXL2017 (Sheldrick, 2015)
;
_computing_structure_solution
;
SHELXS97 (Sheldrick, 2008)
;
_diffrn_ambient_temperature      293(2)
_diffrn_measured_fraction_theta_full 0.941
_diffrn_measured_fraction_theta_max 0.964
_diffrn_measurement_device_type  'Bruker--Nonius X8 APEX CCD'
_diffrn_measurement_method       '\ f scans, frame data integration'
_diffrn_radiation_type           MoK\a
_diffrn_radiation_wavelength     0.71073
_diffrn_reflns_av_R_equivalents  0.0612
_diffrn_reflns_av_unetI/netI     0.0299
_diffrn_reflns_limit_h_max       14
_diffrn_reflns_limit_h_min       -14
_diffrn_reflns_limit_k_max       14
_diffrn_reflns_limit_k_min       -14
_diffrn_reflns_limit_l_max       55
_diffrn_reflns_limit_l_min       -51
_diffrn_reflns_number            12966
_diffrn_reflns_theta_full        25.242
_diffrn_reflns_theta_max         30.605
_diffrn_reflns_theta_min         3.919
_exptl_absorpt_coefficient_mu    14.514
_exptl_absorpt_correction_T_max  0.5944
_exptl_absorpt_correction_T_min  0.4298
_exptl_absorpt_correction_type   multi-scan
_exptl_absorpt_process_details
;
(SADABS; Bruker, 2004)
;
_exptl_crystal_colour            colourless
_exptl_crystal_density_diffrn    4.787
_exptl_crystal_density_method    'not measured'
_exptl_crystal_description       fragment
_exptl_crystal_F_000             4708
_exptl_crystal_size_max          0.070
_exptl_crystal_size_mid          0.050
_exptl_crystal_size_min          0.040
_refine_diff_density_max         1.103
_refine_diff_density_min         -1.454
_refine_ls_extinction_coef       0.000094(16)
_refine_ls_extinction_expression Fc^*^=kFc[1+0.001xFc^2^\l^3^/sin(2\q)]^-1/4^
_refine_ls_extinction_method
;
SHELXL2017 (Sheldrick, 2015)
;
_refine_ls_goodness_of_fit_ref   1.009
_refine_ls_matrix_type           full
_refine_ls_number_parameters     63
_refine_ls_number_reflns         1212
_refine_ls_number_restraints     1
_refine_ls_restrained_S_all      1.009
_refine_ls_R_factor_all          0.0326
_refine_ls_R_factor_gt           0.0225
_refine_ls_shift/su_max          0.002
_refine_ls_shift/su_mean         0.000
_refine_ls_structure_factor_coef Fsqd
_refine_ls_weighting_details
'w=1/[\s^2^(Fo^2^)+(0.0287P)^2^] where P=(Fo^2^+2Fc^2^)/3'
_refine_ls_weighting_scheme      calc
_refine_ls_wR_factor_gt          0.0548
_refine_ls_wR_factor_ref         0.0572
_reflns_number_gt                976
_reflns_number_total             1212
_reflns_threshold_expression     'I > 2\s(I)'
_cod_data_source_file            ly3077sup1.cif
_cod_data_source_block           I
_cod_original_cell_volume        3638.6(13)
_cod_database_code               2021333
_shelx_estimated_absorpt_t_min   0.430
_shelx_estimated_absorpt_t_max   0.594
_shelx_hkl_file
;
   2  -1   0   -0.01    0.14
   1   0   1    0.07    0.09
  -2   1   0    0.34    0.18
  -2   1   0   -0.01    0.11
   3  -1   1   13.40    0.96
  -3   2   1   12.34    0.69
  -3   2   1   11.86    0.85
   3  -1   1   12.53    0.69
  -3   2   1   12.12    0.83
   3  -1   1   11.81    0.85
  -3   1  -1   12.72    0.76
  -3   1  -1   12.25    0.88
   3  -2  -1   11.09    0.79
  -3   1  -1   12.65    0.72
   3  -2  -1   12.71    0.91
  -3   1  -1   13.43    0.91
  -2   2   2    4.93    0.34
  -2   0  -2    3.92    0.38
  -2   0  -2    4.11    0.44
  -2   2   2    4.52    0.42
  -2   0  -2    3.37    0.47
  -2   0  -2    5.14    0.40
   2  -2  -2    4.40    0.41
   2  -2  -2    4.40    0.41
   2   0   2    5.44    0.36
   2  -2  -2    4.03    0.29
   2   0   2    4.86    0.49
   4  -1   2    7.43    0.74
   4  -1   2    8.48    0.92
  -4   1  -2    9.10    0.85
  -4   1  -2    8.26    0.67
  -4   1  -2    8.74    0.71
   5  -2   1   11.57    0.91
  -4   3   2    8.50    0.62
  -4   3   2    8.08    0.75
   4  -3  -2    7.59    0.71
   4  -3  -2    8.74    0.82
   5  -1   3   13.72    1.21
   5  -1   3   11.43    1.05
  -5   1  -3   13.17    0.96
  -5   1  -3   12.86    0.91
  -5   1  -3   13.84    1.18
  -5   4   3   12.83    0.99
  -5   4   3   13.16    0.84
   5  -4  -3   12.93    1.09
   5  -4  -3   11.08    0.94
  -4   4   4    7.35    0.60
  -4   0  -4    7.29    0.68
  -4   0  -4    7.60    0.89
  -4   4   4    8.25    0.74
  -4   0  -4    7.41    0.71
   4   0   4    6.50    0.64
   4  -4  -4    6.43    0.66
   4  -4  -4    7.77    0.83
   4   0   4    6.90    0.81
   4   0   4    7.90    0.91
   4  -4  -4    5.70    0.64
  -9   5   1    8.66    1.24
  -9   5   1    6.58    0.88
   9  -5  -1   10.23    1.37
   1  -3  -5    7.56    0.72
   1  -3  -5    8.95    0.59
   1  -3  -5    7.80    0.67
  -1   3   5   10.08    0.64
  -1  -2  -5    8.46    0.73
  -1  -2  -5    9.04    0.64
  -1  -2  -5    9.32    0.80
   1   2   5    9.58    0.79
   1   2   5    8.31    0.65
   1   2   5    9.07    0.79
   9  -4   1    9.03    1.33
  -9   4  -1    8.26    1.21
  -9   4  -1   10.31    1.17
  -9   4  -1    8.08    1.07
 -11   6   1    6.07    1.13
   4  -5  -6    0.17    0.39
 -11   6   1    3.81    0.82
   7  -1   5    0.17    0.58
  -7   1  -5    0.43    0.49
  11  -6  -1    4.50    1.13
  -4   5   6    0.36    0.33
  -7   1  -5    0.07    0.56
  -7   1  -5    0.32    0.48
  -7   6   5    0.38    0.39
  11  -5   1    3.98    1.11
  -4  -1  -6    0.13    0.46
  -4  -1  -6    0.20    0.33
  -4  -1  -6    0.18    0.35
  -7   6   5    0.51    0.46
   7  -6  -5    0.13    0.51
   4   1   6   -0.16    0.39
   4   1   6    0.26    0.34
   7  -6  -5    0.05    0.38
  -6   6   6   48.46    2.28
  -6   0  -6   50.66    2.42
  -6   6   6   48.24    2.64
  -6   0  -6   52.03    2.91
  -6   0  -6   51.23    2.45
   6   0   6   49.17    2.37
   6  -6  -6   41.20    2.61
   6  -6  -6   48.13    2.78
   6   0   6   54.85    2.98
 -12   7   2   -0.09    0.52
   3  -5  -7    2.21    0.47
   9  -2   5    1.25    0.80
   3  -5  -7    2.52    0.55
  -9   2  -5    1.04    0.54
  -9   2  -5    0.97    0.63
  -9   2  -5    0.86    0.76
  12  -7  -2    0.61    0.83
  -3   5   7    2.00    0.37
   1  -4  -7    1.40    0.30
  10  -3   4    2.60    0.98
   1  -4  -7    1.78    0.43
   1  -4  -7    1.44    0.47
 -10   3  -4    1.97    0.84
 -10   3  -4    1.97    0.74
  -1   4   7    2.30    0.49
  -1   4   7    1.36    0.32
  -1  -3  -7    1.13    0.33
 -10   7   4    2.68    0.72
  -1  -3  -7    1.76    0.49
  -1  -3  -7    1.21    0.33
  -1  -3  -7    1.55    0.53
   1   3   7    1.96    0.41
  10  -7  -4    2.46    0.87
   1   3   7    1.50    0.44
  -3  -2  -7    2.63    0.47
  -9   7   5    1.09    0.54
  -3  -2  -7    3.44    0.55
  12  -5   2    1.11    0.90
  -9   7   5    1.19    0.57
  -3  -2  -7    2.47    0.61
   3   2   7   -0.01    0.28
   9  -7  -5    1.53    0.73
 -12   5  -2    0.48    0.58
   3   2   7    2.41    0.58
  -7   7   7    0.35    0.42
  -7   0  -7    0.16    0.46
  -7   0  -7   -0.14    0.43
  -7   0  -7   -0.34    0.58
   7  -7  -7    0.06    0.41
   7   0   7    0.20    0.66
   7  -7  -7    0.03    0.48
   6  -7  -8    1.33    0.54
   6  -7  -8    1.73    0.66
   9  -1   7    5.33    1.16
  -6   7   8    1.25    0.46
  -9   1  -7    5.50    0.99
  -6   7   8    1.21    0.52
 -13   8   3   16.60    1.77
  13  -8  -3   19.25    2.30
  12  -4   4    4.20    1.24
 -12   8   4    3.51    0.88
   0   4   8    0.69    0.31
  12  -8  -4    4.65    1.20
  -6  -1  -8    0.75    0.50
  -6  -1  -8    2.00    0.78
  -9   8   7    4.72    0.80
  -6  -1  -8    1.38    0.51
   9  -8  -7    4.64    1.03
   6   1   8    1.29    0.72
   6   1   8    1.59    0.52
  -8   0  -8   10.22    1.47
  -8   0  -8   10.38    1.21
  -8   0  -8    8.70    1.15
  -8   8   8    9.99    1.09
  -8   8   8   10.03    1.16
   8   0   8   10.78    1.49
   8  -8  -8    9.36    1.31
   7  -8  -9  111.48    5.50
  -7   8   9  107.06    5.23
  -7   8   9  104.30    4.56
   5  -7  -9  159.98    7.35
   5  -7  -9  138.95    7.21
  -5   7   9  164.42    6.26
  -5   7   9  163.88    7.19
  -5  -2  -9  161.93    6.87
  -5  -2  -9  165.91    8.01
  -5  -2  -9  171.16    6.85
   5   2   9  179.79    6.88
   5   2   9  174.14    8.04
  -7  -1  -9  117.30    5.81
  -7  -1  -9  106.04    4.81
  -7  -1  -9  103.17    4.85
   7   1   9  119.97    5.86
  -9   0  -9    0.36    0.76
  -9   9   9   -0.28    0.47
   9   0   9    0.53    0.77
   9  -9  -9    0.02    0.61
   8  -9 -10   15.50    1.65
  -8   9  10   16.02    1.36
   6  -8 -10   29.25    2.09
  -6   8  10   26.96    1.85
  -6   8  10   26.45    1.64
  13  -3   7   -0.08    1.00
   4  -7 -10    0.61    0.51
   4  -7 -10    0.57    0.47
  -4   7  10    1.61    0.56
  -4   7  10    1.20    0.44
  -4   7  10    1.63    0.57
   2  -6 -10   16.32    1.40
  -2   6  10   18.50    1.18
  -2   6  10   18.09    1.37
   0  -5 -10   24.68    1.00
   0  -5 -10   27.49    1.82
   0  -5 -10   24.48    1.40
   0   5  10   28.14    1.51
   0   5  10   25.99    1.73
  -2  -4 -10   19.45    1.61
  -2  -4 -10   18.88    1.25
   2   4  10   17.36    1.23
   2   4  10   18.59    1.50
  -4  -3 -10    0.05    0.34
 -13  10   7   -0.47    0.64
  -4  -3 -10    0.69    0.58
  13 -10  -7    0.00    0.87
   4   3  10    1.18    0.64
   4   3  10    0.02    0.23
  -6  -2 -10   26.28    1.83
  -6  -2 -10   28.70    2.22
  -6  -2 -10   28.16    1.79
   6   2  10   30.38    2.22
  -8  -1 -10   18.76    1.92
   8   1  10   17.58    1.97
 -10  10  10    0.99    0.64
 -10   0 -10    0.40    0.73
  10   0  10    0.95    0.99
  10 -10 -10    0.88    0.78
  12  -1  10    8.05    1.71
   9 -10 -11    3.57    1.05
  -9  10  11    4.55    0.98
   5  -8 -11    6.14    1.01
  -5   8  11    5.25    0.75
  -5   8  11    6.39    0.96
   3  -7 -11    1.51    0.66
  -3   7  11    1.37    0.57
  -3   7  11    0.74    0.43
   1  -6 -11   14.90    1.37
  -1   6  11   16.65    1.19
  -1   6  11   18.08    1.39
  -1  -5 -11   16.63    1.53
  -1  -5 -11   16.67    1.19
   1   5  11   16.19    1.42
   1   5  11   17.46    1.22
  -3  -4 -11    1.08    0.54
  -3  -4 -11    0.95    0.66
   3   4  11    1.34    0.52
   3   4  11    1.44    0.66
  -5  -3 -11    6.83    1.00
  -5  -3 -11    6.84    1.23
   5   3  11    7.71    1.01
   5   3  11    8.22    1.26
 -12  11  10    5.75    1.14
  -9  -1 -11    3.48    1.10
  12 -11 -10    6.37    1.49
   9   1  11    3.10    1.12
 -11  11  11    0.14    0.65
  11 -11 -11   -0.23    0.72
  11   0  11   -0.90    0.84
  10 -11 -12   69.59    4.36
 -10  11  12   68.90    3.64
   8 -10 -12   98.18    5.24
  -8  10  12   91.06    4.32
   6  -9 -12   17.06    1.65
  -6   9  12   14.63    1.32
  -6   9  12   15.63    1.41
   4  -8 -12  215.19    9.92
  -4   8  12  213.51    9.76
  -4   8  12  213.66    9.75
  -4   8  12  217.65    8.51
   2  -7 -12  145.01    6.79
  -2   7  12  132.71    5.74
  -2   7  12  144.79    6.68
   0  -6 -12   16.67    1.56
   0   6  12   18.26    1.30
   0   6  12   15.62    1.45
  -2  -5 -12  139.25    6.76
  -2  -5 -12  134.70    5.68
   2   5  12  142.62    6.66
   2   5  12  136.62    5.71
  -4  -4 -12  211.44    8.74
  -4  -4 -12  235.24   10.40
   4   4  12  203.20    8.70
   4   4  12  232.74   10.28
  -6  -3 -12   15.34    1.78
   6   3  12   16.82    1.81
  -8  -2 -12   98.43    5.62
   8   2  12  105.36    5.72
 -10  -1 -12   77.16    4.78
  10   1  12   75.59    4.83
 -12  12  12    0.89    0.79
  12   0  12    1.86    1.26
  12 -12 -12    1.04    1.03
  11 -12 -13    0.47    0.95
 -11  12  13   -0.20    0.70
   9 -11 -13    2.20    0.98
  -9  11  13    2.56    0.79
   7 -10 -13    0.37    0.72
  -7  10  13   -0.19    0.47
   5  -9 -13    4.42    1.00
  -5   9  13    3.23    0.69
  -5   9  13    4.31    0.86
   3  -8 -13    1.81    0.77
  -3   8  13    1.73    0.67
  -3   8  13    1.11    0.50
   1  -7 -13    0.20    0.60
  -1   7  13    0.83    0.56
  -1   7  13    0.36    0.44
  -1  -6 -13    0.43    0.63
   1   6  13    0.56    0.47
   1   6  13    0.35    0.53
  -3  -5 -13    1.62    0.82
   3   5  13    1.39    0.55
   3   5  13    1.21    0.68
  -5  -4 -13    5.82    1.27
   5   4  13    3.56    1.02
  -7  -3 -13   -0.23    0.69
   7   3  13   -0.06    0.76
  -9  -2 -13    2.13    1.05
   9   2  13    3.20    1.26
  11   1  13    0.59    1.17
  10 -12 -14   -0.10    0.84
 -10  12  14    0.55    0.72
   8 -11 -14    1.95    0.95
  -8  11  14    1.71    0.73
   6 -10 -14    5.70    1.17
  -6  10  14    4.80    0.94
   4  -9 -14    0.46    0.63
  -4   9  14    0.56    0.59
  -4   9  14    0.16    0.44
   2  -8 -14    0.63    0.68
  -2   8  14    0.32    0.56
  -2   8  14    0.57    0.49
   0  -7 -14   11.69    1.48
   0   7  14   10.97    1.16
   0   7  14   13.17    1.44
  -2  -6 -14    0.50    0.71
   2   6  14    0.21    0.49
   2   6  14    0.47    0.63
  -4  -5 -14    0.04    0.78
   4   5  14    0.54    0.68
  -6  -4 -14    6.99    1.50
   6   4  14    6.08    1.31
  -8  -3 -14    2.35    1.07
   8   3  14    2.23    1.11
 -10  -2 -14    0.51    1.00
  10   2  14    0.28    1.00
  11 -13 -15    8.95    1.85
   9 -12 -15    1.82    1.08
  -9  12  15    1.91    0.81
   7 -11 -15    9.11    1.62
  -7  11  15    9.22    1.29
   5 -10 -15   24.59    2.13
  -5  10  15   21.96    1.69
   3  -9 -15    2.60    0.94
  -3   9  15    2.14    0.75
  -3   9  15    1.29    0.55
   1  -8 -15    8.63    1.39
  -1   8  15    8.56    1.27
  -1   8  15    8.53    1.07
  -1  -7 -15    9.73    1.50
   1   7  15   10.48    1.37
   1   7  15    7.84    1.05
  -3  -6 -15    1.99    0.93
   3   6  15    1.95    0.82
  -5  -5 -15   25.12    2.44
   5   5  15   27.07    2.37
  -7  -4 -15   10.82    1.85
   7   4  15    9.32    1.68
  -9  -3 -15    1.27    1.09
   9   3  15    1.41    1.13
  11   2  15    9.07    1.91
  10 -13 -16    0.29    0.96
   8 -12 -16    2.12    1.10
  -8  12  16    1.40    0.75
   6 -11 -16    1.06    0.82
  -6  11  16    0.08    0.52
   4 -10 -16    0.37    0.69
  -4  10  16    0.28    0.55
   2  -9 -16    5.91    1.26
  -2   9  16    6.64    1.17
  -2   9  16    4.14    0.81
   0  -8 -16    0.97    0.80
   0   8  16    0.92    0.63
   0   8  16    0.16    0.62
  -2  -7 -16    7.12    1.38
   2   7  16    6.14    1.22
  -4  -6 -16    0.80    0.89
   4   6  16    0.73    0.83
  -6  -5 -16    1.28    1.07
   6   5  16    0.32    0.82
  -8  -4 -16    2.51    1.23
   8   4  16    2.74    1.27
  10   3  16    0.73    1.17
   9 -13 -17    0.14    0.93
   7 -12 -17    2.69    1.11
  -7  12  17    3.23    0.92
   5 -11 -17    2.67    1.05
  -5  11  17    2.69    0.83
   3 -10 -17    0.30    0.80
  -3  10  17    0.43    0.56
   1  -9 -17    9.26    1.52
  -1   9  17    9.93    1.46
  -1   9  17    8.79    1.18
  -1  -8 -17    9.11    1.57
   1   8  17    8.73    1.43
  -3  -7 -17   -0.39    0.74
   3   7  17   -0.29    0.68
  -5  -6 -17    2.90    1.12
   5   6  17    2.40    1.08
  -7  -5 -17    4.30    1.37
   7   5  17    2.88    1.21
  -9  -4 -17   -0.96    1.04
   9   4  17   -0.13    0.97
   8 -13 -18   28.29    2.76
   6 -12 -18   42.37    3.25
  -6  12  18   38.56    2.59
   4 -11 -18   20.48    2.17
  -4  11  18   17.37    1.66
   2 -10 -18   49.08    3.37
  -2  10  18   43.87    2.72
   0  -9 -18   31.33    2.70
   0   9  18   34.18    2.59
  -2  -8 -18   50.07    3.59
   2   8  18   49.62    3.39
  -4  -7 -18   23.40    2.40
   4   7  18   18.03    2.04
  -6  -6 -18   43.22    3.45
   6   6  18   45.27    3.43
  -8  -5 -18   26.70    2.91
   8   5  18   29.34    2.99
   7 -13 -19    0.19    0.96
   5 -12 -19    0.85    0.93
   3 -11 -19    0.24    0.90
   1 -10 -19    0.18    0.85
  -1  -9 -19   -0.68    0.78
   1   9  19   -0.19    0.68
  -3  -8 -19   -0.19    0.92
   3   8  19    1.30    0.95
  -5  -7 -19   -0.53    0.92
   5   7  19   -0.42    0.76
  -7  -6 -19    0.60    1.11
   7   6  19    0.28    1.13
   6 -13 -20    5.36    1.51
   4 -12 -20    6.96    1.60
   2 -11 -20    7.28    1.57
   0 -10 -20    0.53    0.93
  -2  -9 -20    7.15    1.61
   2   9  20    7.89    1.58
  -4  -8 -20    7.75    1.80
   4   8  20    5.43    1.41
  -6  -7 -20    5.50    1.69
   6   7  20    6.41    1.58
   5 -13 -21   17.44    2.50
   3 -12 -21    1.31    1.10
   1 -11 -21   13.13    2.19
  -1 -10 -21   13.19    2.10
  -3  -9 -21    2.40    1.25
  -5  -8 -21   14.40    2.39
   4 -13 -22    7.36    1.73
   2 -12 -22   11.25    2.09
   0 -11 -22    3.56    1.42
  -2 -10 -22   13.17    2.23
  -4  -9 -22    7.57    1.80
   1 -12 -23    0.27    1.11
  -1 -11 -23    0.62    1.15
   0   0  -3    0.00    0.01
   0   0  -3    0.00    0.01
   0   0  -3   -0.01    0.01
   0   0   3    0.00    0.02
   0   0   3    0.00    0.01
   0   0   3    0.00    0.01
   0   0   3    0.01    0.01
  -1  -1   0    9.90    0.62
   3  -1  -2    2.36    0.32
  -3   2  -2    3.08    0.45
   3  -1  -2    2.60    0.45
   3  -2   2    1.45    0.31
  -3   1   2    3.25    0.50
   1  -2   0   12.53    0.53
   6  -4  -5    2.81    0.71
   6  -4  -5    2.57    0.58
  -6   2  -5    2.86    0.65
  -6   2  -5    3.50    0.57
  -6   2  -5    2.98    0.55
  -6   4   5    2.56    0.51
  -6   4   5    4.33    0.77
   6  -2   5    2.67    0.59
   6  -2   5    3.36    0.73
   7  -5  -6    1.37    0.53
   7  -5  -6    2.17    0.73
   1   2   2    3.45    0.41
   1   2   2    2.78    0.36
   1   2   2    2.71    0.48
  -1  -2  -2    3.21    0.51
  -7   5   6    2.08    0.63
  -1  -2  -2    3.29    0.38
  -1  -2  -2    4.48    0.45
  -7   5   6    2.26    0.59
  -7   3  -4    4.48    0.70
  -7   3  -4    4.90    0.86
  -7   3  -4    4.49    0.68
   7  -3   4    4.41    0.85
   7  -3   4    4.20    0.78
  -5   3  -2    5.83    0.56
  -5   3  -2    5.50    0.68
   1  -2  -6    4.89    0.39
   1  -2  -6    4.06    0.44
   1  -2  -6    4.35    0.49
   5  -3   2    6.23    0.78
  -1   2   6    4.75    0.51
  -1   2   6    4.33    0.48
   5  -3   2    4.84    0.64
   5  -2  -2    5.19    0.64
  -1  -1  -6    4.28    0.45
  -1  -1  -6    5.09    0.44
   5  -2  -2    5.14    0.79
  -1  -1  -6    4.24    0.53
  -5   2   2    5.45    0.63
  -5   2   2    5.25    0.75
   1   1   6    4.24    0.49
   1   1   6    4.62    0.48
   7  -4  -4    4.94    0.93
  -7   4   4    4.07    0.76
  -7   4   4    3.69    0.63
  -7   2  -6    2.56    0.63
  -7   2  -6    2.28    0.72
  -1   3   2    2.80    0.40
  -1   3   2    3.05    0.35
  -7   2  -6    1.74    0.54
   1  -3  -2    3.02    0.24
   7  -2   6    2.76    0.80
   1  -3  -2    2.29    0.37
   1  -3  -2    3.01    0.40
   1  -3  -2    3.00    0.30
  10  -7  -7   -0.12    0.67
 -11   4  -6    0.46    0.63
   1   3   4    0.14    0.25
   1   3   4    0.19    0.29
   1   3   4    0.23    0.31
  -1  -3  -4    0.20    0.39
  11  -4   6    0.73    0.77
  -1  -3  -4    0.26    0.29
 -10   7   7    0.35    0.53
  -1  -3  -4    0.28    0.26
 -10   7   7   -0.09    0.54
   2   2   3    8.08    0.81
   8  -6  -7    8.94    1.27
   2   2   3    7.66    0.66
  -2  -2  -3    7.57    0.82
  -2  -2  -3    8.49    0.68
  -8   6   7    7.46    1.08
  -8   6   7    8.76    1.00
  -2  -2  -3    7.39    0.76
  -9   4  -4   10.01    1.11
  -9   4  -4   11.17    1.19
   3   1   2    8.19    0.89
   3   1   2    8.18    0.70
  -9   4  -4   10.64    1.31
   3   1   2    8.25    0.70
  -3  -1  -2    7.72    0.91
  -3  -1  -2    9.35    0.72
  -3  -1  -2    9.15    0.73
   9  -4   4   13.08    1.47
  -8   4  -3    2.36    0.56
   4  -4  -7   -0.02    0.27
   4   0   1    0.26    0.28
   4  -4  -7    0.12    0.39
   4   0   1    0.14    0.28
   4   0   1    0.03    0.41
  -4   0  -1    0.29    0.41
  -4   0  -1    0.06    0.27
   8  -4   3    1.97    0.62
  -4   4   7   -0.04    0.22
  -4   0  -1    0.55    0.33
  -4   4   7    0.04    0.30
   2  -3  -7   13.99    0.80
   2  -3  -7   13.39    0.94
   2  -3  -7   13.44    0.99
  -2   3   7   13.65    0.95
  -2   3   7   12.53    0.76
   6  -2  -1    9.27    1.11
  -6   4  -1    7.81    0.83
  -6   4  -1    8.34    0.72
   6  -4   1    7.90    0.97
   6  -4   1    6.93    0.79
  -6   2   1    7.96    0.86
  -6   2   1    7.56    0.94
  -6   2   1    8.30    0.81
  -2  -1  -7   14.40    0.87
  -2  -1  -7   14.71    0.84
  -2  -1  -7   12.91    0.98
   2   1   7   13.54    1.01
   2   1   7   11.64    0.93
   8  -4  -3    3.35    0.90
  -4   0  -7    0.50    0.42
  -4   4   1    0.00    0.23
  -4   0  -7   -0.08    0.27
  -4   0  -7    0.19    0.29
  -4   4   1   -0.02    0.19
   4   0   7   -0.20    0.30
   4   0   7   -0.07    0.37
   4  -4  -1    0.51    0.28
  -8   4   3    2.55    0.71
   4   0   7    0.04    0.25
   4  -4  -1    0.29    0.32
  -3   4   2    8.18    0.55
   9  -5  -4   10.74    1.43
  -3   4   2    7.90    0.64
   3  -4  -2    7.37    0.65
  -9   5   4   11.24    1.30
  -9   5   4   10.03    1.08
  -8   2  -7    7.39    0.95
  -2   4   3    7.70    0.65
  -8   2  -7    7.58    0.96
  -2   4   3    7.44    0.53
  -8   2  -7    8.54    1.25
   2  -4  -3    7.04    0.64
   8  -2   7    7.74    1.21
   2  -4  -3    8.28    0.46
   2  -4  -3    7.56    0.70
 -10   3  -7   -0.13    0.61
 -10   3  -7    0.06    0.54
  11  -7  -6    0.72    0.81
  -1   4   4    0.41    0.25
 -10   3  -7    0.24    0.52
  -1   4   4    0.75    0.33
   1  -4  -4    0.46    0.28
  10  -3   7    0.02    0.66
 -11   7   6    0.11    0.55
   1  -4  -4    0.43    0.33
   1  -4  -4    0.30    0.11
  12  -8  -7    1.29    0.97
 -12   4  -7    0.99    0.73
   0   4   5   -0.04    0.30
   0   4   5   -0.01    0.25
   0  -4  -5    0.17    0.26
 -12   8   7   -0.08    0.63
   0  -4  -5   -0.07    0.22
  12  -4   7   -0.42    0.82
   0  -4  -5   -0.17    0.36
  13  -9  -8    1.44    1.08
   1   4   6    0.08    0.31
   1   4   6    0.60    0.42
  -1  -4  -6    0.16    0.30
  14  -5   7    0.53    1.03
  -1  -4  -6    0.09    0.46
   2   3   5   19.93    1.17
   2   3   5   21.86    1.42
   2   3   5   18.65    1.15
  -2  -3  -5   20.34    1.16
  -2  -3  -5   18.39    1.41
 -11   5  -4    4.23    0.85
  11  -5   4    5.60    1.22
 -10   5  -3   31.56    2.05
 -10   5  -3   29.59    1.96
 -10   5  -3   28.42    2.22
  10  -5   3   34.45    2.46
  -9   5  -2    8.73    1.15
  -9   5  -2    8.84    1.05
   9  -5   2    9.63    1.33
   7  -2   0   13.75    1.44
  -7   2   0   16.05    1.41
  -7   2   0   14.48    1.21
  -7   2   0   14.29    1.16
  -7   5   0   14.20    1.16
  -7   5   0   12.99    1.02
   7  -5   0   14.15    1.30
   7  -5   0   12.04    1.11
   9  -4  -2    8.13    1.32
  -9   4   2   11.28    1.28
  -9   4   2    9.45    1.36
  -9   4   2    9.43    1.13
  10  -5  -3   32.25    2.52
 -10   5   3   29.07    2.28
 -10   5   3   27.13    1.87
 -10   5   3   33.00    2.14
  11  -6  -4    6.13    1.32
 -11   6   4    5.81    1.04
  -2   5   5   18.95    1.21
  -2   5   5   19.66    1.06
   2  -5  -5   16.62    1.17
   2  -5  -5   18.61    1.27
   2  -5  -5   18.57    0.80
  -1   5   6    0.21    0.29
  -1   5   6    0.17    0.33
  14  -9  -7    0.75    1.11
   1  -5  -6    0.09    0.11
   1  -5  -6    0.29    0.38
   1  -5  -6    0.03    0.29
  13  -4   8    2.04    1.14
   0   5   7    0.04    0.35
   0   5   7    0.22    0.31
   0  -5  -7    0.08    0.15
   0  -5  -7   -0.09    0.33
   0  -5  -7    0.07    0.41
   1   5   8   56.48    3.01
   1   5   8   56.40    2.60
  -1  -5  -8   52.34    3.07
   3   3   6   51.92    2.84
   3   3   6   49.79    2.38
   3   3   6   48.09    2.38
  -3  -3  -6   50.94    2.89
  -3  -3  -6   57.00    2.45
   5   1   4   44.28    2.13
   5   1   4   43.96    2.60
  -5  -1  -4   40.28    2.10
  -5  -1  -4   42.51    2.11
  -5  -1  -4   41.37    2.53
 -12   6  -3    2.85    0.79
   6  -6  -9    0.12    0.36
   6  -6  -9   -0.04    0.45
   6   0   3   -0.31    0.53
   6   0   3   -0.49    0.34
  -6   0  -3    0.14    0.54
  12  -6   3    3.82    1.17
  -6   0  -3    0.12    0.38
  -6   0  -3    0.07    0.37
  -6   6   9    0.08    0.36
  -6   6   9    0.01    0.42
  -6   6   3    0.00    0.33
  -6   6   3   -0.12    0.30
  -6   0  -9    0.21    0.44
  12  -6  -3    3.09    1.15
  -6   0  -9    0.29    0.55
  -6   0  -9    0.26    0.41
   6  -6  -3    0.91    0.47
   6  -6  -3    0.10    0.34
   6   0   9    0.06    0.58
 -12   6   3    3.17    0.85
   6  -6  -3    0.05    0.34
  -5   6   4   38.49    1.81
  -5   6   4   40.61    2.11
   5  -6  -4   34.90    2.11
   5  -6  -4   42.18    2.27
  -3   6   6   46.90    2.43
  -3   6   6   49.18    2.14
   3  -6  -6   43.68    2.46
   3  -6  -6   47.36    2.55
  -1   6   8   53.37    2.46
  -1   6   8   51.64    2.81
   1  -6  -8   49.41    1.91
   1  -6  -8   58.33    2.99
   0   6   9   -0.02    0.39
   0   6   9    0.06    0.44
   0  -6  -9   -0.02    0.13
   0  -6  -9    0.08    0.51
   1   6  10    8.19    1.16
   1   6  10    5.88    0.83
  -1  -6 -10    6.21    1.09
   2   5   9  188.66    8.40
   2   5   9  183.57    7.21
  -2  -5  -9  170.53    7.12
  -2  -5  -9  179.04    8.46
   3   4   8    3.97    0.87
   3   4   8    2.97    0.61
  -3  -4  -8    3.82    0.69
  -3  -4  -8    4.01    0.93
   4   3   7    0.38    0.42
  13 -10 -10    0.18    0.96
   4   3   7    0.03    0.57
   4   3   7    0.06    0.40
  -4  -3  -7   -0.07    0.53
  -4  -3  -7    0.08    0.16
  -5  -2  -6    2.40    0.82
   7   0   4    2.26    0.84
  -7   0  -4    3.48    0.92
  -7   0  -4    2.93    0.67
  -7   0  -4    2.25    0.61
  -7   7  10    0.61    0.52
  14  -7   3    7.51    1.60
   8  -1   3   24.90    2.11
   5  -6 -10   22.90    1.72
  -8   1  -3   24.15    2.03
  -8   1  -3   21.89    1.65
  -5   6  10   24.62    1.40
  -8   1  -3   21.13    1.62
  -5   6  10   26.58    1.66
   1  -4 -10    7.58    0.88
   1  -4 -10    6.48    0.70
  -1   4  10    6.74    0.80
  -1   4  10    7.70    0.69
  -1  -3 -10    7.58    0.93
  -1  -3 -10    8.66    0.74
   1   3  10    8.19    0.84
   1   3  10    7.34    0.72
   3   2  10   23.67    1.28
  -5  -1 -10   24.70    1.45
  -8   7   3   20.96    1.47
  -8   7   3   22.08    1.63
  -5  -1 -10   25.88    1.83
  -5  -1 -10   26.44    1.56
   8  -7  -3   21.83    1.81
   5   1  10   23.93    1.44
   5   1  10   26.56    1.80
  -7   7   4    3.31    0.65
  -7   7   4    2.00    0.53
  14  -7  -3    8.51    1.77
   7  -7  -4    3.05    0.73
   7   0  10    0.20    0.61
   7  -7  -4    2.14    0.58
  -5   7   6    1.56    0.43
  -5   7   6    1.89    0.52
   5  -7  -6    1.93    0.56
   5  -7  -6    2.53    0.67
  -4   7   7    0.11    0.34
  -4   7   7    0.19    0.34
  -4   7   7    0.14    0.35
   4  -7  -7    0.18    0.38
  13  -3  10    0.22    1.07
   4  -7  -7   -0.06    0.42
  -3   7   8    3.37    0.58
  -3   7   8    3.26    0.66
   3  -7  -8    4.06    0.79
   3  -7  -8    3.49    0.69
  -2   7   9  188.38    7.19
  -2   7   9  181.47    8.25
   2  -7  -9  172.75    8.32
  -1   7  10    6.08    0.94
  -1   7  10    6.64    0.88
   1  -7 -10    7.65    1.12
   0   7  11    0.09    0.55
   0   7  11   -0.10    0.43
   0  -7 -11    0.00    0.61
   1   7  12  135.58    5.70
   1   7  12  135.73    6.56
  -1  -7 -12  121.81    4.88
  -1  -7 -12  143.17    6.77
   2   6  11    4.14    0.91
   2   6  11    4.02    0.82
  -2  -6 -11    5.39    1.15
   3   5  10   33.75    2.29
   3   5  10   28.14    1.83
  -3  -5 -10   31.13    2.36
   4   4   9   92.32    4.20
   4   4   9   99.63    5.01
  -4  -4  -9   96.82    5.04
  -4  -4  -9   93.67    4.22
   6   2   7    7.65    1.25
   6   2   7    8.77    1.02
  -6  -2  -7    7.11    1.21
  -6  -2  -7    7.44    1.02
   7   1   6    1.03    0.79
  10  -9 -11    5.28    1.25
  -7  -1  -6    0.90    0.60
 -10   9  11    3.15    0.80
  -7  -1  -6    1.21    0.76
  -7  -1  -6    0.76    0.53
   8   0   5   -0.42    0.67
   8  -8 -11    0.20    0.59
  -8   8  11    0.16    0.51
  -8   0  -5   -0.19    0.61
  -8   0  -5   -0.01    0.49
  -8   0  -5   -0.10    0.49
  -8   8  11   -0.04    0.44
 -10   2  -3    9.62    1.24
   2  -5 -11    5.24    0.81
  11  -3   2    0.35    0.88
 -13   8   0    2.64    0.87
  13  -8   0    2.57    1.04
 -11   3  -2    0.69    0.69
 -11   3  -2    0.47    0.80
  12  -4   1    4.66    1.35
 -12   8   1    5.77    1.07
  12  -8  -1    3.67    1.08
  -2  -3 -11    5.82    0.90
  13  -5   0    2.90    1.22
  -2  -3 -11    4.56    0.60
   2   3  11    5.57    0.67
   2   3  11    5.09    0.81
  14  -6  -1    0.54    1.12
  -8   8   5   -0.30    0.40
  -8   0 -11    0.04    0.50
  -8   0 -11   -0.18    0.55
  -8   0 -11    0.20    0.53
  -8   8   5   -0.16    0.38
   8  -8  -5   -0.21    0.48
   8   0  11   -0.20    0.62
  -7   8   6    0.75    0.45
 -10   1 -11    4.10    1.12
  -7   8   6    0.47    0.45
   7  -8  -6    0.87    0.52
  10  -1  11    2.80    1.08
   7  -8  -6    0.96    0.61
  -6   8   7    7.42    0.89
  -6   8   7    6.99    0.83
   6  -8  -7    7.11    1.06
  12  -2  11    3.73    1.36
   6  -8  -7    5.31    0.87
  -5   8   8   22.09    1.49
  -5   8   8   21.85    1.39
   5  -8  -8   18.16    1.54
   5  -8  -8   20.81    1.65
  -4   8   9   95.28    4.71
  -4   8   9   94.74    4.70
  -4   8   9   98.38    4.15
   4  -8  -9   97.51    4.89
  -3   8  10   27.60    1.89
  -3   8  10   29.70    1.72
   3  -8 -10   27.78    2.06
  -2   8  11    4.17    0.88
  -2   8  11    3.16    0.65
   2  -8 -11    4.42    1.00
  -1   8  12  133.77    5.83
  -1   8  12  137.14    6.74
   1  -8 -12  146.54    6.93
   0   8  13   -0.11    0.48
   0   8  13   -0.21    0.51
   0  -8 -13    0.06    0.63
   1   8  14    0.32    0.67
   1   8  14   -0.10    0.52
  -1  -8 -14   -0.05    0.71
   2   7  13   -0.27    0.44
   2   7  13    0.09    0.62
  -2  -7 -13   -0.05    0.70
   3   6  12   20.59    1.86
   3   6  12   18.53    1.51
  -3  -6 -12   17.92    1.87
   4   5  11    1.35    0.56
   4   5  11    0.96    0.72
  -4  -5 -11    1.51    0.91
   5   4  10    9.92    1.47
  -5  -4 -10    9.66    1.50
   6   3   9    0.96    0.79
  -6  -3  -9    1.00    0.72
   3  -6 -12   71.67    3.95
  -3   6  12   81.59    3.41
  -3   6  12   79.91    3.92
  -5  -2 -12  140.61    5.91
  -5  -2 -12  149.56    7.03
  -5  -2 -12  139.09    5.96
   5   2  12  151.67    7.01
   5   2  12  141.26    5.90
  -7  -1 -12  146.94    6.44
  -7  -1 -12  154.56    7.49
  -7  -1 -12  148.20    6.33
   7   1  12  159.79    7.52
  -6   9   9    1.53    0.58
  -6   9   9    0.88    0.51
   6  -9  -9    1.20    0.68
  -5   9  10    7.07    0.96
  -5   9  10    5.77    0.82
   5  -9 -10    6.48    1.09
  -4   9  11    1.05    0.58
  -4   9  11    1.45    0.56
   4  -9 -11    1.24    0.74
  -3   9  12   20.05    1.61
  -3   9  12   17.66    1.43
   3  -9 -12   18.01    1.75
  -2   9  13   -0.02    0.44
  -2   9  13   -0.69    0.48
   2  -9 -13    0.21    0.63
  -1   9  14    0.17    0.53
  -1   9  14    0.09    0.61
   1  -9 -14    0.26    0.64
   0   9  15    0.49    0.59
   0   9  15    0.41    0.69
   0  -9 -15    0.39    0.77
   1   9  16    2.81    1.03
  -1  -9 -16    3.08    1.09
   2   8  15   17.60    1.92
  -2  -8 -15   20.85    2.17
   3   7  14   18.69    1.92
  -3  -7 -14   17.33    1.94
   4   6  13    0.17    0.68
  -4  -6 -13    0.66    0.83
   5   5  12   80.53    4.68
  -5  -5 -12   83.68    4.82
   6   4  11    1.67    0.89
  -6  -4 -11    1.54    0.93
   7   3  10    0.77    0.79
  -7  -3 -10    0.49    0.75
   8   2   9   45.04    3.24
  -8  -2  -9   45.55    3.24
   9   1   8   11.36    1.80
  -9  -1  -8    6.75    1.36
  10 -10 -13    0.38    0.79
  10   0   7    0.10    0.88
 -10   0  -7   -0.82    0.66
 -10  10  13   -0.24    0.62
   8  -9 -13    2.81    0.96
  11  -1   6    0.24    0.94
  -8   9  13    2.21    0.68
 -11   1  -6   -0.34    0.80
   6  -8 -13   10.96    1.40
  -6   8  13    9.69    1.16
  -6   8  13   10.27    1.10
  13  -3   4    0.41    1.05
   4  -7 -13    0.61    0.55
  -4   7  13    0.60    0.43
  -4   7  13    0.63    0.50
  -4   7  13    0.44    0.49
   2  -6 -13    5.53    0.95
  14  -4   3    4.33    1.52
  -2   6  13    4.81    0.68
  -2   6  13    5.48    0.89
   0  -5 -13   -0.19    0.48
   0  -5 -13   -0.29    0.34
   0   5  13   -0.25    0.35
   0   5  13    0.50    0.49
 -14  10   3    4.76    1.14
  -2  -4 -13    4.86    0.67
  -2  -4 -13    6.27    1.06
  14 -10  -3    4.66    1.42
   2   4  13    6.62    0.84
   2   4  13    6.17    1.00
  -4  -3 -13    0.54    0.49
 -13  10   4   -0.30    0.62
  -4  -3 -13    1.12    0.70
  -4  -3 -13    0.34    0.43
   4   3  13    0.47    0.58
   4   3  13    0.89    0.42
  13 -10  -4    0.26    0.84
  -6  -2 -13   11.06    1.17
  -6  -2 -13   11.38    1.49
  -6  -2 -13    7.91    1.05
   6   2  13   11.40    1.49
  -8  -1 -13    3.26    1.00
   8   1  13    2.88    0.98
  11 -10  -6    0.47    0.78
 -10  10   7    0.13    0.53
 -10   0 -13    0.30    0.79
  10 -10  -7    0.18    0.66
  10   0  13    0.15    0.90
  -9  10   8    6.48    0.97
   9 -10  -8    5.76    1.14
  -8  10   9   43.17    2.41
   8 -10  -9   40.96    2.84
  -7  10  10   -0.12    0.47
   7 -10 -10    0.06    0.61
  -6  10  11    1.89    0.66
   6 -10 -11    1.70    0.79
  -5  10  12   70.23    3.50
   5 -10 -12   76.55    4.23
  -4  10  13   -0.01    0.48
   4 -10 -13    0.01    0.69
  -3  10  14   15.57    1.46
   3 -10 -14   17.98    1.91
  -2  10  15   18.10    1.65
   2 -10 -15   22.18    2.14
   1 -10 -16    3.19    1.13
   0 -10 -17   -0.16    0.76
  -1 -10 -18   29.48    2.82
  -2  -9 -17    3.15    1.18
   3   8  16    0.12    0.74
  -3  -8 -16   -0.26    0.88
   4   7  15    8.71    1.47
  -4  -7 -15   10.02    1.70
   5   6  14   -0.25    0.76
  -5  -6 -14    0.26    0.96
   6   5  13    2.16    0.97
  -6  -5 -13    2.02    1.13
   7   4  12  125.14    6.77
  -7  -4 -12  126.56    6.84
   8   3  11   -0.09    0.82
  -8  -3 -11    1.02    0.92
   9   2  10   15.28    2.06
  -9  -2 -10   15.14    2.01
  10   1   9   55.31    3.89
 -10  -1  -9   52.80    3.75
  11   0   8    4.08    1.42
  11 -11 -14    2.40    1.16
 -11   0  -8    3.31    1.31
 -11  11  14    1.71    0.84
  12  -1   7    1.42    1.20
   9 -10 -14    2.71    1.05
  -9  10  14    4.24    0.94
   7  -9 -14   -0.06    0.66
  13  -2   6    1.11    1.27
  -7   9  14    0.59    0.58
  -7   9  14    0.60    0.53
   5  -8 -14    0.26    0.63
  -5   8  14    0.71    0.54
  -5   8  14    0.61    0.49
   3  -7 -14   26.02    1.96
  -3   7  14   23.90    1.78
  -3   7  14   25.94    1.59
   1  -6 -14    3.32    0.81
  -1   6  14    3.40    0.80
  -1   6  14    2.41    0.54
  -1  -5 -14    3.46    0.67
  -1  -5 -14    3.27    0.81
   1   5  14    3.55    0.81
   1   5  14    4.55    0.74
  -3  -4 -14   27.63    2.08
   3   4  14   27.87    2.08
   3   4  14   27.34    1.69
  -5  -3 -14    0.56    0.68
  -5  -3 -14    0.51    0.53
   5   3  14    0.69    0.73
 -13  11   6    0.95    0.76
  -7  -2 -14    1.03    0.81
  13 -11  -6    0.34    0.90
   7   2  14    1.21    0.83
 -12  11   7   -0.28    0.62
  -9  -1 -14    4.98    1.28
  12 -11  -7    0.28    0.85
   9   1  14    4.47    1.27
 -11  11   8    4.74    1.01
  11   0  14    2.73    1.32
  11 -11  -8    3.85    1.14
 -10  11   9   48.91    2.86
  10 -11  -9   52.27    3.50
  -9  11  10   13.07    1.43
   9 -11 -10   12.89    1.66
  -8  11  11   -0.24    0.51
   8 -11 -11   -0.12    0.69
  -7  11  12  109.95    5.05
   7 -11 -12  113.78    5.99
  -6  11  13    1.24    0.68
   6 -11 -13    1.44    0.89
  -5  11  14    0.11    0.52
   5 -11 -14   -0.66    0.68
  -4  11  15    7.99    1.11
   4 -11 -15   10.60    1.64
  -3  11  16    0.44    0.56
   3 -11 -16   -0.52    0.79
   2 -11 -17    2.90    1.15
   1 -11 -18   26.12    2.61
   0 -11 -19    0.08    1.03
  -1 -11 -20    2.06    1.26
  -2 -10 -19    0.61    1.01
  -3  -9 -18   35.67    3.22
   4   8  17    5.09    1.37
  -4  -8 -17    5.02    1.48
   5   7  16    2.30    1.07
  -5  -7 -16    2.97    1.26
   6   6  15    2.41    1.08
  -6  -6 -15    3.02    1.29
   7   5  14    0.21    0.92
  -7  -5 -14    0.53    1.01
   8   4  13    2.69    1.20
  -8  -4 -13    2.91    1.32
   9   3  12    3.67    1.29
  -9  -3 -12    5.43    1.43
  10   2  11    4.48    1.43
 -10  -2 -11    3.83    1.31
  11   1  10    7.92    1.82
  12   0   9    0.60    1.17
  12 -12 -15   -0.81    0.91
  10 -11 -15    8.00    1.54
 -10  11  15    9.68    1.42
   8 -10 -15   18.39    1.96
  -8  10  15   17.47    1.58
   6  -9 -15    0.58    0.70
  -6   9  15    1.28    0.65
  -6   9  15    1.48    0.64
   4  -8 -15    9.94    1.35
  -4   8  15   10.69    1.24
  -4   8  15   10.88    1.11
   2  -7 -15   19.57    1.75
  -2   7  15   17.86    1.36
  -2   7  15   18.29    1.59
   0  -6 -15    0.01    0.55
   0   6  15   -0.21    0.43
   0   6  15   -0.04    0.50
  -2  -5 -15   16.30    1.69
  -2  -5 -15   17.98    1.38
   2   5  15   16.22    1.57
   2   5  15   18.14    1.35
  -6  -3 -15    1.26    0.87
   6   3  15    0.92    0.80
  -8  -2 -15   14.20    1.84
   8   2  15   18.81    2.08
 -13  12   8    0.06    0.74
  13 -12  -8    1.45    1.06
 -12  12   9   -0.50    0.61
  12 -12  -9   -0.14    0.86
  12   0  15    0.20    1.12
 -11  12  10    8.40    1.37
  11 -12 -10    8.12    1.60
 -10  12  11    2.58    0.90
  10 -12 -11    3.09    1.14
  -9  12  12    3.81    0.98
   9 -12 -12    3.92    1.19
  -8  12  13    3.51    0.90
   8 -12 -13    1.59    0.98
  -7  12  14    0.62    0.65
   7 -12 -14   -0.29    0.76
  -6  12  15    1.51    0.72
   6 -12 -15    3.29    1.17
  -5  12  16    1.45    0.73
   5 -12 -16    3.09    1.15
   4 -12 -17    3.93    1.29
   3 -12 -18   34.83    3.07
   2 -12 -19    0.00    0.95
   1 -12 -20    3.13    1.44
  -3 -10 -20    4.65    1.55
  -4  -9 -19    0.49    1.10
  -5  -8 -18   31.70    3.07
   6   7  17    0.99    1.07
  -6  -7 -17    0.09    1.10
   7   6  16    0.49    1.06
  -7  -6 -16    0.49    1.06
   8   5  15   18.99    2.35
  -8  -5 -15   18.72    2.67
   9   4  14    1.38    1.23
  -9  -4 -14    1.40    1.21
  10   3  13    0.06    1.09
 -10  -3 -13   -0.15    1.12
  11   2  12   41.74    3.64
  12   1  11    2.47    1.45
  11 -12 -16    0.89    1.08
   9 -11 -16    0.92    0.90
  -9  11  16    1.26    0.71
   7 -10 -16    0.38    0.72
  -7  10  16    0.16    0.51
   5  -9 -16    7.96    1.32
  -5   9  16    6.71    1.07
  -5   9  16    5.91    0.93
   3  -8 -16    1.65    0.75
  -3   8  16    1.65    0.71
  -3   8  16    1.16    0.58
   1  -7 -16    0.50    0.67
  -1   7  16    0.43    0.60
  -1   7  16    0.64    0.48
  -1  -6 -16    0.49    0.69
   1   6  16    0.43    0.45
   1   6  16    0.26    0.61
  -3  -5 -16    1.07    0.74
   3   5  16    1.28    0.78
   3   5  16    1.27    0.59
  -5  -4 -16    7.21    1.37
   5   4  16    6.08    1.22
  -7  -3 -16    0.72    0.88
   7   3  16    0.39    0.86
  -9  -2 -16    2.39    1.14
   9   2  16    2.41    1.09
  11   1  16    0.83    1.20
 -12  13  11    2.00    0.97
  12 -13 -11    1.10    1.06
 -11  13  12   38.60    2.77
  11 -13 -12   42.21    3.34
 -10  13  13    0.37    0.71
  10 -13 -13    0.52    0.89
  -9  13  14    2.70    0.94
   9 -13 -14    2.57    1.15
  -8  13  15   14.04    1.68
   8 -13 -15   15.29    2.04
  -7  13  16   -0.13    0.66
   7 -13 -16    0.27    0.92
   6 -13 -17    0.63    0.99
   5 -13 -18   28.75    2.81
   4 -13 -19   -0.18    0.95
   3 -13 -20    2.62    1.32
  -7  -7 -18   12.57    2.31
   8   6  17    0.77    1.18
  -8  -6 -17   -0.06    1.10
  10 -12 -17    0.45    0.93
   8 -11 -17   -0.56    0.77
  -8  11  17   -0.67    0.50
   6 -10 -17    0.04    0.74
  -6  10  17    0.82    0.60
   4  -9 -17    5.39    1.21
  -4   9  17    3.94    0.83
  -4   9  17    5.04    1.03
   2  -8 -17    6.58    1.22
  -2   8  17    8.06    1.06
  -2   8  17    6.52    1.15
   0  -7 -17   -0.20    0.58
   0   7  17   -0.04    0.43
   0   7  17    0.28    0.62
  -2  -6 -17    9.22    1.46
   2   6  17    9.37    1.40
   2   6  17    7.50    1.05
  -4  -5 -17    3.72    1.08
   4   5  17    4.83    1.14
  -6  -4 -17    0.21    0.87
   6   4  17    0.37    0.80
  -8  -3 -17   -0.06    0.87
   8   3  17   -0.25    0.86
  10   2  17    1.39    1.19
   8 -14 -17    0.59    1.06
   7 -14 -18   12.59    2.18
  11 -13 -18   24.37    2.78
   9 -12 -18   33.43    2.96
   7 -11 -18   23.36    2.35
  -7  11  18   21.13    1.85
   5 -10 -18   71.19    4.13
  -5  10  18   61.92    3.33
   3  -9 -18   63.36    3.82
  -3   9  18   60.71    3.59
  -3   9  18   59.73    3.13
   1  -8 -18   41.99    2.84
  -1   8  18   34.38    2.19
  -1   8  18   35.72    2.57
  -1  -7 -18   40.99    2.88
   1   7  18   40.08    2.74
   1   7  18   34.24    2.22
  -3  -6 -18   71.58    4.22
   3   6  18   65.65    4.03
  -5  -5 -18   69.78    4.38
   5   5  18   75.20    4.42
  -7  -4 -18   21.43    2.40
   7   4  18   23.27    2.41
  -9  -3 -18   32.33    3.05
   9   3  18   33.31    3.02
  11   2  18   26.83    2.94
  10 -13 -19   -0.03    0.94
   8 -12 -19    3.88    1.25
   6 -11 -19    2.04    1.05
  -6  11  19    1.81    0.78
   4 -10 -19   -0.46    0.72
  -4  10  19   -0.11    0.49
   2  -9 -19    0.24    0.76
  -2   9  19    1.05    0.75
  -2   9  19    0.07    0.51
   0  -8 -19    0.39    0.78
   0   8  19    0.50    0.67
  -2  -7 -19   -0.25    0.75
   2   7  19   -0.04    0.75
  -4  -6 -19    0.24    0.82
   4   6  19    0.54    0.76
  -6  -5 -19    1.47    1.04
   6   5  19    3.18    1.19
  -8  -4 -19    5.12    1.42
   8   4  19    4.36    1.46
  10   3  19    1.33    1.29
   9 -13 -20    8.05    1.75
   7 -12 -20    5.57    1.43
   5 -11 -20    3.41    1.17
   3 -10 -20    3.09    1.14
  -3  10  20    3.02    0.94
   1  -9 -20   13.37    1.92
  -1   9  20   12.60    1.66
  -1  -8 -20   14.03    1.88
   1   8  20   13.72    1.76
  -3  -7 -20    3.08    1.19
   3   7  20    3.83    1.13
  -5  -6 -20    2.30    1.09
   5   6  20    3.36    1.22
  -7  -5 -20    4.48    1.43
   7   5  20    6.40    1.62
   9   4  20    8.70    1.96
   8 -13 -21   20.27    2.50
   6 -12 -21   -0.19    0.87
   4 -11 -21   16.94    2.15
   2 -10 -21    8.25    1.65
   0  -9 -21    0.51    0.90
   0   9  21   -0.41    0.61
  -2  -8 -21    8.46    1.63
   2   8  21    8.39    1.55
  -4  -7 -21   17.73    2.16
   4   7  21   18.41    2.07
  -6  -6 -21   -0.02    1.01
   6   6  21   -0.53    0.88
  -8  -5 -21   15.68    2.38
   8   5  21   18.18    2.48
   7 -13 -22    6.12    1.66
   5 -12 -22   16.17    2.21
   3 -11 -22    9.54    1.78
   1 -10 -22   12.46    1.98
  -1  -9 -22   12.88    2.04
   1   9  22   16.57    1.97
  -3  -8 -22    7.66    1.73
   3   8  22    9.13    1.65
  -5  -7 -22   13.69    2.24
   5   7  22   10.70    1.83
  -7  -6 -22    5.05    1.56
   7   6  22    6.52    1.66
   6 -13 -23   -0.45    0.94
   4 -12 -23    2.02    1.21
   2 -11 -23    2.90    1.31
   0 -10 -23    0.30    0.92
  -2  -9 -23    3.91    1.38
   2   9  23    2.76    1.18
  -4  -8 -23    2.89    1.36
   4   8  23    3.26    1.25
  -6  -7 -23   -0.11    1.04
   6   7  23   -0.60    0.95
   5 -13 -24   29.44    3.01
   3 -12 -24    3.99    1.47
   1 -11 -24   42.25    3.56
  -1 -10 -24   41.14    3.54
  -3  -9 -24    5.24    1.62
  -5  -8 -24   26.75    3.02
   2 -12 -25    1.03    1.24
   0 -11 -25   -0.42    1.09
  -2 -10 -25    2.00    1.33
   0   0  -6   -0.15    0.09
   0   0  -6   -0.18    0.06
   0   0  -6   -0.16    0.08
   0   0   6   -0.16    0.08
   0   0   6   -0.14    0.09
   0   0   6   -0.22    0.05
   0   0   6   -0.12    0.06
   3  -2  -7   12.52    0.94
  -3   1  -7   14.33    0.92
  -3   1  -7   14.36    0.78
   3  -2  -7   13.52    0.79
   3  -2  -7   13.53    1.08
  -3   1  -7   14.72    0.79
   3  -1   7   13.64    0.91
   3  -1   7   13.96    0.95
  -3   2   7   13.61    1.00
  -3   2   7   12.89    0.81
  -5   2  -7    2.42    0.44
  -5   2  -7    2.56    0.52
  -5   2  -7    3.04    0.47
   4  -3  -8    1.89    0.53
   4  -3  -8    2.15    0.48
   5  -2   7    2.29    0.54
  -4   3   8    1.64    0.36
   5  -2   7    2.77    0.56
  -4   3   8    2.58    0.53
   2   0  -4   53.33    2.62
   2  -2  -8   54.68    2.68
   2   0  -4   47.07    2.52
   2  -2  -8   59.56    2.25
   2  -2  -8   53.79    2.61
   2   0  -4   56.63    2.21
  -2   2   8   58.80    2.25
  -2   2   8   60.06    2.66
  -2   0   4   56.72    2.22
  -2   0   4   49.25    2.56
  -2   0   4   48.34    2.58
  -2   2   8   58.95    2.65
   3  -1  -5    7.11    0.70
   3  -1  -5    8.80    0.91
  -3   2  -5    8.63    0.47
  -3   2  -5    7.44    0.60
  -3   2  -5    8.51    0.60
   3  -1  -5    8.47    0.63
   3  -2   5    8.99    0.68
  -3   1   5    8.52    0.79
   3  -2   5    8.47    0.62
  -3   1   5    8.59    0.63
  -3   1   5    6.89    0.77
  -2   2  -4   49.95    2.48
  -2   0  -8   62.21    2.85
  -2   0  -8   66.09    2.38
  -2   2  -4   49.83    2.49
  -2   0  -8   62.70    2.80
   2  -2   4   51.58    2.53
   2   0   8   63.30    2.79
   2   0   8   68.61    2.37
   2   0   8   67.83    2.34
   2  -2   4   55.30    2.55
   2  -2   4   54.24    2.24
   1  -2   3    6.40    0.33
  -6   2  -8   16.29    1.13
  -6   2  -8   17.76    1.17
   6  -4  -8   17.97    1.53
  -6   2  -8   18.43    1.36
   6  -2   8   14.83    1.27
  -6   4   8   16.57    1.15
  -6   4   8   18.37    1.40
   6  -2   8   18.70    1.41
   1   2  -1   11.98    0.86
   1   2  -1   12.69    0.73
   1   2  -1   12.83    0.74
  -1  -2   1   12.19    0.85
  -1  -2   1   13.37    0.72
  -1  -2   1   12.42    0.90
  -1  -2   1   13.98    0.71
  -8   4  -6    0.31    0.43
   4   0  -2    1.28    0.55
  -8   4  -6   -0.07    0.46
   4  -4 -10    0.92    0.39
   4  -4 -10    0.56    0.46
   4   0  -2    1.13    0.32
  -8   4  -6    0.52    0.47
  -4   0   2    1.29    0.35
  -4   4  10    0.40    0.29
  -4   4  10    0.80    0.40
  -4   0   2    0.93    0.35
  -4   0   2    1.85    0.57
   8  -4   6    0.09    0.44
   8  -4   6    0.61    0.57
   5  -1  -3   16.93    1.39
  -5   1   3   17.99    1.37
  -5   1   3   17.36    1.13
  -5   1   3   19.09    1.18
   0  -2 -10   52.84    2.88
   0  -2 -10   60.05    2.97
   0  -2 -10   68.86    2.57
   0   2  10   67.76    2.24
   0   2  10   56.49    2.93
   0   2  10   62.38    2.53
   0   2  10   60.28    2.96
  -5   4  -3   17.32    1.08
  -5   4  -3   15.93    0.91
   5  -4   3   18.63    1.22
  -4   0 -10    0.64    0.43
  -4   0 -10    0.95    0.35
   8  -4  -6    0.41    0.63
  -4   4  -2    1.14    0.22
  -4   4  -2    1.38    0.29
  -4   0 -10    0.98    0.37
   4  -4   2    0.91    0.33
   4   0  10    0.92    0.33
   4   0  10    0.77    0.40
   4   0  10    0.91    0.45
  -8   4   6    0.16    0.42
  -8   4   6    0.08    0.51
  12  -8 -10    6.87    1.45
 -12   4 -10    6.61    1.14
 -12   8  10    7.29    1.20
  12  -4  10    6.03    1.36
   1   4   3   16.86    1.06
   1   4   3   18.10    1.07
   1   4   3   16.90    1.21
  -1  -4  -3   15.49    1.01
  -1  -4  -3   16.26    1.21
  -1  -4  -3   17.87    1.31
   2   3   2    5.41    0.65
   2   3   2    5.93    0.80
   2   3   2    6.45    0.66
  -2  -3  -2    5.89    0.81
  -2  -3  -2    5.02    0.79
  -2  -3  -2    5.33    0.58
 -12   5  -8    4.09    1.00
  12  -5   8    4.38    1.16
   5  -5 -11    0.11    0.49
 -10   5  -6    0.12    0.48
 -10   5  -6    0.68    0.56
   5   0  -1   -0.02    0.29
   5   0  -1    0.28    0.47
  -5   0   1    0.40    0.33
  -5   0   1    0.11    0.45
  10  -5   6    0.61    0.69
  -5   5  11    0.28    0.42
  -5   0   1    0.28    0.33
  -5   5  11   -0.06    0.30
   3  -4 -11    1.72    0.48
   6  -1  -2    3.14    0.80
   3  -4 -11    1.05    0.47
  -6   1   2    1.88    0.49
  -3   4  11    1.59    0.52
  -3   4  11    1.54    0.50
  -3   4  11    1.58    0.39
  -6   1   2    3.49    0.78
  -6   1   2    3.11    0.62
   1  -3 -11   42.86    2.37
   1  -3 -11   49.86    2.02
   1  -3 -11   40.58    2.29
  -1   3  11   47.87    2.39
  -1   3  11   45.73    1.62
  -1   3  11   45.00    2.00
  -7   5  -3   27.71    1.67
  -7   5  -3   28.28    1.48
   7  -5   3   28.73    1.85
   7  -5   3   24.04    1.66
  -6   5  -2    3.27    0.46
  -3  -1 -11    1.42    0.52
  -3  -1 -11    2.09    0.45
  -6   5  -2    2.97    0.52
  -3  -1 -11    2.59    0.51
   6  -5   2    1.53    0.44
   3   1  11    1.70    0.41
   3   1  11    1.14    0.46
   6  -5   2    2.11    0.55
  -5   0 -11    0.01    0.40
  -5   0 -11    0.42    0.37
  -5   0 -11   -0.15    0.35
  -5   5  -1   -0.03    0.22
  -5   5  -1   -0.05    0.22
  10  -5  -6    0.48    0.76
 -10   5   6    1.21    0.71
   5  -5   1   -0.36    0.27
   5   0  11    0.08    0.41
 -10   5   6    0.07    0.59
 -10   5   6    0.27    0.50
   5  -5   1   -0.01    0.05
  12  -7  -8    4.83    1.33
 -12   7   8    3.54    0.92
  -2   5   2    4.95    0.57
  -2   5   2    5.81    0.52
   2  -5  -2    5.21    0.58
   2  -5  -2    5.72    0.67
   2  -5  -2    5.13    0.40
  -1   5   3   18.45    1.02
  -1   5   3   16.70    1.15
   1  -5  -3   16.59    1.22
   1  -5  -3   18.58    0.80
   1  -5  -3   15.98    1.14
   0   5   4   27.56    1.46
   0   5   4   27.59    1.45
   0   5   4   26.75    1.64
   0  -5  -4   25.09    1.73
   0  -5  -4   27.78    1.18
   1   5   5    7.36    0.82
   1   5   5    6.45    0.90
   1   5   5    6.21    0.77
  -1  -5  -5    5.42    0.89
   2   4   4   23.25    1.57
   2   4   4   20.16    1.27
   2   4   4   20.46    1.28
  -2  -4  -4   21.10    1.59
  12  -9 -12    3.73    1.25
   3   3   3   -0.15    0.34
   3   3   3   -0.09    0.32
   3   3   3   -0.10    0.42
  -3  -3  -3    0.07    0.32
  -3  -3  -3   -0.03    0.50
  -3   6   3    0.12    0.25
  -3   6   3   -0.09    0.26
   3  -6  -3    0.07    0.21
   3  -6  -3   -0.04    0.35
  12  -3  12    2.20    1.16
   3  -6  -3    0.29    0.31
  -2   6   4   21.68    1.17
  -2   6   4   19.16    1.29
   2  -6  -4   19.76    1.39
   2  -6  -4   18.79    1.31
   2  -6  -4   20.29    0.90
  -1   6   5    6.79    0.82
  -1   6   5    6.83    0.73
   1  -6  -5    6.74    0.91
   1  -6  -5    5.14    0.72
   1  -6  -5    6.43    0.43
   0   6   6   56.30    2.61
   0   6   6   56.81    2.99
   0  -6  -6   56.40    2.17
   0  -6  -6   54.03    3.08
   1   6   7    1.22    0.51
   1   6   7    0.86    0.54
  -1  -6  -7    0.25    0.58
   2   5   6    2.32    0.73
   2   5   6    2.27    0.61
   2   5   6    2.59    0.60
  -2  -5  -6    2.24    0.77
   3   4   5    1.54    0.53
   3   4   5    1.46    0.50
   3   4   5    2.42    0.71
  -3  -4  -5    1.97    0.74
  -3  -4  -5    1.09    0.43
   4   3   4    3.79    0.66
   4   3   4    4.99    0.89
   4   3   4    5.18    0.78
  -4  -3  -4    4.29    0.96
   6   1   2    0.84    0.68
   9  -8 -13    2.85    0.98
   6   1   2    1.07    0.51
  -9   8  13    2.72    0.71
  -6  -1  -2    0.66    0.50
  -6  -1  -2    0.39    0.41
  -6  -1  -2    0.39    0.61
  -9   8  13    2.95    0.87
   7   0   1   -0.07    0.58
   7  -7 -13    0.43    0.62
  -7   0  -1    0.15    0.49
  -7   0  -1   -0.04    0.40
  14  -7   6    0.56    0.94
  -7   7  13   -0.01    0.53
  -7   7  13    0.26    0.43
  -7   0  -1    0.12    0.64
   3  -5 -13    3.47    0.74
   9  -2  -1    1.74    0.92
 -12   7  -4    7.14    1.15
  -9   2   1    1.29    0.58
  -9   2   1    2.64    0.92
  -3   5  13    4.03    0.68
  -3   5  13    3.39    0.52
  -9   2   1    3.03    0.81
  12  -7   4    5.52    1.22
   1  -4 -13    2.92    0.65
  -1   4  13    3.46    0.56
  -1   4  13    2.59    0.59
  -1  -3 -13    3.45    0.69
  -1  -3 -13    3.57    0.55
   1   3  13    4.04    0.58
   1   3  13    3.11    0.62
  -3  -2 -13    4.13    0.58
  12  -5  -4    8.58    1.67
  -9   7  -1    2.50    0.62
  -3  -2 -13    5.31    0.91
  -3  -2 -13    6.51    0.78
  -9   7  -1    2.80    0.67
   9  -7   1    1.93    0.75
   3   2  13    5.66    0.69
   3   2  13    4.58    0.80
  -7   7   1    0.24    0.34
  -7   0 -13   -0.13    0.56
  14  -7  -6    1.13    1.19
  -7   0 -13   -0.30    0.44
  -7   7   1    0.05    0.32
  -7   0 -13   -0.43    0.45
   7  -7  -1    0.01    0.36
   7  -7  -1   -0.14    0.34
   7  -7  -1   -0.12    0.41
   7   0  13   -0.26    0.56
  -9   1 -13    2.63    0.88
  -6   7   2    0.37    0.32
  -9   1 -13    3.21    0.84
  -6   7   2    0.41    0.34
   9  -1  13    3.23    1.02
   6  -7  -2    0.24    0.37
   6  -7  -2    0.42    0.47
  -5   7   3   22.85    1.41
  -5   7   3   24.23    1.29
   5  -7  -3   21.52    1.50
   5  -7  -3   23.77    1.60
  -4   7   4    4.22    0.55
  -4   7   4    4.05    0.60
   4  -7  -4    4.42    0.74
   4  -7  -4    4.77    0.76
  -3   7   5    1.50    0.41
  -3   7   5    1.20    0.45
   3  -7  -5    1.51    0.47
   3  -7  -5    1.76    0.30
   3  -7  -5    1.69    0.57
  -2   7   6    2.64    0.55
  -2   7   6    2.39    0.60
   2  -7  -6    2.27    0.28
   2  -7  -6    2.01    0.57
   2  -7  -6    2.38    0.65
  -1   7   7    1.01    0.48
  -1   7   7    0.99    0.51
   1  -7  -7    1.20    0.62
   1  -7  -7    0.91    0.20
   0   7   8   11.34    1.08
   0   7   8   12.33    1.25
   0  -7  -8   10.69    0.62
   0  -7  -8   11.41    1.37
   1   7   9  124.37    5.27
   1   7   9  124.17    6.05
  -1  -7  -9  117.04    4.56
  -1  -7  -9  126.90    6.23
   2   6   8   27.73    2.02
   2   6   8   25.68    1.69
  -2  -6  -8   29.51    2.17
   3   5   7    6.20    1.08
   3   5   7    7.33    0.99
  -3  -5  -7    6.62    1.16
   4   4   6    0.54    0.62
   4   4   6   -0.04    0.42
   4   4   6    0.27    0.48
  -4  -4  -6    0.15    0.57
  -4  -4  -6   -0.05    0.39
   5   3   5   -0.62    0.52
   5   3   5   -0.31    0.43
  -5  -3  -5   -0.02    0.65
  -5  -3  -5    0.40    0.45
   7   1   3   25.52    2.11
  -7  -1  -3   22.44    2.01
  -7  -1  -3   19.60    1.52
   8  -8 -14    2.14    0.83
   8   0   2   -0.14    0.68
  -8   8  14    1.83    0.71
  -8   8  14    2.39    0.68
  -8   0  -2    0.16    0.72
  -8   0  -2    0.62    0.54
  -8   0  -2    0.18    0.48
   9  -1   1   12.11    1.67
  -9   1  -1   12.50    1.62
  -9   1  -1    8.66    1.16
   4  -6 -14    0.32    0.52
  10  -2   0    1.99    0.96
 -14   8  -4    1.10    0.77
 -10   2   0    3.63    0.89
 -10   2   0    3.93    1.11
  -4   6  14    0.22    0.39
  -4   6  14    0.50    0.50
  14  -8   4    1.10    0.97
  -4   6  14    0.40    0.45
 -11   3   1    2.45    1.02
  -2  -3 -14    1.19    0.55
  -2  -3 -14    1.24    0.46
  -2  -3 -14    1.54    0.49
 -11   8  -1    0.90    0.57
  11  -8   1    2.10    0.86
   2   3  14    1.34    0.53
  -4  -2 -14    0.56    0.49
 -10   8   0    2.70    0.69
  -4  -2 -14   -0.03    0.37
  -4  -2 -14    1.50    0.64
  14  -6  -4    0.69    1.13
  10  -8   0    2.85    0.85
   4   2  14    0.38    0.42
   4   2  14    0.49    0.57
  -8   0 -14    1.85    0.71
  -8   0 -14    2.70    0.87
  -8   8   2    0.75    0.45
   8   0  14    2.57    0.87
   8  -8  -2    0.57    0.54
  -7   8   3   19.67    1.29
  -7   8   3   19.43    1.39
   7  -8  -3   22.27    1.66
   7  -8  -3   17.69    1.45
  -6   8   4   19.12    1.31
  -6   8   4   18.55    1.22
   6  -8  -4   16.44    1.37
   6  -8  -4   17.57    1.50
  -5   8   5    0.08    0.32
  -5   8   5    0.12    0.37
   5  -8  -5    0.31    0.40
   5  -8  -5    0.13    0.45
  -4   8   6   -0.06    0.35
  -4   8   6    0.15    0.36
  -4   8   6    0.27    0.37
   4  -8  -6    0.13    0.48
   4  -8  -6    0.32    0.40
  -3   8   7    5.03    0.70
  -3   8   7    6.01    0.87
   3  -8  -7    5.70    0.89
   3  -8  -7    6.86    1.02
  -2   8   8   27.71    1.69
  -2   8   8   28.06    1.90
   2  -8  -8   28.24    2.04
  -1   8   9  122.01    5.87
  -1   8   9  121.85    5.15
   1  -8  -9  118.02    6.04
   0   8  10   13.75    1.45
   0   8  10   11.90    1.24
   0  -8 -10   13.44    1.57
   1   8  11    6.10    0.96
   1   8  11    6.72    1.19
  -1  -8 -11    7.91    1.35
   2   7  10    8.98    1.14
   2   7  10   10.76    1.36
  -2  -7 -10    7.98    1.33
   3   6   9    1.96    0.62
   3   6   9    0.62    0.69
  -3  -6  -9    0.78    0.77
   4   5   8   24.10    1.96
   4   5   8   22.16    1.63
  -4  -5  -8   23.93    2.05
   5   4   7    0.60    0.57
   5   4   7    0.75    0.72
  -5  -4  -7    0.93    0.75
   6   3   6   40.14    2.78
  -6  -3  -6   42.71    2.89
  13 -11 -15   10.87    1.93
  -7  -2  -5    1.43    0.85
  11 -10 -15   10.57    1.78
 -11  10  15    9.29    1.42
   9  -9 -15    0.09    0.74
   9   0   3    0.16    0.80
  -9   9  15   -0.25    0.51
  -9   0  -3    0.34    0.73
   7  -8 -15    8.34    1.33
  10  -1   2    4.81    1.35
  -7   8  15    6.72    0.92
 -10   1  -2    3.47    1.19
  -7   8  15    6.96    1.10
   5  -7 -15   14.12    1.44
  -5   7  15   15.07    1.40
  -5   7  15   14.86    1.21
  13  -4  -1   -0.48    0.93
   1  -5 -15    2.91    0.75
 -14   9  -2    0.06    0.66
  -1   5  15    3.30    0.78
  -1   5  15    2.16    0.48
  14  -9   2    0.75    0.97
 -13   9  -1   -0.14    0.60
  -1  -4 -15    3.09    0.76
  14  -5  -2    0.34    1.08
  13  -9   1    0.94    0.88
   1   4  15    3.39    0.73
  -5  -2 -15   15.27    1.31
  -5  -2 -15   14.09    1.20
  -5  -2 -15   16.06    1.59
   5   2  15   13.17    1.17
   5   2  15   14.82    1.56
 -10   9   2    4.28    0.85
  -7  -1 -15    5.24    0.93
  -7  -1 -15    8.28    1.35
  -7  -1 -15    6.17    1.02
  10  -9  -2    4.18    1.00
   7   1  15    7.83    1.30
  -9   9   3   -0.09    0.43
  -9   0 -15   -0.28    0.65
   9  -9  -3    0.24    0.58
   9   0  15    0.09    0.79
  -8   9   4   15.08    1.25
   8  -9  -4   17.04    1.53
  11  -1  15    9.13    1.77
  13  -2  15   10.03    1.92
  -6   9   6   35.60    2.12
  -6   9   6   36.59    1.98
   6  -9  -6   37.98    2.41
  -5   9   7    0.43    0.45
  -5   9   7    0.95    0.45
   5  -9  -7    0.34    0.54
  -4   9   8   22.27    1.62
  -4   9   8   23.15    1.52
  -4   9   8   22.96    1.64
   4  -9  -8   22.49    1.81
  -3   9   9    0.92    0.48
  -3   9   9    1.16    0.54
   3  -9  -9    1.90    0.76
  -2   9  10    6.98    1.05
  -2   9  10   10.40    1.20
   2  -9 -10    7.59    1.25
  -1   9  11    6.44    1.11
  -1   9  11    6.24    0.96
   1  -9 -11    5.83    1.15
   0   9  12   14.41    1.57
   0   9  12   12.44    1.39
   0  -9 -12   15.80    1.83
   1   9  13    0.23    0.71
  -1  -9 -13    0.35    0.81
   2   8  12   95.06    5.06
  -2  -8 -12   88.72    5.16
   3   7  11    0.07    0.67
  -3  -7 -11    0.19    0.73
   4   6  10    0.55    0.68
  -4  -6 -10    0.69    0.86
   5   5   9   74.46    4.39
  -5  -5  -9   78.08    4.55
   6   4   8    1.25    0.82
  -6  -4  -8    1.54    0.92
   7   3   7    0.01    0.70
  -7  -3  -7    0.41    0.72
   8   2   6    0.34    0.81
  -8  -2  -6    0.49    0.87
  12 -11 -16    0.65    1.02
   9   1   5    0.52    0.83
  -9  -1  -5   -0.05    0.78
  10   0   4    1.72    1.06
  10 -10 -16    1.77    0.98
 -10   0  -4    0.83    0.84
 -10  10  16    3.15    0.94
   8  -9 -16    3.08    0.95
  -8   9  16    2.05    0.88
  -8   9  16    2.83    0.78
   6  -8 -16    8.78    1.37
  -6   8  16   11.00    1.15
  -6   8  16    9.13    1.23
  13  -3   1    2.23    1.24
   4  -7 -16   -0.02    0.51
  -4   7  16    0.07    0.51
  -4   7  16    0.48    0.47
  -4   7  16   -0.12    0.48
  14  -4   0   12.38    2.16
   2  -6 -16    9.17    1.24
  -2   6  16    8.34    0.93
  -2   6  16    7.47    1.08
   0  -5 -16    0.39    0.51
   0  -5 -16    0.50    0.44
   0   5  16    0.60    0.58
   0   5  16    0.55    0.44
  -2  -4 -16    9.24    1.27
 -14  10   0    7.79    1.29
  14 -10   0    9.46    1.71
   2   4  16    6.04    0.80
   2   4  16    8.01    1.07
 -13  10   1    0.34    0.69
  -4  -3 -16    0.60    0.45
  -4  -3 -16    0.09    0.52
  -4  -3 -16    0.46    0.62
   4   3  16   -0.08    0.39
   4   3  16    0.85    0.64
  13 -10  -1    0.34    0.85
  -6  -2 -16   10.33    1.23
  -6  -2 -16    8.77    1.37
  -6  -2 -16   10.51    1.15
   6   2  16   10.36    1.51
 -11  10   3    9.45    1.25
  11 -10  -3   11.94    1.62
 -10  10   4    0.00    0.52
  10   0  16    1.63    1.09
  10 -10  -4    0.23    0.67
  -9  10   5   -0.50    0.42
  12  -1  16    0.74    1.08
   9 -10  -5    0.17    0.60
  -8  10   6    0.51    0.49
   8 -10  -6    0.38    0.62
  -7  10   7    0.16    0.46
   7 -10  -7    0.16    0.56
  -6  10   8    1.80    0.61
   6 -10  -8    0.97    0.69
  -5  10   9   71.81    3.38
   5 -10  -9   68.92    3.97
  -4  10  10    0.81    0.50
   4 -10 -10    0.97    0.68
  -3  10  11    0.38    0.50
   3 -10 -11    0.37    0.68
  -2  10  12   83.79    4.22
   2 -10 -12   99.61    5.17
  -1  10  13   -0.13    0.54
   1 -10 -13   -0.28    0.67
   0 -10 -14    5.82    1.35
  -1 -10 -15    8.17    1.66
  -2  -9 -14    1.13    0.99
   3   8  13    0.61    0.79
  -3  -8 -13    0.35    0.89
   4   7  12  104.61    5.87
  -4  -7 -12  118.00    6.26
   5   6  11    1.38    0.91
  -5  -6 -11    0.11    0.92
   6   5  10   13.83    1.87
  -6  -5 -10   13.95    2.03
   7   4   9   78.25    4.69
  -7  -4  -9   78.18    4.75
   8   3   8    4.96    1.28
  -8  -3  -8    6.97    1.48
   9   2   7    0.39    0.80
  -9  -2  -7    0.57    0.86
  10   1   6    1.15    1.07
 -10  -1  -6   -0.65    0.77
  11   0   5   -0.35    1.01
  11 -11 -17    0.76    1.01
 -11   0  -5    0.45    0.94
  12  -1   4    4.65    1.50
   9 -10 -17    0.16    0.77
  -9  10  17    0.60    0.63
   7  -9 -17    2.62    0.98
  -7   9  17    1.99    0.67
  -7   9  17    3.23    0.88
  14  -3   2    1.84    1.36
   5  -8 -17    4.52    1.01
  -5   8  17    3.97    0.75
  -5   8  17    4.37    0.89
   3  -7 -17    0.69    0.60
  -3   7  17    0.75    0.60
  -3   7  17    0.80    0.45
   1  -6 -17    9.70    1.29
  -1   6  17    9.70    1.18
  -1   6  17    9.31    1.00
  -1  -5 -17    9.46    1.05
  -1  -5 -17    9.95    1.34
   1   5  17    9.70    1.00
   1   5  17    9.72    1.26
  -3  -4 -17    1.05    0.52
  -3  -4 -17    0.35    0.68
   3   4  17    0.47    0.64
   3   4  17    0.07    0.18
  -5  -3 -17    4.21    0.88
  -5  -3 -17    5.54    1.18
   5   3  17    4.61    1.12
 -13  11   3    8.58    1.31
  13 -11  -3   10.48    1.77
  -9  -1 -17    0.45    0.81
 -12  11   4    2.79    0.88
  12 -11  -4    4.67    1.22
   9   1  17    0.42    0.87
 -11  11   5   -0.23    0.53
  11 -11  -5    0.12    0.73
  11   0  17   -0.71    0.85
 -10  11   6    0.00    0.51
  10 -11  -6    0.77    0.72
  -9  11   7    0.09    0.52
   9 -11  -7    0.45    0.66
  -8  11   8    5.67    0.95
   8 -11  -8    5.93    1.19
  -7  11   9   69.07    3.43
   7 -11  -9   69.54    4.08
  -6  11  10   12.61    1.34
   6 -11 -10   13.27    1.62
  -5  11  11    1.15    0.56
   5 -11 -11    0.59    0.70
  -4  11  12  111.73    5.08
   4 -11 -12  112.44    6.02
  -3  11  13    0.87    0.60
   3 -11 -13    0.21    0.78
  -2  11  14   -0.04    0.59
   2 -11 -14   -0.17    0.76
   1 -11 -15   11.67    1.95
   0 -11 -16    0.88    0.98
  -1 -11 -17    3.78    1.44
  -2 -10 -16    2.83    1.35
  -3  -9 -15    2.47    1.16
   4   8  14    0.25    0.84
  -4  -8 -14    0.52    0.97
   5   7  13   -0.24    0.81
  -5  -7 -13    0.40    0.94
   6   6  12    1.21    0.98
  -6  -6 -12    0.76    1.03
   7   5  11    0.20    0.85
  -7  -5 -11   -0.95    0.82
   8   4  10    7.93    1.63
  -8  -4 -10    8.48    1.74
   9   3   9    1.12    1.03
  -9  -3  -9    0.37    0.84
  10   2   8    3.56    1.37
 -10  -2  -8    4.09    1.36
  11   1   7    0.16    1.08
 -11  -1  -7    1.64    1.11
  12 -12 -18   31.50    3.03
  12   0   6   27.75    3.04
   8 -10 -18   54.34    3.56
  -8  10  18   46.28    2.81
   6  -9 -18   62.53    3.76
  -6   9  18   57.57    3.05
  -6   9  18   59.20    3.45
   4  -8 -18   61.55    3.57
  -4   8  18   56.86    3.36
  -4   8  18   55.66    2.89
   2  -7 -18   64.23    3.75
  -2   7  18   62.21    3.10
  -2   7  18   68.50    3.69
   0  -6 -18  147.30    6.38
   0  -6 -18  161.01    7.64
   0   6  18  166.74    7.60
   0   6  18  154.51    6.45
  -2  -5 -18   58.08    3.06
  -2  -5 -18   71.56    3.87
   2   5  18   67.30    3.72
   2   5  18   61.85    3.08
  -4  -4 -18   62.43    3.76
   4   4  18   60.42    3.65
  -6  -3 -18   64.28    4.09
   6   3  18   71.74    4.17
  -8  -2 -18   53.18    3.70
   8   2  18   55.66    3.77
 -12  12   6   25.68    2.15
  12   0  18   31.36    3.11
  12 -12  -6   30.02    2.72
 -11  12   7    0.12    0.67
  11 -12  -7    0.25    0.83
 -10  12   8    6.31    1.16
  10 -12  -8    4.09    1.19
  -9  12   9    0.01    0.59
   9 -12  -9   -0.04    0.75
  -8  12  10    8.75    1.28
   8 -12 -10    7.59    1.38
  -7  12  11    0.13    0.56
   7 -12 -11   -0.04    0.73
  -6  12  12    1.38    0.69
   6 -12 -12    0.72    0.80
  -5  12  13   -0.13    0.55
   5 -12 -13   -0.13    0.80
  -4  12  14    0.52    0.64
   4 -12 -14    0.27    0.87
   3 -12 -15    1.58    1.03
   2 -12 -16    1.92    1.15
   1 -12 -17    4.05    1.44
   0 -12 -18   29.32    3.04
  -2 -11 -18   19.14    2.61
  -3 -10 -17    0.52    1.16
  -4  -9 -16    0.45    1.10
  -5  -8 -15   17.96    2.47
   6   7  14    2.47    1.21
  -6  -7 -14    2.00    1.32
   7   6  13   -0.12    0.93
  -7  -6 -13    1.09    1.16
   8   5  12   44.52    3.62
  -8  -5 -12   50.28    3.92
   9   4  11    0.45    1.03
  -9  -4 -11    1.51    1.18
  10   3  10   -0.71    0.95
 -10  -3 -10   -0.08    0.93
  11   2   9   31.26    3.20
  12   1   8    0.93    1.25
  11 -12 -19    0.62    1.08
   9 -11 -19    1.58    1.07
  -9  11  19    4.29    1.15
   7 -10 -19    0.55    0.81
  -7  10  19   -0.44    0.47
   5  -9 -19    6.68    1.24
  -5   9  19    6.66    1.02
  -5   9  19    8.48    1.28
  -5   9  19    6.66    1.15
   3  -8 -19    2.61    0.94
  -3   8  19    3.62    0.93
  -3   8  19    2.28    0.66
   1  -7 -19    0.22    0.68
  -1   7  19    0.24    0.64
  -1   7  19    0.49    0.50
  -1  -6 -19    0.40    0.68
   1   6  19    0.11    0.40
   1   6  19    0.72    0.70
  -3  -5 -19    3.35    0.98
   3   5  19    3.05    0.92
  -5  -4 -19    5.89    1.24
   5   4  19    7.45    1.37
  -7  -3 -19    0.25    0.79
   7   3  19   -0.19    0.77
  -9  -2 -19    2.46    1.17
   9   2  19    2.08    1.20
  11   1  19    1.71    1.23
 -12  13   8    0.84    0.77
  12 -13  -8    2.03    1.10
 -11  13   9   26.08    2.24
  11 -13  -9   33.56    2.81
 -10  13  10   -0.49    0.62
  10 -13 -10    0.09    0.80
  -9  13  11    1.10    0.78
   9 -13 -11    0.62    0.90
  -8  13  12   40.22    2.72
   8 -13 -12   45.77    3.32
  -7  13  13    0.35    0.63
   7 -13 -13   -0.07    0.85
  -6  13  14    1.66    0.79
   6 -13 -14    1.52    1.03
   5 -13 -15   12.86    1.92
   4 -13 -16    1.16    1.05
   3 -13 -17    0.69    1.09
   2 -13 -18   18.71    2.52
  -6  -8 -16    0.90    1.19
  -7  -7 -15    3.12    1.46
   8   6  14    3.04    1.40
  -8  -6 -14    0.96    1.32
   9   5  13    0.17    1.15
  -9  -5 -13   -0.50    1.03
  10   4  12   59.22    4.53
 -10  -4 -12   57.78    4.53
  10 -12 -20    6.29    1.55
   8 -11 -20    1.88    1.11
  -8  11  20    1.87    0.88
   6 -10 -20    4.80    1.27
  -6  10  20    2.95    0.81
   4  -9 -20   11.92    1.63
  -4   9  20   11.37    1.45
  -4   9  20    9.43    1.21
   2  -8 -20   19.65    1.91
  -2   8  20   18.37    1.51
  -2   8  20   18.30    1.75
   0  -7 -20    0.71    0.78
   0   7  20    0.26    0.49
   0   7  20    0.23    0.63
  -2  -6 -20   20.08    1.96
   2   6  20   18.72    1.81
  -4  -5 -20   12.65    1.81
   4   5  20   11.77    1.64
  -6  -4 -20    3.10    1.11
   6   4  20    2.90    1.10
  -8  -3 -20    1.86    1.06
   8   3  20    1.36    1.08
  10   2  20    7.79    1.85
 -10  14  12   50.76    3.31
  10 -14 -12   58.07    3.99
  -9  14  13    0.70    0.82
   9 -14 -13    0.94    1.02
  -8  14  14    0.77    0.76
   8 -14 -14    0.84    1.01
   7 -14 -15    5.00    1.47
   6 -14 -16    0.29    1.01
   9 -12 -21    0.54    1.03
   7 -11 -21   15.25    2.07
   5 -10 -21   19.67    2.09
  -5  10  21   17.86    1.60
   3  -9 -21    0.41    0.71
  -3   9  21   -0.20    0.58
  -3   9  21    0.60    0.53
   1  -8 -21   11.81    1.69
  -1   8  21    6.92    1.05
  -1   8  21   10.66    1.50
  -1  -7 -21    9.66    1.56
   1   7  21   10.59    1.46
  -3  -6 -21    0.82    0.84
   3   6  21   -0.30    0.73
  -5  -5 -21   22.03    2.30
   5   5  21   20.93    2.10
  -7  -4 -21   16.27    2.04
   7   4  21   15.84    2.25
   9   3  21    1.36    1.18
   8 -12 -22   12.09    2.06
   6 -11 -22   18.38    2.18
   4 -10 -22    8.26    1.56
   2  -9 -22   22.17    2.16
  -2   9  22   20.94    2.01
   0  -8 -22   20.06    2.15
   0   8  22   19.39    1.98
  -2  -7 -22   21.72    2.25
   2   7  22   24.50    2.26
  -4  -6 -22    8.80    1.69
   4   6  22   10.04    1.68
  -6  -5 -22   16.67    2.18
   6   5  22   15.83    2.10
  -8  -4 -22   13.04    2.11
   8   4  22   14.80    2.35
   9 -13 -23    1.88    1.22
   7 -12 -23    0.87    1.10
   5 -11 -23    0.66    0.94
   3 -10 -23    0.13    0.87
   1  -9 -23    3.55    1.21
  -1   9  23    3.09    1.11
  -1  -8 -23    3.33    1.21
   1   8  23    3.86    1.17
  -3  -7 -23    0.47    0.86
   3   7  23    0.51    0.89
  -5  -6 -23    2.43    1.21
   5   6  23    1.23    1.03
  -7  -5 -23   -0.02    0.94
   7   5  23   -0.22    0.96
   9   4  23    2.16    1.30
   8 -13 -24   27.80    3.02
   6 -12 -24    5.00    1.48
   4 -11 -24   65.47    4.38
   2 -10 -24   41.65    3.30
   0  -9 -24    4.60    1.33
   0   9  24    5.11    1.32
  -2  -8 -24   48.54    3.60
   2   8  24   45.92    3.47
  -4  -7 -24   68.66    4.63
   4   7  24   69.48    4.48
  -6  -6 -24    4.93    1.47
   6   6  24    5.30    1.44
   8   5  24   27.60    2.96
   7 -13 -25    0.38    1.10
   5 -12 -25    0.00    0.98
   3 -11 -25    0.34    0.95
   1 -10 -25    1.03    1.09
  -1  -9 -25   -0.08    0.94
   1   9  25    1.04    0.94
  -3  -8 -25    0.88    1.04
   3   8  25    0.36    1.03
  -5  -7 -25    0.70    1.12
   5   7  25   -0.16    0.95
  -7  -6 -25   -0.45    1.00
   7   6  25   -0.94    0.93
   6 -13 -26   13.36    2.21
   4 -12 -26    1.36    1.15
   2 -11 -26    0.37    1.09
   0 -10 -26   26.04    2.82
  -2  -9 -26    1.58    1.19
   2   9  26    0.38    0.96
  -4  -8 -26    1.01    1.12
   4   8  26    1.97    1.25
  -6  -7 -26   12.21    2.15
   6   7  26    9.45    1.95
   3 -12 -27   -0.02    1.11
   1 -11 -27   40.96    3.61
  -1 -10 -27   38.82    3.54
  -3  -9 -27    0.77    1.20
   0 -11 -28    0.96    1.20
   0   0  -9   -0.45    0.18
   0   0  -9   -0.33    0.16
   0   0  -9   -0.35    0.22
   0   0   9   -0.58    0.19
   0   0   9   -0.62    0.13
   0   0   9   -0.40    0.13
   0   0   9   -0.61    0.16
  -3   1 -10   53.39    2.10
   3  -2 -10   51.69    2.66
   3  -2 -10   46.72    2.52
   3  -2 -10   52.94    2.17
  -3   1 -10   50.41    2.46
   3  -2 -10   44.11    2.49
   3  -1  10   49.80    2.45
   3  -1  10   51.75    2.48
  -3   2  10   51.37    2.18
   3  -1  10   56.46    2.17
  -3   2  10   49.33    2.57
   0   2  -5   -0.08    0.12
   0   2  -5    0.04    0.09
   0   2  -5    0.07    0.10
   0   2  -5    0.22    0.15
   6  -4 -11    0.35    0.58
  -6   2 -11    0.83    0.47
  -6   2 -11    0.68    0.42
  -6   2 -11    0.48    0.38
  -6   4  11    0.39    0.36
  -6   4  11    0.47    0.48
   0  -2   5    0.05    0.17
   6  -2  11    0.50    0.44
   6  -2  11    0.65    0.50
   0  -2   5    0.04    0.17
   1   2  -4   38.28    1.89
   1   2  -4   39.86    1.61
   1   2  -4   38.63    1.61
  -1  -2   4   36.41    1.92
  -1  -2   4   38.58    1.56
  -1  -2   4   36.13    1.89
   3   0  -6   47.14    2.01
   3   0  -6   46.86    2.47
  -3   0   6   47.18    2.42
  -3   0   6   48.56    2.05
  -3   0   6   42.11    2.40
  -5   3  -8   60.55    2.54
  -5   3  -8   61.32    2.94
   5  -3   8   64.55    3.08
  -1   3  -4   35.28    1.62
  -1   3  -4   36.35    1.61
   1  -3   4   37.10    1.49
   1  -3   4   35.44    1.66
   1  -3   4   37.31    1.69
  -9   6  12   13.78    1.30
   2   2  -3    8.36    0.77
   2   2  -3    7.95    0.65
   2   2  -3    8.07    0.67
   8  -6 -13   11.71    1.48
  -2  -2   3    7.23    0.74
  -2  -2   3    7.86    0.85
  -8   6  13    9.62    1.10
  -8   6  13   11.01    1.32
  -2  -2   3    9.43    0.67
   6  -5 -13    4.10    0.94
  -9   4 -10    6.99    0.93
  -9   4 -10    6.36    0.89
  -6   5  13    3.40    0.67
  -6   5  13    3.96    0.83
   9  -4  10    7.52    1.12
  -7   4  -8    4.42    0.63
   2  -3 -13    2.33    0.41
   5  -1  -6    0.48    0.52
   2  -3 -13    1.56    0.49
   7  -4   8    4.70    0.81
  -2   3  13    1.69    0.51
  -5   1   6    0.94    0.51
  -2   3  13    2.42    0.44
   7  -4   8    4.46    0.71
  -6   4  -7    3.20    0.53
  -6   4  -7    3.12    0.46
   6  -2  -7    3.76    0.88
   6  -4   7    3.47    0.64
  -6   2   7    3.19    0.60
  -6   2   7    2.72    0.61
  -6   2   7    3.22    0.75
   7  -3  -8    4.26    0.98
  -2  -1 -13    1.52    0.35
  -2  -1 -13    1.42    0.45
   5  -4   6    0.50    0.35
   2   1  13    2.01    0.35
   2   1  13    1.67    0.47
   2   1  13    2.16    0.39
   2   1  13    1.69    0.46
  -7   3   8    2.72    0.56
  -7   3   8    4.39    0.86
  -6   1 -13    3.67    0.68
   9  -5 -10    7.64    1.31
  -6   1 -13    3.44    0.59
  -6   1 -13    3.39    0.71
  -9   5  10    7.10    1.02
  -9   5  10    7.82    1.25
   6  -1  13    2.72    0.71
  -2   4  -3    6.91    0.44
  -8   2 -13   10.38    1.22
  -8   2 -13   10.61    1.09
  -8   2 -13    9.82    1.13
   2  -4   3    7.10    0.51
   2  -4   3    7.40    0.53
   2  -4   3    7.17    0.54
   0   4  -1    0.10    0.22
   0   4  -1    0.00    0.26
 -12   4 -13    1.86    0.79
   0   4  -1   -0.01    0.22
  12  -8 -13    2.18    1.16
   0  -4   1   -0.08    0.30
   0  -4   1    0.11    0.21
   0  -4   1    0.07    0.25
  12  -4  13    2.37    1.11
   1   4   0   53.24    2.36
   1   4   0   56.29    2.75
   1   4   0   56.35    2.37
  -1  -4   0   54.15    2.81
  -1  -4   0   49.10    2.73
   2   3  -1   12.87    0.90
   2   3  -1   13.35    0.89
   2   3  -1   13.28    1.05
  -2  -3   1   12.11    1.01
  -2  -3   1   12.00    0.82
  -2  -3   1   12.99    1.14
   3   2  -2    5.21    0.60
   9  -7 -14    0.79    0.73
   3   2  -2    5.45    0.63
  -9   7  14    0.60    0.67
  12  -5  11    0.12    0.80
 -11   5 -10   13.22    1.49
   4   1  -3   18.12    1.38
   4   1  -3   17.39    1.08
   4   1  -3   16.90    1.07
 -11   5 -10   12.66    1.44
  11  -5  10   12.61    1.69
  -4  -1   3   18.15    1.09
  -4  -1   3   18.51    1.36
   5   0  -4   28.35    1.49
   5   0  -4   26.79    1.89
  -5   0   4   25.62    1.79
  -5   0   4   24.23    1.46
  -5   0   4   26.49    1.49
  -9   5  -8   28.17    1.70
  -9   5  -8   23.08    1.54
  -9   5  -8   22.18    1.67
   3  -4 -14   21.34    1.60
  -3   4  14   24.70    1.63
  -3   4  14   21.77    1.30
  -3   4  14   23.55    1.57
   9  -5   8   24.28    1.89
  -8   5  -7    6.93    0.83
   1  -3 -14    5.82    0.84
   1  -3 -14    6.39    0.65
  -8   5  -7    6.68    0.86
  -1   3  14    5.84    0.62
  -1   3  14    5.98    0.34
  -7   2   6    2.76    0.84
   8  -5   7    5.40    0.90
   8  -5   7    5.33    0.82
  -1   3  14    5.13    0.75
  -7   2   6    3.21    0.74
  -1  -2 -14    5.37    0.75
   8  -3  -7    7.48    1.27
  -1  -2 -14    6.89    0.67
   1   2  14    6.05    0.47
   1   2  14    5.27    0.73
  -8   3   7    6.12    0.90
   1   2  14    6.28    0.63
  -8   3   7    7.80    1.25
  -8   3   7    6.26    0.99
  -3  -1 -14   22.37    1.55
   9  -4  -8   26.45    2.19
  -3  -1 -14   24.82    1.34
   3   1  14   23.52    1.57
  -9   4   8   21.14    1.62
  -9   4   8   27.59    1.91
  -9   4   8   25.63    2.06
   3   1  14   21.51    1.24
  -5   5  -4   23.10    1.25
  -5   5  -4   25.01    1.11
   5  -5   4   27.47    1.47
   5  -5   4   23.71    1.30
   5  -5   4   22.62    1.35
  -4   5  -3   16.05    0.84
  -4   5  -3   16.23    0.72
  11  -6 -10   12.37    1.92
   4  -5   3   15.20    0.95
 -11   6  10   12.97    1.74
   4  -5   3   16.28    0.94
   4  -5   3   17.20    1.01
   4  -5   3   15.66    0.95
 -11   6  10   11.17    1.44
  -3   5  -2    5.11    0.42
  -3   5  -2    4.88    0.36
  -3   5  -2    5.25    0.39
   3  -5   2    5.11    0.48
   3  -5   2    5.26    0.55
   3  -5   2    5.37    0.51
  -2   5  -1   12.94    0.71
  -2   5  -1   12.48    0.68
  -2   5  -1   11.50    0.78
   2  -5   1   12.92    0.70
   2  -5   1   12.18    0.88
  -1   5   0   52.66    2.24
  -1   5   0   51.75    2.59
  -1   5   0   54.22    2.25
   1  -5   0   53.95    2.10
   1  -5   0   56.85    2.71
   1  -5   0   50.20    2.62
   0   5   1    0.17    0.31
   0   5   1   -0.03    0.27
   0   5   1    0.20    0.27
   0  -5  -1    0.00    0.20
   0  -5  -1   -0.12    0.36
   0  -5  -1   -0.07    0.28
   1   5   2    2.65    0.50
   1   5   2    2.40    0.54
   1   5   2    2.80    0.63
  -1  -5  -2    2.13    0.60
  -1  -5  -2    2.13    0.55
   2   4   1    7.51    0.78
   2   4   1    8.57    0.83
   2   4   1    7.42    0.89
  -2  -4  -1    8.92    1.06
   3   3   0  830.87   29.50
   3   3   0  821.59   30.29
   3   3   0  742.00   34.04
  -3  -3   0  812.25   34.16
  -3  -3   0  803.18   29.43
   4   2  -1    8.43    1.01
   4   2  -1    7.46    0.82
   4   2  -1    8.84    0.84
  -4  -2   1    8.94    1.07
  -4  -2   1    8.62    0.82
   5   1  -2    1.64    0.45
   5   1  -2    2.87    0.76
   5   1  -2    3.23    0.60
   8  -7 -15    4.17    1.01
  -8   7  15    6.59    0.90
  13  -6  10    0.44    0.87
  -5  -1   2    3.09    0.59
  -5  -1   2    2.59    0.72
   6  -6 -15   -0.03    0.54
   6   0  -3    0.10    0.62
 -12   6  -9    0.77    0.66
  -6   6  15    0.00    0.51
  -6   0   3    0.52    0.58
  -6   6  15    0.02    0.42
  -6   0   3    0.16    0.39
  -6   0   3    0.50    0.45
  12  -6   9    0.99    0.80
   7  -1  -4    7.04    1.23
   4  -5 -15    4.14    0.89
  -7   1   4    7.66    0.96
  -7   1   4    5.99    0.81
  -7   1   4    7.76    1.21
 -10   6  -7    1.09    0.56
   8  -2  -5    2.08    0.88
  10  -6   7    1.22    0.72
  -8   2   5    4.48    1.01
  -8   2   5    3.16    0.74
  -8   2   5    3.59    0.77
  -2  -2 -15    6.37    0.82
  -8   6  -5    3.81    0.68
  10  -4  -7    1.06    0.86
  -8   6  -5    3.65    0.59
   8  -6   5    2.43    0.60
 -10   4   7    0.96    0.60
   8  -6   5    3.50    0.76
 -10   4   7    2.39    0.94
  -7   6  -4    6.22    0.67
  -7   6  -4    5.99    0.66
  -4  -1 -15    3.85    0.77
  -4  -1 -15    3.42    0.59
  -4  -1 -15    3.04    0.60
   4   1  15    3.59    0.78
   7  -6   4    6.84    0.93
  -6   0 -15   -0.40    0.40
  12  -6  -9    0.28    0.95
  -6   6  -3    0.04    0.27
  -6   6  -3    0.13    0.27
  -6   0 -15    0.02    0.56
  -6   0 -15    0.45    0.45
   6   0  15   -0.06    0.54
   6  -6   3    0.21    0.39
   6  -6   3    1.06    0.35
  -5   6  -2    2.09    0.34
  -5   6  -2    3.02    0.41
  13  -7 -10    0.14    1.05
  -8   1 -15    6.83    1.17
   5  -6   2    3.60    0.58
   5  -6   2    2.73    0.48
   5  -6   2    2.81    0.52
  -4   6  -1    8.10    0.61
  -4   6  -1    7.88    0.56
   4  -6   1    7.56    0.69
   4  -6   1    7.47    0.65
   4  -6   1    7.51    0.75
  -3   6   0  752.40   27.26
  -3   6   0  726.12   31.37
  -3   6   0  730.53   31.42
   3  -6   0  694.76   31.84
   3  -6   0  727.09   26.15
  -2   6   1    8.51    0.70
  -2   6   1    7.39    0.64
  -2   6   1    7.27    0.71
   2  -6  -1    7.90    0.54
   2  -6  -1    7.11    0.73
   2  -6  -1    8.18    0.83
  -1   6   2    3.72    0.61
  -1   6   2    1.89    0.41
  -1   6   2    2.99    0.51
   1  -6  -2    2.65    0.56
   1  -6  -2    2.02    0.55
   1  -6  -2    2.63    0.34
   0   6   3    0.11    0.38
   0   6   3   -0.22    0.36
   0   6   3    0.01    0.35
   0  -6  -3    0.22    0.52
   0  -6  -3   -0.06    0.34
   0  -6  -3    0.03    0.21
   1   6   4    6.17    0.79
   1   6   4    4.97    0.73
   1   6   4    6.80    0.94
  -1  -6  -4    8.28    1.16
   2   5   3   27.60    1.64
   2   5   3   29.68    1.94
   2   5   3   29.26    1.67
  -2  -5  -3   29.67    2.03
   3   4   2   -0.21    0.36
   3   4   2    0.09    0.36
   3   4   2    0.52    0.53
  -3  -4  -2   -0.18    0.51
  13 -10 -16    0.03    1.11
   4   3   1    0.26    0.45
   4   3   1    0.29    0.42
   4   3   1    0.29    0.47
  -4  -3  -1    0.15    0.53
  -4  -3  -1    0.16    0.36
   5   2   0   14.50    1.40
   5   2   0   13.41    1.12
   5   2   0   14.04    1.15
  -5  -2   0   13.42    1.06
  -5  -2   0   13.59    1.43
   6   1  -1    0.34    0.62
   9  -8 -16    3.01    1.01
  -9   8  16    2.71    0.89
  -6  -1   1    0.16    0.59
  -9   8  16    2.78    0.79
  -6  -1   1    0.19    0.42
   7  -7 -16    3.45    0.94
   7   0  -2    4.82    1.04
  -7   0   2    3.63    0.70
  -7   7  16    4.07    0.92
  -7   0   2    5.17    1.10
  -7   0   2    3.86    0.70
  -7   7  16    4.00    0.77
   3  -5 -16   14.59    1.35
   9  -2  -4   12.45    1.72
  -3   5  16   15.25    1.26
  -9   2   4   10.87    1.54
  -3   5  16   13.55    1.06
  -9   2   4   10.74    1.23
 -11   7  -6    0.39    0.56
  10  -3  -5   -0.07    0.82
 -11   7  -6    0.01    0.48
 -10   3   5    0.44    0.73
 -10   3   5   -0.01    0.50
  11  -7   6    0.62    0.70
  -1  -3 -16    3.89    0.60
 -10   7  -5    0.33    0.50
  -1  -3 -16    4.46    0.82
  11  -4  -6    0.26    0.89
   1   3  16    3.16    0.66
 -11   4   6    0.16    0.74
  10  -7   5    0.03    0.59
  -3  -2 -16   13.99    1.12
  -3  -2 -16   14.84    1.31
  -3  -2 -16   15.03    1.08
  -9   7  -4    9.91    1.10
   3   2  16   16.22    1.33
   3   2  16   16.15    1.06
   9  -7   4   10.03    1.30
  -5  -1 -16    6.50    1.10
  -5  -1 -16    6.50    0.86
  -5  -1 -16    8.09    0.96
   5   1  16    8.29    1.09
  -7   7  -2    4.95    0.64
  -7   7  -2    4.44    0.59
  -7   0 -16    4.48    0.87
  -7   0 -16    3.04    0.87
  -7   0 -16    3.82    0.72
   7  -7   2    3.86    0.71
   7   0  16    5.21    1.09
  -9   1 -16    2.45    0.79
  -9   1 -16    3.64    1.05
   9  -1  16    2.91    0.99
  -5   7   0   12.81    0.91
  -5   7   0   14.19    0.88
   5  -7   0   14.18    1.14
  -4   7   1    0.36    0.28
  -4   7   1    0.34    0.28
   4  -7  -1    0.36    0.28
   4  -7  -1    0.00    0.10
   4  -7  -1    0.25    0.38
  13  -3  16    0.59    1.07
  -3   7   2    0.35    0.29
  -3   7   2   -0.01    0.28
   3  -7  -2    0.34    0.39
   3  -7  -2    0.34    0.33
   3  -7  -2   -0.15    0.21
  -2   7   3   27.79    1.50
  -2   7   3   27.92    1.68
   2  -7  -3   30.39    1.85
   2  -7  -3   25.83    1.21
   2  -7  -3   26.37    1.72
  -1   7   4    5.53    0.72
  -1   7   4    5.85    0.83
   1  -7  -4    5.09    0.80
   1  -7  -4    6.19    0.48
   1  -7  -4    5.67    0.94
   0   7   5    0.17    0.41
   0   7   5   -0.14    0.45
   0  -7  -5   -0.10    0.20
   0  -7  -5   -0.12    0.49
   1   7   6    0.24    0.49
   1   7   6   -0.02    0.48
  -1  -7  -6    0.59    0.32
  -1  -7  -6    0.59    0.71
   2   6   5    4.80    0.83
   2   6   5    3.14    0.66
   2   6   5    3.74    0.88
  -2  -6  -5    3.18    0.91
   3   5   4   14.11    1.42
   3   5   4   13.50    1.17
   3   5   4   12.32    1.15
  -3  -5  -4   13.52    1.47
   4   4   3    2.65    0.61
   4   4   3    2.82    0.78
   4   4   3    3.44    0.73
  -4  -4  -3    1.50    0.46
  -4  -4  -3    2.59    0.90
   5   3   2    0.66    0.60
   5   3   2    0.72    0.50
   5   3   2    0.31    0.47
  -5  -3  -2    1.30    0.75
  -5  -3  -2    1.65    0.55
   6   2   1   12.22    1.15
   6   2   1   12.75    1.49
  -6  -2  -1   14.99    1.66
   7   1   0   29.24    2.17
   7   1   0   24.19    1.67
  -7  -1   0   24.15    2.06
  -7  -1   0   20.79    1.59
   8  -8 -17    0.13    0.69
   8   0  -1   -0.25    0.64
  -8   8  17    0.48    0.59
  -8   0   1   -0.06    0.51
  -8   0   1    0.55    0.75
  -8   8  17   -0.51    0.44
   9  -1  -2    2.25    0.96
   6  -7 -17    2.36    0.88
  -9   1   2    2.06    0.64
  -9   1   2    4.05    1.10
  -6   7  17    3.59    0.83
  -6   7  17    2.96    0.65
   4  -6 -17    6.86    1.10
  -4   6  17    6.43    0.87
  -4   6  17    5.67    0.95
  -4   6  17    6.47    1.03
   2  -5 -17    0.52    0.55
 -13   8  -6    0.95    0.66
  11  -3  -4    1.23    0.99
  -2   5  17    0.37    0.52
  13  -8   6    0.10    0.80
 -11   3   4    0.75    0.87
  -2   5  17    0.33    0.38
 -12   8  -5    1.53    0.69
  12  -4  -5    1.53    1.05
 -12   8  -5    1.70    0.77
   0  -4 -17   -0.02    0.49
   0   4  17    0.41    0.37
   0   4  17    0.32    0.50
  12  -8   5    0.92    0.82
  -2  -3 -17    1.17    0.59
  -2  -3 -17    0.29    0.39
  -2  -3 -17    0.49    0.42
 -11   8  -4    1.11    0.57
  13  -5  -6    1.61    1.10
   2   3  17    0.75    0.44
   2   3  17    0.49    0.53
  11  -8   4    0.77    0.71
  -4  -2 -17    8.22    0.96
  -4  -2 -17    5.86    1.04
   4   2  17    5.33    0.95
   4   2  17    5.96    0.75
  -6  -1 -17    2.83    0.72
  -6  -1 -17    4.59    1.01
  -9   8  -2    2.02    0.55
  -6  -1 -17    4.09    0.78
   6   1  17    3.07    0.86
   9  -8   2    2.21    0.75
  -8   0 -17    0.25    0.58
  -8   8  -1   -0.13    0.33
  -8   0 -17   -0.18    0.60
   8  -8   1    0.09    0.19
   8  -8   1    0.15    0.20
   8  -8   1   -0.09    0.44
   8   0  17   -0.34    0.63
  -5   8   2    0.79    0.36
  -5   8   2    0.61    0.37
   5  -8  -2    0.97    0.50
   5  -8  -2   -0.11    0.27
  -4   8   3    2.70    0.52
  -4   8   3    2.65    0.51
   4  -8  -3    2.56    0.65
   4  -8  -3    2.86    0.44
   4  -8  -3    2.12    0.54
  -3   8   4   12.52    1.04
  -3   8   4   12.78    1.02
   3  -8  -4   13.20    1.26
   3  -8  -4   12.92    0.74
   3  -8  -4   10.18    1.09
  -2   8   5    3.90    0.68
  -2   8   5    3.74    0.73
   2  -8  -5    3.66    0.39
   2  -8  -5    3.32    0.73
   2  -8  -5    3.47    0.78
  -1   8   6    0.28    0.45
  -1   8   6    0.44    0.47
   1  -8  -6    1.37    0.67
   1  -8  -6    0.15    0.19
   0   8   7    0.18    0.50
   0   8   7   -0.23    0.49
   0  -8  -7    0.02    0.19
   0  -8  -7   -0.14    0.59
   1   8   8   15.11    1.42
   1   8   8   18.90    1.67
  -1  -8  -8   16.51    0.97
  -1  -8  -8   18.44    1.84
   2   7   7    0.99    0.56
   2   7   7    1.00    0.64
  -2  -7  -7    0.92    0.81
   3   6   6   42.36    2.39
   3   6   6   43.27    2.78
  -3  -6  -6   44.44    2.92
   4   5   5    8.97    1.34
   4   5   5    7.90    1.08
   4   5   5    9.03    1.08
  -4  -5  -5    8.52    1.34
   5   4   4   10.98    1.51
   5   4   4   10.44    1.17
   5   4   4   10.20    1.19
  -5  -4  -4   10.34    1.50
   6   3   3    3.15    0.92
   6   3   3    3.44    0.76
  -6  -3  -3    2.58    0.96
   7   2   2    1.00    0.74
  -7  -2  -2    1.66    0.89
   8   1   1   14.46    1.79
  -8  -1  -1   11.10    1.70
   3  -6 -18  168.24    8.11
  -3   6  18  171.90    6.91
  -3   6  18  175.83    8.03
  -3  -3 -18  180.53    7.20
  -3  -3 -18  172.99    7.22
  -3  -3 -18  178.15    8.43
   3   3  18  185.97    7.18
   3   3  18  180.89    8.40
  -5  -2 -18   75.34    3.60
  -5  -2 -18   74.29    3.48
  -5  -2 -18   75.39    4.18
   5   2  18   78.19    4.24
  -8   9   1   10.40    1.02
   8  -9  -1   10.09    1.22
  -6   9   3    3.62    0.61
  -6   9   3    2.78    0.59
   6  -9  -3    3.54    0.78
   6  -9  -3    3.45    0.78
  -5   9   4   10.70    0.95
  -5   9   4   10.18    0.97
   5  -9  -4    8.48    1.07
   5  -9  -4   10.39    1.19
  -4   9   5    6.20    0.83
  -4   9   5    7.01    0.85
  -4   9   5    7.42    0.88
   4  -9  -5    7.21    1.10
  -3   9   6   37.35    2.28
  -3   9   6   40.66    2.15
   3  -9  -6   41.15    2.56
  -2   9   7    1.15    0.56
  -2   9   7    0.84    0.52
   2  -9  -7    1.05    0.63
  -1   9   8   18.52    1.61
  -1   9   8   18.66    1.50
   1  -9  -8   19.17    1.83
   0   9   9   -0.23    0.52
   0   9   9    0.24    0.56
   0  -9  -9    0.46    0.71
   1   9  10    1.42    0.66
   1   9  10    0.40    0.73
  -1  -9 -10    0.74    0.85
   2   8   9   43.22    2.55
   2   8   9   43.57    2.95
  -2  -8  -9   47.45    3.19
   3   7   8    0.92    0.75
   3   7   8    1.26    0.66
  -3  -7  -8    1.57    0.86
   4   6   7    2.11    0.86
   4   6   7    1.05    0.58
  -4  -6  -7    1.25    0.89
   5   5   6    0.38    0.72
  -5  -5  -6    0.90    0.82
   6   4   5    0.28    0.72
  -6  -4  -5   -0.37    0.66
   7   3   4    2.14    0.93
  -7  -3  -4    1.97    0.95
   8   2   3   15.74    1.94
  -8  -2  -3   15.36    1.94
   9   1   2    4.39    1.35
  12 -11 -19    2.01    1.25
  -9  -1  -2    4.78    1.28
  10   0   1    0.18    0.90
  10 -10 -19    0.62    0.93
 -10   0  -1   -0.41    0.78
   8  -9 -19    8.64    1.51
  11  -1   0   14.53    2.04
  -8   9  19    6.23    1.03
  -8   9  19    7.11    1.26
   6  -8 -19   20.69    1.96
  -6   8  19   17.82    1.67
  -6   8  19   19.58    1.52
   4  -7 -19   -0.22    0.59
  13  -3  -2    0.29    1.05
  -4   7  19    0.09    0.57
  -4   7  19   -0.16    0.44
  -4   7  19    0.19    0.59
   2  -6 -19   18.56    1.69
  -2   6  19   16.93    1.56
  -2   6  19   14.83    1.23
   0  -5 -19   -0.34    0.51
   0   5  19    0.15    0.41
   0   5  19    0.13    0.54
  -2  -4 -19   16.66    1.59
  -2  -4 -19   15.41    1.30
   2   4  19   15.44    1.12
   2   4  19   15.92    1.57
  -4  -3 -19   -0.36    0.46
 -13  10  -2    0.03    0.61
  -4  -3 -19    0.07    0.40
  -4  -3 -19   -0.29    0.59
  13 -10   2    0.13    0.82
   4   3  19   -0.46    0.58
 -11  10   0   14.10    1.39
  -8  -1 -19    8.90    1.56
  11 -10   0   15.08    1.68
   8   1  19    9.78    1.61
 -10  10   1   -0.12    0.47
  10 -10  -1   -0.29    0.56
  10   0  19   -0.20    0.81
  -9  10   2    4.93    0.84
  12  -1  19    1.40    1.18
   9 -10  -2    4.02    0.96
  -8  10   3   12.97    1.19
   8 -10  -3   14.00    1.47
  -7  10   4    2.32    0.63
   7 -10  -4    2.55    0.76
  -6  10   5   -0.04    0.42
   6 -10  -5   -0.28    0.50
  -5  10   6    0.42    0.46
   5 -10  -6    0.30    0.56
  -4  10   7    1.15    0.52
   4 -10  -7    1.23    0.70
  -3  10   8    0.95    0.53
   3 -10  -8    1.07    0.70
  -2  10   9   46.31    2.60
   2 -10  -9   47.39    3.12
  -1  10  10    0.86    0.60
   1 -10 -10    1.72    0.84
   0  10  11   -0.37    0.52
   0 -10 -11   -0.06    0.77
  -1 -10 -12   74.61    4.68
  -2  -9 -11    1.14    0.95
   3   8  10   12.76    1.64
  -3  -8 -10   12.95    1.77
   4   7   9   81.18    4.70
  -4  -7  -9   83.05    4.90
   5   6   8   19.03    1.99
  -5  -6  -8   20.53    2.23
   6   5   7    1.54    0.91
  -6  -5  -7    0.81    0.88
   7   4   6    0.29    0.79
  -7  -4  -6    0.86    0.89
   8   3   5    3.28    1.11
  -8  -3  -5    3.58    1.14
   9   2   4    8.23    1.60
  -9  -2  -4    7.81    1.63
  10   1   3   13.03    2.05
 -10  -1  -3   12.89    2.02
  11   0   2    1.32    1.09
  11 -11 -20    0.08    1.04
 -11   0  -2    0.81    1.00
  12  -1   1    2.53    1.40
   9 -10 -20    9.75    1.71
   7  -9 -20   13.58    1.74
  -7   9  20   12.04    1.31
  -7   9  20   11.60    1.52
   5  -8 -20   11.38    1.51
  -5   8  20   12.17    1.40
  -5   8  20    9.61    1.17
   3  -7 -20    4.01    1.04
  -3   7  20    4.24    0.96
  -3   7  20    3.50    0.73
   1  -6 -20   14.33    1.60
  -1   6  20   14.40    1.51
  -1   6  20   11.87    1.15
  -1  -5 -20   12.48    1.43
  -1  -5 -20   10.84    1.06
   1   5  20   10.93    1.33
   1   5  20   12.97    1.14
  -3  -4 -20    2.97    0.68
  -3  -4 -20    4.20    1.04
   3   4  20    3.65    0.92
   3   4  20    3.38    0.75
  -5  -3 -20   11.16    1.30
  -5  -3 -20   13.66    1.64
   5   3  20   12.34    1.61
  -7  -2 -20   12.27    1.66
   7   2  20   12.98    1.78
 -12  11   1    4.19    0.95
  12 -11  -1    2.53    1.04
   9   1  20    8.92    1.59
 -11  11   2   -0.36    0.58
  11 -11  -2    0.60    0.78
  11   0  20    0.52    1.00
 -10  11   3    8.80    1.18
  10 -11  -3   10.03    1.48
  -9  11   4    6.93    0.99
   9 -11  -4    6.30    1.19
  -8  11   5    3.44    0.77
   8 -11  -5    3.44    0.96
  -7  11   6    0.46    0.54
   7 -11  -6    0.25    0.64
  -6  11   7    0.44    0.51
   6 -11  -7    0.90    0.71
  -5  11   8   17.50    1.49
   5 -11  -8   20.08    1.88
  -4  11   9   79.15    3.81
   4 -11  -9   77.94    4.48
  -3  11  10    9.03    1.17
   3 -11 -10   12.57    1.71
  -2  11  11    0.75    0.69
   2 -11 -11    1.61    0.97
   1 -11 -12   72.35    4.50
   0 -11 -13   -0.14    0.81
  -1 -11 -14   -1.43    0.80
  -2 -10 -13   -0.20    0.92
  -3  -9 -12    5.33    1.54
   4   8  11   -0.73    0.66
  -4  -8 -11    0.42    0.93
   5   7  10    6.97    1.43
  -5  -7 -10    5.44    1.44
   6   6   9    0.75    0.90
  -6  -6  -9    1.12    1.03
   7   5   8    4.49    1.29
  -7  -5  -8    5.47    1.47
   8   4   7   -0.07    0.83
  -8  -4  -7   -0.36    0.80
   9   3   6   35.24    3.04
  -9  -3  -6   35.28    3.08
  10   2   5   -0.11    0.86
 -10  -2  -5   -0.77    0.81
  11   1   4    3.76    1.43
 -11  -1  -4    3.31    1.31
  12   0   3    0.57    1.24
  10 -11 -21   14.40    2.17
   8 -10 -21    7.62    1.53
  -8  10  21    7.10    1.20
   6  -9 -21   -0.17    0.74
  -6   9  21    0.37    0.54
  -6   9  21    0.40    0.62
   4  -8 -21    5.24    1.15
  -4   8  21    6.30    1.13
  -4   8  21    4.38    0.79
   2  -7 -21   28.14    2.22
  -2   7  21   22.91    1.65
  -2   7  21   24.75    2.02
   0  -6 -21    0.00    0.61
   0   6  21   -0.03    0.41
   0   6  21   -0.61    0.56
  -2  -5 -21   28.62    2.30
   2   5  21   26.04    2.16
  -4  -4 -21    5.48    1.16
   4   4  21    6.93    1.24
  -6  -3 -21    0.17    0.70
   6   3  21    4.11    1.18
  -8  -2 -21    8.50    1.61
   8   2  21   10.35    1.74
 -12  12   3    0.41    0.67
  12 -12  -3    0.27    0.83
 -11  12   4    1.67    0.73
  11 -12  -4    3.08    1.05
 -10  12   5   -0.19    0.57
  10 -12  -5   -0.13    0.68
  -9  12   6   32.66    2.19
   9 -12  -6   33.71    2.61
  -8  12   7    0.12    0.57
   8 -12  -7   -0.63    0.61
  -7  12   8    3.79    0.90
   7 -12  -8    3.25    1.00
  -6  12   9    0.79    0.59
   6 -12  -9    1.02    0.78
  -5  12  10    6.66    1.13
   5 -12 -10    5.86    1.26
  -4  12  11    0.06    0.55
   4 -12 -11   -0.64    0.68
  -3  12  12    5.64    1.10
   3 -12 -12    4.92    1.35
   2 -12 -13    0.40    0.90
   1 -12 -14    0.30    0.98
   0 -12 -15   -0.23    0.98
  -2 -11 -15   10.34    2.04
  -3 -10 -14    5.60    1.55
  -4  -9 -13   -0.42    0.93
  -5  -8 -12   43.29    3.55
   6   7  11    0.42    0.92
  -6  -7 -11    0.83    1.12
   7   6  10   -0.42    0.87
  -7  -6 -10    0.44    1.15
   8   5   9   35.52    3.16
  -8  -5  -9   33.78    3.21
   9   4   8    1.00    1.05
  -9  -4  -8    1.38    1.15
  10   3   7    0.42    1.03
 -10  -3  -7   -0.30    0.97
  11   2   6    0.08    0.98
 -11  -2  -6    0.15    1.00
  12   1   5    0.95    1.18
  11 -12 -22   12.90    2.22
   9 -11 -22   18.33    2.28
   7 -10 -22    2.48    1.09
   5  -9 -22   29.84    2.45
  -5   9  22   26.19    2.16
  -5   9  22   27.73    2.20
  -5   9  22   23.67    1.82
   3  -8 -22   29.81    2.42
  -3   8  22   30.51    1.98
  -3   8  22   31.99    2.35
   1  -7 -22   20.70    2.02
  -1   7  22   20.74    1.85
  -1   7  22   18.48    1.51
  -1  -6 -22   20.88    2.03
   1   6  22   21.34    1.98
  -3  -5 -22   31.49    2.54
   3   5  22   33.87    2.54
  -5  -4 -22   28.44    2.45
   5   4  22   26.61    2.31
  -7  -3 -22    2.98    1.11
   7   3  22    2.04    1.05
   9   2  22   17.07    2.34
  11   1  22   10.99    2.04
 -12  13   5    3.09    0.95
  12 -13  -5    1.13    1.00
 -11  13   6    0.03    0.68
  11 -13  -6    0.89    0.94
 -10  13   7   -0.03    0.63
  10 -13  -7   -0.45    0.73
  -9  13   8    2.95    0.93
   9 -13  -8    1.99    1.03
  -8  13   9   33.91    2.38
   8 -13  -9   34.89    2.80
  -7  13  10    0.28    0.63
   7 -13 -10   -0.28    0.77
  -6  13  11    0.58    0.66
   6 -13 -11   -0.37    0.75
  -5  13  12   34.96    2.50
   5 -13 -12   40.93    3.16
   4 -13 -13   -0.30    0.89
   3 -13 -14    3.89    1.37
   2 -13 -15   10.45    1.91
  -5  -9 -14    0.22    1.11
  -6  -8 -13    0.30    1.11
  -7  -7 -12   74.33    5.18
   8   6  11    0.51    1.06
  -8  -6 -11   -0.31    0.99
   9   5  10    5.67    1.69
  -9  -5 -10    5.04    1.72
  10   4   9   28.05    3.04
 -10  -4  -9   24.92    2.99
  10 -12 -23    1.05    1.13
   8 -11 -23    0.39    0.93
   6 -10 -23    0.65    0.86
   4  -9 -23    7.15    1.36
  -4   9  23    6.48    1.22
  -4   9  23    4.40    0.85
   2  -8 -23   13.03    1.67
  -2   8  23   11.89    1.40
  -2   8  23   13.29    1.59
   0  -7 -23   -0.25    0.72
   0   7  23   -0.18    0.65
  -2  -6 -23   14.60    1.81
   2   6  23   14.88    1.80
  -4  -5 -23    7.58    1.48
   4   5  23    7.67    1.40
  -6  -4 -23   -0.28    0.76
   6   4  23   -0.43    0.77
  -8  -3 -23    0.85    0.97
   8   3  23    0.23    0.96
  10   2  23   -0.22    1.04
 -11  14   8    2.93    1.05
 -10  14   9   24.46    2.16
  10 -14  -9   25.07    2.49
  -9  14  10    5.08    1.20
   9 -14 -10    6.20    1.47
  -8  14  11    0.43    0.73
   8 -14 -11    0.69    0.99
  -7  14  12   60.22    3.61
   7 -14 -12   68.11    4.35
   6 -14 -13    0.56    0.96
   5 -14 -14   -0.46    0.89
   9 -12 -24    3.16    1.39
   7 -11 -24   66.01    4.40
   5 -10 -24   40.46    3.14
   3  -9 -24   11.83    1.77
  -3   9  24   11.67    1.59
   1  -8 -24   85.50    4.97
  -1   8  24   83.73    4.83
  -1  -7 -24   88.51    5.05
   1   7  24   83.54    4.89
  -3  -6 -24   12.98    1.93
   3   6  24   11.96    1.64
  -5  -5 -24   38.19    3.10
   5   5  24   40.78    3.04
  -7  -4 -24   65.12    4.37
   7   4  24   65.88    4.33
   9   3  24    2.21    1.39
   8 -12 -25    1.06    1.17
   6 -11 -25    1.02    1.03
   4 -10 -25    0.08    0.81
   2  -9 -25    0.68    0.93
  -2   9  25    0.45    0.76
   0  -8 -25    0.19    0.90
   0   8  25    0.02    0.74
  -2  -7 -25   -0.34    0.80
   2   7  25    0.40    0.85
  -4  -6 -25   -0.05    0.82
   4   6  25    0.53    0.89
  -6  -5 -25    0.91    1.01
   6   5  25    0.89    1.06
   8   4  25   -0.50    0.97
   7 -12 -26    3.91    1.38
   5 -11 -26    1.94    1.13
   3 -10 -26   22.47    2.47
   1  -9 -26    0.73    0.98
  -1   9  26    0.56    0.89
  -1  -8 -26    1.81    1.04
   1   8  26    1.03    0.93
  -3  -7 -26   20.51    2.38
   3   7  26   20.58    2.31
  -5  -6 -26    0.42    1.01
   5   6  26    1.87    1.13
  -7  -5 -26    3.65    1.37
   7   5  26    3.31    1.36
   6 -12 -27    2.60    1.31
   4 -11 -27   53.86    3.97
   2 -10 -27   36.37    3.20
   0  -9 -27   -0.44    0.94
   0   9  27   -0.29    0.81
  -2  -8 -27   35.40    3.18
   2   8  27   37.04    3.06
  -4  -7 -27   55.03    4.04
   4   7  27   53.24    3.93
  -6  -6 -27    0.60    1.06
   6   6  27    0.91    1.14
   5 -12 -28    0.14    1.04
   3 -11 -28    0.23    1.02
   1 -10 -28    0.44    1.11
  -1  -9 -28    0.38    0.98
   1   9  28   -0.12    0.87
  -3  -8 -28    0.70    1.06
   3   8  28    0.10    0.94
  -5  -7 -28    0.13    1.05
   5   7  28    0.46    1.09
   4 -12 -29    0.17    1.12
   2 -11 -29    0.51    1.17
   0 -10 -29    0.17    1.10
  -2  -9 -29   -0.24    0.94
   2   9  29   -0.33    0.92
  -4  -8 -29   -0.22    1.07
   4   8  29   -0.14    1.05
   1 -11 -30    4.17    1.65
  -1 -10 -30    4.49    1.60
   0   0 -12  114.63    5.15
   0   0 -12  119.02    4.41
   0   0  12  117.43    4.24
   0   0  12  106.24    5.11
   0   0  12  120.05    4.36
   2   0 -10   61.99    3.04
   2   0 -10   62.91    2.51
  -2   0  10   60.01    3.02
  -2   0  10   57.09    2.93
  -2   0  10   62.83    2.49
  -2   0  10   63.77    2.54
   2  -2  10   59.92    2.37
   2  -2  10   56.86    2.61
   2  -2  10   61.53    2.63
   1   2  -7   13.57    0.89
   7  -5 -15   15.11    1.55
   1   2  -7   13.63    0.75
   1   2  -7   13.44    0.73
  -7   5  15   12.66    1.18
  -1  -2   7   13.16    0.92
  -1  -2   7   13.23    0.94
  -7   5  15   14.63    1.44
  -5   3 -11    5.54    0.58
  -5   3 -11    4.88    0.58
  -5   3 -11    5.51    0.56
   1  -2 -15    9.74    0.71
   4  -1 -10    8.11    0.72
   4  -1 -10    7.33    1.01
   1  -2 -15    7.76    0.85
  -4   1  10    7.32    0.78
   5  -3  11    5.38    0.71
  -1   2  15    8.22    0.59
   5  -3  11    5.35    0.69
  -1   2  15    7.94    0.47
  -1   2  15    7.39    0.83
  -4   1  10    8.11    0.92
  -4   3 -10    6.63    0.48
   5  -2 -11    5.20    0.97
  -1  -1 -15    7.65    0.80
  -1  -1 -15    9.54    0.68
  -5   2  11    4.74    0.81
   1   1  15    8.45    0.55
   1   1  15    7.53    0.60
  -5   2  11    4.69    0.64
   4  -3  10    7.58    0.60
   1   1  15    7.19    0.73
   4  -3  10    7.19    0.64
   4  -3  10    6.40    0.68
   1   1  15    8.36    0.81
   7  -4 -13    2.25    0.87
  -5   1 -15    4.05    0.71
  -5   1 -15    3.94    0.57
  -5   1 -15    4.30    0.64
   5  -1  15    4.00    0.73
   5  -1  15    3.24    0.64
  -7   2 -15   14.88    1.34
  -7   2 -15   15.02    1.23
  -7   2 -15   15.90    1.18
   1  -3   7   12.82    0.73
   1  -3   7   13.64    0.73
   7  -2  15   12.61    1.30
   7  -2  15   15.05    1.43
   1  -3   7   13.93    0.78
   1   3  -5    3.86    0.45
   1   3  -5    3.84    0.46
   1   3  -5    3.55    0.52
  10  -7 -16    0.96    0.95
 -11   4 -15    6.70    1.09
  -1  -3   5    3.28    0.53
  11  -4  15    7.65    1.38
  -1  -3   5    3.15    0.55
 -10   4 -14    4.33    0.91
 -10   4 -14    6.23    1.01
  10  -4  14    4.94    1.13
  -8   6  16   10.00    1.19
  -9   4 -13    4.53    0.84
   3   1  -7    2.22    0.43
   3   1  -7    1.63    0.37
   3   1  -7    1.50    0.55
  -9   4 -13    3.92    0.78
  -9   4 -13    4.27    0.81
   6  -5 -16    4.92    0.97
  -3  -1   7    2.38    0.59
  -3  -1   7    1.88    0.36
   9  -4  13    4.23    0.90
  -3  -1   7    1.51    0.51
   0  -2 -16   25.67    1.24
  -6   4 -10   17.12    1.09
   6  -2 -10   18.77    1.74
  -6   4 -10   17.12    1.18
   0  -2 -16   23.23    1.48
  -6   2  10   18.19    1.59
   0   2  16   22.85    1.42
  -6   2  10   19.73    1.43
  -6   2  10   17.91    1.30
   6  -4  10   18.55    1.37
   0   2  16   25.26    1.20
   0   2  16   23.05    0.95
   9  -5 -13    3.84    1.09
  -6   1 -16    7.74    0.86
  -6   1 -16    7.30    0.87
  -6   1 -16    5.24    0.88
  -9   5  13    3.74    0.81
   6  -1  16    5.32    0.88
  -9   5  13    4.18    1.05
   6  -1  16    6.04    0.95
  10  -6 -14    5.25    1.31
  -8   2 -16    9.98    1.15
 -10   6  14    5.64    1.25
 -10   6  14    4.92    0.93
  11  -7 -15    7.08    1.49
  -1   4  -5    3.03    0.33
  -1   4  -5    3.33    0.29
  -1   4  -5    3.11    0.27
   1  -4   5    3.70    0.43
   1  -4   5    3.40    0.41
   1  -4   5    3.45    0.45
   0   4  -4    7.47    0.64
   0   4  -4    7.34    0.56
   0   4  -4    7.82    0.57
   0  -4   4    6.73    0.66
   0  -4   4    7.03    0.71
   0  -4   4    7.99    0.59
   1   4  -3   12.85    0.86
   1   4  -3   12.87    0.85
   1   4  -3   12.26    0.95
  -1  -4   3   12.38    1.04
  -1  -4   3   11.49    0.98
   2   3  -4   38.01    1.79
   2   3  -4   37.37    2.09
   2   3  -4   39.75    1.80
  -2  -3   4   40.39    2.19
  -2  -3   4   35.95    2.09
   4   1  -6   -0.04    0.30
   4   1  -6    0.45    0.47
 -11   5 -13    1.67    0.70
   4   1  -6    0.65    0.41
 -11   5 -13    0.80    0.62
   7  -6 -17    2.64    0.89
  -4  -1   6    0.53    0.35
  11  -5  13    1.31    0.80
  -7   6  17    3.75    0.91
  -4  -1   6    0.32    0.45
  -7   6  17    2.23    0.62
   8  -3 -10   31.28    2.44
  -8   3  10   31.49    2.31
  -8   3  10   28.96    1.86
  -8   3  10   33.88    2.07
  -7   1 -17    3.45    0.70
  11  -6 -13    1.62    1.08
  -7   1 -17    2.83    0.69
  -7   1 -17    2.63    0.79
 -11   6  13    2.48    1.06
   7  -1  17    3.24    0.85
  -9   2 -17    4.07    0.92
  -9   2 -17    2.87    0.88
  -9   2 -17    2.37    0.72
   9  -2  17    3.20    0.97
  -2   5  -4   36.92    1.46
  -2   5  -4   36.45    1.47
  -2   5  -4   35.91    1.69
   2  -5   4   37.37    1.60
   2  -5   4   38.73    1.86
   2  -5   4   36.09    1.81
  -1   5  -3   12.03    0.72
  -1   5  -3   12.29    0.83
  -1   5  -3   12.92    0.75
   1  -5   3   12.57    0.94
   1  -5   3   12.77    0.74
   0   5  -2    6.54    0.63
   0   5  -2    6.68    0.64
   0   5  -2    5.30    0.63
   0  -5   2    5.38    0.71
   0  -5   2    6.13    0.78
   0  -5   2    5.78    0.52
   1   5  -1   18.97    1.19
   1   5  -1   19.75    1.36
   1   5  -1   21.04    1.23
  -1  -5   1   17.33    1.36
  -1  -5   1   19.22    1.46
   2   4  -2    1.50    0.53
   2   4  -2    2.04    0.46
   2   4  -2    1.98    0.48
  -2  -4   2    1.54    0.57
  -2  -4   2    1.36    0.49
   4   2  -4   22.92    1.36
   4   2  -4   21.16    1.34
   4   2  -4   21.75    1.65
  -4  -2   4   21.45    1.30
  -4  -2   4   23.31    1.70
   5   1  -5    6.48    0.79
   5   1  -5    8.07    1.13
   5   1  -5    7.02    0.85
  -5  -1   5    7.67    0.75
  -5  -1   5    7.03    1.12
   6   0  -6   57.39    3.31
  -6   0   6   59.03    3.31
  -6   0   6   53.74    2.65
   0   3  18  182.04    7.09
  -6   6  -6   55.24    2.23
   6  -6   6   50.28    2.64
   6  -6   6   56.13    2.73
  -4   6  -4   19.85    0.87
   4  -6   4   20.01    1.11
   4  -6   4   19.38    1.17
   4  -6   4   19.54    1.15
  -2   6  -2    2.01    0.37
  -2   6  -2    1.72    0.35
  -2   6  -2    1.47    0.31
   2  -6   2    1.65    0.32
   2  -6   2    2.02    0.45
  -1   6  -1   18.43    1.07
  -1   6  -1   19.08    1.21
  -1   6  -1   19.18    1.10
   1  -6   1   18.31    1.33
   1  -6   1   18.21    0.97
   1  -6   1   17.09    1.22
   0   6   0  947.94   34.43
   0   6   0 1000.00   33.86
   0   6   0  912.82   39.69
   0  -6   0  808.19   39.05
   0  -6   0  960.29   39.18
   0  -6   0  907.55   33.01
   1   6   1    0.32    0.41
   1   6   1    0.32    0.42
   1   6   1    0.36    0.44
  -1  -6  -1    0.15    0.51
  -1  -6  -1    0.23    0.28
   2   5   0   14.62    1.11
   2   5   0   14.40    1.30
   2   5   0   15.12    1.16
  -2  -5   0   14.40    1.40
   3   4  -1    0.31    0.51
   3   4  -1   -0.15    0.39
   3   4  -1    0.37    0.37
  -3  -4   1   -0.42    0.45
  13 -10 -19    0.75    1.23
   4   3  -2    0.28    0.54
   4   3  -2    0.07    0.42
   4   3  -2    0.45    0.44
  -4  -3   2    0.03    0.33
  -4  -3   2    0.22    0.58
   5   2  -3   27.87    1.66
   5   2  -3   30.89    2.11
   5   2  -3   27.98    1.70
  -5  -2   3   29.89    1.68
  -5  -2   3   27.80    2.07
   9  -8 -19    9.24    1.60
   6   1  -4    7.60    1.19
   6   1  -4    7.29    0.93
  -9   8  19    7.42    1.32
  -9   8  19    7.61    1.17
  -6  -1   4    5.86    1.06
 -12   7 -10    6.71    1.14
 -12   7 -10    6.23    1.03
  12  -7  10    6.37    1.26
  12  -5 -10    5.80    1.44
  -9   1 -19    6.31    1.03
  -6   7  -4    6.28    0.60
   9  -1  19    8.67    1.44
   6  -7   4    5.31    0.68
   6  -7   4    6.01    0.79
  -5   7  -3   26.59    1.26
   5  -7   3   28.40    1.45
   5  -7   3   25.26    1.53
   5  -7   3   26.76    1.59
  -4   7  -2    0.20    0.22
  -4   7  -2    0.23    0.23
   4  -7   2    0.18    0.28
   4  -7   2    0.26    0.29
  13  -3  19   -0.85    0.93
   4  -7   2    0.16    0.33
  -3   7  -1    0.06    0.24
  -3   7  -1    0.32    0.27
  -3   7  -1    0.08    0.24
   3  -7   1   -0.05    0.08
   3  -7   1    0.07    0.32
   3  -7   1    0.07    0.25
  -2   7   0   12.89    0.93
  -2   7   0   14.14    1.02
  -2   7   0   14.52    0.99
   2  -7   0   13.27    0.80
   2  -7   0   14.06    1.18
   2  -7   0   13.36    1.08
  -1   7   1    0.24    0.39
  -1   7   1    0.66    0.37
  -1   7   1    0.68    0.40
   1  -7  -1    0.27    0.23
   1  -7  -1   -0.02    0.37
   1  -7  -1    0.27    0.50
   0   7   2    4.95    0.74
   0   7   2    4.49    0.67
   0   7   2    4.23    0.75
   0  -7  -2    4.27    0.89
   0  -7  -2    4.30    0.87
   0  -7  -2    4.79    0.53
   1   7   3   27.01    1.72
   1   7   3   27.80    1.72
   1   7   3   25.76    1.89
  -1  -7  -3   27.45    1.41
  -1  -7  -3   29.28    2.16
   2   6   2    3.29    0.69
   2   6   2    2.03    0.67
   2   6   2    3.28    0.68
  -2  -6  -2    2.91    0.81
   3   5   1    4.09    0.74
   3   5   1    4.71    0.87
   3   5   1    4.45    0.78
  -3  -5  -1    3.58    0.87
   4   4   0   25.82    1.62
   4   4   0   25.04    1.91
   4   4   0   24.07    1.61
  -4  -4   0   26.02    2.03
   5   3  -1    4.32    0.77
   5   3  -1    5.61    1.08
   5   3  -1    3.82    0.71
  -5  -3   1    3.31    0.62
  -5  -3   1    4.35    1.00
   6   2  -2    1.78    0.85
  12 -10 -20    6.23    1.65
  -6  -2   2    2.34    0.86
  -6  -2   2    2.04    0.61
   8  -8 -20    6.55    1.32
  -8   8  20    4.17    0.86
  -8   8  20    6.26    1.23
  -8   0   4    1.88    0.83
   6  -7 -20    6.28    1.26
   9  -1  -5    7.19    1.43
  -6   7  20    4.43    0.79
  -9   1   5    6.36    1.28
  -6   7  20    5.41    1.08
 -14   8 -10    2.85    0.93
  14  -8  10    4.46    1.27
 -13   8  -9   28.36    2.18
   2  -5 -20   30.31    2.14
  -2   5  20   30.48    1.76
  -2   5  20   33.64    2.17
  13  -8   9   30.96    2.64
 -12   8  -8    4.75    1.00
 -12   8  -8    4.97    0.97
  12  -4  -8    6.10    1.53
  12  -8   8    4.35    1.09
  -2  -3 -20   32.39    1.85
  -2  -3 -20   33.95    2.26
  13  -5  -9   35.46    3.23
   2   3  20   31.51    2.18
   2   3  20   32.57    1.78
  14  -6 -10    4.75    1.66
  -9   8  -5    4.98    0.72
  -6  -1 -20    5.33    0.81
  -6  -1 -20    5.57    1.04
  -6  -1 -20    3.90    0.80
   9  -8   5    4.77    0.87
   6   1  20    5.48    1.15
  -8   0 -20    5.11    0.96
  -8   0 -20    4.25    1.02
  -8   8  -4    1.48    0.45
   8  -8   4    0.73    0.51
   8  -8   4    1.36    0.51
   8  -8   4    0.80    0.45
   8   0  20    4.78    1.17
  -7   8  -3   26.97    1.45
   7  -8   3   25.20    1.66
   7  -8   3   28.94    1.80
  -6   8  -2    2.27    0.43
   6  -8   2    2.38    0.60
   6  -8   2    2.65    0.57
  12  -2  20    8.07    1.69
  -5   8  -1    3.67    0.51
   5  -8   1    3.57    0.65
   5  -8   1    3.21    0.56
   5  -8   1    4.04    0.69
  -4   8   0   24.09    1.37
  -4   8   0   24.66    1.34
   4  -8   0   23.91    1.62
   4  -8   0   24.53    1.26
  -3   8   1    4.24    0.62
  -3   8   1    3.71    0.59
   3  -8  -1    4.12    0.49
   3  -8  -1    4.09    0.72
   3  -8  -1    3.61    0.69
  -2   8   2    2.69    0.59
  -2   8   2    2.30    0.54
   2  -8  -2    2.00    0.56
   2  -8  -2    2.29    0.68
   2  -8  -2    2.73    0.40
  -1   8   3   27.63    1.63
  -1   8   3   25.63    1.73
   1  -8  -3   22.42    1.78
   1  -8  -3   27.81    1.96
   1  -8  -3   26.46    1.25
   0   8   4    2.02    0.67
   0   8   4    1.32    0.55
   0  -8  -4    1.65    0.36
   0  -8  -4    1.35    0.69
   1   8   5    4.59    0.82
   1   8   5    5.80    1.05
  -1  -8  -5    5.66    1.17
  -1  -8  -5    5.36    0.60
   2   7   4   10.65    1.32
   2   7   4   12.38    1.22
   2   7   4   10.77    1.15
  -2  -7  -4   11.13    1.51
   3   6   3    2.09    0.60
   3   6   3    2.65    0.79
   3   6   3    2.13    0.66
  -3  -6  -3    2.52    0.86
   4   5   2    8.13    1.24
   4   5   2    7.21    1.00
   4   5   2    8.70    1.12
  -4  -5  -2    7.68    1.26
   5   4   1    8.19    1.25
   5   4   1    7.42    1.00
   5   4   1    7.09    0.99
  -5  -4  -1    9.24    1.46
   6   3   0  410.46   17.72
   6   3   0  366.05   15.15
  -6  -3   0  413.69   17.79
   7   2  -1    2.70    1.01
  -7  -2   1    2.50    0.95
   8   1  -2    3.15    1.10
  11 -10 -21   15.18    2.25
   9   0  -3    0.14    0.79
   9  -9 -21    0.03    0.82
  -9   0   3    0.22    0.74
   7  -8 -21    9.59    1.52
  -7   8  21   12.84    1.52
  -7   8  21    8.67    1.17
   5  -7 -21   20.30    1.93
  -5   7  21   18.25    1.72
  -5   7  21   19.54    1.48
 -14   9  -8    8.17    1.28
  14  -9   8   10.05    1.68
  14  -5  -8   11.60    2.19
  -5  -2 -21   18.98    1.45
  -5  -2 -21   20.95    1.85
  -5  -2 -21   17.15    1.49
   5   2  21   20.77    1.83
  -7  -1 -21    9.76    1.50
  -7  -1 -21   11.51    1.43
   7   1  21   12.34    1.63
  -9   9  -3   -0.38    0.36
   9  -9   3    0.40    0.53
   9   0  21   -0.14    0.77
  -7   9  -1    2.16    0.51
   7  -9   1    2.53    0.63
   7  -9   1    2.67    0.69
  -6   9   0  355.66   12.73
   6  -9   0  303.89   14.70
   6  -9   0  353.93   14.83
  -5   9   1    8.33    0.84
  -5   9   1    7.27    0.79
   5  -9  -1    7.18    0.72
   5  -9  -1    7.52    1.00
  -4   9   2    6.90    0.77
  -4   9   2    7.98    0.87
   4  -9  -2    7.38    0.92
   4  -9  -2    7.95    1.06
   4  -9  -2    7.34    0.67
  -3   9   3    2.78    0.59
  -3   9   3    2.74    0.60
   3  -9  -3    2.55    0.41
   3  -9  -3    1.81    0.65
  -2   9   4   10.58    1.07
  -2   9   4   10.41    1.08
   2  -9  -4   10.76    1.32
   2  -9  -4    9.87    0.67
  -1   9   5    6.73    0.96
  -1   9   5    5.66    0.94
   1  -9  -5    4.60    0.99
   0   9   6   33.38    2.14
   0   9   6   36.07    2.43
   0  -9  -6   36.00    2.62
   1   9   7    3.12    0.78
  -1  -9  -7    3.37    1.05
   2   8   6   -0.16    0.56
   2   8   6    0.25    0.55
  -2  -8  -6    0.05    0.34
  -2  -8  -6   -0.05    0.75
   3   7   5   -0.04    0.45
   3   7   5    0.15    0.59
  -3  -7  -5    0.41    0.76
   4   6   4   -0.19    0.50
   4   6   4    0.37    0.62
  -4  -6  -4    0.65    0.75
   5   5   3   29.33    2.31
   5   5   3   27.94    1.93
  -5  -5  -3   30.41    2.44
   6   4   2    0.32    0.71
  -6  -4  -2    0.25    0.71
   7   3   1    0.38    0.75
  -7  -3  -1    0.70    0.85
   8   2   0    3.54    1.20
  -8  -2   0    2.65    1.04
   9   1  -1    0.56    0.92
  12 -11 -22   10.26    1.99
  10 -10 -22    1.34    1.11
  10   0  -2   -0.07    0.95
 -10   0   2    1.15    0.99
  11  -1  -3   18.62    2.45
   8  -9 -22   27.84    2.46
  -8   9  22   28.19    2.26
   6  -8 -22   42.24    2.98
  -6   8  22   42.58    2.77
  -6   8  22   38.13    2.35
   4  -7 -22    7.69    1.33
  -4   7  22    6.51    1.18
  -4   7  22    7.37    1.26
  -4   7  22    5.47    0.89
   2  -6 -22   38.94    2.62
  -2   6  22   36.73    2.46
  -2   6  22   36.17    2.08
   0  -5 -22   49.61    3.12
   0   5  22   46.40    2.48
   0   5  22   52.51    3.06
  -2  -4 -22   36.09    2.54
  -2  -4 -22   35.13    2.11
   2   4  22   39.39    2.55
   2   4  22   35.39    2.01
  -4  -3 -22    4.98    0.85
  -4  -3 -22    5.95    1.15
  -4  -3 -22    5.17    0.82
   4   3  22    6.90    1.24
  -6  -2 -22   42.65    2.93
  -6  -2 -22   39.44    2.48
   6   2  22   44.47    2.96
 -11  10  -3   13.91    1.38
  11 -10   3   15.89    1.69
 -10  10  -2    0.35    0.49
  10 -10   2    0.68    0.65
  10   0  22    1.43    1.07
  12  -1  22    9.44    1.86
  -8  10   0    2.26    0.59
   8 -10   0    4.86    0.91
  -7  10   1    0.42    0.42
   7 -10  -1    0.62    0.55
  -6  10   2    0.37    0.41
   6 -10  -2   -0.09    0.46
  -5  10   3   29.41    1.75
   5 -10  -3   29.54    2.08
  -4  10   4    0.40    0.43
   4 -10  -4   -0.04    0.53
  -3  10   5    0.08    0.44
   3 -10  -5    0.35    0.60
  -2  10   6    1.06    0.55
   2 -10  -6    0.40    0.63
  -1  10   7    2.87    0.78
   1 -10  -7    2.96    0.95
   0  10   8    0.27    0.59
   0 -10  -8    0.44    0.76
  -1 -10  -9   58.49    3.91
  -2  -9  -8   16.56    2.00
   3   8   7    0.68    0.71
  -3  -8  -7    0.85    0.90
   4   7   6    1.09    0.82
  -4  -7  -6    0.99    0.99
   5   6   5    1.48    0.85
  -5  -6  -5    1.37    0.93
   6   5   4    6.00    1.28
  -6  -5  -4    4.52    1.28
   7   4   3   12.29    1.80
  -7  -4  -3   12.57    1.93
   8   3   2    0.30    0.88
  -8  -3  -2    1.58    1.00
   9   2   1    4.15    1.31
  -9  -2  -1    5.02    1.30
  10   1   0   15.69    2.12
 -10  -1   0   15.09    2.11
  11   0  -1    0.44    1.09
  11 -11 -23    0.00    1.06
 -11   0   1    0.11    0.96
  12  -1  -2   -0.69    1.06
   9 -10 -23   -0.01    0.83
 -12   1   2   -0.31    0.90
   7  -9 -23    0.21    0.86
  -7   9  23    0.58    0.67
   5  -8 -23    0.51    0.78
  14  -3  -4    0.90    1.27
  -5   8  23    0.42    0.66
  -5   8  23    0.53    0.56
  -5   8  23    0.10    0.61
   3  -7 -23    1.27    0.83
  -3   7  23    1.11    0.54
  -3   7  23    1.98    0.82
   1  -6 -23   13.62    1.65
  -1   6  23   11.79    1.19
  -1   6  23   14.53    1.61
  -1  -5 -23   13.09    1.61
  -3  -4 -23    1.65    0.66
  -3  -4 -23    1.36    0.76
   3   4  23    1.81    0.79
  -5  -3 -23    0.82    0.80
 -14  11  -4    0.08    0.66
  14 -11   4   -0.17    0.83
   5   3  23    1.24    0.83
 -13  11  -3   10.73    1.43
  13 -11   3   10.15    1.64
 -12  11  -2    0.18    0.60
  12 -11   2   -0.08    0.71
   9   1  23   -0.49    0.87
 -11  11  -1    0.19    0.53
  11 -11   1   -0.04    0.68
  11   0  23   -0.57    0.98
 -10  11   0   14.99    1.39
  10 -11   0   13.49    1.62
  -9  11   1    4.86    0.83
   9 -11  -1    4.18    0.96
  -8  11   2    0.74    0.51
   8 -11  -2    0.20    0.61
  -7  11   3    9.62    1.11
   7 -11  -3   10.55    1.35
  -6  11   4    6.00    0.91
   6 -11  -4    4.86    1.00
  -5  11   5    0.78    0.53
   5 -11  -5    1.13    0.70
  -4  11   6    0.15    0.50
   4 -11  -6    0.19    0.66
  -3  11   7    0.59    0.55
   3 -11  -7    0.66    0.70
  -2  11   8   15.77    1.56
   2 -11  -8   18.41    1.97
  -1  11   9   53.69    3.14
   1 -11  -9   60.29    3.82
   0 -11 -10    4.13    1.28
  -1 -11 -11   -0.15    0.90
  -2 -10 -10    5.02    1.40
  -3  -9  -9    0.65    0.94
  -4  -8  -8    4.45    1.36
   5   7   7    0.32    0.76
  -5  -7  -7   -0.92    0.80
   6   6   6   43.07    3.19
  -6  -6  -6   42.77    3.37
   7   5   5    0.05    0.79
  -7  -5  -5    0.64    0.86
   8   4   4    4.52    1.35
  -8  -4  -4    6.81    1.60
   9   3   3    0.41    0.93
  -9  -3  -3    0.68    0.97
  10   2   2    0.24    0.99
 -10  -2  -2    0.70    1.07
  11   1   1    3.70    1.37
 -11  -1  -1    2.43    1.20
  12   0   0  190.78    9.99
 -12   0   0  185.76   10.15
   8 -10 -24   44.99    3.47
   6  -9 -24    6.67    1.41
  -6   9  24    7.43    1.31
   4  -8 -24   90.02    4.86
  -4   8  24   90.05    4.76
  -4   8  24   73.83    3.90
   2  -7 -24   86.17    4.65
  -2   7  24   72.75    3.71
  -2   7  24   82.58    4.48
   0  -6 -24   35.68    2.68
   0   6  24   33.86    2.48
  -2  -5 -24   84.10    4.76
   2   5  24   85.21    4.72
  -4  -4 -24   90.90    5.05
   4   4  24   85.62    4.87
  -6  -3 -24    8.68    1.55
   6   3  24    8.44    1.55
  -8  -2 -24   42.85    3.32
   8   2  24   50.25    3.53
 -12  12   0  153.35    6.89
  12 -12   0  165.20    8.05
 -11  12   1    4.28    0.96
  11 -12  -1    2.68    0.98
 -10  12   2    0.58    0.59
  10 -12  -2    0.63    0.72
  -9  12   3    1.07    0.61
   9 -12  -3    1.36    0.79
  -8  12   4    4.45    0.88
   8 -12  -4    5.42    1.17
  -7  12   5    0.04    0.50
   7 -12  -5   -0.41    0.60
  -6  12   6   41.66    2.42
   6 -12  -6   39.40    2.82
  -5  12   7   -0.10    0.49
   5 -12  -7   -0.50    0.63
  -4  12   8    3.88    0.91
   4 -12  -8    6.14    1.29
  -3  12   9   -0.18    0.59
   3 -12  -9    0.31    0.77
  -2  12  10    4.99    1.04
   2 -12 -10    3.52    1.21
   1 -12 -11   -0.27    0.84
   0 -12 -12    1.38    1.18
  -2 -11 -12   37.91    3.37
  -3 -10 -11   -0.30    0.97
  -4  -9 -10    0.50    1.00
  -5  -8  -9   36.52    3.32
   6   7   8   -0.25    0.92
  -6  -7  -8   -0.70    0.89
   7   6   7    0.84    1.02
  -7  -6  -7    0.48    1.07
   8   5   6    1.50    1.07
  -8  -5  -6    1.68    1.17
   9   4   5    0.84    1.04
  -9  -4  -5    0.39    1.00
  10   3   4   -0.31    0.91
 -10  -3  -4   -0.90    0.79
  11   2   3    9.68    1.92
 -11  -2  -3   10.73    1.98
  12   1   2   -0.81    1.08
   9 -11 -25    0.21    1.02
   7 -10 -25   -0.15    0.91
   5  -9 -25   -0.19    0.75
  -5   9  25    0.87    0.73
  -5   9  25    1.15    0.80
   3  -8 -25    0.84    0.82
  -3   8  25    1.15    0.81
   1  -7 -25    0.63    0.80
  -1   7  25   -0.51    0.66
  -1  -6 -25    0.54    0.79
   1   6  25    0.06    0.67
  -3  -5 -25    1.96    0.97
   3   5  25    2.46    0.98
  -5  -4 -25    1.20    0.93
   5   4  25    0.29    0.82
  -7  -3 -25   -0.14    0.78
   7   3  25    0.26    0.89
   9   2  25    1.58    1.22
 -12  13   2   -0.16    0.60
  12 -13  -2    0.39    0.86
 -11  13   3   10.64    1.46
  11 -13  -3   10.03    1.63
 -10  13   4   -0.25    0.59
  10 -13  -4    0.16    0.75
  -9  13   5   -0.18    0.57
   9 -13  -5    0.17    0.73
  -8  13   6    2.04    0.79
   8 -13  -6    1.36    0.88
  -7  13   7    0.11    0.61
   7 -13  -7    0.47    0.80
  -6  13   8    0.29    0.65
   6 -13  -8    0.63    0.82
  -5  13   9   30.55    2.26
   5 -13  -9   33.79    2.77
  -4  13  10    0.94    0.76
   4 -13 -10    0.91    0.93
   3 -13 -11   -0.10    0.87
   2 -13 -12   39.52    3.32
  -4 -10 -12   66.75    4.75
  -5  -9 -11    0.27    1.05
  -6  -8 -10    4.51    1.59
  -7  -7  -9   34.76    3.34
  -8  -6  -8    6.40    1.79
   9   5   7   -1.24    0.91
  -9  -5  -7    0.21    1.13
  10   4   6    1.22    1.20
 -10  -4  -6    0.74    1.07
  11   3   5    0.58    1.26
 -11  -3  -5   -0.15    1.02
  10 -12 -26    2.67    1.33
   8 -11 -26    1.21    1.13
   6 -10 -26   22.41    2.41
   4  -9 -26    1.13    0.94
  -4   9  26    0.84    0.80
   2  -8 -26   -0.34    0.68
  -2   8  26    0.64    0.74
   0  -7 -26   59.98    3.90
   0   7  26   59.45    3.76
  -2  -6 -26   -0.43    0.65
   2   6  26    0.35    0.74
  -4  -5 -26    2.30    1.08
   4   5  26    0.94    0.83
  -6  -4 -26   21.33    2.35
   6   4  26   22.50    2.28
   8   3  26    2.38    1.31
  10   2  26    2.68    1.43
 -11  14   5    0.11    0.69
  11 -14  -5    0.18    0.84
 -10  14   6    0.43    0.71
  10 -14  -6    0.71    0.88
  -9  14   7    0.11    0.69
   9 -14  -7   -0.08    0.81
  -8  14   8    5.50    1.17
   8 -14  -8    6.67    1.45
  -7  14   9   30.41    2.39
   7 -14  -9   36.37    2.91
  -6  14  10    2.82    0.95
   6 -14 -10    4.60    1.35
  -5  14  11    0.09    0.68
   5 -14 -11   -0.34    0.81
   4 -14 -12   60.59    4.29
   9 -12 -27    0.54    1.07
   7 -11 -27   43.30    3.49
   5 -10 -27   40.67    3.25
   3  -9 -27    0.95    0.95
  -3   9  27    2.13    0.98
   1  -8 -27   78.48    4.73
  -1   8  27   75.34    4.56
  -1  -7 -27   77.84    4.79
   1   7  27   79.72    4.69
  -3  -6 -27    1.66    0.99
   3   6  27    1.03    0.97
  -5  -5 -27   38.01    3.08
   5   5  27   38.65    3.11
  -7  -4 -27   42.05    3.42
   7   4  27   41.55    3.40
   9   3  27    0.77    1.18
   8 -12 -28   -0.17    1.07
   6 -11 -28    2.40    1.21
   4 -10 -28    1.45    1.07
   2  -9 -28   -0.09    0.87
  -2   9  28    0.36    0.84
   0  -8 -28    0.34    0.92
   0   8  28    0.01    0.84
  -2  -7 -28   -0.14    0.88
   2   7  28   -0.45    0.82
  -4  -6 -28    0.11    0.81
   4   6  28    0.12    0.91
  -6  -5 -28    0.90    1.06
   6   5  28    1.76    1.20
   8   4  28   -0.02    1.06
   7 -12 -29   -0.06    1.05
   5 -11 -29   -0.71    0.97
   3 -10 -29    1.58    1.19
   1  -9 -29    0.46    1.02
  -1   9  29    0.22    0.81
  -1  -8 -29    0.61    1.01
   1   8  29    0.76    0.93
  -3  -7 -29   -0.10    1.00
   3   7  29    1.60    1.10
  -5  -6 -29    1.02    1.03
   5   6  29    0.08    1.05
   7   5  29    0.88    1.13
   6 -12 -30   30.83    3.18
   4 -11 -30    4.35    1.49
   2 -10 -30    1.44    1.19
   0  -9 -30   21.23    2.60
   0   9  30   23.01    2.51
  -2  -8 -30    0.71    1.04
   2   8  30    0.07    0.99
  -4  -7 -30    4.93    1.53
   4   7  30    4.91    1.50
  -6  -6 -30   35.17    3.28
   6   6  30   32.25    3.06
   5 -12 -31    0.52    1.18
   3 -11 -31    1.01    1.21
   1 -10 -31    0.42    1.06
  -1  -9 -31    1.26    1.20
   1   9  31    0.64    1.04
  -3  -8 -31    0.79    1.13
   3   8  31    0.93    1.16
  -5  -7 -31   -0.02    1.03
   5   7  31    0.48    1.16
   2 -11 -32    6.33    1.75
   0 -10 -32    1.13    1.26
  -2  -9 -32    7.24    1.84
   2   9  32    6.42    1.70
   0   0 -15    0.00    0.21
   0   0 -15    2.25    0.50
   0   0  15    0.25    0.23
   0   0  15    0.14    0.25
   0   0  15    0.30    0.31
   1  -1 -16    0.57    0.40
   1   0 -14    1.70    0.33
   1  -1 -16    0.64    0.29
   1   0 -14    1.87    0.47
  -1   0  14    1.70    0.42
  -1   0  14    1.69    0.43
  -1   1  16    0.99    0.30
  -1   1  16    0.76    0.26
  -1   1  16    0.33    0.40
  -1   0  14    1.78    0.35
  -1   0  14    1.61    0.29
  -1   1  16    0.77    0.37
  -1   0  14    1.65    0.44
  -1   0 -16    0.80    0.38
  -1   1 -14    2.11    0.38
  -1   1 -14    1.80    0.27
  -1   0 -16    0.61    0.26
   1  -1  14    2.11    0.36
   1   0  16    0.62    0.27
   1   0  16    1.17    0.40
   1  -1  14    1.55    0.34
   1   0  16    1.06    0.36
  -2   2  17    0.31    0.45
  -3   2 -14    5.25    0.50
   3  -1 -14    5.46    0.61
  -3   2 -14    6.25    0.43
   3  -1 -14    7.10    0.95
   3  -2  14    6.18    0.62
   3  -2  14    4.95    0.50
  -3   1  14    4.45    0.70
  -3   1  14    6.40    0.61
   3  -2  14    5.90    0.57
  -6   2 -17    6.90    0.78
  -6   2 -17    5.96    0.77
   6  -4 -17    5.58    1.09
  -6   2 -17    5.02    0.77
  -6   4  17    5.77    0.79
   6  -2  17    5.95    0.89
   6  -2  17    5.48    0.88
  -6   4  17    7.14    1.12
   1   2 -10   49.34    2.06
   1   2 -10   52.75    2.45
   1   2 -10   52.42    2.05
  -1  -2  10   47.15    2.44
  -1  -2  10   48.14    2.46
   2   1 -11   43.68    1.99
   2   1 -11   49.06    2.42
   2   1 -11   47.53    1.97
  -2  -1  11   44.26    2.34
  -2  -1  11   43.24    2.37
  -2  -1  11   45.08    1.91
   3  -3 -18  307.56   11.73
   3   0 -12  249.94   11.44
   3  -3 -18  292.06    9.92
   3   0 -12  232.60    9.71
  -3   0  12  225.89   11.37
  -3   3  18  303.31   11.64
  -3   0  12  235.93    9.70
  -3   0  12  236.57   11.33
  -3   0 -18  304.16   12.57
   3   0  18  265.82   12.49
   3  -3  12  258.40   12.11
   3   0  18  321.93   12.64
   2  -3  11   45.48    1.98
   2  -3  11   44.14    1.97
   2  -3  11   47.49    1.96
  -7   2 -18   71.33    2.91
  -7   2 -18   66.38    3.22
   1  -3  10   51.55    2.54
   7  -2  18   62.65    3.25
   1  -3  10   52.23    2.31
   1  -3  10   49.87    2.53
   1   3  -8    2.88    0.47
   1   3  -8    1.81    0.32
   1   3  -8    2.07    0.35
  10  -7 -19    0.24    0.87
 -10   7  19   -0.59    0.68
  -1  -3   8    2.12    0.46
  -1  -3   8    1.65    0.44
   3   1 -10    7.96    0.72
   3   1 -10    8.47    0.94
   3   1 -10    7.78    0.73
  -9   4 -16    7.43    0.99
  -9   4 -16    6.40    0.95
  -3  -1  10    6.98    0.84
  -3  -1  10    7.13    0.62
  -3  -1  10    6.70    0.82
   9  -4  16    6.36    1.08
  -6   4 -13    5.24    0.59
  -6   4 -13    4.73    0.52
   6  -2 -13    6.15    1.12
   6  -4  13    5.21    0.64
  -6   2  13    4.90    0.79
  -6   2  13    5.18    0.93
  -6   2  13    4.85    0.71
   6  -4  13    6.11    0.77
   6  -4  13    4.92    0.77
  -6   1 -19   18.35    1.29
  -6   1 -19   18.32    1.49
  -6   1 -19   18.26    1.36
   6  -1  19   14.79    1.40
   6  -1  19   20.34    1.62
  -1   4  -8    1.86    0.19
 -10   3 -19   -0.25    0.56
   1  -4   8    1.88    0.35
   1  -4   8    2.28    0.34
   1  -4   8    1.91    0.31
  10  -3  19    0.78    0.77
 -12   4 -19    5.66    1.14
  12  -8 -19    6.74    1.64
  12  -4  19    5.22    1.31
   3   2  -8   59.86    3.04
   3   2  -8   60.77    2.60
   3   2  -8   61.00    2.57
  -3  -2   8   58.78    2.51
  -3  -2   8   51.87    3.00
  -3  -2   8   60.55    3.11
 -10   5 -15   24.53    1.76
   5   0 -10   26.07    1.47
 -10   5 -15   25.66    1.76
   5   0 -10   29.94    2.01
  -5   0  10   25.61    1.43
  -5   0  10   24.40    1.81
  10  -5  15   22.08    1.99
   3  -4 -20   11.08    1.22
  -3   4  20   10.04    0.96
  -6   1  11   13.68    1.05
  -3   4  20   10.41    0.67
  -3   4  20   10.59    1.26
   1  -3 -20   35.17    2.21
   1  -3 -20   35.18    1.83
  -1   3  20   35.31    1.49
  -1   3  20   37.75    1.82
  -1   3  20   36.12    2.23
  -1  -2 -20   38.62    1.86
  -1  -2 -20   35.32    2.19
   1   2  20   36.77    1.58
   1   2  20   32.40    1.72
   1   2  20   34.24    2.16
  -3  -1 -20   11.27    1.21
  -3  -1 -20   11.14    1.00
  -6   5 -11   15.80    0.80
   3   1  20   11.88    0.93
   3   1  20   11.55    1.24
   6  -5  11   15.80    1.12
   6  -5  11   15.02    1.00
   6  -5  11   17.58    1.10
  10  -5 -15   26.67    2.45
   5  -5  10   23.48    1.32
 -10   5  15   22.66    2.20
   5  -5  10   27.51    1.47
   5  -5  10   26.72    1.39
  -1   5  -6    0.54    0.23
   1  -5   6    0.50    0.28
   1  -5   6    0.31    0.31
   0   5  -5   -0.13    0.24
   0   5  -5    0.07    0.24
   0   5  -5    0.23    0.28
   0  -5   5    0.05    0.29
   0  -5   5   -0.33    0.31
   0  -5   5   -0.37    0.22
   1   5  -4   41.12    1.97
   1   5  -4   42.66    2.27
   1   5  -4   44.24    2.00
  -1  -5   4   39.73    2.34
  -1  -5   4   39.20    2.32
   2   4  -5    3.57    0.57
   2   4  -5    3.48    0.67
   2   4  -5    3.41    0.52
  -2  -4   5    3.26    0.73
  -2  -4   5    2.77    0.62
   3   3  -6   49.22    2.33
   3   3  -6   51.58    2.76
   3   3  -6   51.50    2.33
  -3  -3   6   48.47    2.78
   4   2  -7    2.55    0.51
  10  -8 -21    9.24    1.70
   4   2  -7    3.25    0.62
   4   2  -7    2.65    0.67
  -4  -2   7    3.52    0.84
  -4  -2   7    3.56    0.56
  14  -6  17    0.16    1.00
 -12   6 -15    2.16    0.80
   6  -6 -21   -0.47    0.56
   6   0  -9   -0.17    0.41
   6   0  -9    0.08    0.62
  -6   0   9   -0.03    0.14
  -6   6  21    0.05    0.60
  -6   6  21    0.28    0.46
  12  -6  15    1.96    0.95
  -6   0   9    0.07    0.60
   7  -1 -10    6.46    1.18
  -7   1  10    6.24    1.11
  -7   1  10    7.30    0.96
   2  -4 -21    4.49    0.91
   8  -2 -11    4.21    1.11
  -2   4  21    2.45    0.55
  -2   4  21    5.03    0.93
  -8   2  11    3.16    0.72
  -2   4  21    3.97    0.37
  -8   2  11    4.17    0.89
  -8   2  11    3.82    1.01
   9  -3 -12   21.06    2.10
  -9   6 -12   18.65    1.32
  -9   6 -12   19.38    1.38
  -9   3  12   19.47    1.88
   9  -6  12   20.66    1.60
  -9   3  12   15.36    1.45
  -2  -2 -21    4.13    0.84
  -2  -2 -21    3.89    0.65
  -8   6 -11    4.08    0.63
   2   2  21    4.14    0.54
   2   2  21    5.27    0.88
   8  -6  11    4.14    0.71
   8  -6  11    3.70    0.72
  -7   6 -10    7.69    0.67
   7  -6  10    6.39    0.84
   7  -6  10    5.01    0.71
  12  -6 -15    3.44    1.34
  -6   0 -21   -0.18    0.41
  -6   6  -9    0.19    0.20
  -6   0 -21    0.40    0.53
  -6   0 -21    0.10    0.54
   6  -6   9    0.22    0.28
   6  -6   9    0.01    0.41
   6  -6   9    0.08    0.32
   6   0  21    0.09    0.60
 -10   2 -21    6.99    1.12
  14  -8 -17    1.01    1.30
   4  -6   7    3.30    0.54
   4  -6   7    3.02    0.41
   4  -6   7    2.96    0.40
  -3   6  -6   48.96    1.76
   3  -6   6   44.83    2.22
   3  -6   6   46.98    2.25
   3  -6   6   46.19    2.04
  -2   6  -5    2.55    0.34
  -2   6  -5    3.35    0.37
  -2   6  -5    3.33    0.37
   2  -6   5    2.84    0.43
   2  -6   5    2.94    0.45
   2  -6   5    3.25    0.51
  -1   6  -4   39.68    1.81
  -1   6  -4   40.68    1.83
  -1   6  -4   40.23    2.06
   1  -6   4   41.00    2.20
   1  -6   4   40.59    1.80
   0   6  -3    0.12    0.33
   0   6  -3   -0.11    0.29
   0   6  -3    0.44    0.36
   0  -6   3    0.34    0.39
   0  -6   3   -0.24    0.40
   0  -6   3   -0.15    0.25
   1   6  -2    1.50    0.52
   1   6  -2    0.36    0.44
   1   6  -2    0.81    0.42
  -1  -6   2    0.52    0.54
  -1  -6   2    0.46    0.34
  -1  -6   2    0.44    0.45
   2   5  -3   24.28    1.67
   2   5  -3   24.53    1.48
   2   5  -3   24.94    1.49
  -2  -5   3   26.27    1.95
  -2  -5   3   23.47    1.78
   3   4  -4    4.40    0.66
   3   4  -4    4.00    0.63
   3   4  -4    4.86    0.85
  -3  -4   4    4.47    0.92
   4   3  -5    2.02    0.71
   4   3  -5    1.45    0.55
   4   3  -5    2.20    0.56
  -4  -3   5    1.33    0.67
   5   2  -6    2.01    0.58
   5   2  -6    1.93    0.72
 -14   7 -15    3.24    1.01
   7  -7 -22    1.96    0.87
  -7   7  22    2.64    0.90
  14  -7  15    5.00    1.32
  -7   7  22    2.21    0.69
   5  -6 -22   50.63    3.26
  -5   6  22   56.37    3.23
  -5   6  22   48.95    2.62
   1  -4 -22   22.57    1.45
   1  -4 -22   24.90    1.87
  -1   4  22   23.09    1.03
  -1   4  22   23.21    1.83
  -1  -3 -22   23.20    1.47
  -1  -3 -22   22.16    1.81
   1   3  22   24.20    1.16
   1   3  22   22.16    1.39
   1   3  22   21.87    1.74
  -5  -1 -22   49.34    3.07
  -5  -1 -22   50.66    2.57
  -5  -1 -22   52.35    2.70
   5   1  22   53.66    3.16
  -7   0 -22    2.09    0.79
  14  -7 -15    4.19    1.53
  -7   0 -22    2.28    0.69
  -7   0 -22    2.07    0.74
   7   0  22    2.50    0.87
  -4   7  -5    1.55    0.28
  -4   7  -5    1.29    0.25
   4  -7   5    1.41    0.36
   4  -7   5    1.53    0.41
   4  -7   5    1.35    0.39
  -3   7  -4    4.03    0.47
  -3   7  -4    4.48    0.52
   3  -7   4    3.80    0.56
   3  -7   4    4.05    0.60
   3  -7   4    3.66    0.52
  -2   7  -3   23.71    1.24
  -2   7  -3   25.96    1.29
  -2   7  -3   21.81    1.31
   2  -7   3   23.59    1.52
   2  -7   3   22.45    1.20
  -1   7  -2    0.41    0.35
  -1   7  -2    0.60    0.40
  -1   7  -2    0.45    0.34
   1  -7   2    0.54    0.39
   1  -7   2    0.68    0.30
   1  -7   2    0.66    0.51
   0   7  -1   -0.18    0.36
   0   7  -1    0.07    0.37
   0   7  -1   -0.31    0.39
   0  -7   1    0.25    0.28
   0  -7   1    0.06    0.52
   0  -7   1   -0.05    0.42
   1   7   0   25.36    1.61
   1   7   0   24.37    1.59
   1   7   0   24.49    1.77
  -1  -7   0   25.48    1.39
  -1  -7   0   26.47    1.98
   2   6  -1   12.42    1.27
   2   6  -1   11.42    1.12
   2   6  -1   12.75    1.14
  -2  -6   1   13.37    1.42
   3   5  -2    0.82    0.57
   3   5  -2    0.77    0.48
   3   5  -2    0.69    0.53
  -3  -5   2    1.25    0.68
   4   4  -3    2.54    0.60
   4   4  -3    2.75    0.65
   4   4  -3    2.84    0.81
  -4  -4   3    3.07    0.84
   5   3  -4   13.12    1.21
   5   3  -4   14.00    1.53
   5   3  -4   13.49    1.18
  -5  -3   4   13.15    1.60
   6   2  -5    3.91    1.04
  12 -10 -23    0.14    1.09
   6   2  -5    4.78    0.83
   6   2  -5    3.16    0.68
  -6  -2   5    2.92    0.93
   7   1  -6    0.40    0.68
  10  -9 -23    0.43    0.98
  -7  -1   6    1.05    0.79
  -7  -1   6    0.13    0.46
   8  -8 -23   -0.26    0.76
   8   0  -7   -0.07    0.71
  -8   0   7    0.17    0.66
  -8   8  23    0.35    0.67
   4  -6 -23    8.17    1.32
  -4   6  23   12.64    1.47
  -4   6  23    9.04    1.07
  -4   6  23   10.74    1.41
  -4   6  23   10.08    0.60
   2  -5 -23   23.21    1.91
  -2   5  23   21.61    0.92
  -2   5  23   22.91    1.81
  -2   5  23   20.77    1.44
 -12   8 -11    0.05    0.52
 -12   8 -11    0.32    0.56
  12  -4 -11    0.98    1.03
   0  -4 -23   -0.19    0.39
   0  -4 -23    0.10    0.59
   0   4  23    0.07    0.41
 -12   4  11    0.26    0.86
   0   4  23    0.22    0.59
  12  -8  11   -0.18    0.65
  -2  -3 -23   21.85    1.51
  -2  -3 -23   22.39    1.88
   2   3  23   24.01    1.88
  -4  -2 -23    9.60    1.02
  -4  -2 -23    9.41    1.31
  -4  -2 -23   10.66    1.17
   4   2  23    8.54    1.26
  -8   0 -23   -0.09    0.51
  -8   0 -23    0.04    0.63
  -8   8  -7    0.15    0.34
   8  -8   7   -0.02    0.43
   8  -8   7    0.03    0.33
   8   0  23   -0.06    0.77
  -7   8  -6    0.27    0.31
   7  -8   6   -0.12    0.31
   7  -8   6    0.52    0.41
  10  -1  23    0.50    0.86
  -6   8  -5    3.46    0.47
  12  -2  23    0.74    1.09
   6  -8   5    3.23    0.56
   6  -8   5    3.46    0.64
   6  -8   5    3.45    0.61
  -5   8  -4   12.30    0.81
   5  -8   4   11.90    0.99
   5  -8   4   13.12    1.04
   5  -8   4   12.87    0.96
  -4   8  -3    2.99    0.44
   4  -8   3    2.35    0.50
   4  -8   3    3.14    0.60
   4  -8   3    2.55    0.49
  -3   8  -2    0.75    0.31
  -3   8  -2    0.79    0.39
  -3   8  -2    0.59    0.31
  -3   8  -2    1.01    0.36
   3  -8   2    0.96    0.35
   3  -8   2    0.77    0.45
  -2   8  -1   11.68    0.94
  -2   8  -1   12.37    1.01
  -2   8  -1   10.62    0.92
   2  -8   1    9.58    1.00
   2  -8   1   11.95    0.80
   2  -8   1   11.78    1.15
  -1   8   0   25.00    1.48
  -1   8   0   24.19    1.49
  -1   8   0   21.33    1.50
   1  -8   0   20.29    1.62
   1  -8   0   23.10    1.20
   1  -8   0   22.74    1.75
   0   8   1   -0.11    0.45
   0   8   1   -0.35    0.39
   0   8   1    0.05    0.45
   0  -8  -1   -0.01    0.56
   0  -8  -1    0.06    0.29
   1   8   2    1.89    0.67
   1   8   2    2.62    0.69
   1   8   2    1.86    0.61
  -1  -8  -2    2.10    0.82
  -1  -8  -2    2.15    0.45
   2   7   1    2.25    0.70
   2   7   1    1.72    0.70
   2   7   1    1.43    0.56
  -2  -7  -1    1.80    0.78
   3   6   0  377.42   16.74
   3   6   0  373.59   14.49
   3   6   0  379.86   14.48
  -3  -6   0  383.82   16.89
   4   5  -1    6.17    0.89
   4   5  -1    9.79    1.30
   4   5  -1    7.26    0.98
  -4  -5   1    9.75    1.44
   5   4  -2    9.57    1.38
   5   4  -2    6.93    0.98
   5   4  -2    8.14    1.05
  -5  -4   2    7.57    1.29
   6   3  -3    3.88    1.03
   6   3  -3    2.70    0.70
   6   3  -3    1.99    0.60
  -6  -3   3    3.75    1.08
   7   2  -4   12.44    1.56
  -7  -2   4   12.41    1.74
   9   0  -6   39.49    3.01
  -9   0   6   35.60    2.80
   5  -7 -24   92.16    4.86
  -5   7  24   81.90    4.57
  -5   7  24   84.12    3.16
  -5   7  24   78.31    3.87
  -3  -3 -24   34.84    2.17
  -3  -3 -24   36.97    2.59
  -3  -3 -24   39.41    2.16
   3   3  24   39.75    2.59
  -5  -2 -24   84.34    4.68
  -5  -2 -24   83.73    3.92
  -5  -2 -24   78.75    3.95
   5   2  24   93.05    4.79
  -9   9  -6   31.00    1.76
   9  -9   6   34.40    2.18
  -7   9  -4   11.30    0.89
   7  -9   4   10.77    1.11
   7  -9   4    9.85    1.00
  -6   9  -3    2.33    0.49
   6  -9   3    2.59    0.58
   6  -9   3    2.51    0.57
   6  -9   3    2.30    0.61
  -5   9  -2    7.96    0.77
   5  -9   2    8.52    0.97
   5  -9   2    7.82    0.78
   5  -9   2    5.86    0.80
  -4   9  -1    8.20    0.83
   4  -9   1    7.49    0.73
   4  -9   1    7.34    1.00
  -3   9   0  345.26   15.06
  -3   9   0  375.61   13.30
   3  -9   0  371.19   15.41
   3  -9   0  315.01   15.31
   3  -9   0  343.81   12.51
  -2   9   1    2.09    0.54
  -2   9   1    2.34    0.57
   2  -9  -1    1.55    0.65
   2  -9  -1    2.09    0.40
  -1   9   2    2.56    0.66
  -1   9   2    2.41    0.67
   1  -9  -2    2.18    0.41
   1  -9  -2    1.88    0.73
   0   9   3    0.28    0.49
   0  -9  -3    0.09    0.28
   0  -9  -3   -0.04    0.60
   1   9   4    2.38    0.71
  -1  -9  -4    1.54    0.83
   2   8   3   18.26    1.70
   2   8   3   15.88    1.45
  -2  -8  -3   19.92    1.96
  -2  -8  -3   16.42    1.18
   3   7   2    0.33    0.52
   3   7   2   -0.11    0.54
  -3  -7  -2    0.51    0.73
   4   6   1    1.20    0.72
   4   6   1    0.02    0.52
  -4  -6  -1    0.05    0.75
   5   5   0    9.41    1.22
   5   5   0    9.25    1.37
  -5  -5   0    9.01    1.47
   6   4  -1   -0.05    0.65
  -6  -4   1    0.73    0.81
   7   3  -2   -0.41    0.63
  -7  -3   2    0.12    0.74
   8   2  -3   18.04    2.07
  -8  -2   3   18.03    2.00
   9   1  -4    2.57    1.13
  -9  -1   4    2.31    1.10
  10   0  -5    0.46    0.95
  10 -10 -25    0.20    0.97
 -10   0   5   -0.11    0.82
   8  -9 -25    1.95    1.00
  11  -1  -6    0.60    1.04
 -11   1   6    0.11    0.96
  -8   9  25    1.57    0.91
  12  -2  -7    6.41    1.69
 -12   2   7    4.01    1.38
  13  -3  -8   -0.02    1.15
   4  -7 -25    0.05    0.71
  -4   7  25    0.40    0.68
  -4   7  25   -0.09    0.57
  -4   7  25    0.25    0.45
   0  -5 -25   -0.45    0.63
   0   5  25   -0.07    0.25
   0   5  25   -0.28    0.62
  -4  -3 -25    0.16    0.61
 -13  10  -8   -0.70    0.50
  -4  -3 -25    0.06    0.53
   4   3  25    0.05    0.64
  13 -10   8    0.39    0.82
  -6  -2 -25    1.11    0.68
  -6  -2 -25    1.51    0.85
 -12  10  -7    4.27    0.86
   6   2  25    0.70    0.78
  12 -10   7    4.74    1.08
 -11  10  -6    0.48    0.52
   8   1  25    2.61    1.10
  11 -10   6    0.47    0.61
 -10  10  -5    0.04    0.44
  10 -10   5    0.00    0.55
  10   0  25    0.42    0.97
  -9  10  -4    2.02    0.56
   9 -10   4    1.59    0.65
  -8  10  -3   16.41    1.21
   8 -10   3   16.77    1.45
  -7  10  -2   -0.21    0.35
   7 -10   2   -0.02    0.45
  -6  10  -1    0.24    0.38
   6 -10   1   -0.05    0.47
  -5  10   0    8.73    0.93
   5 -10   0    8.52    0.80
   5 -10   0    9.94    1.14
  -4  10   1    0.26    0.40
   4 -10  -1    0.31    0.31
   4 -10  -1   -0.05    0.48
  -3  10   2    0.40    0.45
   3 -10  -2   -0.09    0.26
   3 -10  -2    0.26    0.52
  -2  10   3   16.91    1.40
   2 -10  -3   16.32    1.64
  -1  10   4    2.30    0.69
   1 -10  -4    1.55    0.80
   0  10   5   -0.09    0.55
   0 -10  -5    0.78    0.76
   1  10   6   -0.07    0.56
  -1 -10  -6    0.80    0.84
   2   9   5    6.40    1.11
  -2  -9  -5    6.48    1.37
   3   8   4    0.79    0.75
   3   8   4    1.51    0.68
  -3  -8  -4    1.66    1.00
   4   7   3   11.00    1.54
  -4  -7  -3   14.22    1.84
   5   6   2    0.13    0.69
  -5  -6  -2    0.37    0.75
   6   5   1    4.43    1.14
  -6  -5  -1    4.78    1.26
   7   4   0   26.92    2.46
  -7  -4   0   31.55    2.67
   8   3  -1    1.12    0.89
  -8  -3   1    2.88    1.16
   9   2  -2    0.56    0.95
  -9  -2   2    1.52    1.10
  10   1  -3   15.57    2.23
 -10  -1   3   18.49    2.28
  11   0  -4    0.64    1.08
  11 -11 -26    3.95    1.47
 -11   0   4   -0.46    0.89
   9 -10 -26    4.23    1.34
  12  -1  -5    2.11    1.31
 -12   1   5    2.10    1.22
  13  -2  -6    0.81    1.24
   7  -9 -26    3.02    1.15
  -7   9  26    1.70    0.85
   5  -8 -26   -0.37    0.70
  -5   8  26    1.64    0.81
  -5   8  26    0.10    0.71
   3  -7 -26   30.98    2.49
  -3   7  26   30.62    2.39
   1  -6 -26    5.56    1.24
  -1   6  26    4.57    1.07
  -1  -5 -26    5.09    1.15
   1   5  26    4.95    1.17
  -3  -4 -26   34.61    2.63
   3   4  26   34.45    2.58
 -14  11  -7    0.30    0.65
  -5  -3 -26    1.04    0.81
   5   3  26    0.84    0.81
  -7  -2 -26    1.73    0.96
 -13  11  -6    0.38    0.64
  13 -11   6    0.36    0.79
   7   2  26    1.37    0.95
 -12  11  -5    1.56    0.69
   9   1  26    4.22    1.33
  12 -11   5    1.62    0.83
 -11  11  -4    0.24    0.52
  11   0  26    4.67    1.48
  11 -11   4   -0.18    0.63
 -10  11  -3   14.61    1.33
  10 -11   3   13.92    1.51
  -9  11  -2    0.75    0.51
   9 -11   2    0.44    0.61
  -8  11  -1    1.84    0.57
   8 -11   1    1.91    0.72
  -7  11   0   27.86    1.72
   7 -11   0   27.35    2.04
  -6  11   1    3.66    0.71
   6 -11  -1    3.98    0.86
  -5  11   2    0.02    0.43
   5 -11  -2    0.20    0.55
  -4  11   3   12.70    1.23
   4 -11  -3   11.56    1.45
  -3  11   4    0.88    0.55
   3 -11  -4    0.89    0.69
  -2  11   5    8.39    1.13
   2 -11  -5    7.60    1.40
  -1  11   6    0.23    0.64
   1 -11  -6    0.27    0.77
   0  11   7   -0.09    0.55
   0 -11  -7    1.00    0.95
  -1 -11  -8    6.01    1.53
  -2 -10  -7    3.99    1.27
  -3  -9  -6   36.18    3.08
  -4  -8  -5    1.37    1.01
   5   7   4    6.68    1.37
  -5  -7  -4    6.13    1.50
   6   6   3    3.98    1.12
  -6  -6  -3    4.07    1.30
   7   5   2   -0.83    0.73
  -7  -5  -2   -0.01    0.87
   8   4   1    4.64    1.36
  -8  -4  -1    5.06    1.42
   9   3   0  202.71   10.08
  -9  -3   0  196.51   10.04
  10   2  -1    0.70    1.02
 -10  -2   1    0.82    1.06
  11   1  -2   -0.05    1.10
 -11  -1   2    0.61    1.06
  12   0  -3   -0.83    0.96
 -12   0   3    0.17    1.00
   8 -10 -27   29.72    2.79
   6  -9 -27    1.38    0.92
  -6   9  27    1.63    0.87
   4  -8 -27   82.14    4.81
  -4   8  27   79.05    4.63
   2  -7 -27  100.78    5.49
  -2   7  27   96.12    5.28
   0  -6 -27   -0.50    0.66
   0   6  27   -0.23    0.68
  -2  -5 -27   98.12    5.56
   2   5  27  106.99    5.63
  -4  -4 -27   76.67    4.65
   4   4  27   83.45    4.69
  -6  -3 -27    0.80    0.93
   6   3  27    1.09    0.87
   8   2  27   33.58    2.99
 -12  12  -3    0.41    0.62
  12 -12   3   -0.01    0.72
 -11  12  -2   -0.17    0.53
  11 -12   2    0.23    0.69
 -10  12  -1    0.20    0.54
  10 -12   1    0.27    0.66
  -9  12   0  177.63    7.39
   9 -12   0  180.94    8.56
  -8  12   1    4.16    0.83
   8 -12  -1    3.66    0.95
  -7  12   2    0.41    0.52
   7 -12  -2   -0.23    0.60
  -6  12   3    3.62    0.79
   6 -12  -3    3.83    0.98
  -5  12   4    5.57    0.95
   5 -12  -4    6.01    1.18
  -4  12   5    0.87    0.60
   4 -12  -5    1.60    0.83
  -3  12   6   35.60    2.33
   3 -12  -6   35.08    2.73
  -2  12   7    3.78    0.94
   2 -12  -7    5.15    1.31
   1 -12  -8    5.99    1.46
   0 -12  -9    0.07    0.89
  -1 -12 -10    2.68    1.30
  -2 -11  -9   36.40    3.22
  -3 -10  -8    0.40    1.05
  -4  -9  -7   -0.15    1.04
  -5  -8  -6    1.24    1.18
  -6  -7  -5   -0.42    0.97
   7   6   4    0.74    0.96
  -7  -6  -4    1.11    1.04
   8   5   3   20.37    2.35
  -8  -5  -3   20.98    2.55
   9   4   2    0.95    1.05
  -9  -4  -2   -0.37    0.98
  10   3   1   -0.03    1.01
 -10  -3  -1   -0.29    0.93
  11   2   0    4.55    1.61
 -11  -2   0    4.34    1.61
  12   1  -1   -0.69    1.10
 -12  -1   1    0.12    1.07
   9 -11 -28    1.19    1.18
   7 -10 -28    4.81    1.40
   5  -9 -28    1.22    0.91
  -5   9  28    1.82    0.94
  -5   9  28    1.44    0.85
   3  -8 -28    2.97    1.10
  -3   8  28    2.65    1.02
   1  -7 -28    0.84    0.88
  -1   7  28    1.00    0.86
  -1  -6 -28    0.60    0.84
   1   6  28    0.56    0.74
  -3  -5 -28    2.77    1.02
   3   5  28    3.30    1.14
  -5  -4 -28    1.38    0.91
   5   4  28    1.02    1.00
  -7  -3 -28    5.66    1.50
   7   3  28    5.74    1.39
   9   2  28    2.35    1.29
 -12  13  -1    0.02    0.61
  12 -13   1    0.07    0.74
 -11  13   0    3.18    0.86
  11 -13   0    3.23    1.01
 -10  13   1   -0.14    0.59
  10 -13  -1    0.46    0.73
  -9  13   2    0.04    0.59
   9 -13  -2    0.79    0.75
  -8  13   3   20.23    1.72
   8 -13  -3   19.74    1.96
  -7  13   4    1.06    0.67
   7 -13  -4    1.54    0.87
  -6  13   5    0.82    0.67
   6 -13  -5   -0.01    0.72
  -5  13   6    0.54    0.64
   5 -13  -6    0.36    0.81
  -4  13   7    0.28    0.67
   4 -13  -7    1.86    0.96
  -3  13   8   -0.52    0.60
   3 -13  -8   -0.06    0.82
   2 -13  -9   38.13    3.18
   1 -13 -10    2.84    1.26
  -4 -10  -9   26.81    2.94
  -5  -9  -8   13.72    2.26
  -6  -8  -7   -0.14    1.06
  -7  -7  -6    0.72    1.22
  -8  -6  -5   -0.74    0.96
   9   5   4    4.14    1.47
  -9  -5  -4    4.15    1.58
  10   4   3    3.17    1.44
 -10  -4  -3    5.43    1.68
  11   3   2    0.97    1.27
 -11  -3  -2    0.29    1.21
   8 -11 -29   -0.24    0.94
   6 -10 -29    0.65    1.00
   4  -9 -29    0.30    0.82
  -4   9  29    0.81    0.87
   2  -8 -29    3.58    1.22
  -2   8  29    3.09    1.08
   0  -7 -29   -0.21    0.83
   0   7  29   -0.02    0.82
  -2  -6 -29    3.32    1.14
   2   6  29    4.12    1.22
  -4  -5 -29    1.14    0.93
   4   5  29    0.65    0.92
  -6  -4 -29    0.27    0.86
   6   4  29    0.27    0.94
   8   3  29    0.21    1.02
 -11  14   2    0.84    0.76
  11 -14  -2    2.07    1.01
 -10  14   3    3.58    0.95
  10 -14  -3    3.99    1.15
  -9  14   4    4.96    1.04
   9 -14  -4    5.48    1.28
  -8  14   5   -0.11    0.65
   8 -14  -5   -0.08    0.77
  -7  14   6    0.54    0.66
   7 -14  -6    0.99    0.87
  -6  14   7    0.58    0.72
   6 -14  -7   -0.05    0.78
  -5  14   8    8.98    1.37
   5 -14  -8   10.24    1.77
  -4  14   9   20.93    2.13
   4 -14  -9   25.94    2.62
   7 -11 -30    7.04    1.77
   5 -10 -30    1.12    1.07
   3  -9 -30   29.64    2.81
  -3   9  30   31.80    2.68
   1  -8 -30    3.03    1.17
  -1   8  30    0.95    0.93
  -1  -7 -30    2.88    1.14
   1   7  30    2.16    1.01
  -3  -6 -30   30.09    2.72
   3   6  30   31.29    2.74
  -5  -5 -30   -0.30    0.80
   5   5  30    0.22    0.98
   7   4  30    7.49    1.73
   8 -12 -31   -0.17    1.07
   6 -11 -31    2.08    1.23
   4 -10 -31    0.45    0.96
   2  -9 -31    0.14    0.98
  -2   9  31    0.20    0.87
   0  -8 -31   -0.78    0.85
   0   8  31   -0.32    0.88
  -2  -7 -31   -0.16    1.00
   2   7  31    1.09    0.99
  -4  -6 -31    0.63    1.04
   4   6  31    1.43    1.11
   6   5  31    1.51    1.17
   8   4  31    0.60    1.15
   7 -12 -32    9.49    2.09
   5 -11 -32    7.48    1.82
   3 -10 -32    1.10    1.11
   1  -9 -32    6.61    1.67
  -1   9  32    5.64    1.45
  -1  -8 -32    7.72    1.75
   1   8  32    7.82    1.70
  -3  -7 -32    2.97    1.30
   3   7  32    0.02    0.97
  -5  -6 -32    8.58    1.82
   5   6  32    8.40    1.81
   7   5  32    5.35    1.65
   4 -11 -33    3.86    1.45
   2 -10 -33    9.78    1.96
   0  -9 -33   -0.44    1.09
   0   9  33    0.83    1.14
  -2  -8 -33   12.48    2.19
   2   8  33   10.35    1.93
  -4  -7 -33    1.07    1.14
   4   7  33    1.79    1.29
   3 -11 -34    7.93    1.94
   1 -10 -34   30.34    3.17
  -1  -9 -34   24.83    2.94
   1   9  34   26.01    2.86
  -3  -8 -34    6.00    1.76
   3   8  34    8.62    1.85
   0   0 -18  514.49   22.00
   0   0 -18  545.92   19.54
   0   0  18  472.86   21.95
   0   0  18  528.47   18.77
   0   0  18  518.15   21.98
   3  -2 -19    5.81    0.92
  -3   1 -19    6.90    0.65
   3  -2 -19    6.94    0.73
  -3   1 -19    6.52    0.74
   3  -1  19    6.00    0.77
   3  -1  19    6.68    0.73
  -3   2  19    6.27    0.69
  -3   2  19    6.54    0.91
   3  -1  19    6.29    0.68
   4  -3 -20    9.91    0.90
   1   1 -15    7.84    0.85
   4  -3 -20    9.96    1.15
   1   1 -15    7.90    0.60
  -1  -1  15    7.31    0.75
  -1  -1  15    8.65    0.68
  -4   3  20   11.62    1.24
  -1  -1  15    8.64    0.81
   2  -2 -20   38.14    2.33
   2  -2 -20   37.36    1.88
  -2   2  20   40.23    1.72
  -2   2  20   38.35    1.88
  -2   2  20   41.71    2.37
  -3   2 -17    5.68    0.47
   3  -1 -17    5.74    0.66
   3  -1 -17    5.44    0.89
   0  -1 -20    2.95    0.66
  -3   2 -17    5.27    0.53
  -3   1  17    5.19    0.60
   3  -2  17    5.15    0.61
   3  -2  17    4.48    0.57
  -3   1  17    5.07    0.80
  -2   2 -16   22.23    1.19
  -2   2 -16   23.53    0.99
   2  -2  16   23.28    1.26
   2  -2  16   22.56    1.24
   2  -2  16   23.46    1.21
  -1   2 -15    8.69    0.47
  -4   1 -20   11.45    0.85
  -4   1 -20    9.78    0.94
  -1   2 -15    8.12    0.62
   4  -1  20    9.64    0.99
   1  -2  15    8.13    0.64
   4  -1  20    9.26    0.89
   1  -2  15    7.87    0.66
   4  -1  20   12.52    0.95
   1  -2  15    8.17    0.66
  -6   2 -20   13.42    1.07
  -6   2 -20   13.83    1.11
   6  -4 -20   13.91    1.59
  -6   2 -20   13.35    1.18
   6  -2  20   13.22    1.28
  -6   4  20   14.23    1.52
  -6   4  20   12.01    1.11
   6  -2  20   11.15    1.16
  -8   3 -20   10.94    1.15
  -8   3 -20   10.91    1.09
  -8   3 -20    9.92    1.17
   8  -3  20   11.85    1.32
   2   1 -14    5.95    0.82
   2   1 -14    5.37    0.57
  -2  -1  14    6.01    0.82
  -2  -1  14    5.78    0.76
   4  -1 -16    3.22    0.81
   4  -1 -16    3.79    0.56
  -4   1  16    3.31    0.52
  -4   1  16    3.37    0.74
   5  -2 -17    0.80    0.66
  -4   3 -16    3.45    0.36
  -4   3 -16    2.86    0.32
   4  -3  16    3.01    0.44
   4  -3  16    3.18    0.48
   4  -3  16    2.85    0.53
   2  -3  14    5.39    0.58
   2  -3  14    5.50    0.41
   2  -3  14    5.10    0.42
   8  -5 -20    9.82    1.53
  -8   5  20   10.71    1.18
  -8   5  20   12.97    1.57
   1   3 -11    1.98    0.36
   1   3 -11    1.52    0.39
   1   3 -11    1.76    0.33
  10  -7 -22    2.69    1.15
  -1  -3  11    1.29    0.43
  -1  -3  11    1.65    0.43
  -1  -3  11    1.63    0.41
 -10   7  22    3.02    1.11
   4   0 -14   15.76    1.43
   4   0 -14   14.09    1.01
  -4   0  14   14.14    1.29
   4  -4  14   15.81    0.87
   4  -4  14   14.42    0.83
   4  -4  14   13.37    0.96
 -10   3 -22    2.44    0.76
  10  -3  22    1.64    0.88
   1  -4  11    1.85    0.38
   1  -4  11    1.49    0.31
   1  -4  11    1.60    0.30
 -12   4 -22   10.57    1.52
  12  -8 -22   10.99    2.04
   1   4  -9  288.89   12.53
   1   4  -9  300.75   10.87
   1   4  -9  300.92   10.89
  -1  -4   9  282.75   10.51
  -1  -4   9  284.45   12.64
  -1  -4   9  287.18   12.66
   2   3 -10   52.21    2.63
   2   3 -10   51.13    2.23
   2   3 -10   51.09    2.25
  -2  -3  10   49.16    2.69
  -2  -3  10   47.69    2.64
   3   2 -11    3.56    0.54
 -12   5 -20    4.73    1.03
   3   2 -11    6.32    0.88
   3   2 -11    5.63    0.66
  12  -5  20    6.24    1.37
  -3  -2  11    5.51    0.85
  -3  -2  11    5.37    0.87
   6  -1 -14    3.32    0.65
   6  -1 -14    2.52    0.84
  -9   5 -17    3.88    0.71
  -9   5 -17    4.99    0.78
  -6   1  14    3.55    0.92
   9  -5  17    4.16    0.87
  -8   3  16    1.78    0.86
   9  -4 -17    5.15    1.29
   6  -5  14    2.83    0.48
   6  -5  14    3.53    0.68
  -9   4  17    4.43    1.15
   6  -5  14    3.68    0.56
  12  -7 -20    5.87    1.66
   9  -2  23    1.17    0.80
   3  -5  11    5.04    0.56
  13  -8 -21   19.13    2.62
  -1   5  -9  289.51   10.54
  -1   5  -9  294.34   10.76
  -1   5  -9  270.33   12.12
   1  -5   9  291.16   12.32
   1  -5   9  287.65   12.32
   1  -5   9  292.13   10.39
   0   5  -8   79.40    3.21
   0   5  -8   77.31    3.67
   0   5  -8   81.03    3.21
   0  -5   8   81.93    3.83
   0  -5   8   79.91    3.23
   1   5  -7   20.10    1.19
   1   5  -7   22.17    1.23
   1   5  -7   20.75    1.35
  -1  -5   7   20.09    1.44
  -1  -5   7   20.51    1.21
  -1  -5   7   20.50    1.50
   2   4  -8   17.97    1.12
   2   4  -8   16.20    1.09
   2   4  -8   17.63    1.27
  -2  -4   8   16.82    1.38
  -2  -4   8   16.53    1.32
   3   3  -9   -0.09    0.33
   3   3  -9    0.25    0.44
  12  -9 -24    3.46    1.49
   3   3  -9   -0.09    0.31
  -3  -3   9    0.22    0.51
  -3  -3   9   -0.08    0.35
   4   2 -10   18.38    1.21
   4   2 -10   18.15    1.23
   4   2 -10   17.17    1.49
  -4  -2  10   18.85    1.58
   5   1 -11   14.92    1.16
   5   1 -11   17.08    1.60
  -5  -1  11   17.36    1.53
  -5  -1  11   16.38    1.16
   6   0 -12   15.41    1.21
   6   0 -12   19.04    1.75
  -6   0  12   14.48    1.20
  -6   0  12   16.69    1.65
  -6   0 -24   27.56    1.84
  -6   0 -24   26.64    2.06
  -6   0 -24   26.07    1.73
   6   0  24   28.35    2.14
   4  -6  10   18.70    1.13
   4  -6  10   16.97    0.90
   4  -6  10   16.84    0.91
  12  -3  24    3.28    1.23
   3  -6   9   -0.10    0.28
  -2   6  -8   16.95    0.77
  -2   6  -8   17.41    0.79
   2  -6   8   16.80    1.05
   2  -6   8   16.03    1.01
   2  -6   8   16.13    1.02
  -1   6  -7   19.90    1.05
  -1   6  -7   19.23    1.13
  -1   6  -7   21.19    1.08
   1  -6   7   21.60    1.34
   1  -6   7   19.59    1.26
   1  -6   7   19.93    1.14
   0   6  -6   50.37    2.23
   0   6  -6   49.57    2.23
   0   6  -6   46.72    2.46
   0  -6   6   46.27    2.61
   0  -6   6   49.17    2.65
   0  -6   6   50.90    2.20
   1   6  -5    0.24    0.39
   1   6  -5    0.26    0.36
   1   6  -5    0.52    0.43
  -1  -6   5    0.38    0.37
  -1  -6   5    0.48    0.48
  -1  -6   5    0.65    0.52
   2   5  -6    1.63    0.46
   2   5  -6    1.93    0.59
   2   5  -6    2.44    0.56
  -2  -5   6    1.63    0.62
  -2  -5   6    1.94    0.71
   3   4  -7    0.64    0.44
   3   4  -7    0.12    0.44
   3   4  -7    0.03    0.36
  -3  -4   7   -0.53    0.50
   4   3  -8    4.26    0.69
   4   3  -8    3.29    0.64
   4   3  -8    3.56    0.79
  -4  -3   8    4.24    0.92
   5   2  -9  178.95    7.25
   5   2  -9  187.68    8.58
   5   2  -9  180.20    7.33
  -5  -2   9  184.69    8.62
   6   1 -10    5.79    0.82
   6   1 -10    6.58    1.17
  -9   8  25    2.65    1.10
  -6  -1  10    6.83    0.90
  -6  -1  10    8.07    1.26
   7  -7 -25    0.18    0.70
   7   0 -11    0.34    0.78
  -7   7  25    0.67    0.72
  -7   0  11    0.34    0.45
  -7   0  11   -0.74    0.61
 -12   7 -16    3.05    0.85
 -12   7 -16    2.61    0.79
   9  -2 -13    0.14    0.78
   3  -5 -25    0.21    0.65
  -9   2  13   -0.10    0.73
  12  -7  16    2.59    0.95
  -3   5  25    0.36    0.23
  -3   5  25    0.44    0.46
  -3   5  25    0.69    0.65
 -11   7 -15    8.61    1.08
 -11   7 -15   10.17    1.19
  11  -7  15    8.23    1.27
 -10   7 -14   16.22    1.27
 -10   7 -14   18.17    1.37
  11  -4 -15   12.65    2.08
 -11   4  15   10.49    1.81
  10  -7  14   16.31    1.51
  12  -5 -16    1.98    1.28
  -3  -2 -25    0.52    0.46
  -3  -2 -25    0.46    0.56
  -9   7 -13   -0.09    0.35
   3   2  25    0.22    0.63
   9  -7  13    0.17    0.47
  -7   0 -25   -0.18    0.47
  -7   0 -25   -0.14    0.53
  -7   7 -11   -0.04    0.24
  -7   0 -25   -0.48    0.51
   7  -7  11   -0.11    0.47
   7   0  25    0.14    0.68
   7  -7  11    0.24    0.36
   7  -7  11   -0.02    0.29
   6  -7  10    5.72    0.80
   6  -7  10    6.61    0.68
   6  -7  10    6.06    0.60
   9  -1  25    2.67    1.08
   5  -7   9  168.63    6.53
   5  -7   9  176.37    7.43
   5  -7   9  167.73    7.40
   4  -7   8    3.25    0.45
   4  -7   8    3.89    0.51
   4  -7   8    3.70    0.57
  -3   7  -7    0.26    0.22
  -3   7  -7    0.23    0.18
   3  -7   7    0.18    0.28
   3  -7   7    0.28    0.30
   3  -7   7    0.30    0.26
  -2   7  -6    1.87    0.36
  -2   7  -6    2.17    0.40
   2  -7   6    1.83    0.51
   2  -7   6    2.25    0.46
   2  -7   6    1.93    0.46
  -1   7  -5    0.24    0.30
  -1   7  -5    0.37    0.30
  -1   7  -5    0.39    0.36
   1  -7   5    0.41    0.44
   1  -7   5    0.43    0.32
   1  -7   5    0.37    0.36
   0   7  -4    3.63    0.63
   0   7  -4    2.79    0.59
   0   7  -4    2.85    0.59
   0  -7   4    2.39    0.66
   0  -7   4    3.03    0.53
   0  -7   4    3.05    0.72
   1   7  -3   22.29    1.57
   1   7  -3   20.81    1.41
   1   7  -3   21.14    1.47
  -1  -7   3   21.09    1.28
  -1  -7   3   17.64    1.61
  -1  -7   3   20.22    1.68
   2   6  -4   19.22    1.39
   2   6  -4   18.61    1.51
   2   6  -4   18.59    1.36
  -2  -6   4   21.96    1.75
   3   5  -5    0.08    0.43
   3   5  -5   -0.20    0.41
   3   5  -5    0.28    0.50
  -3  -5   5    0.28    0.62
   4   4  -6    0.07    0.42
   4   4  -6    0.68    0.49
   4   4  -6    0.31    0.50
  -4  -4   6    0.34    0.69
   5   3  -7    6.36    0.87
   5   3  -7    7.07    1.19
   5   3  -7    6.57    0.91
  -5  -3   7    8.24    1.31
   6   2  -8   26.32    1.73
   6   2  -8   25.75    1.78
   6   2  -8   28.13    2.18
  -6  -2   8   30.59    2.28
   7   1  -9  124.05    6.40
  -7  -1   9  125.04    6.40
   8   0 -10   13.89    1.80
   9  -1 -11    8.42    1.53
  -9   1  11    8.92    1.61
  11  -3 -13    0.53    1.07
  11  -8  13    0.50    0.62
  -6  -1 -26   22.53    2.01
  -6  -1 -26   20.93    1.70
   6   1  26   22.89    2.10
  -8   8 -10   13.41    0.90
   8  -8  10   12.12    1.13
   8  -8  10   11.84    1.02
  -7   8  -9  113.57    4.40
   7  -8   9  107.14    5.17
   7  -8   9  112.55    4.71
   7  -8   9  120.92    5.25
  -6   8  -8   28.14    1.26
   6  -8   8   24.45    1.52
   6  -8   8   27.79    1.61
   6  -8   8   29.07    1.61
  -5   8  -7    6.10    0.50
   5  -8   7    7.03    0.80
   5  -8   7    5.79    0.65
   5  -8   7    5.82    0.69
  -4   8  -6    0.20    0.27
  -4   8  -6    0.46    0.25
   4  -8   6    0.37    0.30
   4  -8   6    0.37    0.35
   4  -8   6    0.02    0.32
  -3   8  -5   -0.11    0.25
  -3   8  -5    0.23    0.31
   3  -8   5    0.06    0.35
   3  -8   5    0.01    0.28
   3  -8   5    0.13    0.29
  -2   8  -4   18.22    1.16
  -2   8  -4   20.27    1.21
  -2   8  -4   18.17    1.15
   2  -8   4   19.33    1.13
   2  -8   4   18.26    1.41
  -1   8  -3   22.83    1.39
  -1   8  -3   20.86    1.38
  -1   8  -3   19.83    1.37
   1  -8   3   19.83    1.58
   1  -8   3   21.53    1.21
   1  -8   3   22.00    1.68
   0   8  -2    0.21    0.47
   0   8  -2    0.47    0.44
   0   8  -2    0.74    0.47
   0  -8   2    0.33    0.57
   0  -8   2    0.27    0.33
   1   8  -1    9.49    1.13
   1   8  -1   10.30    1.18
   1   8  -1   10.74    1.12
  -1  -8   1   10.01    0.87
  -1  -8   1   10.14    1.45
   2   7  -2    1.47    0.57
   2   7  -2    1.05    0.59
   2   7  -2    1.89    0.63
  -2  -7   2    1.13    0.70
  -2  -7   2    1.27    0.47
   3   6  -3    3.95    0.79
   3   6  -3    3.74    0.78
   3   6  -3    2.69    0.79
  -3  -6   3    3.39    0.94
   4   5  -4   11.30    1.36
   4   5  -4   10.68    1.18
   4   5  -4   11.96    1.19
  -4  -5   4    9.50    1.39
   5   4  -5    9.93    1.22
   5   4  -5    7.73    1.02
   5   4  -5    7.78    1.27
  -5  -4   5    7.14    1.29
   6   3  -6   40.29    2.38
   6   3  -6   42.18    2.37
   6   3  -6   45.82    2.97
  -6  -3   6   45.65    3.06
   7   2  -7    0.52    0.54
   7   2  -7    0.76    0.79
  -7  -2   7    0.80    0.81
   8   1  -8   17.48    1.97
  -8  -1   8   17.77    1.92
   9  -9 -27   -0.63    0.86
   9   0  -9    1.05    0.98
  -9   0   9   -0.45    0.76
   3  -6 -27    1.50    0.79
  12  -3 -12    5.72    1.58
  -3   6  27    1.26    0.76
 -12   3  12    7.01    1.57
  -3   6  27    1.11    0.56
 -12   9 -12    4.58    0.95
 -12   9 -12    5.12    0.92
  12  -9  12    5.53    1.12
  -9   9  -9    0.19    0.35
   9  -9   9    0.05    0.47
   9   0  27   -0.16    0.78
  -8   9  -8   17.88    1.11
   8  -9   8   15.37    1.21
   8  -9   8   17.26    1.33
  -7   9  -7    0.80    0.34
   7  -9   7    0.59    0.48
   7  -9   7    0.44    0.36
   7  -9   7    0.47    0.40
  -6   9  -6   40.51    1.85
   6  -9   6   40.83    2.23
   6  -9   6   40.39    2.07
   6  -9   6   41.71    2.27
  -5   9  -5    7.36    0.69
   5  -9   5    6.44    0.84
   5  -9   5    7.40    0.78
   5  -9   5    6.56    0.77
  -4   9  -4    9.92    0.83
   4  -9   4   10.36    1.03
   4  -9   4   10.25    0.85
   4  -9   4    9.73    0.94
  -3   9  -3    3.58    0.62
  -3   9  -3    3.30    0.56
   3  -9   3    2.98    0.53
   3  -9   3    3.50    0.73
  -2   9  -2    1.36    0.51
  -2   9  -2    1.45    0.49
   2  -9   2    1.18    0.39
   2  -9   2    1.32    0.59
  -1   9  -1   10.47    1.07
  -1   9  -1    9.59    1.08
   1  -9   1    9.38    0.80
   1  -9   1   10.52    1.27
   0   9   0  301.70   11.67
   0   9   0  291.59   11.65
   0  -9   0  313.34   13.65
   0  -9   0  290.68   10.88
   1   9   1    0.08    0.50
   1   9   1    0.52    0.59
  -1  -9  -1    0.17    0.72
  -1  -9  -1   -0.05    0.31
   2   8   0    3.40    0.83
   2   8   0    2.94    0.76
   2   8   0    3.18    0.87
  -2  -8   0    4.37    0.71
  -2  -8   0    3.41    1.00
   3   7  -1    0.17    0.57
   3   7  -1    0.54    0.61
   3   7  -1    0.59    0.54
  -3  -7   1    1.07    0.81
   4   6  -2   -0.19    0.48
   4   6  -2    0.45    0.61
  -4  -6   2    0.49    0.68
   5   5  -3   28.85    2.27
   5   5  -3   28.81    1.94
  -5  -5   3   29.00    2.41
   6   4  -4    0.73    0.55
   6   4  -4    0.90    0.71
  -6  -4   4    0.08    0.78
   7   3  -5    0.14    0.73
  -7  -3   5   -0.37    0.70
   8   2  -6   -0.09    0.84
  -8  -2   6    0.66    0.93
   9   1  -7    3.79    1.18
  -9  -1   7    3.53    1.20
  10   0  -8    0.65    0.99
  10 -10 -28    1.35    1.24
 -10   0   8    0.00    0.82
   6  -8 -28    0.49    0.82
  12  -2 -10    4.73    1.52
  -6   8  28    0.39    0.74
 -12   2  10    5.35    1.50
   4  -7 -28    6.64    1.32
  -4   7  28    6.81    1.31
  -4   7  28    8.13    1.40
   0  -5 -28    6.27    1.25
   0   5  28    6.79    1.27
 -13  10 -11    0.61    0.65
  -4  -3 -28    5.51    1.15
  -4  -3 -28    5.89    1.02
   4   3  28    7.00    1.32
 -12  10 -10    3.98    0.83
  -6  -2 -28    1.47    0.82
  12 -10  10    4.83    1.06
 -11  10  -9   50.26    2.66
  11 -10   9   55.87    3.24
 -10  10  -8   -0.07    0.40
  10 -10   8   -0.16    0.50
  10   0  28    0.77    1.04
  -9  10  -7    2.52    0.56
   9 -10   7    2.53    0.70
  -8  10  -6    0.57    0.40
   8 -10   6    0.64    0.48
  -7  10  -5    0.40    0.35
   7 -10   5    0.29    0.44
  -6  10  -4    0.54    0.37
   6 -10   4    0.17    0.42
   6 -10   4    0.39    0.46
  -5  10  -3   30.73    1.63
   5 -10   3   28.15    1.58
   5 -10   3   28.77    1.93
  -4  10  -2    0.02    0.35
   4 -10   2    0.16    0.34
   4 -10   2    0.26    0.45
  -3  10  -1    0.19    0.42
   3 -10   1    0.16    0.47
   3 -10   1    0.30    0.33
  -2  10   0    2.30    0.63
   2 -10   0    2.15    0.76
   2 -10   0    3.10    0.50
  -1  10   1   -0.05    0.49
   1 -10  -1   -0.18    0.57
   0  10   2    0.12    0.52
   0 -10  -2   -0.12    0.65
   1  10   3   12.12    1.42
  -1 -10  -3   15.95    1.89
   2   9   2    1.22    0.70
  -2  -9  -2    1.09    0.46
  -2  -9  -2    0.89    0.85
   3   8   1    1.80    0.74
  -3  -8  -1    2.36    0.61
  -3  -8  -1    2.42    1.02
   4   7   0   24.93    1.93
   4   7   0   25.62    2.19
  -4  -7   0   29.95    2.47
   5   6  -1    5.07    1.13
  -5  -6   1    4.61    1.23
   6   5  -2    0.92    0.80
  -6  -5   2    0.98    0.92
   7   4  -3    9.80    1.56
  -7  -4   3   11.56    1.80
   8   3  -4    2.43    1.03
  -8  -3   4    1.84    1.05
   9   2  -5    7.77    1.63
  -9  -2   5    7.64    1.60
  10   1  -6    0.63    0.98
 -10  -1   6   -0.13    0.94
  11   0  -7   -0.37    1.06
 -11   0   7   -0.61    0.90
  12  -1  -8    5.64    1.73
 -12   1   8    7.91    1.82
   5  -8 -29    1.47    1.02
  -5   8  29    0.69    0.83
   3  -7 -29    0.26    0.76
  -3   7  29    0.60    0.77
   1  -6 -29    2.46    0.93
  -1   6  29    1.01    0.78
  -1  -5 -29    0.95    0.85
   1   5  29    1.94    0.85
  -3  -4 -29    0.14    0.65
   3   4  29   -0.27    0.76
  -5  -3 -29    1.44    0.91
   5   3  29    2.28    1.01
 -13  11  -9   33.85    2.29
  13 -11   9   37.83    2.80
 -12  11  -8    7.05    1.06
  12 -11   8    7.04    1.28
 -11  11  -7   -0.02    0.49
  11 -11   7   -0.12    0.60
 -10  11  -6    0.08    0.46
  10 -11   6    0.08    0.55
  -9  11  -5    6.82    0.88
   9 -11   5    6.17    1.00
  -8  11  -4    0.83    0.47
   8 -11   4    1.33    0.62
  -7  11  -3   12.14    1.08
   7 -11   3   11.47    1.27
  -6  11  -2    0.25    0.40
   6 -11   2    0.22    0.51
   6 -11   2    0.70    0.46
  -5  11  -1    4.14    0.72
   5 -11   1    4.46    0.66
   5 -11   1    4.22    0.92
  -4  11   0   27.16    1.74
   4 -11   0   27.67    2.09
  -3  11   1    2.01    0.64
   3 -11  -1    1.19    0.69
  -2  11   2    0.56    0.58
   2 -11  -2    0.56    0.68
  -1  11   3   15.45    1.56
   1 -11  -3   15.97    1.84
   0  11   4    0.29    0.59
   0 -11  -4   -0.17    0.75
  -1 -11  -5    1.14    1.00
  -2 -10  -4    6.98    1.51
  -3  -9  -3    0.13    0.91
  -4  -8  -2    0.90    0.98
   5   7   1    2.94    1.07
  -5  -7  -1    3.29    1.19
   6   6   0  238.54   11.56
  -6  -6   0  248.07   11.79
   7   5  -1    1.61    0.97
  -7  -5   1    3.02    1.23
   8   4  -2    0.10    0.87
  -8  -4   2    1.69    1.10
   9   3  -3    0.42    0.96
  -9  -3   3    0.47    0.95
  10   2  -4    6.28    1.58
 -10  -2   4    7.22    1.69
  11   1  -5    1.90    1.27
 -11  -1   5    2.87    1.33
  12   0  -6   31.75    3.30
 -12   0   6   34.75    3.28
  10 -11 -30    1.81    1.35
  13  -1  -7    1.78    1.43
   8 -10 -30    1.38    1.06
   6  -9 -30   22.14    2.38
  -6   9  30   21.56    2.20
   4  -8 -30    8.33    1.56
  -4   8  30   10.75    1.73
  -4   8  30    8.09    1.47
   2  -7 -30    0.25    0.77
  -2   7  30   -0.41    0.62
   0  -6 -30   46.25    3.32
   0   6  30   47.90    3.29
  -2  -5 -30   -0.14    0.78
   2   5  30    0.15    0.78
  -4  -4 -30    8.44    1.53
   4   4  30   10.88    1.71
  -6  -3 -30   23.87    2.36
   6   3  30   23.32    2.38
   8   2  30    1.03    1.05
 -13  12  -7    0.80    0.68
  13 -12   7    1.18    0.86
  10   1  30    1.80    1.27
 -12  12  -6   27.25    2.04
  12 -12   6   33.00    2.43
 -11  12  -5    1.99    0.71
  11 -12   5    1.54    0.76
 -10  12  -4    5.45    0.93
  10 -12   4    6.53    1.11
  -9  12  -3    0.49    0.50
   9 -12   3    0.31    0.61
  -8  12  -2    0.37    0.50
   8 -12   2    0.97    0.67
  -7  12  -1    2.16    0.64
   7 -12   1    2.44    0.79
  -6  12   0  231.15    9.14
   6 -12   0  226.29   10.56
  -5  12   1    1.98    0.66
   5 -12  -1    2.62    0.84
  -4  12   2    0.52    0.54
   4 -12  -2    0.35    0.67
  -3  12   3    1.20    0.65
   3 -12  -3    0.27    0.69
  -2  12   4    5.00    1.03
   2 -12  -4    6.14    1.34
  -1  12   5    1.17    0.72
   1 -12  -5    2.29    1.03
   0 -12  -6   34.61    3.06
  -1 -12  -7    0.14    0.95
  -2 -11  -6    0.31    1.00
  -3 -10  -5    0.24    0.99
  -4  -9  -4    2.59    1.27
  -5  -8  -3   19.13    2.44
  -6  -7  -2    0.36    0.98
   7   6   1    0.11    0.88
  -7  -6  -1    0.62    1.09
   8   5   0    3.16    1.24
  -8  -5   0    2.71    1.29
   9   4  -1   -0.34    0.90
  -9  -4   1    0.79    1.08
  10   3  -2    0.40    1.07
 -10  -3   2   -0.23    0.95
  11   2  -3    9.64    1.95
 -11  -2   3   11.27    2.08
  12   1  -4    5.95    1.77
 -12  -1   4    5.04    1.63
   9 -11 -31    2.19    1.33
   7 -10 -31   -0.38    0.94
   5  -9 -31    3.69    1.28
  -5   9  31    4.20    1.20
  -5   9  31    3.86    1.19
   3  -8 -31    3.08    1.18
  -3   8  31    3.21    1.12
   1  -7 -31    0.27    0.81
  -1   7  31    0.38    0.74
  -1  -6 -31    0.10    0.86
   1   6  31    0.01    0.75
  -3  -5 -31    2.83    1.04
   3   5  31    3.24    1.25
  -5  -4 -31    2.56    1.18
   5   4  31    2.43    1.08
   7   3  31    0.20    0.96
   9   2  31    3.40    1.34
 -12  13  -4    5.19    1.03
  12 -13   4    4.28    1.13
 -11  13  -3   10.30    1.31
  11 -13   3   12.30    1.60
 -10  13  -2   -0.36    0.52
  10 -13   2    0.05    0.66
  -9  13  -1    0.03    0.53
   9 -13   1   -0.05    0.61
  -8  13   0    2.59    0.76
   8 -13   0    2.84    0.94
  -7  13   1   -0.08    0.50
   7 -13  -1   -0.02    0.62
  -6  13   2    0.01    0.53
   6 -13  -2    0.23    0.70
  -5  13   3   17.60    1.64
   5 -13  -3   19.71    2.02
  -4  13   4    1.55    0.76
   4 -13  -4    2.42    0.99
  -3  13   5   -0.47    0.59
   3 -13  -5    0.18    0.81
  -2  13   6    0.34    0.76
   2 -13  -6    0.51    0.93
   1 -13  -7    1.36    1.05
  -4 -10  -6    0.45    1.03
  -5  -9  -5   -0.58    0.94
  -6  -8  -4    1.72    1.28
  -7  -7  -3    7.78    1.96
  -8  -6  -2   -0.56    1.04
  -9  -5  -1    1.81    1.27
  10   4   0    9.68    1.94
 -10  -4   0    9.97    2.09
  11   3  -1   -0.24    1.04
 -11  -3   1    0.05    1.13
   8 -11 -32    4.25    1.50
   6 -10 -32    1.39    1.16
   4  -9 -32    1.84    1.16
  -4   9  32    2.82    1.13
  -4   9  32    3.21    1.18
   2  -8 -32   13.04    1.97
  -2   8  32   13.23    1.91
   0  -7 -32    1.31    1.03
   0   7  32    1.92    1.08
  -2  -6 -32   11.35    1.85
   2   6  32   13.13    1.96
  -4  -5 -32    2.89    1.18
   4   5  32    3.37    1.26
   6   4  32    0.49    1.04
   8   3  32    3.45    1.39
 -11  14  -1    0.43    0.69
  11 -14   1    0.87    0.81
 -10  14   0    9.97    1.38
  10 -14   0    8.12    1.44
  -9  14   1    0.24    0.61
   9 -14  -1    1.03    0.83
  -8  14   2   -0.26    0.61
   8 -14  -2   -0.40    0.69
  -7  14   3    7.69    1.21
   7 -14  -3    6.30    1.34
  -6  14   4    1.47    0.77
   6 -14  -4    1.10    0.89
  -5  14   5   -0.67    0.57
   5 -14  -5    0.45    0.82
  -4  14   6    0.48    0.73
   4 -14  -6    0.23    0.90
   7 -11 -33    2.97    1.45
   5 -10 -33    8.80    1.89
   3  -9 -33    1.00    1.06
  -3   9  33    1.13    0.94
   1  -8 -33    7.71    1.64
  -1   8  33    4.96    1.32
  -1  -7 -33    7.73    1.67
   1   7  33    7.03    1.59
  -3  -6 -33    0.25    1.02
   3   6  33    0.02    0.99
  -5  -5 -33    7.91    1.68
   5   5  33    8.64    1.79
   7   4  33    1.53    1.18
   6 -11 -34   20.33    2.67
   4 -10 -34   18.59    2.53
   2  -9 -34   26.34    2.78
  -2   9  34   24.05    2.55
   0  -8 -34   14.09    2.28
   0   8  34   16.01    2.17
  -2  -7 -34   27.16    2.90
   2   7  34   29.41    2.82
  -4  -6 -34   17.18    2.36
   4   6  34   19.46    2.40
   6   5  34   21.12    2.63
   5 -11 -35    2.09    1.37
   3 -10 -35   -0.07    1.07
   1  -9 -35    9.65    1.94
  -1   9  35   10.22    1.86
  -1  -8 -35    8.42    1.86
   1   8  35   12.39    2.07
  -3  -7 -35    0.13    1.07
   3   7  35   -0.20    1.00
   5   6  35    1.00    1.30
   4 -11 -36    1.20    1.31
   2 -10 -36    0.19    1.09
   0  -9 -36  123.96    7.12
   0   9  36  115.74    6.84
  -2  -8 -36    0.96    1.23
   2   8  36    0.43    1.10
   4   7  36    2.29    1.34
   1 -10 -37    0.20    1.16
  -1  -9 -37    0.30    1.26
   0   0 -21    0.15    0.35
   0   0 -21    0.05    0.27
   0   0  21   -0.07    0.34
   0   0  21    0.09    0.31
   0   0  21   -0.11    0.24
  -2   1 -21   15.03    0.91
  -2   1 -21   14.63    1.07
   2  -1  21   15.05    1.13
   2  -1  21   12.93    1.03
   2  -1  21   14.97    0.94
   2  -1 -21   14.96    1.01
   2  -1 -21   16.44    1.34
  -2   1  21   16.29    0.98
  -2   1  21   13.33    0.95
  -2   1  21   15.23    1.27
  -2   1  21   15.22    1.29
  -3   1 -22   67.27    2.78
   3  -2 -22   66.84    2.91
   3  -2 -22   66.25    3.55
  -3   1 -22   65.33    3.25
   3  -1  22   59.50    3.22
   3  -1  22   65.92    3.30
   3  -1  22   66.61    2.81
  -3   2  22   62.74    3.45
  -3   2  22   63.72    2.88
  -5   2 -22   63.53    3.26
  -5   2 -22   66.60    2.86
   5  -2  22   69.17    3.42
   5  -2  22   70.03    2.99
   5  -2  22   57.43    3.28
   2  -2 -23   -0.25    0.43
   2  -2 -23   -0.06    0.34
   2   0 -19    0.03    0.26
   2   0 -19    0.34    0.46
  -2   0  19   -0.09    0.27
  -2   0  19   -0.39    0.36
  -2   2  23   -0.18    0.48
  -2   0  19   -0.04    0.35
   4  -2  21    0.70    0.33
  -2   2  23    0.05    0.27
  -2   2  23   -0.03    0.29
   4  -2 -21    4.44    0.93
  -2   0 -23   -0.02    0.31
  -2   0 -23   -0.02    0.38
  -4   2  21    2.71    0.73
   2   0  23   -0.02    0.32
   2  -2  19   -0.04    0.30
  -4   2  21    3.84    0.64
   2   0  23   -0.10    0.42
   5  -3 -22   73.71    4.05
  -5   3  22   68.74    3.88
   6  -4 -23    8.88    1.38
  -6   4  23    8.91    1.05
   1   2 -16   18.40    1.23
   1   2 -16   18.60    1.03
   1   2 -16   19.94    1.00
  -1  -2  16   17.94    1.25
  -1  -2  16   18.26    1.10
  -1  -2  16   18.47    1.26
   3  -3 -24   64.99    3.09
   3  -3 -24   64.80    3.76
  -3   3  24   69.47    3.78
  -3   3  24   68.30    3.11
  -3   3  24   72.50    2.85
  -3   3  24   72.22    3.79
  -5   3 -20   30.55    1.47
  -5   3 -20   28.29    1.61
   5  -3  20   30.92    1.71
   5  -3  20   33.60    1.83
   5  -3  20   29.11    1.71
   5  -2 -20   30.78    2.22
   5  -2 -20   31.46    1.74
  -5   2  20   30.45    2.15
  -5   2  20   32.09    1.74
  -3   0 -24   70.99    3.03
  -3   0 -24   68.67    3.56
   3   0  24   69.82    3.58
   3   0  24   57.30    3.44
   3   0  24   71.05    2.94
  -1   3 -16   17.34    0.85
  -1   3 -16   17.89    0.74
  -1   3 -16   18.70    0.74
   1  -3  16   18.64    1.06
   1  -3  16   18.04    1.07
   1  -3  16   18.62    1.05
   9  -6 -24    7.17    1.53
  -9   3 -24    6.78    1.04
   9  -3  24    7.52    1.23
  -9   6  24    7.80    1.41
   1   3 -14   23.05    1.13
   1   3 -14   22.36    1.15
   1   3 -14   21.55    1.31
  -1  -3  14   21.73    1.41
  -1  -3  14   23.84    1.29
  -1  -3  14   22.23    1.43
   8  -6 -25    1.71    0.93
 -10   4 -23   -0.21    0.53
 -10   4 -23    0.56    0.56
  10  -4  23    0.06    0.63
  -8   6  25    0.55    0.83
   4   0 -17   -0.04    0.51
   4  -4 -25   -0.25    0.54
  -4   0  17   -0.02    0.47
  -4   4  25    0.09    0.58
   6  -2 -19   16.63    1.75
  -6   4 -19   15.91    0.98
  -6   2  19   16.57    1.56
   6  -4  19   16.11    1.19
   6  -4  19   14.63    1.13
   6  -4  19   14.70    1.19
  -6   2  19   15.46    1.16
  -4   0 -25    0.18    0.47
   8  -4 -21    5.35    1.26
   4   0  25   -0.14    0.48
   4   0  25   -0.21    0.38
   4  -4  17   -0.14    0.33
  10  -6 -23   -0.15    0.88
  -8   2 -25    0.42    0.59
 -10   6  23   -0.05    0.82
   8  -2  25    0.93    0.71
   1  -4  14   21.26    1.18
   1  -4  14   23.44    1.26
   1  -4  14   21.11    1.19
   0   4 -13    0.09    0.19
   0   4 -13   -0.03    0.20
  12  -8 -25   -0.14    1.06
   0   4 -13    0.11    0.19
 -12   4 -25    0.86    0.78
   0  -4  13   -0.01    0.23
   0  -4  13    0.28    0.29
  12  -4  25    0.85    0.90
   0  -4  13   -0.11    0.29
   1   4 -12  208.20    7.57
   1   4 -12  205.47    8.74
   1   4 -12  197.51    7.56
  -1  -4  12  196.25    7.43
  -1  -4  12  185.37    8.82
  -1  -4  12  201.53    8.85
   2   3 -13    3.80    0.55
   2   3 -13    5.15    0.73
   2   3 -13    5.17    0.62
  11  -8 -26    0.88    1.22
  -2  -3  13    4.03    0.72
  -2  -3  13    4.41    0.74
   3   2 -14    1.08    0.38
   3   2 -14    1.14    0.43
 -12   5 -23    0.50    0.70
   9  -7 -26    1.46    1.07
   3   2 -14    1.51    0.58
  -9   7  26    2.62    1.10
  -3  -2  14    1.82    0.61
  12  -5  23    0.16    0.79
  -3  -2  14    0.78    0.51
 -11   5 -22   13.82    1.52
 -11   5 -22   13.70    1.45
  11  -5  22   13.06    1.64
   5  -5 -26   11.04    1.60
  -5   5  26   10.60    1.44
  -5   5  26    9.28    1.08
  -9   5 -20   10.53    1.10
  -9   5 -20   10.35    1.07
   6  -1 -17   10.87    1.50
   6  -1 -17   10.04    1.07
   9  -5  20   11.10    1.27
  -6   1  17   10.96    1.35
  -6   1  17    8.99    0.97
   9  -4 -20   10.09    1.67
   6  -5  17    8.85    0.96
   6  -5  17   10.31    0.88
  -9   4  20   12.19    1.78
   6  -5  17    8.99    0.81
  -5   0 -26    8.65    1.20
  -5   0 -26   11.29    1.08
   5   0  26   10.03    1.32
  -7   1 -26   22.65    1.61
  11  -6 -22   17.34    2.38
  -7   1 -26   22.98    1.68
  -7   1 -26   19.91    1.81
   7  -1  26   23.99    1.98
 -11   6  22   16.65    2.19
  -9   2 -26    2.09    0.78
  12  -7 -23    0.48    1.16
   3  -5  14    1.35    0.44
   9  -2  26    2.36    0.95
 -11   3 -26    1.51    0.88
   2  -5  13    3.11    0.51
   2  -5  13    3.99    0.40
   2  -5  13    4.12    0.40
  -1   5 -12  196.73    7.35
  -1   5 -12  201.09    7.35
   1  -5  12  199.21    8.66
   1  -5  12  203.11    7.44
   1  -5  12  198.64    8.66
   0   5 -11   -0.02    0.26
   0   5 -11   -0.06    0.22
   0   5 -11   -0.11    0.21
   0  -5  11   -0.16    0.32
   0  -5  11    0.16    0.29
   0  -5  11    0.04    0.11
   1   5 -10   26.17    1.38
   1   5 -10   24.95    1.38
   1   5 -10   25.04    1.52
  -1  -5  10   26.59    1.70
  -1  -5  10   25.12    1.45
  -1  -5  10   24.30    1.65
   2   4 -11    0.29    0.34
   2   4 -11    0.87    0.39
   2   4 -11    0.42    0.39
  -2  -4  11    0.80    0.55
  -2  -4  11    0.75    0.46
   3   3 -12   85.44    3.97
   3   3 -12   76.45    3.35
   3   3 -12   80.52    3.32
  -3  -3  12   76.94    3.99
  -3  -3  12   66.93    3.90
   4   2 -13    4.85    0.66
   4   2 -13    7.01    1.09
   4   2 -13    5.74    0.79
  -4  -2  13    4.18    0.90
 -12   6 -21    0.51    0.61
   6   0 -15   -0.54    0.40
   6  -6 -27    0.09    0.74
   6   0 -15    0.39    0.68
  -6   0  15    0.15    0.61
  -6   6  27    0.14    0.67
  12  -6  21   -0.45    0.67
  -6   0  15    0.13    0.40
  -6   0 -27   -0.35    0.49
  -6   0 -27    0.02    0.53
  -6   0 -27    0.25    0.42
  12  -6 -21    1.28    1.22
   6  -6  15    0.02    0.27
   6   0  27   -0.18    0.58
   6  -6  15    0.27    0.46
   6  -6  15   -0.13    0.24
 -10   2 -27   28.46    2.21
  10  -2  27   31.48    2.69
   3  -6  12   74.16    3.40
   3  -6  12   78.85    3.42
   3  -6  12   81.47    3.28
   2  -6  11    0.49    0.27
   2  -6  11    0.57    0.35
   2  -6  11    0.83    0.31
  -1   6 -10   22.32    1.21
  -1   6 -10   24.71    1.17
  -1   6 -10   25.19    1.18
   1  -6  10   23.35    1.32
   1  -6  10   25.44    1.48
   1  -6  10   24.67    1.46
   0   6  -9    0.01    0.31
   0   6  -9    0.63    0.34
   0   6  -9   -0.03    0.27
   0  -6   9    0.10    0.41
   0  -6   9    0.06    0.30
   0  -6   9    0.02    0.31
   1   6  -8    1.62    0.48
   1   6  -8    1.44    0.46
   1   6  -8    1.40    0.48
  -1  -6   8    1.14    0.45
  -1  -6   8    1.24    0.54
  -1  -6   8    1.27    0.57
   2   5  -9  166.23    6.48
   2   5  -9  171.14    6.48
   2   5  -9  167.54    7.44
  -2  -5   9  165.43    7.59
  -2  -5   9  143.90    7.51
   3   4 -10    1.30    0.55
   3   4 -10    1.09    0.44
   3   4 -10    0.62    0.43
  -3  -4  10    1.37    0.67
   4   3 -11    0.32    0.42
   4   3 -11    0.69    0.57
   4   3 -11    1.25    0.51
  -4  -3  11    0.89    0.65
   5   2 -12  131.24    5.56
   5   2 -12  141.67    6.66
   5   2 -12  133.18    5.64
  -5  -2  12  137.04    6.65
   6   1 -13    1.09    0.55
   6   1 -13    0.86    0.72
   9  -8 -28    2.65    1.18
  -9   8  28    2.70    1.06
  -6  -1  13    0.67    0.47
  -6  -1  13    0.44    0.70
   7  -7 -28    8.46    1.59
   7   0 -14   12.05    1.58
  -7   7  28    7.86    1.47
  -7   0  14   12.06    1.60
   5  -6 -28    4.57    1.15
 -13   7 -20    4.44    1.01
  -5   6  28    4.06    1.04
  -8   1  15    9.50    1.53
  -5   6  28    3.79    0.52
  13  -7  20    5.76    1.31
   3  -5 -28    3.19    0.94
   9  -2 -16    5.63    1.32
  -3   5  28    1.98    0.57
  -9   2  16    6.91    1.34
  -3   5  28    3.23    1.00
  -3   5  28    3.06    0.41
  -3  -2 -28    2.69    0.85
  12  -5 -19    0.91    1.13
  -3  -2 -28    2.36    0.67
  -9   7 -16    5.32    0.69
   3   2  28    2.91    0.90
 -12   5  19    0.97    1.03
   9  -7  16    5.44    0.84
  -8   7 -15    7.77    0.71
  -5  -1 -28    4.19    1.02
  13  -6 -20    6.31    1.80
  -5  -1 -28    4.64    0.91
   8  -7  15    6.84    0.78
   5   1  28    4.55    1.06
   8  -7  15    7.76    0.89
  -7   7 -14   11.18    0.63
  -7   0 -28    7.14    1.14
   7  -7  14   11.48    0.91
   7  -7  14    9.89    0.82
   7   0  28    7.53    1.41
   7  -7  14   11.03    1.12
  -9   1 -28    2.86    0.92
   6  -7  13    0.61    0.27
   9  -1  28    1.82    1.03
   6  -7  13    0.57    0.49
   6  -7  13    0.23    0.29
   5  -7  12  123.59    5.12
   5  -7  12  125.97    5.57
   5  -7  12  136.64    5.60
   4  -7  11    1.09    0.26
   4  -7  11    0.81    0.44
   4  -7  11    1.10    0.28
   3  -7  10    0.94    0.41
   3  -7  10    0.96    0.31
   3  -7  10    0.95    0.34
  -2   7  -9  164.57    6.21
  -2   7  -9  164.92    6.22
   2  -7   9  164.53    6.25
   2  -7   9  162.27    7.30
   2  -7   9  165.71    7.30
  -1   7  -8    1.42    0.41
  -1   7  -8    1.21    0.32
  -1   7  -8    0.70    0.34
   1  -7   8    1.29    0.51
   1  -7   8    1.86    0.48
   0   7  -7   -0.24    0.35
   0   7  -7    0.06    0.36
   0   7  -7   -0.13    0.33
   0  -7   7   -0.10    0.44
   0  -7   7    0.11    0.34
   0  -7   7   -0.05    0.40
   1   7  -6    0.23    0.45
   1   7  -6    0.70    0.47
   1   7  -6    1.11    0.48
  -1  -7   6    0.61    0.55
  -1  -7   6    0.48    0.55
  -1  -7   6    0.82    0.44
   2   6  -7    7.50    0.90
   2   6  -7    6.96    1.05
   2   6  -7    7.90    0.93
  -2  -6   7    7.87    1.20
  -2  -6   7    7.75    0.84
  -2  -6   7    6.20    1.01
   3   5  -8   22.20    1.69
   3   5  -8   23.03    1.52
   3   5  -8   21.02    1.49
  -3  -5   8   23.83    1.91
   4   4  -9   94.88    4.26
   4   4  -9  101.16    4.99
   4   4  -9   94.62    4.23
  -4  -4   9   99.81    5.09
   5   3 -10   29.03    1.78
   5   3 -10   27.10    1.78
   5   3 -10   32.90    2.27
  -5  -3  10   29.81    2.29
   6   2 -11    3.36    0.69
   6   2 -11    4.00    1.03
   6   2 -11    3.13    0.72
  -6  -2  11    3.19    0.97
   7   1 -12  145.51    7.49
  -7  -1  12  154.51    7.54
   8  -8 -29   -0.08    0.86
   8   0 -13    0.51    0.81
  -8   8  29    0.63    0.86
  -8   0  13    0.48    0.82
   9  -1 -14   -0.48    0.83
   6  -7 -29    0.18    0.75
  -6   7  29    0.45    0.76
  -9   1  14    0.46    0.83
  -6   7  29    0.37    0.33
  12  -4 -17    5.13    1.52
 -12   8 -17    3.76    0.84
 -12   8 -17    4.87    0.93
 -12   4  17    5.70    1.45
  12  -8  17    5.40    1.11
  -6  -1 -29    0.47    0.65
  -6  -1 -29    0.08    0.58
  -9   8 -14    0.48    0.36
   9  -8  14   -0.07    0.42
   6   1  29    0.23    0.66
  -8   8 -13    0.15    0.28
  -8   0 -29    0.08    0.63
   8  -8  13    0.03    0.31
   8  -8  13   -0.10    0.36
   8   0  29   -0.23    0.70
  -7   8 -12  135.72    4.94
   7  -8  12  124.47    5.81
   7  -8  12  122.61    5.30
   7  -8  12  136.71    5.88
   7  -8  12  131.12    5.83
   6  -8  11    3.83    0.52
   6  -8  11    3.69    0.69
   6  -8  11    4.13    0.58
   5  -8  10   29.51    1.53
   5  -8  10   27.83    1.62
   5  -8  10   27.73    1.49
  -4   8  -9   92.61    3.53
  -4   8  -9   95.86    3.54
   4  -8   9   95.23    4.25
   4  -8   9   91.51    3.81
   4  -8   9   87.05    4.21
  -3   8  -8   22.22    1.13
  -3   8  -8   22.48    1.15
   3  -8   8   20.36    1.35
   3  -8   8   21.40    1.30
   3  -8   8   23.04    1.42
  -2   8  -7    7.51    0.72
  -2   8  -7    8.71    0.79
   2  -8   7    7.63    0.79
   2  -8   7    7.79    0.93
   2  -8   7    7.37    0.86
  -1   8  -6    0.78    0.37
  -1   8  -6    1.08    0.46
  -1   8  -6    0.83    0.41
   1  -8   6    0.95    0.40
   1  -8   6    0.36    0.44
   1  -8   6    1.12    0.59
   0   8  -5   -0.32    0.37
   0   8  -5   -0.39    0.32
   0   8  -5    0.07    0.45
   0  -8   5    0.21    0.51
   0  -8   5    0.03    0.34
   1   8  -4   13.84    1.24
   1   8  -4   14.56    1.32
   1   8  -4   15.82    1.33
  -1  -8   4   14.87    1.56
  -1  -8   4   15.14    1.12
   2   7  -5    1.31    0.54
   2   7  -5    0.73    0.55
   2   7  -5    1.25    0.60
  -2  -7   5    1.68    0.74
  -2  -7   5    0.86    0.48
   3   6  -6   38.16    2.44
   3   6  -6   39.07    2.16
   3   6  -6   38.00    2.15
  -3  -6   6   36.10    2.56
   4   5  -7    1.25    0.66
   4   5  -7    0.95    0.55
   4   5  -7    0.88    0.57
  -4  -5   7    0.74    0.70
   5   4  -8   22.99    1.69
   5   4  -8   24.73    1.68
   5   4  -8   25.55    2.05
  -5  -4   8   25.57    2.19
   6   3  -9    0.79    0.74
   6   3  -9    1.21    0.61
   6   3  -9    0.50    0.51
  -6  -3   9    1.51    0.88
   7   2 -10    7.75    1.37
  -7  -2  10    9.95    1.54
   8   1 -11    7.59    1.45
  -8  -1  11    8.76    1.55
   9   0 -12   15.11    2.04
  -9   0  12   15.52    2.05
  10  -1 -13   -1.11    0.84
   7  -8 -30    0.68    0.92
  -7   8  30    1.66    0.98
 -10   1  13   -0.70    0.79
   5  -7 -30    0.19    0.77
  11  -2 -14   -0.22    1.00
 -11   2  14    0.40    0.92
  -5   7  30    0.52    0.71
   1  -5 -30    0.94    0.77
  13  -4 -16    0.18    1.27
  -1   5  30    3.38    0.95
  -1   5  30    1.50    0.32
  -1  -4 -30    1.36    0.81
 -13   9 -16    1.44    0.70
 -13   9 -16    0.63    0.65
   1   4  30    1.60    0.83
  13  -9  16    0.08    0.75
 -11   9 -14   -0.05    0.44
  -5  -2 -30    0.44    0.65
  -5  -2 -30    0.58    0.67
   5   2  30    0.51    0.72
  11  -9  14    0.32    0.57
 -10   9 -13    0.04    0.37
   7   1  30    2.75    1.03
  10  -9  13   -0.27    0.47
  -9   9 -12   13.25    0.99
   9  -9  12   13.75    1.23
  -8   9 -11    7.00    0.68
   8  -9  11    7.16    0.86
   8  -9  11    5.79    0.74
  -7   9 -10    8.59    0.66
   7  -9  10    7.70    0.99
   7  -9  10    7.31    0.77
   7  -9  10    8.75    0.84
  -6   9  -9    1.42    0.32
   6  -9   9    1.43    0.40
   6  -9   9    0.53    0.47
   6  -9   9    1.35    0.43
  -5   9  -8   23.44    1.16
  -5   9  -8   22.20    1.17
   5  -9   8   24.16    1.46
   5  -9   8   22.53    1.41
   5  -9   8   23.64    1.44
  -4   9  -7    0.71    0.32
  -4   9  -7    1.05    0.36
   4  -9   7    0.59    0.40
   4  -9   7    0.77    0.41
   4  -9   7    0.49    0.34
  -3   9  -6   37.73    1.83
  -3   9  -6   39.65    1.87
   3  -9   6   36.25    2.16
   3  -9   6   35.89    1.82
   3  -9   6   35.15    2.13
  -2   9  -5    1.17    0.45
  -2   9  -5    0.83    0.46
   2  -9   5    1.08    0.55
   2  -9   5    0.72    0.38
  -1   9  -4   16.50    1.27
  -1   9  -4   15.29    1.23
   1  -9   4   14.88    1.07
   1  -9   4   16.37    1.54
   0   9  -3    0.61    0.52
   0   9  -3    0.23    0.47
   0  -9   3    0.05    0.60
   0  -9   3    0.68    0.43
   1   9  -2    4.23    0.88
   1   9  -2    4.94    0.88
  -1  -9   2    4.32    1.12
  -1  -9   2    3.49    0.65
   2   8  -3   11.65    1.32
   2   8  -3   11.37    1.28
  -2  -8   3   14.72    1.15
  -2  -8   3   13.77    1.62
   3   7  -4    2.81    0.79
   3   7  -4    1.28    0.68
   3   7  -4    2.00    0.73
  -3  -7   4    2.94    0.96
   4   6  -5    0.13    0.55
   4   6  -5   -0.02    0.52
   4   6  -5   -0.26    0.50
  -4  -6   5   -0.38    0.66
   5   5  -6    0.58    0.68
   5   5  -6    1.61    0.67
  -5  -5   6    0.89    0.81
   6   4  -7    1.69    0.85
   6   4  -7    0.57    0.56
  -6  -4   7    2.10    0.98
   7   3  -8    1.62    0.92
  -7  -3   8    2.32    1.04
   8   2  -9   49.61    3.53
  -8  -2   9   52.35    3.55
   9   1 -10    1.34    1.07
  -9  -1  10    0.56    0.86
  10 -10 -31    0.84    1.24
  10   0 -11   -0.31    0.85
 -10   0  11    0.45    0.95
  12  -2 -13   -0.68    1.11
   6  -8 -31    3.81    1.27
  -6   8  31    4.14    1.11
 -12   2  13   -0.19    0.94
   4  -7 -31   -0.11    0.71
  13  -3 -14    4.57    1.59
  -4   7  31    1.04    0.87
  -4   7  31    0.09    0.76
   2  -6 -31    0.36    0.81
  -2   6  31    0.32    0.77
   0  -5 -31   -0.14    0.66
   0   5  31    0.48    0.79
  -2  -4 -31    0.79    0.73
   2   4  31    1.26    0.87
 -13  10 -14    5.52    1.09
 -13  10 -14    3.46    0.87
  13 -10  14    4.20    1.07
 -12  10 -13   -0.18    0.47
  -6  -2 -31    2.72    1.02
  12 -10  13   -0.17    0.61
   6   2  31    3.51    1.16
 -11  10 -12   70.02    3.39
  11 -10  12   76.39    4.00
 -10  10 -11   -0.30    0.37
  10 -10  11   -0.07    0.46
  10   0  31    0.08    1.03
  -9  10 -10    0.59    0.42
   9 -10  10    0.69    0.52
  -8  10  -9   43.69    2.07
   8 -10   9   44.37    2.47
  -7  10  -8    1.16    0.38
   7 -10   8    1.45    0.60
   7 -10   8    1.26    0.49
   7 -10   8    1.13    0.49
  -6  10  -7    1.15    0.37
   6 -10   7    1.37    0.48
   6 -10   7    0.95    0.43
   6 -10   7    1.53    0.55
  -5  10  -6    0.41    0.34
   5 -10   6    0.50    0.43
   5 -10   6    0.13    0.40
  -4  10  -5    0.11    0.34
   4 -10   5    0.06    0.34
   4 -10   5   -0.18    0.40
  -3  10  -4    2.15    0.54
   3 -10   4    2.07    0.66
   3 -10   4    2.38    0.54
  -2  10  -3   13.99    1.21
  -2  10  -3   14.11    1.24
   2 -10   3   13.06    1.00
   2 -10   3   12.85    1.40
  -1  10  -2    3.06    0.74
  -1  10  -2    4.29    0.85
   1 -10   2    4.65    1.03
   1 -10   2    3.93    0.62
   0  10  -1    0.38    0.54
   0  10  -1    0.36    0.56
   0 -10   1   -0.02    0.33
   0 -10   1    0.40    0.70
   1  10   0   14.61    1.51
  -1 -10   0   16.86    1.96
   2   9  -1    4.51    0.93
  -2  -9   1    5.34    1.24
  -2  -9   1    3.82    0.70
   3   8  -2    0.08    0.53
  -3  -8   2    0.69    0.51
  -3  -8   2    0.50    0.76
   4   7  -3   11.28    1.41
   4   7  -3    9.91    1.44
  -4  -7   3   12.29    1.80
   5   6  -4    5.94    1.04
   5   6  -4    6.08    1.21
  -5  -6   4    6.05    1.35
   6   5  -5    1.48    0.85
  -6  -5   5    1.07    0.91
   7   4  -6   -0.28    0.72
  -7  -4   6    0.86    0.89
   8   3  -7    1.59    1.00
  -8  -3   7    0.66    0.93
   9   2  -8   18.27    2.28
  -9  -2   8   17.04    2.27
  10   1  -9   59.16    4.19
 -10  -1   9   58.76    4.14
  11   0 -10    3.03    1.36
 -11   0  10    3.98    1.41
  12  -1 -11   -1.07    0.99
   9 -10 -32    0.87    1.25
 -12   1  11   -0.36    1.00
   5  -8 -32    6.68    1.46
  -5   8  32    8.43    1.60
   3  -7 -32    0.37    0.78
  -3   7  32    0.63    0.81
   1  -6 -32   18.24    2.05
  -1   6  32   16.34    1.84
  -1  -5 -32   15.30    1.92
   1   5  32   16.76    1.97
  -3  -4 -32    0.46    0.81
   3   4  32    0.99    0.86
  -5  -3 -32    8.31    1.57
   5   3  32    8.20    1.55
 -13  11 -12   37.22    2.37
  13 -11  12   41.18    2.81
 -12  11 -11   -0.23    0.49
  12 -11  11    0.22    0.64
   9   1  32    1.23    1.16
 -11  11 -10    3.18    0.71
  11 -11  10    4.70    0.95
 -10  11  -9   52.11    2.65
  10 -11   9   55.77    3.10
  -9  11  -8   16.69    1.23
   9 -11   8   15.78    1.40
  -8  11  -7    0.39    0.41
   8 -11   7    0.67    0.50
  -7  11  -6    0.67    0.40
   7 -11   6   -0.12    0.46
   7 -11   6    0.80    0.52
  -6  11  -5    0.66    0.42
   6 -11   5    1.37    0.57
   6 -11   5    0.68    0.48
  -5  11  -4    4.87    0.73
   5 -11   4    5.39    0.94
   5 -11   4    5.53    0.76
  -4  11  -3    9.74    1.04
   4 -11   3    9.51    0.89
   4 -11   3   10.16    1.24
  -3  11  -2    0.51    0.49
   3 -11   2    0.42    0.36
   3 -11   2    0.24    0.52
  -2  11  -1    4.71    0.84
   2 -11   1    4.60    1.04
  -1  11   0   12.96    1.40
   1 -11   0   11.59    1.63
   0  11   1    0.28    0.59
   0 -11  -1   -0.01    0.72
   1  11   2    0.55    0.70
  -1 -11  -2    1.22    0.93
   2  10   1    0.33    0.61
  -2 -10  -1   -0.51    0.81
  -3  -9   0  177.51    7.26
  -3  -9   0  197.58    9.47
  -4  -8   1    4.88    1.35
  -5  -7   2   -0.04    0.83
   6   6  -3    3.23    1.07
  -6  -6   3    2.72    1.15
   7   5  -4    6.66    1.43
  -7  -5   4    6.30    1.54
   8   4  -5    1.44    1.02
  -8  -4   5    1.70    1.12
   9   3  -6   37.35    3.21
  -9  -3   6   37.37    3.26
  10   2  -7    5.98    1.56
 -10  -2   7    4.59    1.56
  11   1  -8    7.99    1.84
 -11  -1   8    7.00    1.75
  12   0  -9    0.55    1.14
 -12   0   9    0.84    1.17
  13  -1 -10    3.95    1.60
   8 -10 -33    8.10    1.82
   6  -9 -33    0.64    1.01
  -6   9  33    1.57    1.01
   4  -8 -33    5.69    1.42
  -4   8  33    5.47    1.36
  -4   8  33    6.63    1.40
   2  -7 -33    3.92    1.19
  -2   7  33    4.63    1.25
   0  -6 -33   -0.12    0.80
   0   6  33   -0.81    0.76
  -2  -5 -33    4.73    1.33
   2   5  33    4.11    1.18
  -4  -4 -33    5.51    1.38
   4   4  33    5.67    1.35
   6   3  33    0.33    0.93
   8   2  33   10.12    1.90
 -13  12 -10    1.60    0.70
  13 -12  10    2.79    0.97
 -12  12  -9    0.22    0.56
  12 -12   9   -0.03    0.66
 -11  12  -8    6.01    0.95
  11 -12   8    7.56    1.18
 -10  12  -7    3.81    0.78
  10 -12   7    4.12    0.92
  -9  12  -6   34.37    2.02
   9 -12   6   36.02    2.34
  -8  12  -5    1.25    0.54
   8 -12   5    1.45    0.64
  -7  12  -4    6.29    0.86
   7 -12   4    6.05    1.02
  -6  12  -3    3.28    0.70
   6 -12   3    2.99    0.66
   6 -12   3    3.30    0.82
  -5  12  -2    0.11    0.45
   5 -12   2    0.29    0.58
  -4  12  -1    3.96    0.79
   4 -12   1    3.78    0.98
  -3  12   0  179.58    7.63
   3 -12   0  188.28    8.91
  -2  12   1    0.89    0.67
   2 -12  -1    1.29    0.82
  -1  12   2    0.47    0.66
   1 -12  -2   -0.06    0.77
   0 -12  -3    0.66    0.91
  -1 -12  -4    4.10    1.36
  -2 -11  -3    9.94    1.85
  -3 -10  -2    0.28    0.99
  -4  -9  -1   -0.01    1.00
  -4  -9  -1    0.05    0.54
  -5  -8   0    2.34    1.21
  -6  -7   1    0.51    1.04
  -7  -6   2   -0.21    0.90
   8   5  -3   20.02    2.36
  -8  -5   3   21.22    2.61
   9   4  -4    1.33    1.12
  -9  -4   4    0.25    1.01
  10   3  -5   -0.86    0.99
 -10  -3   5    0.91    1.17
  11   2  -6    1.02    1.15
 -11  -2   6    0.68    1.17
  12   1  -7    1.03    1.39
 -12  -1   7    0.51    1.12
   7 -10 -34   12.90    2.20
   5  -9 -34   38.43    3.36
  -5   9  34   39.99    3.13
  -5   9  34   41.47    3.17
   3  -8 -34   28.26    2.69
  -3   8  34   23.50    2.40
   1  -7 -34   24.54    2.52
  -1   7  34   25.81    2.44
  -1  -6 -34   25.81    2.59
   1   6  34   26.80    2.49
  -3  -5 -34   25.43    2.57
   3   5  34   26.94    2.65
  -5  -4 -34   41.96    3.32
   5   4  34   41.43    3.35
   7   3  34    8.94    1.82
 -12  13  -7    0.60    0.66
  12 -13   7    1.13    0.75
 -11  13  -6    0.23    0.57
  11 -13   6    0.65    0.70
 -10  13  -5    0.12    0.53
  10 -13   5    0.38    0.62
  -9  13  -4    1.78    0.65
   9 -13   4    0.93    0.67
  -8  13  -3   17.81    1.52
   8 -13   3   20.81    1.83
  -7  13  -2    0.37    0.52
   7 -13   2    0.00    0.58
  -6  13  -1    0.08    0.53
   6 -13   1    0.07    0.63
  -5  13   0    4.07    0.86
   5 -13   0    3.25    1.00
  -4  13   1    0.40    0.59
   4 -13  -1   -0.42    0.67
  -3  13   2    0.14    0.62
   3 -13  -2   -0.31    0.71
  -2  13   3   10.24    1.44
   2 -13  -3   10.64    1.76
   1 -13  -4    5.74    1.45
  -3 -11  -4    0.15    1.04
  -4 -10  -3    6.87    1.76
  -5  -9  -2   -0.27    1.06
  -6  -8  -1    0.82    1.18
  -7  -7   0   16.58    2.52
  -8  -6   1    0.49    1.13
  -9  -5   2   -0.34    1.02
 -10  -4   3    5.58    1.76
  11   3  -4    0.14    1.12
 -11  -3   4    0.30    1.17
   8 -11 -35    0.12    1.20
   6 -10 -35    0.24    1.04
   4  -9 -35    3.19    1.25
  -4   9  35    2.62    1.19
  -4   9  35    0.92    1.07
   2  -8 -35    5.11    1.44
  -2   8  35    6.83    1.49
   0  -7 -35    0.19    0.89
   0   7  35   -0.51    0.78
  -2  -6 -35    7.78    1.69
   2   6  35    6.18    1.48
  -4  -5 -35    3.61    1.39
   4   5  35    1.84    1.20
   6   4  35    0.89    1.12
   8   3  35   -0.30    1.08
 -11  14  -4    0.00    0.60
  11 -14   4    0.16    0.68
 -10  14  -3    5.52    1.05
  10 -14   3    5.00    1.12
  -9  14  -2   -0.12    0.57
   9 -14   2    0.03    0.66
  -8  14  -1    0.37    0.63
   8 -14   1    0.17    0.69
  -7  14   0   14.21    1.52
   7 -14   0   13.72    1.72
  -6  14   1    0.56    0.67
   6 -14  -1    0.48    0.78
  -5  14   2    0.62    0.66
   5 -14  -2   -0.62    0.69
  -4  14   3    5.17    1.13
   4 -14  -3    6.52    1.45
  -3  14   4   -0.22    0.72
   3 -14  -4    0.18    0.88
   7 -11 -36   -0.14    1.14
   5 -10 -36    0.79    1.20
   3  -9 -36  143.94    7.97
  -3   9  36  144.45    7.75
   1  -8 -36    1.39    1.08
  -1   8  36   -0.25    0.89
  -1  -7 -36    0.35    1.02
   1   7  36    1.05    1.13
  -3  -6 -36  148.15    7.98
   3   6  36  141.79    7.80
   5   5  36   -0.84    0.97
   7   4  36   -0.06    1.14
   6 -11 -37   -0.13    1.15
   4 -10 -37    1.11    1.12
   2  -9 -37    0.80    1.16
  -2   9  37    1.99    1.20
   0  -8 -37    0.37    1.08
   0   8  37   -0.09    0.92
  -2  -7 -37    1.19    1.24
   2   7  37    0.87    1.08
   4   6  37    0.46    1.18
   3 -10 -38   12.37    2.19
   1  -9 -38    3.11    1.39
  -1   9  38    5.75    1.61
  -1  -8 -38    4.62    1.55
   1   8  38    3.75    1.44
  -3  -7 -38   14.75    2.44
   3   7  38   10.79    2.06
   0  -9 -39   -0.37    1.18
   0   9  39    0.74    1.14
   0   0 -24  112.64    5.28
   0   0 -24  118.29    4.50
   0   0  24  112.90    5.28
   0   0  24  111.17    4.30
   0   0  24   97.52    5.18
   1   1 -21   14.41    1.22
   4  -3 -26   19.36    1.33
   4  -3 -26   18.70    1.72
   1   1 -21   15.68    0.99
  -1  -1  21   14.36    1.23
  -4   3  26   20.51    1.37
  -1  -1  21   14.72    1.04
  -1  -1  21   14.73    1.22
  -4   3  26   18.70    1.64
  -4   3  26   20.70    1.16
   2   0 -22   92.18    4.79
  -4   2 -24  104.12    4.60
   2   0 -22   87.71    3.97
   4  -2  24  113.59    4.17
  -2   0  22   83.06    4.66
  -2   0  22   91.99    3.91
   4  -2  24   98.45    4.66
   4  -2  24  113.42    4.78
  -1   2 -21   14.59    1.07
  -4   1 -26   20.95    1.25
  -1   2 -21   15.77    0.90
  -4   1 -26   19.86    1.43
   4  -1  26   21.60    1.33
   1  -2  21   13.68    1.01
   4  -1  26   18.88    1.47
   4  -1  26   16.20    1.35
   1  -2  21   16.21    1.15
   2   1 -20   36.55    2.11
   2   1 -20   35.42    1.68
  -2  -1  20   34.30    1.73
  -2  -1  20   31.94    2.02
  -2  -1  20   30.78    2.02
  10  -7 -28    4.89    1.47
 -10   7  28    6.05    1.49
   6  -5 -28    4.22    1.14
   3   1 -19    6.12    0.73
   3   1 -19    5.39    0.91
  -6   5  28    4.63    1.12
  -3  -1  19    4.10    0.77
  -3  -1  19    4.14    0.83
  -6   4 -22   36.19    1.70
   6  -2 -22   29.80    1.98
   6  -2 -22   40.16    2.76
   6  -4  22   36.90    2.02
  -6   2  22   38.54    2.55
   6  -4  22   32.50    1.97
   6  -4  22   34.23    2.03
  -6   1 -28    4.31    0.77
  -6   1 -28    3.95    0.86
   3  -4  19    4.63    0.45
   3  -4  19    4.92    0.67
   3  -4  19    5.04    0.48
   6  -1  28    3.33    0.89
  -9   5  25    1.19    0.94
 -10   3 -28    7.54    1.23
  10  -3  28    6.58    1.32
   0   4 -16    9.66    0.64
   0   4 -16    8.59    0.66
   0   4 -16    9.61    0.63
   0  -4  16    9.83    0.84
   0  -4  16   10.46    0.87
   0  -4  16    9.28    0.86
   1   4 -15    3.80    0.58
   1   4 -15    3.41    0.50
   1   4 -15    3.91    0.50
  -1  -4  15    3.37    0.59
  -1  -4  15    4.61    0.74
  -1  -4  15    3.94    0.69
   2   3 -16   15.09    0.98
   2   3 -16   15.57    1.17
   2   3 -16   14.29    1.01
  -2  -3  16   13.48    1.22
  -2  -3  16   14.82    1.29
   3   2 -17    0.20    0.35
   3   2 -17    0.28    0.50
 -12   5 -26    1.55    0.85
   9  -7 -29    1.22    1.01
  -3  -2  17    0.80    0.55
  -3  -2  17    0.59    0.53
  -9   7  29    0.59    0.92
  12  -5  26    3.61    1.12
  -9   5 -23    7.38    0.96
  -9   5 -23    7.19    0.95
  -6   1  20   11.78    1.39
   9  -5  23    6.04    1.03
  -8   5 -22   31.48    1.65
   7  -2 -21   24.24    2.27
  -8   5 -22   28.93    1.63
   8  -5  22   31.27    1.93
  -7   2  21   23.19    2.16
   9  -4 -23    6.38    1.45
  -9   4  23    7.01    1.40
   6  -5  20   11.42    1.08
  12  -7 -26    3.44    1.50
  -9   2 -29    0.00    0.63
   3  -5  17    0.53    0.18
   3  -5  17    0.51    0.38
   9  -2  29    0.01    0.74
   3  -5  17    0.64    0.17
  -1   5 -15    3.59    0.33
  -1   5 -15    3.50    0.33
   1  -5  15    3.69    0.59
   1  -5  15    3.65    0.50
   1  -5  15    3.43    0.50
   0   5 -14    2.00    0.36
   0   5 -14    1.92    0.36
   0   5 -14    2.47    0.40
   0  -5  14    2.18    0.52
   0  -5  14    1.78    0.49
   0  -5  14    2.07    0.47
   1   5 -13    5.11    0.69
   1   5 -13    4.06    0.58
   1   5 -13    4.17    0.59
  -1  -5  13    3.80    0.65
  -1  -5  13    3.13    0.67
  -1  -5  13    3.69    0.75
   2   4 -14    0.57    0.43
   2   4 -14    1.09    0.42
   2   4 -14    0.48    0.41
  -2  -4  14    0.39    0.50
  -2  -4  14    0.67    0.48
   3   3 -15    5.07    0.82
   3   3 -15    4.95    0.70
   3   3 -15    5.25    0.69
  -3  -3  15    5.95    1.02
  -3  -3  15    3.68    0.80
   4   2 -16    8.49    0.95
   4   2 -16    7.36    1.10
  -4  -2  16    9.37    1.30
   8  -7 -30    2.14    1.08
  -8   7  30    2.34    1.10
  -5  -1  17   10.13    1.32
   6  -6 -30   41.25    3.08
  -6   6  30   39.63    2.94
  -6   6  30   39.60    1.94
 -11   6 -23    0.94    0.57
 -11   6 -23    1.34    0.67
   4  -5 -30    1.43    0.79
   7  -1 -19    0.71    0.81
  11  -6  23    1.57    0.75
  -4   5  30    0.72    0.70
  -7   1  19   -0.12    0.66
  -4   5  30    1.09    0.80
  -4   5  30    0.91    0.35
 -10   6 -22    7.28    1.00
 -10   6 -22    7.79    1.02
  10  -6  22    6.80    1.10
   9  -3 -21    0.61    0.89
   0  -3 -30    3.61    0.90
   0  -3 -30    3.93    0.71
  -9   6 -21    3.32    0.67
   0   3  30    4.55    1.04
   0   3  30    5.29    0.62
  10  -4 -22    6.09    1.50
 -10   4  22    8.13    1.55
  11  -5 -23    0.29    1.04
  -4  -1 -30    0.54    0.47
  -4  -1 -30    0.71    0.64
   7  -6  19    0.13    0.31
 -11   5  23    1.49    1.03
   7  -6  19    0.21    0.34
   4   1  30    0.85    0.69
   7  -6  19    0.47    0.47
  -6   0 -30   39.69    2.30
  -6   0 -30   36.14    2.32
   6   0  30   41.45    2.80
  -8   1 -30    0.55    0.62
  13  -7 -25   -0.37    1.18
   8  -1  30    2.55    1.00
 -10   2 -30    0.53    0.69
  10  -2  30    1.97    1.01
   3  -6  15    5.29    0.41
   3  -6  15    5.24    0.72
   3  -6  15    5.10    0.41
   2  -6  14    0.71    0.30
   2  -6  14    0.56    0.27
   2  -6  14    0.38    0.39
  -1   6 -13    3.93    0.43
  -1   6 -13    3.29    0.39
   1  -6  13    3.07    0.53
   1  -6  13    3.84    0.61
   1  -6  13    4.00    0.61
   0   6 -12   11.23    0.85
   0   6 -12   11.21    0.83
   0   6 -12   10.04    0.81
   0  -6  12   12.45    1.10
   0  -6  12   11.28    0.95
   1   6 -11    1.16    0.44
   1   6 -11    0.85    0.41
   1   6 -11    0.30    0.41
  -1  -6  11    0.77    0.53
  -1  -6  11    0.52    0.47
  -1  -6  11    0.48    0.43
   2   5 -12  134.74    6.20
   2   5 -12  139.39    5.43
   2   5 -12  139.60    5.47
  -2  -5  12  130.66    6.36
  -2  -5  12  127.68    6.38
  -2  -5  12  132.72    5.30
   3   4 -13    0.74    0.53
   3   4 -13    1.01    0.46
   3   4 -13    0.47    0.42
  -3  -4  13    0.79    0.66
  -3  -4  13    0.10    0.53
   4   3 -14   26.51    1.60
   4   3 -14   28.70    1.97
   4   3 -14   23.89    1.59
  -4  -3  14   26.51    2.05
   5   2 -15   16.56    1.28
   5   2 -15   17.21    1.66
  -5  -2  15   17.19    1.74
   9  -8 -31    6.24    1.64
  -9   8  31    4.01    1.31
   7  -7 -31    0.19    0.86
   7   0 -17   -0.64    0.67
  -7   0  17   -0.46    0.68
  -7   7  31   -0.57    0.75
  -7   7  31   -0.14    0.36
   5  -6 -31    8.23    1.51
  -5   6  31    9.01    0.75
  -5   6  31    8.47    1.51
   3  -5 -31    6.34    1.32
  -3   5  31    7.89    1.40
  -3   5  31    6.07    0.61
  10  -3 -20    2.13    1.18
   1  -4 -31    0.66    0.53
 -10   3  20    3.32    1.27
 -10   7 -20    3.02    0.67
 -10   7 -20    2.92    0.67
  10  -7  20    2.22    0.72
   1   3  31    0.43    0.67
  12  -5 -22   13.31    2.20
  -3  -2 -31    6.19    1.24
  -3  -2 -31    7.44    1.06
   3   2  31    6.14    1.25
  -8   7 -18   33.99    1.60
   8  -7  18   36.99    1.97
   8  -7  18   33.48    2.08
   8  -7  18   30.25    1.85
  -7   0 -31   -0.05    0.61
   7  -7  17   -0.27    0.48
   7  -7  17    0.19    0.29
   7   0  31    0.05    0.74
   7  -7  17   -0.16    0.26
  -9   1 -31    3.84    0.99
   9  -1  31    5.91    1.39
   4  -7  14   23.26    1.13
   4  -7  14   23.84    1.14
   4  -7  14   23.30    1.47
   3  -7  13    0.91    0.44
   3  -7  13    0.33    0.25
   3  -7  13    0.76    0.29
  -2   7 -12  146.11    5.32
  -2   7 -12  135.81    5.29
   2  -7  12  136.44    5.47
   2  -7  12  143.94    6.28
   2  -7  12  138.72    6.26
  -1   7 -11    0.88    0.36
  -1   7 -11    0.48    0.30
   1  -7  11    1.05    0.45
   1  -7  11    0.99    0.41
   1  -7  11    0.61    0.39
   0   7 -10    0.04    0.37
   0   7 -10    0.04    0.29
   0   7 -10   -0.16    0.32
   0  -7  10   -0.01    0.38
   0  -7  10    0.21    0.43
   0  -7  10   -0.11    0.36
   1   7  -9  105.47    5.06
   1   7  -9  101.50    4.47
   1   7  -9  110.27    4.53
  -1  -7   9  107.74    5.29
  -1  -7   9  106.67    4.38
   2   6 -10   27.36    1.68
   2   6 -10   30.97    1.76
   2   6 -10   27.25    1.83
  -2  -6  10   29.02    1.68
  -2  -6  10   26.42    2.01
   3   5 -11    6.85    0.86
   3   5 -11    5.00    0.77
   3   5 -11    7.96    1.11
  -3  -5  11    7.58    1.21
   4   4 -12  215.57    9.92
   4   4 -12  218.82    8.54
   4   4 -12  209.45    8.56
  -4  -4  12  221.23   10.06
   5   3 -13    1.13    0.60
   5   3 -13    1.75    0.59
   5   3 -13    1.97    0.79
  -5  -3  13    1.06    0.84
   6   2 -14    0.46    0.64
   6   2 -14    0.07    0.46
  -6  -2  14    0.08    0.70
   7   1 -15    8.34    1.45
  -7  -1  15    8.06    1.46
   8   0 -16    1.04    0.96
   8  -8 -32    3.59    1.38
  -8   8  32    4.57    1.36
   9  -1 -17   10.00    1.74
   6  -7 -32    7.71    1.59
  -6   7  32    6.44    1.39
  -9   1  17   12.24    1.89
   2  -5 -32    9.08    1.54
 -13   8 -21   14.91    1.56
  13  -8  21   15.72    1.84
  -2   5  32   10.93    0.77
  -2   5  32   11.95    1.70
  12  -4 -20    6.08    1.73
 -12   8 -20    5.64    1.02
 -12   8 -20    5.79    1.01
  12  -8  20    6.06    1.14
 -12   4  20    5.79    1.53
  -2  -3 -32   10.85    1.58
  13  -5 -21   13.97    2.33
   2   3  32   10.14    1.52
 -10   8 -18   46.47    2.37
 -10   8 -18   49.68    2.44
  10  -8  18   48.35    2.78
  -6  -1 -32    6.66    1.12
  -9   8 -17    9.21    0.83
   9  -8  17    7.43    0.94
   6   1  32    7.07    1.40
  -8   8 -16    0.58    0.29
   8  -8  16    0.36    0.38
   8   0  32    5.15    1.30
   8  -8  16    0.35    0.33
   8  -8  16    0.33    0.54
   7  -8  15    7.31    0.65
   7  -8  15    7.94    0.71
   7  -8  15    7.58    1.04
   6  -8  14    0.29    0.25
   6  -8  14   -0.01    0.44
   6  -8  14    0.19    0.21
   5  -8  13    1.37    0.30
   5  -8  13    1.40    0.29
   5  -8  13    1.44    0.52
   4  -8  12  201.14    7.75
   4  -8  12  206.86    8.79
   4  -8  12  202.40    8.78
  -3   8 -11    7.05    0.55
  -3   8 -11    7.30    0.58
   3  -8  11    7.26    0.75
   3  -8  11    6.06    0.79
   3  -8  11    7.43    0.78
  -2   8 -10   28.04    1.44
  -2   8 -10   27.47    1.39
   2  -8  10   27.92    1.72
   2  -8  10   27.47    1.56
   2  -8  10   26.01    1.67
  -1   8  -9  109.08    4.45
  -1   8  -9  109.13    4.47
   1  -8   9  107.39    4.41
   1  -8   9  109.52    5.22
   0   8  -8   10.71    1.01
   0   8  -8    9.21    1.02
   0  -8   8    9.66    0.95
   0  -8   8    9.66    1.19
   1   8  -7    3.98    0.76
   1   8  -7    5.13    0.85
  -1  -8   7    5.76    1.07
  -1  -8   7    5.41    0.79
   2   7  -8    5.71    0.87
   2   7  -8    6.66    1.01
   2   7  -8    6.33    0.92
  -2  -7   8    6.66    1.19
  -2  -7   8    6.03    0.87
   3   6  -9    0.76    0.56
   3   6  -9    1.11    0.59
   3   6  -9    0.62    0.50
  -3  -6   9    0.83    0.71
   4   5 -10    8.97    1.13
   4   5 -10    7.61    1.04
   4   5 -10    8.78    1.24
  -4  -5  10    9.15    1.44
   5   4 -11    2.26    0.82
   5   4 -11    1.42    0.62
   5   4 -11    1.06    0.55
  -5  -4  11    0.65    0.72
   6   3 -12   16.47    1.51
   6   3 -12   18.83    1.85
  -6  -3  12   18.73    1.97
   7   2 -13    0.64    0.75
  -7  -2  13   -0.13    0.74
   8   1 -14   -0.25    0.76
  -8  -1  14    0.00    0.83
   9   0 -15   -0.46    0.85
   9  -9 -33    1.43    1.18
  -9   0  15   -0.19    0.84
   7  -8 -33    4.63    1.43
  10  -1 -16    3.23    1.34
 -10   1  16    3.18    1.28
  -7   8  33    5.06    1.36
  11  -2 -17    2.70    1.31
   5  -7 -33    5.14    1.35
 -11   2  17    2.88    1.31
  -5   7  33    3.78    1.13
   1  -5 -33    2.01    0.91
  13  -4 -19    1.26    1.34
  -1   5  33    2.10    0.89
  -1   5  33    2.22    0.40
 -13   9 -19    0.52    0.62
 -13   9 -19   -0.26    0.53
  -1  -4 -33    2.53    0.94
  13  -9  19    0.35    0.74
   1   4  33    1.94    0.92
  -5  -2 -33    4.43    1.16
 -11   9 -17    1.91    0.61
  -5  -2 -33    3.97    0.94
  11  -9  17    3.44    0.81
   5   2  33    5.35    1.30
 -10   9 -16    3.19    0.60
   7   1  33    3.83    1.18
  10  -9  16    2.46    0.67
  -9   9 -15    0.12    0.33
   9  -9  15    0.05    0.41
   9   0  33   -0.12    0.93
  -8   9 -14   -0.07    0.25
   8  -9  14    0.03    0.28
   8  -9  14   -0.02    0.33
   8  -9  14   -0.33    0.45
  -7   9 -13    0.06    0.19
   7  -9  13   -0.08    0.25
   7  -9  13    0.14    0.31
   7  -9  13   -0.26    0.45
  -6   9 -12   18.09    0.79
   6  -9  12   16.69    1.06
   6  -9  12   17.91    1.11
   6  -9  12   17.62    1.33
  -5   9 -11    1.23    0.27
  -5   9 -11    1.12    0.25
   5  -9  11    1.20    0.35
   5  -9  11    0.99    0.37
   5  -9  11    1.26    0.53
  -4   9 -10    7.77    0.65
  -4   9 -10    7.53    0.62
   4  -9  10    6.32    0.76
   4  -9  10    8.33    0.88
   4  -9  10    7.11    0.76
  -3   9  -9    0.89    0.34
  -3   9  -9    0.75    0.38
   3  -9   9    1.13    0.47
   3  -9   9    1.26    0.46
   3  -9   9    0.93    0.46
  -2   9  -8    6.01    0.77
  -2   9  -8    6.65    0.78
   2  -9   8    5.56    0.88
   2  -9   8    6.55    0.82
  -1   9  -7    5.76    0.83
  -1   9  -7    5.27    0.77
   1  -9   7    5.52    0.75
   1  -9   7    4.41    0.93
   0   9  -6   32.98    1.98
   0   9  -6   33.79    1.96
   0  -9   6   33.87    1.82
   0  -9   6   30.14    2.27
   1   9  -5    0.44    0.56
   1   9  -5    0.33    0.50
  -1  -9   5    0.28    0.43
  -1  -9   5    0.31    0.64
   2   8  -6   -0.15    0.56
   2   8  -6    0.65    0.53
  -2  -8   6    0.69    0.49
  -2  -8   6    0.65    0.73
   3   7  -7    0.00    0.54
   3   7  -7   -0.01    0.53
   3   7  -7    0.30    0.55
  -3  -7   7    0.11    0.67
  -3  -7   7   -0.04    0.45
   4   6  -8    0.79    0.59
   4   6  -8    2.48    0.72
   4   6  -8    1.30    0.70
  -4  -6   8    1.34    0.87
   5   5  -9   69.06    3.57
   5   5  -9   75.00    4.16
  -5  -5   9   75.64    4.37
   6   4 -10    0.83    0.75
   6   4 -10    0.44    0.53
  -6  -4  10    0.59    0.86
   7   3 -11   -0.94    0.69
  -7  -3  11    0.92    0.88
   8   2 -12   90.03    5.38
  -8  -2  12  101.50    5.55
   9   1 -13    0.36    0.96
  -9  -1  13    0.66    0.94
  10   0 -14    7.10    1.63
  10 -10 -34   10.91    2.18
 -10   0  14    9.77    1.84
  11  -1 -15   10.88    2.08
 -11   1  15    9.47    1.85
   4  -7 -34   12.40    1.91
  -4   7  34   11.41    1.80
  -4   7  34    9.22    1.60
   2  -6 -34   45.07    3.25
  -2   6  34   45.39    3.18
   0  -5 -34   62.32    3.98
   0   5  34   62.06    3.93
  -2  -4 -34   45.23    3.23
   2   4  34   44.45    3.20
 -11  10 -15    9.02    1.02
  11 -10  15    6.90    1.07
 -10  10 -14    6.30    0.81
  10   0  34   11.81    2.01
  10 -10  14    6.60    0.94
  -9  10 -13   -0.09    0.34
   9 -10  13   -0.18    0.39
  -8  10 -12   83.84    3.52
   8 -10  12   87.87    4.16
   8 -10  12   90.12    3.99
  -7  10 -11    0.14    0.27
   7 -10  11    0.19    0.30
   7 -10  11   -0.08    0.47
   7 -10  11    0.52    0.36
  -6  10 -10    0.31    0.29
   6 -10  10    0.34    0.37
   6 -10  10    0.58    0.49
   6 -10  10    0.35    0.35
  -5  10  -9   68.90    2.89
  -5  10  -9   68.65    2.89
   5 -10   9   69.48    3.42
   5 -10   9   68.53    3.12
   5 -10   9   67.67    3.38
  -4  10  -8    1.59    0.43
  -4  10  -8    1.49    0.45
   4 -10   8    1.28    0.50
   4 -10   8    1.89    0.55
  -3  10  -7   -0.16    0.38
  -3  10  -7   -0.09    0.35
   3 -10   7   -0.30    0.34
   3 -10   7    0.10    0.44
  -2  10  -6    1.03    0.52
  -2  10  -6    0.20    0.44
   2 -10   6    0.95    0.59
   2 -10   6    0.34    0.38
  -1  10  -5    0.07    0.47
  -1  10  -5   -0.08    0.48
   1 -10   5    0.25    0.61
   1 -10   5   -0.11    0.37
   0  10  -4    0.08    0.53
   0  10  -4    1.09    0.62
   0 -10   4    0.65    0.44
   0 -10   4    0.47    0.74
   1  10  -3   12.30    1.37
  -1 -10   3   12.11    1.11
  -1 -10   3   11.88    1.71
   2   9  -4    7.29    1.10
  -2  -9   4    6.44    0.92
  -2  -9   4    7.30    1.40
   3   8  -5    2.86    0.82
  -3  -8   5    4.12    1.13
  -3  -8   5    3.31    0.77
   4   7  -6    0.45    0.62
  -4  -7   6    0.17    0.76
   5   6  -7    0.24    0.73
   5   6  -7    0.71    0.60
  -5  -6   7    0.85    0.89
   6   5  -8   19.04    1.96
  -6  -5   8   21.09    2.22
   7   4  -9   83.24    4.91
  -7  -4   9   85.43    5.09
   8   3 -10   12.03    1.87
  -8  -3  10   14.82    2.17
   9   2 -11    0.52    1.02
  -9  -2  11    0.49    1.02
  10   1 -12   79.19    5.14
 -10  -1  12   82.86    5.17
  11   0 -13    0.40    1.15
 -11   0  13    0.64    1.02
   9 -10 -35    0.60    1.19
  12  -1 -14   -0.40    1.11
 -12   1  14    0.80    1.11
  13  -2 -15   11.72    2.19
   7  -9 -35    2.25    1.26
  -7   9  35    1.67    1.10
   5  -8 -35    4.06    1.27
  -5   8  35    3.51    1.20
   3  -7 -35    1.52    0.96
  -3   7  35    1.20    0.98
   1  -6 -35   11.07    1.78
  -1   6  35   10.29    1.63
  -1  -5 -35   11.13    1.79
   1   5  35   11.71    1.83
  -3  -4 -35    1.16    0.94
   3   4  35    1.64    1.05
   5   3  35    3.49    1.25
 -13  11 -15    8.79    1.19
 -13  11 -15   10.60    1.37
  13 -11  15   10.55    1.45
 -12  11 -14    0.20    0.52
  12 -11  14    0.21    0.60
   9   1  35   -0.64    0.94
 -11  11 -13    0.26    0.46
  11 -11  13    0.20    0.54
 -10  11 -12   70.79    3.24
  10 -11  12   73.26    3.73
  -9  11 -11    0.22    0.38
   9 -11  11    0.18    0.45
  -8  11 -10   10.97    0.93
   8 -11  10   11.21    1.08
  -7  11  -9   74.67    3.17
   7 -11   9   70.24    3.38
   7 -11   9   76.24    3.72
  -6  11  -8   17.19    1.17
   6 -11   8   18.32    1.38
   6 -11   8   17.11    1.35
  -5  11  -7    1.11    0.45
   5 -11   7    0.70    0.52
   5 -11   7    1.06    0.52
  -4  11  -6    0.61    0.42
   4 -11   6    0.34    0.50
   4 -11   6    0.06    0.39
  -3  11  -5    3.57    0.70
   3 -11   5    3.96    0.69
   3 -11   5    3.75    0.88
  -2  11  -4    7.05    0.99
   2 -11   4    7.43    1.26
   2 -11   4    6.10    0.81
  -1  11  -3   10.80    1.28
   1 -11   3    9.27    1.42
   0  11  -2    1.61    0.71
   0 -11   2    0.61    0.77
   1  11  -1    2.97    0.90
  -1 -11   1    3.70    1.19
   2  10  -2    1.09    0.66
  -2 -10   2    0.88    0.52
  -2 -10   2    0.24    0.89
   3   9  -3    0.16    0.62
  -3  -9   3    1.02    0.92
  -3  -9   3    0.39    0.51
  -4  -8   4    3.71    1.15
  -4  -8   4    2.73    0.75
  -5  -7   5   -0.54    0.72
  -6  -6   6   40.65    3.22
   7   5  -7    0.00    0.75
  -7  -5   7   -0.40    0.88
   8   4  -8    3.78    1.24
  -8  -4   8    4.40    1.36
   9   3  -9    0.73    1.10
  -9  -3   9    0.58    1.13
  10   2 -10    4.79    1.51
 -10  -2  10    5.87    1.69
  11   1 -11   -0.24    1.03
 -11  -1  11    0.16    1.06
  12   0 -12    1.41    1.32
 -12   0  12    4.11    1.53
   8 -10 -36    0.73    1.15
   6  -9 -36  140.50    7.68
  -6   9  36  132.79    7.34
   4  -8 -36    0.08    0.92
  -4   8  36    0.30    0.92
  -4   8  36   -0.25    0.92
   2  -7 -36   -0.47    0.86
  -2   7  36   -0.01    0.88
   0  -6 -36  247.08   11.89
   0   6  36  240.43   11.76
  -2  -5 -36   -0.06    0.83
   2   5  36    0.45    0.91
  -4  -4 -36   -0.31    0.87
   4   4  36    1.37    1.12
   6   3  36  144.68    7.76
   8   2  36    0.08    1.08
 -13  12 -13    0.13    0.57
 -12  12 -12    1.37    0.66
  12 -12  12    1.53    0.77
 -11  12 -11   -0.23    0.44
  11 -12  11   -0.02    0.54
 -10  12 -10    3.99    0.74
  10 -12  10    4.38    0.88
  -9  12  -9    0.34    0.44
   9 -12   9    0.84    0.55
  -8  12  -8    5.40    0.80
   8 -12   8    5.71    0.90
  -7  12  -7    0.09    0.39
   7 -12   7    0.28    0.48
   7 -12   7   -0.41    0.45
  -6  12  -6   40.90    2.14
   6 -12   6   40.42    2.46
   6 -12   6   35.72    2.05
  -5  12  -5   -0.32    0.40
   5 -12   5    0.08    0.52
   5 -12   5    0.21    0.44
  -4  12  -4    3.69    0.77
   4 -12   4    3.48    0.90
  -3  12  -3    0.55    0.59
   3 -12   3    1.47    0.78
  -2  12  -2    0.69    0.64
   2 -12   2    1.05    0.80
  -1  12  -1    3.32    0.92
   1 -12   1    3.28    1.07
   0  12   0  158.45    7.01
   0 -12   0  159.64    8.20
  -1 -12  -1    0.71    0.99
  -2 -11   0    3.27    1.27
  -3 -10   1    0.22    1.00
  -4  -9   2    0.35    0.60
  -4  -9   2    0.11    0.99
  -5  -8   3   19.88    2.35
  -6  -7   4    2.22    1.16
  -7  -6   5    1.54    1.17
  -8  -5   6    0.72    1.12
   9   4  -7    2.00    1.23
  -9  -4   7    1.15    1.14
 -10  -3   8    0.47    1.08
  11   2  -9   38.60    3.65
 -11  -2   9   39.72    3.63
  12   1 -10    2.84    1.53
 -12  -1  10    2.99    1.54
   7 -10 -37    0.07    1.14
   5  -9 -37    3.00    1.32
  -5   9  37    2.80    1.14
   3  -8 -37    0.21    0.98
  -3   8  37    1.28    0.99
   1  -7 -37   -0.57    0.79
  -1   7  37   -0.66    0.80
  -1  -6 -37    0.58    0.94
   1   6  37    0.38    0.92
  -3  -5 -37    0.77    1.06
   3   5  37    0.82    1.03
   5   4  37    2.46    1.25
   7   3  37   -0.49    1.04
 -12  13 -10    2.48    0.77
  12 -13  10    1.71    0.81
 -11  13  -9   32.45    2.09
  11 -13   9   33.65    2.33
 -10  13  -8    0.61    0.52
  10 -13   8    0.34    0.59
  -9  13  -7    1.24    0.58
   9 -13   7    2.03    0.73
  -8  13  -6    1.44    0.59
   8 -13   6    1.43    0.67
  -7  13  -5    0.11    0.49
   7 -13   5    0.03    0.54
  -6  13  -4    1.29    0.58
   6 -13   4    1.22    0.69
  -5  13  -3   17.82    1.54
   5 -13   3   18.29    1.81
  -4  13  -2    0.55    0.60
   4 -13   2   -0.13    0.66
  -3  13  -1    0.23    0.65
   3 -13   1   -0.38    0.69
  -2  13   0    3.76    1.01
   2 -13   0    5.16    1.29
  -1  13   1    0.53    0.69
   1 -13  -1    0.90    0.94
  -3 -11  -1   -0.21    1.05
  -4 -10   0   11.58    2.13
  -5  -9   1   -0.38    0.59
  -5  -9   1   -0.39    1.05
  -6  -8   2    1.22    1.14
  -7  -7   3    8.56    1.93
  -8  -6   4    0.75    1.13
  -9  -5   5   -0.64    1.05
 -10  -4   6    0.62    1.21
   6 -10 -38    5.95    1.74
   4  -9 -38    5.15    1.58
  -4   9  38    3.11    1.36
  -4   9  38    4.29    1.38
   2  -8 -38    3.30    1.34
  -2   8  38    5.35    1.43
   0  -7 -38   23.70    2.53
   0   7  38   22.86    2.56
  -2  -6 -38    5.17    1.51
   2   6  38    4.89    1.46
   4   5  38    4.94    1.55
   6   4  38    4.63    1.60
 -11  14  -7    0.54    0.62
 -10  14  -6    0.46    0.58
  10 -14   6    0.73    0.69
  -9  14  -5    0.19    0.56
   9 -14   5   -0.40    0.56
  -8  14  -4    1.73    0.69
   8 -14   4    0.75    0.72
  -7  14  -3    9.28    1.24
   7 -14   3    7.81    1.29
  -6  14  -2   -0.54    0.53
   6 -14   2    0.23    0.70
  -5  14  -1   -0.02    0.58
   5 -14   1    0.77    0.80
  -4  14   0    8.66    1.31
   4 -14   0   11.87    1.77
  -3  14   1    0.26    0.70
   3 -14  -1    0.08    0.82
   5 -10 -39   13.48    2.35
   3  -9 -39    1.19    1.14
  -3   9  39    0.26    1.10
   1  -8 -39   11.42    2.05
  -1   8  39   13.89    2.17
  -1  -7 -39   10.68    1.96
   1   7  39   10.92    1.94
   3   6  39   -0.17    1.05
   5   5  39   18.49    2.64
   4 -10 -40    2.44    1.43
   2  -9 -40   -0.80    0.93
  -2   9  40    0.01    1.00
   0  -8 -40   -0.51    0.94
   0   8  40    0.36    0.98
  -2  -7 -40    0.29    1.11
   2   7  40    0.44    1.05
   4   6  40    3.00    1.42
   1  -9 -41    2.26    1.34
  -1   9  41    2.74    1.36
  -1  -8 -41    1.35    1.31
   1   8  41    1.43    1.31
   0   0 -27    0.21    0.36
   0   0 -27   -0.23    0.44
   0   0  27    0.11    0.48
   0   0  27   -0.03    0.31
   0   0  27    0.02    0.39
   1   0 -26   57.42    3.14
   1   0 -26   56.10    2.58
  -1   0  26   60.70    3.21
  -1   0  26   61.02    3.18
  -1   0  26   60.92    2.56
  -1   0  26   47.57    3.00
  -1   1 -26   58.81    3.05
  -1   1 -26   62.52    2.61
   1  -1  26   58.34    2.61
   1  -1  26   61.34    3.11
   1  -1  26   51.18    2.97
  -3   1 -28    0.29    0.43
   3  -2 -28    0.80    0.48
   3  -2 -28    1.12    0.71
   0   1 -25    0.12    0.30
  -3   1 -28    0.71    0.40
   0   1 -25    0.19    0.42
   0  -1  25    0.17    0.37
  -3   2  28    0.85    0.63
   3  -1  28    0.45    0.45
  -3   2  28    0.84    0.42
   0  -1  25   -0.22    0.33
   0  -1  25    0.08    0.44
   3  -1  28    0.61    0.54
   3  -1  28    0.63    0.44
   3  -1 -26    1.81    0.55
  -3   2 -26    1.53    0.46
  -3   2 -26    1.79    0.42
   0  -1 -29    0.45    0.50
   3  -1 -26    1.51    0.71
  -3   1  26    1.28    0.65
   3  -2  26    1.38    0.54
  -3   1  26    1.72    0.52
   3  -2  26    2.18    0.56
   0   1  29   -0.10    0.50
   6  -4 -29    0.21    0.71
  -6   2 -29    0.32    0.44
   0   2 -23    0.03    0.35
   0   2 -23    0.19    0.28
   0  -2  23    0.01    0.36
   0  -2  23    0.05    0.35
   0  -2  23    0.02    0.30
  -6   4  29    1.01    0.82
   6  -2  29    1.34    0.63
   6  -2  29    0.50    0.60
   5  -4 -30   -0.09    0.68
   2   1 -23    0.42    0.52
   2   1 -23    0.05    0.33
  -2  -1  23    0.19    0.45
  -2  -1  23   -0.10    0.37
  -5   4  30    0.58    0.43
  -2  -1  23   -0.24    0.41
  -5   4  30    0.66    0.73
  -5   3 -26    0.05    0.33
   4  -1 -25    0.17    0.58
   4  -1 -25    0.25    0.43
   1  -2 -30    0.95    0.66
   1  -2 -30    0.69    0.47
   5  -3  26    0.50    0.52
  -4   1  25    0.10    0.55
   5  -3  26    0.04    0.16
  -1   2  30    0.89    0.39
   5  -3  26    0.31    0.44
  -1   2  30    0.68    0.64
  -1  -1 -30    1.31    0.50
   5  -2 -26    0.25    0.46
  -1  -1 -30    0.69    0.59
   5  -2 -26    0.79    0.72
  -4   3 -25    0.14    0.29
   4  -3  25    0.18    0.32
   4  -3  25    0.57    0.44
   1   1  30    1.35    0.48
   4  -3  25    0.04    0.37
  -5   2  26   -0.11    0.58
   1   1  30    0.26    0.58
  -2   3 -23    0.03    0.21
  -5   1 -30    0.87    0.56
  -5   1 -30    0.18    0.46
   2  -3  23   -0.30    0.36
   2  -3  23    0.03    0.32
   2  -3  23    0.02    0.26
   5  -1  30    0.97    0.59
   5  -1  30    1.02    0.67
   1   3 -20    9.99    0.93
   1   3 -20    9.46    0.81
   1   3 -20   10.41    0.79
  -1  -3  20    9.99    1.03
  -1  -3  20   10.09    0.92
  -1  -3  20   10.24    1.02
 -10   4 -29    0.96    0.67
   2   2 -21    2.81    0.50
   8  -6 -31    2.54    1.17
   2   2 -21    4.38    0.79
  -8   6  31    2.70    1.20
  10  -4  29    0.20    0.75
  -2  -2  21    3.08    0.69
  -2  -2  21    6.55    0.83
  -2  -2  21    4.22    0.77
   6  -5 -31    8.48    1.51
  -6   5  31    7.76    1.42
  -6   5  31    7.60    0.87
  -7   4 -26   31.62    1.74
   7  -4  26   29.97    1.98
   7  -4  26   31.66    2.06
   0  -2 -31    0.43    0.47
  -6   4 -25    0.55    0.35
   6  -2 -25    0.00    0.68
   0  -2 -31    0.32    0.55
   6  -2 -25    0.16    0.47
   6  -4  25    0.35    0.35
   6  -4  25    0.23    0.40
   0   2  31    0.01    0.33
   0   2  31   -0.11    0.60
  -6   2  25    0.27    0.74
   6  -4  25    0.07    0.48
   7  -3 -26   32.03    2.69
  -7   3  26   30.72    2.54
  -6   1 -31    9.38    1.11
   6  -1  31    8.66    1.32
  -8   2 -31    2.58    0.75
  10  -6 -29    0.28    1.10
  -2   4 -21    4.26    0.28
  -8   2 -31    3.31    0.88
   8  -2  31    3.69    1.03
   2  -4  21    3.99    0.52
   2  -4  21    4.22    0.50
   2  -4  21    3.61    0.51
   2  -4  21    3.39    0.59
  -1   4 -20   10.10    0.58
  11  -7 -30    5.92    1.66
  -1   4 -20    9.60    0.58
   1  -4  20    9.43    0.82
   1  -4  20    8.62    0.84
   1  -4  20    9.87    0.80
 -12   4 -31    0.20    0.76
   0   4 -19   -0.13    0.23
   0   4 -19   -0.09    0.21
  12  -8 -31    0.20    1.23
   0   4 -19   -0.07    0.22
   0  -4  19    0.08    0.35
   0  -4  19    0.27    0.39
  12  -4  31    0.03    0.86
   0  -4  19   -0.15    0.34
   1   4 -18  109.87    5.12
   1   4 -18  110.08    4.49
   1   4 -18  119.62    4.49
  -1  -4  18  115.33    4.57
  -1  -4  18  106.09    5.31
  -1  -4  18  114.15    5.33
   2   3 -19   15.25    1.11
   2   3 -19   16.97    1.29
   2   3 -19   16.22    1.09
  -2  -3  19   16.10    1.17
  -2  -3  19   16.61    1.42
  -2  -3  19   15.87    1.37
   7  -6 -32    6.49    1.54
  -7   6  32    6.98    1.43
 -10   5 -27   36.97    2.36
 -10   5 -27   37.30    2.38
   5   0 -22   47.63    2.24
  10  -5  27   36.43    2.70
  -5   0  22   51.20    2.89
   9  -4 -26    1.69    1.12
  10  -5 -27   37.03    3.36
 -10   5  27   42.08    3.43
   5  -5  22   48.46    2.27
   5  -5  22   48.83    2.39
   5  -5  22   45.94    2.23
  -7   1 -32    7.48    1.17
  -7   1 -32    7.34    1.13
   7  -1  32    6.39    1.28
   2  -5  19   14.49    1.10
   2  -5  19   16.10    0.97
   2  -5  19   16.13    0.97
  -1   5 -18  114.52    4.29
  -1   5 -18  111.62    4.30
   1  -5  18  112.60    5.14
   1  -5  18  116.67    4.62
   1  -5  18  114.05    5.16
   0   5 -17    0.12    0.27
   0   5 -17    0.04    0.27
   0   5 -17   -0.09    0.20
   0  -5  17   -0.31    0.32
   0  -5  17   -0.19    0.32
   0  -5  17    0.20    0.39
   1   5 -16    5.39    0.70
   1   5 -16    6.54    0.74
   1   5 -16    6.37    0.73
  -1  -5  16    6.19    0.91
  -1  -5  16    6.00    0.88
  -1  -5  16    6.93    0.89
   2   4 -17    6.29    0.86
   2   4 -17    6.88    0.78
   2   4 -17    6.30    0.76
  -2  -4  17    4.80    0.86
  -2  -4  17    5.48    0.78
  -2  -4  17    5.28    0.90
   3   3 -18  161.24    6.54
   3   3 -18  163.93    7.57
   3   3 -18  172.35    6.51
  -3  -3  18  148.30    7.62
  -3  -3  18  171.92    7.72
  10  -8 -33    8.96    1.99
   4   2 -19   15.71    1.53
   4   2 -19   16.55    1.22
  -4  -2  19   16.47    1.60
   5   1 -20   11.14    1.43
   5   1 -20   10.93    1.12
  -5  -1  20   11.85    1.47
   6  -6 -33    1.06    0.94
 -12   6 -27    1.50    0.80
   6   0 -21    0.81    0.58
   6   0 -21    0.00    0.77
  -6   0  21   -0.45    0.63
  -6   6  33    0.22    0.76
  12  -6  27    1.72    0.90
  -6   6  33    0.20    0.38
   2  -4 -33    3.15    0.95
  -2   4  33    3.27    0.98
  -2   4  33    4.10    0.56
   9  -3 -24   10.59    1.77
   9  -6  24    9.53    1.17
  -9   3  24   13.14    1.94
  -2  -2 -33    3.54    0.76
  -2  -2 -33    2.07    0.83
 -10   4  25    0.41    0.91
   2   2  33    3.46    0.64
   2   2  33    4.72    1.10
  12  -6 -27    1.25    1.30
  -6   0 -33    0.54    0.57
   6  -6  21   -0.01    0.25
   6   0  33    0.13    0.70
   6  -6  21    0.58    0.30
   6  -6  21   -0.22    0.45
   5  -6  20   11.96    1.07
   5  -6  20   11.56    0.69
   5  -6  20   12.29    0.71
 -10   2 -33    7.70    1.34
  10  -2  33    9.16    1.66
   3  -6  18  172.36    7.23
   3  -6  18  168.44    7.23
   3  -6  18  167.56    6.57
   2  -6  17    5.73    0.60
   2  -6  17    6.20    0.81
   2  -6  17    5.70    0.60
  -1   6 -16    7.05    0.56
  -1   6 -16    6.23    0.55
   1  -6  16    6.11    0.75
   1  -6  16    6.20    0.73
   1  -6  16    7.53    0.89
   0   6 -15    0.17    0.23
   0   6 -15   -0.04    0.28
   0   6 -15    0.06    0.33
   0  -6  15    0.05    0.40
   0  -6  15    0.25    0.41
   0  -6  15    0.22    0.30
   1   6 -14    1.03    0.44
   1   6 -14    0.81    0.41
   1   6 -14    0.86    0.44
  -1  -6  14    0.57    0.53
  -1  -6  14    0.77    0.50
  -1  -6  14    1.15    0.52
   2   5 -15   14.02    1.11
   2   5 -15   15.09    1.11
   2   5 -15   12.65    1.14
  -2  -5  15   13.26    1.36
  -2  -5  15   14.63    1.20
  -2  -5  15   12.51    1.24
   3   4 -16    0.47    0.49
   3   4 -16    0.18    0.38
   3   4 -16    0.44    0.40
  -3  -4  16    0.43    0.51
  -3  -4  16    0.89    0.63
   4   3 -17    1.49    0.53
   4   3 -17    0.55    0.47
   4   3 -17    0.90    0.62
  -4  -3  17    0.75    0.68
   5   2 -18   70.44    3.86
   5   2 -18   62.51    3.09
  -5  -2  18   66.41    3.87
   7  -7 -34    4.37    1.38
  -7   7  34    5.29    0.74
  -7   7  34    3.87    1.23
   9  -2 -22   24.93    2.44
  -9   2  22   21.98    2.38
   1  -4 -34   31.71    2.46
  -1   4  34   30.95    1.55
  -1   4  34   30.86    2.49
  -1  -3 -34   31.90    2.43
   1   3  34   30.32    1.64
   1   3  34   31.54    2.49
  -9   7 -22   22.28    1.38
  -9   7 -22   23.12    1.40
   9  -7  22   21.73    1.60
  13  -6 -26   13.92    2.32
  -8   7 -21    9.70    0.76
   8  -7  21    7.95    0.86
   8  -7  21   10.03    0.93
   8  -7  21    8.88    1.16
  -7   0 -34    5.59    1.08
   7  -7  20    0.45    0.55
   7   0  34    5.43    1.31
   5  -7  18   60.36    2.87
   4  -7  17    0.82    0.50
   3  -7  16    0.17    0.24
   3  -7  16    0.28    0.24
   3  -7  16    0.10    0.40
  -2   7 -15   13.90    0.74
  -2   7 -15   14.57    0.76
   2  -7  15   14.77    1.02
   2  -7  15   14.12    1.01
   2  -7  15   14.19    1.13
  -1   7 -14    0.77    0.33
  -1   7 -14    1.02    0.36
   1  -7  14    0.36    0.44
   1  -7  14    0.74    0.41
   1  -7  14    0.85    0.43
   0   7 -13    0.06    0.37
   0   7 -13    0.06    0.33
   0   7 -13    0.04    0.26
   0  -7  13   -0.02    0.44
   0  -7  13    0.04    0.19
   0  -7  13   -0.07    0.36
   1   7 -12  146.72    5.74
   1   7 -12  138.39    5.70
   1   7 -12  134.42    6.40
  -1  -7  12  140.17    5.61
  -1  -7  12  139.56    6.68
   2   6 -13   11.29    1.10
   2   6 -13   10.07    1.06
   2   6 -13   10.80    1.07
  -2  -6  13   10.01    1.28
  -2  -6  13   10.44    1.08
   3   5 -14    0.76    0.51
   3   5 -14    0.74    0.52
   3   5 -14    0.37    0.49
  -3  -5  14    0.53    0.65
   4   4 -15    9.74    1.06
   4   4 -15   10.50    1.11
   4   4 -15    9.58    1.26
  -4  -4  15    9.80    1.44
   5   3 -16    0.87    0.57
   5   3 -16    0.85    0.49
   5   3 -16    0.96    0.72
  -5  -3  16    1.15    0.78
   6   2 -17    5.98    0.88
   6   2 -17    8.46    1.44
  -6  -2  17    6.32    1.27
   7   1 -18   38.39    2.93
  -7  -1  18   41.17    3.00
   8  -8 -35   -1.11    0.93
   8   0 -19    0.33    0.87
  -8   8  35    1.43    0.99
  -8   0  19    0.20    0.79
   9  -1 -20   12.69    1.92
   4  -6 -35    4.48    1.29
  10  -2 -21    9.92    1.87
  -4   6  35    6.15    1.34
 -10   2  21   10.21    1.85
  -4   6  35    6.53    1.43
  11  -3 -22    8.71    1.90
 -11   3  22    9.76    1.87
 -12   8 -23    2.79    0.77
  12  -4 -23    2.39    1.36
 -12   8 -23    2.47    0.71
   0  -4 -35    0.13    0.72
  12  -8  23    2.45    0.86
   0   4  35    0.39    0.78
 -12   4  23    3.89    1.51
 -11   8 -22    7.27    1.00
 -11   8 -22    8.02    1.05
  11  -8  22    8.05    1.17
 -10   8 -21    9.44    1.01
  -4  -2 -35    5.88    1.31
 -10   8 -21    8.71    0.96
  10  -8  21    9.77    1.14
  -8   8 -19   -0.22    0.23
   8  -8  19   -0.11    0.53
   8  -8  19    0.00    0.30
   8   0  35    0.31    0.82
   8  -8  19   -0.12    0.27
   7  -8  18   30.52    1.99
   7  -8  18   34.47    1.69
   7  -8  18   35.86    1.71
   6  -8  17    6.20    0.95
   5  -8  16    1.09    0.50
   4  -8  15    9.62    0.68
   4  -8  15   10.84    1.04
   4  -8  15    9.97    0.69
  -3   8 -14    0.63    0.24
  -3   8 -14    0.61    0.21
   3  -8  14    0.55    0.32
   3  -8  14    0.62    0.33
   3  -8  14    0.80    0.48
  -2   8 -13    9.97    0.76
  -2   8 -13   11.07    0.81
   2  -8  13   10.94    1.01
   2  -8  13   10.52    0.96
   2  -8  13    9.77    0.95
  -1   8 -12  148.45    5.66
  -1   8 -12  142.81    5.63
   1  -8  12  140.36    6.57
   1  -8  12  134.98    6.56
   1  -8  12  141.15    5.63
   0   8 -11   -0.30    0.34
   0   8 -11    0.20    0.42
   0  -8  11    0.19    0.40
   0  -8  11    0.07    0.47
   1   8 -10   17.29    1.36
   1   8 -10   16.50    1.37
  -1  -8  10   17.22    1.32
  -1  -8  10   16.83    1.63
   2   7 -11    0.22    0.49
   2   7 -11    0.08    0.47
   2   7 -11    0.15    0.47
  -2  -7  11   -0.20    0.44
  -2  -7  11    0.04    0.55
   3   6 -12   15.09    1.35
   3   6 -12   15.71    1.48
   3   6 -12   16.81    1.38
  -3  -6  12   18.43    1.77
  -3  -6  12   17.94    1.36
   4   5 -13    4.13    0.79
   4   5 -13    4.21    0.92
   4   5 -13    3.26    0.70
  -4  -5  13    3.56    0.98
   5   4 -14    0.59    0.53
   5   4 -14    0.13    0.47
   5   4 -14    0.40    0.67
  -5  -4  14    0.74    0.76
   6   3 -15    1.72    0.70
   6   3 -15    1.54    0.86
  -6  -3  15    2.50    1.03
   7   2 -16    6.71    1.31
  -7  -2  16    6.12    1.36
   8   1 -17   10.52    1.74
  -8  -1  17    7.40    1.61
   9   0 -18   43.81    3.26
  -9   0  18   31.32    2.96
  10  -1 -19    0.59    1.08
   7  -8 -36    0.74    0.98
 -10   1  19   -0.27    0.90
  -7   8  36    0.49    0.98
   5  -7 -36    0.30    0.92
  11  -2 -20    6.05    1.69
 -11   2  20    8.29    1.76
  13  -4 -22    7.46    1.98
   1  -5 -36   -0.34    0.70
  -1   5  36    1.18    0.89
 -13   9 -22    7.64    1.16
 -13   9 -22    6.32    1.10
  13  -9  22    8.25    1.34
 -11   9 -20    8.43    1.03
 -11   9 -20    6.81    0.92
  11  -9  20    6.90    1.03
 -10   9 -19    0.58    0.41
   7   1  36   -0.21    0.81
  10  -9  19    0.15    0.43
  -9   9 -18   30.94    1.57
   9  -9  18   31.52    1.83
  -8   9 -17    7.83    0.58
   8  -9  17    6.71    0.68
   8  -9  17    8.40    1.16
   8  -9  17    8.40    0.75
   7  -9  16    5.29    0.49
   7  -9  16    4.18    0.83
   7  -9  16    5.53    0.56
   6  -9  15    1.50    0.29
   6  -9  15    1.23    0.54
   6  -9  15    1.89    0.32
   5  -9  14    0.42    0.26
   5  -9  14    0.19    0.43
   5  -9  14    0.44    0.26
  -4   9 -13    4.69    0.47
  -4   9 -13    3.42    0.42
   4  -9  13    3.60    0.55
   4  -9  13    4.31    0.77
   4  -9  13    3.80    0.58
  -3   9 -12   16.97    0.99
  -3   9 -12   15.03    1.00
   3  -9  12   14.98    1.18
   3  -9  12   16.60    1.23
   3  -9  12   15.69    1.19
  -2   9 -11    0.00    0.32
  -2   9 -11   -0.14    0.34
   2  -9  11   -0.35    0.41
   2  -9  11    0.11    0.38
  -1   9 -10   16.99    1.25
  -1   9 -10   16.61    1.27
   1  -9  10   15.98    1.46
   1  -9  10   17.63    1.25
   0   9  -9    0.39    0.43
   0   9  -9   -0.03    0.47
   0  -9   9    0.04    0.56
   0  -9   9   -0.15    0.39
   1   9  -8    6.00    0.95
   1   9  -8    6.55    1.01
  -1  -9   8    7.70    1.30
  -1  -9   8    8.20    1.03
   2   8  -9   39.32    2.32
   2   8  -9   42.63    2.37
  -2  -8   9   40.04    2.76
  -2  -8   9   39.10    2.18
   3   7 -10    0.39    0.50
   3   7 -10   -0.39    0.45
  -3  -7  10    0.20    0.69
  -3  -7  10    0.31    0.52
   4   6 -11    2.10    0.69
   4   6 -11    1.13    0.61
   4   6 -11    0.90    0.69
  -4  -6  11    1.01    0.81
   5   5 -12   76.18    4.19
   5   5 -12   71.24    3.61
  -5  -5  12   72.16    4.34
   6   4 -13    0.39    0.52
   6   4 -13    0.15    0.73
  -6  -4  13   -0.13    0.80
   7   3 -14   19.57    2.07
  -7  -3  14   19.03    2.16
   8   2 -15   19.20    2.10
  -8  -2  15   19.34    2.16
   9   1 -16    3.62    1.28
  -9  -1  16    3.66    1.25
  10   0 -17   -0.11    0.95
 -10   0  17   -0.22    0.88
  11  -1 -18   31.52    3.13
 -11   1  18   30.67    3.07
   6  -8 -37    2.84    1.22
  12  -2 -19   -0.61    1.16
  -6   8  37    2.99    1.18
 -12   2  19   -0.11    1.05
   4  -7 -37    1.23    1.05
  13  -3 -20    4.95    1.73
  -4   7  37    2.12    1.12
  -4   7  37    2.18    1.03
   2  -6 -37    2.76    1.13
  -2   6  37    4.45    1.26
   0  -5 -37    0.66    0.87
   0   5  37   -0.12    0.79
  -2  -4 -37    3.54    1.11
   2   4  37    2.34    1.16
 -13  10 -20    3.63    0.87
 -13  10 -20    3.98    0.89
  13 -10  20    4.16    1.03
 -12  10 -19    0.45    0.51
 -12  10 -19    0.05    0.51
   6   2  37    3.71    1.29
  12 -10  19   -0.27    0.53
 -11  10 -18   26.21    1.65
  11 -10  18   27.82    1.92
 -10  10 -17   -0.05    0.36
  10 -10  17    0.01    0.41
  -9  10 -16    2.26    0.45
   9 -10  16    3.49    0.61
  -8  10 -15   16.60    0.93
   8 -10  15   17.73    1.13
   8 -10  15   17.69    1.50
   8 -10  15   15.49    1.05
  -7  10 -14   15.79    0.84
   7 -10  14   15.54    1.03
   7 -10  14   16.18    1.39
   7 -10  14   15.09    0.98
  -6  10 -13    0.10    0.22
  -6  10 -13    0.08    0.23
   6 -10  13    0.09    0.45
   6 -10  13    0.19    0.30
   6 -10  13   -0.19    0.25
  -5  10 -12   71.90    2.91
  -5  10 -12   70.91    2.90
   5 -10  12   69.75    3.40
   5 -10  12   72.08    3.43
   5 -10  12   70.57    3.25
  -4  10 -11    1.62    0.41
  -4  10 -11    0.93    0.40
   4 -10  11    0.98    0.52
   4 -10  11    1.32    0.48
  -3  10 -10    0.33    0.36
  -3  10 -10    0.31    0.40
   3 -10  10    0.13    0.41
   3 -10  10    0.16    0.45
  -2  10  -9   38.63    2.07
  -2  10  -9   39.21    2.11
   2 -10   9   39.27    2.10
   2 -10   9   42.17    2.51
  -1  10  -8    6.28    0.90
  -1  10  -8    6.49    0.89
   1 -10   8    6.33    0.88
   1 -10   8    7.78    1.21
   0  10  -7    0.06    0.48
   0  10  -7   -0.42    0.49
   0 -10   7    0.31    0.66
   0 -10   7    0.23    0.42
   1  10  -6   -0.29    0.51
  -1 -10   6    0.09    0.44
  -1 -10   6   -0.21    0.70
   2   9  -7    0.16    0.55
  -2  -9   7   -0.13    0.46
  -2  -9   7   -0.26    0.67
   3   8  -8    5.51    1.02
  -3  -8   8    6.07    1.30
  -3  -8   8    5.88    0.96
   4   7  -9   66.39    3.62
  -4  -7   9   80.37    4.48
   5   6 -10   12.12    1.40
  -5  -6  10   12.75    1.90
   6   5 -11    0.51    0.79
  -6  -5  11    1.26    0.95
   7   4 -12  113.50    6.31
  -7  -4  12  121.69    6.54
   8   3 -13    0.48    0.86
  -8  -3  13    0.90    1.05
   9   2 -14    0.46    1.00
  -9  -2  14    0.14    0.96
  10   1 -15   10.47    2.01
 -10  -1  15   12.96    2.20
  11   0 -16   -0.10    1.08
 -11   0  16    0.21    1.02
  12  -1 -17    2.47    1.42
 -12   1  17    4.67    1.53
  13  -2 -18   19.53    2.89
 -13   2  18   19.88    2.72
   5  -8 -38    9.49    1.82
  -5   8  38    8.40    1.72
   3  -7 -38   26.05    2.67
  -3   7  38   29.77    2.75
   1  -6 -38    2.56    1.12
  -1   6  38    1.59    1.02
  -1  -5 -38    2.86    1.14
   1   5  38    1.72    1.07
  -3  -4 -38   22.46    2.42
   3   4  38   27.02    2.58
   5   3  38    9.65    1.85
 -13  11 -18   16.00    1.53
 -13  11 -18   17.97    1.62
  13 -11  18   17.27    1.74
 -12  11 -17    4.97    0.88
  12 -11  17    4.06    0.90
 -11  11 -16    0.90    0.51
  11 -11  16    1.43    0.61
 -10  11 -15    7.91    0.90
  10 -11  15    8.41    1.02
  -9  11 -14    0.14    0.34
   9 -11  14    0.05    0.37
  -8  11 -13    0.12    0.30
   8 -11  13    0.24    0.37
   8 -11  13    0.59    0.61
  -7  11 -12  104.17    4.14
   7 -11  12  104.29    4.78
   7 -11  12   99.44    4.48
  -6  11 -11    1.09    0.38
   6 -11  11    1.06    0.44
   6 -11  11    1.45    0.60
  -5  11 -10   11.85    0.95
   5 -11  10    9.80    1.06
   5 -11  10   12.55    1.14
  -4  11  -9   68.62    3.14
  -4  11  -9   70.32    3.14
   4 -11   9   67.77    3.17
   4 -11   9   72.80    3.69
  -3  11  -8    5.74    0.82
  -3  11  -8    5.87    0.81
   3 -11   8    4.17    0.76
   3 -11   8    5.03    0.94
  -2  11  -7    0.19    0.49
  -2  11  -7    0.08    0.47
   2 -11   7    0.27    0.43
   2 -11   7   -0.04    0.57
  -1  11  -6   -0.19    0.50
  -1  11  -6   -0.24    0.48
   1 -11   6    0.75    0.48
   1 -11   6    0.59    0.66
   0  11  -5   -0.08    0.54
   0 -11   5    0.01    0.73
   0 -11   5   -0.13    0.42
   1  11  -4    2.41    0.84
  -1 -11   4    4.00    1.26
   2  10  -5   -0.08    0.61
  -2 -10   5   -0.74    0.75
  -2 -10   5    0.16    0.50
   3   9  -6   28.73    2.18
  -3  -9   6   34.82    2.75
  -3  -9   6   28.78    1.89
   4   8  -7   -0.15    0.58
  -4  -8   7    0.30    0.56
  -4  -8   7    0.14    0.81
  -5  -7   8    3.07    1.21
  -6  -6   9    1.01    0.98
  -7  -5  10    5.98    1.49
   8   4 -11   -0.23    0.77
  -8  -4  11    0.52    1.01
   9   3 -12    6.32    1.60
  -9  -3  12    5.55    1.63
  10   2 -13   -0.55    1.09
 -10  -2  13    1.53    1.13
  11   1 -14    0.08    1.16
 -11  -1  14   -0.22    1.09
  12   0 -15    0.49    1.22
 -12   0  15   -0.16    1.19
   6  -9 -39   -0.77    0.99
  -6   9  39   -0.06    0.96
   4  -8 -39    3.67    1.40
  -4   8  39    5.33    1.46
  -4   8  39    4.84    1.45
   2  -7 -39   13.30    2.07
  -2   7  39   16.66    2.13
   0  -6 -39   -0.18    0.84
   0   6  39    0.49    0.93
  -2  -5 -39   13.80    2.02
   2   5  39   15.92    2.21
   4   4  39    4.19    1.43
   6   3  39    0.94    1.12
 -12  12 -15   -0.06    0.46
  12 -12  15    0.28    0.59
 -11  12 -14   -0.21    0.42
  11 -12  14    0.35    0.55
 -10  12 -13    0.14    0.42
  10 -12  13    0.00    0.47
  -9  12 -12    5.35    0.75
   9 -12  12    4.55    0.77
  -8  12 -11    0.00    0.35
   8 -12  11   -0.40    0.39
   8 -12  11    0.14    0.58
  -7  12 -10    5.45    0.74
   7 -12  10    7.13    0.93
   7 -12  10    6.59    0.99
  -6  12  -9    1.35    0.49
   6 -12   9    0.53    0.54
   6 -12   9    0.86    0.52
  -5  12  -8    4.44    0.77
   5 -12   8    4.07    0.86
   5 -12   8    4.02    0.78
  -4  12  -7   -0.32    0.40
   4 -12   7   -0.03    0.41
   4 -12   7    0.61    0.58
  -3  12  -6   32.53    2.05
   3 -12   6   32.56    2.39
  -2  12  -5    0.44    0.59
   2 -12   5    0.32    0.68
  -1  12  -4    3.15    0.86
   1 -12   4    3.11    1.07
   0  12  -3    0.64    0.67
   0 -12   3   -0.52    0.79
  -1 -12   2   -0.18    0.87
  -2 -11   3   12.00    1.98
  -3 -10   4    0.02    0.96
  -3 -10   4    0.55    0.57
  -4  -9   5    0.54    0.97
  -4  -9   5    0.19    0.59
  -5  -8   6    1.33    0.72
  -5  -8   6    0.24    1.01
  -6  -7   7   -0.24    0.90
  -7  -6   8    0.12    1.00
  -8  -5   9   36.90    3.35
  -9  -4  10    0.22    1.16
 -10  -3  11   -0.26    1.08
  11   2 -12   39.98    3.74
 -11  -2  12   43.77    3.85
   5  -9 -40    0.52    1.12
  -5   9  40   -0.60    0.88
   3  -8 -40    0.38    1.06
  -3   8  40   -0.63    0.96
   1  -7 -40    1.09    1.05
  -1   7  40    1.77    1.17
  -1  -6 -40    0.08    1.02
   1   6  40    0.62    1.01
   3   5  40   -0.95    0.85
   5   4  40    0.57    1.13
 -12  13 -13    0.50    0.57
 -11  13 -12   35.29    2.14
  11 -13  12   37.06    2.32
 -10  13 -11    0.22    0.49
  10 -13  11   -0.24    0.51
  -9  13 -10    0.45    0.49
   9 -13  10    0.46    0.56
  -8  13  -9   29.79    1.83
   8 -13   9   31.66    2.06
  -7  13  -8    0.34    0.45
   7 -13   8   -0.01    0.51
   7 -13   8    0.03    0.52
  -6  13  -7    0.09    0.45
   6 -13   7    0.00    0.52
  -5  13  -6    1.39    0.61
   5 -13   6    0.81    0.68
  -4  13  -5    0.24    0.55
   4 -13   5    0.61    0.68
  -3  13  -4   -0.26    0.56
   3 -13   4    0.06    0.67
  -2  13  -3    8.31    1.27
   2 -13   3    9.77    1.60
  -1  13  -2   -0.49    0.63
   1 -13   2    0.42    0.86
  -3 -11   2    0.66    1.18
  -4 -10   3    3.46    1.41
  -5  -9   4    3.64    1.40
  -5  -9   4    4.56    1.03
  -6  -8   5   -0.33    1.01
  -7  -7   6    1.92    1.22
  -8  -6   7    0.15    1.14
  -9  -5   8   10.25    2.06
 -10  -4   9   29.96    3.24
   4  -9 -41    4.00    1.47
  -4   9  41    2.15    1.31
  -4   9  41    2.28    1.22
   2  -8 -41    1.94    1.28
  -2   8  41    2.90    1.32
   0  -7 -41   -0.33    0.97
   0   7  41    1.19    1.14
   2   6  41    2.29    1.35
   4   5  41    2.82    1.28
 -10  14  -9   26.02    1.81
  10 -14   9   24.15    1.91
  -9  14  -8   10.45    1.23
   9 -14   8    7.74    1.15
  -8  14  -7   -0.20    0.50
   8 -14   7    0.00    0.58
  -7  14  -6    0.19    0.55
   7 -14   6    1.08    0.68
  -6  14  -5    0.04    0.55
   6 -14   5    0.09    0.62
  -5  14  -4    4.63    0.97
   5 -14   4    4.89    1.15
  -4  14  -3    4.19    1.00
   4 -14   3    3.37    1.10
  -3  14  -2    2.48    0.92
   3 -14   2    2.38    1.08
   3  -9 -42    7.11    1.82
  -3   9  42    7.62    1.82
   1  -8 -42    0.96    1.18
  -1   8  42    1.94    1.27
  -1  -7 -42    0.59    1.15
   1   7  42    2.08    1.31
   3   6  42    4.86    1.62
   0  -8 -43   -0.50    1.01
   0   8  43   -0.05    1.08
   0   0 -30   16.66    1.47
   0   0 -30   15.59    1.16
   0   0  30   15.48    1.12
   0   0  30   18.04    1.55
   0   0  30   12.59    1.30
   1   0 -29   -0.26    0.46
   1   0 -29   -0.04    0.34
  -2   1 -30    1.13    0.51
  -2   1 -30    0.58    0.41
   1  -1 -31   -0.17    0.38
   1  -1 -31   -0.26    0.52
   2  -1  30    0.92    0.44
   2  -1  30    0.85    0.55
  -1   0  29    0.18    0.59
  -1   0  29   -0.23    0.32
   2  -1  30    0.57    0.43
  -1   0  29    0.53    0.59
  -1   1  31    0.02    0.62
  -1   1  31    0.12    0.35
  -1   1 -29    0.21    0.44
  -1   0 -31   -0.05    0.40
   2  -1 -30    1.73    0.52
   2  -1 -30    1.05    0.68
  -1   0 -31    0.12    0.46
  -1   1 -29   -0.17    0.33
  -2   1  30    0.72    0.65
   1   0  31    0.06    0.55
  -2   1  30    1.67    0.76
   1   0  31   -0.20    0.39
  -2   1  30    1.21    0.47
   1  -1  29    0.30    0.38
   1   0  31   -0.23    0.36
   1  -1  29    0.06    0.36
   1  -1  29   -0.08    0.44
  -3   1 -31    8.21    1.02
   3  -2 -31    7.03    0.92
   3  -2 -31    7.95    1.28
  -3   1 -31    9.00    0.96
   3  -1  31    8.50    1.15
  -3   2  31   10.50    0.93
   3  -1  31    8.12    0.97
  -3   2  31   10.31    1.41
   3  -1  31    6.47    0.93
   6  -4 -32    7.27    1.42
  -6   2 -32    6.22    0.86
  -6   4  32    7.66    1.48
  -6   4  32    7.59    0.96
   6  -2  32    6.42    1.15
   6  -2  32    7.18    1.11
   1   2 -25    2.65    0.66
   7  -5 -33    4.73    1.35
   1   2 -25    1.74    0.42
  -1  -2  25    2.07    0.62
  -7   5  33    4.01    1.20
  -1  -2  25    1.96    0.59
  -1  -2  25    2.02    0.54
   2   1 -26    1.62    0.47
  -7   3 -31    0.40    0.45
   5  -4 -33    1.00    0.81
   2   1 -26    2.34    0.74
  -2  -1  26    1.17    0.60
   7  -3  31    0.01    0.55
  -2  -1  26    1.92    0.65
  -5   4  33    1.41    0.52
  -5   4  33    1.36    0.85
  -2  -1  26    1.73    0.55
   7  -3  31    0.62    0.63
   4  -1 -28    0.92    0.50
   1  -2 -33    1.20    0.72
   4  -1 -28    0.92    0.70
  -5   3 -29    1.00    0.44
   1  -2 -33    0.76    0.47
   5  -3  29    1.09    0.55
  -1   2  33    0.24    0.37
  -1   2  33    0.10    0.67
  -4   1  28    0.79    0.52
   5  -3  29    1.40    0.58
  -4   1  28    0.94    0.72
  -4   3 -28    0.96    0.37
   5  -2 -29    1.12    0.83
  -1  -1 -33    0.17    0.41
   5  -2 -29    0.93    0.57
  -1  -1 -33    0.25    0.55
   4  -3  28    1.00    0.51
  -5   2  29    1.37    0.80
   4  -3  28    1.03    0.51
   4  -3  28    1.06    0.43
   1   1  33    0.84    0.68
   1   1  33    0.44    0.44
  -5   1 -33    1.00    0.53
  -2   3 -26    1.53    0.35
   7  -4 -31   -0.05    0.80
   5  -1  33    1.32    0.61
   2  -3  26    1.30    0.41
   5  -1  33    0.88    0.69
   2  -3  26    1.22    0.48
  -7   4  31    0.28    0.85
   2  -3  26    2.07    0.54
  -7   2 -33    3.08    0.72
  -1   3 -25    2.19    0.40
   8  -5 -32    7.49    1.51
  -1   3 -25    2.01    0.42
   1  -3  25    2.60    0.53
   1  -3  25    2.10    0.55
   7  -2  33    5.26    1.10
   1  -3  25    2.55    0.60
  -8   5  32    7.68    1.54
   1  -3  25    1.57    0.52
   1   3 -23   10.27    0.99
   1   3 -23   11.37    0.87
  10  -7 -34   11.62    2.14
  -1  -3  23   10.76    1.12
  -1  -3  23   10.98    1.02
 -10   7  34    9.71    1.94
  -1  -3  23    9.68    1.04
   2   2 -24  107.02    4.35
   2   2 -24  107.78    5.15
  -2  -2  24  110.03    5.24
  -2  -2  24   94.99    5.14
  -2  -2  24  110.11    4.44
   4  -4 -34   15.67    1.85
  -4   4  34   16.97    1.17
  -4   4  34   19.26    1.95
   2  -3 -34   48.57    3.30
  -2   3  34   54.41    3.40
  -2   3  34   52.42    2.36
  -2  -1 -34   48.45    3.10
  -2  -1 -34   51.62    2.66
   2   1  34   52.08    2.47
   2   1  34   52.66    3.26
  -2   4 -24  108.25    4.03
   2  -4  24  108.63    4.82
   2  -4  24  101.65    4.78
   2  -4  24   98.21    4.32
   2  -4  24  108.83    4.84
  -1   4 -23   12.17    0.71
 -10   3 -34    8.17    1.40
  -1   4 -23   10.67    0.72
   1  -4  23   12.13    0.98
   1  -4  23   10.30    0.91
  10  -3  34    8.26    1.55
   1  -4  23   11.61    1.02
   0   4 -22    6.19    0.65
   0   4 -22    6.51    0.61
   0   4 -22    6.76    0.63
   0  -4  22    6.69    0.87
   0  -4  22    7.10    0.87
   0  -4  22    6.13    0.78
   1   4 -21   22.35    1.21
   1   4 -21   19.92    1.31
   1   4 -21   19.33    1.20
  -1  -4  21   17.84    1.46
  -1  -4  21   19.55    1.51
  -1  -4  21   19.64    1.34
   2   3 -22   64.52    3.34
   2   3 -22   65.65    2.84
  -2  -3  22   68.16    3.03
  -2  -3  22   58.35    3.41
  -2  -3  22   63.17    3.44
   3   2 -23   22.14    1.39
   3   2 -23   21.49    1.71
  -3  -2  23   17.20    1.62
  -3  -2  23   22.81    1.76
  -3  -2  23   23.73    1.53
 -10   5 -30    0.11    0.54
   5  -5 -35    0.16    0.78
 -10   5 -30   -0.33    0.57
   5   0 -25   -0.55    0.42
   5   0 -25    0.40    0.70
  -5   5  35    0.29    0.37
  10  -5  30    0.17    0.67
  -5   0  25    0.56    0.69
  -5   5  35    0.62    0.83
   3  -4 -35    0.09    0.69
  -9   5 -29    0.92    0.54
  -9   5 -29    0.91    0.53
   6  -1 -26    4.44    1.10
  -3   4  35    0.57    0.78
   9  -5  29    0.01    0.56
  -3   4  35    0.16    0.33
  -3   4  35    0.07    0.76
  -3  -1 -35    0.33    0.47
   9  -4 -29    0.78    0.95
  -3  -1 -35   -0.02    0.56
   3   1  35    0.46    0.69
   3   1  35    0.46    0.47
  -9   4  29    0.75    0.94
  10  -5 -30    1.04    1.14
  -5   0 -35    0.10    0.52
  -5   5 -25    0.18    0.21
   5   0  35   -0.15    0.71
   5  -5  25    0.26    0.51
   5  -5  25    0.05    0.28
   5  -5  25    0.04    0.30
 -10   5  30   -0.59    0.88
   3  -5  23   21.98    1.22
   3  -5  23   19.65    1.16
   3  -5  23   22.24    1.22
   3  -5  23   19.78    1.38
  -2   5 -22   64.76    2.42
  -2   5 -22   63.15    2.42
   2  -5  22   66.04    3.04
   2  -5  22   63.08    2.95
   2  -5  22   64.82    3.04
  -1   5 -21   18.91    1.00
  -1   5 -21   19.92    0.99
   1  -5  21   21.38    1.31
   1  -5  21   20.86    1.38
   1  -5  21   20.37    1.31
   0   5 -20    7.43    0.69
   0   5 -20    8.41    0.72
   0  -5  20    8.54    0.95
   0  -5  20    8.24    0.88
   0  -5  20    8.26    0.90
   1   5 -19   17.83    1.12
   1   5 -19   16.83    1.14
   1   5 -19   16.76    1.15
  -1  -5  19   14.74    1.31
  -1  -5  19   15.51    1.39
  -1  -5  19   18.76    1.33
   2   4 -20   12.63    1.05
   2   4 -20   13.70    1.16
   2   4 -20   12.43    1.01
  -2  -4  20   12.69    1.30
  -2  -4  20   11.55    1.21
  -2  -4  20   13.65    1.21
   3   3 -21    1.98    0.52
   3   3 -21    1.53    0.62
  -3  -3  21    2.62    0.80
  -3  -3  21    1.50    0.68
  -3  -3  21    1.66    0.60
   4   2 -22   34.61    1.96
   4   2 -22   35.76    2.44
  -4  -2  22   38.22    2.53
   7  -1 -25    0.55    0.87
 -11   6 -29    0.10    0.58
   4  -5 -36   -0.11    0.76
 -11   6 -29   -0.24    0.52
  -4   5  36    0.53    0.36
  -7   1  25    1.29    0.91
  -4   5  36    0.09    0.72
  11  -6  29    0.04    0.70
   8  -2 -26    0.20    0.84
   2  -4 -36    1.50    0.85
 -10   6 -28    0.18    0.50
 -10   6 -28   -0.13    0.51
  10  -6  28    0.37    0.62
  -2   4  36    1.16    0.88
  -8   2  26    0.34    0.94
  -2   4  36    1.70    0.46
  -2  -2 -36    0.64    0.69
  -8   6 -26    0.02    0.35
  10  -4 -28    0.06    0.99
   2   2  36    1.74    0.55
   8  -6  26    0.55    0.56
   2   2  36    2.11    0.92
   8  -6  26    0.16    0.44
 -10   4  28    0.66    1.10
  -7   6 -25    0.00    0.28
  11  -5 -29    0.40    1.18
 -11   5  29    0.01    1.06
   7  -6  25    0.09    0.35
   4   1  36    0.33    0.78
   4   1  36   -0.41    0.47
   7  -6  25    0.07    0.51
   7  -6  25    0.07    0.32
  12  -6 -30   35.90    3.40
  -6   6 -24   32.18    1.36
   6  -6  24   31.98    1.96
   6  -6  24   31.29    1.70
   6  -6  24   31.68    1.71
   5  -6  23   13.23    1.21
   4  -6  22   32.68    1.58
   4  -6  22   35.22    1.98
   4  -6  22   35.07    1.60
   3  -6  21    2.16    0.32
   3  -6  21    2.02    0.34
   3  -6  21    2.46    0.61
   2  -6  20   12.94    1.09
   2  -6  20   12.25    0.91
   2  -6  20   13.01    0.92
  -1   6 -19   17.68    0.93
  -1   6 -19   16.70    0.93
   1  -6  19   17.27    1.28
   1  -6  19   15.21    1.17
   1  -6  19   17.80    1.22
   0   6 -18  169.74    6.18
   0   6 -18  155.71    6.16
   0  -6  18  151.86    7.23
   0  -6  18  155.02    7.24
   0  -6  18  161.04    6.27
   1   6 -17    2.98    0.58
   1   6 -17    3.33    0.58
   1   6 -17    2.68    0.56
  -1  -6  17    3.06    0.72
  -1  -6  17    2.98    0.76
  -1  -6  17    2.91    0.71
   2   5 -18   74.59    3.20
   2   5 -18   69.69    3.19
   2   5 -18   71.08    3.58
  -2  -5  18   71.13    3.27
  -2  -5  18   65.47    3.74
  -2  -5  18   71.79    3.82
   3   4 -19    0.03    0.46
   3   4 -19    0.39    0.48
   3   4 -19    0.53    0.43
  -3  -4  19    0.02    0.49
  -3  -4  19    0.08    0.47
  -3  -4  19    0.07    0.60
   4   3 -20    4.44    0.80
   4   3 -20    3.26    0.83
  -4  -3  20    4.56    1.07
   5   2 -21   24.33    1.67
   5   2 -21   24.37    2.09
  -5  -2  21   26.12    2.19
   6   1 -22   18.90    1.50
   6   1 -22   19.70    1.98
  -6  -1  22   20.47    2.02
   7  -7 -37    0.21    0.96
   7   0 -23    0.40    0.85
  -7   7  37    0.07    0.90
  -7   0  23   -0.41    0.74
   3  -5 -37    2.82    1.03
 -12   7 -28    0.19    0.64
   9  -2 -25    0.07    0.92
  -3   5  37    2.79    0.51
  -3   5  37    2.82    1.06
  -3   5  37    2.82    1.14
  12  -7  28    0.18    0.70
  -9   2  25   -0.16    0.86
  10  -3 -26   20.74    2.51
 -10   3  26   19.54    2.31
 -10   7 -26   19.51    1.45
 -10   7 -26   18.89    1.42
  10  -7  26   19.49    1.62
  -3  -2 -37    3.79    1.04
  -9   7 -25   -0.45    0.34
  -9   7 -25    0.05    0.37
  12  -5 -28    0.52    1.15
   3   2  37    2.94    0.70
   3   2  37    3.02    1.02
 -12   5  28    0.40    1.11
   9  -7  25    0.04    0.42
  -8   7 -24   78.66    3.26
   8  -7  24   78.10    3.77
   8  -7  24   78.46    3.80
  -7   0 -37    0.50    0.69
   7   0  37   -0.42    0.75
   7  -7  23    0.15    0.55
   7  -7  23   -0.01    0.27
   7  -7  23    0.23    0.27
   6  -7  22   18.18    1.43
   6  -7  22   17.16    0.95
   6  -7  22   19.14    0.97
   5  -7  21   19.86    1.43
   4  -7  20    3.10    0.67
   3  -7  19   -0.35    0.37
   3  -7  19    0.02    0.22
   3  -7  19   -0.02    0.24
  -2   7 -18   74.50    2.85
  -2   7 -18   73.54    2.84
   2  -7  18   70.80    3.45
   2  -7  18   74.05    3.46
   2  -7  18   72.48    3.30
  -1   7 -17    3.65    0.49
  -1   7 -17    3.77    0.53
   1  -7  17    3.19    0.62
   1  -7  17    2.95    0.67
   1  -7  17    2.94    0.60
   0   7 -16    3.29    0.57
   0   7 -16    3.47    0.58
   0  -7  16    2.79    0.61
   0  -7  16    3.61    0.73
   0  -7  16    4.20    0.79
   1   7 -15    7.00    0.88
   1   7 -15    8.12    0.96
  -1  -7  15    7.39    1.13
  -1  -7  15    6.93    0.93
   2   6 -16    8.59    1.02
   2   6 -16   10.14    1.05
   2   6 -16    9.71    1.03
  -2  -6  16   10.29    1.26
  -2  -6  16    9.77    1.03
   3   5 -17    3.81    0.72
   3   5 -17    3.81    0.70
   3   5 -17    3.64    0.75
  -3  -5  17    3.19    0.92
  -3  -5  17    3.60    0.78
   4   4 -18   54.77    2.86
   4   4 -18   55.26    2.79
   4   4 -18   56.02    3.27
  -4  -4  18   60.34    3.50
   5   3 -19    3.42    0.75
   5   3 -19    3.44    0.92
  -5  -3  19    2.76    0.99
   6   2 -20   19.69    1.97
  -6  -2  20   21.10    2.08
   7   1 -21   12.18    1.77
  -7  -1  21   11.99    1.84
   8  -8 -38   15.26    2.43
   8   0 -22   19.38    2.24
  -8   8  38   15.83    2.21
  -8   0  22   19.08    2.12
   9  -1 -23    2.41    1.21
   6  -7 -38    9.08    1.77
  -6   7  38    9.14    1.70
  -9   1  23    4.13    1.39
  11  -3 -25   -0.58    1.07
   2  -5 -38    5.66    1.35
  -2   5  38    5.76    1.33
 -11   3  25    0.23    1.06
  -2  -3 -38    6.63    1.37
   2   3  38    6.18    1.38
   2   3  38    6.57    0.86
 -10   8 -24   39.87    2.12
 -10   8 -24   41.59    2.15
  10  -8  24   40.59    2.41
  -9   8 -23    2.91    0.55
  -9   8 -23    2.66    0.51
   6   1  38    8.98    1.68
   9  -8  23    3.10    0.97
   9  -8  23    2.87    0.59
   8  -8  22   17.10    1.08
   8  -8  22   14.47    1.03
   8   0  38   15.61    2.15
   8  -8  22   17.12    1.55
   7  -8  21    8.98    0.63
   7  -8  21   10.07    0.64
   7  -8  21    8.28    1.12
   6  -8  20   15.88    1.40
   5  -8  19    2.39    0.67
   4  -8  18   54.19    2.70
   4  -8  18   56.65    2.48
   4  -8  18   53.89    2.46
  -3   8 -17    3.68    0.33
  -3   8 -17    3.80    0.34
   3  -8  17    3.92    0.55
   3  -8  17    3.77    0.53
   3  -8  17    3.91    0.74
  -2   8 -16   10.36    0.77
  -2   8 -16    9.99    0.75
   2  -8  16   10.55    1.06
   2  -8  16   10.30    0.95
   2  -8  16   10.34    0.95
  -1   8 -15    7.79    0.81
  -1   8 -15    7.49    0.78
   1  -8  15    5.43    0.87
   1  -8  15    7.42    0.95
   1  -8  15    6.64    0.92
   0   8 -14    2.23    0.56
   0   8 -14    2.45    0.58
   0  -8  14    2.61    0.74
   0  -8  14    2.88    0.69
   1   8 -13    3.37    0.73
   1   8 -13    2.83    0.66
  -1  -8  13    1.44    0.70
  -1  -8  13    2.42    0.67
   2   7 -14    0.52    0.50
   2   7 -14    0.68    0.53
  -2  -7  14    1.11    0.57
  -2  -7  14    0.35    0.64
   3   6 -15    1.30    0.56
   3   6 -15    1.90    0.67
   3   6 -15    0.76    0.51
  -3  -6  15    0.81    0.60
  -3  -6  15    1.69    0.77
   4   5 -16    6.62    0.98
   4   5 -16    7.18    1.05
   4   5 -16    7.12    1.16
  -4  -5  16    6.68    1.26
   5   4 -17    4.38    1.01
   5   4 -17    5.02    0.87
   5   4 -17    3.11    0.77
  -5  -4  17    5.06    1.17
   6   3 -18   65.82    4.06
  -6  -3  18   71.89    4.29
   7   2 -19    0.23    0.76
  -7  -2  19   -0.49    0.77
   8   1 -20   12.94    1.95
  -8  -1  20   13.12    1.94
   9   0 -21    0.56    1.00
   9  -9 -39    0.37    1.27
  -9   0  21    0.29    0.96
  10  -1 -22   14.14    2.24
   7  -8 -39   18.26    2.41
 -10   1  22   13.34    2.12
  -7   8  39   16.84    2.20
   5  -7 -39   10.86    1.80
  11  -2 -23    2.36    1.39
 -11   2  23    4.65    1.56
   3  -6 -39    0.19    0.88
  12  -3 -24    2.99    1.55
  -3   6  39   -0.49    0.81
 -12   3  24    4.05    1.50
  -3   6  39    0.68    1.00
   1  -5 -39    6.15    1.43
  -1   5  39    9.18    1.67
  -1  -4 -39    7.67    1.51
   1   4  39    9.12    1.63
 -12   9 -24    4.74    0.92
 -12   9 -24    3.30    0.80
  12  -9  24    3.52    0.86
   3   3  39    0.48    0.87
 -11   9 -23    3.47    0.72
 -11   9 -23    2.96    0.68
  11  -9  23    2.75    0.71
 -10   9 -22   12.24    1.05
  10  -9  22   12.15    1.15
   7   1  39   17.88    2.17
  -9   9 -21    0.24    0.30
   9  -9  21   -0.10    0.57
   9  -9  21    0.21    0.34
   9   0  39    0.38    1.04
  -8   9 -20   11.64    0.64
   8  -9  20   10.55    0.75
   8  -9  20   12.17    0.80
   8  -9  20   11.54    1.32
   7  -9  19   -0.10    0.55
   6  -9  18   59.97    3.01
   5  -9  17    3.97    0.39
   5  -9  17    4.39    0.40
   5  -9  17    4.28    0.80
  -4   9 -16    6.24    0.43
  -4   9 -16    7.24    0.47
   4  -9  16    5.91    0.63
   4  -9  16    6.52    0.64
   4  -9  16    6.07    0.91
  -3   9 -15    1.05    0.35
  -3   9 -15    1.37    0.33
   3  -9  15    1.78    0.59
   3  -9  15    1.21    0.43
   3  -9  15    1.31    0.46
  -2   9 -14    1.05    0.41
  -2   9 -14    0.78    0.36
   2  -9  14    0.58    0.47
   2  -9  14    0.52    0.47
  -1   9 -13    2.72    0.62
  -1   9 -13    3.32    0.60
   1  -9  13    2.95    0.69
   1  -9  13    2.44    0.70
   0   9 -12    6.92    0.92
   0   9 -12    7.66    0.97
   0  -9  12    7.14    1.14
   0  -9  12    8.51    1.06
   1   9 -11    3.22    0.73
   1   9 -11    3.73    0.80
  -1  -9  11    3.46    0.76
  -1  -9  11    3.44    0.98
   2   8 -12   93.65    4.32
   2   8 -12   94.69    4.33
  -2  -8  12   95.94    4.20
  -2  -8  12   94.58    5.08
   3   7 -13    0.13    0.52
   3   7 -13    0.04    0.52
  -3  -7  13    0.97    0.73
  -3  -7  13    0.34    0.53
   4   6 -14    4.20    0.86
   4   6 -14    4.98    0.91
  -4  -6  14    4.73    1.24
   5   5 -15   22.17    1.75
   5   5 -15   22.80    1.98
  -5  -5  15   24.31    2.28
   6   4 -16    0.50    0.57
   6   4 -16    0.13    0.76
  -6  -4  16    0.85    0.86
   7   3 -17   -0.69    0.73
  -7  -3  17    0.03    0.95
   8   2 -18   46.62    3.52
  -8  -2  18   55.67    3.84
   9   1 -19   -0.48    0.88
  -9  -1  19   -0.38    0.92
  10   0 -20    0.13    0.93
 -10   0  20   -0.06    1.01
  11  -1 -21   12.76    2.19
 -11   1  21   15.61    2.47
  12  -2 -22   10.28    2.10
 -12   2  22   11.60    2.15
   4  -7 -40    3.71    1.31
  -4   7  40    3.83    1.27
  -4   7  40    4.73    1.43
   2  -6 -40   -0.18    0.76
  -2   6  40    0.56    0.94
   0  -5 -40    0.29    0.84
   0   5  40   -0.55    0.85
  -2  -4 -40    0.91    0.96
   2   4  40    0.75    0.99
   4   3  40    4.39    1.39
 -12  10 -22    9.82    1.18
 -12  10 -22   10.38    1.18
  12 -10  22    9.92    1.28
 -11  10 -21   10.69    1.08
  11 -10  21   12.71    1.24
 -10  10 -20    0.44    0.40
  10 -10  20    0.76    0.45
  -9  10 -19   -0.21    0.26
   9 -10  19   -0.05    0.59
   9 -10  19    0.12    0.31
  -8  10 -18   42.54    1.75
   8 -10  18   42.01    1.99
   8 -10  18   40.68    2.46
   8 -10  18   43.95    2.01
   7 -10  17    0.40    0.56
   6 -10  16    0.39    0.26
   6 -10  16    0.90    0.60
   6 -10  16    0.51    0.25
  -5  10 -15   21.66    1.06
  -5  10 -15   20.89    1.04
   5 -10  15   19.99    1.51
   5 -10  15   22.04    1.28
   5 -10  15   22.99    1.30
  -4  10 -14    4.82    0.58
  -4  10 -14    5.27    0.59
   4 -10  14    4.89    0.70
   4 -10  14    4.84    0.70
   4 -10  14    5.22    0.89
  -3  10 -13   -0.10    0.30
  -3  10 -13    0.07    0.35
   3 -10  13    0.17    0.45
   3 -10  13    0.05    0.41
  -2  10 -12   95.42    4.13
  -2  10 -12   96.53    4.13
   2 -10  12   98.45    4.85
   2 -10  12   94.91    4.17
  -1  10 -11    4.22    0.80
  -1  10 -11    3.57    0.71
   1 -10  11    4.69    0.80
   1 -10  11    3.45    0.89
   0  10 -10    1.54    0.68
   0  10 -10    0.55    0.54
   0 -10  10    0.94    0.75
   0 -10  10    0.95    0.53
   1  10  -9   48.54    2.76
  -1 -10   9   48.03    2.58
  -1 -10   9   52.35    3.35
   2   9 -10   14.27    1.46
  -2  -9  10   12.20    1.59
  -2  -9  10   11.46    1.24
   3   8 -11    0.31    0.56
  -3  -8  11    0.31    0.75
  -3  -8  11    0.10    0.55
   4   7 -12  106.96    4.99
  -4  -7  12  115.24    5.97
  -4  -7  12  103.69    4.74
   5   6 -13    0.84    0.65
  -5  -6  13    1.45    0.93
  -6  -5  14   -0.48    0.72
   7   4 -15    9.78    1.66
  -7  -4  15    9.19    1.79
   8   3 -16   -0.60    0.83
  -8  -3  16   -0.04    0.96
   9   2 -17    4.73    1.44
  -9  -2  17    3.01    1.24
  10   1 -18   30.38    3.00
 -10  -1  18   29.42    3.02
  11   0 -19    0.53    1.17
 -11   0  19   -0.10    1.04
  12  -1 -20    4.07    1.63
 -12   1  20    3.38    1.53
   7  -9 -41    0.87    1.24
   5  -8 -41    0.27    1.05
  -5   8  41   -0.08    0.97
   3  -7 -41    0.11    0.93
  -3   7  41    0.45    1.03
   1  -6 -41    4.44    1.40
  -1   6  41    3.85    1.28
  -1  -5 -41    5.14    1.43
   1   5  41    5.06    1.44
   3   4  41   -1.18    0.91
   5   3  41    0.94    1.13
   7   2  41    1.05    1.16
 -12  11 -20    3.43    0.75
  12 -11  20    3.74    0.80
 -11  11 -19    0.09    0.42
  11 -11  19    0.13    0.42
 -10  11 -18   26.94    1.52
  10 -11  18   25.77    1.59
  -9  11 -17    2.81    0.48
   9 -11  17    2.29    0.46
   9 -11  17    1.12    0.76
  -8  11 -16    0.10    0.27
   8 -11  16    0.01    0.29
   8 -11  16   -0.73    0.53
  -7  11 -15    9.17    0.70
   7 -11  15    8.55    1.19
   7 -11  15    8.97    0.73
   7 -11  15    9.11    0.77
  -6  11 -14    0.10    0.27
  -6  11 -14    0.25    0.30
   6 -11  14    0.26    0.33
   6 -11  14   -0.08    0.50
  -5  11 -13    1.44    0.42
  -5  11 -13    1.50    0.41
   5 -11  13    2.34    0.56
   5 -11  13    1.28    0.62
  -4  11 -12  108.16    4.56
  -4  11 -12  110.07    4.57
   4 -11  12  116.11    5.32
   4 -11  12  108.36    4.70
  -3  11 -11    0.19    0.43
  -3  11 -11    0.40    0.43
   3 -11  11   -0.37    0.40
   3 -11  11    0.60    0.52
  -2  11 -10   13.98    1.27
  -2  11 -10   12.64    1.25
   2 -11  10   13.29    1.48
   2 -11  10   12.82    1.18
  -1  11  -9   47.95    2.65
  -1  11  -9   48.73    2.66
   1 -11   9   47.94    2.49
   1 -11   9   48.40    3.13
   0  11  -8    3.12    0.84
   0 -11   8    3.57    0.76
   0 -11   8    4.81    1.19
   1  11  -7    0.78    0.66
  -1 -11   7    0.29    0.83
  -1 -11   7    0.57    0.55
   2  10  -8    5.07    1.06
  -2 -10   8    3.68    1.16
  -2 -10   8    3.41    0.80
   3   9  -9   -0.37    0.57
  -3  -9   9    1.01    0.95
  -3  -9   9   -0.10    0.51
   4   8 -10    7.00    1.21
  -4  -8  10    7.90    1.51
  -4  -8  10    7.19    1.13
  -5  -7  11    0.34    0.88
  -6  -6  12    1.80    1.08
  -7  -5  13    0.23    0.96
  -8  -4  14    0.62    1.12
  -9  -3  15    1.75    1.26
  10   2 -16    1.52    1.30
 -10  -2  16    1.55    1.24
  11   1 -17    4.38    1.62
 -11  -1  17    5.48    1.68
  12   0 -18   35.22    3.55
 -12   0  18   31.63    3.32
   6  -9 -42   10.04    2.01
  -6   9  42    8.83    1.79
   4  -8 -42    2.57    1.27
  -4   8  42    2.50    1.22
  -4   8  42    2.61    1.32
   2  -7 -42    0.68    1.06
  -2   7  42    0.62    1.08
   0  -6 -42   -0.18    0.90
   0   6  42    1.41    1.13
   2   5  42    0.03    1.05
   4   4  42    3.80    1.39
   6   3  42    9.91    2.05
 -12  12 -18   24.31    1.70
  12 -12  18   27.79    1.85
 -11  12 -17    3.97    0.72
  11 -12  17    4.72    0.75
 -10  12 -16    2.79    0.59
  10 -12  16    2.86    0.59
  -9  12 -15    1.77    0.48
   9 -12  15    1.87    0.49
  -8  12 -14    0.35    0.37
   8 -12  14   -0.08    0.36
   8 -12  14   -0.14    0.58
  -7  12 -13   -0.35    0.32
   7 -12  13    0.02    0.37
   7 -12  13    0.25    0.57
  -6  12 -12    0.65    0.42
   6 -12  12    0.72    0.59
   6 -12  12    1.03    0.49
  -5  12 -11    0.30    0.41
   5 -12  11    0.09    0.51
   5 -12  11    0.01    0.44
  -4  12 -10    7.40    0.92
   4 -12  10    7.19    1.01
   4 -12  10    8.52    1.14
  -3  12  -9    0.23    0.50
  -3  12  -9    0.83    0.55
   3 -12   9    0.13    0.49
   3 -12   9   -0.04    0.60
  -2  12  -8    4.11    0.87
  -2  12  -8    4.97    0.95
   2 -12   8    3.90    0.74
   2 -12   8    3.91    0.99
  -1  12  -7   -0.01    0.54
   1 -12   7   -0.19    0.68
   0  12  -6   23.33    2.02
   0 -12   6   29.10    2.51
   1  12  -5    1.94    0.93
  -1 -12   5    2.10    1.10
  -2 -11   6    0.25    0.94
  -3 -10   7    0.26    0.55
  -3 -10   7    0.59    0.98
  -4  -9   8    1.95    0.79
  -4  -9   8    2.26    1.18
  -5  -8   9   32.63    2.24
  -5  -8   9   34.37    3.00
  -6  -7  10   -0.72    0.92
  -7  -6  11   -0.11    1.00
  -8  -5  12   44.43    3.72
  -9  -4  13   -0.64    1.05
 -10  -3  14    4.81    1.70
 -11  -2  15   13.28    2.47
   5  -9 -43   -0.19    1.08
  -5   9  43    0.05    1.01
   3  -8 -43    1.73    1.27
  -3   8  43    0.00    1.04
  -3   8  43    0.96    1.20
   1  -7 -43    0.12    0.94
  -1   7  43   -0.11    1.00
   1   6  43   -0.30    1.00
   3   5  43    0.47    1.17
   5   4  43   -0.63    1.10
 -11  13 -15    9.56    1.11
  11 -13  15   10.48    1.12
 -10  13 -14    4.16    0.74
  10 -13  14    4.24    0.71
  -9  13 -13    0.27    0.44
   9 -13  13    0.36    0.47
  -8  13 -12   38.73    2.08
   8 -13  12   38.21    2.25
   8 -13  12   39.84    2.36
  -7  13 -11    0.23    0.43
   7 -13  11    0.70    0.60
   7 -13  11    0.42    0.48
  -6  13 -10    0.41    0.47
   6 -13  10    0.12    0.54
   6 -13  10    0.45    0.50
  -5  13  -9   31.76    1.96
   5 -13   9   29.16    1.93
   5 -13   9   31.60    2.21
  -4  13  -8    1.35    0.64
   4 -13   8    2.23    0.82
  -3  13  -7    0.51    0.60
   3 -13   7   -0.20    0.63
  -2  13  -6    1.12    0.66
   2 -13   6    0.66    0.80
  -1  13  -5    2.97    0.94
   1 -13   5    2.85    1.10
  -3 -11   5    0.86    1.10
  -4 -10   6   -0.61    0.52
  -4 -10   6    1.88    1.19
  -5  -9   7   -0.02    1.04
  -5  -9   7   -0.28    0.67
  -6  -8   8    6.00    1.16
  -6  -8   8    7.75    1.77
  -7  -7   9   35.56    3.36
  -8  -6  10    3.47    1.49
  -9  -5  11    0.59    1.23
 -10  -4  12   67.31    4.98
  -4   9  44    6.29    1.78
   2  -8 -44    2.32    1.24
  -2   8  44    4.12    1.48
   0   7  44    3.65    1.45
   2   6  44    5.86    1.70
 -10  14 -12   57.78    2.92
  10 -14  12   56.29    3.08
  -9  14 -11    0.07    0.50
   9 -14  11   -0.11    0.50
  -8  14 -10    3.21    0.76
   8 -14  10    3.14    0.77
  -7  14  -9   30.78    1.99
   7 -14   9   32.14    2.20
  -6  14  -8    6.39    1.02
   6 -14   8    6.65    1.12
  -5  14  -7    0.04    0.53
   5 -14   7    0.28    0.67
  -4  14  -6    0.48    0.65
   4 -14   6   -0.22    0.72
  -3  14  -5    0.64    0.71
   3 -14   5    0.29    0.82
   0   0 -33    0.44    0.53
   0   0 -33   -0.51    0.36
   0   0  33   -0.01    0.37
   0   0  33   -0.09    0.54
   1   0 -32   11.39    1.34
   1   0 -32   11.82    1.08
  -1   0  32   11.95    1.40
  -1   0  32   13.43    1.49
  -1   0  32   11.77    1.07
  -1   1 -32   11.10    1.16
  -1   1 -32   11.26    1.02
   1  -1  32   11.94    1.08
   1  -1  32   13.09    1.33
   1  -1  32    9.59    1.15
  -3   1 -34   52.05    2.57
   3  -2 -34   48.22    2.59
  -3   1 -34   45.92    2.85
   3  -2 -34   50.67    3.27
  -3   2  34   50.28    2.42
   3  -1  34   51.18    2.51
  -3   2  34   52.53    3.27
   3  -1  34   49.70    3.04
   2  -2 -35    0.14    0.59
   2   0 -31    0.02    0.57
   2  -2 -35   -0.13    0.43
   2   0 -31   -0.11    0.38
  -2   0  31   -0.08    0.58
  -2   2  35   -0.29    0.34
  -2   0  31   -0.06    0.44
   4  -2  33    2.96    0.81
  -2   2  35   -0.43    0.62
  -2   2  35   -0.79    0.63
   3  -1 -32    6.72    1.19
  -3   2 -32    7.70    0.87
   3  -1 -32    7.59    0.95
  -3   2 -32    6.51    0.88
   3  -2  32    8.26    1.03
   3  -2  32    7.87    1.10
  -3   1  32    6.48    1.17
   3  -2  32    5.15    0.88
  -3   1  32    6.94    0.89
  -2   0 -35    0.13    0.53
  -2   2 -31   -0.02    0.35
  -2   2 -31    0.21    0.41
   4  -2 -33    3.56    1.05
  -2   0 -35   -0.40    0.40
   2   0  35    0.12    0.46
  -4   2  33    2.45    0.91
   2  -2  31    0.14    0.37
   2  -2  31   -0.08    0.48
   2   0  35    0.43    0.63
   2  -2  31    0.13    0.42
  -6   2 -35    4.31    0.82
   6  -4 -35    4.22    1.20
   6  -2  35    4.47    0.95
   6  -2  35    4.37    1.02
  -6   4  35    5.70    1.33
  -6   4  35    5.48    0.91
  -8   3 -35    3.72    0.88
  -8   3 -35    3.76    0.79
   1   2 -28    0.39    0.48
   7  -5 -36    1.01    1.06
   1   2 -28    0.51    0.38
  -7   5  36    0.73    0.99
  -1  -2  28    0.80    0.55
   8  -3  35    3.20    0.95
  -7   5  36    0.33    0.54
  -1  -2  28    0.28    0.49
  -1  -2  28    0.87    0.50
   5  -4 -36    0.44    0.87
  -5   4  36    0.64    0.77
   1  -2 -36    0.79    0.67
  -4   1  31    0.62    0.56
  -1   2  36    1.05    0.76
  -1  -1 -36    1.81    0.79
  -4   3 -31    0.01    0.34
  -1  -1 -36    0.61    0.52
   1   1  36    1.11    0.51
   4  -3  31    0.02    0.24
   4  -3  31    0.55    0.52
   4  -3  31   -0.13    0.41
   1   1  36    1.18    0.70
  -5   1 -36    0.83    0.54
  -7   2 -36    0.15    0.54
  -1   3 -28    0.69    0.35
   8  -5 -35    4.25    1.31
  -1   3 -28    0.89    0.38
   1  -3  28    0.97    0.50
   1  -3  28    1.38    0.52
   7  -2  36    0.53    0.69
   1  -3  28    0.76    0.53
  -8   5  35    5.33    1.47
   4   0 -29    0.19    0.61
   4  -4 -37    0.23    0.78
   4   0 -29    0.36    0.47
  -4   0  29   -0.25    0.53
  -4   4  37    0.35    0.39
  -4   4  37    0.10    0.78
  -4   0  29    0.32    0.69
   2  -3 -37    5.19    1.20
  -7   4 -32    0.36    0.43
   5  -1 -30    0.91    0.73
   5  -1 -30    1.27    0.61
  -2   3  37    4.96    1.20
   7  -4  32    0.51    0.53
   7  -4  32   -0.20    0.59
  -5   1  30    1.58    0.80
   0  -2 -37   -0.12    0.54
   6  -2 -31    0.39    0.86
  -6   4 -31    0.95    0.44
   0  -2 -37   -0.24    0.58
  -6   2  31    1.76    0.93
   0   2  37    0.53    0.75
   6  -4  31    0.72    0.53
   6  -4  31    0.82    0.59
   0   2  37    0.03    0.38
  -2  -1 -37    4.76    1.03
   7  -3 -32    0.20    0.91
  -5   4 -30    1.18    0.42
  -7   3  32    0.08    0.79
   5  -4  30    1.38    0.54
   5  -4  30    1.56    0.62
   5  -4  30    1.45    0.47
  -4   4 -29    0.04    0.28
  -4   0 -37    0.32    0.55
   8  -4 -33    5.13    1.41
   4  -4  29   -0.14    0.46
   4   0  37    0.02    0.49
  -8   4  33    5.87    1.51
   4   0  37    0.19    0.68
   4  -4  29   -0.19    0.38
   0   4 -25   -0.17    0.29
   0   4 -25    0.05    0.25
   0   4 -25    0.05    0.28
   0  -4  25    0.02    0.27
   0  -4  25    0.03    0.42
   0  -4  25    0.45    0.45
   1   4 -24   99.99    3.85
   1   4 -24   91.52    4.32
   1   4 -24   89.53    3.86
  -1  -4  24   86.87    4.54
  -1  -4  24   87.91    3.95
  -1  -4  24   94.79    4.59
   2   3 -25    0.44    0.43
   2   3 -25    0.63    0.52
  -2  -3  25    0.64    0.52
  -2  -3  25    0.30    0.46
  -2  -3  25    0.57    0.55
   3   2 -26    0.45    0.62
   9  -7 -38    3.80    1.51
   3   2 -26   -0.22    0.39
  -9   7  38    3.59    1.42
  -9   7  38    3.50    0.85
  -3  -2  26    0.62    0.57
  -3  -2  26   -0.20    0.60
   5   0 -28    6.88    1.31
 -10   5 -33    6.78    1.09
   5   0 -28    5.01    0.82
 -10   5 -33    7.19    1.10
   5  -5 -38    5.65    1.41
  -5   0  28    6.69    1.30
  10  -5  33    7.51    1.31
  -5   5  38    4.45    0.73
  -5   5  38    5.40    1.39
   7  -2 -30   -0.16    0.70
  -8   5 -31    2.58    0.61
  -7   2  30    0.51    0.80
   8  -5  31    2.27    0.72
   8  -5  31    2.31    0.79
   8  -3 -31    1.95    1.10
  -8   3  31    2.92    1.15
   7  -5  30   -0.31    0.60
   9  -4 -32    2.98    1.30
   6  -5  29    1.68    0.49
   6  -5  29    1.58    0.53
   6  -5  29    1.47    0.72
  -9   4  32    4.13    1.34
  10  -5 -33    9.21    1.95
  -5   5 -28    5.70    0.57
 -10   5  33    6.43    1.68
   5  -5  28    4.82    0.64
   5   0  38    4.27    0.92
   5  -5  28    5.85    0.94
   5   0  38    4.96    1.20
   5  -5  28    4.82    0.70
  -9   2 -38    3.46    1.02
  -3   5 -26    0.30    0.20
   3  -5  26    0.12    0.47
   3  -5  26    0.15    0.32
   9  -2  38    3.72    1.20
  -2   5 -25    0.66    0.25
  -2   5 -25    0.38    0.22
   2  -5  25    0.94    0.49
   2  -5  25    0.69    0.34
   2  -5  25    0.14    0.34
  -1   5 -24   96.96    3.73
  -1   5 -24   93.42    3.75
   1  -5  24   90.43    4.43
   1  -5  24   96.24    4.48
   1  -5  24   96.95    4.08
   0   5 -23   -0.06    0.31
   0   5 -23    0.21    0.31
   0  -5  23    0.69    0.50
   0  -5  23   -0.13    0.45
   0  -5  23   -0.11    0.34
   1   5 -22   52.31    2.31
   1   5 -22   46.98    2.31
   1   5 -22   47.52    2.48
  -1  -5  22   47.79    2.80
  -1  -5  22   48.22    2.47
   2   4 -23    9.25    1.01
   2   4 -23    9.31    1.00
   2   4 -23    9.66    0.94
  -2  -4  23    9.16    1.23
  -2  -4  23    7.64    1.13
  -2  -4  23   10.10    1.03
   3   3 -24   36.47    1.95
   3   3 -24   35.22    2.32
  -3  -3  24   34.09    2.48
  -3  -3  24   36.63    2.13
  -3  -3  24   36.78    2.46
   4   2 -25    0.40    0.62
   4   2 -25    0.29    0.46
  -4  -2  25    0.59    0.72
   5   1 -26    4.53    1.10
   5   1 -26    5.38    0.85
  -5  -1  26    5.79    1.25
   6   0 -27    0.58    0.76
   6  -6 -39    0.26    0.97
  -6   6  39    0.68    0.92
  -6   0  27    0.27    0.77
  -6   6  39    0.05    0.42
 -11   6 -32    6.58    1.12
 -11   6 -32    6.49    1.08
   4  -5 -39   10.62    1.73
  11  -6  32    6.62    1.25
  -4   5  39   12.53    1.86
   2  -4 -39    1.43    0.92
 -10   6 -31    0.55    0.57
   8  -2 -29    2.48    1.10
 -10   6 -31    0.27    0.52
  10  -6  31    0.27    0.60
  -2   4  39    1.45    1.01
  -8   2  29    3.87    1.27
  -2   4  39    1.14    0.46
  -9   6 -30   26.37    1.75
   9  -3 -30   30.27    2.88
  -9   6 -30   29.52    1.80
  -9   3  30   33.54    2.93
   9  -6  30   29.21    2.07
  -8   6 -29    2.56    0.56
  10  -4 -31    0.79    1.18
  -2  -2 -39    0.89    0.75
   2   2  39    1.36    0.57
 -10   4  31    0.18    0.98
   2   2  39    1.28    0.95
   8  -6  29    2.41    0.78
   8  -6  29    3.79    0.76
  11  -5 -32    5.52    1.67
 -11   5  32    7.73    1.84
  -6   6 -27    0.37    0.25
   6  -6  27    0.12    0.51
   6  -6  27    0.20    0.31
   6   0  39   -0.63    0.70
   6  -6  27   -0.07    0.28
   5  -6  26    5.14    0.88
   5  -6  26    4.73    0.58
   5  -6  26    4.93    0.54
   4  -6  25   -0.12    0.44
   4  -6  25    0.08    0.20
   4  -6  25    0.29    0.24
   3  -6  24   35.00    2.03
   3  -6  24   36.99    1.80
   3  -6  24   34.02    1.75
  -2   6 -23    9.12    0.56
  -2   6 -23    9.88    0.56
   2  -6  23    9.52    0.81
   2  -6  23    9.41    0.84
   2  -6  23    9.93    1.07
  -1   6 -22   49.88    2.09
  -1   6 -22   50.42    2.11
   1  -6  22   47.29    2.55
   1  -6  22   47.01    2.55
   1  -6  22   47.88    2.46
   0   6 -21    0.31    0.34
   0   6 -21    0.11    0.34
   0  -6  21   -0.19    0.42
   0  -6  21    0.10    0.44
   0  -6  21   -0.13    0.37
   1   6 -20    5.67    0.77
   1   6 -20    4.68    0.69
   1   6 -20    5.99    0.77
  -1  -6  20    5.07    0.93
  -1  -6  20    5.89    0.91
   2   5 -21   18.00    1.36
   2   5 -21   16.23    1.29
   2   5 -21   18.48    1.31
  -2  -5  21   17.89    1.63
  -2  -5  21   17.43    1.36
   3   4 -22    4.96    0.79
   3   4 -22    5.44    0.79
   3   4 -22    5.55    0.92
  -3  -4  22    5.13    0.90
  -3  -4  22    4.02    0.96
   4   3 -23    1.64    0.58
   4   3 -23    1.96    0.74
  -4  -3  23    1.20    0.75
   5   2 -24   79.38    3.80
   5   2 -24   82.04    4.61
  -5  -2  24   85.64    4.69
   6   1 -25   -0.09    0.67
   9  -8 -40   -0.02    1.20
  -9   8  40   -0.08    1.09
  -6  -1  25   -0.20    0.74
   9  -2 -28    0.21    0.97
   3  -5 -40    0.55    0.87
 -12   7 -31    0.64    0.67
  -3   5  40    0.39    0.89
  12  -7  31    0.23    0.73
  -3   5  40    0.26    0.85
  -9   2  28   -0.36    0.91
  -3   5  40   -0.17    0.35
   1  -4 -40    1.32    0.89
  10  -3 -29   -0.01    0.98
 -11   7 -30    4.59    0.90
 -10   3  29   -0.34    0.99
  -1   4  40    1.57    0.99
  11  -7  30    4.10    0.99
  -1   4  40    1.33    0.50
 -10   7 -29    0.27    0.46
  11  -4 -30    5.25    1.59
  -1  -3 -40    2.02    0.94
 -10   7 -29    0.18    0.49
  10  -7  29    0.80    0.59
   1   3  40    0.99    0.87
   1   3  40    1.34    0.53
 -11   4  30    6.20    1.68
  -9   7 -28    0.05    0.39
  12  -5 -31    0.96    1.25
  -9   7 -28    0.23    0.39
   9  -7  28   -0.12    0.68
   9  -7  28    0.13    0.45
   3   2  40    0.54    0.90
   3   2  40    0.20    0.49
 -12   5  31    0.52    1.15
  -8   7 -27   70.75    3.01
   8  -7  27   72.65    3.53
   8  -7  27   69.29    3.59
  -7   7 -26   54.26    2.17
   7  -7  26   48.81    2.54
   7  -7  26   53.67    2.58
   7  -7  26   52.79    2.87
   6  -7  25    0.52    0.55
   6  -7  25    0.12    0.21
   9  -1  40   -0.15    0.92
   6  -7  25    0.14    0.22
   5  -7  24   76.42    3.58
   4  -7  23    1.52    0.59
   3  -7  22    6.86    0.96
   3  -7  22    5.24    0.56
   3  -7  22    5.99    0.56
  -2   7 -21   18.18    0.92
  -2   7 -21   18.68    0.93
   2  -7  21   17.80    1.22
   2  -7  21   18.52    1.42
   2  -7  21   18.86    1.21
  -1   7 -20    5.23    0.62
  -1   7 -20    4.98    0.58
   1  -7  20    4.66    0.79
   1  -7  20    4.84    0.76
   1  -7  20    4.83    0.73
   0   7 -19   -0.51    0.32
   0   7 -19    0.15    0.38
   0  -7  19    0.26    0.47
   0  -7  19    0.19    0.46
   0  -7  19    0.11    0.44
   1   7 -18   36.48    2.01
   1   7 -18   36.17    2.00
  -1  -7  18   37.44    2.42
  -1  -7  18   36.99    2.13
   2   6 -19   20.83    1.47
   2   6 -19   19.42    1.40
  -2  -6  19   20.38    1.52
  -2  -6  19   17.95    1.71
   3   5 -20   11.52    1.16
   3   5 -20   10.90    1.21
   3   5 -20   11.27    1.12
  -3  -5  20   11.92    1.51
  -3  -5  20   12.11    1.20
   4   4 -21    5.27    1.01
   4   4 -21    5.23    0.87
   4   4 -21    5.67    0.86
  -4  -4  21    4.13    1.05
   5   3 -22   28.52    2.27
   5   3 -22   29.67    1.91
  -5  -3  22   35.21    2.59
   6   2 -23   16.52    1.86
  -6  -2  23   15.73    1.96
   7   1 -24   83.53    4.99
  -7  -1  24   85.64    5.03
   8  -8 -41    0.06    1.11
   8   0 -25    0.50    0.85
  -8   0  25   -0.21    0.87
  -8   8  41    0.35    1.13
   6  -7 -41   -0.80    0.84
   9  -1 -26   -1.05    0.89
  -6   7  41    0.01    0.88
  -9   1  26    0.46    1.03
   2  -5 -41    5.20    1.35
  11  -3 -28    0.12    1.09
  -2   5  41    5.24    1.40
 -11   3  28    0.47    1.20
   0  -4 -41   -0.44    0.68
  12  -4 -29    1.15    1.29
 -12   8 -29    0.08    0.57
 -12   8 -29   -0.56    0.54
   0   4  41   -0.12    0.87
 -12   4  29    0.13    1.15
   0   4  41   -0.52    0.37
  12  -8  29    0.24    0.68
 -11   8 -28    0.74    0.55
 -11   8 -28    0.47    0.55
   2   3  41    6.75    1.47
   2   3  41    4.75    0.80
  11  -8  28    0.51    0.60
 -10   8 -27   34.87    1.93
 -10   8 -27   33.16    1.89
  10  -8  27   33.55    2.14
  -9   8 -26    0.33    0.37
  -9   8 -26    0.58    0.39
   9  -8  26    0.54    0.43
   6   1  41   -0.76    0.86
   9  -8  26    0.07    0.59
   8  -8  25   -0.02    0.59
   8  -8  25    0.00    0.30
   8  -8  25    0.06    0.27
   8   0  41   -0.45    0.86
   7  -8  24   69.04    3.08
   7  -8  24   72.00    3.51
   6  -8  23   12.25    1.23
   5  -8  22   29.16    1.91
   4  -8  21    5.30    0.85
  -3   8 -20   11.32    0.56
   3  -8  20   11.32    0.87
   3  -8  20   11.03    0.82
   3  -8  20   12.57    1.18
  -2   8 -19   19.91    1.08
  -2   8 -19   20.54    1.10
   2  -8  19   20.18    1.49
   2  -8  19   18.93    1.31
   2  -8  19   18.58    1.33
  -1   8 -18   38.15    1.83
  -1   8 -18   34.12    1.80
   1  -8  18   36.10    2.06
   1  -8  18   35.97    2.16
   0   8 -17    0.23    0.39
   0   8 -17   -0.10    0.42
   0  -8  17   -0.10    0.45
   0  -8  17   -0.07    0.48
   1   8 -16    2.28    0.65
   1   8 -16    1.81    0.61
  -1  -8  16    3.45    0.76
  -1  -8  16    3.13    0.85
   2   7 -17    2.59    0.67
   2   7 -17    2.94    0.72
  -2  -7  17    2.50    0.83
  -2  -7  17    3.00    0.75
   3   6 -18   62.02    3.05
   3   6 -18   60.11    3.06
  -3  -6  18   62.65    3.13
  -3  -6  18   59.36    3.61
   4   5 -19    7.80    1.28
   4   5 -19    7.52    1.05
   4   5 -19    6.10    0.95
  -4  -5  19    9.43    1.49
   5   4 -20   10.69    1.21
   5   4 -20    9.07    1.17
   5   4 -20   10.64    1.43
  -5  -4  20   10.80    1.69
   6   3 -21    0.46    0.68
  -6  -3  21    1.30    0.90
   7   2 -22   24.08    2.32
  -7  -2  22   24.44    2.45
   8   1 -23    2.58    1.15
  -8  -1  23    4.66    1.41
   9   0 -24    6.20    1.55
  -9   0  24    6.20    1.51
  10  -1 -25    0.60    1.08
   7  -8 -42    0.40    1.14
 -10   1  25   -0.55    0.91
  -7   8  42    3.01    1.33
  11  -2 -26    1.29    1.27
   5  -7 -42    0.37    0.98
  -5   7  42    0.32    1.02
 -11   2  26   -0.09    1.08
   3  -6 -42    4.87    1.41
  12  -3 -27    0.01    1.24
 -12   3  27    1.12    1.32
  -3   6  42    3.86    1.32
  -3   6  42    6.65    1.69
   1  -5 -42    0.38    0.91
  -1   5  42    1.33    1.07
   1   4  42    0.82    0.94
 -12   9 -27    0.72    0.58
 -12   9 -27    1.42    0.66
   3   3  42    4.37    1.41
  12  -9  27    0.95    0.64
 -11   9 -26   -0.39    0.40
 -11   9 -26   -0.20    0.44
   5   2  42   -0.16    0.97
  11  -9  26   -0.01    0.47
 -10   9 -25    0.57    0.41
 -10   9 -25    0.30    0.41
  10  -9  25    0.78    0.45
   7   1  42    1.92    1.23
  -9   9 -24    4.66    0.56
   9  -9  24    2.78    0.91
   9  -9  24    5.55    0.66
   8  -9  23    3.13    0.89
   7  -9  22   20.48    1.67
   6  -9  21   -0.13    0.53
   5  -9  20   10.03    1.24
   4  -9  19    7.00    0.98
   4  -9  19    6.92    0.62
   4  -9  19    6.84    0.59
  -3   9 -18   59.17    2.48
  -3   9 -18   60.65    2.51
   3  -9  18   61.10    2.98
   3  -9  18   58.51    2.97
   3  -9  18   61.36    2.98
  -2   9 -17    2.86    0.52
  -2   9 -17    2.93    0.53
   2  -9  17    3.00    0.65
   2  -9  17    2.71    0.69
  -1   9 -16    2.91    0.58
  -1   9 -16    3.25    0.62
   1  -9  16    1.73    0.61
   1  -9  16    2.50    0.71
   0   9 -15    0.25    0.47
   0   9 -15   -0.02    0.43
   0  -9  15   -0.06    0.47
   0  -9  15    0.47    0.58
   1   9 -14    3.63    0.83
   1   9 -14    2.84    0.75
  -1  -9  14    3.54    0.81
  -1  -9  14    3.45    0.94
   2   8 -15   15.52    1.47
   2   8 -15   16.99    1.49
  -2  -8  15   15.62    1.40
  -2  -8  15   16.42    1.76
   3   7 -16   -0.21    0.50
   3   7 -16    0.33    0.60
  -3  -7  16   -0.39    0.62
  -3  -7  16    0.56    0.54
   4   6 -17    0.19    0.54
   4   6 -17   -0.07    0.51
  -4  -6  17    0.15    0.56
  -4  -6  17    0.43    0.78
   5   5 -18   62.56    3.43
  -5  -5  18   71.83    4.21
   6   4 -19   -0.02    0.69
  -6  -4  19    0.34    0.86
   7   3 -20    3.57    1.16
  -7  -3  20    2.27    1.15
   8   2 -21    7.63    1.62
  -8  -2  21    8.17    1.74
   9   1 -22   13.04    2.11
  -9  -1  22   12.66    2.05
  10   0 -23    0.03    1.03
 -10   0  23   -0.62    1.00
  11  -1 -24   39.00    3.60
 -11   1  24   43.07    3.71
  12  -2 -25    2.29    1.52
   6  -8 -43    1.68    1.29
 -12   2  25    0.64    1.24
  -6   8  43    0.72    1.07
   4  -7 -43   -0.78    0.92
  -4   7  43    0.46    1.03
  -4   7  43    1.05    1.09
   2  -6 -43   -0.38    0.92
  -2   6  43    0.88    1.10
   0  -5 -43    0.04    0.92
   0   5  43   -0.60    0.88
   2   4  43    0.18    0.98
   4   3  43    0.88    0.98
 -12  10 -25    1.64    0.63
 -12  10 -25    1.94    0.67
   6   2  43    0.64    1.14
  12 -10  25    0.43    0.55
 -11  10 -24   35.69    2.00
 -11  10 -24   38.69    2.07
  11 -10  24   36.04    2.14
 -10  10 -23   -0.24    0.35
  10 -10  23    0.16    0.34
  -9  10 -22   11.50    0.78
   9 -10  22   11.61    1.50
   9 -10  22   10.74    0.68
   8 -10  21    8.96    1.33
   7 -10  20    2.52    0.77
   6 -10  19    0.05    0.56
   5 -10  18   64.76    2.99
   5 -10  18   65.45    3.00
   5 -10  18   67.59    3.25
  -4  10 -17    0.49    0.29
  -4  10 -17    0.49    0.28
   4 -10  17    0.16    0.33
   4 -10  17    0.61    0.35
   4 -10  17    1.03    0.59
  -3  10 -16    0.10    0.35
  -3  10 -16    0.33    0.34
   3 -10  16    0.51    0.53
   3 -10  16   -0.12    0.39
  -2  10 -15   17.08    1.24
  -2  10 -15   15.62    1.22
   2 -10  15   17.38    1.49
   2 -10  15   17.45    1.41
  -1  10 -14    3.47    0.69
  -1  10 -14    2.75    0.68
   1 -10  14    3.71    0.82
   1 -10  14    2.91    0.82
   0  10 -13   -0.26    0.47
   0  10 -13    0.16    0.48
   0 -10  13   -0.23    0.46
   0 -10  13   -0.09    0.56
   1  10 -12   73.11    3.83
   1  10 -12   72.48    3.64
  -1 -10  12   72.67    3.48
  -1 -10  12   69.40    4.19
   2   9 -13    3.03    0.81
  -2  -9  13    2.29    0.91
  -2  -9  13    2.61    0.76
   3   8 -14    1.75    0.75
  -3  -8  14    1.51    0.86
  -3  -8  14    1.99    0.71
   4   7 -15    8.90    1.29
  -4  -7  15    7.65    1.46
  -4  -7  15    8.05    1.20
   5   6 -16    0.34    0.63
  -5  -6  16    1.02    0.96
  -6  -5  17    2.61    1.13
  -7  -4  18   18.87    2.19
  -8  -3  19   -1.01    0.85
   9   2 -20    6.31    1.62
  -9  -2  20    7.68    1.74
  10   1 -21   15.10    2.36
 -10  -1  21   13.80    2.28
  11   0 -22    3.91    1.54
 -11   0  22    3.12    1.49
  12  -1 -23    0.17    1.31
 -12   1  23    1.12    1.29
   5  -8 -44    4.92    1.56
  -5   8  44    6.51    1.67
   3  -7 -44    0.95    1.09
  -3   7  44   -0.10    0.98
  -3   7  44    0.35    1.13
   1  -6 -44    1.91    1.16
  -1   6  44    3.06    1.29
   1   5  44    1.94    1.17
   3   4  44    0.35    1.12
   5   3  44    6.31    1.68
 -12  11 -23    0.30    0.50
 -12  11 -23    0.32    0.51
  12 -11  23    0.47    0.50
 -11  11 -22    2.22    0.58
  11 -11  22    2.99    0.56
 -10  11 -21   11.64    0.93
  10 -11  21   11.64    0.81
  -9  11 -20    6.52    0.62
   9 -11  20    6.16    1.20
  -8  11 -19    0.77    0.28
   8 -11  19    0.09    0.67
  -7  11 -18   17.20    0.87
   7 -11  18   17.31    1.55
  -6  11 -17    2.75    0.38
  -6  11 -17    2.98    0.40
   6 -11  17    3.10    0.81
   6 -11  17    2.67    0.41
   6 -11  17    2.16    0.38
  -5  11 -16    0.56    0.34
  -5  11 -16    0.54    0.31
   5 -11  16    0.28    0.51
   5 -11  16    0.39    0.35
  -4  11 -15    6.91    0.82
  -4  11 -15    7.52    0.81
   4 -11  15    7.04    1.05
   4 -11  15    8.18    0.92
  -3  11 -14    2.37    0.61
  -3  11 -14    1.39    0.50
   3 -11  14    1.65    0.64
   3 -11  14    1.70    0.64
  -2  11 -13    2.14    0.62
  -2  11 -13    1.86    0.62
   2 -11  13    1.61    0.65
   2 -11  13    2.78    0.80
  -1  11 -12   69.19    3.41
  -1  11 -12   72.28    3.45
   1 -11  12   70.79    4.02
   1 -11  12   66.44    3.32
   0  11 -11   -0.24    0.59
   0  11 -11    0.07    0.58
   0 -11  11   -0.15    0.72
   0 -11  11    0.05    0.51
   1  11 -10    8.17    1.28
  -1 -11  10    8.95    1.62
  -1 -11  10    8.06    1.17
   2  10 -11    1.98    0.86
  -2 -10  11    2.07    1.02
  -2 -10  11    3.22    0.86
   3   9 -12    3.78    0.97
  -3  -9  12    2.07    1.00
  -3  -9  12    4.02    0.88
   4   8 -13    3.18    0.97
  -4  -8  13    2.51    1.05
  -4  -8  13    1.53    0.77
  -5  -7  14   -0.61    0.58
  -5  -7  14    0.44    0.93
  -6  -6  15    1.53    1.09
  -7  -5  16    2.12    1.27
  -8  -4  17    3.60    1.47
  -9  -3  18   37.90    3.45
 -10  -2  19    0.62    1.14
 -11  -1  20    3.35    1.55
   4  -8 -45   42.50    3.79
  -4   8  45   42.84    3.60
  -4   8  45   43.32    3.66
   2  -7 -45   41.39    3.60
  -2   7  45   39.89    3.45
   0   6  45    0.12    1.01
   2   5  45   44.74    3.75
   4   4  45   46.29    3.88
 -11  12 -20    3.79    0.68
  11 -12  20    3.56    0.53
 -10  12 -19    0.44    0.39
  -9  12 -18   27.55    1.46
   9 -12  18   26.81    2.09
  -8  12 -17    4.53    0.57
   8 -12  17    5.07    1.03
  -7  12 -16    1.65    0.42
   7 -12  16    2.50    0.46
   7 -12  16    1.90    0.78
  -6  12 -15    1.83    0.46
   6 -12  15    1.22    0.69
   6 -12  15    2.16    0.51
  -5  12 -14    0.16    0.40
  -5  12 -14   -0.11    0.36
   5 -12  14    0.41    0.45
   5 -12  14    0.22    0.57
  -4  12 -13    2.81    0.64
  -4  12 -13    2.22    0.60
   4 -12  13    2.55    0.70
   4 -12  13    2.86    0.77
  -3  12 -12    3.00    0.71
  -3  12 -12    3.31    0.74
   3 -12  12    3.59    0.88
   3 -12  12    2.97    0.79
  -2  12 -11    2.91    0.75
  -2  12 -11    2.68    0.77
   2 -12  11    2.56    0.74
   2 -12  11    3.28    0.94
  -1  12 -10    7.75    1.17
   1 -12  10    7.43    1.07
   1 -12  10    7.61    1.37
   0  12  -9   -0.60    0.58
   0 -12   9    0.02    0.75
   1  12  -8    1.49    0.87
  -1 -12   8    1.95    1.05
   2  11  -9   25.90    2.28
  -2 -11   9   30.70    2.04
  -2 -11   9   33.90    2.92
  -3 -10  10    0.27    0.58
  -3 -10  10   -0.40    0.85
  -4  -9  11    0.80    1.02
  -4  -9  11    1.31    0.74
  -5  -8  12   42.66    3.48
  -5  -8  12   45.71    2.76
  -6  -7  13    0.64    1.04
  -7  -6  14    2.40    1.34
  -8  -5  15   11.74    2.13
  -9  -4  16    0.59    1.16
 -10  -3  17    0.13    1.19
 -11  -2  18   16.79    2.61
   3  -8 -46   33.70    3.39
  -3   8  46   33.75    3.33
  -3   8  46   35.61    3.40
  -1   7  46   18.38    2.51
   1   6  46   19.61    2.58
   3   5  46   36.02    3.51
 -11  13 -18   16.72    1.32
  11 -13  18   16.30    1.04
 -10  13 -17    0.45    0.44
  -9  13 -16    0.41    0.42
  -8  13 -15   14.43    1.13
   8 -13  15   14.09    1.06
   8 -13  15   14.41    1.49
  -7  13 -14    1.86    0.55
   7 -13  14    2.36    0.56
   7 -13  14    2.64    0.84
  -6  13 -13   -0.17    0.42
   6 -13  13    0.44    0.60
   6 -13  13    0.27    0.44
  -5  13 -12   44.44    2.33
   5 -13  12   42.50    2.60
   5 -13  12   39.87    2.38
  -4  13 -11    0.55    0.54
   4 -13  11    0.90    0.60
   4 -13  11    0.52    0.66
  -3  13 -10   -0.33    0.52
   3 -13  10   -0.17    0.62
  -2  13  -9   28.31    2.12
   2 -13   9   32.24    2.54
  -1  13  -8    0.46    0.70
   1 -13   8    1.06    0.92
  -4 -10   9   28.07    2.84
  -4 -10   9   23.43    1.92
  -5  -9  10    4.00    1.44
  -5  -9  10    5.82    1.19
  -6  -8  11   -0.30    0.69
  -6  -8  11    0.59    1.15
  -7  -7  12   70.38    4.91
  -8  -6  13    1.62    1.27
  -9  -5  14    0.31    1.11
  -9  14 -14    0.05    0.47
   9 -14  14    0.11    0.42
  -8  14 -13    0.87    0.55
   8 -14  13    1.30    0.78
   8 -14  13    0.76    0.52
  -7  14 -12   66.60    3.08
   7 -14  12   56.57    3.09
   7 -14  12   59.24    3.25
  -6  14 -11   -0.12    0.47
   6 -14  11    0.71    0.57
  -5  14 -10    4.88    0.91
   5 -14  10    5.23    1.04
  -4  14  -9   21.56    1.83
   4 -14   9   24.79    2.17
  -3  14  -8    2.45    0.85
   0   0 -36  430.79   16.59
   0   0 -36  416.57   19.23
   0   0  36  460.35   19.41
   0   0  36  445.58   15.96
   1  -1 -37    0.44    0.61
  -2   1 -36    0.67    0.48
   1   0 -35    0.23    0.41
   1   0 -35    0.28    0.61
   1  -1 -37    0.11    0.46
   2  -1  36    0.46    0.49
  -1   1  37   -0.06    0.39
   2  -1  36    0.82    0.63
  -1   0  35    0.17    0.64
  -1   1  37   -0.02    0.70
  -1   0  35    0.09    0.42
  -1   0  35   -0.13    0.56
   2  -1 -36    0.55    0.50
  -1   0 -37   -0.17    0.40
   2  -1 -36    1.00    0.79
  -1   0 -37   -0.09    0.50
  -1   1 -35    0.20    0.42
  -1   1 -35    0.00    0.46
   1  -1  35   -0.06    0.45
  -2   1  36    1.34    0.56
  -2   1  36    0.97    0.77
   1  -1  35   -0.13    0.55
   1   0  37    0.61    0.68
   1   0  37    0.50    0.45
   3  -1 -35    9.61    1.15
  -3   2 -35    9.30    1.02
   0  -1 -38   13.30    1.53
   3  -1 -35    8.22    1.35
   3  -2  35    9.92    1.12
   3  -2  35    9.24    1.26
  -3   1  35    8.05    1.02
  -3   1  35   11.43    1.53
   0   1  38   13.42    1.58
  -6   2 -38    6.67    1.03
   6  -4 -38    5.82    1.41
  -6   4  38    6.24    0.95
   0  -2  32    9.96    1.05
   6  -2  38    5.85    1.21
   6  -2  38    7.87    1.22
  -6   4  38    6.13    1.50
  -8   3 -38    8.39    1.23
   1   2 -31    8.31    0.88
   7  -5 -39   10.81    1.85
   1   2 -31    7.84    1.07
  -1  -2  31    9.21    1.17
  -1  -2  31    6.88    1.05
  -1  -2  31    6.66    0.93
  -7   5  39   11.12    1.19
   8  -3  38    7.71    1.40
  -7   5  39   13.13    2.03
   2   1 -32    7.12    0.89
   5  -4 -39   12.49    1.88
   2   1 -32    5.92    1.07
  -2  -1  32    7.00    1.14
  -5   4  39   10.51    1.04
  -5   4  39    9.42    1.67
  -2  -1  32    6.61    0.94
   1  -2 -39    8.22    1.38
  -1   2  39    6.83    0.88
  -1   2  39    7.64    1.41
  -1  -1 -39    7.07    1.08
  -1  -1 -39    6.78    1.25
   1   1  39    8.00    1.00
   1   1  39    7.29    1.36
  -2   3 -32    8.49    0.85
  -5   1 -39   11.03    1.27
   5  -1  39   11.46    1.28
   2  -3  32    7.46    1.02
   2  -3  32    7.10    1.04
   5  -1  39   12.51    1.65
  -1   3 -31    7.63    0.81
   8  -5 -38   10.22    1.89
   1  -3  31    9.98    1.08
  -8   5  38    7.27    1.73
  -8   5  38    8.03    1.19
   7  -2  39   12.75    1.64
   1  -3  31    7.92    1.03
   9  -6 -39    1.23    1.21
   0   3 -30    6.00    0.78
   0  -3  30    5.89    0.87
   0  -3  30    5.89    0.91
   0  -3  30    6.33    0.89
  -9   6  39    0.05    1.10
  -9   6  39    1.00    0.72
   1   3 -29    0.30    0.45
   1   3 -29    0.32    0.38
 -10   7  40    3.80    1.56
  -1  -3  29    0.04    0.41
  -1  -3  29    0.99    0.60
 -10   7  40    3.26    0.93
  -1  -3  29   -0.04    0.47
   2   2 -30    3.13    0.79
   8  -6 -40    0.68    1.08
   2   2 -30    1.13    0.52
 -10   4 -38    5.03    1.07
  -8   6  40    1.09    1.21
  10  -4  38    5.32    1.27
  -8   6  40    0.11    0.56
  -2  -2  30    1.10    0.60
  -2  -2  30    2.28    0.78
   3   1 -31   -0.05    0.60
   3   1 -31   -0.15    0.41
   6  -5 -40   -0.02    0.92
  -9   4 -37    3.03    0.89
   9  -4  37    1.62    0.84
  -3  -1  31    0.18    0.48
  -6   5  40    0.87    1.01
  -3  -1  31    0.23    0.62
  -6   5  40    0.08    0.43
   4   0 -32    1.17    0.78
   4   0 -32    0.11    0.46
  -8   4 -36   -0.18    0.44
   4  -4 -40    3.00    1.07
  -4   0  32    0.25    0.59
   8  -4  36    0.70    0.67
  -4   4  40    3.45    1.19
  -4   0  32    0.34    0.73
   2  -3 -40   -0.21    0.69
   5  -1 -33    1.84    0.91
  -7   4 -35    1.67    0.58
  -2   3  40    0.61    0.84
   7  -4  35    0.84    0.73
  -5   1  33    1.90    0.95
  -2   3  40   -0.20    0.77
  -5   1  33    2.52    0.78
   7  -4  35    1.49    0.70
  -2   3  40    0.24    0.44
   6  -2 -34   44.99    3.29
  -6   4 -34   42.02    2.21
   6  -4  34   45.98    2.70
  -6   2  34   44.59    2.48
   6  -4  34   37.82    2.45
  -6   2  34   46.18    3.28
  -5   4 -33    1.51    0.46
   7  -3 -35    1.43    1.01
   2   1  40    0.33    0.51
   5  -4  33    2.21    0.66
   2   1  40    0.55    0.77
  -7   3  35    1.75    1.08
   5  -4  33    2.26    0.76
  -4   4 -32    0.39    0.35
   8  -4 -36   -0.33    0.97
   4  -4  32    0.24    0.50
   4   0  40    2.44    0.98
   4  -4  32    0.37    0.35
  -8   4  36   -0.16    0.96
   4   0  40    3.16    0.80
   4  -4  32    0.55    0.49
   9  -5 -37    2.51    1.33
  -3   4 -31   -0.20    0.29
   3  -4  31    0.43    0.43
   3  -4  31    0.21    0.48
   3  -4  31   -0.03    0.31
   6  -1  40    0.21    0.80
  -9   5  37    2.70    1.31
  10  -6 -38    5.13    1.66
  -2   4 -30    0.97    0.35
  -8   2 -40    0.18    0.69
   2  -4  30    1.27    0.55
   8  -2  40    0.25    0.82
   2  -4  30    0.73    0.47
 -10   6  38    4.49    1.53
   2  -4  30    0.48    0.47
   2  -4  30    1.16    0.44
  -1   4 -29    0.12    0.31
 -10   3 -40    2.82    0.98
   1  -4  29    0.05    0.35
   1  -4  29    0.78    0.47
   1  -4  29    0.55    0.53
   0   4 -28    0.85    0.37
   0  -4  28   -0.17    0.43
   0  -4  28    0.57    0.51
   0  -4  28    0.09    0.21
   1   4 -27  146.32    6.75
   1   4 -27  165.54    6.00
  -1  -4  27  148.63    6.06
  -1  -4  27  151.71    7.05
  -1  -4  27  135.24    6.96
   2   3 -28    2.98    0.74
   2   3 -28    2.82    0.59
  -2  -3  28    3.23    0.83
  -2  -3  28    2.97    0.71
   3   2 -29    1.01    0.51
   3   2 -29    0.99    0.66
   9  -7 -41    1.01    1.22
  -9   7  41    0.50    1.15
  -3  -2  29    1.03    0.67
  -3  -2  29    0.76    0.69
   4   1 -30    1.52    0.79
   4   1 -30    0.86    0.55
 -11   5 -37    0.53    0.73
   7  -6 -41    0.04    1.02
  -7   6  41   -0.58    0.41
  -7   6  41   -0.01    0.99
  -4  -1  30    0.85    0.64
  -4  -1  30    1.01    0.76
 -10   5 -36    0.24    0.62
   5   0 -31    0.16    0.66
   5  -5 -41    0.35    0.91
  10  -5  36   -0.44    0.64
  -5   0  31    0.17    0.74
  -5   5  41    0.28    0.44
  -5   0  31    0.11    0.55
  -5   5  41    1.18    0.94
  -9   5 -35    1.99    0.71
   3  -4 -41    0.08    0.78
  -9   5 -35    2.25    0.70
  -3   4  41    0.84    0.91
   9  -5  35    2.13    0.83
  -3   4  41    0.28    0.41
  -3   4  41    0.36    0.87
   9  -4 -35    3.24    1.32
  10  -5 -36   -0.66    0.99
  -5   5 -31   -0.14    0.28
 -10   5  36   -0.43    1.10
   5  -5  31    0.02    0.50
   5  -5  31   -0.07    0.38
   5   0  41   -0.25    0.76
   5   0  41    0.30    0.62
   5  -5  31    0.08    0.33
  -4   5 -30    1.14    0.32
  -7   1 -41   -0.21    0.62
   4  -5  30    1.09    0.39
   4  -5  30    1.12    0.61
   7  -1  41    0.02    0.81
 -11   6  37    1.29    1.29
   4  -5  30    1.04    0.44
  -9   2 -41    0.42    0.77
  -3   5 -29    1.12    0.31
   9  -2  41    0.37    0.88
   3  -5  29    1.04    0.39
   3  -5  29    1.04    0.43
   3  -5  29    0.72    0.54
   3  -5  29    0.83    0.42
  -2   5 -28    3.50    0.45
   2  -5  28    2.85    0.70
   2  -5  28    3.59    0.63
   2  -5  28    2.68    0.53
  -1   5 -27  158.43    5.88
  -1   5 -27  156.24    5.93
   1  -5  27  145.65    6.89
   1  -5  27  141.92    6.07
   1  -5  27  157.26    6.96
   0   5 -26    9.83    0.89
   0   5 -26    9.04    0.83
   0  -5  26   10.17    1.10
   0  -5  26    8.24    0.97
   0  -5  26    9.13    1.07
   1   5 -25    3.60    0.61
   1   5 -25    2.88    0.59
  -1  -5  25    3.15    0.76
  -1  -5  25    3.34    0.78
   2   4 -26    4.88    0.79
   2   4 -26    4.64    0.69
  -2  -4  26    5.21    0.85
  -2  -4  26    4.88    0.99
   3   3 -27    1.27    0.52
   3   3 -27    0.92    0.60
  -3  -3  27    1.50    0.77
  -3  -3  27    0.91    0.60
   4   2 -28    0.53    0.69
   4   2 -28    0.51    0.50
  -4  -2  28   -0.05    0.60
  -4  -2  28    1.41    0.80
   5   1 -29    1.41    0.63
   5   1 -29    1.75    0.90
   8  -7 -42    2.14    1.38
  -5  -1  29    1.66    0.86
  -8   7  42    2.09    1.28
 -11   6 -35    1.26    0.74
   7  -1 -31    0.58    0.89
   4  -5 -42    1.66    1.05
  -4   5  42    1.81    0.55
  -7   1  31   -0.10    0.83
  -4   5  42    1.61    1.01
  11  -6  35    1.43    0.81
 -10   6 -34   15.62    1.46
   8  -2 -32   13.02    2.11
 -10   6 -34   14.44    1.40
  -8   2  32   11.08    1.96
  10  -6  34   16.76    1.66
  -9   6 -33    0.59    0.54
   0  -3 -42    1.41    0.93
   9  -3 -33    1.26    1.13
  -9   6 -33    1.06    0.55
   0   3  42    1.10    0.51
  -9   3  33    1.94    1.26
   9  -6  33    1.35    0.66
   0   3  42    0.85    0.93
  -8   6 -32   11.40    1.05
  10  -4 -34   13.82    2.24
 -10   4  34   18.89    2.48
   8  -6  32   10.98    1.20
   8  -6  32   11.49    1.52
  11  -5 -35    0.66    1.21
  -7   6 -31    0.00    0.32
   7  -6  31    0.11    0.67
   4   1  42    1.61    1.05
   4   1  42    0.72    0.66
   7  -6  31    0.48    0.44
 -11   5  35    0.76    1.21
  -6   6 -30   42.44    1.85
   6  -6  30   37.83    2.34
   6  -6  30   38.42    2.15
   6  -6  30   42.87    2.23
  -5   6 -29    2.03    0.31
   5  -6  29    1.85    0.67
   5  -6  29    1.62    0.39
   8  -1  42    1.43    1.08
   5  -6  29    1.42    0.41
  -4   6 -28    0.56    0.18
   4  -6  28    0.30    0.26
   4  -6  28    0.26    0.29
   4  -6  28    0.26    0.46
  -3   6 -27    0.97    0.22
  -3   6 -27    1.05    0.23
   3  -6  27    0.95    0.32
   3  -6  27    0.76    0.55
   3  -6  27    0.91    0.37
  -2   6 -26    4.83    0.52
  -2   6 -26    5.79    0.50
   2  -6  26    4.40    0.65
   2  -6  26    4.82    0.66
   2  -6  26    4.75    0.84
  -1   6 -25    3.30    0.49
  -1   6 -25    3.53    0.48
   1  -6  25    3.35    0.64
   1  -6  25    2.93    0.74
   1  -6  25    3.27    0.64
   0   6 -24   28.24    1.50
   0   6 -24   24.81    1.43
   0  -6  24   23.98    1.75
   0  -6  24   26.22    1.75
   0  -6  24   26.79    1.83
   1   6 -23    0.09    0.41
   1   6 -23    0.28    0.44
  -1  -6  23    0.25    0.52
  -1  -6  23    0.40    0.54
   2   5 -24   81.29    3.65
   2   5 -24   83.17    3.73
  -2  -5  24   82.04    4.41
  -2  -5  24   82.89    3.81
   3   4 -25   -0.18    0.42
   3   4 -25   -0.41    0.42
  -3  -4  25    0.04    0.60
  -3  -4  25    0.26    0.54
   4   3 -26   28.34    2.15
   4   3 -26   28.75    1.82
  -4  -3  26   30.06    1.96
  -4  -3  26   29.48    2.36
   5   2 -27   92.18    4.27
   5   2 -27   92.65    5.15
  -5  -2  27   99.29    5.29
   6   1 -28    0.88    0.82
  -6  -1  28    0.80    0.86
   7  -7 -43    0.88    1.25
   7   0 -29   -0.40    0.81
  -7   0  29   -0.67    0.78
  -7   7  43   -0.15    0.99
   5  -6 -43    0.92    1.05
   8  -1 -30    1.97    1.15
  -5   6  43    1.33    1.12
  -8   1  30    2.52    1.24
   9  -2 -31    1.16    1.06
   3  -5 -43    0.50    0.92
  -3   5  43    0.49    0.93
  -3   5  43    0.17    0.95
  -9   2  31   -0.28    0.87
   1  -4 -43    0.05    0.74
 -11   7 -33    1.56    0.68
 -11   7 -33    2.18    0.74
  10  -3 -32   -0.43    1.05
  11  -7  33    2.17    0.86
  -1   4  43   -0.11    0.42
 -10   3  32    0.57    1.13
  -1   4  43   -0.21    0.80
 -10   7 -32    0.42    0.50
 -10   7 -32    0.09    0.51
  11  -4 -33    2.35    1.33
   1   3  43    0.28    0.49
  10  -7  32    0.62    0.60
   1   3  43   -0.05    0.86
 -11   4  33    2.63    1.32
  -9   7 -31   -0.08    0.40
  -9   7 -31    0.68    0.44
   3   2  43    1.16    0.64
   9  -7  31    0.52    0.71
   3   2  43    1.00    0.98
   9  -7  31    0.21    0.48
  -8   7 -30    2.29    0.50
   8  -7  30    2.27    0.90
   8  -7  30    2.51    0.59
   5   1  43    1.68    1.06
  -7   7 -29   -0.01    0.26
   7   0  43   -0.83    0.84
   7  -7  29    0.08    0.58
   7  -7  29    0.22    0.31
   7  -7  29    0.19    0.34
   6  -7  28    0.53    0.62
   6  -7  28    0.63    0.28
   6  -7  28    0.74    0.30
   5  -7  27   86.90    3.78
   5  -7  27   85.94    3.98
   5  -7  27   85.78    3.79
   4  -7  26   26.82    1.36
   4  -7  26   27.38    1.35
   4  -7  26   28.77    1.86
   3  -7  25   -0.04    0.26
   3  -7  25    0.00    0.49
   3  -7  25    0.14    0.25
  -2   7 -24   78.77    3.09
  -2   7 -24   80.60    3.09
   2  -7  24   78.75    3.69
   2  -7  24   74.88    3.70
   2  -7  24   74.06    3.56
  -1   7 -23    0.12    0.30
  -1   7 -23    0.23    0.33
   1  -7  23   -0.28    0.39
   1  -7  23   -0.02    0.34
   1  -7  23   -0.03    0.43
   0   7 -22    2.56    0.55
   0   7 -22    2.08    0.52
   0  -7  22    1.81    0.63
   0  -7  22    2.11    0.67
   1   7 -21   11.55    1.11
   1   7 -21   10.94    1.08
  -1  -7  21   10.20    1.12
  -1  -7  21   11.29    1.32
   2   6 -22   40.21    2.20
   2   6 -22   38.92    2.16
  -2  -6  22   41.99    2.35
  -2  -6  22   37.81    2.65
   3   5 -23    0.15    0.49
   3   5 -23    1.19    0.55
  -3  -5  23   -0.24    0.61
  -3  -5  23   -0.09    0.56
   4   4 -24   84.07    3.82
   4   4 -24   78.56    4.38
  -4  -4  24   87.85    4.73
  -4  -4  24   78.54    3.86
   5   3 -25    2.12    0.83
   5   3 -25    1.09    0.66
  -5  -3  25    2.41    1.02
   6   2 -26    0.26    0.71
  -6  -2  26    0.25    0.84
   7   1 -27   77.60    4.72
  -7  -1  27   76.64    4.77
   8   0 -28   -0.01    0.89
  -8   0  28    0.67    0.92
   9  -1 -29   -0.27    0.97
   6  -7 -44   -0.03    1.11
  -9   1  29    0.18    1.02
  -6   7  44   -0.08    1.05
  10  -2 -30    1.38    1.28
   4  -6 -44    1.04    1.12
 -10   2  30    1.40    1.25
  -4   6  44    1.59    1.19
   2  -5 -44    5.44    1.42
  11  -3 -31    2.08    1.42
 -11   3  31    2.14    1.41
  -2   5  44    8.08    1.71
   0   4  44    0.14    0.88
 -11   8 -31    1.47    0.63
 -11   8 -31    1.80    0.64
  11  -8  31    1.30    0.69
 -10   8 -30    0.72    0.49
 -10   8 -30    1.50    0.55
   4   2  44    0.52    1.03
  10  -8  30    0.79    0.56
  -9   8 -29    0.46    0.39
  -9   8 -29    1.13    0.43
   9  -8  29    0.56    0.43
   9  -8  29    0.44    0.70
   6   1  44    0.71    1.05
  -8   8 -28    0.05    0.28
   8  -8  28    0.05    0.29
   8  -8  28   -0.25    0.58
   7  -8  27   74.46    3.72
   6  -8  26   -0.20    0.56
   5  -8  25    1.52    0.67
   4  -8  24   74.28    3.52
  -3   8 -23    0.42    0.18
  -3   8 -23    0.20    0.18
   3  -8  23    0.59    0.52
   3  -8  23    0.36    0.29
   3  -8  23    0.37    0.31
  -2   8 -22   38.21    1.76
  -2   8 -22   37.92    1.76
   2  -8  22   40.25    2.27
   2  -8  22   38.24    2.12
   2  -8  22   38.99    2.17
  -1   8 -21    9.95    0.90
  -1   8 -21   11.56    0.99
   1  -8  21    9.88    1.13
   1  -8  21   10.37    1.11
   0   8 -20    4.14    0.70
   0   8 -20    4.67    0.72
   0  -8  20    4.27    0.87
   0  -8  20    4.35    0.83
   1   8 -19    6.97    0.95
   1   8 -19    6.50    0.95
  -1  -8  19    6.55    1.10
  -1  -8  19    6.52    1.03
   2   7 -20   10.82    1.19
   2   7 -20    9.98    1.19
  -2  -7  20   11.57    1.50
  -2  -7  20   10.97    1.32
   3   6 -21    0.39    0.50
   3   6 -21    1.08    0.56
  -3  -6  21    0.14    0.59
  -3  -6  21   -0.14    0.64
   4   5 -22   25.10    1.78
   4   5 -22   24.34    1.83
  -4  -5  22   25.28    1.90
  -4  -5  22   27.76    2.37
  -5  -4  23    6.92    1.38
   6   3 -24    9.56    1.50
  -6  -3  24   10.70    1.78
   7   2 -25    0.15    0.80
  -7  -2  25   -0.73    0.84
   8   1 -26    0.92    1.00
  -8  -1  26    1.39    1.10
   9   0 -27    0.08    1.06
  -9   0  27    0.01    1.03
  10  -1 -28   -0.02    1.16
 -10   1  28    0.95    1.25
   3  -6 -45   -0.27    0.95
  -3   6  45    0.15    1.00
  -3   6  45    0.52    1.12
  -1   5  45   64.88    4.44
   1   4  45   72.52    4.77
 -12   9 -30   20.87    1.72
 -12   9 -30   23.24    1.73
 -10   9 -28    0.91    0.46
 -10   9 -28    0.52    0.45
  10  -9  28    0.43    0.43
  -9   9 -27   -0.02    0.30
  -9   9 -27    0.05    0.31
   9  -9  27   -0.13    0.28
   9  -9  27    0.00    0.70
   8  -9  26    0.16    0.70
   7  -9  25    0.45    0.64
   6  -9  24    8.88    1.22
   5  -9  23    6.69    1.04
   4  -9  22   24.50    1.24
   4  -9  22   24.51    1.26
   4  -9  22   22.60    1.65
  -3   9 -21    0.16    0.28
  -3   9 -21   -0.02    0.23
   3  -9  21    0.55    0.38
   3  -9  21   -0.02    0.30
   3  -9  21    0.09    0.47
  -2   9 -20   11.93    0.92
  -2   9 -20   11.23    0.93
   2  -9  20   12.23    1.11
   2  -9  20   12.17    1.24
  -1   9 -19    8.06    0.95
  -1   9 -19    7.14    0.85
   1  -9  19    8.09    1.09
   1  -9  19    7.19    1.05
   0   9 -18   41.67    2.31
   0   9 -18   43.44    2.33
   0  -9  18   42.27    2.43
   0  -9  18   42.87    2.70
   1   9 -17   -0.39    0.50
   1   9 -17    0.32    0.53
  -1  -9  17    0.15    0.51
  -1  -9  17    0.44    0.66
   2   8 -18   48.63    2.67
   2   8 -18   50.16    2.69
  -2  -8  18   47.28    2.66
  -2  -8  18   45.23    3.10
   3   7 -19    0.48    0.59
   3   7 -19   -0.32    0.45
  -3  -7  19   -0.34    0.64
  -3  -7  19    0.09    0.56
   4   6 -20    3.11    0.78
  -4  -6  20    2.73    1.05
  -4  -6  20    2.57    0.81
   5   5 -21   19.10    1.74
  -5  -5  21   22.83    2.27
  -6  -4  22    8.75    1.69
  -7  -3  23    0.61    0.96
  -8  -2  24   45.15    3.59
   9   1 -25    0.79    1.07
  -9  -1  25   -0.54    0.97
  10   0 -26   27.25    2.94
 -10   0  26   28.19    2.94
 -11   1  27   42.97    3.78
   4  -7 -46    9.67    1.91
  -4   7  46   11.90    2.16
  -2   6  46   35.23    3.21
   0   5  46   31.63    3.05
   2   4  46   31.60    3.09
   4   3  46   11.63    2.13
 -12  10 -28   -0.03    0.48
 -12  10 -28   -0.07    0.49
 -11  10 -27   33.64    1.95
 -11  10 -27   36.14    1.97
  11 -10  27   33.65    1.97
 -10  10 -26   24.25    1.40
 -10  10 -26   21.63    1.35
  10 -10  26   23.38    1.30
  -9  10 -25    0.27    0.29
   9 -10  25    0.88    0.75
   8 -10  24   38.22    2.50
   7 -10  23   -0.13    0.61
   6 -10  22    8.66    1.24
   5 -10  21   20.72    1.65
  -4  10 -20    2.98    0.42
  -4  10 -20    3.49    0.44
   4 -10  20    3.39    0.50
   4 -10  20    2.45    0.76
   4 -10  20    3.65    0.55
  -3  10 -19    0.24    0.35
  -3  10 -19   -0.15    0.31
   3 -10  19   -0.10    0.37
   3 -10  19    0.20    0.57
  -2  10 -18   47.03    2.36
  -2  10 -18   48.42    2.34
   2 -10  18   46.07    2.58
   2 -10  18   47.18    2.70
  -1  10 -17    0.21    0.49
  -1  10 -17    0.54    0.49
   1 -10  17    0.42    0.56
   1 -10  17    0.18    0.54
   0  10 -16    1.78    0.63
   0  10 -16    2.01    0.71
   0 -10  16    1.62    0.77
   0 -10  16    2.20    0.73
   1  10 -15    8.35    1.17
   1  10 -15    8.49    1.22
  -1 -10  15    8.01    1.42
  -1 -10  15    9.08    1.24
   2   9 -16    1.51    0.74
  -2  -9  16    1.65    0.87
  -2  -9  16    2.13    0.73
   3   8 -17    0.01    0.60
  -3  -8  17   -0.32    0.54
  -3  -8  17   -0.07    0.71
   4   7 -18   18.36    1.72
  -4  -7  18   18.83    2.17
  -4  -7  18   19.94    1.77
   5   6 -19    1.91    0.84
  -5  -6  19    1.99    1.07
  -5  -6  19    1.45    0.76
  -6  -5  20    2.82    1.21
  -7  -4  21   19.05    2.34
  -8  -3  22    8.75    1.87
  -9  -2  23    4.01    1.53
 -10  -1  24   45.25    3.89
 -11   0  25    0.63    1.21
  -3   7  47    0.28    1.05
  -3   7  47   -1.01    1.09
  -1   6  47    1.05    1.20
   1   5  47    0.56    1.17
   3   4  47    0.87    1.24
 -11  11 -25    0.34    0.41
 -11  11 -25   -0.03    0.41
  11 -11  25   -0.01    0.31
 -10  11 -24   35.58    1.76
  -9  11 -23    2.25    0.37
   9 -11  23    3.49    1.05
   8 -11  22    7.00    1.26
   7 -11  21   16.94    1.62
  -6  11 -20    2.45    0.33
  -6  11 -20    2.79    0.32
   6 -11  20    3.05    0.85
  -5  11 -19    1.71    0.39
  -5  11 -19    2.12    0.39
   5 -11  19    2.76    0.79
   5 -11  19    1.93    0.39
  -4  11 -18   19.05    1.20
  -4  11 -18   19.49    1.20
   4 -11  18   19.15    1.35
   4 -11  18   19.20    1.64
  -3  11 -17    0.42    0.43
  -3  11 -17   -0.07    0.39
   3 -11  17    0.13    0.54
   3 -11  17   -0.18    0.43
  -2  11 -16    2.23    0.63
  -2  11 -16    1.73    0.58
   2 -11  16    1.55    0.69
   2 -11  16    1.59    0.71
  -1  11 -15    8.75    1.11
  -1  11 -15    8.06    1.13
   1 -11  15    9.17    1.26
   1 -11  15    8.77    1.36
   0  11 -14    2.15    0.80
   0  11 -14    1.95    0.75
   0 -11  14    2.56    0.98
   0 -11  14    2.54    0.80
   1  11 -13    0.02    0.66
  -1 -11  13    0.32    0.82
  -1 -11  13    0.38    0.60
   2  10 -14   -0.15    0.61
  -2 -10  14    0.72    0.85
  -2 -10  14    0.30    0.61
   3   9 -15    1.38    0.77
  -3  -9  15    2.43    0.82
  -3  -9  15    1.78    1.04
   4   8 -16    1.68    0.81
  -4  -8  16    2.73    0.93
  -4  -8  16    3.09    1.18
   5   7 -17    3.25    0.95
  -5  -7  17    3.11    0.98
  -5  -7  17    2.41    1.16
  -6  -6  18   41.89    3.43
  -7  -5  19   -0.52    1.04
  -8  -4  20    7.90    1.85
  -9  -3  21    0.49    1.14
 -10  -2  22   10.10    2.05
 -11  -1  23    0.37    1.26
  -2   7  48   13.79    2.38
   0   6  48    3.75    1.53
   2   5  48   12.25    2.29
 -11  12 -23    0.91    0.48
 -10  12 -22    9.74    0.86
  -9  12 -21    0.81    0.36
   9 -12  21    1.10    0.81
  -8  12 -20    5.29    0.59
   8 -12  20    5.68    1.19
  -7  12 -19    0.49    0.31
   7 -12  19    0.18    0.65
  -6  12 -18   39.67    1.85
  -6  12 -18   38.81    1.86
   6 -12  18   41.88    2.47
   6 -12  18   37.42    1.94
  -5  12 -17    3.57    0.60
  -5  12 -17    2.76    0.55
   5 -12  17    3.10    0.61
   5 -12  17    3.71    0.91
  -4  12 -16    1.81    0.56
  -4  12 -16    1.88    0.57
   4 -12  16    1.93    0.62
   4 -12  16    1.82    0.74
  -3  12 -15    2.39    0.66
  -3  12 -15    2.22    0.64
   3 -12  15    2.29    0.72
   3 -12  15    2.23    0.75
  -2  12 -14   -0.08    0.49
  -2  12 -14   -0.26    0.51
   2 -12  14    0.21    0.64
   2 -12  14   -0.15    0.55
  -1  12 -13    0.05    0.59
  -1  12 -13    0.18    0.61
   1 -12  13    0.49    0.78
   1 -12  13    0.31    0.58
   0  12 -12    1.32    0.73
   0 -12  12    0.96    0.66
   0 -12  12    0.88    0.90
   1  12 -11    2.60    0.95
  -1 -12  11    0.88    1.01
   2  11 -12   37.89    2.72
  -2 -11  12   43.18    3.30
  -2 -11  12   41.28    2.53
   3  10 -13    0.33    0.70
  -3 -10  13    0.24    0.87
  -3 -10  13   -0.09    0.62
  -4  -9  14    2.11    1.16
  -4  -9  14    1.26    0.79
  -5  -8  15   14.66    1.81
  -5  -8  15   17.80    2.35
  -6  -7  16    0.45    1.07
  -6  -7  16   -0.25    0.75
  -7  -6  17    0.75    1.12
  -8  -5  18   33.33    3.31
  -9  -4  19   -0.67    1.10
 -10  -3  20    4.17    1.70
 -10  13 -20    3.16    0.60
  -9  13 -19    0.23    0.36
   9 -13  19    0.39    0.76
  -8  13 -18   25.94    1.45
   8 -13  18   25.51    2.04
  -7  13 -17    0.60    0.41
   7 -13  17    0.27    0.33
   7 -13  17    1.13    0.77
  -6  13 -16    0.23    0.41
   6 -13  16    0.09    0.39
   6 -13  16    0.68    0.69
  -5  13 -15   14.66    1.25
   5 -13  15   13.15    1.42
   5 -13  15   13.98    1.29
  -4  13 -14    2.35    0.69
  -4  13 -14    1.96    0.69
   4 -13  14    3.10    0.82
   4 -13  14    1.79    0.72
  -3  13 -13    0.75    0.58
  -3  13 -13    0.39    0.57
   3 -13  13    0.48    0.65
   3 -13  13    0.08    0.60
  -2  13 -12   37.91    2.49
   2 -13  12   42.02    2.90
  -1  13 -11    2.03    0.86
   1 -13  11    3.22    1.11
  -4 -10  12   60.67    4.21
  -4 -10  12   54.97    3.19
  -5  -9  13    1.02    1.18
  -5  -9  13    0.82    0.79
  -6  -8  14    0.89    0.86
  -6  -8  14    1.29    1.25
  -7  -7  15    3.72    1.55
  -8  -6  16    0.15    1.20
  -8  14 -16    0.18    0.44
   8 -14  16   -0.02    0.32
   8 -14  16    0.81    0.78
  -7  14 -15    3.81    0.76
   7 -14  15    3.53    0.67
   7 -14  15    4.03    0.98
  -6  14 -14    1.09    0.57
   6 -14  14    1.16    0.71
   6 -14  14    1.34    0.59
  -5  14 -13    1.14    0.62
   5 -14  13    0.69    0.62
  -4  14 -12   55.72    3.10
   4 -14  12   58.61    3.49
   0   0  39    2.26    0.62
   0   0  39    2.65    0.93
  -2   1 -39    7.21    0.97
   2  -1  39    7.11    1.21
   2  -1  39    6.85    1.01
   2  -1 -39    6.22    1.24
  -2   1  39    8.15    1.42
  -2   1  39    6.66    0.91
  -3   1 -40    0.97    0.52
   3  -2 -40   -0.23    0.72
   0   1 -37    0.26    0.44
   0  -1  37   -0.07    0.58
   3  -1  40    0.00    0.51
   3  -1  40   -0.38    0.62
  -3   2  40   -0.56    0.69
  -3   2  40    0.23    0.50
   0  -1  37    0.60    0.63
   0  -1  37    0.13    0.51
   1   1 -36    1.14    0.64
   1   1 -36    0.49    0.45
  -5   2 -40    0.34    0.54
   4  -3 -41    1.63    0.98
  -4   3  41    0.28    0.50
  -1  -1  36    0.85    0.71
  -4   3  41    0.57    0.83
   5  -2  40    0.18    0.55
   5  -2  40    0.21    0.63
  -1  -1  36    0.99    0.55
   2   0 -37   -0.19    0.42
  -4   2 -39    1.01    0.55
   2   0 -37    0.42    0.66
   2  -2 -41   -0.40    0.71
  -2   2  41    0.18    0.76
  -2   2  41    0.86    0.81
  -2   2  41   -0.15    0.43
  -2   0  37    0.36    0.67
  -2   0  37   -0.17    0.48
   4  -2  39    1.08    0.67
   4  -2  39    1.57    0.78
   3  -1 -38   10.12    1.59
  -3   2 -38   10.48    1.10
  -3   1  38   11.52    1.19
   3  -2  38   11.11    1.32
  -3   1  38   10.83    1.60
   3  -2  38   11.88    1.42
   4  -2 -39    2.00    0.94
  -2   0 -41    0.08    0.48
  -2   2 -37    0.17    0.41
   2   0  41   -0.02    0.49
   2   0  41    0.47    0.76
  -4   2  39    1.32    0.61
   2  -2  37   -0.13    0.54
  -4   2  39    1.24    0.88
   2  -2  37    0.14    0.48
  -4   1 -41    0.80    0.60
  -1   2 -36    0.19    0.39
   5  -3 -40   -0.19    0.80
   1  -2  36    0.25    0.61
  -5   3  40    0.27    0.51
   4  -1  41    0.52    0.62
   1  -2  36    0.44    0.55
   4  -1  41    0.94    0.79
  -5   3  40    0.54    0.89
   6  -4 -41    1.21    1.08
   0   2 -35   -0.10    0.37
  -6   4  41    0.67    0.96
   0  -2  35    0.01    0.54
   6  -2  41    0.61    0.74
   0  -2  35   -0.09    0.46
   6  -2  41    0.58    0.82
  -6   4  41    1.13    0.62
  -7   3 -40    3.68    0.86
   5  -4 -42    2.24    1.17
  -5   4  42    1.75    1.08
  -5   4  42    2.03    0.67
   7  -3  40    3.05    0.95
   7  -3  40    2.77    1.00
   4  -1 -37    0.03    0.71
   5  -3  38    6.58    1.12
  -4   1  37    0.50    0.76
  -1   2  42    0.57    0.86
   5  -3  38    5.99    1.05
  -4   1  37    0.26    0.54
   5  -2 -38    6.61    1.34
  -4   3 -37    0.77    0.48
   4  -3  37    0.49    0.61
   4  -3  37   -0.14    0.55
  -5   2  38    5.43    0.91
  -5   2  38    4.56    1.21
   1   1  42    0.06    0.73
   7  -4 -40    5.02    1.49
   5  -1  42    1.60    0.93
  -7   4  40    4.91    0.99
   5  -1  42    1.83    0.78
   2  -3  35    9.57    1.03
  -7   4  40    5.15    1.60
  -9   3 -42    6.80    1.24
   9  -6 -42    7.82    1.99
  -9   6  42   10.49    2.14
  -9   6  42    7.57    1.22
   9  -3  42    9.44    1.64
   1   3 -32    0.20    0.43
  -1  -3  32    0.47    0.57
  -1  -3  32    0.73    0.60
   8  -6 -43    1.99    1.25
   2   2 -33    2.88    0.79
 -10   4 -41    0.65    0.73
   2   2 -33    3.78    0.72
  -8   6  43    2.33    0.76
  -8   6  43    0.99    1.22
  -2  -2  33    2.64    0.86
  -2  -2  33    3.30    0.82
  -8   4 -39    3.76    0.88
   4  -4 -43    0.04    0.89
   4   0 -35    0.28    0.66
  -4   0  35   -0.46    0.45
  -4   4  43   -0.10    0.41
  -4   0  35    0.50    0.76
  -4   4  43   -0.01    0.85
  -6   4 -37    2.95    0.69
   6  -2 -37    2.76    1.14
   0   2  43    0.31    0.76
   6  -4  37    2.54    0.79
   6  -4  37    3.04    0.86
  -6   2  37    3.02    1.15
  -6   2  37    2.75    0.85
  -4   4 -35    0.38    0.38
   8  -4 -39    4.39    1.48
   4   0  43    0.19    0.85
  -8   4  39    5.21    1.62
   4  -4  35    0.07    0.48
  -8   4  39    4.48    0.98
   4  -4  35   -0.20    0.50
   4   0  43    0.16    0.60
  -2   4 -33    3.81    0.57
  -8   2 -43    0.51    0.77
   8  -2  43    0.96    0.93
   2  -4  33    3.22    0.65
   2  -4  33    2.61    0.71
   2  -4  33    2.73    0.67
  -1   4 -32    1.15    0.42
   1  -4  32    0.26    0.47
   1  -4  32    0.34    0.39
   1  -4  32    1.33    0.59
   0   4 -31    0.23    0.34
   0  -4  31    0.06    0.49
   0  -4  31    0.12    0.47
   1   4 -30    0.59    0.43
  -1  -4  30    0.82    0.55
  -1  -4  30    0.90    0.61
   2   3 -31    4.58    0.72
   2   3 -31    5.19    0.94
  -2  -3  31    4.90    1.01
  -2  -3  31    6.66    1.01
   3   2 -32    9.23    1.09
   3   2 -32   10.16    1.35
  -3  -2  32   11.44    1.24
  -3  -2  32    8.93    1.36
   4   1 -33    2.01    0.86
   7  -6 -44    1.20    1.20
   4   1 -33    1.11    0.63
  -4  -1  33    2.12    0.73
  -4  -1  33    0.87    0.81
  -7   6  44    0.39    1.10
 -10   5 -39   13.86    1.59
  10  -5  39   12.99    1.72
  -9   5 -38    3.81    0.88
  -9   5 -38    3.41    0.83
   6  -1 -35    8.98    1.58
   3  -4 -44    1.47    1.04
  -3   4  44    1.14    1.00
  -6   1  35    9.32    1.23
   9  -5  38    4.32    1.04
   7  -2 -36    0.71    0.96
  -8   5 -37    0.36    0.51
   8  -5  37    0.97    0.69
  -7   2  36    0.04    0.68
  -1   3  44    3.87    1.28
   8  -5  37   -0.03    0.73
  -7   2  36    0.03    0.95
  -1   3  44    2.60    0.68
   8  -3 -37    0.62    1.10
  -7   5 -36    0.32    0.44
   1   2  44    2.95    0.74
   7  -5  36    0.05    0.66
   1   2  44    2.21    1.08
  -8   3  37    0.43    1.01
   7  -5  36   -0.17    0.54
   9  -4 -38    5.89    1.72
  -9   4  38    3.76    1.42
   6  -5  35    9.01    1.25
  -4   5 -33    2.13    0.44
   4  -5  33    1.87    0.51
   4  -5  33    1.49    0.53
   4  -5  33    1.90    0.71
   7  -1  44   -0.04    0.88
  -3   5 -32   10.01    0.79
   3  -5  32    8.66    0.88
   3  -5  32   10.64    1.01
   3  -5  32    9.55    1.11
  -2   5 -31    5.55    0.64
   2  -5  31    4.85    0.87
   2  -5  31    5.66    0.80
   2  -5  31    5.20    0.72
  -1   5 -30    0.79    0.35
   1  -5  30    0.56    0.51
   1  -5  30    0.20    0.37
   1  -5  30    0.27    0.45
   0   5 -29   -0.14    0.34
   0  -5  29   -0.02    0.46
   0  -5  29    0.14    0.46
   1   5 -28    2.91    0.63
   1   5 -28    4.36    0.68
  -1  -5  28    3.08    0.77
  -1  -5  28    4.26    0.90
   2   4 -29    1.09    0.51
  -2  -4  29    1.12    0.60
  -2  -4  29    1.03    0.69
   3   3 -30   17.72    1.39
  -3  -3  30   18.94    1.58
  -3  -3  30   17.39    1.78
   4   2 -31    0.76    0.56
   4   2 -31    0.85    0.72
  -4  -2  31    0.65    0.73
  -4  -2  31    0.35    0.68
   5   1 -32   14.38    1.76
  -5  -1  32   15.97    1.49
  -5  -1  32   14.74    1.77
   6  -6 -45   -1.23    0.98
   6   0 -33   -0.21    0.76
  -6   0  33    0.44    0.66
  -6   0  33   -0.38    0.78
  -6   6  45   -0.12    1.02
   7  -1 -34   19.43    2.23
  -7   1  34   26.82    2.58
   9  -3 -36  141.97    7.75
  -9   6 -36  136.43    5.83
  -9   6 -36  125.36    5.76
   9  -6  36  139.57    6.70
  -9   3  36  147.39    7.80
  -7   6 -34   21.37    1.40
   7  -6  34   22.68    1.92
   7  -6  34   25.73    1.75
  -6   6 -33    0.00    0.32
   6   0  45    0.23    0.92
   6  -6  33    0.80    0.47
   6  -6  33   -0.55    0.61
  -5   6 -32   13.52    0.88
   5  -6  32   13.96    1.34
   5  -6  32   13.13    1.02
   5  -6  32   14.36    1.10
  -4   6 -31    0.95    0.30
   4  -6  31    0.42    0.30
   4  -6  31    0.39    0.37
   4  -6  31    0.58    0.59
  -3   6 -30   17.57    0.93
   3  -6  30   16.28    1.13
   3  -6  30   17.46    1.22
   3  -6  30   16.40    1.46
  -2   6 -29    1.11    0.33
  -2   6 -29    1.22    0.37
   2  -6  29    1.11    0.47
   2  -6  29    0.36    0.52
   2  -6  29    1.37    0.42
  -1   6 -28    3.75    0.55
  -1   6 -28    3.75    0.54
   1  -6  28    3.18    0.65
   1  -6  28    3.85    0.72
   1  -6  28    3.72    0.79
   0   6 -27    0.00    0.35
   0   6 -27    0.20    0.37
   0  -6  27   -0.06    0.48
   0  -6  27    0.29    0.50
   1   6 -26   23.51    1.53
   1   6 -26   23.85    1.47
  -1  -6  26   21.06    1.67
  -1  -6  26   21.31    1.81
   2   5 -27   77.78    3.51
   2   5 -27   78.12    3.62
  -2  -5  27   75.46    3.70
  -2  -5  27   79.70    4.31
   3   4 -28    5.94    0.87
  -3  -4  28    6.20    1.22
  -3  -4  28    6.42    1.02
   4   3 -29    0.42    0.52
  -4  -3  29    0.36    0.75
  -4  -3  29    0.09    0.62
   5   2 -30   -0.23    0.72
  -5  -2  30    5.43    1.34
  -5  -2  30    0.46    0.70
   6   1 -31    1.06    0.89
  -6  -1  31   -0.63    0.78
   7  -7 -46    6.01    1.86
  -7   7  46    6.60    1.83
   9  -2 -34   21.31    2.60
  -9   2  34   25.27    2.84
  10  -3 -35   -0.12    1.09
 -10   3  35    0.94    1.24
  -9   7 -34   22.97    1.56
   9  -7  34   24.97    2.13
   9  -7  34   24.32    1.77
  -7   7 -32    0.78    0.36
   7  -7  32    0.97    0.70
   7  -7  32    1.72    0.48
   7   0  46    6.89    1.65
  -6   7 -31    0.17    0.25
   6  -7  31    0.69    0.62
   6  -7  31    0.30    0.28
   6  -7  31    0.15    0.31
   5  -7  30    0.23    0.23
   5  -7  30    1.71    0.75
   5  -7  30    0.00    0.26
   4  -7  29    0.24    0.52
   4  -7  29    0.31    0.25
   4  -7  29    0.10    0.26
  -3   7 -28    5.42    0.47
  -3   7 -28    6.00    0.50
   3  -7  28    6.02    0.69
   3  -7  28    4.93    0.92
   3  -7  28    5.71    0.62
  -2   7 -27   76.81    3.07
  -2   7 -27   76.75    3.09
   2  -7  27   73.71    3.66
   2  -7  27   76.57    3.62
   2  -7  27   73.57    3.64
  -1   7 -26   21.96    1.26
  -1   7 -26   22.37    1.29
   1  -7  26   19.68    1.51
   1  -7  26   20.85    1.60
   0   7 -25   -0.45    0.36
   0   7 -25   -0.33    0.37
   0  -7  25   -0.01    0.52
   0  -7  25   -0.31    0.45
   1   7 -24   79.06    3.57
   1   7 -24   79.83    3.60
  -1  -7  24   75.84    4.19
  -1  -7  24   76.80    3.74
   2   6 -25    0.92    0.55
   2   6 -25    1.31    0.58
  -2  -6  25    0.78    0.70
  -2  -6  25    0.55    0.59
   3   5 -26    0.96    0.60
   3   5 -26    0.93    0.60
  -3  -5  26    0.35    0.70
  -3  -5  26    0.67    0.60
   4   4 -27   75.23    3.68
  -4  -4  27   80.12    4.55
  -4  -4  27   74.21    3.78
  -5  -3  28    2.72    1.05
  -5  -3  28    3.52    0.91
  -6  -2  29    3.38    1.18
   7   1 -30    2.35    1.15
  -7  -1  30    3.07    1.23
   8   0 -31   -0.38    0.85
  -8   0  31   -0.27    0.94
   9  -1 -32    5.26    1.57
  -9   1  32    7.56    1.88
  10  -2 -33   10.67    2.07
 -10   2  33   11.37    2.12
  11  -3 -34    7.01    1.91
  -2   5  47    2.50    1.27
 -11   3  34    8.01    1.89
  -2   5  47    0.75    1.20
   0   4  47    0.30    1.04
 -11   8 -34    6.20    0.98
 -11   8 -34    5.70    0.99
  11  -8  34    7.04    1.08
 -10   8 -33    7.37    0.96
 -10   8 -33   10.17    1.09
  10  -8  33    9.74    1.14
  -9   8 -32    6.43    0.77
   9  -8  32    6.91    1.32
   9  -8  32    6.28    0.85
  -8   8 -31   -0.02    0.31
   8  -8  31    0.03    0.30
   8  -8  31    0.32    0.73
  -7   8 -30    2.16    0.33
   7  -8  30    3.47    0.94
   7  -8  30    2.86    0.36
   6  -8  29    2.84    0.88
   5  -8  28    1.92    0.72
   4  -8  27   67.27    3.01
   4  -8  27   67.55    3.01
   4  -8  27   70.22    3.40
  -3   8 -26    0.35    0.22
  -3   8 -26    0.63    0.25
   3  -8  26    0.52    0.31
   3  -8  26    0.74    0.34
   3  -8  26    0.60    0.60
  -2   8 -25    0.47    0.33
  -2   8 -25    0.82    0.35
   2  -8  25    0.57    0.42
   2  -8  25    1.25    0.66
   2  -8  25    0.79    0.41
  -1   8 -24   76.55    3.34
  -1   8 -24   77.87    3.34
   1  -8  24   75.25    3.65
   1  -8  24   77.66    3.90
   0   8 -23    0.09    0.42
   0   8 -23   -0.09    0.41
   0  -8  23   -0.19    0.52
   0  -8  23   -0.07    0.50
   1   8 -22   28.78    1.82
   1   8 -22   27.40    1.81
  -1  -8  22   25.93    2.09
  -1  -8  22   25.09    1.84
   2   7 -23    0.50    0.52
   2   7 -23    0.42    0.51
  -2  -7  23    0.57    0.65
  -2  -7  23    0.52    0.62
   3   6 -24    7.20    1.07
   3   6 -24    6.80    1.04
  -3  -6  24    7.04    1.11
  -3  -6  24    8.24    1.40
   4   5 -25    0.66    0.54
   4   5 -25    0.35    0.56
  -4  -5  25    0.36    0.80
  -4  -5  25    0.18    0.62
  -5  -4  26    0.61    0.90
  -5  -4  26    1.15    0.73
  -6  -3  27    1.95    1.09
  -7  -2  28   -0.36    0.95
  -8  -1  29    2.08    1.25
  -9   0  30   23.06    2.79
 -10   1  31    0.97    1.32
 -11   2  32    7.40    1.96
  -5   7  48    9.13    1.89
  -3   6  48   -0.03    1.08
  -3   6  48    1.38    1.28
  -1   5  48   15.48    2.38
   1   4  48   18.01    2.59
   3   3  48    0.44    1.15
 -11   9 -32    5.07    0.86
 -11   9 -32    4.54    0.84
   5   2  48   11.32    2.09
  11  -9  32    6.34    0.90
 -10   9 -31    0.16    0.42
 -10   9 -31    0.13    0.43
  10  -9  31    0.38    0.42
  -9   9 -30   18.52    1.16
   9  -9  30   18.72    1.10
   9  -9  30   17.67    1.78
  -8   9 -29    0.69    0.28
   8  -9  29    0.75    0.81
   7  -9  28    0.50    0.70
   6  -9  27    2.09    0.83
   5  -9  26    1.98    0.74
   4  -9  25    0.51    0.23
   4  -9  25    0.25    0.57
   4  -9  25    0.50    0.22
  -3   9 -24    7.15    0.65
  -3   9 -24    7.98    0.65
   3  -9  24    7.23    1.11
   3  -9  24    7.54    0.79
   3  -9  24    6.63    0.74
  -2   9 -23    0.44    0.41
  -2   9 -23    0.54    0.37
   2  -9  23    0.15    0.51
   2  -9  23    0.72    0.44
  -1   9 -22   27.27    1.62
  -1   9 -22   27.19    1.62
   1  -9  22   24.96    1.84
   1  -9  22   26.65    1.88
   0   9 -21    0.21    0.47
   0   9 -21    0.39    0.52
   0  -9  21    0.04    0.56
   0  -9  21   -0.42    0.47
   1   9 -20    8.76    1.17
   1   9 -20    7.97    1.11
  -1  -9  20    8.98    1.30
  -1  -9  20    7.65    1.30
   2   8 -21   10.02    1.29
   2   8 -21    7.43    1.07
  -2  -8  21    9.92    1.34
  -2  -8  21    9.00    1.46
   3   7 -22    2.32    0.75
   3   7 -22    2.55    0.79
  -3  -7  22    2.49    0.95
  -3  -7  22    2.72    0.85
   4   6 -23    0.20    0.58
  -4  -6  23    0.13    0.60
  -4  -6  23   -0.09    0.73
  -5  -5  24   38.35    3.12
  -5  -5  24   39.19    2.56
  -6  -4  25    0.54    0.90
  -7  -3  26   21.39    2.48
  -8  -2  27   37.24    3.29
  -9  -1  28   -0.01    1.13
 -10   0  29   -0.02    1.22
 -11   1  30    3.08    1.53
  -2   6  49    2.09    1.36
  -2   6  49    1.22    1.20
   0   5  49    0.80    1.23
   2   4  49    1.25    1.28
 -11  10 -30    2.00    0.58
 -11  10 -30    3.47    0.68
  11 -10  30    2.50    0.54
 -10  10 -29   -0.21    0.35
 -10  10 -29   -0.03    0.36
  10 -10  29   -0.26    0.80
  -9  10 -28    0.59    0.30
   9 -10  28   -0.57    0.67
   8 -10  27   30.29    2.27
   7 -10  26   18.79    1.77
   6 -10  25   -0.04    0.62
   5 -10  24   38.42    2.40
  -4  10 -23    0.06    0.27
  -4  10 -23   -0.08    0.24
   4 -10  23    0.15    0.26
   4 -10  23   -0.67    0.46
   4 -10  23    0.12    0.29
  -3  10 -22    2.73    0.50
  -3  10 -22    2.99    0.53
   3 -10  22    2.87    0.59
   3 -10  22    2.93    0.81
  -2  10 -21    7.83    0.92
  -2  10 -21    8.31    0.92
   2 -10  21    8.58    1.04
   2 -10  21    7.80    1.18
  -1  10 -20    8.72    1.04
  -1  10 -20    9.01    1.06
   1 -10  20    8.43    1.18
   1 -10  20    9.38    1.30
   0  10 -19    0.15    0.52
   0  10 -19   -0.08    0.52
   0 -10  19    0.38    0.62
   0 -10  19   -0.26    0.55
   1  10 -18   25.37    1.97
   1  10 -18   29.10    2.07
  -1 -10  18   28.28    2.04
  -1 -10  18   26.51    2.29
   2   9 -19    2.43    0.81
  -2  -9  19    4.12    1.00
  -2  -9  19    3.62    1.06
   3   8 -20    1.90    0.79
  -3  -8  20    1.95    0.78
  -3  -8  20    1.20    0.89
   4   7 -21   13.08    1.56
  -4  -7  21   17.51    1.62
  -4  -7  21   17.07    2.02
   5   6 -22   16.67    1.74
  -5  -6  22   14.02    1.54
  -5  -6  22   15.75    2.07
  -6  -5  23    2.11    1.18
  -7  -4  24   66.85    4.59
  -8  -3  25   -0.18    1.11
  -9  -2  26    0.17    1.14
 -10  -1  27   43.31    3.92
 -11   0  28    1.94    1.45
 -11  11 -28    0.18    0.41
 -11  11 -28    0.45    0.44
 -10  11 -27   33.84    1.69
  10 -11  27   34.29    2.59
  -9  11 -26    0.00    0.22
   9 -11  26   -0.43    0.70
   8 -11  25    0.35    0.76
   7 -11  24   60.97    3.36
   6 -11  23    0.80    0.69
  -5  11 -22   15.65    0.89
  -5  11 -22   14.95    0.91
   5 -11  22   14.50    1.51
  -4  11 -21   13.70    0.98
  -4  11 -21   13.17    1.00
   4 -11  21   14.23    1.07
   4 -11  21   13.34    1.45
  -3  11 -20    1.47    0.52
  -3  11 -20    1.43    0.51
   3 -11  20    1.33    0.56
   3 -11  20    1.48    0.74
  -2  11 -19    4.09    0.77
  -2  11 -19    3.38    0.71
   2 -11  19    2.60    0.83
   2 -11  19    3.23    0.84
  -1  11 -18   25.58    1.83
  -1  11 -18   24.54    1.82
   1 -11  18   29.28    2.01
   1 -11  18   28.04    2.17
   0  11 -17   -0.05    0.57
   0  11 -17    0.28    0.61
   0 -11  17    0.41    0.72
   0 -11  17   -0.45    0.53
   1  11 -16    1.05    0.77
  -1 -11  16    0.94    0.70
  -1 -11  16    0.93    0.85
   2  10 -17    0.68    0.72
  -2 -10  17    1.33    0.76
  -2 -10  17    0.88    0.86
   3   9 -18   30.01    2.32
  -3  -9  18   33.54    2.79
  -3  -9  18   33.45    2.31
   4   8 -19    5.22    1.11
  -4  -8  19    4.72    1.06
  -4  -8  19    5.93    1.45
   5   7 -20    3.97    1.08
  -5  -7  20    6.45    1.29
  -5  -7  20    5.19    1.44
  -6  -6  21    1.07    1.09
  -6  -6  21    0.89    0.86
  -7  -5  22   13.64    2.22
  -8  -4  23    3.31    1.39
  -9  -3  24    5.10    1.73
 -10  -2  25    0.14    1.25
 -10  12 -25    1.13    0.39
  10 -12  25    0.64    0.86
  -9  12 -24    3.60    0.45
   9 -12  24    4.75    1.14
   8 -12  23    2.32    0.91
  -7  12 -22   11.91    0.73
  -7  12 -22   11.74    0.72
   7 -12  22   12.47    1.59
  -6  12 -21    0.57    0.33
  -6  12 -21    0.71    0.32
   6 -12  21    0.13    0.64
  -5  12 -20    4.99    0.65
  -5  12 -20    4.83    0.64
   5 -12  20    5.05    1.03
   5 -12  20    4.70    0.62
  -4  12 -19    6.07    0.81
  -4  12 -19    5.24    0.78
   4 -12  19    5.78    0.84
   4 -12  19    5.56    1.09
  -3  12 -18   29.60    1.88
  -3  12 -18   29.05    1.84
   3 -12  18   28.76    2.03
   3 -12  18   32.29    2.11
  -2  12 -17    1.26    0.64
  -2  12 -17    0.28    0.60
   2 -12  17    0.91    0.67
   2 -12  17    0.80    0.68
  -1  12 -16    0.08    0.58
  -1  12 -16    0.57    0.64
   1 -12  16    0.73    0.67
   1 -12  16    0.54    0.79
   0  12 -15    0.21    0.66
   0 -12  15    0.18    0.63
   0 -12  15   -0.19    0.76
   2  11 -15    9.32    1.50
  -2 -11  15    8.58    1.31
  -2 -11  15    9.13    1.69
   3  10 -16   -0.16    0.69
  -3 -10  16    0.00    0.92
  -3 -10  16   -0.33    0.66
  -4  -9  17    0.27    0.93
  -4  -9  17    0.18    0.71
  -5  -8  18   26.61    2.81
  -5  -8  18   27.92    2.22
  -6  -7  19    0.89    1.16
  -6  -7  19    0.54    0.82
  -7  -6  20    4.63    1.56
  -8  -5  21   14.67    2.45
  -9  -4  22   11.63    2.36
  -9  13 -22    7.80    0.75
   9 -13  22    9.02    1.49
  -8  13 -21   13.15    0.93
   8 -13  21   14.06    1.72
  -7  13 -20    5.42    0.66
   7 -13  20    5.62    1.14
  -6  13 -19    0.29    0.40
  -6  13 -19    0.54    0.43
   6 -13  19    0.20    0.69
   6 -13  19    0.10    0.31
  -5  13 -18   25.25    1.59
  -5  13 -18   25.28    1.62
   5 -13  18   26.34    1.99
   5 -13  18   24.27    1.65
  -4  13 -17   -0.17    0.45
  -4  13 -17    0.04    0.48
   4 -13  17    0.10    0.62
   4 -13  17    0.21    0.52
  -3  13 -16    0.70    0.59
  -3  13 -16    0.63    0.57
   3 -13  16    0.89    0.67
   3 -13  16   -0.04    0.67
  -2  13 -15    9.37    1.29
  -2  13 -15    9.65    1.33
   2 -13  15    9.92    1.50
   2 -13  15    9.72    1.34
  -5  -9  16   -0.42    0.71
  -6  -8  17    0.28    1.11
  -6  -8  17    0.68    0.83
  -7  -7  18    8.73    1.97
  -7  -7  18   10.38    1.67
  -7  14 -18   10.09    1.04
   7 -14  18    9.74    1.43
  -6  14 -17    0.32    0.50
   6 -14  17    0.49    0.44
   6 -14  17    0.16    0.71
  -5  14 -16   -0.37    0.50
   5 -14  16    0.04    0.50
   5 -14  16   -1.25    0.56
   0   0  42    9.29    1.53
   0   0  42    7.05    1.03
   0   0  42    8.73    1.54
   1   0 -41    0.32    0.52
  -2   1 -42    0.13    0.49
   2  -1  42    0.13    0.60
  -1   1  43   -0.53    0.47
   2  -1  42    0.28    0.71
  -1   0  41    0.40    0.54
  -1   0  41    0.77    0.74
  -1   1  43   -0.57    0.78
  -1   1  43   -0.62    0.68
  -1   1 -41   -0.30    0.44
   1  -1  41   -0.27    0.49
  -2   1  42    0.65    0.54
   1   0  43   -0.36    0.71
   1  -1  41    0.31    0.70
  -2   1  42    0.42    0.81
   1   0  43   -0.69    0.48
  -3   1 -43   -0.10    0.50
   0   1 -40   -0.01    0.43
   0  -1  40    0.18    0.64
   0  -1  40    0.70    0.70
   3  -1  43    0.83    0.63
   3  -1  43    0.75    0.75
   0  -1  40    0.21    0.51
  -3   2  43    0.21    0.79
  -3   2  43   -0.09    0.46
  -5   2 -43    1.06    0.67
  -1  -1  39    7.90    1.29
   5  -2  43    0.82    0.81
  -4   3  44    0.28    0.92
   5  -2  43    0.41    0.70
  -4   2 -42    1.48    0.66
  -2   0  40   -0.29    0.70
   4  -2  42    1.01    0.69
   4  -2  42    0.38    0.71
  -2   2  44    2.76    0.69
  -2   2  44    2.91    1.10
  -2   0  40    0.64    0.58
  -3   2 -41    1.58    0.60
   0   1  44    0.11    0.51
   3  -2  41    1.49    0.80
  -3   1  41    1.48    0.86
   0   1  44    0.41    0.84
  -3   1  41    1.77    0.64
   3  -2  41    3.11    0.83
  -2   2 -40    0.09    0.44
  -4   2  42    0.50    0.57
   2  -2  40    0.01    0.51
  -4   2  42    0.98    0.88
   2   0  44    2.68    1.05
   2   0  44    3.25    0.79
   2  -2  40    0.25    0.63
  -1   2 -39    5.34    0.83
   1  -2  39    7.48    1.05
   1  -2  39    8.38    1.30
   1  -2  39    8.47    1.33
  -6   4  44    1.56    1.22
  -6   4  44    1.67    0.68
   6  -2  44    0.96    0.77
   6  -2  44    2.00    0.99
  -6   3 -42    4.79    0.92
   6  -3  42    5.71    1.16
  -3   3  45    0.24    0.93
  -3   0  39    3.05    1.10
   6  -3  42    3.10    0.98
  -3   3 -39    0.25    0.44
   6  -3 -42    2.35    1.15
   3   0  45   -0.36    0.77
  -6   3  42    4.92    1.38
   3  -3  39    0.98    0.68
   3   0  45   -0.36    0.56
  -6   3  42    5.26    0.99
   3  -3  39   -0.33    0.54
  -2   3 -38   11.13    1.08
   2  -3  38   10.21    1.28
   2  -3  38   12.18    1.41
  -1   3 -37    4.71    0.74
  -8   5  44    5.48    1.73
  -8   5  44    5.71    1.09
   1  -3  37    5.12    0.97
   1  -3  37    4.60    0.92
   0   3 -36  307.74   11.66
   0  -3  36  302.49   11.51
   0  -3  36  300.92   13.65
   1   3 -35   -0.01    0.42
  -1  -3  35    0.14    0.60
  -1  -3  35    0.82    0.61
   2   2 -36    2.14    0.63
  -2  -2  36    1.64    0.73
  -2  -2  36    1.10    0.72
  -4   4  46   11.17    1.16
  -4   4  46    9.42    1.79
  -5   4 -39    7.47    0.95
   5  -4  39    5.67    1.11
   5  -4  39    7.73    1.18
   4   0  46   11.55    1.88
   4   0  46   12.64    1.40
  -1   4 -35    0.12    0.35
   1  -4  35   -0.42    0.46
   1  -4  35    0.35    0.50
   0   4 -34   16.16    1.18
   0  -4  34   14.87    1.48
   0  -4  34   16.24    1.40
   1   4 -33    0.90    0.47
  -1  -4  33    0.49    0.55
  -1  -4  33    1.21    0.69
   2   3 -34   53.70    2.70
  -2  -3  34   56.08    2.91
  -2  -3  34   52.51    3.32
   3   2 -35    0.52    0.55
  -3  -2  35    0.50    0.77
  -3  -2  35    1.19    0.71
  -7   6  47   -0.68    1.03
  -4  -1  36    0.52    0.85
  -4  -1  36    0.71    0.63
  -5   0  37   -1.05    0.74
  -5   5  47   -0.05    1.00
  -5   0  37    0.07    0.65
  -9   5 -41    3.05    0.93
  -9   5 -41    2.72    0.84
  -6   1  38    2.52    0.85
   9  -5  41    2.43    0.95
  -6   1  38    0.41    0.94
  -3   4  47    0.41    0.51
  -3   4  47   -0.08    0.88
  -7   2  39   11.97    2.04
  -6   5 -38    1.92    0.59
  -9   4  41    1.62    0.90
   3   1  47   -0.18    0.62
   3   1  47   -0.10    0.91
  -9   4  41    2.40    1.41
   6  -5  38    2.52    0.86
   6  -5  38    1.45    0.67
  -5   5 -37    0.24    0.40
   5  -5  37   -0.17    0.46
   5   0  47    0.45    0.75
   5  -5  37    0.34    0.64
   5   0  47   -0.38    0.87
  -4   5 -36   -0.22    0.33
   4  -5  36   -0.03    0.57
   7  -1  47   -0.38    0.89
   4  -5  36    0.29    0.47
  -3   5 -35    0.96    0.39
   3  -5  35    0.91    0.51
   3  -5  35    0.43    0.64
  -2   5 -34   52.97    2.44
   2  -5  34   55.66    2.91
   2  -5  34   53.94    2.97
  -1   5 -33    0.63    0.39
   1  -5  33    0.81    0.54
   1  -5  33    0.36    0.59
   0   5 -32   13.86    1.11
   0  -5  32   13.00    1.30
   0  -5  32   14.51    1.41
   1   5 -31    8.20    0.98
  -1  -5  31    9.68    1.34
  -1  -5  31    8.74    1.23
   2   4 -32    7.06    0.94
  -2  -4  32    6.11    1.18
  -2  -4  32    7.09    1.13
   3   3 -33   -0.05    0.48
  -3  -3  33   -0.09    0.69
  -3  -3  33    0.19    0.64
   4   2 -34   40.14    2.50
  -4  -2  34   44.88    3.08
  -4  -2  34   42.06    2.56
  -5  -1  35    8.23    1.50
  -5  -1  35    8.93    1.34
  -6   0  36  235.43   11.34
  -6   0  36  229.83    9.38
 -10   6 -40    2.29    0.79
  -8   2  38    4.31    1.09
  -8   2  38    4.55    1.55
  10  -6  40    2.63    0.97
  -9   6 -39    0.93    0.60
   9  -6  39    0.43    0.68
  -9   3  39    0.75    0.80
   9  -6  39    0.11    0.76
  -9   3  39    0.74    1.29
   0   3  48    0.65    0.58
   0   3  48    0.79    0.96
  -8   6 -38    4.26    0.78
   8  -6  38    4.25    1.06
   8  -6  38    4.81    0.98
 -10   4  40    1.23    1.35
  -6   6 -36  229.38    8.68
   6  -6  36  224.17    9.09
   6  -6  36  220.44   10.03
  -5   6 -35    9.28    0.83
   5  -6  35    8.13    1.25
   5  -6  35    9.31    0.98
  -4   6 -34   42.40    1.95
   4  -6  34   41.10    2.53
   4  -6  34   42.26    2.30
  -3   6 -33    0.34    0.29
   3  -6  33    0.49    0.43
   3  -6  33   -0.08    0.50
  -2   6 -32    5.91    0.65
   2  -6  32    5.11    0.95
   2  -6  32    5.32    0.82
  -1   6 -31    8.21    0.81
   1  -6  31    6.48    1.04
   1  -6  31    9.06    1.08
   0   6 -30   39.79    2.07
   0   6 -30   37.31    1.98
   0  -6  30   37.71    2.42
   0  -6  30   38.03    2.34
   1   6 -29    0.14    0.45
   1   6 -29    0.31    0.42
  -1  -6  29    0.53    0.65
  -1  -6  29    0.43    0.57
   2   5 -30    0.34    0.47
  -2  -5  30    0.12    0.65
  -2  -5  30    0.21    0.54
   3   4 -31    0.32    0.52
  -3  -4  31    0.17    0.61
  -3  -4  31    0.55    0.70
   4   3 -32    0.43    0.52
  -4  -3  32    0.01    0.77
  -4  -3  32   -0.26    0.56
  -5  -2  33    4.22    1.28
  -5  -2  33    3.64    1.06
  -6  -1  34   28.53    2.66
  -6  -1  34   23.53    1.97
  -7   0  35   -0.40    0.67
  -7   0  35   -0.68    0.89
  -5   6  49    3.57    1.44
  -8   1  36   -0.08    0.99
  -9   2  37    0.46    1.09
  -3   5  49    3.17    1.43
 -10   3  38   15.84    2.66
 -10   7 -38   11.37    1.31
 -10   7 -38    9.54    1.21
  10  -7  38   10.78    1.41
  -9   7 -37    0.88    0.56
   9  -7  37    0.89    0.64
   9  -7  37    0.84    0.90
   3   2  49    2.51    0.85
   3   2  49    3.57    1.37
  -8   7 -36    0.20    0.41
   8  -7  36   -1.18    0.64
   8  -7  36    0.05    0.45
   5   1  49    4.77    1.59
  -7   7 -35   -0.12    0.34
   7  -7  35    0.09    0.41
   7  -7  35    0.08    0.69
  -6   7 -34   22.53    1.25
   6  -7  34   24.02    1.45
   6  -7  34   21.99    1.83
  -5   7 -33    3.64    0.45
   5  -7  33    3.50    0.54
   5  -7  33    3.61    0.52
   5  -7  33    3.26    0.87
  -4   7 -32    0.41    0.27
   4  -7  32    0.48    0.30
   4  -7  32    0.54    0.59
   4  -7  32    0.82    0.38
  -3   7 -31    0.28    0.26
  -3   7 -31    0.06    0.28
   3  -7  31    0.16    0.29
   3  -7  31    0.44    0.61
   3  -7  31    0.25    0.37
  -2   7 -30    0.38    0.33
  -2   7 -30    1.73    0.41
   2  -7  30    0.61    0.59
   2  -7  30    0.24    0.41
  -1   7 -29   -0.17    0.34
  -1   7 -29    0.10    0.34
   1  -7  29    0.15    0.45
   1  -7  29    0.14    0.51
   0   7 -28    6.85    0.87
   0   7 -28    7.15    0.86
   0  -7  28    7.02    1.07
   0  -7  28    7.57    1.16
   1   7 -27   72.29    3.35
   1   7 -27   65.66    3.29
  -1  -7  27   69.97    3.54
  -1  -7  27   69.52    3.92
   2   6 -28    0.96    0.60
   2   6 -28    1.21    0.58
  -2  -6  28    0.96    0.68
  -2  -6  28    0.76    0.73
   3   5 -29    0.97    0.61
  -3  -5  29    1.63    0.87
  -3  -5  29    0.83    0.61
   4   4 -30   10.29    1.28
  -4  -4  30    8.04    1.24
  -4  -4  30   10.18    1.66
  -5  -3  31    2.02    0.86
  -5  -3  31    3.06    1.14
  -6  -2  32    8.97    1.42
  -6  -2  32   11.25    1.91
  -7  -1  33    8.33    1.81
  -8   0  34   13.28    2.22
  -9   1  35    9.30    1.99
  -4   6  50    5.28    1.60
 -10   2  36    0.05    1.06
  -2   5  50    2.97    1.44
  -2   5  50    4.28    1.57
   0   4  50   20.73    2.60
   2   3  50    5.15    1.57
 -10   8 -36    0.46    0.54
 -10   8 -36    0.53    0.53
   4   2  50    7.91    1.85
  10  -8  36    0.55    0.57
  -9   8 -35    8.28    0.97
   9  -8  35    9.15    1.02
   9  -8  35    8.54    1.52
  -8   8 -34   13.64    1.00
   8  -8  34   15.14    1.72
   8  -8  34   12.36    1.03
  -7   8 -33    6.30    0.62
   7  -8  33    5.93    1.18
  -6   8 -32    9.73    0.59
   6  -8  32    9.72    1.42
   5  -8  31    2.49    0.82
  -4   8 -30    8.55    0.53
  -4   8 -30    8.21    0.51
   4  -8  30    6.10    1.06
   4  -8  30    7.37    0.59
   4  -8  30    7.11    0.61
  -3   8 -29    0.66    0.29
  -3   8 -29    0.60    0.29
   3  -8  29    0.54    0.32
   3  -8  29    0.87    0.67
   3  -8  29    0.53    0.36
  -2   8 -28    0.81    0.37
  -2   8 -28    0.85    0.38
   2  -8  28    0.99    0.47
   2  -8  28    0.73    0.64
  -1   8 -27   65.59    2.94
  -1   8 -27   66.26    2.98
   1  -8  27   63.65    3.42
   1  -8  27   66.83    3.38
   0   8 -26    2.28    0.63
   0   8 -26    2.27    0.64
   0  -8  26    1.96    0.70
   0  -8  26    1.85    0.76
   1   8 -25    1.71    0.63
   1   8 -25    1.73    0.65
  -1  -8  25    2.40    0.85
  -1  -8  25    2.73    0.80
   2   7 -26    2.04    0.67
   2   7 -26    1.70    0.66
  -2  -7  26    2.30    0.90
  -2  -7  26    2.43    0.84
   3   6 -27    1.83    0.70
   3   6 -27    2.02    0.68
  -3  -6  27    2.30    0.81
  -3  -6  27    1.09    0.85
  -4  -5  28    0.86    0.89
  -4  -5  28    0.97    0.78
  -5  -4  29    0.69    0.72
  -5  -4  29    0.48    0.91
  -6  -3  30   31.89    2.88
  -6  -3  30   28.59    2.26
  -7  -2  31    0.47    1.00
  -8  -1  32    6.49    1.77
  -9   0  33    0.70    1.20
 -10   1  34   28.60    3.23
  -1   5  51    0.89    1.23
   1   4  51   -0.01    1.14
 -10   9 -34   24.83    1.57
 -10   9 -34   23.54    1.54
  10  -9  34   24.66    1.56
  10  -9  34   26.75    2.31
  -9   9 -33    0.40    0.37
   9  -9  33    0.07    0.79
  -8   9 -32    5.93    0.60
   8  -9  32    5.28    1.23
   7  -9  31    0.54    0.70
   6  -9  30   27.28    2.04
   5  -9  29    0.57    0.67
  -4   9 -28    1.33    0.25
  -4   9 -28    1.57    0.27
   4  -9  28    1.07    0.68
  -3   9 -27    1.40    0.36
  -3   9 -27    1.58    0.40
   3  -9  27    1.37    0.43
   3  -9  27    1.80    0.74
  -2   9 -26    2.79    0.55
  -2   9 -26    1.42    0.46
   2  -9  26    2.44    0.79
   2  -9  26    1.95    0.56
  -1   9 -25    1.74    0.54
  -1   9 -25    1.74    0.57
   1  -9  25    1.95    0.66
   1  -9  25    1.87    0.73
   0   9 -24    2.63    0.70
   0   9 -24    3.23    0.74
   0  -9  24    3.03    0.91
   0  -9  24    2.73    0.83
   1   9 -23    0.46    0.56
   1   9 -23    0.01    0.54
  -1  -9  23    0.11    0.58
  -1  -9  23    0.48    0.70
   2   8 -24   42.02    2.53
   2   8 -24   41.84    2.55
  -2  -8  24   44.17    2.63
  -2  -8  24   43.95    3.00
   3   7 -25    0.21    0.56
   3   7 -25    0.00    0.55
  -3  -7  25   -0.13    0.59
  -3  -7  25   -0.29    0.73
   4   6 -26   18.53    1.74
  -4  -6  26   18.68    2.15
  -4  -6  26   18.57    1.77
  -5  -5  27   40.27    3.18
  -5  -5  27   35.55    2.52
  -6  -4  28    1.07    0.78
  -6  -4  28    1.49    1.07
  -7  -3  29    0.09    0.97
  -8  -2  30    1.71    1.32
  -9  -1  31    1.14    1.22
 -10   0  32   -0.79    1.11
 -10  10 -32    0.12    0.40
 -10  10 -32   -0.08    0.39
  10 -10  32    0.53    0.81
  -9  10 -31    0.50    0.34
   9 -10  31    0.46    0.89
   8 -10  30    1.11    0.91
   7 -10  29   -0.36    0.68
   6 -10  28    0.85    0.76
   5 -10  27   36.57    2.43
  -4  10 -26   19.61    1.03
  -4  10 -26   18.76    1.03
   4 -10  26   19.80    1.71
   4 -10  26   18.14    1.04
   4 -10  26   18.04    1.04
  -3  10 -25    0.04    0.34
  -3  10 -25    0.16    0.36
   3 -10  25   -0.07    0.62
   3 -10  25    0.01    0.35
  -2  10 -24   44.50    2.26
  -2  10 -24   44.62    2.27
   2 -10  24   47.03    2.72
   2 -10  24   43.28    2.54
  -1  10 -23    0.03    0.48
  -1  10 -23    0.32    0.48
   1 -10  23    0.61    0.58
   1 -10  23    0.14    0.60
   0  10 -22    0.79    0.63
   0  10 -22    1.51    0.67
   0 -10  22    1.24    0.73
   0 -10  22    0.62    0.66
   1  10 -21   10.88    1.39
   1  10 -21   14.27    1.55
  -1 -10  21   14.88    1.58
  -1 -10  21   14.00    1.73
   2   9 -22   16.90    1.69
  -2  -9  22   17.52    1.95
  -2  -9  22   16.89    1.68
   3   8 -23    0.36    0.63
  -3  -8  23    1.23    0.76
  -3  -8  23    1.10    0.93
   4   7 -24   54.75    3.29
  -4  -7  24   60.55    3.99
  -4  -7  24   62.71    3.39
  -5  -6  25    0.71    1.01
  -5  -6  25    0.79    0.78
  -6  -5  26    1.82    0.95
  -6  -5  26    2.10    1.20
  -7  -4  27   57.02    4.26
  -8  -3  28    0.67    1.23
  -9  -2  29   -0.82    1.13
 -10  -1  30    2.69    1.49
 -10  11 -30    2.46    0.48
 -10  11 -30    3.12    0.53
  10 -11  30    1.75    1.04
   9 -11  29   -0.05    0.73
   8 -11  28    0.04    0.82
   7 -11  27   50.57    3.07
   6 -11  26    1.27    0.81
  -5  11 -25    0.89    0.32
  -5  11 -25    0.67    0.30
   5 -11  25    1.11    0.77
  -4  11 -24   59.06    2.56
  -4  11 -24   55.79    2.55
   4 -11  24   54.66    3.14
   4 -11  24   58.31    2.78
  -3  11 -23    1.17    0.49
  -3  11 -23    1.00    0.47
   3 -11  23    0.56    0.49
   3 -11  23    0.51    0.69
  -2  11 -22   16.37    1.38
  -2  11 -22   16.55    1.41
   2 -11  22   18.35    1.58
   2 -11  22   16.12    1.60
  -1  11 -21   13.53    1.41
  -1  11 -21   13.19    1.35
   1 -11  21   12.25    1.52
   1 -11  21   12.60    1.52
   0  11 -20   -0.07    0.57
   0  11 -20    0.44    0.65
   0 -11  20   -0.23    0.62
   0 -11  20   -0.04    0.67
   1  11 -19    1.62    0.82
  -1 -11  19    0.95    0.86
  -1 -11  19    0.62    0.70
   2  10 -20    7.42    1.30
  -2 -10  20    5.84    1.36
  -2 -10  20    7.07    1.26
   3   9 -21    0.62    0.71
  -3  -9  21    1.45    0.79
  -3  -9  21    0.16    0.79
   4   8 -22   10.46    1.49
  -4  -8  22   11.12    1.50
  -4  -8  22   10.85    1.77
  -5  -7  23   -0.40    0.68
  -5  -7  23   -0.82    0.89
  -6  -6  24    4.97    1.58
  -6  -6  24    5.93    1.29
  -7  -5  25   -0.26    1.03
  -7  -5  25   -0.94    0.71
  -8  -4  26    1.62    1.35
  -9  -3  27    0.42    1.24
 -10  12 -28    0.19    0.30
   9 -12  27    1.10    0.86
   8 -12  26    0.53    0.84
   7 -12  25   -1.12    0.67
  -6  12 -24    4.26    0.51
  -6  12 -24    4.00    0.49
   6 -12  24    5.81    1.14
  -5  12 -23    0.00    0.34
  -5  12 -23    0.01    0.35
   5 -12  23   -0.46    0.61
  -4  12 -22   11.20    1.05
  -4  12 -22   11.85    1.07
   4 -12  22   13.04    1.61
   4 -12  22   11.45    1.05
  -3  12 -21    1.17    0.57
  -3  12 -21    0.53    0.51
   3 -12  21    1.49    0.76
   3 -12  21    0.81    0.57
  -2  12 -20    6.80    1.04
  -2  12 -20    6.09    0.99
   2 -12  20    6.99    1.22
   2 -12  20    6.61    1.14
  -1  12 -19    1.36    0.74
  -1  12 -19    0.68    0.69
   1 -12  19    0.89    0.78
   1 -12  19    2.16    0.83
   0  12 -18   28.74    2.27
   0 -12  18   30.17    2.22
   0 -12  18   31.54    2.65
   2  11 -18   19.60    2.00
  -2 -11  18   21.01    2.29
  -2 -11  18   19.20    1.82
   3  10 -19    0.83    0.78
  -3 -10  19    0.67    0.96
  -3 -10  19    0.96    0.79
  -4  -9  20    7.68    1.66
  -4  -9  20    7.68    1.35
  -5  -8  21   17.56    1.86
  -5  -8  21   18.96    2.41
  -6  -7  22    5.23    1.64
  -6  -7  22    5.80    1.29
  -7  -6  23    1.07    1.20
  -7  -6  23   -0.80    0.76
  -8  -5  24   31.15    3.33
  -8  13 -24   24.26    1.26
   8 -13  24   28.65    2.25
  -7  13 -23    0.03    0.32
   7 -13  23    0.32    0.78
  -6  13 -22    4.61    0.65
  -6  13 -22    5.39    0.70
   6 -13  22    5.77    1.21
  -5  13 -21   17.20    1.26
  -5  13 -21   16.67    1.29
   5 -13  21   16.75    1.17
   5 -13  21   16.41    1.72
  -4  13 -20    7.07    0.97
  -4  13 -20    6.44    0.91
   4 -13  20    6.53    0.96
   4 -13  20    8.70    1.35
  -3  13 -19    0.06    0.51
  -3  13 -19    0.44    0.57
   3 -13  19    0.71    0.74
   3 -13  19    0.77    0.63
  -2  13 -18   20.19    1.75
  -2  13 -18   21.52    1.82
   2 -13  18   19.61    1.80
   2 -13  18   20.37    1.96
   0   0  45    0.00    0.86
   0   0  45   -0.45    0.72
   0   0  45   -0.58    0.48
  -1   1  46   26.55    2.54
  -1   1  46   24.91    1.80
  -1   1  46   26.46    2.49
   1   0  46   28.99    2.55
   1   0  46   26.01    1.89
  -3   2 -44    3.01    0.80
   0   1  47    0.23    0.54
   0   1  47    0.53    0.93
  -3   1  44    2.12    1.02
   3  -2  44    2.35    0.92
   3  -2  44    2.44    0.83
  -3   1  44    2.46    0.76
   0   2 -41    0.00    0.47
  -6   4  47   -0.46    1.01
   0  -2  41   -0.11    0.56
   6  -2  47    0.24    0.78
   6  -2  47   -0.57    0.79
  -6   4  47   -0.58    0.51
   0  -2  41    0.28    0.66
  -7   5  48   12.50    2.32
  -7   5  48    9.46    1.25
  -5   4  48   12.45    1.26
   7  -3  46    8.32    1.48
   7  -3  46   11.11    1.74
  -5   4  48   14.78    2.39
  -3   0  42    0.27    0.56
  -3   3  48    0.88    1.09
  -3   0  42    0.75    0.88
   6  -3  45   -0.31    0.67
  -3   3  48    0.44    0.58
   6  -3  45   -0.26    0.72
  -5   3 -44    6.69    1.02
  -1   2  48    9.17    1.68
  -1   2  48   12.34    1.96
   5  -3  44    7.43    1.30
   5  -3  44    7.18    1.33
  -5   2  44    6.50    1.13
  -5   2  44    6.71    1.59
  -3   3 -42    1.12    0.55
   3   0  48    0.62    0.68
   3  -3  42    1.23    0.66
   3  -3  42    0.14    0.63
   3   0  48   -0.16    0.89
  -6   3  45    0.60    0.65
  -6   3  45    0.18    1.05
  -7   4  46    8.11    1.22
  -7   4  46   13.30    2.33
   5  -1  48   13.91    1.66
   5  -1  48   14.04    2.05
   0   3 -39   -0.18    0.43
   0  -3  39   -0.59    0.54
   0  -3  39   -0.07    0.57
   1   3 -38   20.28    1.51
  -1  -3  38   20.83    1.94
  -1  -3  38   22.48    1.71
   2   2 -39    1.30    0.61
  -2  -2  39    0.83    0.63
  -2  -2  39    1.03    0.76
  -6   5  49    5.16    1.67
  -3  -1  40    0.97    0.85
  -3  -1  40    1.33    0.74
  -7   4 -44    0.43    0.61
  -2   3  49    0.55    0.57
  -5   1  42    0.88    0.70
   7  -4  44    0.27    0.78
  -5   1  42    1.00    1.04
   7  -4  44    0.32    0.75
  -2   3  49   -0.41    0.93
  -6   4 -43    0.59    0.57
  -6   2  43    0.39    0.68
   6  -4  43    0.42    0.71
   0   2  49    0.29    0.58
   0   2  49    0.28    1.03
   6  -4  43    0.32    0.69
  -6   2  43   -0.24    0.93
  -5   4 -42    1.47    0.63
  -7   3  44    0.82    1.15
  -7   3  44    0.63    0.74
   5  -4  42    1.04    0.74
   2   1  49    0.06    0.93
   5  -4  42    1.28    0.81
   2   1  49   -0.82    0.55
  -3   4 -40    1.38    0.51
   3  -4  40    0.95    0.72
   3  -4  40    1.49    0.72
   6  -1  49    3.83    1.33
  -2   4 -39    0.94    0.47
   2  -4  39    0.81    0.69
   2  -4  39    2.21    0.77
  -1   4 -38   21.68    1.46
   1  -4  38   22.33    1.84
   1  -4  38   24.70    1.82
   0   4 -37    0.19    0.41
   0  -4  37    0.62    0.59
   0  -4  37   -0.11    0.52
   1   4 -36   -0.05    0.44
  -1  -4  36   -0.38    0.60
  -1  -4  36   -0.70    0.53
   2   3 -37    2.19    0.67
  -2  -3  37    3.09    1.00
  -2  -3  37    3.24    0.89
   3   2 -38    7.85    1.10
  -3  -2  38    6.95    1.44
  -3  -2  38    4.86    1.06
  -4  -1  39    8.89    1.59
  -4  -1  39    9.19    1.33
  -5   0  40    0.32    0.70
  -5   0  40    0.62    0.94
  -5   5  50    1.16    1.19
  -9   5 -44    4.44    0.99
  -6   1  41    6.13    1.19
  -6   1  41    4.52    1.49
  -7   2  42    0.56    0.80
  -1   3  50    8.21    1.77
  -1   3  50    7.30    1.04
  -7   2  42    0.71    1.17
   8  -5  43    0.57    0.87
   7  -5  42    0.87    0.83
   7  -5  42    0.88    0.73
  -8   3  43    0.13    1.05
   1   2  50    7.69    1.65
  -8   3  43    0.23    0.76
  -6   5 -41    4.69    0.83
  -9   4  44    5.42    1.68
  -9   4  44    5.73    1.23
   6  -5  41    5.41    1.02
   6  -5  41    3.97    1.02
  -5   5 -40    0.26    0.45
   5  -5  40   -0.06    0.53
   5  -5  40   -0.14    0.66
   5   0  50    1.81    1.18
  -4   5 -39    8.27    0.91
   4  -5  39    8.00    1.14
   4  -5  39    5.98    1.14
  -3   5 -38    5.16    0.71
   3  -5  38    5.16    0.88
   3  -5  38    4.44    0.98
  -2   5 -37    2.24    0.53
   2  -5  37    2.35    0.79
   2  -5  37    2.55    0.73
  -1   5 -36   -0.28    0.34
   1  -5  36    0.74    0.60
   1  -5  36   -0.05    0.56
   0   5 -35    0.04    0.41
   0  -5  35   -0.18    0.55
   0  -5  35    0.03    0.54
   1   5 -34   58.18    2.79
  -1  -5  34   55.17    3.37
  -1  -5  34   55.03    3.02
   2   4 -35    3.81    0.77
  -2  -4  35    4.46    1.07
  -2  -4  35    6.56    1.13
   3   3 -36  212.27    8.77
  -3  -3  36  218.25   10.39
  -3  -3  36  223.03    8.81
  -4  -2  37    3.30    1.13
  -4  -2  37    2.90    0.93
  -5  -1  38    1.98    1.10
  -5  -1  38    2.71    0.89
  -6   0  39    0.27    0.77
  -6   0  39    1.31    1.09
  -4   5  51    1.60    1.24
  -7   1  40    0.78    0.83
  -7   1  40    0.92    1.10
  -8   2  41    1.71    1.28
  -2   4  51    4.17    1.47
  -2   4  51    3.21    1.41
  -8   2  41    1.34    0.95
  -9   6 -42    5.00    0.98
  -9   3  42    4.96    1.20
   9  -6  42    6.49    1.20
  -9   3  42    7.15    1.94
   9  -6  42    6.22    1.37
  -8   6 -41    1.63    0.66
   2   2  51    2.41    1.33
   8  -6  41    2.01    0.94
   2   2  51    2.44    0.83
   8  -6  41    2.34    0.84
  -7   6 -40    0.52    0.52
   7  -6  40    1.87    0.93
   7  -6  40    0.70    0.61
   4   1  51    2.10    1.26
  -6   6 -39   -0.10    0.38
   6  -6  39   -0.69    0.58
   6  -6  39   -0.34    0.45
  -5   6 -38    1.28    0.47
   5  -6  38    2.40    0.67
   5  -6  38    1.65    0.75
  -4   6 -37    2.94    0.53
   4  -6  37    3.14    0.68
   4  -6  37    2.41    0.86
  -3   6 -36  211.03    8.21
   3  -6  36  216.07    8.62
   3  -6  36  213.54    9.56
  -2   6 -35    3.53    0.58
   2  -6  35    3.91    0.79
   2  -6  35    3.72    0.88
  -1   6 -34   54.84    2.58
   1  -6  34   52.82    2.97
   1  -6  34   58.36    3.15
   0   6 -33    0.45    0.46
   0  -6  33    0.54    0.59
   0  -6  33    0.42    0.57
   1   6 -32    6.10    0.88
  -1  -6  32    6.66    1.18
  -1  -6  32    6.52    1.11
   2   5 -33    4.75    0.83
  -2  -5  33    4.52    0.99
  -2  -5  33    3.03    0.97
   3   4 -34    9.51    1.16
  -3  -4  34    9.89    1.35
  -3  -4  34    8.92    1.51
  -4  -3  35    0.73    0.67
  -4  -3  35    1.61    1.00
  -5  -2  36    0.41    0.68
  -5  -2  36   -0.17    0.88
  -6  -1  37    0.53    0.99
  -6  -1  37   -0.63    0.65
  -7   0  38   22.12    2.63
  -7   0  38   20.31    1.93
  -8   1  39   11.33    2.20
  -8   1  39   10.28    1.56
  -9   2  40    1.22    1.35
  -3   5  52    0.30    1.07
  -9   2  40   -0.32    0.74
  -1   4  52    2.71    1.45
  -1   4  52    2.08    1.26
   1   3  52    0.61    1.16
  -9   7 -40   -0.15    0.47
   3   2  52    0.36    1.11
   9  -7  40   -0.56    0.80
   9  -7  40    0.21    0.59
  -8   7 -39   11.82    1.14
   8  -7  39   11.28    1.28
   8  -7  39   10.52    1.65
  -7   7 -38   20.16    1.34
   7  -7  38   20.54    1.49
   7  -7  38   18.63    1.90
  -6   7 -37   -0.09    0.34
   6  -7  37   -0.15    0.63
   6  -7  37   -0.07    0.41
  -5   7 -36    0.21    0.33
   5  -7  36    0.59    0.42
   5  -7  36    0.77    0.72
  -4   7 -35    1.63    0.39
   4  -7  35    1.78    0.49
   4  -7  35    1.57    0.73
  -3   7 -34    9.39    0.79
   3  -7  34   10.63    1.40
   3  -7  34    8.88    0.95
  -2   7 -33    4.03    0.58
   2  -7  33    3.19    0.88
   2  -7  33    4.12    0.74
  -1   7 -32    6.02    0.75
  -1   7 -32    6.04    0.81
   1  -7  32    5.48    1.03
   1  -7  32    5.56    0.95
   0   7 -31    0.45    0.46
   0   7 -31   -0.02    0.44
   0  -7  31   -0.49    0.56
   0  -7  31   -0.36    0.52
   1   7 -30    0.97    0.56
   1   7 -30    1.79    0.65
  -1  -7  30    1.30    0.73
  -1  -7  30    1.70    0.74
   2   6 -31    2.32    0.71
  -2  -6  31    2.80    0.96
  -2  -6  31    3.29    0.94
   3   5 -32    6.77    1.02
  -3  -5  32    8.73    1.31
  -3  -5  32    6.32    1.31
  -4  -4  33    5.61    1.30
  -4  -4  33    4.41    1.02
  -5  -3  34   24.91    2.49
  -5  -3  34   21.67    2.01
  -6  -2  35    6.70    1.56
  -6  -2  35    5.12    1.23
  -7  -1  36    0.42    0.85
  -7  -1  36   -0.15    1.09
  -8   0  37    0.59    1.21
  -8   0  37    0.04    0.79
  -9   1  38    3.74    1.63
 -10   8 -39    7.65    1.04
 -10   8 -39    7.55    1.05
  -9   8 -38    3.33    0.69
   9  -8  38    3.67    0.74
   9  -8  38    3.15    1.11
  -8   8 -37    0.05    0.38
   8  -8  37    0.07    0.37
   8  -8  37   -0.79    0.72
  -7   8 -36    0.19    0.34
   7  -8  36    0.07    0.30
   7  -8  36    0.15    0.79
  -6   8 -35    5.67    0.60
   6  -8  35    6.39    1.27
   6  -8  35    5.41    0.53
  -5   8 -34   22.95    1.10
   5  -8  34   20.27    1.13
   5  -8  34   19.71    1.11
   5  -8  34   25.03    1.97
  -4   8 -33    5.07    0.55
   4  -8  33    4.80    0.99
   4  -8  33    5.14    0.62
   4  -8  33    4.11    0.53
  -3   8 -32    6.83    0.66
  -3   8 -32    7.14    0.72
   3  -8  32    6.54    0.79
   3  -8  32    7.25    1.18
  -2   8 -31    3.20    0.56
  -2   8 -31    2.56    0.51
   2  -8  31    3.09    0.85
   2  -8  31    3.02    0.67
  -1   8 -30    1.62    0.55
  -1   8 -30    1.86    0.53
   1  -8  30    1.32    0.63
   1  -8  30    1.48    0.72
   0   8 -29   -0.46    0.43
   0   8 -29    0.62    0.51
   0  -8  29    0.03    0.59
   0  -8  29   -0.24    0.53
   1   8 -28    2.23    0.72
   1   8 -28    2.99    0.73
  -1  -8  28    2.51    0.88
  -1  -8  28    2.49    0.86
   2   7 -29   -0.01    0.50
   2   7 -29   -0.15    0.54
  -2  -7  29    0.15    0.75
  -2  -7  29    0.79    0.71
   3   6 -30   20.47    1.68
  -3  -6  30   21.18    1.88
  -3  -6  30   20.54    2.14
  -4  -5  31    2.24    1.06
  -4  -5  31    2.53    0.98
  -5  -4  32    4.28    1.31
  -5  -4  32    3.28    1.04
  -6  -3  33    1.31    0.90
  -6  -3  33    1.02    1.15
  -7  -2  34   24.07    2.16
  -7  -2  34   27.63    2.92
  -8  -1  35    9.60    1.54
  -8  -1  35   11.38    2.14
  -9   0  36  126.96    7.51
 -10   1  37    0.24    1.25
 -10   9 -37    0.38    0.47
 -10   9 -37   -0.16    0.42
  10  -9  37   -0.36    0.75
  -9   9 -36  109.00    4.36
   9  -9  36   97.51    5.09
  -8   9 -35    8.02    0.76
   8  -9  35    8.60    1.45
  -7   9 -34   22.34    1.10
   7  -9  34   24.07    2.11
   6  -9  33    0.69    0.74
   5  -9  32    2.44    0.86
  -4   9 -31    2.98    0.41
  -4   9 -31    2.78    0.40
   4  -9  31    2.73    0.34
   4  -9  31    2.39    0.89
  -3   9 -30   21.55    1.23
  -3   9 -30   20.93    1.22
   3  -9  30   20.60    1.77
   3  -9  30   21.35    1.35
  -2   9 -29    0.44    0.42
  -2   9 -29    0.71    0.43
   2  -9  29    0.08    0.43
   2  -9  29    0.61    0.70
  -1   9 -28    2.51    0.68
  -1   9 -28    2.42    0.63
   1  -9  28    2.87    0.76
   1  -9  28    2.18    0.81
   0   9 -27    0.10    0.49
   0   9 -27    0.66    0.52
   0  -9  27   -0.38    0.55
   0  -9  27    0.08    0.55
   1   9 -26    4.07    0.93
   1   9 -26    5.22    0.99
  -1  -9  26    5.31    1.15
  -1  -9  26    4.73    1.08
   2   8 -27   27.38    2.03
   2   8 -27   30.18    2.11
  -2  -8  27   32.63    2.29
  -2  -8  27   29.25    2.47
   3   7 -28    5.81    1.13
  -3  -7  28    7.23    1.45
  -3  -7  28    3.88    1.04
  -4  -6  29    0.48    0.93
  -4  -6  29    0.32    0.74
  -5  -5  30    0.03    0.98
  -5  -5  30    0.81    0.83
  -6  -4  31    0.44    1.08
  -6  -4  31    1.22    0.86
  -7  -3  32   -0.19    0.77
  -7  -3  32   -0.52    0.99
  -8  -2  33   11.00    2.19
  -9  -1  34   29.03    3.23
 -10  10 -35    0.53    0.43
 -10  10 -35   -0.01    0.39
  10 -10  35    0.20    0.80
  -9  10 -34   24.06    1.33
   9 -10  34   26.37    2.30
  -8  10 -33    9.14    0.61
   8 -10  33    9.51    1.56
   7 -10  32    0.17    0.79
   6 -10  31    0.19    0.81
   5 -10  30    0.30    0.70
  -4  10 -29    0.65    0.32
  -4  10 -29    0.43    0.33
   4 -10  29    0.16    0.62
  -3  10 -28    6.31    0.73
  -3  10 -28    5.73    0.74
   3 -10  28    5.97    1.14
   3 -10  28    6.14    0.78
  -2  10 -27   28.50    1.72
  -2  10 -27   28.28    1.72
   2 -10  27   30.41    1.93
   2 -10  27   27.88    2.14
  -1  10 -26    4.24    0.81
  -1  10 -26    5.25    0.87
   1 -10  26    5.71    1.00
   1 -10  26    6.41    1.21
   0  10 -25    0.42    0.58
   0  10 -25   -0.34    0.54
   0 -10  25    0.47    0.67
   0 -10  25    0.09    0.63
   1  10 -24   40.41    2.62
  -1 -10  24   42.15    2.71
  -1 -10  24   43.12    2.98
   2   9 -25    0.14    0.63
  -2  -9  25    0.06    0.73
  -2  -9  25    0.79    0.86
   3   8 -26    1.74    0.81
  -3  -8  26    1.34    0.84
  -3  -8  26    0.89    0.95
   4   7 -27   40.54    2.73
  -4  -7  27   42.09    3.23
  -4  -7  27   43.14    2.79
  -5  -6  28    1.87    0.93
  -5  -6  28    0.92    1.07
  -6  -5  29    0.20    0.82
  -6  -5  29    0.15    1.16
  -7  -4  30    2.22    0.99
  -7  -4  30    5.91    1.68
  -8  -3  31    1.92    1.43
  -9  -2  32    6.93    2.04
  -9  11 -32    5.26    0.53
   9 -11  32    4.64    1.23
   8 -11  31    1.85    1.02
   7 -11  30    5.86    1.27
   6 -11  29    0.18    0.69
  -5  11 -28    1.24    0.33
  -5  11 -28    0.91    0.34
   5 -11  28    1.23    0.84
  -4  11 -27   41.35    1.93
  -4  11 -27   38.60    1.91
   4 -11  27   43.03    2.66
   4 -11  27   37.07    1.93
  -3  11 -26    1.62    0.52
  -3  11 -26    1.31    0.54
   3 -11  26    2.16    0.89
   3 -11  26    1.36    0.53
  -2  11 -25    0.91    0.56
  -2  11 -25    0.40    0.51
   2 -11  25    0.46    0.77
   2 -11  25    0.07    0.53
  -1  11 -24   41.68    2.45
  -1  11 -24   38.83    2.40
   1 -11  24   39.76    2.66
   1 -11  24   44.77    2.74
   0  11 -23   -0.02    0.61
   0  11 -23   -0.24    0.56
   0 -11  23   -0.63    0.62
   0 -11  23    0.17    0.69
   1  11 -22    9.13    1.38
  -1 -11  22    9.87    1.45
  -1 -11  22    8.92    1.56
   2  10 -23    0.62    0.74
  -2 -10  23    0.08    0.69
  -2 -10  23    0.41    0.83
   3   9 -24    3.34    0.98
  -3  -9  24    2.45    0.99
  -3  -9  24    1.96    1.07
   4   8 -25    0.59    0.76
  -4  -8  25    0.82    1.01
  -4  -8  25    0.66    0.76
  -5  -7  26    4.16    1.41
  -5  -7  26    2.50    1.05
  -6  -6  27    0.64    0.96
  -6  -6  27    0.91    1.21
  -7  -5  28    0.82    1.19
  -7  -5  28    0.40    0.83
  -8  -4  29   -0.42    0.84
  -8  -4  29    0.71    1.22
   9 -12  30   19.45    2.07
   8 -12  29    0.57    0.88
   7 -12  28   -0.10    0.75
  -6  12 -27    1.43    0.36
  -6  12 -27    1.42    0.34
   6 -12  27    1.16    0.85
  -5  12 -26    2.66    0.52
  -5  12 -26    3.43    0.55
   5 -12  26    3.76    1.07
  -4  12 -25    0.18    0.43
  -4  12 -25    0.09    0.43
   4 -12  25    0.08    0.33
   4 -12  25    0.00    0.76
  -3  12 -24    2.22    0.66
  -3  12 -24    3.00    0.71
   3 -12  24    2.80    0.72
   3 -12  24    2.64    0.93
  -2  12 -23    0.37    0.59
  -2  12 -23   -0.08    0.53
   2 -12  23   -0.42    0.67
   2 -12  23    0.74    0.69
  -1  12 -22   11.53    1.44
  -1  12 -22   10.41    1.35
   1 -12  22   12.38    1.57
   1 -12  22   10.46    1.54
   3  10 -22    1.66    0.93
  -3 -10  22    3.46    1.06
  -4  -9  23    1.51    0.86
  -4  -9  23    1.11    1.06
  -5  -8  24   26.91    2.90
  -5  -8  24   25.56    2.23
  -6  -7  25    0.46    0.90
  -6  -7  25    0.22    1.10
  -7  -6  26   14.90    2.06
  -7  -6  26   12.91    2.30
  -7  13 -26   11.75    0.81
  -7  13 -26   10.40    0.79
   7 -13  26   11.82    1.71
  -6  13 -25   -0.26    0.34
  -6  13 -25   -0.08    0.35
   6 -13  25   -0.24    0.73
  -5  13 -24   27.46    1.62
  -5  13 -24   25.22    1.60
   5 -13  24   27.73    2.18
  -4  13 -23    0.36    0.53
  -4  13 -23    1.08    0.56
   4 -13  23    1.16    0.86
   4 -13  23    0.53    0.47
  -3  13 -22    2.05    0.72
  -3  13 -22    2.57    0.75
   3 -13  22    2.42    0.95
   0   0  48    1.18    1.01
   0   0  48    1.23    0.69
   0   0  48    0.72    0.89
   1   0  49    0.83    1.03
   4  -2  48   14.51    1.63
   4  -2  48   14.53    1.93
  -3   1  47    1.22    0.99
   0   1  50    9.25    1.22
   0   1  50    8.13    1.67
   0   1  50    8.06    1.67
  -4   2  48   15.33    1.45
  -4   2  48   16.16    2.43
   0   2 -44    3.53    0.78
  -6   4  50    6.65    1.80
   0  -2  44    2.89    0.98
  -6   4  50    5.56    1.02
   6  -2  50    5.32    1.22
   6  -2  50    7.07    1.55
   0  -2  44    2.45    0.79
   1   2 -43    0.18    0.53
  -1  -2  43    0.46    0.66
  -1  -2  43    0.73    0.75
  -5   4  51    0.95    0.65
  -2  -1  44    1.96    0.98
  -2  -1  44    3.31    0.89
  -5   4  51    0.70    1.18
   6  -3  48    0.21    0.83
  -3   0  45    0.42    0.66
  -3   3  51   -0.14    0.55
   6  -3  48    0.70    0.84
  -3   3  51   -0.37    1.01
  -3   0  45   -0.66    0.77
  -3   3 -45   -0.47    0.48
  -6   3  48    0.49    1.08
   3  -3  45    0.21    0.73
   3   0  51   -0.23    0.64
   3  -3  45   -0.54    0.60
   3   0  51   -0.21    0.94
  -6   3  48    0.09    0.62
  -2   3 -44    2.54    0.71
   2  -3  44    3.19    0.97
   5  -1  51    0.15    0.76
   2  -3  44    2.78    0.93
   5  -1  51    0.31    0.93
   2  -3  44    2.23    0.82
  -1   3 -43    0.41    0.47
   1  -3  43    0.02    0.66
   1  -3  43   -0.36    0.60
   0   3 -42    0.19    0.48
   0  -3  42    0.12    0.57
   0  -3  42   -0.12    0.62
   1   3 -41    0.32    0.52
  -1  -3  41    1.02    0.79
  -1  -3  41    0.71    0.63
  -2  -2  42    1.06    0.86
  -2  -2  42    0.67    0.72
  -3  -1  43    0.20    0.81
  -3  -1  43   -0.53    0.59
  -4   0  44    0.92    0.72
  -4   0  44    0.03    0.88
  -4   4  52    3.55    1.54
  -6   4 -46   32.35    2.21
   6  -4  46   31.61    2.37
   6  -4  46   35.19    2.64
  -6   2  46   31.30    2.29
  -6   2  46   35.66    3.30
   4   0  52    6.41    1.61
   4   0  52    3.44    1.02
  -3   4 -43   -0.19    0.41
   3  -4  43   -0.11    0.58
   3  -4  43    0.19    0.65
   3  -4  43    0.44    0.63
  -2   4 -42    0.31    0.48
   2  -4  42    0.90    0.73
   2  -4  42    1.23    0.70
  -1   4 -41    0.64    0.47
   1  -4  41    1.00    0.68
   1  -4  41    0.45    0.63
   0   4 -40    3.34    0.71
   0  -4  40    2.60    0.86
   0  -4  40    3.91    0.95
   1   4 -39   10.46    1.17
  -1  -4  39   12.09    1.37
  -1  -4  39   12.11    1.59
   2   3 -40   -0.13    0.49
  -2  -3  40    0.32    0.76
  -2  -3  40    0.09    0.59
  -3  -2  41    3.21    1.13
  -3  -2  41    3.54    0.98
  -4  -1  42    1.10    0.73
  -4  -1  42    2.13    1.14
  -5   0  43    0.62    0.72
  -5   0  43    0.16    0.98
  -6   1  44    2.37    1.34
  -3   4  53    1.81    1.31
  -6   1  44    3.23    0.98
  -7   2  45   41.87    3.59
   8  -5  46   30.35    2.55
   8  -5  46   34.85    2.72
  -7   2  45   36.80    2.52
  -7   5 -45   38.46    2.34
  -8   3  46   28.62    2.36
   7  -5  45   35.69    2.65
  -8   3  46   34.61    3.49
   7  -5  45   42.46    2.78
  -6   5 -44    2.28    0.73
   3   1  53    0.10    1.06
   6  -5  44    0.86    0.82
   6  -5  44    2.50    0.85
   3   1  53   -0.06    0.65
  -5   5 -43   -0.30    0.43
   5  -5  43   -0.11    0.56
   5  -5  43   -0.23    0.64
  -4   5 -42    1.35    0.54
   4  -5  42    1.46    0.75
   4  -5  42    1.32    0.69
   4  -5  42    1.07    0.69
  -3   5 -41    5.05    0.77
   3  -5  41    4.47    0.94
   3  -5  41    4.36    0.97
  -2   5 -40   -0.34    0.36
   2  -5  40    0.05    0.57
   2  -5  40   -0.21    0.54
  -1   5 -39   10.18    1.03
   1  -5  39   10.24    1.36
   1  -5  39   11.37    1.31
   0   5 -38    4.19    0.76
   0  -5  38    4.85    1.02
   0  -5  38    4.85    1.04
   1   5 -37    4.70    0.85
  -1  -5  37    3.92    1.00
  -1  -5  37    3.93    1.03
   2   4 -38    5.69    0.92
  -2  -4  38    5.91    1.11
  -2  -4  38    5.55    1.20
  -3  -3  39   -0.47    0.72
  -3  -3  39    0.31    0.65
  -4  -2  40   -0.29    0.58
  -4  -2  40   -0.21    0.83
  -5  -1  41    3.90    1.05
  -5  -1  41    4.40    1.40
  -6   0  42    1.21    1.11
  -6   0  42    1.42    0.84
  -7   1  43   -0.31    0.75
  -7   1  43   -0.10    1.08
  -8   2  44    4.16    1.18
  -8   2  44    6.25    1.87
  -8   6 -44    4.11    0.88
   8  -6  44    3.51    1.18
   8  -6  44    4.85    1.08
  -7   6 -43    0.06    0.51
   7  -6  43   -0.07    0.79
   7  -6  43    0.11    0.59
  -6   6 -42    0.99    0.55
   6  -6  42    0.72    0.58
   6  -6  42    0.87    0.81
  -5   6 -41    5.01    0.80
   5  -6  41    5.21    0.90
   5  -6  41    4.50    1.09
   5  -6  41    4.97    0.91
  -4   6 -40    0.73    0.42
   4  -6  40    0.46    0.50
   4  -6  40    0.75    0.77
  -3   6 -39    0.07    0.40
   3  -6  39   -0.17    0.58
   3  -6  39    0.09    0.50
  -2   6 -38    5.99    0.76
   2  -6  38    4.65    1.02
   2  -6  38    5.98    0.99
  -1   6 -37    3.34    0.64
   1  -6  37    4.08    0.99
   1  -6  37    4.39    0.91
   0   6 -36  200.95    8.05
   0  -6  36  202.04    8.27
   0  -6  36  204.94    9.48
   1   6 -35    1.40    0.60
  -1  -6  35    1.16    0.69
  -1  -6  35    2.29    0.86
   2   5 -36    0.60    0.55
  -2  -5  36    0.33    0.74
  -2  -5  36    0.70    0.70
  -3  -4  37    1.19    0.80
  -3  -4  37    1.82    0.98
  -4  -3  38   24.20    2.02
  -4  -3  38   28.54    2.60
  -5  -2  39   16.42    2.17
  -5  -2  39   14.11    1.79
  -6  -1  40    0.65    0.81
  -6  -1  40    0.65    1.15
  -7   0  41   -0.33    0.77
  -7   0  41    0.28    1.08
  -8   1  42    1.74    1.33
  -8   1  42    0.72    0.97
  -8   7 -42    0.95    0.57
   8  -7  42    1.53    0.97
   8  -7  42    1.66    0.67
  -7   7 -41   -0.13    0.43
   7  -7  41   -0.13    0.44
   7  -7  41   -0.07    0.70
  -6   7 -40    0.96    0.49
   6  -7  40    0.81    0.79
   6  -7  40    0.96    0.50
  -5   7 -39   12.03    1.01
   5  -7  39   14.62    1.64
   5  -7  39   13.65    1.17
  -4   7 -38   23.69    1.38
   4  -7  38   22.95    1.57
   4  -7  38   22.32    1.98
  -3   7 -37    1.20    0.43
   3  -7  37    1.01    0.77
   3  -7  37    0.65    0.50
  -2   7 -36    0.04    0.39
   2  -7  36    0.45    0.52
   2  -7  36    0.02    0.62
  -1   7 -35    2.10    0.55
   1  -7  35    2.02    0.80
   1  -7  35    1.41    0.67
   0   7 -34    4.05    0.74
   0  -7  34    3.25    0.92
   0  -7  34    4.01    0.94
   1   7 -33    3.88    0.80
  -1  -7  33    4.62    1.07
  -1  -7  33    3.93    1.01
   2   6 -34   33.02    2.10
  -2  -6  34   32.94    2.63
  -2  -6  34   33.19    2.33
  -3  -5  35    5.42    1.16
  -3  -5  35    4.76    1.29
  -4  -4  36    0.13    0.86
  -4  -4  36    0.27    0.74
  -5  -3  37    0.33    0.97
  -5  -3  37    0.59    0.80
  -6  -2  38    6.00    1.32
  -6  -2  38    5.82    1.59
  -7  -1  39   12.31    2.23
  -7  -1  39   11.02    1.71
  -8   0  40    0.36    1.16
  -8   0  40   -0.16    0.80
  -9   1  41    1.90    1.10
  -9   1  41    2.27    1.53
  -9   8 -41    2.60    0.65
   9  -8  41    1.99    1.09
   9  -8  41    2.13    0.65
  -8   8 -40    0.54    0.47
   8  -8  40    0.18    0.43
   8  -8  40   -0.42    0.76
  -7   8 -39   10.51    0.98
   7  -8  39   12.47    1.68
   7  -8  39   10.10    0.89
  -6   8 -38    4.44    0.61
   6  -8  38    3.20    0.50
   6  -8  38    3.49    1.03
  -5   8 -37    0.69    0.35
   5  -8  37    0.65    0.34
   5  -8  37    0.79    0.77
  -4   8 -36   -0.02    0.30
   4  -8  36    0.02    0.35
   4  -8  36    0.79    0.75
  -3   8 -35    3.61    0.55
   3  -8  35    3.59    1.00
   3  -8  35    3.89    0.67
  -2   8 -34   30.71    1.69
  -2   8 -34   30.59    1.76
   2  -8  34   29.28    2.21
   2  -8  34   31.33    1.98
  -1   8 -33    3.82    0.76
  -1   8 -33    4.26    0.72
   1  -8  33    3.81    1.04
   1  -8  33    4.18    0.89
   0   8 -32    3.24    0.77
   0   8 -32    4.44    0.81
   0  -8  32    4.18    1.03
   0  -8  32    3.87    0.96
   1   8 -31    4.81    0.96
   1   8 -31    3.95    0.87
  -1  -8  31    5.44    1.18
  -1  -8  31    5.44    1.14
   2   7 -32    4.25    0.90
  -2  -7  32    3.44    1.11
  -2  -7  32    3.29    1.05
  -3  -6  33    0.43    0.90
  -3  -6  33    1.38    0.84
  -4  -5  34   37.01    3.03
  -4  -5  34   36.92    2.56
  -5  -4  35    2.13    1.18
  -5  -4  35    2.45    1.01
  -6  -3  36  153.07    8.06
  -6  -3  36  137.64    6.58
  -7  -2  37    0.68    0.93
  -7  -2  37    0.49    1.12
  -8  -1  38    2.58    1.16
  -8  -1  38    5.74    1.77
  -9   0  39    0.52    1.30
  -9   0  39   -0.39    0.76
  -9   9 -39    0.74    0.47
   9  -9  39    0.97    0.93
  -8   9 -38    3.17    0.59
   8  -9  38    2.76    1.08
  -7   9 -37    1.04    0.37
   7  -9  37    1.31    0.95
  -6   9 -36  132.62    5.04
   6  -9  36  127.55    5.97
  -5   9 -35    1.71    0.36
   5  -9  35    2.33    0.93
  -4   9 -34   34.12    1.64
  -4   9 -34   34.98    1.70
   4  -9  34   37.97    2.51
   4  -9  34   34.27    1.72
  -3   9 -33    1.43    0.43
  -3   9 -33    0.46    0.39
   3  -9  33    0.75    0.77
   3  -9  33    0.77    0.42
  -2   9 -32    3.79    0.68
  -2   9 -32    3.71    0.66
   2  -9  32    4.62    1.10
   2  -9  32    3.24    0.70
  -1   9 -31    4.31    0.81
  -1   9 -31    6.20    0.92
   1  -9  31    3.78    1.07
   1  -9  31    4.81    0.92
   0   9 -30   22.50    1.72
   0   9 -30   23.33    1.76
   0  -9  30   27.30    2.07
   0  -9  30   22.22    1.97
   1   9 -29    0.48    0.64
   1   9 -29    0.87    0.67
  -1  -9  29    1.62    0.86
  -1  -9  29    0.65    0.77
   2   8 -30    0.62    0.70
   2   8 -30    1.38    0.73
  -2  -8  30   -0.03    0.72
  -2  -8  30    1.23    0.78
  -3  -7  31    0.15    0.75
  -3  -7  31    0.26    0.88
  -4  -6  32    1.23    1.07
  -4  -6  32    1.07    0.88
  -5  -5  33    5.89    1.34
  -5  -5  33    6.64    1.59
  -6  -4  34   15.35    1.99
  -6  -4  34   17.95    2.56
  -7  -3  35    0.36    1.18
  -7  -3  35    0.26    0.92
  -8  -2  36    0.39    1.01
  -8  -2  36   -0.14    1.18
  -9  -1  37   -0.75    0.85
  -9  -1  37    0.26    1.30
  -9  10 -37   -0.21    0.33
   9 -10  37    0.28    0.80
  -8  10 -36    0.18    0.30
   8 -10  36    0.18    0.85
   7 -10  35   -0.28    0.82
   6 -10  34   17.83    1.89
  -5  10 -33    7.34    0.62
  -5  10 -33    7.17    0.59
   5 -10  33    8.40    1.45
  -4  10 -32    0.97    0.39
  -4  10 -32    0.62    0.37
   4 -10  32    0.48    0.77
  -3  10 -31    0.19    0.39
  -3  10 -31   -0.22    0.39
   3 -10  31    0.16    0.37
   3 -10  31   -0.18    0.69
  -2  10 -30    0.83    0.52
  -2  10 -30    0.68    0.52
   2 -10  30    0.63    0.52
   2 -10  30    0.98    0.75
  -1  10 -29    1.05    0.59
  -1  10 -29    0.89    0.62
   1 -10  29    0.49    0.61
   1 -10  29    0.27    0.75
   0  10 -28    1.38    0.71
   0  10 -28    0.40    0.62
   0 -10  28    1.22    0.81
   0 -10  28    1.68    0.80
   1  10 -27   34.15    2.39
  -1 -10  27   35.97    2.70
  -1 -10  27   32.71    2.43
   2   9 -28    0.94    0.74
  -2  -9  28    0.24    0.84
  -2  -9  28    1.46    0.86
   3   8 -29   -0.16    0.69
  -3  -8  29   -0.48    0.74
  -3  -8  29   -1.18    0.74
  -4  -7  30    6.35    1.53
  -4  -7  30    6.92    1.31
  -5  -6  31    2.22    1.30
  -5  -6  31    2.10    0.98
  -6  -5  32    7.21    1.47
  -6  -5  32    7.21    1.78
  -7  -4  33    3.02    1.47
  -7  -4  33    1.55    1.07
  -8  -3  34    5.82    1.82
  -8  -3  34    5.29    1.42
   8 -11  34    7.15    1.43
   7 -11  33    1.72    1.01
   6 -11  32    6.87    1.38
  -5  11 -31    1.54    0.39
  -5  11 -31    1.46    0.37
   5 -11  31    1.30    0.95
  -4  11 -30    5.55    0.70
  -4  11 -30    6.16    0.75
   4 -11  30    6.54    1.28
  -3  11 -29   -0.02    0.43
  -3  11 -29   -0.26    0.40
   3 -11  29    0.40    0.44
   3 -11  29    0.18    0.71
  -2  11 -28    1.61    0.64
  -2  11 -28    1.17    0.61
   2 -11  28    0.64    0.79
   2 -11  28    1.10    0.59
  -1  11 -27   29.88    2.09
  -1  11 -27   32.92    2.17
   1 -11  27   35.95    2.49
   1 -11  27   33.77    2.36
   0  11 -26    3.91    0.96
   0  11 -26    4.04    0.94
   0 -11  26    3.62    1.06
   0 -11  26    3.63    1.03
   2  10 -26    1.42    0.87
  -2 -10  26    2.75    1.06
  -2 -10  26    2.50    1.08
   3   9 -27    0.38    0.77
  -3  -9  27    1.19    1.00
  -3  -9  27    0.89    0.88
   4   8 -28   -0.24    0.71
  -4  -8  28   -0.76    0.90
  -4  -8  28    0.33    0.81
  -5  -7  29    0.15    1.03
  -5  -7  29    0.56    0.77
  -6  -6  30   32.64    3.24
  -6  -6  30   33.54    2.59
  -7  -5  31   -0.37    1.12
  -7  -5  31    0.54    0.92
   7 -12  31    0.06    0.81
  -6  12 -30   28.66    1.38
  -6  12 -30   29.20    1.39
   6 -12  30   32.25    2.44
  -5  12 -29    0.21    0.39
  -5  12 -29   -0.04    0.34
   5 -12  29    0.14    0.80
  -4  12 -28    0.04    0.40
  -4  12 -28    0.07    0.41
   4 -12  28    0.27    0.29
   4 -12  28   -0.47    0.72
  -3  12 -27    0.31    0.52
  -3  12 -27    0.29    0.52
   3 -12  27   -0.19    0.71
   3 -12  27    0.36    0.48
  -2  12 -26    2.58    0.76
  -2  12 -26    3.17    0.80
   2 -12  26    1.88    0.92
   2 -12  26    2.40    0.81
   0   0  51   -0.93    0.83
   0   0  51    0.97    0.72
   2  -1  51    0.23    0.95
  -1   1  52    3.10    0.87
  -1   1  52    2.69    1.22
   1   0  52    2.20    1.20
   1   0  52    1.57    1.17
  -2   1  51    0.32    0.63
   1   0  52    2.24    0.84
  -2   1  51   -0.87    0.84
   3  -1  52    0.63    0.76
  -3   2  52    0.35    0.63
   0  -1  49    0.79    0.89
   3  -1  52    0.45    0.93
  -3   2  52    0.55    1.04
   0  -1  49   -0.60    0.58
  -4   3  53    0.60    1.15
  -2   2  53   -0.22    0.61
  -2   2  53    0.02    1.07
  -2   0  49    0.01    0.85
   4  -2  51    2.95    1.16
   4  -2  51    3.38    1.04
  -2   0  49    0.21    0.67
  -3   1  50    7.91    1.25
   3  -2  50    8.63    1.34
  -3   1  50    8.11    1.78
   3  -2  50    7.82    1.55
   2   0  53    0.26    0.66
   2  -2  49   -0.25    0.78
  -4   2  51    1.99    1.32
  -4   2  51    2.86    0.84
   2  -2  49   -0.30    0.61
   2   0  53   -0.26    0.97
   2  -2  49    0.12    0.84
   0  -2  47   -0.36    0.70
   0  -2  47   -0.46    0.62
  -1  -2  46   44.76    3.30
  -1  -2  46   44.40    2.73
  -2  -1  47   -0.05    0.82
  -2  -1  47    0.02    0.62
  -4   1  49    1.86    1.19
   5  -3  50    4.82    1.26
   5  -3  50    3.96    1.09
  -4   1  49    1.53    0.80
   1   1  54   16.00    2.36
   1   1  54   13.56    1.55
   1   1  54   14.81    2.26
  -5   2  50    2.97    1.45
  -2   3 -47    0.51    0.57
   2  -3  47    0.69    0.77
   2  -3  47    0.07    0.71
  -1   3 -46   42.82    2.54
   1  -3  46   48.39    3.19
   1  -3  46   48.80    2.84
   0   3 -45    0.12    0.51
   0  -3  45   -0.39    0.59
   0  -3  45   -0.17    0.69
   1   3 -44    0.59    0.58
  -1  -3  44    0.34    0.74
  -1  -3  44    0.46    0.64
  -2  -2  45   80.92    4.87
  -2  -2  45   82.48    4.06
  -3  -1  46   20.93    1.84
  -3  -1  46   19.71    2.33
  -4   0  47    0.20    1.00
  -4   0  47    0.03    0.68
  -5   1  48   12.17    2.12
  -5   1  48   16.32    1.70
   6  -4  49    1.76    0.91
  -6   2  49    2.57    1.44
   6  -4  49    1.13    0.92
  -6   2  49    1.01    0.82
  -5   4 -48   13.35    1.47
   5  -4  48   16.12    1.93
   5  -4  48   16.56    1.86
  -4   4 -47   -0.05    0.52
   4  -4  47   -0.75    0.67
   4  -4  47    0.33    0.74
  -3   4 -46   22.23    1.68
   3  -4  46   24.50    2.08
   3  -4  46   19.90    1.90
  -2   4 -45   78.45    3.77
   2  -4  45   79.38    4.07
   2  -4  45   84.95    4.54
  -1   4 -44    0.70    0.54
   1  -4  44    1.81    0.81
   1  -4  44    0.20    0.68
   0   4 -43    0.12    0.48
   0  -4  43   -0.37    0.65
   0  -4  43    1.09    0.76
   1   4 -42    1.64    0.64
  -1  -4  42    1.36    0.77
  -1  -4  42    1.56    0.89
  -2  -3  43    0.28    0.83
  -2  -3  43    0.70    0.75
  -3  -2  44    8.23    1.63
  -3  -2  44    6.19    1.25
  -4  -1  45   63.63    4.38
  -4  -1  45   63.79    3.54
  -5   0  46   30.53    3.00
  -5   0  46   26.29    2.19
  -6   1  47    0.03    0.75
  -6   1  47   -0.95    1.01
  -7   2  48    9.18    2.05
  -7   2  48   10.26    1.52
   7  -5  48   10.31    1.54
   7  -5  48    8.84    1.57
  -6   5 -47    0.70    0.61
   6  -5  47   -0.05    0.79
   6  -5  47   -0.24    0.65
  -5   5 -46   26.59    1.90
   5  -5  46   30.28    2.31
   5  -5  46   28.41    2.29
  -4   5 -45   61.85    3.13
   4  -5  45   60.65    3.47
   4  -5  45   66.26    3.67
  -3   5 -44    7.13    0.96
   3  -5  44    6.98    1.16
   3  -5  44    5.28    1.16
  -2   5 -43    1.34    0.53
   2  -5  43    0.43    0.67
   2  -5  43    1.21    0.72
  -1   5 -42    2.19    0.62
   1  -5  42    2.24    0.86
   1  -5  42    2.05    0.82
   0   5 -41    0.07    0.47
   0  -5  41   -0.30    0.65
   0  -5  41    0.29    0.64
   1   5 -40   -0.30    0.50
  -1  -5  40    0.19    0.61
  -1  -5  40   -0.21    0.69
   2   4 -41    0.36    0.65
  -2  -4  41    0.75    0.81
  -2  -4  41    1.22    0.79
  -3  -3  42    4.25    1.23
  -3  -3  42    4.60    1.14
  -4  -2  43    1.08    1.02
  -4  -2  43    0.27    0.73
  -5  -1  44    1.04    0.91
  -5  -1  44    3.14    1.41
  -6   0  45    0.13    0.79
  -6   0  45   -0.76    1.06
  -7   1  46   16.77    2.60
  -7   1  46   16.06    1.84
  -7   6 -46   15.60    1.51
   7  -6  46   17.46    1.70
   7  -6  46   17.37    1.95
  -6   6 -45    0.77    0.59
   6  -6  45    0.00    0.60
   6  -6  45   -0.64    0.61
  -5   6 -44    2.53    0.69
   5  -6  44    1.74    0.70
   5  -6  44    1.53    0.85
  -4   6 -43   -0.03    0.43
   4  -6  43    1.74    0.89
   4  -6  43    0.31    0.57
  -3   6 -42    4.15    0.72
   3  -6  42    4.36    0.91
   3  -6  42    3.89    1.04
  -2   6 -41    0.93    0.51
   2  -6  41    1.31    0.69
   2  -6  41    1.20    0.80
  -1   6 -40    0.47    0.47
   1  -6  40    0.37    0.69
   1  -6  40    0.30    0.62
   0   6 -39    0.13    0.48
   0  -6  39    0.10    0.70
   0  -6  39   -0.17    0.66
   1   6 -38    5.38    0.92
  -1  -6  38    7.40    1.33
  -1  -6  38    6.86    1.23
   2   5 -39   11.38    1.33
  -2  -5  39   12.07    1.63
  -2  -5  39   11.80    1.74
  -3  -4  40    2.91    1.13
  -3  -4  40    3.04    0.99
  -4  -3  41   -0.62    0.89
  -4  -3  41    0.33    0.72
  -5  -2  42    0.83    0.90
  -5  -2  42   -0.51    1.00
  -6  -1  43   -0.34    0.81
  -6  -1  43    0.58    1.18
  -7   0  44    3.65    1.59
  -7   0  44    2.98    1.08
  -8   1  45   27.41    2.40
  -8   7 -45   29.93    1.98
   8  -7  45   27.92    2.48
  -7   7 -44    3.87    0.79
   7  -7  44    2.08    1.04
   7  -7  44    3.07    0.80
  -6   7 -43    0.67    0.49
   6  -7  43   -0.30    0.47
   6  -7  43    0.33    0.77
  -5   7 -42    0.49    0.44
   5  -7  42    0.38    0.71
   5  -7  42    0.06    0.48
  -4   7 -41   -0.20    0.37
   4  -7  41    0.28    0.49
   4  -7  41    0.08    0.75
  -3   7 -40    2.77    0.59
   3  -7  40    3.15    0.74
   3  -7  40    3.24    1.01
  -2   7 -39   11.21    1.06
   2  -7  39   10.79    1.28
   2  -7  39    9.45    1.44
  -1   7 -38    7.94    0.98
   1  -7  38    6.53    1.22
   1  -7  38    7.89    1.20
   0   7 -37    0.47    0.54
   0  -7  37    0.43    0.77
   0  -7  37    0.25    0.67
   1   7 -36    0.71    0.55
  -1  -7  36   -0.28    0.66
  -1  -7  36    0.71    0.77
   2   6 -37    3.49    0.80
  -2  -6  37    3.04    1.12
  -2  -6  37    3.67    1.04
  -3  -5  38    7.48    1.40
  -3  -5  38    8.04    1.53
  -4  -4  39    5.48    1.45
  -4  -4  39    4.06    1.10
  -5  -3  40   -0.07    0.78
  -5  -3  40    0.29    1.07
  -6  -2  41    1.76    1.24
  -6  -2  41    2.32    1.08
  -7  -1  42    1.72    1.05
  -7  -1  42    2.22    1.44
  -8   0  43    0.76    1.24
  -8   0  43    1.43    0.98
  -8   8 -43   -0.02    0.48
   8  -8  43   -0.06    0.91
   8  -8  43    0.08    0.45
   8  -8  43   -0.23    0.43
  -7   8 -42    1.56    0.54
   7  -8  42    1.33    0.48
   7  -8  42    1.91    1.03
  -6   8 -41    1.54    0.51
   6  -8  41    1.50    0.46
   6  -8  41    0.67    0.81
  -5   8 -40   -0.02    0.37
   5  -8  40    0.44    0.81
   5  -8  40   -0.07    0.33
  -4   8 -39    4.00    0.61
   4  -8  39    3.94    1.07
   4  -8  39    3.51    0.63
  -3   8 -38    7.45    0.87
   3  -8  38    6.90    1.31
   3  -8  38    7.80    0.99
  -2   8 -37    3.01    0.62
   2  -8  37    3.42    0.77
   2  -8  37    3.33    1.01
  -1   8 -36   -0.09    0.45
   1  -8  36    0.19    0.57
   1  -8  36    0.30    0.75
   0   8 -35   -0.03    0.52
   0  -8  35    0.16    0.73
   0  -8  35    0.35    0.69
   1   8 -34   22.72    1.88
  -1  -8  34   25.78    2.24
  -1  -8  34   25.12    2.14
   2   7 -35    2.04    0.84
  -2  -7  35    2.75    1.04
  -2  -7  35    1.50    0.93
  -3  -6  36  133.95    6.17
  -3  -6  36  135.34    7.18
  -4  -5  37    1.96    1.15
  -4  -5  37    2.24    0.95
  -5  -4  38    3.24    1.10
  -5  -4  38    4.84    1.47
  -6  -3  39    0.84    1.16
  -6  -3  39    0.03    0.82
  -7  -2  40    0.55    1.28
  -7  -2  40    0.46    0.97
  -8  -1  41    2.70    1.20
  -8  -1  41    2.93    1.48
  -8   9 -41    1.39    0.51
   8  -9  41    2.14    1.01
  -7   9 -40    0.01    0.37
   7  -9  40    0.36    0.79
  -6   9 -39    0.66    0.37
   6  -9  39    0.05    0.75
  -5   9 -38    3.74    0.55
   5  -9  38    4.61    1.14
  -4   9 -37    1.81    0.45
   4  -9  37    1.95    0.40
   4  -9  37    1.67    0.86
  -3   9 -36  120.76    4.90
   3  -9  36  118.05    5.49
   3  -9  36  120.55    5.59
  -2   9 -35    2.93    0.68
  -2   9 -35    2.73    0.64
   2  -9  35    2.36    0.97
   2  -9  35    2.56    0.68
  -1   9 -34   23.96    1.72
  -1   9 -34   21.47    1.63
   1  -9  34   22.78    1.82
   1  -9  34   23.89    2.06
   0   9 -33    0.40    0.58
   0   9 -33    0.04    0.56
   0  -9  33   -0.33    0.60
   0  -9  33    0.00    0.76
   1   9 -32    0.95    0.68
   1   9 -32    1.19    0.71
  -1  -9  32    0.85    0.79
  -1  -9  32    0.68    0.80
  -2  -8  33    6.96    1.36
  -2  -8  33    8.22    1.46
  -3  -7  34   10.70    1.81
  -3  -7  34    8.83    1.52
  -4  -6  35    0.54    0.99
  -4  -6  35    0.29    0.80
  -5  -5  36   -0.08    0.76
  -5  -5  36   -0.97    0.93
  -6  -4  37    0.04    0.75
  -6  -4  37   -0.25    1.07
  -7  -3  38   12.42    1.93
  -7  -3  38   13.93    2.35
  -8  -2  39    9.33    1.77
  -8  10 -39    8.64    0.83
   8 -10  39    7.52    1.50
  -7  10 -38   11.38    0.81
   7 -10  38   11.49    1.80
  -6  10 -37    0.31    0.30
   6 -10  37   -0.10    0.76
  -5  10 -36    0.17    0.30
   5 -10  36   -0.04    0.78
  -4  10 -35    0.06    0.37
  -4  10 -35    0.13    0.36
   4 -10  35   -0.91    0.68
  -3  10 -34    8.70    0.98
  -3  10 -34   10.13    1.03
   3 -10  34    8.70    0.93
   3 -10  34    8.68    1.50
  -2  10 -33    9.44    1.11
  -2  10 -33    9.36    1.11
   2 -10  33    8.16    1.43
   2 -10  33    9.04    1.13
  -1  10 -32    0.40    0.55
  -1  10 -32    1.11    0.62
   1 -10  32    1.85    0.73
   1 -10  32    0.13    0.77
   0  10 -31   -0.15    0.58
   0  10 -31    0.08    0.62
   0 -10  31   -0.36    0.62
   0 -10  31   -0.44    0.71
   1  10 -30    1.50    0.79
  -1 -10  30    1.99    0.96
  -1 -10  30    2.06    0.94
   2   9 -31    1.54    0.85
  -2  -9  31    2.48    1.05
  -2  -9  31    2.86    1.00
  -3  -8  32    4.22    1.27
  -3  -8  32    3.45    1.14
  -4  -7  33    2.95    1.15
  -4  -7  33    2.76    1.22
  -5  -6  34   17.50    2.03
  -5  -6  34   22.59    2.68
  -6  -5  35    2.39    1.10
  -6  -5  35    1.39    1.32
  -7  -4  36    0.79    1.29
  -7  -4  36   -0.44    0.91
   7 -11  36    1.17    1.00
  -6  11 -35    0.83    0.31
  -6  11 -35    1.26    0.30
   6 -11  35    1.94    0.97
  -5  11 -34   18.35    1.11
  -5  11 -34   17.21    1.08
   5 -11  34   16.27    1.88
  -4  11 -33    2.58    0.57
  -4  11 -33    2.41    0.56
   4 -11  33    2.29    1.01
  -3  11 -32    3.05    0.68
  -3  11 -32    4.19    0.75
   3 -11  32    3.67    0.65
   3 -11  32    2.25    0.97
  -2  11 -31    2.36    0.70
  -2  11 -31    1.57    0.68
   2 -11  31    2.05    0.68
   2 -11  31    3.33    1.06
  -1  11 -30    1.26    0.67
  -1  11 -30    1.61    0.73
   1 -11  30    2.09    0.94
   1 -11  30    1.75    0.78
   0  11 -29    0.51    0.66
   3   9 -30   19.09    2.05
  -3  -9  30   20.27    2.05
  -4  -8  31   -0.62    0.96
  -4  -8  31    0.41    0.84
  -5  -7  32    8.78    1.60
  -5  -7  32    6.93    1.70
  -5  12 -32    6.32    0.72
  -5  12 -32    5.84    0.70
   5 -12  32    7.18    1.49
  -4  12 -31   -0.24    0.40
  -4  12 -31    0.15    0.45
   4 -12  31   -0.51    0.78
  -3  12 -30   16.47    1.44
  -3  12 -30   19.12    1.49
   3 -12  30   20.76    1.97
   0   0  54   81.12    4.98
   0   0  54   69.94    3.82
   2  -1  54   13.15    2.07
   1   0  55    0.65    1.12
   1   0  55    1.30    0.76
   0  -1  52    2.50    1.18
   0  -1  52    2.49    0.92
  -1  -1  51    0.50    0.71
  -1  -1  51    0.19    0.93
  -2   0  52    1.00    0.74
  -2   0  52    0.63    1.06
   3  -2  53    4.65    1.13
   3  -2  53    4.04    1.32
  -3   1  53    4.50    1.54
  -3   1  53    2.88    0.91
   2  -2  52    0.51    0.91
   2  -2  52    0.12    0.84
   2  -2  52    0.62    0.74
   1  -2  51   -0.16    0.86
   1  -2  51    0.38    0.67
   0  -2  50    5.70    1.15
   0  -2  50    5.30    1.37
  -1  -2  49    0.43    0.93
  -1  -2  49   -0.24    0.63
  -2  -1  50    6.89    1.61
  -2  -1  50    7.73    1.32
  -3   0  51    0.46    0.71
  -3   0  51    0.25    1.03
  -4   1  52    1.10    1.23
  -4   1  52    2.19    0.88
   4  -3  52    1.25    0.92
   4  -3  52    2.19    1.09
   3  -3  51   -0.57    0.60
   3  -3  51   -0.20    0.77
   3  -3  51   -0.01    0.84
   2  -3  50    6.44    1.25
   2  -3  50    7.72    1.46
   1  -3  49    1.08    0.90
   1  -3  49    0.47    0.74
   0  -3  48    0.62    0.75
   0  -3  48   -0.36    0.74
  -1  -3  47    0.37    0.84
  -1  -3  47    0.33    0.75
  -2  -2  48   13.49    1.71
  -2  -2  48   14.79    2.00
  -3  -1  49    1.22    0.82
  -3  -1  49    1.83    1.16
  -4   0  50   17.23    1.76
  -4   0  50   17.60    2.58
  -5   1  51    0.45    1.28
  -5   1  51    1.51    0.85
   5  -4  51    1.19    0.90
   5  -4  51    1.65    0.94
   4  -4  50   17.05    1.85
   4  -4  50   19.52    2.11
   4  -4  50   19.58    2.07
  -3   4 -49    1.45    0.69
   3  -4  49    1.14    0.87
   3  -4  49    0.44    0.80
  -2   4 -48   17.82    1.50
   2  -4  48   13.86    1.56
   2  -4  48   16.51    1.88
  -1   4 -47    0.52    0.55
   1  -4  47    0.12    0.72
   1  -4  47    0.39    0.77
   0   4 -46   11.23    1.30
   0  -4  46   10.66    1.55
   0  -4  46   11.33    1.67
  -1  -4  45   63.38    3.53
  -1  -4  45   60.92    3.98
  -2  -3  46   45.76    2.89
  -2  -3  46   45.86    3.44
  -3  -2  47    1.66    1.12
  -3  -2  47    1.36    0.88
  -4  -1  48   14.64    1.69
  -4  -1  48   14.52    2.28
  -5   0  49    0.31    1.13
  -5   0  49   -0.06    0.70
  -6   1  50    1.29    1.33
  -6   1  50    1.07    0.86
   6  -5  50    0.43    0.83
  -5   5 -49   -0.39    0.51
   5  -5  49    0.12    0.74
   5  -5  49   -0.26    0.70
   5  -5  49   -0.19    0.81
  -4   5 -48   14.81    1.43
   4  -5  48   14.16    1.65
   4  -5  48   13.73    1.77
  -3   5 -47    1.43    0.65
   3  -5  47    1.67    0.90
   3  -5  47    0.67    0.74
  -2   5 -46   44.02    2.48
   2  -5  46   43.47    2.81
   2  -5  46   46.74    3.03
  -1   5 -45   57.58    3.03
   1  -5  45   60.71    3.44
   1  -5  45   62.61    3.72
   0   5 -44    4.78    0.90
   0  -5  44    6.76    1.34
   0  -5  44    4.08    1.07
   1   5 -43    1.26    0.69
  -1  -5  43    1.26    0.93
  -1  -5  43    2.24    0.93
  -2  -4  44    1.85    1.05
  -2  -4  44    1.58    0.88
  -3  -3  45   -0.24    0.87
  -3  -3  45    0.18    0.75
  -4  -2  46   31.91    2.42
  -4  -2  46   33.00    3.02
  -5  -1  47    0.41    1.13
  -5  -1  47    0.75    0.84
  -6   0  48    2.71    1.08
  -6   0  48    2.67    1.42
  -6   6 -48    3.21    0.80
   6  -6  48    2.72    1.13
   6  -6  48    3.93    0.98
   6  -6  48    2.72    0.90
  -5   6 -47    1.05    0.59
   5  -6  47    0.26    0.63
   5  -6  47   -0.31    0.77
  -4   6 -46   29.26    1.90
   4  -6  46   29.08    2.30
   4  -6  46   30.06    2.20
  -3   6 -45    0.23    0.49
   3  -6  45    0.90    0.74
   3  -6  45    0.44    0.64
  -2   6 -44    0.73    0.54
   2  -6  44    1.22    0.75
   2  -6  44    0.22    0.79
  -1   6 -43    1.91    0.66
   1  -6  43    1.07    0.77
   1  -6  43    1.13    0.80
   0   6 -42    1.88    0.67
   0  -6  42    0.17    0.76
   0  -6  42    1.52    0.86
   1   6 -41    0.18    0.57
  -1  -6  41    0.13    0.75
  -1  -6  41    0.26    0.81
  -2  -5  42    0.45    0.77
  -2  -5  42   -0.11    0.84
  -3  -4  43   -0.20    0.69
  -3  -4  43    0.82    0.95
  -4  -3  44    0.50    1.10
  -4  -3  44    0.07    0.86
  -5  -2  45   39.65    2.83
  -5  -2  45   38.60    3.45
  -6  -1  46   13.95    1.86
  -6  -1  46   20.38    2.69
  -6   7 -46   16.56    1.42
   6  -7  46   15.50    1.44
   6  -7  46   16.88    2.07
  -5   7 -45   36.66    2.08
   5  -7  45   35.30    2.26
   5  -7  45   34.25    2.56
  -4   7 -44    0.58    0.49
   4  -7  44    0.44    0.55
   4  -7  44    0.35    0.85
  -3   7 -43    0.44    0.46
   3  -7  43    0.02    0.72
   3  -7  43    0.54    0.56
  -2   7 -42    0.18    0.46
   2  -7  42    0.32    0.72
   2  -7  42   -0.19    0.54
  -1   7 -41    0.27    0.51
   1  -7  41   -0.39    0.63
   1  -7  41   -0.19    0.61
   0   7 -40    3.52    0.81
   0  -7  40    4.24    1.09
   0  -7  40    4.66    1.14
   1   7 -39   14.62    1.46
  -1  -7  39   16.46    1.89
  -1  -7  39   17.37    1.85
  -2  -6  40    0.59    0.71
  -2  -6  40    0.00    0.84
  -3  -5  41    0.39    0.91
  -3  -5  41    0.98    0.88
  -4  -4  42    2.75    1.25
  -4  -4  42    2.50    1.12
  -5  -3  43    0.81    0.85
  -5  -3  43   -0.89    1.02
  -6  -2  44    4.25    1.57
  -6  -2  44    4.51    1.26
  -7  -1  45   30.18    2.59
  -7   8 -45   28.55    1.82
   7  -8  45   30.23    2.54
  -6   8 -44    3.82    0.72
   6  -8  44    3.33    1.17
   6  -8  44    3.74    0.64
  -5   8 -43    1.03    0.50
   5  -8  43    0.33    0.76
   5  -8  43    0.73    0.47
  -4   8 -42    2.22    0.57
   4  -8  42    1.55    0.56
   4  -8  42    1.92    0.96
  -3   8 -41    0.00    0.43
   3  -8  41    1.19    0.82
   3  -8  41    0.73    0.55
  -2   8 -40    0.45    0.50
   2  -8  40    0.07    0.56
   2  -8  40    0.35    0.81
  -1   8 -39   14.49    1.35
   1  -8  39   15.53    1.60
   1  -8  39   15.01    1.90
   0   8 -38   12.45    1.34
   0  -8  38   11.38    1.58
   0  -8  38   13.98    1.82
   1   8 -37    3.25    0.92
  -1  -8  37    3.43    1.10
  -1  -8  37    4.41    1.16
  -2  -7  38    3.45    1.15
  -2  -7  38    2.59    0.98
  -3  -6  39    0.95    1.02
  -3  -6  39    0.41    0.84
  -4  -5  40   -0.33    0.93
  -4  -5  40   -0.33    0.71
  -5  -4  41    2.47    1.35
  -5  -4  41    2.96    1.13
  -6  -3  42    5.73    1.39
  -6  -3  42    5.78    1.75
  -7   9 -43    0.84    0.47
  -6   9 -42    5.64    0.74
   6  -9  42    6.60    1.35
  -5   9 -41    2.68    0.54
   5  -9  41    2.09    1.01
  -4   9 -40   -0.29    0.38
   4  -9  40   -0.24    0.33
   4  -9  40    0.71    0.85
  -3   9 -39    0.65    0.48
   3  -9  39    0.37    0.45
   3  -9  39    0.15    0.73
  -2   9 -38    4.31    0.80
   2  -9  38    2.07    0.94
   2  -9  38    4.18    0.83
  -1   9 -37    4.11    0.84
   1  -9  37    4.50    0.95
   1  -9  37    4.32    1.21
   0   9 -36  102.66    4.93
   0  -9  36  110.76    5.34
   0  -9  36  111.70    5.63
  -1  -9  35   -0.19    0.73
  -1  -9  35    0.01    0.68
  -2  -8  36   -0.34    0.81
  -2  -8  36   -0.14    0.81
  -3  -7  37   -0.71    0.62
  -3  -7  37    0.22    0.90
  -4  -6  38    5.82    1.33
  -4  -6  38    7.46    1.74
  -5  -5  39   13.32    1.88
  -5  -5  39   15.92    2.35
  -6  -4  40    2.70    1.15
  -6  -4  40    1.87    1.31
  -6  10 -40    2.76    0.49
   6 -10  40    2.16    1.07
  -5  10 -39   14.07    1.02
   5 -10  39   16.58    2.04
  -4  10 -38    6.26    0.77
   4 -10  38    3.85    1.16
  -3  10 -37    0.29    0.46
   3 -10  37    0.51    0.86
   3 -10  37   -0.02    0.38
  -2  10 -36   -0.05    0.49
  -2  10 -36    0.09    0.52
   2 -10  36    0.23    0.50
   2 -10  36    0.74    0.85
  -1  10 -35    0.17    0.57
  -1  10 -35    0.06    0.59
   1 -10  35   -0.45    0.55
   1 -10  35   -0.37    0.77
   0  10 -34    9.78    1.34
   0  10 -34    9.07    1.31
   0 -10  34   10.45    1.50
   0 -10  34    9.74    1.59
  -2  -9  34   15.50    2.02
  -3  -8  35    0.81    0.92
  -3  -8  35   -0.58    0.83
  -4  -7  36    0.58    0.87
  -4  -7  36    0.70    1.10
  -5  -6  37    1.02    1.19
  -5  -6  37    0.14    0.93
  -5  11 -37    0.56    0.41
   5 -11  37    0.71    0.94
  -4  11 -36    0.40    0.46
  -4  11 -36    0.22    0.44
   4 -11  36    1.59    0.96
  -3  11 -35   -0.28    0.46
  -3  11 -35    0.07    0.48
   3 -11  35    0.33    0.40
   3 -11  35    1.38    0.93
  -2  11 -34   14.38    1.45
  -2  11 -34   14.92    1.44
   2 -11  34   16.63    1.89
   0  -1  55    0.73    1.01
   0  -1  55   -0.28    0.63
  -1  -1  54   15.94    2.34
  -1  -1  54   10.34    1.48
   1  -2  54   15.19    2.09
   1  -2  54   12.48    1.64
   0  -2  53   -0.44    0.82
   0  -2  53   -0.07    0.74
  -1  -2  52    0.34    0.74
  -1  -2  52    0.28    0.96
  -2  -1  53    3.92    1.38
  -2  -1  53    3.58    1.02
  -3   0  54   73.48    3.91
   3  -3  54   76.31    4.09
   2  -3  53    3.64    1.24
   2  -3  53    4.88    1.24
   1  -3  52   -0.49    0.80
   1  -3  52    0.57    0.78
   0  -3  51   -0.17    0.66
   0  -3  51   -0.20    0.83
  -1  -3  50   15.42    2.10
  -1  -3  50   15.77    1.77
  -2  -2  51    1.85    1.14
  -2  -2  51    2.54    1.02
  -3  -1  52    2.68    1.02
  -3  -1  52    0.46    1.14
   3  -4  52    1.82    0.97
   3  -4  52    1.46    0.97
   2  -4  51    2.83    1.03
   2  -4  51    1.89    1.01
   1  -4  50   15.45    1.94
   1  -4  50   14.02    1.84
   0  -4  49   -0.48    0.78
   0  -4  49   -0.07    0.69
  -1  -4  48   11.22    1.62
  -1  -4  48   13.64    1.98
  -2  -3  49    1.83    0.98
  -2  -3  49    2.65    1.25
  -3  -2  50    2.55    1.01
  -3  -2  50    2.71    1.34
  -4  -1  51    0.15    0.78
  -4  -1  51    0.29    1.11
  -4   5 -51    0.46    0.66
   4  -5  51    0.48    0.77
   4  -5  51    0.91    0.83
  -3   5 -50    2.61    0.79
   3  -5  50    2.03    0.97
   3  -5  50    4.55    1.16
  -2   5 -49    1.17    0.65
   2  -5  49    3.29    1.04
   2  -5  49    2.88    1.05
  -1   5 -48   12.27    1.39
   1  -5  48   14.49    1.80
   1  -5  48   10.49    1.59
   0  -5  47    0.17    0.81
   0  -5  47   -0.39    0.60
  -1  -5  46   30.30    2.46
  -1  -5  46   34.20    2.80
  -2  -4  47    0.01    0.87
  -2  -4  47    0.24    0.75
  -3  -3  48   -0.20    0.77
  -3  -3  48    0.95    1.06
  -4  -2  49    1.54    0.92
  -4  -2  49    0.65    1.12
  -5  -1  50    1.70    0.92
  -5   6 -50    1.61    0.71
   5  -6  50    2.27    1.02
   5  -6  50    2.19    0.84
  -4   6 -49    0.84    0.61
   4  -6  49    1.44    0.97
   4  -6  49    1.56    0.81
  -3   6 -48    0.79    0.56
   3  -6  48    1.26    0.85
   3  -6  48    0.70    0.69
  -2   6 -47   -0.17    0.48
   2  -6  47   -0.11    0.69
   2  -6  47    0.11    0.78
  -1   6 -46   28.74    2.00
   1  -6  46   31.40    2.45
   1  -6  46   32.69    2.46
   0   6 -45   -0.20    0.53
   0  -6  45    0.63    0.82
   0  -6  45    0.05    0.77
  -1  -6  44    1.09    0.91
  -1  -6  44    0.97    0.91
  -2  -5  45   42.83    3.27
  -2  -5  45   37.41    2.73
  -3  -4  46   12.39    2.06
  -3  -4  46    8.71    1.56
  -4  -3  47    0.58    0.87
  -4  -3  47   -0.36    1.02
  -5  -2  48   10.74    2.10
  -5  -2  48    8.98    1.57
  -5   7 -48   10.25    1.20
   5  -7  48   10.18    1.63
   5  -7  48   10.15    1.29
  -4   7 -47   -0.10    0.46
   4  -7  47    0.01    0.53
   4  -7  47   -0.27    0.76
  -3   7 -46   10.50    1.15
   3  -7  46    9.43    1.32
   3  -7  46    8.21    1.47
  -2   7 -45   34.99    2.11
   2  -7  45   35.10    2.47
   2  -7  45   35.23    2.58
  -1   7 -44    0.21    0.52
   1  -7  44   -0.31    0.78
   1  -7  44    0.41    0.72
   0   7 -43    0.03    0.56
   0  -7  43   -0.09    0.79
   0  -7  43   -0.24    0.70
  -1  -7  42    1.50    0.96
  -1  -7  42    1.00    0.95
  -2  -6  43    1.80    1.10
  -2  -6  43    0.97    0.94
  -3  -5  44    4.79    1.31
  -3  -5  44    5.98    1.50
  -4  -4  45   42.02    3.05
  -4  -4  45   44.18    3.61
  -5  -3  46   33.71    3.27
  -5  -3  46   29.97    2.54
  -5   8 -46   28.85    1.79
   5  -8  46   26.97    1.77
   5  -8  46   29.49    2.40
  -4   8 -45   39.71    2.14
   4  -8  45   40.11    2.81
   4  -8  45   36.07    2.25
  -3   8 -44    5.39    0.86
   3  -8  44    5.93    0.96
   3  -8  44    6.08    1.33
  -2   8 -43    0.92    0.58
   2  -8  43    1.26    0.70
   2  -8  43    0.71    0.85
  -1   8 -42    1.70    0.68
   1  -8  42    1.69    1.00
   1  -8  42    1.45    0.77
   0   8 -41    0.21    0.59
   0  -8  41   -0.34    0.69
   0  -8  41    0.20    0.72
  -1  -8  40   -0.43    0.79
  -1  -8  40    0.17    0.85
  -2  -7  41   -0.02    0.75
  -2  -7  41   -0.09    0.86
  -3  -6  42    7.06    1.47
  -3  -6  42    9.12    1.80
  -4  -5  43    0.27    1.03
  -4  -5  43    0.48    0.91
  -5  -4  44    5.02    1.34
  -5  -4  44    6.29    1.71
  -5   9 -44    4.83    0.73
   5  -9  44    4.67    1.23
  -4   9 -43    0.43    0.46
   4  -9  43   -0.13    0.88
   4  -9  43    0.15    0.41
  -3   9 -42    8.85    1.06
   3  -9  42    8.56    1.59
   3  -9  42    9.26    1.07
  -2   9 -41    0.39    0.52
   2  -9  41   -0.04    0.56
   2  -9  41    0.18    0.89
  -1   9 -40    0.77    0.60
   1  -9  40   -0.25    0.77
   1  -9  40    0.39    0.66
   0   9 -39   -0.91    0.56
   0  -9  39    0.16    0.89
   0  -9  39   -0.12    0.67
  -2  -8  39   10.31    1.74
  -3  -7  40    2.42    1.12
  -3  -7  40    4.70    1.44
  -4  10 -41   -0.23    0.41
  -3  10 -40    3.06    0.70
   3 -10  40    3.03    0.61
   3 -10  40    2.26    1.07
  -2  10 -39   10.14    1.19
   2 -10  39    9.73    1.62
   0  -3  54   70.91    3.95
  -1  -3  53   -0.51    0.73
  -1  -3  53   -0.38    0.95
   1  -4  53    0.28    0.86
   1  -4  53    0.11    0.79
   0  -4  52    3.83    1.15
   0  -4  52    3.57    1.26
  -1  -4  51    0.81    1.02
  -1  -4  51    0.93    0.87
  -2  -3  52   -0.42    0.74
  -2  -3  52    0.28    1.05
   2  -5  52   -0.07    0.77
   2  -5  52   -0.75    0.62
   1  -5  51    0.90    0.83
   1  -5  51    0.62    0.89
   0  -5  50    2.52    1.03
   0  -5  50    1.11    0.99
  -1  -5  49    4.20    1.28
  -1  -5  49    3.68    1.16
  -2  -4  50    4.89    1.27
  -2  -4  50    4.79    1.44
  -2   6 -50    5.78    1.02
   2  -6  50    5.89    1.25
   2  -6  50    5.85    1.29
   1  -6  49    3.33    1.08
   1  -6  49    4.46    1.24
   0  -6  48    1.99    1.05
   0  -6  48    2.52    1.08
  -1  -6  47   -0.70    0.70
  -1  -6  47    0.22    0.88
  -2  -5  48   14.11    2.11
  -2  -5  48   10.37    1.66
  -3  -4  49   -0.38    0.83
  -3   7 -49   -0.10    0.51
   3  -7  49    0.35    0.91
  -2   7 -48   10.34    1.26
   2  -7  48   10.64    1.48
   2  -7  48    9.30    1.56
  -1   7 -47    0.07    0.57
   1  -7  47    0.64    0.81
   1  -7  47    0.51    0.77
   0  -7  46    5.07    1.23
   0  -7  46    5.03    1.32
  -1  -7  45   31.83    2.63
  -2  -6  46   30.29    2.46
  -2   8 -46   29.30    1.97
   2  -8  46   31.50    2.58
  -1   8 -45   28.52    2.02
   1  -8  45   29.92    2.51
   0   0   0    0.00    0.00
;
_shelx_hkl_checksum              63441
_shelx_res_file
;
TITL test in R-3c
    test.res
    created by SHELXL-2017/1 at 22:34:25 on 29-Jul-2018
CELL 0.71073  10.3982  10.3982  38.8582  90.000  90.000 120.000
ZERR   12.00   0.0015   0.0015   0.0078   0.000   0.000   0.000
LATT  3
SYMM -Y, X-Y, Z
SYMM -X+Y, -X, Z
SYMM Y, X, 0.5-Z
SYMM X-Y, -Y, 0.5-Z
SYMM -X, -X+Y, 0.5-Z
SFAC O RB MO AG IN
UNIT 144 24 36 12.12 11.96
L.S. 10
OMIT 0 0 6
OMIT -1 2 3
ACTA
BOND
SIZE 0.07 0.05 0.04
FMAP 2
PLAN 100
EXYZ IN AG3
EADP IN Ag3
SUMP 4 0 1 2 4 3
WGHT    0.028700
EXTI    0.000094
FVAR       0.01608   0.01159   0.99710
RB1   2    0.000000    0.000000    0.000000    10.16667    0.01313    0.01313 =
         0.02261    0.00000    0.00000    0.00657
RB2   2    0.295036    0.295036    0.250000    10.50000    0.04063    0.04063 =
         0.01584    0.00108   -0.00108    0.02896
MO    3    0.334065    0.330376    0.361610    11.00000    0.00968    0.00929 =
         0.00920   -0.00045   -0.00177    0.00425
AG1   4    0.000000    0.000000    0.086541    10.33333    0.02011    0.02011 =
         0.01383    0.00000    0.00000    0.01005
AG2   4    0.000000    0.000000    0.250000    20.16667    0.02963
IN    5    0.000000    0.000000    0.328425    30.33333    0.00919    0.00919 =
         0.00957    0.00000    0.00000    0.00459
AG3   4    0.000000    0.000000    0.328425   -30.33333    0.00919    0.00919 =
         0.00957    0.00000    0.00000    0.00459
O1    1    0.317179    0.491708    0.370396    11.00000    0.02212    0.01342 =
         0.01514    0.00054    0.00044    0.01047
O2    1    0.399194    0.345798    0.320062    11.00000    0.02096    0.02345 =
         0.01187    0.00128    0.00071    0.01154
O3    1    0.153208    0.165801    0.364280    11.00000    0.01382    0.01550 =
         0.01249   -0.00188   -0.00020    0.00372
O4    1    0.462560    0.331341    0.390765    11.00000    0.01610    0.02282 =
         0.01438   -0.00054   -0.00400    0.01064
HKLF 4
REM  test in R-3c
REM R1 =  0.0225 for     976 Fo > 4sig(Fo)  and  0.0326 for all    1212 data
REM     63 parameters refined using      1 restraints
END
WGHT      0.0287      0.0000
REM Highest difference peak  1.103,  deepest hole -1.454,  1-sigma level  0.223
Q1    1   0.3371  0.3786  0.2570  11.00000  0.05    1.10
Q2    1   0.3653  0.3321  0.3338  11.00000  0.05    0.97
Q3    1   0.0545 -0.0237  0.0917  11.00000  0.05    0.76
Q4    1   0.4230  0.5112  0.4089  11.00000  0.05    0.71
Q5    1   0.0000  0.0000  0.0202  10.33333  0.05    0.71
Q6    1   0.2911  0.1784  0.2559  11.00000  0.05    0.69
Q7    1   0.5399  0.4405  0.3121  11.00000  0.05    0.67
Q8    1   0.4547  0.2886  0.4115  11.00000  0.05    0.66
Q9    1  -0.0426  0.0423  0.3222  11.00000  0.05    0.64
Q10   1   0.1317  0.2583  0.3536  11.00000  0.05    0.63
Q11   1   0.3735  0.3991  0.3361  11.00000  0.05    0.60
Q12   1   0.5564  0.4353  0.3702  11.00000  0.05    0.58
Q13   1   0.2851  0.3880  0.3821  11.00000  0.05    0.55
Q14   1   0.2538  0.2937  0.3695  11.00000  0.05    0.54
Q15   1   0.2251  0.1738  0.3625  11.00000  0.05    0.53
Q16   1   0.4884  0.4925  0.3078  11.00000  0.05    0.53
Q17   1   0.3292  0.3461  0.2798  11.00000  0.05    0.52
Q18   1   0.0416  0.1824  0.3627  11.00000  0.05    0.51
Q19   1   0.0241 -0.0573  0.0049  11.00000  0.05    0.51
Q20   1   0.3796  0.3186  0.3907  11.00000  0.05    0.50
Q21   1   0.3670  0.5103  0.3563  11.00000  0.05    0.50
Q22   1   0.4578  0.4578  0.2500  10.50000  0.05    0.49
Q23   1   0.1687  0.1118  0.3673  11.00000  0.05    0.48
Q24   1  -0.0259  0.0656  0.0798  11.00000  0.05    0.48
Q25   1   0.1595 -0.0365  0.0815  11.00000  0.05    0.48
Q26   1   0.1686  0.2384  0.3619  11.00000  0.05    0.48
Q27   1   0.5327  0.4733  0.3734  11.00000  0.05    0.47
Q28   1   0.4691  0.1936  0.4134  11.00000  0.05    0.47
Q29   1   0.3883  0.2535  0.2513  11.00000  0.05    0.47
Q30   1   0.4300  0.3869  0.4217  11.00000  0.05    0.46
Q31   1   0.3923  0.1745  0.4156  11.00000  0.05    0.45
Q32   1   0.3333  0.2188  0.4167  10.50000  0.05    0.44
Q33   1   0.2895  0.2554  0.3916  11.00000  0.05    0.44
Q34   1   0.1898  0.1530  0.2541  11.00000  0.05    0.44
Q35   1   0.3757  0.4119  0.3721  11.00000  0.05    0.44
Q36   1   0.2764  0.3474  0.2712  11.00000  0.05    0.44
Q37   1   0.4752  0.5300  0.3583  11.00000  0.05    0.44
Q38   1   0.5246  0.3748  0.4171  11.00000  0.05    0.43
Q39   1   0.0434  0.0925  0.3328  11.00000  0.05    0.42
Q40   1   0.1392  0.4899  0.3655  11.00000  0.05    0.42
Q41   1   0.3429  0.4555  0.2538  11.00000  0.05    0.42
Q42   1   0.1667  0.3333  0.3333  10.50000  0.05    0.42
Q43   1   0.2912  0.3945  0.3580  11.00000  0.05    0.41
Q44   1   0.4629  0.3094  0.3034  11.00000  0.05    0.40
Q45   1   0.3826  0.2854  0.3673  11.00000  0.05    0.40
Q46   1   0.3333  0.2981  0.4167  10.50000  0.05    0.39
Q47   1   0.3817  0.4139  0.2749  11.00000  0.05    0.39
Q48   1   0.2272  0.4316  0.3735  11.00000  0.05    0.39
Q49   1   0.2096  0.3926  0.3613  11.00000  0.05    0.39
Q50   1   0.3333  0.4393  0.4167  10.50000  0.05    0.38
Q51   1   0.3036  0.2613  0.3525  11.00000  0.05    0.38
Q52   1   0.2481  0.4727  0.3662  11.00000  0.05    0.38
Q53   1   0.4563  0.5908  0.3493  11.00000  0.05    0.38
Q54   1   0.2985  0.3434  0.3899  11.00000  0.05    0.37
Q55   1   0.4474  0.3316  0.3298  11.00000  0.05    0.37
Q56   1   0.4477  0.4136  0.3289  11.00000  0.05    0.35
Q57   1   0.3113  0.2092  0.3128  11.00000  0.05    0.34
Q58   1   0.3226  0.3679  0.3135  11.00000  0.05    0.33
Q59   1   0.4218  0.3948  0.3530  11.00000  0.05    0.33
Q60   1   0.2682  0.1608  0.3734  11.00000  0.05    0.32
Q61   1   0.2842  0.3501  0.2992  11.00000  0.05    0.31
Q62   1   0.4825  0.2950  0.3546  11.00000  0.05    0.31
Q63   1   0.3793  0.4858  0.3018  11.00000  0.05    0.31
Q64   1   0.2164  0.0911  0.3733  11.00000  0.05    0.31
Q65   1   0.5150  0.4349  0.4232  11.00000  0.05    0.30
Q66   1   0.2579  0.2787  0.2825  11.00000  0.05    0.30
Q67   1   0.3096  0.4347  0.3196  11.00000  0.05    0.30
Q68   1   0.1282  0.3489  0.3767  11.00000  0.05    0.29
Q69   1  -0.0411  0.0215  0.0582  11.00000  0.05    0.28
Q70   1   0.4549  0.3692  0.4032  11.00000  0.05    0.28
Q71   1   0.4225  0.3758  0.2713  11.00000  0.05    0.27
Q72   1  -0.1393 -0.1794  0.0825  11.00000  0.05    0.26
Q73   1   0.3019  0.1565  0.3261  11.00000  0.05    0.26
Q74   1   0.3070  0.2678  0.3008  11.00000  0.05    0.26
Q75   1   0.4495  0.4729  0.2807  11.00000  0.05    0.26
Q76   1   0.3958  0.2901  0.3177  11.00000  0.05    0.24
Q77   1   0.3183  0.5585  0.3785  11.00000  0.05    0.23
Q78   1   0.3829  0.3077  0.2918  11.00000  0.05    0.22
Q79   1   0.3653  0.2619  0.2804  11.00000  0.05    0.21
Q80   1   0.0000  0.0000  0.2775  10.33333  0.05    0.21
Q81   1   0.4025  0.4482  0.3185  11.00000  0.05    0.20
Q82   1   0.1736  0.4759  0.3827  11.00000  0.05    0.19
Q83   1   0.3706  0.1636  0.3809  11.00000  0.05    0.19
Q84   1   0.2712  0.3929  0.4018  11.00000  0.05    0.18
Q85   1   0.0760  0.1517  0.0076  11.00000  0.05    0.18
Q86   1   0.2277  0.2748  0.3918  11.00000  0.05    0.17
Q87   1   0.3492  0.3823  0.4027  11.00000  0.05    0.16
Q88   1   0.3873  0.3951  0.2989  11.00000  0.05    0.16
Q89   1   0.0135  0.1637  0.1089  11.00000  0.05    0.15
Q90   1   0.0000  0.0000  0.1176  10.33333  0.05    0.13
Q91   1   0.1071  0.0185  0.3711  11.00000  0.05    0.10
Q92   1   0.0000  0.0000  0.0503  10.33333  0.05    0.09
Q93   1   0.1393  0.0180  0.0172  11.00000  0.05    0.09
Q94   1   0.4254  0.4478  0.3931  11.00000  0.05    0.09
Q95   1   0.0376 -0.0243  0.2632  11.00000  0.05    0.08
Q96   1  -0.0277  0.0528  0.1125  11.00000  0.05    0.05
;
_shelx_res_checksum              54555
loop_
_symmetry_equiv_pos_as_xyz
'x, y, z'
'-y, x-y, z'
'-x+y, -x, z'
'y, x, -z+1/2'
'x-y, -y, -z+1/2'
'-x, -x+y, -z+1/2'
'x+2/3, y+1/3, z+1/3'
'-y+2/3, x-y+1/3, z+1/3'
'-x+y+2/3, -x+1/3, z+1/3'
'y+2/3, x+1/3, -z+5/6'
'x-y+2/3, -y+1/3, -z+5/6'
'-x+2/3, -x+y+1/3, -z+5/6'
'x+1/3, y+2/3, z+2/3'
'-y+1/3, x-y+2/3, z+2/3'
'-x+y+1/3, -x+2/3, z+2/3'
'y+1/3, x+2/3, -z+7/6'
'x-y+1/3, -y+2/3, -z+7/6'
'-x+1/3, -x+y+2/3, -z+7/6'
'-x, -y, -z'
'y, -x+y, -z'
'x-y, x, -z'
'-y, -x, z-1/2'
'-x+y, y, z-1/2'
'x, x-y, z-1/2'
'-x+2/3, -y+1/3, -z+1/3'
'y+2/3, -x+y+1/3, -z+1/3'
'x-y+2/3, x+1/3, -z+1/3'
'-y+2/3, -x+1/3, z-1/6'
'-x+y+2/3, y+1/3, z-1/6'
'x+2/3, x-y+1/3, z-1/6'
'-x+1/3, -y+2/3, -z+2/3'
'y+1/3, -x+y+2/3, -z+2/3'
'x-y+1/3, x+2/3, -z+2/3'
'-y+1/3, -x+2/3, z+1/6'
'-x+y+1/3, y+2/3, z+1/6'
'x+1/3, x-y+2/3, z+1/6'
loop_
_atom_site_type_symbol
_atom_site_label
_atom_site_fract_x
_atom_site_fract_y
_atom_site_fract_z
_atom_site_U_iso_or_equiv
_atom_site_adp_type
_atom_site_calc_flag
_atom_site_occupancy
Rb Rb1 0.000000 0.000000 0.000000 0.01629(18) Uani d 1
Rb Rb2 0.29504(7) 0.29504(7) 0.250000 0.02853(15) Uani d 1
Mo Mo 0.33406(3) 0.33038(3) 0.36161(2) 0.00961(9) Uani d 1
Ag Ag1 0.000000 0.000000 0.08654(2) 0.01801(13) Uani d 1
Ag Ag2 0.000000 0.000000 0.250000 0.030(18) Uiso d 0.012(2)
In In 0.000000 0.000000 0.32843(2) 0.00931(11) Uani d 0.9971(6)
Ag Ag3 0.000000 0.000000 0.32843(2) 0.00931(11) Uani d 0.0029(6)
O O1 0.3172(3) 0.4917(3) 0.37040(7) 0.0162(5) Uani d 1
O O2 0.3992(3) 0.3458(3) 0.32006(7) 0.0186(5) Uani d 1
O O3 0.1532(3) 0.1658(3) 0.36428(6) 0.0155(5) Uani d 1
O O4 0.4626(3) 0.3313(3) 0.39077(7) 0.0174(5) Uani d 1
loop_
_atom_site_aniso_label
_atom_site_aniso_U_11
_atom_site_aniso_U_22
_atom_site_aniso_U_33
_atom_site_aniso_U_12
_atom_site_aniso_U_13
_atom_site_aniso_U_23
Rb1 0.0131(2) 0.0131(2) 0.0226(5) 0.00657(12) 0.000 0.000
Rb2 0.0406(3) 0.0406(3) 0.0158(3) 0.0290(3) -0.00108(10) 0.00108(10)
Mo 0.00968(15) 0.00929(15) 0.00920(16) 0.00425(11) -0.00177(9) -0.00045(9)
Ag1 0.02011(18) 0.02011(18) 0.0138(3) 0.01005(9) 0.000 0.000
In 0.00919(14) 0.00919(14) 0.0096(2) 0.00459(7) 0.000 0.000
Ag3 0.00919(14) 0.00919(14) 0.0096(2) 0.00459(7) 0.000 0.000
O1 0.0221(13) 0.0134(12) 0.0151(13) 0.0105(11) 0.0004(10) 0.0005(9)
O2 0.0210(13) 0.0235(13) 0.0119(13) 0.0115(11) 0.0007(10) 0.0013(10)
O3 0.0138(12) 0.0155(12) 0.0125(12) 0.0037(10) -0.0002(9) -0.0019(9)
O4 0.0161(12) 0.0228(13) 0.0144(13) 0.0106(11) -0.0040(9) -0.0005(10)
loop_
_atom_type_symbol
_atom_type_description
_atom_type_scat_dispersion_real
_atom_type_scat_dispersion_imag
_atom_type_scat_source
O O 0.0106 0.0060 'International Tables Vol C Tables 4.2.6.8 and 6.1.1.4'
Rb Rb -0.9393 2.9676 'International Tables Vol C Tables 4.2.6.8 and 6.1.1.4'
Mo Mo -1.6832 0.6857 'International Tables Vol C Tables 4.2.6.8 and 6.1.1.4'
Ag Ag -0.8971 1.1015 'International Tables Vol C Tables 4.2.6.8 and 6.1.1.4'
In In -0.7276 1.3100 'International Tables Vol C Tables 4.2.6.8 and 6.1.1.4'
loop_
_geom_angle_atom_site_label_1
_geom_angle_atom_site_label_2
_geom_angle_atom_site_label_3
_geom_angle_site_symmetry_1
_geom_angle_site_symmetry_3
_geom_angle
O2 Rb1 O2 27_445 15_554 180.00(14)
O2 Rb1 O2 27_445 26_455 116.90(3)
O2 Rb1 O2 15_554 26_455 63.10(3)
O2 Rb1 O2 27_445 14_544 63.10(3)
O2 Rb1 O2 15_554 14_544 116.90(3)
O2 Rb1 O2 26_455 14_544 180.00(10)
O2 Rb1 O2 27_445 25 116.90(3)
O2 Rb1 O2 15_554 25 63.10(3)
O2 Rb1 O2 26_455 25 116.90(3)
O2 Rb1 O2 14_544 25 63.10(3)
O2 Rb1 O2 27_445 13_444 63.10(3)
O2 Rb1 O2 15_554 13_444 116.90(3)
O2 Rb1 O2 26_455 13_444 63.10(3)
O2 Rb1 O2 14_544 13_444 116.90(3)
O2 Rb1 O2 25 13_444 180.00(14)
O2 Rb1 O4 27_445 25 119.69(7)
O2 Rb1 O4 15_554 25 60.31(7)
O2 Rb1 O4 26_455 25 116.05(7)
O2 Rb1 O4 14_544 25 63.95(7)
O2 Rb1 O4 25 25 56.90(7)
O2 Rb1 O4 13_444 25 123.10(7)
O2 Rb1 O4 27_445 13_444 60.31(7)
O2 Rb1 O4 15_554 13_444 119.69(7)
O2 Rb1 O4 26_455 13_444 63.95(7)
O2 Rb1 O4 14_544 13_444 116.05(7)
O2 Rb1 O4 25 13_444 123.10(7)
O2 Rb1 O4 13_444 13_444 56.90(7)
O4 Rb1 O4 25 13_444 180.00(16)
O2 Rb1 O4 27_445 27_445 56.89(7)
O2 Rb1 O4 15_554 27_445 123.11(7)
O2 Rb1 O4 26_455 27_445 119.69(7)
O2 Rb1 O4 14_544 27_445 60.31(7)
O2 Rb1 O4 25 27_445 116.05(7)
O2 Rb1 O4 13_444 27_445 63.95(7)
O4 Rb1 O4 25 27_445 73.07(7)
O4 Rb1 O4 13_444 27_445 106.93(7)
O2 Rb1 O4 27_445 15_554 123.11(7)
O2 Rb1 O4 15_554 15_554 56.89(7)
O2 Rb1 O4 26_455 15_554 60.31(7)
O2 Rb1 O4 14_544 15_554 119.69(7)
O2 Rb1 O4 25 15_554 63.95(7)
O2 Rb1 O4 13_444 15_554 116.05(7)
O4 Rb1 O4 25 15_554 106.93(7)
O4 Rb1 O4 13_444 15_554 73.07(7)
O4 Rb1 O4 27_445 15_554 180.00(12)
O2 Rb1 O4 27_445 26_455 116.05(7)
O2 Rb1 O4 15_554 26_455 63.95(7)
O2 Rb1 O4 26_455 26_455 56.89(7)
O2 Rb1 O4 14_544 26_455 123.11(7)
O2 Rb1 O4 25 26_455 119.69(7)
O2 Rb1 O4 13_444 26_455 60.31(7)
O4 Rb1 O4 25 26_455 73.07(7)
O4 Rb1 O4 13_444 26_455 106.93(7)
O4 Rb1 O4 27_445 26_455 73.07(7)
O4 Rb1 O4 15_554 26_455 106.93(7)
O2 Rb1 O4 27_445 14_544 63.95(7)
O2 Rb1 O4 15_554 14_544 116.05(7)
O2 Rb1 O4 26_455 14_544 123.11(7)
O2 Rb1 O4 14_544 14_544 56.89(7)
O2 Rb1 O4 25 14_544 60.31(7)
O2 Rb1 O4 13_444 14_544 119.69(7)
O4 Rb1 O4 25 14_544 106.93(7)
O4 Rb1 O4 13_444 14_544 73.07(7)
O4 Rb1 O4 27_445 14_544 106.93(7)
O4 Rb1 O4 15_554 14_544 73.07(7)
O4 Rb1 O4 26_455 14_544 180.00(11)
O2 Rb2 O2 4 . 147.51(11)
O2 Rb2 O1 4 28 73.47(7)
O2 Rb2 O1 . 28 131.26(7)
O2 Rb2 O1 4 31 131.26(7)
O2 Rb2 O1 . 31 73.47(7)
O1 Rb2 O1 28 31 95.84(9)
O2 Rb2 O4 4 33_545 117.11(7)
O2 Rb2 O4 . 33_545 62.67(7)
O1 Rb2 O4 28 33_545 75.49(6)
O1 Rb2 O4 31 33_545 104.99(6)
O2 Rb2 O4 4 30_455 62.67(7)
O2 Rb2 O4 . 30_455 117.11(7)
O1 Rb2 O4 28 30_455 104.99(6)
O1 Rb2 O4 31 30_455 75.49(6)
O4 Rb2 O4 33_545 30_455 179.31(9)
O2 Rb2 O1 4 30_455 66.84(7)
O2 Rb2 O1 . 30_455 141.58(7)
O1 Rb2 O1 28 30_455 55.79(8)
O1 Rb2 O1 31 30_455 68.13(8)
O4 Rb2 O1 33_545 30_455 128.52(6)
O4 Rb2 O1 30_455 30_455 52.10(6)
O2 Rb2 O1 4 33_545 141.58(7)
O2 Rb2 O1 . 33_545 66.83(7)
O1 Rb2 O1 28 33_545 68.13(8)
O1 Rb2 O1 31 33_545 55.79(8)
O4 Rb2 O1 33_545 33_545 52.10(6)
O4 Rb2 O1 30_455 33_545 128.52(6)
O1 Rb2 O1 30_455 33_545 91.56(9)
O2 Rb2 O4 4 32 94.21(7)
O2 Rb2 O4 . 32 54.78(7)
O1 Rb2 O4 28 32 128.05(6)
O1 Rb2 O4 31 32 126.13(6)
O4 Rb2 O4 33_545 32 65.86(8)
O4 Rb2 O4 30_455 32 113.45(3)
O1 Rb2 O4 30_455 32 159.60(6)
O1 Rb2 O4 33_545 32 108.52(6)
O2 Rb2 O4 4 29 54.78(7)
O2 Rb2 O4 . 29 94.21(7)
O1 Rb2 O4 28 29 126.13(6)
O1 Rb2 O4 31 29 128.05(6)
O4 Rb2 O4 33_545 29 113.45(3)
O4 Rb2 O4 30_455 29 65.86(8)
O1 Rb2 O4 30_455 29 108.52(6)
O1 Rb2 O4 33_545 29 159.60(6)
O4 Rb2 O4 32 29 51.76(8)
O2 Rb2 O3 4 31 111.56(7)
O2 Rb2 O3 . 31 63.79(7)
O1 Rb2 O3 28 31 142.64(6)
O1 Rb2 O3 31 31 51.89(6)
O4 Rb2 O3 33_545 31 125.96(6)
O4 Rb2 O3 30_455 31 53.92(6)
O1 Rb2 O3 30_455 31 91.00(6)
O1 Rb2 O3 33_545 31 99.64(6)
O4 Rb2 O3 32 31 89.15(6)
O4 Rb2 O3 29 31 77.07(6)
O2 Mo O4 . . 110.01(12)
O2 Mo O1 . . 107.85(12)
O4 Mo O1 . . 107.54(11)
O2 Mo O3 . . 108.43(12)
O4 Mo O3 . . 113.53(11)
O1 Mo O3 . . 109.33(11)
O4 Ag1 O4 13_444 15_554 99.53(8)
O4 Ag1 O4 13_444 14_544 99.53(8)
O4 Ag1 O4 15_554 14_544 99.53(8)
O4 Ag1 O3 13_444 4 133.09(8)
O4 Ag1 O3 15_554 4 77.25(8)
O4 Ag1 O3 14_544 4 127.32(8)
O4 Ag1 O3 13_444 6 77.26(8)
O4 Ag1 O3 15_554 6 127.32(8)
O4 Ag1 O3 14_544 6 133.09(8)
O3 Ag1 O3 4 6 69.28(9)
O4 Ag1 O3 13_444 5 127.32(8)
O4 Ag1 O3 15_554 5 133.09(8)
O4 Ag1 O3 14_544 5 77.25(8)
O3 Ag1 O3 4 5 69.28(9)
O3 Ag1 O3 6 5 69.28(9)
O1 Ag2 O1 31 28 133.22(11)
O1 Ag2 O1 31 29_445 145.53(11)
O1 Ag2 O1 28 29_445 74.10(9)
O1 Ag2 O1 31 32_445 74.10(9)
O1 Ag2 O1 28 32_445 145.53(11)
O1 Ag2 O1 29_445 32_445 92.21(11)
O1 Ag2 O1 31 33_545 74.10(9)
O1 Ag2 O1 28 33_545 92.21(11)
O1 Ag2 O1 29_445 33_545 133.22(11)
O1 Ag2 O1 32_445 33_545 74.10(9)
O1 Ag2 O1 31 30_455 92.21(11)
O1 Ag2 O1 28 30_455 74.10(9)
O1 Ag2 O1 29_445 30_455 74.10(9)
O1 Ag2 O1 32_445 30_455 133.22(11)
O1 Ag2 O1 33_545 30_455 145.53(11)
O1 In O1 31 32_445 89.43(10)
O1 In O1 31 33_545 89.43(10)
O1 In O1 32_445 33_545 89.43(10)
O1 In O3 31 . 89.15(10)
O1 In O3 32_445 . 171.90(9)
O1 In O3 33_545 . 98.53(10)
O1 In O3 31 3 171.89(9)
O1 In O3 32_445 3 98.53(10)
O1 In O3 33_545 3 89.15(9)
O3 In O3 . 3 83.17(10)
O1 In O3 31 2 98.53(10)
O1 In O3 32_445 2 89.15(10)
O1 In O3 33_545 2 171.89(9)
O3 In O3 . 2 83.17(10)
O3 In O3 3 2 83.17(10)
Mo O1 In . 31 132.54(14)
Mo O1 Ag2 . 31 144.02(13)
In O1 Ag2 31 31 81.58(8)
Mo O1 Rb2 . 31 104.00(10)
In O1 Rb2 31 31 109.94(9)
Ag2 O1 Rb2 31 31 65.47(6)
Mo O1 Rb2 . 32 95.18(9)
In O1 Rb2 31 32 102.02(8)
Ag2 O1 Rb2 31 32 61.45(5)
Rb2 O1 Rb2 31 32 111.39(8)
Mo O2 Rb2 . . 140.60(13)
Mo O2 Rb1 . 7 99.80(11)
Rb2 O2 Rb1 . 7 116.23(9)
Mo O3 In . . 136.03(13)
Mo O3 Ag1 . 4 133.73(12)
In O3 Ag1 . 4 88.95(8)
Mo O3 Rb2 . 31 88.09(8)
In O3 Rb2 . 31 120.70(9)
Ag1 O3 Rb2 4 31 72.08(6)
Mo O4 Ag1 . 7 167.77(14)
Mo O4 Rb1 . 7 93.02(10)
Ag1 O4 Rb1 7 7 74.75(7)
Mo O4 Rb2 . 32 101.83(10)
Ag1 O4 Rb2 7 32 81.31(7)
Rb1 O4 Rb2 7 32 103.19(7)
Mo O4 Rb2 . 33_545 107.77(10)
Ag1 O4 Rb2 7 33_545 74.20(6)
Rb1 O4 Rb2 7 33_545 95.75(7)
Rb2 O4 Rb2 32 33_545 143.76(8)
loop_
_geom_bond_atom_site_label_1
_geom_bond_atom_site_label_2
_geom_bond_site_symmetry_2
_geom_bond_distance
Rb1 O2 27_445 2.895(3)
Rb1 O2 15_554 2.895(3)
Rb1 O2 26_455 2.895(3)
Rb1 O2 14_544 2.895(3)
Rb1 O2 25 2.895(3)
Rb1 O2 13_444 2.895(3)
Rb1 O4 25 3.072(3)
Rb1 O4 13_444 3.072(3)
Rb1 O4 27_445 3.073(3)
Rb1 O4 15_554 3.073(3)
Rb1 O4 26_455 3.073(3)
Rb1 O4 14_544 3.073(3)
Rb2 O2 4 2.880(3)
Rb2 O2 . 2.880(3)
Rb2 O1 28 3.095(3)
Rb2 O1 31 3.095(3)
Rb2 O4 33_545 3.183(3)
Rb2 O4 30_455 3.183(3)
Rb2 O1 30_455 3.336(2)
Rb2 O1 33_545 3.336(2)
Rb2 O4 32 3.525(3)
Rb2 O4 29 3.525(3)
Rb2 O3 31 3.565(2)
Mo O2 . 1.727(3)
Mo O4 . 1.748(2)
Mo O1 . 1.804(2)
Mo O3 . 1.805(2)
Ag1 O4 13_444 2.396(2)
Ag1 O4 15_554 2.396(2)
Ag1 O4 14_544 2.396(2)
Ag1 O3 4 2.533(2)
Ag1 O3 6 2.533(2)
Ag1 O3 5 2.533(2)
Ag2 O1 28 2.503(3)
Ag2 O1 29_445 2.503(3)
Ag2 O1 32_445 2.503(3)
Ag2 O1 33_545 2.503(3)
Ag2 O1 30_455 2.503(3)
Ag2 In 4 3.0473(7)
Ag2 In . 3.0475(8)
In O1 31 2.143(2)
In O1 32_445 2.143(2)
In O1 33_545 2.143(2)
In O3 . 2.169(2)
In O3 3 2.169(2)
In O3 2 2.169(2)

_cod_database_fobs_code 2021333
