#------------------------------------------------------------------------------
#$Date: 2018-03-16 08:56:52 +0200 (Fri, 16 Mar 2018) $
#$Revision: 206978 $
#$URL: file:///home/coder/svn-repositories/cod/cif/2/02/10/2021055.cif $
#------------------------------------------------------------------------------
#
# This file is available in the Crystallography Open Database (COD),
# http://www.crystallography.net/. The original data for this entry
# were provided by IUCr Journals, http://journals.iucr.org/.
#
# The file may be used within the scientific community so long as
# proper attribution is given to the journal article from which the
# data were obtained.
#
data_2021055
loop_
_publ_author_name
'Tokuda, Makoto'
'Yoshiasa, Akira'
'Mashimo, Tsutomu'
'Iishi, Kazuake'
'Nakatsuka, Akihiko'
_publ_section_title
;
 The vanadate garnet Ca~2~NaCd~2~V~3~O~12~: a single-crystal X-ray
 diffraction study
;
_journal_coeditor_code           UK3150
_journal_issue                   4
_journal_name_full               'Acta Crystallographica Section C'
_journal_page_first
;
;
_journal_paper_doi               10.1107/S2053229618003741
_journal_volume                  74
_journal_year                    2018
_chemical_formula_iupac          'Ca2 Na Cd2 V3 O12'
_chemical_formula_moiety         '0.13(Ca16 Cd16 Na8 O96 V24)'
_chemical_formula_sum            'Ca2 Cd2 Na O12 V3'
_chemical_formula_weight         672.77
_chemical_name_systematic
;
Dicalcium sodium dicadmium trivanadate
;
_space_group_crystal_system      cubic
_space_group_IT_number           230
_space_group_name_Hall           '-I 4bd 2c 3'
_space_group_name_H-M_alt        'I a -3 d'
_symmetry_space_group_name_Hall  '-I 4bd 2c 3'
_symmetry_space_group_name_H-M   'I a -3 d'
_audit_creation_method           SHELXL-2016/6
_cell_angle_alpha                90
_cell_angle_beta                 90
_cell_angle_gamma                90
_cell_formula_units_Z            8
_cell_length_a                   12.75760(10)
_cell_length_b                   12.75760(10)
_cell_length_c                   12.75760(10)
_cell_measurement_reflns_used    6959
_cell_measurement_temperature    293(2)
_cell_measurement_theta_max      55.2950
_cell_measurement_theta_min      2.2370
_cell_volume                     2076.38(3)
_computing_cell_refinement       '<b>Software for cell refinement?</b>'
_computing_data_collection       '<b>Software for data collection?</b>'
_computing_data_reduction        '<b>Software for data reduction?</b>'
_computing_molecular_graphics    '<b>Software for molecular graphics?</b>'
_computing_structure_refinement
;
SHELXL2016 (Sheldrick, 2015b)
;
_computing_structure_solution
;
<i>OLEX2</i> (Dolomanov <i>et al.</i>, 2009) and SHELXT2014 (Sheldrick,
2015a)
;
_diffrn_ambient_temperature      293(2)
_diffrn_measured_fraction_theta_full 1.000
_diffrn_measured_fraction_theta_max 1.000
_diffrn_measurement_device       'four-circle diffractometer'
_diffrn_measurement_device_type
;
Rigaku SuperNova Single source diffractometer with an HyPix3000 area detector
;
_diffrn_measurement_method       '\w scans'
_diffrn_radiation_type           MoK\a
_diffrn_radiation_wavelength     0.71073
_diffrn_reflns_av_R_equivalents  0.0156
_diffrn_reflns_limit_h_max       19
_diffrn_reflns_limit_h_min       -22
_diffrn_reflns_limit_k_max       18
_diffrn_reflns_limit_k_min       -25
_diffrn_reflns_limit_l_max       25
_diffrn_reflns_limit_l_min       -24
_diffrn_reflns_number            8486
_diffrn_reflns_theta_full        25.242
_diffrn_reflns_theta_max         44.982
_diffrn_reflns_theta_min         3.912
_exptl_absorpt_coefficient_mu    7.723
_exptl_absorpt_correction_T_max  0.53311
_exptl_absorpt_correction_T_min  0.50557
_exptl_absorpt_correction_type   sphere
_exptl_crystal_colour            orange
_exptl_crystal_density_diffrn    4.304
_exptl_crystal_description       sphere
_exptl_crystal_F_000             2496
_exptl_crystal_size_max          0.120
_exptl_crystal_size_mid          0.120
_exptl_crystal_size_min          0.120
_exptl_crystal_size_rad          0.060
_refine_diff_density_max         0.608
_refine_diff_density_min         -1.598
_refine_ls_extinction_coef       0.00177(9)
_refine_ls_extinction_expression Fc^*^=kFc[1+0.001xFc^2^\l^3^/sin(2\q)]^-1/4^
_refine_ls_extinction_method
;
SHELXL2016 (Sheldrick, 2015b)
;
_refine_ls_goodness_of_fit_ref   1.166
_refine_ls_hydrogen_treatment    undef
_refine_ls_matrix_type           full
_refine_ls_number_parameters     22
_refine_ls_number_reflns         719
_refine_ls_number_restraints     2
_refine_ls_restrained_S_all      1.167
_refine_ls_R_factor_all          0.0175
_refine_ls_R_factor_gt           0.0163
_refine_ls_shift/su_max          0.000
_refine_ls_shift/su_mean         0.000
_refine_ls_structure_factor_coef Fsqd
_refine_ls_weighting_details
'w=1/[\s^2^(Fo^2^)+(0.0240P)^2^+1.8500P] where P=(Fo^2^+2Fc^2^)/3'
_refine_ls_weighting_scheme      calc
_refine_ls_wR_factor_gt          0.0539
_refine_ls_wR_factor_ref         0.0546
_reflns_number_gt                675
_reflns_number_total             719
_reflns_threshold_expression     'I > 2\s(I)'
_cod_data_source_file            uk3150sup1.cif
_cod_data_source_block           I
_cod_original_cell_volume        2076.38(5)
_cod_database_code               2021055
_shelx_space_group_comment
;
The symmetry employed for this shelxl refinement is uniquely defined
by the following loop, which should always be used as a source of
symmetry information in preference to the above space-group names.
They are only intended as comments.
;
_shelx_hkl_file
;
  -1  -1   0    0.02    0.05
   1   0  -1   -0.01    0.05
  -1   0   1    0.12    0.06
   0   1   1    0.01    0.04
   1   1   0    0.12    0.07
   0  -1  -1    0.16    0.07
  -1   1   0    0.11    0.07
   0   2   0    0.46    0.13
  -2   0   0    0.55    0.12
   2   0   0    0.09    0.08
   2   1   1  121.83    2.28
   2   1  -1  118.20    1.93
   2  -1   1  116.33    1.88
  -2   1  -1  123.77    1.89
   1   2  -1  126.11    2.22
   2  -1  -1  116.44    2.26
   1  -1  -2  118.52    2.33
  -2  -1  -1  123.12    2.28
  -1   1   2  118.84    2.32
   1  -2  -1  110.39    2.28
  -2   1   1  120.96    2.29
  -1   2   1  118.63    2.32
  -1  -2   1  117.56    2.15
  -1  -2  -1  114.13    1.98
   1   2   1  120.04    1.99
   2   0  -2 2098.26   27.59
   0   2   2 2122.25   27.69
  -2  -2   0 2135.24   27.79
  -2   2   0 2114.03   27.89
  -2   0   2 2161.16   27.62
   2   2   0 2178.04   27.75
   2  -2  -2    2.86    0.35
  -2  -2  -2    3.40    0.28
  -3   0  -1    0.17    0.12
  -1  -3   0    0.12    0.11
  -1   3   0    0.14    0.13
   1   3   0    0.09    0.09
   0  -3  -1    0.26    0.13
  -3  -1   0    0.03    0.09
   1   0  -3    0.26    0.13
   3   1   0    0.23    0.14
  -3   1   0    0.33    0.16
   3   0   1    0.50    0.15
   3   0  -1    0.08    0.10
  -3   0   1    0.12    0.09
   0  -1  -3    0.08    0.11
   0   3  -1    0.06    0.08
   0  -3   1    0.12    0.08
   3   2  -1   77.69    1.40
  -1  -2  -3   77.35    1.90
  -2   3   1   81.82    2.11
  -3  -2  -1   81.63    2.04
  -1   3  -2   77.55    1.33
  -2  -3   1   80.09    1.95
   1   3   2   80.10    1.82
   2   3  -1   80.27    1.96
   3   1  -2   77.69    1.73
   2  -3  -1   81.28    2.08
  -2  -3  -1   78.45    2.00
   3   2   1   82.20    2.07
  -3   2   1   80.44    2.06
  -3  -1  -2   81.69    1.97
  -3   1  -2   79.74    1.63
  -1  -3  -2   81.25    1.83
  -2  -3  -1   77.68    1.49
  -3   1   2   77.74    1.97
  -3  -2   1   82.14    2.03
   3  -1  -2   77.92    1.96
   1  -2  -3   75.61    2.00
   1  -3  -2   77.94    2.03
  -2   1   3   79.82    2.04
  -1   2   3   82.13    2.08
   2  -1  -3   78.36    2.02
   1   3  -2   78.75    1.79
   2   3   1   77.41    1.49
   3  -2   1   76.24    1.44
   3  -2  -1   79.11    2.02
  -1   3   2   79.57    2.03
   3   2  -1   83.29    2.06
   3   3   0    0.48    0.20
   0  -3  -3    0.03    0.15
  -3   0   3    0.30    0.15
  -3  -3   0    0.40    0.18
   3   0  -3    0.20    0.14
  -3   3   0    0.04    0.16
   0   3   3    0.03    0.12
  -2   3   3  938.20   13.59
  -2  -3  -3  910.81   12.97
  -3   2   3  918.73   13.55
   3   3  -2  972.63   13.46
   3  -2  -3  954.13   13.59
  -3  -3  -2  944.86   12.50
  -3   3   2  920.18   13.65
   3  -3  -2  926.14   13.59
  -3  -3  -2  950.33   13.61
   2  -3  -3  885.55   13.55
  -4   0   0 8676.47  111.24
   4   0   0 8666.68  111.58
   0   4   0 8920.94  111.57
   0  -4   0 8849.41  111.23
   4   1   1    0.07    0.15
  -1   4   1    0.29    0.16
   1   4   1    0.41    0.15
   4  -1   1    0.16    0.12
  -1  -4  -1    0.43    0.16
  -1  -4   1    0.14    0.11
   1   4  -1    0.11    0.11
   1  -1  -4    0.11    0.15
  -4  -1  -1    0.17    0.13
   4   1  -1    1.60    0.28
  -4  -1   1    0.96    0.16
  -4   1  -1    0.12    0.12
   4  -1  -1    0.15    0.12
   4   1  -1    0.11    0.10
   1  -4  -1    0.39    0.18
   1  -4   1    0.07    0.08
  -4   1   1    1.74    0.27
   0  -2  -4 3223.70   43.11
  -2  -4   0 3255.64   42.95
   0  -4  -2 3275.34   42.88
  -4   0  -2 3294.30   42.66
   0   4  -2 3303.87   42.22
   2   0  -4 3194.18   43.08
   2   4   0 3298.75   42.16
  -4  -2   0 3305.37   43.13
  -2   4   0 3361.34   43.29
  -4   0   2 3274.49   42.70
  -4   2   0 3204.50   43.09
   4   2   0 3342.55   43.11
   0   4   2 3261.10   42.87
   2   4   0 3419.38   43.07
   4   0  -2 3305.49   42.68
   2   4   2 6810.20   86.10
  -4   2  -2 6695.56   85.79
  -2   2   4 6581.61   86.99
   2   4  -2 6644.99   86.57
  -4  -2  -2 6923.30   86.93
   4   2  -2 6814.21   85.95
   4  -2   2 6572.12   85.79
   4  -2  -2 6960.30   86.89
  -2  -2  -4 6696.88   86.70
   4   2  -2 6915.02   86.87
   2  -2  -4 6858.15   87.01
  -2   4   2 6762.18   87.08
  -4   2   2 6864.92   86.94
  -2  -4  -2 6792.73   86.13
   2  -4  -2 6928.87   87.07
   4   3   1  307.18    5.62
  -4  -3  -1  295.55    5.57
  -4  -3   1  301.62    5.55
   1  -4  -3  309.68    5.61
   4  -1  -3  316.76    5.53
  -3  -4  -1  320.52    5.66
  -1  -3  -4  309.81    5.47
   3   4   1  306.88    4.44
   4  -3   1  302.30    4.56
   1   4  -3  308.43    5.06
   1   4   3  306.64    5.30
  -1   4  -3  314.17    4.52
  -4  -1  -3  311.87    5.43
  -3  -4   1  315.81    5.55
   3   4  -1  304.98    5.48
  -3   1   4  305.85    5.60
  -1  -4  -3  310.38    5.33
   4   1  -3  304.23    5.17
  -4   3   1  318.25    5.76
   4   3  -1  311.13    5.57
   4   3  -1  304.25    4.31
   3   1  -4  299.02    5.38
  -4   1   3  307.60    5.51
  -4   1  -3  310.57    4.95
   1  -3  -4  305.47    5.62
   4  -3  -1  307.02    5.60
  -3  -4  -1  306.65    4.46
   3  -1  -4  310.71    5.57
  -3   4   1  310.09    5.74
   3  -4  -1  298.30    5.64
  -1   3   4  304.69    5.63
  -1   4   3  299.99    5.55
  -4  -3  -3    0.20    0.21
   4   3  -3    0.09    0.15
   3  -3  -4    0.16    0.19
   3  -4  -3    0.05    0.15
  -3   3   4    0.05    0.15
  -4   3   3    0.16    0.20
  -3  -4  -3    0.81    0.21
   4   3  -3    0.39    0.17
  -4   3  -3    0.43    0.10
  -4  -3  -3    0.17    0.11
   4  -3  -3   -0.05    0.15
  -3   4   3    0.05    0.15
   3   4  -3    0.04    0.15
  -4  -4   0 1384.05   19.66
   4   0  -4 1383.81   19.39
   0  -4  -4 1363.97   19.53
  -4   4   0 1426.71   19.96
  -4   0   4 1386.49   19.47
   0   4   4 1382.61   19.57
   4   4   0 1411.01   19.66
  -4   4   2    7.05    0.71
  -2   4   4    9.00    0.78
   2  -4  -4    1.02    0.31
   4   4  -2    4.03    0.51
  -2  -4  -4   11.92    0.77
  -4   2  -4    5.18    0.40
   4   2  -4   19.98    0.98
   4  -4  -2    0.70    0.30
   4  -4  -4  238.50    5.09
   4   4  -4  219.88    4.71
  -4   4   4  219.84    5.01
  -4  -4  -4  246.95    4.32
  -5   0   1   -0.03    0.11
   0   5   1    0.43    0.20
   5   1   0    0.12    0.15
  -1  -5   0    0.39    0.19
  -1   5   0    0.09    0.15
   5   0   1    0.18    0.16
   5  -1   0    0.03    0.12
  -5   1   0    0.15    0.14
   5   0  -1    1.74    0.31
   0  -5  -1    1.63    0.30
   5   0  -1    0.50    0.18
   0  -5   1    2.17    0.27
  -5   0  -1    0.07    0.12
   0  -1  -5    0.14    0.14
  -5   0  -1    0.71    0.18
   1   5   0    0.61    0.19
  -5  -1   0    1.11    0.27
  -5  -2   1   67.55    1.41
   2  -1  -5   64.54    2.13
   1  -5   2   63.13    1.38
  -1  -2  -5   64.36    2.04
  -1  -5  -2   68.25    1.91
   2   5   1   63.59    1.64
   5   1  -2   65.08    2.05
   5   2  -1   66.64    1.41
   5  -2   1   61.18    1.61
  -2  -5   1   64.43    1.14
  -1  -5   2   64.41    1.75
  -5   1   2   66.23    1.99
  -5  -1  -2   64.71    1.98
  -2  -5  -1   64.64    1.13
   5  -1   2   65.96    1.77
   2  -5  -1   65.24    2.11
   1   5  -2   69.03    1.82
  -2  -5  -1   66.72    2.04
  -2   5   1   65.37    2.16
   2  -5   1   64.56    1.36
  -5   1  -2   69.80    1.81
  -1   5   2   67.28    2.10
  -5   2  -1   67.36    2.07
   1  -5  -2   63.82    2.04
   5   1  -2   63.80    1.69
  -5   2   1   65.58    2.06
   5  -1  -2   62.04    1.88
  -5  -1   2   68.07    1.76
  -2  -5   1   63.21    1.93
   5   1   2   67.27    2.04
   5  -2  -1   63.83    1.99
   1   5   2   65.01    1.87
   1  -2  -5   65.66    2.15
  -5  -2  -1   64.35    2.06
   5   2  -1   67.61    2.12
   5   2   1   60.58    1.99
   2   5  -1   65.82    1.95
  -5  -2  -1   65.14    1.29
   3   0  -5    0.80    0.26
  -5   0  -3    0.08    0.12
  -5   0   3    0.59    0.23
   0   5  -3    0.05    0.10
   5   0  -3    0.16    0.15
   0  -3  -5    0.45    0.19
   0   3   5    0.25    0.17
   0   5   3    0.09    0.14
   5   3   0    0.84    0.28
   3   5   0    0.10    0.09
   3   5   0    0.05    0.15
  -5  -3   0    0.21    0.17
  -3   5   0    0.23    0.17
   0  -5  -3    0.09    0.16
  -3  -5   0    0.09    0.07
  -5   3   0    0.11    0.17
  -3  -5   0    0.24    0.19
   5  -2  -3  115.05    3.02
  -2  -5  -3  114.58    1.80
   3   5  -2  110.52    2.87
  -3  -5   2  111.62    2.87
  -3  -5  -2  108.30    3.01
  -2   3   5  112.79    3.09
   5  -3   2  109.71    2.17
  -5   2  -3  117.15    2.38
  -3  -5  -2  116.47    1.84
   5  -3  -2  113.63    3.04
   2   5  -3  119.11    2.80
   3  -5  -2  107.57    3.06
  -3  -5  -2  114.07    2.36
  -5  -3  -2  123.09    2.04
  -2  -5   3  119.49    1.81
   3   5   2  114.92    2.34
  -3  -5   2  117.35    1.85
  -3   5   2  116.02    3.19
   5   2  -3  111.81    2.53
  -2  -5  -3  113.64    2.67
  -2  -3  -5  114.39    2.91
  -5  -3  -2  118.56    3.11
  -5  -2  -3  112.95    2.97
  -2   5   3  110.12    3.08
   3  -2  -5  113.99    3.09
  -3   2   5  119.38    3.19
   2  -3  -5  114.56    3.12
   2  -5  -3  109.98    3.05
   5   3  -2  116.61    3.11
  -5   2   3  118.69    3.08
   2   5   3  120.37    2.71
  -5   3   2  109.06    3.06
   5   3  -2  115.74    2.22
   4   1  -5   28.47    1.35
  -1   4   5   29.40    1.45
  -1   5   4   29.61    1.45
  -4   1   5   27.02    1.40
  -4   5  -1   25.48    1.43
   5  -4  -1   28.85    1.46
   5   4   1   28.89    1.47
  -5   1   4   31.97    1.48
  -5   4  -1   27.42    1.46
  -4  -5  -1   26.00    1.38
  -5   1  -4   26.73    1.12
   4  -5  -1   27.66    1.45
   1   5   4   29.37    1.34
   5   1  -4   28.84    1.27
  -5  -4  -1   25.54    1.37
  -5  -4   1   28.73    1.44
   4   5   1   27.39    0.71
  -5   4   1   24.67    1.39
   1  -5  -4   27.25    1.40
  -1  -4  -5   27.56    1.35
  -1  -5  -4   27.57    1.31
  -1   5  -4   27.45    0.89
  -4  -5   1   27.78    1.39
   4  -1  -5   26.14    1.35
   5  -1  -4   27.90    1.35
   1   5  -4   27.08    1.13
  -5  -1  -4   28.82    1.34
   1  -4  -5   25.55    1.38
   5   4  -1   26.67    1.39
   4   5  -1   28.42    1.40
   5  -4   1   26.05    0.86
  -4   5   1   27.09    1.48
   1   4   5   26.83    1.33
   4  -3  -5    4.20    0.60
   3  -5  -4    4.66    0.63
  -3   5   4    6.21    0.72
  -5   3   4    4.29    0.61
  -5  -4  -3    4.98    0.38
   4   5  -3    3.91    0.53
  -4   3   5    5.44    0.68
  -3  -5  -4    4.26    0.49
  -3  -4  -5    5.45    0.58
  -5  -3  -4    5.39    0.65
   3  -4  -5    5.03    0.67
  -3   4   5    3.62    0.58
  -5   4   3    4.55    0.63
  -4  -3  -5    4.51    0.52
   5   4  -3    4.46    0.60
  -4  -5  -3    4.57    0.61
   3   5  -4    4.56    0.55
   5  -3  -4    5.07    0.64
  -5  -4  -3    3.57    0.54
  -4  -5  -3    4.63    0.41
   5   4  -3    5.05    0.44
   5   3  -4    4.64    0.49
   4  -5  -3    3.93    0.60
  -4   5   3    5.64    0.71
  -5   3  -4    4.55    0.35
   5  -4  -3    3.47    0.57
   5   0  -5   -0.05    0.17
  -5   0  -5    0.05    0.19
   5   5   0    0.06    0.20
  -5   5   0    0.07    0.22
  -5   0   5    0.23    0.22
   0  -5  -5   -0.06    0.19
   0   5   5    0.23    0.25
  -5  -5   0    0.13    0.20
  -2  -5  -5   38.75    0.78
  -5  -5  -2   35.66    0.83
   5   5  -2   37.15    1.71
   5  -2  -5   35.45    1.70
   5   2  -5   37.52    1.56
  -5  -5  -2   35.61    1.73
  -2  -5  -5   37.42    1.59
  -2   5   5   36.33    1.77
  -2  -5   5   38.97    0.78
  -5   2  -5   37.03    1.30
  -5   2   5   36.01    1.75
   5  -5  -2   36.43    1.76
  -5   5   2   39.88    1.91
   2  -5  -5   31.51    1.65
   2   5  -5   35.37    1.46
  -5   5   4    0.23    0.29
  -4   5   5    0.07    0.18
   5   4  -5    0.70    0.30
  -5  -5  -4    0.07    0.22
  -5   4   5    0.07    0.23
   5  -4  -5    0.94    0.38
   5   4  -5    0.19    0.17
  -5  -5  -4    0.70    0.21
   5  -5  -4    0.07    0.22
   4   5  -5    0.12    0.24
  -4  -5  -5    0.27    0.19
  -5  -4  -5    0.08    0.17
   4  -5  -5    0.07    0.23
   5   5  -4    0.13    0.23
  -5  -4  -5    0.21    0.26
   6   0   0    0.89    0.25
   0  -6   0    0.11    0.14
  -6   0   0    0.44    0.18
   0   6   0    0.36    0.23
  -6  -1   1  258.18    4.40
  -1  -6  -1  260.99    4.97
   1  -6   1  265.12    3.67
   6   1  -1  246.04    4.30
   6   1   1  251.63    4.97
  -6   1  -1  254.54    4.86
  -1  -6  -1  260.25    3.67
   6  -1  -1  259.08    4.96
  -6  -1  -1  252.20    5.01
   1   6   1  260.79    4.79
   6  -1  -1  257.31    4.83
   1  -6  -1  264.41    3.67
   6   1  -1  258.15    5.17
  -6   1   1  253.48    4.86
  -1  -6   1  264.00    4.77
  -6  -1  -1  255.58    4.32
  -1   6   1  248.40    5.08
   6  -1   1  253.81    4.71
  -1  -6   1  259.77    3.67
   1  -6   1  266.53    4.33
   1  -1  -6  253.86    5.24
  -1   6  -1  245.91    5.06
   0   6   2 2923.20   39.02
  -6   2   0 2936.26   39.18
  -6   0   2 2861.85   38.58
   0  -6  -2 2975.54   37.21
   6   0   2 2899.19   38.78
   6   2   0 2974.48   39.25
  -2   6   0 3045.77   39.49
   0  -6  -2 2904.29   38.97
   2   0  -6 2888.40   39.29
   2   6   0 2914.40   38.33
  -6  -2   0 2882.20   39.18
  -6  -2   0 2916.98   37.57
   6  -2   0 2885.60   38.64
  -6   0  -2 2951.50   38.87
  -2  -6   0 2918.75   37.25
   0  -6   2 2950.14   38.16
   0  -6   2 2918.08   37.20
   6   0  -2 2865.30   38.58
   0  -2  -6 2998.43   39.42
  -2  -6   0 3026.67   39.03
  -2  -2  -6   20.37    1.18
  -6   2   2   -0.11    0.19
   2   6   2    3.40    0.41
  -2   6   2    0.42    0.27
   2  -2  -6    0.42    0.22
  -6  -2   2    2.72    0.34
  -6  -2  -2    0.54    0.24
   6   2  -2    0.34    0.23
  -2  -6  -2    7.06    0.57
   2   6  -2    1.47    0.32
   6  -2   2    1.04    0.24
  -2  -6  -2   10.16    0.81
   2  -6   2    0.51    0.12
  -2  -6  -2    0.74    0.12
   2  -6  -2    0.62    0.26
  -3  -6   1   42.72    1.75
   1   6   3   40.48    1.59
  -3   6  -1   41.67    1.86
   1  -6  -3   41.99    0.86
   6  -3  -1   42.46    1.75
  -3  -6   1   42.09    0.91
  -1   6  -3   43.78    1.19
  -6  -3  -1   41.49    1.80
  -3  -6  -1   41.31    0.90
   6   3  -1   41.63    1.80
   6  -3   1   44.06    1.36
   6  -1  -3   40.08    1.64
   6   3   1   45.32    1.84
   6   3  -1   41.11    0.95
   1   6  -3   44.45    1.51
  -3  -6  -1   44.47    1.80
  -6   3  -1   42.23    1.82
   1  -3  -6   41.57    1.83
  -1  -6  -3   41.63    0.87
   3   1  -6   39.43    1.71
  -6   3   1   44.89    1.88
  -1  -3  -6   42.71    1.81
   6   1  -3   40.71    1.48
  -6  -1   3   42.03    1.53
   3   6  -1   43.95    1.74
  -1  -6   3   42.61    0.87
   1  -6   3   42.45    0.86
  -1  -6  -3   41.31    1.63
   3  -1  -6   42.40    1.82
   1  -6  -3   46.44    1.85
  -6  -1  -3   44.20    1.71
  -6   1   3   42.55    1.70
  -1   6   3   43.73    1.81
   3   6   1   42.91    1.29
  -3   6   1   42.02    1.89
  -6   1  -3   41.84    1.49
  -3  -3  -6   15.18    1.01
   6  -3  -3   15.09    1.09
  -6   3   3   13.66    1.06
   3   6   3   15.85    0.85
   6   3  -3   15.04    1.10
   3  -6  -3   14.39    1.08
  -3  -6   3   15.68    0.50
  -3  -6  -3   16.14    1.12
  -3   6   3   14.48    1.12
   6   3  -3   13.51    0.74
  -3  -6  -3   14.54    0.48
  -3  -6  -3   13.37    0.79
   3   6  -3   14.00    0.96
  -6  -3  -3   14.40    1.06
   3  -3  -6   13.84    1.07
  -3   3   6   16.26    1.16
   0  -6  -4 3419.12   43.98
   0  -6   4 3488.38   43.98
   4   0  -6 3485.55   46.34
  -6   0  -4 3430.38   45.67
   6   4   0 3479.76   46.46
   4   6   0 3425.50   44.46
  -4  -6   0 3499.76   46.38
   6   0  -4 3413.57   45.86
  -6   0   4 3477.47   45.99
  -6  -4   0 3584.31   46.57
   0  -6  -4 3560.11   46.24
  -4   6   0 3550.36   46.80
   4   6   0 3603.84   46.40
  -6   4   0 3523.57   46.62
   0   4   6 3489.96   46.48
   0   6   4 3456.89   46.18
   0   6  -4 3501.87   45.00
   0  -4  -6 3412.27   46.35
  -2  -6  -4 7514.34   94.71
   4   6   2 7488.93   95.31
  -6  -4  -2 7536.23   97.32
   6   2  -4 7526.90   96.20
   2  -6  -4 7450.65   94.68
  -2   6   4 7696.44   97.38
   2  -6  -4 7604.29   97.34
  -2  -6  -4 7368.70   96.51
   6  -4   2 7372.31   95.23
  -6   4   2 7546.46   97.44
  -2   4   6 7465.73   97.36
   2  -6   4 7491.04   94.68
   2  -4  -6 7803.40   97.47
  -4  -6  -2 7605.91   95.36
   4   2  -6 7828.72   96.92
  -6   2   4 7446.35   97.20
   4   6  -2 7641.83   97.01
  -2  -4  -6 7436.45   96.90
   6  -4  -2 7504.98   97.15
   6  -2  -4 7595.49   97.10
   4  -6  -2 7560.62   97.56
  -4   2   6 7328.13   97.30
  -2  -6   4 7496.85   94.71
   4  -2  -6 7692.68   97.29
  -6   2  -4 7401.04   95.79
   2   6   4 7677.63   96.51
   6   4  -2 7749.42   97.21
  -4   6   2 7849.16   97.84
  -4  -6  -2 7406.91   97.18
  -6  -2  -4 7595.69   97.01
   2   6  -4 7494.37   96.36
  -4  -6   2 7496.75   96.98
   6   4  -2 7349.50   95.07
  -6  -4  -4    1.83    0.30
  -4  -6  -4    0.46    0.19
  -4  -6  -4    0.89    0.15
  -6  -4  -4    2.56    0.20
  -4  -6  -4    2.02    0.46
  -6   4   4    0.60    0.31
  -6  -4  -4    0.14    0.21
   6   4  -4    0.20    0.21
  -4  -4  -6    1.42    0.37
  -4   6   4    0.77    0.33
   4   6  -4    1.72    0.41
   4  -4  -6    3.37    0.59
   6  -4  -4    0.29    0.28
   1   6  -5   47.55    1.64
  -1   6   5   49.21    2.08
   6   5  -1   47.48    2.04
  -1  -5  -6   50.63    2.03
   1   6   5   46.60    1.92
  -6  -5   1   47.84    2.07
  -5  -6   1   48.99    2.07
   5   6  -1   43.54    1.95
   1  -6  -5   47.68    0.94
   1  -6  -5   45.96    2.02
  -1  -6  -5   52.40    2.04
   5  -1  -6   44.30    1.94
   5   1  -6   50.02    1.99
  -6  -5  -1   48.21    2.10
  -6   1   5   49.98    2.05
   1  -6   5   49.44    0.95
  -5   6  -1   48.24    2.17
  -6   5  -1   44.26    2.08
  -6   5   1   51.67    2.27
   6  -1  -5   47.73    1.97
  -1  -6  -5   49.87    0.98
  -1  -6   5   49.98    0.97
  -6   1  -5   49.17    1.72
   6  -5   1   46.59    1.31
  -5   6   1   46.63    2.16
   6   5   1   51.39    2.16
   6   1  -5   51.72    1.91
  -1   5   6   45.78    2.02
  -5   1   6   53.93    2.19
  -5  -6  -1   49.45    2.09
  -6  -1  -5   50.46    1.95
   1  -5  -6   49.21    2.11
  -3  -6  -5  182.64    4.03
   3  -5  -6  170.43    4.50
  -5  -6  -3  169.10    4.45
  -5  -6  -3  177.20    2.72
  -6  -5  -3  174.05    2.69
  -3   5   6  171.96    4.58
  -6   5   3  175.05    4.64
   5   3  -6  176.54    4.12
  -3  -6  -5  180.54    2.75
   5  -3  -6  165.86    4.40
  -5   3   6  185.92    4.66
  -3  -5  -6  179.88    4.15
   3  -6  -5  179.03    4.59
  -6  -5  -3  179.92    4.52
  -6  -3  -5  179.89    4.48
   3   6  -5  172.77    4.04
   5  -6  -3  167.69    4.48
   6   3  -5  179.41    3.91
  -6   3   5  177.96    4.53
  -6  -5  -3  174.36    2.69
   6  -3  -5  172.97    4.47
  -3   6   5  177.15    4.61
  -5   6   3  178.12    4.69
   5   6  -3  173.82    4.30
   6   5  -3  177.84    4.44
  -6  -3  -5  182.24    2.72
  -5  -3   6  184.14    2.71
   6  -5  -3  182.90    4.58
   5   5  -6   16.65    1.23
  -5  -5  -6   17.82    1.08
  -5  -5  -6   15.16    0.53
   6  -5  -5   15.54    1.27
  -5  -6  -5   15.01    1.26
  -5   5   6   16.17    1.32
  -5  -6  -5   16.40    0.56
  -6  -5  -5   16.46    0.54
  -6  -5  -5   17.17    0.55
   5  -5  -6   16.17    1.32
  -5  -6  -5   16.69    0.53
  -5   6   5   16.19    1.32
  -5  -5   6   16.01    0.51
   5  -6  -5   15.23    1.28
   6   5  -5   14.96    1.17
  -5  -5  -6   16.87    0.53
  -6  -5  -5   17.12    1.34
   5   6  -5   16.52    1.23
   0  -6  -6  809.18   12.96
   6   0  -6  796.61   12.69
  -6   0  -6  834.81   12.46
  -6  -6   0  795.37   10.54
  -6   0  -6  798.32   10.55
  -6  -6   0  812.24   13.24
  -6   6   0  808.52   13.40
   0   6   6  793.93   12.88
   0  -6   6  791.59   10.43
   6   6   0  785.76   13.04
   6   2  -6    1.13    0.34
  -6   6  -2    1.14    0.40
  -2   6   6    0.92    0.37
   6  -6  -2    5.32    0.73
   2   6  -6    1.59    0.36
  -2  -6   6    0.37    0.11
  -6  -2  -6    2.43    0.21
  -6   2   6    0.67    0.33
   6   6  -2    1.07    0.38
   2  -6   6    0.42    0.11
  -2  -6  -6    0.75    0.30
  -6  -6   2    0.48    0.13
   2  -6  -6    5.98    0.77
  -6   2  -6    2.25    0.20
  -6  -6  -2    0.61    0.29
  -6  -2  -6    0.75    0.31
   6  -2  -6    1.95    0.55
  -4  -6  -6 4635.80   59.22
   4   6  -6 4700.14   61.71
   6  -4  -6 4771.69   62.46
   6   6  -4 4713.61   61.97
  -6  -4  -6 4690.04   59.15
  -4  -6  -6 4640.09   59.08
  -4  -6  -6 4714.22   61.18
  -6   6   4 4724.54   62.77
  -6  -6  -4 4648.23   59.16
  -4  -6   6 4688.84   59.06
  -6  -6  -4 4735.10   62.38
  -6   4   6 4615.20   62.46
  -4   6   6 4586.04   62.46
   4  -6  -6 4769.42   62.47
  -6  -4  -6 4720.05   62.30
   6  -6  -4 4759.24   62.54
  -6  -4  -6 4623.99   59.16
  -6  -6  -4 4673.06   59.20
  -6  -6  -6    2.06    0.22
  -6  -6  -6    0.36    0.31
  -6   6   6    1.45    0.52
   6   6  -6    0.80    0.36
   6  -6  -6    1.18    0.42
  -6  -6  -6    0.74    0.17
   0  -7   1    0.04    0.13
  -7   0   1    0.16    0.15
   7   1   0    0.06    0.18
   7   0  -1    0.35    0.18
   0   7  -1    0.11    0.17
   0  -7   1    0.15    0.10
  -1   7   0    0.06    0.15
   1  -7   0    0.32    0.10
   0   7   1   -0.05    0.15
   1  -7   0    0.81    0.23
   7  -1   0    0.10    0.16
  -7   0  -1   -0.04    0.13
  -7   1   0    0.05    0.16
   1   0  -7    0.06    0.23
   7   0   1   -0.10    0.16
   1   7   0    0.18    0.19
   0  -7  -1    0.15    0.09
   7   0  -1    0.11    0.20
  -1  -7   0    0.42    0.22
   0  -1  -7    0.06    0.18
  -7  -1   0    0.30    0.17
  -1  -7   0    0.41    0.12
  -7  -1  -2    0.73    0.29
  -7  -2  -1    0.24    0.13
   1  -7   2    0.56    0.18
  -1  -7   2    1.35    0.29
   7   1  -2    0.15    0.14
   1   7  -2    0.38    0.19
   2   7  -1    0.29    0.17
  -2  -7  -1    0.38    0.25
  -1   7   2    0.48    0.23
   2  -7   1    1.09    0.22
   1  -7   2    0.99    0.14
   7   1  -2    0.54    0.30
   7   2  -1    1.91    0.43
  -7  -1   2    0.12    0.15
   7  -1   2    0.70    0.25
  -1  -7  -2    0.36    0.11
   1  -2  -7    0.87    0.32
   7  -2   1    0.36    0.18
  -2   7   1    0.32    0.24
  -7   1   2    0.36    0.20
   2  -1  -7    0.66    0.30
   1   7   2    0.59    0.24
   7   2   1    0.41    0.24
  -7   2  -1    0.17    0.21
  -2  -7  -1    0.28    0.11
   7  -2  -1    0.05    0.17
  -1  -7  -2    0.49    0.23
   1  -7  -2    2.32    0.19
  -1  -2  -7    0.69    0.27
  -7   1  -2    0.26    0.18
  -2   7  -1    0.91    0.30
  -7  -2  -1    0.66    0.27
   2  -7   1    0.38    0.11
  -7   2   1    1.72    0.39
   1  -7  -2    0.53    0.25
  -2  -7   1    0.24    0.11
   2  -7  -1    0.61    0.13
   7   1   2    0.33    0.24
  -2  -7   1    0.26    0.21
   7  -1  -2    0.59    0.23
  -1  -7   2    0.35    0.12
  -7  -2   1    0.41    0.15
   2   7   1    0.41    0.20
   0   7  -3    1.39    0.27
   3   7   0    0.31    0.18
  -7   0   3    0.05    0.18
   0  -7  -3    0.12    0.19
  -7   3   0    0.13    0.23
   7   0  -3    0.10    0.16
  -3   7   0    0.14    0.21
   0  -7   3    0.16    0.09
  -7  -3   0    0.06    0.19
   0  -3  -7   -0.07    0.23
  -3  -7   0   -0.06    0.18
   7   3   0   -0.06    0.21
   7  -3   0    0.78    0.26
  -3  -7   0   -0.01    0.10
   0   7   3    1.80    0.40
  -7   0  -3    0.05    0.17
   0  -7  -3    0.12    0.09
   3   0  -7    0.13    0.19
  -3  -7  -2   47.38    1.04
   2   7  -3   48.45    1.80
   3   7  -2   50.62    1.93
   7  -3   2   45.10    1.47
   3  -7  -2   46.89    2.06
  -7   2  -3   46.79    1.58
  -2   7   3   49.79    2.13
  -7  -3  -2   46.38    1.99
   2  -7   3   47.57    1.00
  -2  -7  -3   46.28    1.01
   2  -3  -7   46.61    2.10
  -2  -3  -7   47.25    1.98
  -3  -7   2   44.78    1.85
   2   7   3   48.42    1.76
   7   2  -3   46.44    1.55
  -2  -7   3   47.64    1.01
   3   7   2   46.62    1.54
  -3   7   2   44.93    2.08
   7  -3  -2   45.08    1.93
   2  -7  -3   47.58    1.00
   7  -2  -3   48.95    1.97
   7   3   2   49.55    2.06
   3  -7   2   44.85    0.99
   7   2  -3   44.86    1.99
  -3  -7   2   47.59    1.04
  -7   3   2   41.65    1.93
  -7  -3  -2   45.15    1.09
  -7   3  -2   46.09    1.98
  -7   2   3   46.70    1.95
   3  -2  -7   44.72    2.04
  -2  -7  -3   45.85    1.72
   7   3  -2   46.62    2.03
  -3  -7  -2   46.00    1.97
  -7  -2  -3   47.43    1.95
   2  -7  -3   45.35    2.00
  -7  -1  -4   66.83    2.32
  -7   4   1   70.96    2.67
   7   1  -4   66.57    2.14
   4  -1  -7   65.77    2.52
  -4  -1   7   69.79    1.27
   1  -7  -4   66.77    2.49
  -4  -7   1   69.29    2.50
   1   7   4   70.32    2.36
  -1  -7   4   69.63    1.29
  -1  -7  -4   69.13    1.30
   7   4   1   66.36    2.50
  -4  -7  -1   65.71    2.44
   7  -4   1   63.87    1.80
  -7   4  -1   69.38    2.60
   4   1  -7   69.70    2.50
   7   4  -1   70.61    2.57
  -7   1  -4   69.52    2.13
  -1   7   4   65.64    2.45
   1  -7  -4   65.42    1.26
  -7  -4  -1   70.78    2.64
   7  -1  -4   67.35    2.34
  -7  -1   4   70.83    2.26
  -4   7   1   60.80    2.54
   1   7  -4   65.11    2.00
   4   7  -1   66.17    2.42
  -4   7  -1   64.97    2.55
  -1  -7  -4   65.14    2.28
  -1  -4  -7   67.31    2.49
   1  -7   4   65.75    1.25
   1  -4  -7   64.83    2.52
  -7  -4  -3   15.55    0.49
  -4  -7  -3   14.91    0.51
   7  -4  -3   13.26    1.11
   4   3  -7   15.79    1.14
   3  -7  -4   14.76    1.18
  -3  -4   7   15.21    0.49
  -3  -7  -4   13.55    0.91
   7   3  -4   13.12    1.09
  -4   3   7   13.52    1.16
  -4   7   3   16.29    1.29
   7   4  -3   14.48    1.17
  -7   3   4   14.53    1.17
  -3  -4  -7   16.19    1.15
  -7  -4  -3   13.74    1.15
  -4  -3  -7   14.48    1.07
  -3  -7  -4   14.60    0.50
   4   7  -3   14.72    1.07
   4  -7  -3   14.17    1.17
  -4  -7  -3   13.56    0.79
  -7  -4  -3   15.47    0.51
  -4  -3   7   21.89    0.58
   3  -4  -7   14.75    1.21
  -3  -7  -4   14.81    0.52
   4  -3  -7   15.41    1.21
   3   7  -4   17.39    1.11
   7  -3  -4   14.98    1.17
  -3   4   7   15.31    1.21
  -3   7   4   14.91    1.22
  -3  -7   4   14.63    0.52
   3   7   4   14.97    0.93
  -7  -3  -4   15.48    0.51
  -7   4   3   14.54    1.20
  -4  -7  -3   12.90    1.10
   0  -7   5    0.12    0.10
   0   7   5    0.07    0.22
   7   0  -5    0.55    0.28
  -7   0  -5    0.27    0.22
   0  -7  -5    0.47    0.29
   5   0  -7    0.07    0.20
  -5   0   7    0.08    0.09
   0  -5  -7    0.29    0.31
  -7  -5   0   -0.08    0.23
  -5  -7   0    0.58    0.31
  -7  -5   0    0.01    0.09
   0  -7  -5    0.10    0.10
  -7   0  -5    0.06    0.10
  -5   0  -7    0.06    0.10
  -5   7   0    0.33    0.30
   7   5   0    0.22    0.21
  -7   0   5    0.06    0.17
  -7   5   0   -0.08    0.23
  -2  -7   5  108.63    1.82
  -2   7   5  100.02    3.34
  -5   7  -2  100.12    3.43
   5  -7  -2  103.15    3.36
  -2  -7  -5  105.23    1.81
  -7  -5  -2  105.42    3.35
   5  -2  -7  108.81    3.39
  -7  -2  -5  104.40    1.81
   2   7   5  108.36    3.05
   7  -2  -5  102.09    3.23
   2  -7  -5  106.59    3.38
   2  -5  -7  109.84    3.49
  -5   2   7  105.87    1.76
  -7   2   5  107.41    3.33
   2  -7   5  107.97    1.80
   7  -5  -2  104.74    3.33
  -5  -2   7  105.89    1.81
  -5  -7   2  102.59    1.77
  -5  -2  -7  102.07    1.77
   2   7  -5  107.00    2.85
  -2  -5  -7  103.88    3.19
  -7   5   2  103.34    3.46
  -5  -7   2  107.53    3.30
  -2  -7  -5  104.34    3.07
  -5  -7  -2  102.26    1.79
   7   2  -5  103.33    2.86
  -7   5  -2  103.51    3.42
  -5  -7  -2  107.37    3.38
  -7  -5   2  105.58    1.79
  -7  -5  -2  104.66    1.79
  -7  -2  -5  107.09    3.25
   5   7  -2  107.22    3.26
   7   5  -2  104.77    3.31
   2  -7  -5  104.45    1.79
  -5   2   7  104.70    3.43
   5   2  -7  106.45    3.20
  -7   2  -5  106.84    1.79
  -5  -4  -7   85.71    2.71
   4   7  -5   81.80    2.73
  -7  -4  -5   86.33    3.06
   5  -7  -4   87.62    3.20
  -7  -5  -4   87.90    1.60
  -4   7   5   86.10    3.19
   4  -5  -7   84.81    3.12
   5  -4  -7   81.66    3.05
  -4  -5  -7   87.72    1.51
  -5   7   4   79.26    3.15
  -7  -4  -5   84.22    1.54
  -4  -5   7   84.92    1.53
  -7  -5  -4   82.70    3.02
   7  -4  -5   79.05    2.96
   5   4  -7   84.08    2.77
  -4  -5  -7   86.88    2.78
  -5  -4   7   87.21    1.57
  -4   5   7   84.53    3.18
  -5  -7  -4   86.65    3.11
  -7   5   4   85.13    3.18
  -4  -7  -5   84.04    1.59
   7   4  -5   82.65    2.99
  -5  -4  -7   84.98    1.54
   7   5  -4   79.32    2.91
  -7  -5  -4   80.45    1.53
   5   7  -4   88.26    2.92
  -5  -7  -4   85.15    1.60
   4  -7  -5   86.97    3.19
  -5   4   7   81.13    3.06
  -7  -4  -5   87.52    1.59
   7  -5  -4   82.84    3.07
  -7  -6  -1  227.94    3.40
  -1   7   6  227.01    5.43
   6  -1  -7  233.30    5.41
  -7  -1  -6  224.53    3.41
  -7  -1  -6  217.98    5.01
  -6  -7  -1  227.98    5.44
  -7  -6   1  227.18    3.39
  -6   1  -7  229.90    3.42
  -6  -7   1  227.28    5.46
   1  -6  -7  225.43    5.45
   7   6  -1  227.63    5.41
   6   7  -1  219.64    5.32
  -1   6   7  223.08    5.42
  -6  -7  -1  222.50    3.39
   6   1  -7  237.91    5.30
   7   6   1  225.03    5.41
   1  -7   6  223.37    3.32
  -7   6  -1  226.91    5.63
  -7  -6  -1  215.40    5.42
  -6  -7   1  225.42    3.39
  -6  -1  -7  230.20    3.42
  -1  -6  -7  229.81    5.35
  -6   7   1  238.53    5.82
   1   7   6  226.10    5.19
  -6   7  -1  221.86    5.61
  -6  -1   7  226.75    3.40
  -7   1   6  229.12    5.37
  -7   6   1  228.66    5.72
   7   1  -6  230.82    5.06
  -1  -7  -6  229.66    5.22
  -1  -7   6  231.50    3.36
   7  -1  -6  226.79    5.25
   1  -7  -6  224.55    5.42
  -7   1  -6  224.96    3.41
  -7  -6   1  230.09    5.47
  -6   1   7  222.33    3.37
   3   6  -7    9.15    0.89
   7   6  -3    7.85    0.90
  -6  -7  -3    8.25    0.95
  -3   6   7    8.48    1.00
  -6  -7  -3    9.03    0.41
  -6  -3   7    9.45    0.42
  -7  -3  -6    9.20    0.42
   3   7  -6    8.60    0.83
  -7   6   3    9.17    1.07
  -3   7   6    7.72    0.94
  -7   3  -6    8.92    0.41
   6   7  -3    9.01    0.96
   3  -7  -6    7.64    0.93
  -7  -3  -6    9.37    0.39
   3  -6  -7    8.20    0.97
  -3  -7  -6    7.90    0.82
  -6  -3  -7    9.10    0.39
   6  -3  -7    9.40    1.00
  -7  -6  -3    8.78    0.98
  -3  -6  -7   10.37    0.94
  -7  -6  -3    8.03    0.39
  -3  -6   7    9.22    0.38
   6  -7  -3   10.33    1.06
   7  -6  -3   12.82    1.16
  -6  -3  -7    9.13    0.41
  -7   3   6   10.70    1.08
  -6   7   3    9.38    1.08
  -6   3   7    9.01    1.03
   3  -7   6   10.41    0.41
  -7  -3  -6    8.07    0.90
   7  -3  -6   11.54    1.10
   3  -6   7   10.23    0.40
   6   3  -7    9.92    0.93
   5   7  -6    6.97    0.85
  -6  -7  -5    4.38    0.77
   7  -6  -5    6.86    0.93
  -5  -6   7    7.29    0.36
  -7  -5  -6    6.85    0.37
   5  -7  -6    6.57    0.93
  -6  -7  -5    7.10    0.39
   6   5  -7    6.11    0.86
  -5   7   6    7.02    0.96
   6  -7  -5    6.97    0.94
  -5  -7  -6    7.37    0.40
  -5  -7  -6   14.00    1.25
   5  -6  -7    6.25    0.90
  -6  -7  -5    8.47    0.40
  -6   7   5    7.53    1.02
  -7  -6  -5    7.24    0.95
  -6   5   7    6.76    0.94
   7   5  -6    6.35    0.86
  -5  -6  -7    7.18    0.36
  -6  -5  -7    7.49    0.39
   6   7  -5    6.86    0.84
   6  -5  -7    7.14    0.94
  -7  -5  -6    6.11    0.87
  -7   6   5    6.54    0.93
  -5  -6  -7    7.50    0.40
  -5   6   7    7.39    0.98
   7  -5  -6    6.23    0.86
  -7  -6  -5    7.49    0.39
   5   6  -7    7.70    0.93
  -7  -5  -6    7.57    0.40
   7   6  -5    6.64    0.86
  -7  -6  -5    8.63    0.42
  -7   5   6    8.49    1.05
  -5  -7  -6    7.80    0.37
  -6  -5  -7    7.74    0.39
  -6  -5  -7    8.05    0.98
   0  -7  -7    0.40    0.31
  -7  -7   0    0.66    0.15
  -7  -7   0    0.52    0.31
   0   7   7    0.23    0.25
   7   7   0    1.36    0.48
   7   0  -7    0.68    0.36
  -7   7   0    0.10    0.29
  -7   0  -7    0.85    0.17
  -7   7   2    1.28    0.46
  -7  -7  -2    0.96    0.39
  -2   7   7    0.97    0.39
  -7  -7  -2    1.34    0.18
  -7   7  -2    0.92    0.41
  -7  -7   2    1.19    0.18
  -7   2  -7    1.13    0.18
   7  -2  -7    1.07    0.40
  -7  -2  -7    1.10    0.18
  -7   2   7    2.24    0.53
   7   2  -7    1.18    0.39
  -2  -7  -7    2.35    0.49
   7   7  -2    2.24    0.53
  -7  -2  -7    1.51    0.44
  -2  -7   7    0.97    0.15
  -7  -2  -7    1.34    0.16
  -7  -4  -7   -0.09    0.25
   7  -7  -4    0.09    0.30
  -7  -7  -4    0.11    0.12
  -4   7   7    0.19    0.29
  -7  -4  -7    0.15    0.14
  -7   7   4   -0.10    0.38
  -7  -4  -7    0.14    0.11
   4  -7  -7    0.09    0.33
  -7  -7  -4    0.09    0.28
  -4  -7   7    0.10    0.11
   4   7  -7    0.15    0.23
  -4  -7  -7    0.15    0.14
   7   7  -4   -0.17    0.25
   7  -4  -7   -0.09    0.26
  -7   4   7    0.10    0.29
  -6  -7  -7    4.71    0.34
   7   7  -6    6.00    0.86
  -7   6   7    4.66    0.85
  -7  -7  -6    4.67    0.33
   7  -7  -6    4.44    0.79
  -6  -7  -7    6.67    0.38
  -7  -6  -7    4.51    0.33
  -7  -7  -6    4.94    0.36
   6  -7  -7    4.51    0.80
  -7  -6  -7    5.14    0.35
   7   6  -7    4.57    0.78
   7  -6  -7    5.23    0.85
   6   7  -7    4.08    0.74
  -6   7   7    4.59    0.84
  -6  -7  -7    3.76    0.77
  -7   7   6    5.34    0.92
  -7  -7  -6    5.35    0.87
   8   0   0 8700.57  115.60
   0  -8   0 8961.57  114.99
   0  -8   0 9159.72  113.48
  -8   0   0 8618.47  114.90
   0   8   0 9103.36  115.65
   8  -1   1    0.26    0.19
   1  -8  -1    0.04    0.11
   1  -8   1    0.33    0.18
  -1  -8  -1    0.01    0.11
  -8   1  -1   -0.05    0.19
  -1  -8   1   -0.01    0.11
  -1   8  -1    0.20    0.22
  -1  -1   8   -0.05    0.10
   8   1   1    0.36    0.29
   8   1  -1    0.26    0.23
   1   8  -1    0.22    0.18
   8  -1  -1    0.42    0.24
   1  -1  -8    0.29    0.29
  -1  -8   1    0.15    0.17
   1  -1   8    0.60    0.13
  -8  -1   1    0.23    0.18
  -1  -8  -1    0.17    0.20
  -8   1   1    0.05    0.19
   1  -8   1    0.13    0.11
  -8  -1  -1    0.32    0.18
  -8  -1  -1   -0.06    0.22
  -1   8   1   -0.07    0.24
   1   8   1    0.05    0.17
   0  -2  -8   40.12    1.94
  -8   0  -2   36.66    1.64
   2   0   8   35.38    0.83
   8   0  -2   34.72    1.47
   8   0  -2   41.51    1.89
   8  -2   0   35.69    1.59
  -8   0   2   35.21    1.52
   2   0  -8   37.56    1.86
   2   8   0   36.94    1.55
  -8   0  -2   40.20    1.56
  -2   0   8   33.65    0.80
  -2  -8   0   35.23    0.90
  -2   8   0   53.50    2.21
   2  -8   0   36.02    0.90
   0  -8   2   62.94    1.79
   0  -8   2   33.75    0.86
  -8  -2   0   34.86    1.14
   0  -2   8   37.41    0.84
   2  -8   0   33.91    1.30
   0  -8  -2   37.07    0.89
   8   0   2   32.58    1.55
  -2  -8   0   31.34    1.55
   8   2   0   32.33    1.69
   0   8   2   54.94    2.08
  -8   2   0   34.45    1.65
  -8  -2  -2 1541.40   21.37
  -2   8  -2 1611.78   23.21
  -8   2   2 1559.91   22.88
   2  -2   8 1623.47   20.64
  -8  -2  -2 1619.81   20.60
  -2  -8   2 1612.41   22.55
  -2   8   2 1544.24   23.31
   8   2   2 1538.02   22.94
   2  -8   2 1634.28   20.75
   2  -2  -8 1608.90   23.46
   8  -2  -2 1533.72   22.69
  -8  -2  -2 1569.85   23.07
   8  -2   2 1501.48   22.02
  -2  -2   8 1605.38   20.63
  -2  -8  -2 1639.97   20.77
  -8  -2   2 1639.60   21.71
  -8   2  -2 1516.29   22.74
  -2  -2  -8 1619.62   23.33
   8   2  -2 1600.23   23.26
   2  -8  -2 1573.92   20.75
  -2  -8  -2 1584.54   22.96
  -2  -8   2 1618.49   20.76
   2   8   2 1605.50   22.35
  -3  -8  -1   21.29    0.67
   8   3  -1   22.37    1.44
  -1  -3  -8   21.20    1.41
   1  -3   8   20.26    0.59
  -1  -8  -3   21.50    0.65
  -3  -8  -1   20.35    1.32
   8   1  -3   19.27    1.31
   8   1  -3   19.76    1.08
   1  -8  -3   19.79    1.30
  -8   3   1   18.41    1.31
  -8   1   3   20.01    1.25
  -8   1  -3   21.58    1.20
  -3   8   1   20.39    1.42
   1  -8  -3   20.77    0.63
  -8  -3  -1   21.61    0.59
  -3  -8   1   20.28    1.29
  -8  -1  -3   20.54    0.59
  -8  -3   1   20.37    0.57
   8   3   1   22.15    1.40
   1   8   3   18.72    1.19
   8  -1  -3   21.77    1.26
   3  -1  -8   20.04    1.39
  -3  -8  -1   20.76    0.58
   1  -8   3   20.17    0.63
   1   8  -3   23.70    1.20
  -3  -8   1   21.25    0.68
  -3   8  -1   18.45    1.36
  -3   1   8   23.24    0.61
  -8  -1   3   19.67    1.11
   3   1  -8   22.06    1.40
  -1  -8  -3   19.95    1.21
  -8   3  -1   20.75    1.36
  -8  -1  -3   20.82    1.30
  -1   8   3   19.36    1.32
  -3  -1   8   20.59    0.60
  -8  -3  -1   19.92    1.36
  -1  -8   3   20.78    0.64
   1  -3  -8   21.07    1.43
  -1  -3   8   21.39    0.60
   8  -3   1   20.79    1.07
   8  -3  -1   19.94    1.18
  -8   3   3    0.23    0.27
   3   8  -3    0.06    0.21
   3  -3  -8    0.16    0.24
  -3  -8  -3    0.03    0.11
  -8  -3  -3    0.18    0.11
  -3   8   3   -0.08    0.23
  -3  -8   3    0.04    0.11
  -3  -3   8    0.44    0.13
   3  -8  -3   -0.08    0.24
  -3  -8  -3    0.01    0.09
  -3  -3  -8    0.83    0.36
   8   3  -3   -0.08    0.29
  -8  -3  -3    0.22    0.24
   8  -3  -3    1.56    0.46
  -3  -8  -3    0.07    0.20
  -3  -8  -3    0.94    0.30
  -8   0   4 5691.08   73.58
   4   0  -8 5703.29   74.30
   0   8   4 5721.97   73.91
  -8   0  -4 5740.92   73.48
  -8  -4   0 5692.24   74.27
   0  -8  -4 5684.34   73.94
  -4  -8   0 5596.68   73.98
   0  -4   8 5642.65   71.25
  -8   4   0 5559.23   74.30
  -4  -8   0 5634.40   71.45
   0  -8   4 5692.39   71.35
   8   0  -4 5518.97   73.40
  -4   0   8 5557.67   71.28
   0  -4  -8 5659.09   74.45
  -8   0  -4 5628.33   71.27
   8   4   0 5533.61   74.16
   0  -8  -4 5613.42   71.36
   8  -4   0 5630.46   72.90
  -4   0  -8 5620.02   71.28
  -8  -4   0 5675.73   71.23
  -4  -8   0 5656.67   71.24
  -4   8   0 5459.95   74.47
   8   4   2 1846.41   26.69
  -8  -4  -2 1865.70   23.94
  -8   4  -2 1823.88   26.73
   8   4  -2 1795.51   26.71
  -2  -4  -8 1954.66   26.79
  -4  -8   2 1853.74   26.40
   4   2  -8 1839.96   26.49
   2  -8  -4 1860.79   23.98
   2  -4  -8 1845.15   26.96
   4  -2  -8 1902.66   26.99
  -2  -8  -4 1833.82   23.92
  -2  -8   4 1808.15   24.00
  -8   2  -4 1849.44   23.88
   2   8  -4 1937.09   25.89
   2  -8  -4 1925.92   26.90
  -8  -2  -4 1875.16   23.94
  -8  -4  -2 1920.72   26.91
  -4  -8  -2 1860.33   23.92
  -4   2   8 1846.35   23.88
   4   8  -2 1926.90   26.50
  -4  -8   2 1846.55   23.87
  -4  -8   2 1871.60   24.10
   2  -4   8 1871.45   23.92
  -4  -8  -2 1859.76   24.09
  -8   2   4 1842.11   26.58
  -2  -4   8 1845.87   23.91
  -2  -8  -4 1876.77   24.02
   2  -8   4 1863.96   23.99
  -8  -2  -4 1864.41   26.45
   2   8   4 1899.09   25.98
  -4  -8  -2 1796.85   26.53
  -2  -8  -4 1851.78   25.95
   8  -4  -2 1798.95   26.53
  -4  -2   8 1874.02   23.95
   8   2  -4 1828.04   26.60
  -4  -2  -8 1910.13   23.90
  -8  -4  -2 1860.26   23.88
  -8   4   2 1858.24   26.91
   8  -2  -4 1882.47   26.49
  -4   8  -2 1813.84   27.01
   4  -8  -4 1319.48   20.05
   8   4  -4 1250.39   19.70
  -8   4   4 1271.62   19.91
  -4  -8  -4 1280.01   16.95
  -4   4   8 1299.41   16.79
  -8  -4  -4 1318.61   16.96
  -8  -4  -4 1298.38   16.87
   4  -4  -8 1308.28   20.06
   4   8  -4 1319.64   19.25
   8  -4  -4 1305.03   19.82
  -4   4   8 1240.01   20.01
  -4   8   4 1270.50   20.14
  -4  -4   8 1296.79   16.92
  -4  -4  -8 1323.59   19.41
  -4  -4  -8 1301.73   16.84
  -8   4  -4 1310.33   16.85
  -8  -4  -4 1258.05   19.74
  -1  -8  -5   60.69    2.39
  -8  -1  -5   65.46    1.31
  -8   1   5   66.40    2.57
   5  -1  -8   61.60    2.59
   1  -5  -8   65.86    2.69
  -8  -5  -1   66.45    2.69
  -5  -8  -1   65.12    2.60
  -5   1   8   66.53    1.29
  -5  -1  -8   62.64    1.29
   1  -8  -5   64.51    2.60
  -8   1  -5   65.19    1.30
   1  -8  -5   65.13    1.30
  -1  -8   5   64.40    1.31
  -8  -1  -5   61.79    2.37
  -5  -8   1   64.36    1.28
   8   5  -1   61.97    2.57
   5   8  -1   67.43    2.63
  -5  -8  -1   63.74    1.28
  -8   5  -1   63.30    2.67
   8   5   1   58.87    2.53
  -5   8   1   63.40    2.76
  -1  -5  -8   63.77    2.58
  -5   8  -1   66.32    2.80
   1  -5   8   63.45    1.25
  -5  -1   8   62.50    1.29
  -5  -8   1   59.54    2.48
   5   1  -8   62.30    2.52
  -8  -5   1   63.01    1.27
   1  -8   5   66.15    1.31
  -8   5   1   65.73    2.74
  -1   8   5   64.46    2.60
  -8  -5  -1   63.96    1.27
  -1  -8  -5   66.86    1.33
  -5   1  -8   63.61    1.30
   8  -1  -5   65.63    2.47
  -1  -5   8   63.46    1.25
   5  -8  -3   58.70    2.62
  -8  -3  -5   61.64    1.22
  -5   8   3   64.00    2.85
  -8  -3  -5   63.37    2.58
  -5  -8  -3   60.19    2.61
  -5  -3  -8   64.49    1.29
  -5   3   8   63.52    1.25
  -3  -8  -5   63.83    1.33
  -8   3  -5   61.18    1.27
  -5  -8  -3   59.99    1.29
  -8   5  -3   63.75    2.69
  -3  -8  -5   66.50    1.35
  -3  -5   8   63.95    1.28
  -8   5  -3   65.40    1.22
   8   5  -3   62.80    2.61
   5  -3  -8   56.73    2.58
  -8   3   5   61.05    2.60
   8   3  -5   58.32    2.51
   3  -8  -5   66.95    1.34
  -8  -5  -3   60.00    2.60
   3  -8  -5   61.03    2.67
  -8  -5  -3   63.88    1.29
  -3  -8   5   66.14    1.36
  -5  -8   3   64.79    1.28
   5   3  -8   67.95    2.58
  -8  -3  -5   65.46    1.34
  -5  -3  -8   67.84    2.54
   5   8  -3   60.92    2.47
  -5   3   8   69.90    2.87
   8  -3  -5   65.48    2.65
  -8   5   3   64.47    2.78
  -3   5   8   63.26    2.75
  -8  -5  -3   67.32    1.34
  -3  -5  -8   67.05    2.57
   8  -5  -3   65.17    2.68
   3   8  -5   64.03    2.29
  -5  -3   8   66.47    1.33
   3  -5  -8   66.79    2.79
  -3   8   5   62.09    2.68
   3  -8   5   67.49    1.35
   3  -5   8   63.23    1.28
  -8  -5  -5    0.82    0.16
   8  -5  -5    0.71    0.38
   5  -5  -8   -0.28    0.30
   8   5  -5   -0.09    0.25
  -5  -8  -5    0.03    0.12
  -5   5   8    0.19    0.31
  -8  -5  -5   -0.02    0.12
  -5  -5   8    0.01    0.11
   5  -8  -5    0.19    0.30
  -8  -5  -5    0.09    0.27
  -8   5   5    0.10    0.29
  -5  -5  -8    0.51    0.14
  -8   5  -5    0.06    0.12
  -6   8   0    6.86    0.96
   0  -8  -6    5.07    0.31
  -6  -8   0    3.82    0.71
  -8  -6   0   12.41    1.21
  -6  -8   0    5.14    0.32
   8   0  -6    8.26    0.89
   0  -6  -8    9.34    1.03
   0  -8   6    6.05    0.33
   0  -8  -6    5.75    0.79
  -8   0  -6    5.87    0.34
  -8  -6   0    5.92    0.34
   6   0  -8    7.32    0.89
  -8   6   0    4.74    0.78
  -8   0   6    5.51    0.79
   8   6   0    6.11    0.84
   0  -6   8    5.62    0.31
  -6   0   8    5.90    0.34
  -6  -8   2  629.93    8.68
   8   6  -2  617.43   11.28
  -2  -8  -6  660.00   10.98
   2  -6   8  619.91    8.59
   6   8  -2  644.68   11.29
   2  -8  -6  614.02    8.60
  -8  -6  -2  652.55   11.55
  -6  -2  -8  651.18    8.71
  -8  -2  -6  629.85    8.72
  -2   8   6  630.80   11.44
  -8  -2  -6  638.27    8.54
  -2  -8  -6  648.70    8.70
   8  -2  -6  628.77   11.21
   6   2  -8  652.91   11.16
  -6   8  -2  603.83   11.55
  -6   2   8  645.99    8.65
   2  -8   6  705.73    8.68
  -6  -2   8  640.69    8.72
  -6   2  -8  626.00    8.73
  -8  -6   2  643.10    8.70
   6  -2  -8  636.67   11.42
  -8   6  -2  623.13   11.55
  -6  -8   2  626.83   11.26
  -6  -8  -2  608.51   11.34
  -8  -2  -6  631.64   11.02
  -2  -6   8  647.95    8.63
  -8   2   6  671.37   11.49
  -2  -6  -8  643.16   11.19
  -8   2  -6  648.26    8.71
  -8  -6  -2  634.57    8.69
   2  -6  -8  632.91   11.54
  -2  -8   6  638.75    8.69
  -8   6   2  633.15   11.68
  -6  -8  -2  645.81    8.72
  -2   6   8  644.58   11.61
  -6   8   2  665.66   12.00
   2  -8  -6  640.16   11.43
  -8  -4  -6 1090.46   17.81
   8   6  -4 1080.28   17.61
  -8  -4  -6 1138.57   14.85
  -4  -8  -6 1125.32   14.87
  -6  -8  -4 1119.48   17.99
  -4   8   6 1173.57   18.34
  -8   4  -6 1124.18   14.81
  -8   4   6 1160.72   18.15
  -8  -4  -6 1103.90   14.74
  -6  -4  -8 1124.94   14.79
  -6   4   8 1099.79   17.98
  -6  -8  -4 1113.52   14.83
  -4  -6   8 1134.39   14.74
   8  -4  -6 1124.25   17.77
  -6  -4   8 1120.24   14.80
  -4   6   8 1116.72   18.09
  -6   8   4 1162.08   18.53
   4  -6  -8 1103.41   17.96
  -6  -4  -8 1107.90   14.77
   8   4  -6 1146.46   17.97
   6   8  -4 1082.16   17.39
  -8  -6  -4 1094.57   17.89
  -8  -6  -4 1133.97   14.84
   6  -4  -8 1133.42   17.99
   6  -8  -4 1107.39   18.07
  -8  -6  -4 1142.03   14.83
   4  -8  -6 1125.35   18.10
   8  -6  -4 1108.80   17.83
   6   8  -6  855.25   14.58
  -6  -6  -8  885.29   12.00
  -6  -8  -6  894.45   12.14
   6   6  -8  989.70   15.53
  -8  -6  -6  879.44   15.26
  -8   6   6  891.87   15.59
   6  -8  -6  833.61   15.14
  -6   6   8  867.11   15.39
   8  -6  -6  860.00   15.11
  -6  -6  -8  967.04   12.17
  -6  -6   8  886.60   12.02
   6  -6  -8  851.80   15.14
  -8  -6  -6  905.08   12.08
   8   6  -6  892.12   15.10
  -6   8   6  877.38   15.62
  -6  -8  -6  882.24   15.34
  -8  -6  -6  903.96   12.11
  -7  -8   1    1.97    0.23
   7   8  -1    2.32    0.58
  -1   7   8    2.63    0.61
  -7  -8   1    1.98    0.55
  -1  -8  -7    1.15    0.42
  -7  -8  -1    1.69    0.22
  -7  -8  -1    1.37    0.52
   1  -8  -7    0.97    0.43
  -8  -7   1    1.77    0.22
  -7   8  -1    1.71    0.57
  -8  -7  -1    2.21    0.60
  -8   1  -7    2.59    0.26
  -8  -1  -7    1.83    0.23
  -1  -7  -8    1.18    0.45
  -1   8   7    2.48    0.60
  -1  -7   8    1.74    0.19
  -7   8   1    1.67    0.55
   7   1  -8    1.03    0.38
  -8   7   1    0.82    0.43
   1  -7  -8    2.00    0.58
   1  -7   8    2.03    0.21
   1   8   7    1.35    0.46
   8   7  -1    2.87    0.65
  -7   1  -8    2.02    0.25
  -8   7  -1    1.87    0.55
  -7  -1  -8    2.16    0.24
  -8  -7   1    2.11    0.58
  -8  -7  -1    1.72    0.22
   7  -1  -8    2.75    0.59
   8  -1  -7    2.19    0.54
   3  -8  -7    3.81    0.73
   8  -7  -3    3.94    0.78
  -7  -3  -8    4.63    0.33
  -8  -3  -7    4.78    0.30
  -3  -8  -7   10.75    0.50
  -8  -7  -3    3.31    0.68
  -7  -3  -8    4.50    0.30
  -8  -3  -7    5.26    0.35
  -7  -3  -8    4.90    0.78
   7  -3  -8    4.42    0.77
  -7  -8  -3    4.44    0.33
  -3  -7   8    4.09    0.28
   7   8  -3    4.51    0.77
   8  -3  -7    5.16    0.80
  -3   7   8    3.69    0.70
  -8   3  -7    6.70    0.39
  -7  -8  -3    5.11    0.84
   8   7  -3    2.75    0.63
  -7   3   8    4.37    0.78
  -8  -3  -7    3.20    0.64
  -8  -7  -3    4.56    0.33
  -8   7  -3    4.07    0.81
  -8   7   3    5.14    0.89
   3  -7  -8    4.03    0.75
  -8   3   7    4.24    0.80
   3  -7   8    4.40    0.29
  -7   8   3    5.19    0.89
  -7   3  -8    4.63    0.34
  -3   8   7    5.14    0.87
  -8  -5  -7   11.55    1.22
   5   7  -8   15.17    1.34
  -8  -5  -7   14.18    0.58
  -7  -5  -8   13.69    0.57
  -8   7   5   13.68    1.42
  -5  -7  -8   13.81    0.54
  -5  -8  -7   13.00    1.32
  -5  -7  -8   14.35    0.61
   7   8  -5   14.18    1.26
   5  -7  -8   11.70    1.27
  -5  -8  -7   14.42    0.61
  -8  -5  -7   13.76    0.58
  -8  -7  -5   14.44    0.59
  -5   8   7   15.17    1.45
   8  -7  -5   12.71    1.31
  -8  -7  -5   13.96    1.37
  -8  -7  -5   13.76    0.58
  -8   5   7   12.36    1.31
   7  -8  -5   11.58    1.26
   7   5  -8   15.49    1.47
   5  -8  -7   14.06    1.40
  -7  -5  -8   12.86    1.30
   8  -5  -7   14.43    1.35
  -5   7   8   13.47    1.37
  -5  -8  -7   13.83    0.53
  -7  -8  -5   13.59    0.58
  -7  -5  -8   15.16    0.60
   7  -5  -8   13.35    1.32
   8   5  -7   15.72    1.43
  -5  -7   8   14.66    0.55
  -7   5   8   13.06    1.33
  -7  -8  -5   13.67    1.36
  -8   5  -7   15.25    0.61
   8   7  -5   12.19    1.22
  -7  -7  -8    0.22    0.33
  -8  -7  -7    0.97    0.46
  -7  -8  -7   -0.02    0.17
  -8  -7  -7    0.02    0.16
   7   8  -7   -0.10    0.31
   7  -7  -8   -0.11    0.31
   8  -7  -7    0.21    0.38
   8   7  -7   -0.10    0.33
  -7  -7  -8   -0.06    0.16
  -8  -7  -7    0.10    0.16
  -8   7   7    0.12    0.34
  -7   7   8    0.12    0.34
  -7  -7  -8    0.19    0.16
   7  -8  -7   -0.32    0.38
  -7  -8  -7    0.11    0.31
   7   7  -8    0.31    0.42
  -7  -8  -7   -0.06    0.15
  -8  -8   0 9999.00  122.84
   8   0  -8 9578.74  125.99
   0   8   8 9562.85  126.27
  -8   0  -8 9545.42  122.84
  -8   8   0 9492.43  126.97
  -8  -8   0 9699.60  126.57
   0  -8  -8 9786.76  126.29
   8   8   0 9686.07  126.42
  -2   8   8    0.79    0.46
   8  -2  -8    0.09    0.30
  -8  -2  -8    1.84    0.25
  -8   8   2    2.75    0.67
   8   8  -2    0.19    0.35
  -8  -8  -2    0.25    0.15
   2  -8  -8    3.96    0.76
  -2  -8  -8    2.60    0.56
  -8   2  -8    0.24    0.17
  -8  -8   2    0.32    0.17
  -8   8   4 3547.70   48.26
  -8  -4  -8 3347.12   43.61
  -8  -8  -4 3419.43   43.73
  -8  -4  -8 3446.12   47.16
  -8  -4  -8 3447.93   43.72
  -8   4  -8 3431.96   43.76
  -8   8  -4 3303.56   47.64
  -8  -8  -4 3325.46   47.40
  -4   8   8 3370.32   47.70
   8  -4  -8 3274.23   47.20
   4  -8  -8 3413.57   47.65
  -8   4   8 3461.97   47.72
  -4  -8   8 3423.87   43.51
   8   8  -4 3459.65   47.11
   8  -8  -4 3416.50   47.51
  -4  -8  -8 3450.27   43.81
  -8  -6  -8    0.42    0.19
  -6   8   8    1.65    0.58
  -8   8   6    0.73    0.45
  -8  -8  -6    2.02    0.27
   8   8  -6    0.67    0.40
   8  -6  -8    0.63    0.44
  -6  -8  -8    0.70    0.20
  -8   6   8    0.23    0.35
  -6  -8  -8    0.02    0.15
  -8  -6  -8    0.54    0.20
   8  -8  -6    0.76    0.50
   6  -8  -8    1.56    0.59
   8   6  -8    0.98    0.48
   8   8  -8 5659.57   76.12
  -8  -8  -8 5546.56   72.01
  -8  -8  -8 5793.07   72.19
   9   1   0    0.42    0.29
   1   0  -9    0.08    0.22
  -9   0   1    0.15    0.17
   0   1   9    0.11    0.10
   0  -9  -1    0.03    0.11
   0   9  -1    0.20    0.19
   0  -9   1    0.57    0.24
   0  -9   1    0.02    0.11
   1   9   0   -0.06    0.16
  -1   9   0    0.15    0.21
  -1   0   9    0.40    0.11
  -9   1   0    0.17    0.20
   0  -1   9    0.06    0.10
   9   0  -1    0.56    0.28
  -9   0  -1    0.10    0.17
   9  -1   0    0.80    0.29
  -1  -9   0    0.13    0.11
   0   9   1    0.07    0.24
   1   0   9    0.01    0.10
   0  -1  -9    0.40    0.30
   0  -9  -1    0.74    0.28
   1  -9   0    0.17    0.11
   9   0   1    1.57    0.38
  -2  -9  -1   19.18    0.56
  -1  -9  -2   20.05    0.68
  -2  -9   1   19.74    1.25
  -2  -9  -1   19.30    0.67
   2   1   9   21.08    0.63
  -2  -9   1   19.99    0.68
  -2  -9  -1   18.61    1.26
   1  -2   9   19.91    0.61
   9  -1  -2   18.56    1.18
   2  -1   9   20.40    0.63
   2   1  -9   19.36    1.39
   9  -1   2   19.69    1.20
  -2   9  -1   19.99    1.43
   1  -9  -2   20.69    0.68
  -1  -9   2   19.86    0.67
  -1  -9  -2   21.64    0.59
  -1   9  -2   17.21    1.28
  -1   9   2   18.05    1.30
   1   9   2   20.32    1.29
  -1  -9  -2   20.23    1.31
   9  -2   1   20.21    1.19
   9   1  -2   17.44    1.33
   1   2   9   20.45    0.60
  -2  -1  -9   20.17    0.57
   9  -1  -2   22.51    1.44
   1   9  -2   17.25    1.18
   1  -9   2   20.63    0.68
  -9  -2  -1   16.79    1.26
   2  -9   1   20.17    0.68
   9   1   2   19.93    1.32
  -1  -2   9   20.23    0.62
  -9  -1  -2   19.88    0.59
  -9   2   1   17.40    1.23
   9   2  -1   21.24    1.43
  -9  -1  -2   18.53    1.27
   9   2   1   19.45    1.34
   2  -9  -1   19.21    0.66
  -9   1  -2   20.93    0.58
  -1   2   9   19.41    0.58
  -1  -2  -9   17.49    1.32
  -9   1  -2   20.53    1.25
   1  -2  -9   18.45    1.39
  -1  -9   2   20.32    1.16
  -9   1   2   19.64    1.26
  -2   1   9   19.87    0.60
  -9   2  -1   20.35    1.33
  -2  -1   9   19.92    0.62
   9  -2  -1   19.71    1.27
   2  -1  -9   20.12    1.45
  -2   9   1   20.37    1.44
  -9  -2  -1   19.65    0.58
  -3   0   9   -0.04    0.10
   0  -9  -3    0.19    0.14
  -9   0   3    0.48    0.27
   3  -9   0    0.41    0.14
  -9  -3   0    0.17    0.10
  -3  -9   0    0.18    0.10
   9   3   0    0.23    0.25
  -3  -9   0    0.07    0.21
   9  -3   0    0.34    0.23
  -3   0  -9    0.07    0.10
  -3   9   0   -0.09    0.23
   0  -3  -9    0.25    0.34
  -9   3   0    0.22    0.30
   0  -3   9    0.24    0.12
   0  -9  -3    0.42    0.27
   0  -9   3    0.11    0.13
   9   0  -3    1.11    0.40
   3   0  -9    0.49    0.26
   0   3   9    0.40    0.11
   0   9   3    0.29    0.24
  -9   0  -3    0.06    0.21
  -9   0  -3    0.05    0.10
  -3  -9   0    0.53    0.17
  -2  -9   3    1.92    0.23
  -2  -9  -3    3.32    0.62
   9  -2  -3    1.22    0.38
  -9  -2  -3    1.72    0.20
   3  -9   2    3.18    0.27
  -2   3   9    1.94    0.19
   3  -2   9    2.20    0.23
   3   2  -9    1.51    0.44
  -3  -9  -2    2.29    0.25
  -2  -9  -3    2.40    0.25
  -9   2   3    3.28    0.60
   2  -9   3    1.93    0.23
   3  -2  -9    2.17    0.56
  -9   3   2    2.26    0.51
  -9   2  -3    1.36    0.17
  -3   9   2    1.41    0.48
  -9   2  -3    2.04    0.46
   3  -9  -2    1.95    0.23
   2  -9  -3    1.39    0.20
  -3  -9  -2    1.74    0.19
  -3  -2  -9    2.13    0.53
  -2  -9  -3    1.40    0.39
  -9   3  -2    2.08    0.49
  -2  -3  -9    1.76    0.49
  -2  -3   9    1.70    0.20
  -9  -3  -2    2.69    0.21
   9   2  -3    1.45    0.45
  -3  -2  -9    1.65    0.18
  -3   2   9    1.96    0.20
  -2   9   3    1.84    0.48
  -3  -9   2    1.85    0.23
   2  -3  -9    1.50    0.51
   9   3  -2    1.67    0.49
   2  -3   9    1.71    0.20
   2  -9  -3    1.18    0.39
   9   3   2    1.65    0.48
  -9  -3  -2    1.66    0.45
  -3  -9  -2    2.84    0.56
   2   3   9    1.54    0.18
  -3  -9   2    2.04    0.19
  -9  -3  -2    2.16    0.21
  -3   9  -2    1.73    0.51
  -9  -2  -3    1.45    0.44
  -3  -2   9    1.70    0.20
  -2  -9  -3    1.53    0.19
  -4  -9   1   83.40    3.01
  -4  -9  -1   89.36    1.62
  -1   4   9   82.53    1.52
  -4  -9   1   89.36    1.61
  -4   1   9   88.07    1.63
  -9  -1  -4   87.60    1.64
   9  -4  -1   91.50    2.73
  -1  -9  -4   91.40    2.96
  -9   4   1   87.53    3.20
   1  -4  -9   92.86    3.35
   1  -9  -4   90.72    1.71
  -9   1   4   86.81    2.95
   1  -4   9   85.44    1.62
   9   4  -1   85.48    3.15
   1  -9   4   90.37    1.71
  -4  -1  -9   85.31    1.60
  -1   9   4   88.90    3.12
  -4  -9   1   91.17    1.79
   1   4   9   86.09    1.55
   1  -9  -4   80.62    2.99
  -9   1  -4   86.96    1.61
  -1  -9  -4   91.72    1.73
   9  -1  -4   87.76    2.89
  -4   9  -1   81.55    3.20
  -9  -4  -1   86.00    1.58
  -4   9   1   90.61    3.37
  -9   4  -1   89.88    3.19
  -4  -1   9   87.28    1.65
  -9  -4   1   87.68    1.60
   9   4   1   84.78    3.11
   4   1  -9   88.17    3.15
  -1  -4  -9   86.89    3.16
   1   9   4   84.66    2.88
   9   1  -4   87.49    3.12
  -9  -1  -4   89.38    2.95
  -9  -4  -1   86.12    3.17
  -1  -9   4   89.82    1.71
  -1  -9  -4   85.47    1.60
   4  -1  -9   87.81    3.22
  -4  -9  -1   91.60    1.79
  -1  -4   9   88.50    1.64
  -4  -9  -3  105.58    3.53
  -9   4  -3  106.27    1.83
  -3  -9  -4  112.65    2.06
   4  -9  -3  108.51    3.66
  -3  -9   4  108.68    2.04
  -9   4   3  113.46    3.72
  -4  -9  -3  109.08    1.95
   3  -4  -9  106.20    3.71
  -4  -3   9  112.47    1.98
   3  -9  -4  105.14    3.57
   4  -3  -9  107.08    3.69
  -4   3   9  107.87    1.88
  -9   4  -3  105.06    3.53
   4   9  -3  108.40    3.35
  -9   3   4  110.98    3.61
  -3   4   9  108.27    1.84
  -3  -4  -9  119.24    3.68
  -9  -4  -3  106.29    3.59
   9   4  -3  107.11    3.61
   3  -9  -4  110.85    2.03
   9  -4  -3  105.39    3.50
  -4  -9   3  109.14    2.07
  -4  -9  -3  111.18    2.08
  -9   3  -4  108.72    1.89
  -9  -3  -4  103.79    1.83
  -4  -9   3  108.82    1.88
   3  -9   4  110.54    2.03
  -9  -3  -4  105.72    3.50
  -3  -9  -4  112.97    3.69
  -9  -4  -3  111.92    1.98
  -9  -3  -4  112.00    1.98
   9   3  -4  104.94    3.55
  -4   9   3  110.98    3.81
  -4   9  -3  103.44    3.69
   3  -4   9  108.20    1.94
   9  -3  -4  107.37    3.48
  -3  -4   9  110.45    1.94
  -3   9   4  109.67    3.75
  -4  -3  -9  113.81    3.56
   4   3  -9  111.59    3.55
  -3  -9  -4  109.01    1.96
  -4  -3  -9  108.92    1.88
  -9  -4  -3  109.21    1.89
  -5  -9   0    0.17    0.28
   0  -5   9    0.03    0.11
  -5   9   0   -0.10    0.28
  -9  -5   0    0.09    0.28
  -5   0   9    0.30    0.13
  -5  -9   0    0.09    0.11
   0  -9  -5    0.03    0.12
   0   9   5   -0.08    0.24
  -9   0   5    0.42    0.27
   5   0  -9    1.90    0.49
  -9  -5   0    1.47    0.18
   9   5   0    0.09    0.31
   0  -9  -5    0.08    0.22
   0  -9   5   -0.02    0.11
   0  -5  -9    0.18    0.33
  -9   0  -5    0.17    0.13
  -9   5   0   -0.09    0.24
  -5   0  -9    0.14    0.13
   9   5  -2   41.09    2.16
  -5  -9   2   41.54    0.99
  -5  -9  -2   40.66    1.01
  -9  -2  -5   40.42    1.02
   2  -9  -5   43.22    2.24
  -2   9   5   36.36    2.05
  -5  -9   2   40.80    2.06
  -5  -2  -9   43.54    1.02
  -9   2  -5   42.91    1.01
  -2  -9  -5   43.80    1.08
  -9  -5  -2   41.24    2.22
  -5   9   2   38.10    2.23
  -5  -2   9   41.03    1.02
   5   2  -9   39.65    2.07
  -9  -5  -2   40.81    0.98
  -9   5   2   42.97    2.29
   2  -9   5   39.41    0.99
  -9   5  -2   41.51    2.19
  -5   2   9   41.21    0.99
  -9  -2  -5   43.33    2.08
  -5  -9  -2   38.62    2.07
  -2  -9   5   42.43    1.06
   9  -2  -5   38.35    1.99
   5   9  -2   43.15    2.12
  -2  -9  -5   41.46    1.02
  -2  -5   9   42.70    1.00
   5  -2  -9   38.13    2.13
   9   2  -5   39.53    2.12
   2  -5  -9   40.54    2.22
   2  -9  -5   41.29    1.02
  -5   9  -2   40.49    2.25
  -2  -5  -9   42.95    2.17
   2  -5   9   41.11    0.99
  -9   5  -4   20.01    0.63
   4  -5  -9   16.88    1.49
   9   4  -5   19.68    1.53
  -4   9   5   22.46    1.70
  -9   4   5   19.46    1.54
   9   5  -4   19.62    1.51
  -5  -9  -4   20.14    1.53
  -9  -4  -5   19.84    1.52
   4  -5   9   21.26    0.70
  -5  -9  -4   21.50    0.72
  -5  -4  -9   20.18    0.66
  -9  -4  -5   20.17    0.65
  -9   5   4   23.06    1.70
  -9   4  -5   20.51    0.66
  -4   5   9   22.55    1.71
  -4  -9  -5   20.42    1.57
   9  -5  -4   18.88    1.50
   5  -4  -9   19.99    1.58
  -4  -5  -9   22.27    0.65
  -5  -4   9   21.01    0.70
  -9  -5  -4   19.84    0.66
  -4  -5   9   20.91    0.69
   5   9  -4   18.40    1.38
  -9  -5  -4   23.81    1.68
  -4  -9  -5   22.21    0.74
  -5  -4  -9   21.78    1.47
  -5   4   9   20.35    0.63
  -9  -4  -5   19.61    0.69
  -4  -5  -9   23.54    1.54
   4  -9   5   19.87    0.70
   5  -9  -4   18.66    1.53
   4  -9  -5   20.82    1.60
   4  -9  -5   19.61    0.70
  -9  -5  -4   22.82    0.74
   5   4  -9   19.57    1.43
  -5   9   4   19.59    1.63
  -5   4   9   21.47    1.68
   9  -4  -5   20.98    1.55
  -6  -9  -1   32.36    1.92
  -1  -9  -6   32.13    1.83
  -9  -6   1   34.40    0.92
   1  -9   6   33.34    0.90
  -9   1  -6   32.63    0.90
  -9   1   6   34.15    1.89
  -9  -6  -1   32.95    0.90
   1  -9  -6   35.08    0.92
  -9  -1  -6   33.19    0.92
  -6  -9   1   34.61    0.91
  -1  -9   6   32.42    0.90
   1  -9  -6   32.33    1.94
  -1  -6  -9   33.17    1.95
  -6   1  -9   33.72    0.93
   9  -1  -6   33.94    1.84
  -6  -1  -9   31.77    0.89
  -6   1   9   35.64    0.92
  -6  -1   9   33.84    0.92
  -1   9   6   32.60    1.93
   1  -6   9   33.81    0.87
   1  -6  -9   33.27    2.01
   6   9  -1   34.34    1.94
   9   6  -1   32.28    1.94
   9   6   1   31.33    1.98
  -9   6  -1   30.55    1.99
  -1  -9  -6   33.49    0.92
  -6   9   1   33.64    2.12
  -1  -6   9   32.68    0.86
  -6  -9   1   34.85    2.00
   6  -1  -9   31.95    1.93
  -9   6   1   32.81    2.06
  -6   9  -1   30.10    2.00
   6   1  -9   31.46    1.87
  -6  -9  -1   31.82    0.89
  -6   3   9    5.23    0.33
  -6  -3  -9    4.75    0.34
   6   3  -9    5.29    0.80
   3  -9  -6    5.10    0.34
  -3  -6  -9    4.55    0.73
  -9  -3  -6    4.76    0.30
  -3   9   6    5.56    0.87
  -6  -9  -3    5.22    0.35
   9   6  -3    5.18    0.79
  -6   9  -3    5.29    0.89
  -6  -3   9    5.11    0.35
  -9  -6  -3    5.27    0.34
  -3  -9  -6    4.97    0.35
  -9   6  -3    5.83    0.87
  -9   3   6    4.26    0.79
  -9   6   3    4.29    0.81
   3  -6  -9    5.65    0.90
  -9  -6  -3    4.61    0.81
  -3  -6   9    5.01    0.33
  -9  -3  -6    4.90    0.35
   6   9  -3    4.91    0.79
  -3  -9   6    5.17    0.36
  -9   3  -6    5.95    0.37
   3  -6   9    4.36    0.31
  -3   6   9    3.04    0.68
   9   3  -6    6.46    0.92
   3  -9   6    5.03    0.34
  -6  -9   3    5.39    0.35
   3  -9  -6    3.00    0.66
  -6  -9  -3    3.68    0.70
  -9  -3  -6    4.74    0.78
  -6   9   3    4.56    0.88
   9  -3  -6    5.12    0.82
   6  -3  -9    4.35    0.79
  -3  -9  -6    5.08    0.35
  -9  -5  -6    4.40    0.34
   9  -6  -5    2.88    0.68
  -5  -9  -6    3.71    0.33
  -9  -6  -5    4.92    0.82
  -5  -6  -9    3.43    0.28
  -6  -5  -9    3.16    0.28
   6  -5  -9    3.05    0.68
   5  -6  -9    2.65    0.63
  -9  -5  -6    3.23    0.28
  -9   6   5    3.71    0.81
   9   6  -5    3.48    0.70
   5  -9  -6    2.60    0.65
  -9  -6  -5    3.92    0.32
  -9   5  -6    4.19    0.33
  -6   5   9    3.42    0.74
  -5   9   6    4.53    0.84
  -5  -6   9    3.68    0.30
   6  -9  -5    2.73    0.66
  -6  -5  -9    3.60    0.31
  -6  -9  -5    3.70    0.32
  -5  -9  -6    3.21    0.72
  -9   6  -5    3.47    0.29
  -6  -5   9    3.92    0.32
  -6  -9  -5    3.97    0.77
   6   9  -5    4.19    0.70
  -9  -5  -6    3.22    0.69
  -9  -6  -5    7.62    0.44
   9   5  -6    2.18    0.61
  -5   6   9    2.40    0.64
  -6   9   5    3.27    0.76
   9  -5  -6    3.39    0.69
  -7   0  -9    0.80    0.19
  -7  -9   0    0.67    0.36
   9   7   0    0.20    0.31
   0  -7  -9    0.09    0.31
  -9  -7   0    0.21    0.14
  -7   0   9    0.28    0.15
  -9   7   0    0.63    0.40
  -7   9   0    0.11    0.31
   7   0  -9    0.18    0.34
   0  -7   9    0.29    0.15
  -9   0  -7    0.74    0.20
   0  -9  -7    0.27    0.36
  -9  -7   0    0.48    0.34
  -7  -9   0    1.00    0.20
  -7   9  -2   49.96    2.69
  -2  -7   9   52.82    1.18
  -7  -2   9   53.94    1.28
   7  -2  -9   50.13    2.53
  -9  -7  -2   52.97    1.25
   9   7  -2   51.76    2.56
  -9   7  -2   49.84    2.61
  -7   9   2   50.87    2.72
  -9   2  -7   54.07    1.27
  -2  -7  -9   56.27    2.57
  -7   2  -9   52.37    1.28
  -7  -9  -2   52.92    1.26
  -9  -7  -2   53.69    2.66
  -2   7   9   54.03    2.68
  -7  -9   2   53.65    1.26
  -2   9   7   53.86    2.65
  -9   7   2   51.72    2.69
   2  -7  -9   57.26    2.74
   7   9  -2   50.58    2.49
  -9  -2  -7   56.08    1.30
  -9  -7   2   50.69    1.24
   9  -2  -7   49.29    2.39
   2  -9  -7   54.11    2.64
   2  -7   9   54.29    1.19
  -7  -2  -9   52.72    1.26
  -7   9  -4   43.99    2.52
  -9  -4  -7   42.53    1.14
   9   4  -7   43.19    2.41
   4  -9  -7   44.48    2.47
  -4   9   7   40.42    2.40
   9  -4  -7   41.27    2.27
  -7  -4  -9   39.79    1.05
   4  -7  -9   41.67    2.37
  -9  -7  -4   42.76    1.11
  -7  -4  -9   42.12    1.10
  -9   4  -7   43.26    1.12
   4  -9   7   44.17    1.10
  -9   7  -4   38.35    2.32
  -7   9   4   39.42    2.45
   4  -7   9   41.87    1.05
   7  -4  -9   39.01    2.27
  -7  -4  -9   43.70    2.29
   9   7  -4   43.15    2.31
  -4  -7   9   42.26    1.05
  -9  -4  -7   40.55    2.23
  -7  -9  -4   40.52    2.32
  -7   4   9   42.67    2.44
  -4   7   9   39.18    2.32
   7   9  -4   43.95    2.29
   9  -7  -4   41.81    2.33
  -9  -4  -7   41.57    1.04
   7  -9  -4   37.77    2.27
  -7  -9  -4   42.80    1.13
  -4  -9  -7   43.00    1.15
  -7  -4   9   41.67    1.11
  -9  -7  -4   41.75    2.35
  -9   7   4   45.59    2.58
  -7   6   9   16.91    1.61
  -7  -6  -9   17.71    0.68
   7   9  -6   17.77    1.47
  -7   9   6   18.44    1.70
  -9   7   6   17.69    1.67
   6  -7  -9   16.19    1.56
  -9  -7  -6   17.66    0.71
  -7  -6  -9   18.00    0.72
  -9  -7  -6   17.61    0.70
  -6  -7  -9   17.94    0.73
  -6  -9  -7   18.07    0.74
  -9   6   7   17.34    1.64
  -9   7  -6   17.36    0.67
  -6   7   9   17.18    1.63
  -7  -6  -9   18.40    1.63
  -6  -9  -7   16.48    1.59
   6  -9  -7   13.44    1.41
   7  -9  -6   12.50    1.37
  -6   9   7   14.70    1.53
   9  -7  -6   15.12    1.49
   9   6  -7   16.91    1.58
  -6  -7   9   17.14    0.66
   9   7  -6   18.32    1.55
  -9   6  -7   17.67    0.70
  -7  -9  -6   17.38    1.59
  -9  -6  -7   17.45    0.69
  -9  -6  -7   17.85    0.72
  -9  -7  -6   14.35    1.46
  -6  -7  -9   17.60    0.66
   9  -6  -7   18.36    1.60
   7  -6  -9   15.83    1.51
   7   6  -9   18.45    1.65
  -7  -9  -6   17.00    0.71
   1  -9  -8   17.23    1.52
  -8   9   1   19.98    1.73
  -1  -8   9   19.11    0.64
  -9   8   1   20.08    1.73
  -8   1  -9   19.41    0.74
  -8  -9  -1   19.91    0.73
  -9  -8   1   20.21    0.73
   8  -1  -9   16.01    1.44
  -9  -1  -8   19.81    0.74
  -1   9   8   20.35    1.60
  -1  -8  -9   17.58    1.49
  -8   9  -1   20.75    1.74
  -1  -9  -8   20.54    1.57
   9   8  -1   19.66    1.60
  -8  -9   1   15.60    1.46
  -8  -9   1   19.33    0.72
  -8  -1  -9   18.85    0.72
  -9   1  -8   19.96    0.74
   8   9  -1   19.36    1.58
  -9  -8  -1   19.65    0.72
  -1   8   9   17.59    1.55
  -9   8  -1   16.75    1.59
   1  -8  -9   18.40    1.56
  -8  -9  -1   18.11    1.61
  -3  -8   9    4.19    0.31
   3  -8  -9    4.58    0.86
  -8   3  -9    4.01    0.35
  -3  -9  -8    4.25    0.37
  -8  -9  -3    4.93    0.87
  -9   3  -8    4.33    0.35
  -8   9   3    5.19    0.95
   9  -3  -8    3.03    0.69
   9   8  -3    3.37    0.75
   8  -3  -9    2.62    0.65
  -9   8   3    4.42    0.87
  -3   9   8    3.47    0.74
  -8  -3  -9    3.84    0.34
   8   9  -3    2.90    0.67
  -8  -3  -9    2.71    0.63
  -9   3   8    4.73    0.86
  -9  -8  -3    3.95    0.34
  -8  -9  -3    3.80    0.34
  -8   3   9    4.90    0.89
  -8  -3  -9    4.18    0.31
  -9  -8  -3    4.04    0.81
  -8   9  -3    4.35    0.86
  -9  -3  -8    4.25    0.35
  -3   8   9    2.87    0.68
   3  -9  -8    3.54    0.74
  -5  -8  -9   16.94    0.73
  -8  -9  -5   17.39    0.72
   9   8  -5   14.61    1.41
   9   5  -8   17.75    1.67
  -9  -5  -8   17.26    0.68
   9  -8  -5   15.27    1.49
  -8  -5  -9   19.31    0.72
  -5  -9  -8   16.43    0.72
  -9  -8  -5   15.32    1.52
  -8  -5  -9   16.22    1.50
  -9   5  -8   18.02    0.73
   5  -9  -8   14.72    1.51
  -9  -5  -8   16.97    0.71
  -8   5   9   13.95    1.47
  -5   8   9   14.91    1.51
  -5  -8   9   16.51    0.63
  -8  -5  -9   16.51    0.69
   8   5  -9   17.29    1.68
  -8   5  -9   17.16    0.72
   8  -5  -9   20.44    1.69
  -9  -8  -5   18.17    0.73
  -9   8  -5   16.55    1.60
   5  -8  -9   16.17    1.58
   8  -9  -5   16.71    1.57
   9  -5  -8   14.58    1.47
  -8   9   5   16.09    1.65
  -8   9  -5   17.27    1.67
  -5   9   8   19.94    1.74
   8   9  -5   13.98    1.37
  -8  -9  -5   16.78    1.58
  -9  -8  -7    5.16    0.41
  -9  -7  -8    4.48    0.39
  -8  -7  -9    4.13    0.39
  -9  -7  -8    5.06    0.41
  -7  -9  -8    4.13    0.39
  -7  -8  -9    5.29    0.44
  -8  -7  -9    4.85    0.40
  -9  -8  -7    4.36    0.41
  -8  -9  -7    5.21    0.43
  -7  -8  -9    4.93    0.39
  -9   0  -9    0.47    0.18
  -9   9   0    0.24    0.41
  -9  -9   2    6.16    0.42
  -9   2  -9    6.24    0.43
   9   9  -2    5.94    0.94
  -9   9  -2    4.82    0.90
  -9  -9  -2    5.84    0.99
  -9  -9  -2    6.05    0.42
  -9  -2  -9    6.77    0.45
   2  -9  -9    8.45    1.11
   9  -2  -9    5.28    0.88
   9   9  -4    0.61    0.36
  -9   4  -9    0.12    0.19
  -9  -4  -9    0.08    0.15
  -9  -4  -9    0.07    0.17
  -9  -9  -4    0.29    0.19
  -4  -9  -9    0.12    0.19
   9  -4  -9    0.32    0.33
  -9   4   9    0.12    0.31
  -9  -9  -6   61.08    1.55
  -9   6  -9   62.97    1.56
  -9  -6  -9   60.62    1.51
  -9  -6  -9   59.42    1.50
  -6  -9  -9   57.97    1.54
  -9  -8  -9    0.14    0.22
  -9  -8  -9   -0.03    0.20
  -8  -9  -9   -0.09    0.21
  -9  -9  -8    0.11    0.19
   0   0 -10    2.69    0.64
 -10   0   0    0.78    0.13
  10   0   0    1.85    0.50
   0   0  10    0.07    0.12
   0 -10   0    1.01    0.33
   0  10   0    1.21    0.40
  -1 -10  -1  104.03    3.17
 -10   1  -1  109.26    1.81
  -1  -1 -10   99.40    3.53
  -1  10   1  108.92    3.52
  -1 -10   1  109.33    2.06
  -1  -1  10  108.17    1.94
  10   1  -1  115.07    3.60
  -1 -10  -1  110.31    2.07
   1 -10  -1  107.58    2.05
  10  -1  -1  111.31    3.44
   1  -1 -10  104.65    3.59
  10  -1   1  101.54    3.16
  -1   1  10  108.62    1.92
  10   1   1  107.05    3.41
   1   1  10  105.68    1.92
   1 -10   1  106.93    2.05
   1  -1  10  113.22    1.97
 -10   1   1  115.09    3.26
  -1  10  -1  107.21    3.50
 -10  -1  -1  107.28    1.86
  -1 -10   1  111.29    3.13
   0  10   2  492.41    9.20
 -10   0  -2  483.36    6.86
   0  10  -2  469.06    9.08
   0 -10   2  501.28    7.12
   0  -2 -10  497.42    9.63
  -2  10   0  490.66    9.48
   0   2  10  518.34    6.95
  -2 -10   0  496.38    7.14
  -2 -10   0  483.32    8.91
  10  -2   0  536.53    9.04
  10   0   2  490.84    8.94
   2 -10   0  492.33    7.10
   2   0  10  499.22    6.98
  10   2   0  482.74    9.30
   0  -2  10  498.65    6.97
  -2   0  10  503.49    6.96
 -10   2   0  510.23    9.14
   0 -10  -2  505.93    7.13
  -2 -10   0  503.94    6.83
   2   0 -10  484.57    9.52
   0 -10  -2  507.61    9.01
 -10   2  -2    6.51    0.31
 -10  -2  -2    0.02    0.10
   2   2  10    0.01    0.11
  -2  10  -2    2.54    0.59
  -2 -10  -2    3.89    0.26
   2 -10   2    3.87    0.31
   2  -2 -10    0.18    0.28
  -2 -10   2    0.45    0.17
  -2   2  10    0.71    0.17
   2 -10  -2    3.01    0.28
  -2  10   2    4.35    0.71
  -2  -2 -10    0.18    0.28
  -2 -10  -2    0.15    0.27
   2  -2  10    1.12    0.19
  10   2   2    0.40    0.30
  10   2  -2    0.60    0.33
  -2 -10   2    1.42    0.39
  10  -2  -2    2.47    0.55
  -2 -10  -2    1.01    0.21
  -2  -2  10    0.65    0.17
 -10  -2  -2    4.45    0.71
  -3 -10  -1   10.76    1.04
  -1  10   3    9.07    1.00
   3   1 -10   13.25    1.21
 -10  -3  -1   10.33    0.42
 -10  -1  -3   10.27    0.45
  -3   1  10   11.44    0.48
  -3 -10   1    9.57    0.41
  -3 -10   1   12.99    0.59
  -3 -10   1   10.81    1.02
 -10  -1  -3    8.77    0.95
  -1 -10  -3   10.22    0.43
   1  -3 -10   12.59    1.25
   3   1  10    9.74    0.46
  10   3  -1   12.09    1.17
   3  -1  10    9.54    0.46
  10   3   1   10.98    1.10
 -10   1  -3    9.80    0.43
  -1  -3 -10   11.05    1.14
  10   1  -3    9.46    1.03
  -3  -1 -10    9.13    0.42
   1   3  10    9.52    0.43
 -10   3  -1   11.89    1.13
  -1 -10  -3   10.13    0.51
   3  -1 -10    9.50    1.06
  -1  -3  10   10.02    0.46
  -3 -10  -1    9.92    0.43
  10  -3  -1    9.41    0.93
   1  -3  10    9.43    0.45
  -3 -10  -1   10.69    0.53
  -1   3  10   10.04    0.43
  -1 -10  -3   11.03    1.04
  -3  -1  10   13.68    0.53
   1 -10   3    9.42    0.48
  10  -1  -3    9.75    1.02
  -3  10  -1    7.55    0.98
   3 -10  -1   10.09    0.51
  -1 -10   3    9.22    0.49
 -10   1   3   10.44    1.00
  -3  10   1    9.95    1.11
   1 -10  -3   10.54    0.51
 -10  -3  -1   10.21    0.45
 -10   3   1    8.74    0.98
   3 -10   1    9.96    0.52
  -3   3  10   31.88    0.84
 -10   3  -3   32.19    0.82
   3  -3  10   30.52    0.89
 -10  -3  -3   30.70    0.80
  -3  -3  10   38.87    0.96
 -10  -3  -3   32.84    0.90
 -10   3  -3   30.93    1.80
  -3 -10  -3   33.43    1.00
  -3 -10  -3   32.50    1.88
  -3 -10  -3   32.48    0.88
  -3  -3 -10   33.78    1.96
  -3  10  -3   28.90    1.88
   3 -10   3   33.10    0.97
   3 -10  -3   30.83    0.94
  10   3  -3   29.92    1.86
   3  -3 -10   32.77    2.00
 -10  -3  -3   33.81    1.94
  10  -3  -3   33.43    1.85
  -3 -10   3   33.20    0.99
 -10   3   3   34.44    1.95
   3   3  10   33.38    0.89
  10   0  -4 1388.42   21.44
  -4 -10   0 1421.17   18.39
   0  10   4 1400.58   21.18
   0 -10  -4 1413.65   18.36
   0  -4 -10 1454.12   21.87
  -4  10   0 1412.06   21.91
  -4 -10   0 1437.60   18.69
  -4   0 -10 1377.43   18.42
 -10  -4   0 1388.59   18.37
   4 -10   0 1419.61   18.65
  -4 -10   0 1434.65   21.26
 -10   4   0 1407.75   21.52
 -10   0  -4 1419.40   18.42
   0  -4  10 1406.95   18.44
   0   4  10 1394.62   18.33
   4   0 -10 1407.64   21.67
   0 -10  -4 1428.37   18.58
   0 -10  -4 1443.09   21.29
  -4   0  10 1406.90   18.46
   0 -10   4 1441.38   18.58
  10   4   0 1383.35   21.55
  -2 -10   4 4397.45   56.72
 -10  -4  -2 4455.11   56.50
  -2  -4  10 4453.89   56.60
  -4  10  -2 4354.60   60.25
  -4  -2 -10 4415.75   56.53
  -2  -4 -10 4402.12   60.08
  -2 -10  -4 4443.57   56.58
   4 -10   2 4468.60   56.78
 -10  -2  -4 4301.07   59.63
  10   4  -2 4576.31   60.16
 -10  -2  -4 4438.63   56.61
   2 -10  -4 4614.69   60.16
   2 -10  -4 4462.68   56.71
  -4 -10   2 4434.32   56.82
   4 -10  -2 4491.39   56.78
  -4 -10  -2 4313.52   59.66
  -4  -2  10 4476.58   56.63
 -10  -4  -2 4431.50   56.61
  10   4   2 4538.18   59.92
   4   2 -10 4471.36   59.89
  -2   4  10 4432.09   56.47
   4  -2 -10 4496.27   60.36
  -4  10   2 4559.06   60.54
   2  -4  10 4481.15   56.60
  -4   2  10 4411.91   56.56
 -10   2  -4 4459.56   56.53
   2 -10   4 4433.67   56.71
   2  -4 -10 4501.28   60.37
   2   4  10 4480.50   56.50
  10   2  -4 4342.49   59.90
  -4 -10   2 4507.10   59.48
  -2 -10  -4 4363.32   59.69
 -10   4  -2 4266.04   59.72
  -4 -10  -2 4437.21   56.57
  -4 -10  -2 4518.49   56.84
  -4 -10   2 4479.61   56.50
  -2 -10  -4 4457.85   56.75
   4 -10   4    0.10    0.16
   4  -4  10    0.43    0.17
  10  -4  -4    0.80    0.43
   4   4 -10    1.93    0.54
  -4  -4 -10    0.95    0.43
  -4  -4 -10    0.23    0.15
  -4   4  10    8.37    0.39
 -10  -4  -4    1.86    0.25
   4 -10  -4    0.08    0.14
  -4 -10  -4    0.58    0.18
   4  -4 -10    0.10    0.40
 -10   4  -4    0.19    0.14
 -10   4   4    0.48    0.37
 -10   4  -4   17.73    1.41
  10   4  -4    5.97    0.89
  -4  10   4   -0.11    0.30
  -4 -10  -4    7.53    0.47
  -4 -10  -4    3.11    0.69
   4 -10  -4    4.47    0.80
  -1 -10  -5    7.37    0.44
 -10  -5   1   10.28    0.47
  -5  -1  10    9.32    0.47
  -5   1  10    7.57    0.41
  -5 -10   1    8.27    0.42
  -1  10   5    7.34    0.97
   5   1 -10    7.04    0.94
  -5 -10  -1    7.82    0.42
  -1  -5  10    7.49    0.41
 -10   1  -5    9.39    0.45
  -5 -10  -1    7.68    0.95
   5  -1 -10    7.63    1.05
  -1 -10  -5    7.19    0.41
 -10   5   1    7.75    1.04
  -5  -1 -10    8.46    0.44
  10   5   1    7.32    0.97
 -10  -1  -5    7.45    0.42
 -10  -5  -1    7.35    0.40
 -10  -5  -1    5.97    0.90
  -1  -5 -10    7.85    1.03
  10   5  -1    7.25    1.00
  -5  10  -1    5.71    0.92
 -10   5  -1    7.74    1.01
  -1 -10   5    8.22    0.46
  -5  10   1    7.44    1.03
   1 -10  -5    7.32    0.43
  -5   1 -10    8.30    0.44
   1  -5  10    8.20    0.43
   1 -10   5    7.44    0.43
  10   1  -5    6.99    0.95
   1  -5 -10    7.46    1.01
   1 -10  -5    5.98    0.91
  -3  -5 -10   35.69    2.06
   3 -10   5   37.34    1.04
 -10  -3  -5   38.79    1.04
 -10  -3  -5   34.36    0.89
  -5  -3 -10   39.49    1.00
  -3 -10  -5   38.76    1.03
 -10   5  -3   38.64    2.17
  -3 -10  -5   33.53    2.04
  -5   3  10   39.01    0.98
  -5  -3  10   38.62    1.03
  -5 -10  -3   35.96    1.00
   5   3 -10   37.12    2.05
  -5  10  -3   38.78    2.31
  -5 -10   3   38.84    0.98
  -3 -10   5   38.47    1.08
   3 -10  -5   36.52    1.04
  -5  10   3   37.71    2.28
  -3  -5  10   36.41    0.99
 -10  -5  -3   36.78    2.17
  -3  10   5   41.19    2.31
   3 -10  -5   33.60    2.06
 -10  -5  -3   38.03    0.98
  -5  -3 -10   39.09    2.12
 -10  -5  -3   38.46    1.04
   5  -3 -10   35.79    2.16
  -5 -10  -3   41.89    2.24
 -10   3  -5   39.01    1.00
   3  -5  10   36.87    0.99
  10   5  -3   37.97    2.17
   3  -5 -10   32.84    2.11
  10  -3  -5   39.44    2.10
  10   3  -5   37.88    2.18
   5  10  -3   36.95    2.00
 -10   5   3   39.55    2.27
  -3 -10  -5   38.61    1.09
  -5 -10  -5   17.82    1.56
  -5  -5  10   18.88    0.70
   5  -5 -10   18.91    1.62
  -5 -10  -5   19.08    0.74
  -5  -5 -10   18.78    0.66
 -10   5  -5   19.39    0.68
 -10  -5  -5   18.98    0.68
   5 -10   5   19.05    0.74
 -10   5   5   18.78    1.62
  10  -5  -5   17.66    1.52
  10   5  -5   20.01    1.60
 -10  -5  -5   18.07    1.53
   5 -10  -5   20.30    1.70
 -10  -5  -5   19.59    0.75
  -5  10   5   18.86    1.66
   5 -10  -5   19.39    0.75
 -10   6   0  585.19   11.42
 -10  -6   0  581.89    8.32
  -6 -10   0  612.62    8.37
 -10   0  -6  597.41    8.38
  -6   0 -10  594.15    8.38
  -6  10   0  579.23   11.57
 -10  -6   0  593.12   11.32
   0  -6  10  609.04    8.32
  10   6   0  593.05   11.37
  -6 -10   0  614.05   11.35
   6   0 -10  602.66   11.30
   0 -10  -6  628.50   11.21
   0  -6 -10  626.18   11.55
  -6   0  10  600.09    8.37
   0 -10   6  607.30    8.39
   0 -10  -6  625.29    8.42
   2 -10  -6   15.88    0.64
   2 -10  -6   12.76    1.30
  -2 -10  -6   18.33    0.69
  -2  -6 -10   10.15    1.14
   2  -6  10   12.97    0.56
  -6  10   2   15.94    1.54
  -6  -2 -10   13.77    0.59
 -10   2  -6   24.76    0.76
   2 -10   6   13.56    0.60
  10   2  -6   17.04    1.52
   6   2 -10   14.92    1.32
  -6   2 -10   16.09    0.65
  -6  -2  10   14.39    0.61
  -2 -10   6   23.51    0.77
  -6 -10   2   12.70    0.56
  -6 -10  -2   14.30    0.60
 -10   2   6   11.79    1.23
   2  -6 -10   12.81    1.35
  -2  10   6   12.93    1.30
   6  10  -2   13.41    1.24
  -2 -10  -6   16.12    0.64
  -6  10  -2   15.48    1.48
 -10   6   2   14.98    1.45
  -2  -6  10   25.11    0.75
  10   6  -2   11.57    1.23
 -10   6  -2   11.64    1.28
   6  -2 -10   11.51    1.28
 -10  -2  -6   13.46    0.60
 -10  -6  -2   10.60    1.22
  -6 -10   2   12.49    1.24
  -6   2  10   15.57    0.61
   4  -6  10 2971.72   38.73
  -4 -10  -6 3063.40   38.87
  -6  -4 -10 3059.10   38.74
 -10  -4  -6 3018.85   38.83
  -6 -10  -4 3041.14   38.83
 -10  -6  -4 3050.38   38.74
  10  -6  -4 2948.80   42.33
  -6  10  -4 2825.16   42.71
  -6   4  10 3031.73   38.64
 -10   4  -6 2977.34   38.74
  -4 -10  -6 3081.97   42.74
  10   6  -4 2937.20   42.28
   6  -4 -10 2959.93   42.64
   4 -10   6 3037.66   38.83
  10  -4  -6 3037.52   42.30
  -6  -4  10 2951.54   38.79
  -6 -10  -4 3027.52   42.50
  -6  10   4 3027.73   43.19
 -10  -4  -6 3076.18   42.34
 -10   6   4 3054.14   42.92
   4 -10  -6 3017.61   38.82
 -10  -4  -6 3028.72   38.65
   4  -6 -10 3026.61   42.75
  10   4  -6 3052.80   42.59
  -4  -6  10 3025.35   38.74
 -10   6  -4 2891.75   42.47
   4 -10  -6 3193.20   42.96
 -10  -6  -4 3032.44   38.84
  -6  -6 -10    1.35    0.25
 -10   6  -6    1.05    0.22
   6  -6 -10    3.23    0.76
  -6 -10  -6    0.56    0.22
 -10  -6  -6    5.31    0.90
  -6   6  10    0.59    0.47
 -10  -6  -6    0.47    0.20
 -10  -6  -6    5.28    0.38
  10   6  -6    0.94    0.45
  10  -6  -6    0.97    0.50
  -6  10   6    2.93    0.74
  -6 -10  -6    0.44    0.39
  -6  -6 -10    3.57    0.32
  -7   1  10    4.69    0.36
  -7 -10  -1    5.02    0.37
  -7 -10  -1    4.56    0.83
 -10  -7   1    4.56    0.35
  -7 -10   1    4.88    0.36
 -10  -7  -1    3.90    0.32
   1 -10  -7    3.93    0.78
  -7  -1  10    4.13    0.34
  -7   1 -10    4.71    0.37
  -1  -7  10    4.96    0.34
   7  -1 -10    4.74    0.84
  -7  10  -1    2.93    0.74
  -1 -10   7    4.58    0.34
 -10  -1  -7    4.40    0.36
 -10   7   1    4.52    0.88
 -10   7  -1    4.78    0.89
  -1  10   7    5.42    0.87
  -1  -7 -10    4.28    0.80
   1  -7  10    4.99    0.35
 -10   1  -7    4.21    0.35
   1 -10   7    4.61    0.34
  -7 -10   1    4.06    0.78
  10   7  -1    3.49    0.73
   1  -7 -10    3.46    0.72
   7   1 -10    4.33    0.77
  -7  -1 -10    4.56    0.37
   7  10  -3   -0.10    0.31
  -7  10   3    0.12    0.37
   3  -7  10    0.45    0.17
  -7  -3 -10    0.08    0.16
   3  -7 -10    0.22    0.41
  -3  10   7    0.22    0.41
   3 -10   7    0.19    0.16
  -7   3 -10    0.02    0.16
  -3 -10  -7    2.29    0.29
 -10  -7  -3    0.08    0.15
  -7 -10  -3    1.01    0.22
   3 -10  -7   -0.11    0.36
 -10   7  -3    0.44    0.36
 -10   7   3   -0.12    0.33
 -10   3  -7    0.20    0.18
 -10  -3  -7    0.06    0.16
  10   3  -7    1.51    0.56
  10  -3  -7    0.39    0.36
  -7  -3 -10    0.10    0.13
  -7  -3  10    0.08    0.15
  -7   3  10    0.11    0.15
  -3 -10   7    0.23    0.16
  10   7  -3    0.50    0.40
  -3  -7  10    0.09    0.14
  -7 -10  -3    0.94    0.48
  -7  10  -3    1.63    0.61
 -10  -7  -3    0.33    0.33
   7  -3 -10    0.11    0.32
 -10   3   7    0.31    0.38
 -10  -5  -7   12.03    1.30
 -10   7   5   13.50    1.47
 -10  -7  -5   11.94    0.58
  -7  -5 -10   12.90    0.60
 -10  -5  -7   12.51    0.57
  -7 -10  -5   12.86    0.62
  -5 -10  -7   12.84    0.64
  -5  -7 -10   12.69    0.63
   7  -5 -10   10.23    1.23
 -10   5  -7   12.25    0.59
   5 -10   7   11.95    0.58
 -10  -7  -5   10.38    1.24
  10   7  -5   11.73    1.30
 -10   5   7   11.08    1.30
  -5  10   7   12.32    1.40
  -7  -5  10   12.34    0.60
   5  -7  10   12.68    0.58
 -10  -5  -7   11.99    0.60
  10  -7  -5    9.97    1.23
 -10   7  -5   10.81    1.29
  -7   5  10   10.27    1.29
  10   5  -7   11.02    1.30
  -7  -5 -10   12.20    0.58
   5 -10  -7   11.20    1.32
  10  -5  -7   10.32    1.22
  -5  -7  10   11.55    0.55
 -10  -7  -7   51.75    1.35
  -7 -10  -7   47.68    1.38
 -10   7  -7   52.09    1.34
  -7  -7 -10   49.96    1.28
  -7  -7 -10   47.69    1.34
 -10  -7  -7   50.64    1.37
  -8 -10   0    0.50    0.19
   0  -8 -10    0.32    0.41
 -10  -8   0   -0.02    0.15
 -10   0  -8    1.72    0.26
   0  -8  10   -0.02    0.14
 -10  -8   0    0.22    0.35
  -8   0 -10    0.61    0.20
  10   8   0    1.58    0.59
  -8  10   0    2.90    0.71
  -8 -10   0    0.64    0.46
   2  -8 -10  759.55   14.09
   8  -2 -10  788.62   14.12
  -2 -10  -8  817.68   10.99
  -8  10   2  794.39   14.78
 -10   8  -2  751.91   14.23
  -2  -8  10  762.94   10.71
 -10  -2  -8  818.81   10.97
   8  10  -2  761.04   14.00
  10   8  -2  801.02   14.14
  -8  -2 -10  809.85   10.94
  -8 -10   2  808.45   10.92
 -10   8   2  849.75   14.92
 -10  -8  -2  783.16   10.89
  -8 -10  -2  781.79   10.91
  -8   2 -10  790.04   10.94
  -8 -10  -2  765.05   14.08
 -10   2  -8  799.67   10.94
 -10  -8  -2  779.52   14.27
   2  -8  10  781.94   10.72
   2 -10  -8  809.85   14.32
  -4  -8  10  952.03   12.94
 -10  -8  -4  957.95   13.10
  10  -4  -8  973.87   16.48
 -10  -4  -8  960.88   12.92
  -8  -4 -10  981.39   13.12
  -8  -4 -10  956.64   12.97
 -10  -4  -8  976.67   13.16
 -10   4  -8  981.68   13.14
   8  10  -4  924.79   16.04
  -8   4 -10  985.16   13.21
   8  -4 -10  936.77   16.44
  -8 -10  -4  962.29   13.14
   4  -8  10  938.85   12.90
  -4 -10  -8  976.61   13.20
   6  -8  10  678.61    9.20
  -8 -10  -6  656.92    9.37
  -8  -6 -10  640.81    9.27
  -8  -6 -10  652.45    9.26
 -10  -6  -8  672.68    9.38
 -10  -8  -6  655.84    9.32
 -10  -6  -8  670.12    9.26
  -6  -8 -10  659.75    9.39
 -10   8  -6  645.35    9.16
 -10   6  -8  657.66    9.31
  -6 -10  -8  668.82    9.43
  -6  -8  10  642.84    9.17
  -8  -8 -10    0.58    0.23
 -10   8  -8    0.40    0.22
 -10  -8  -8    0.29    0.21
  -8  -8 -10    0.08    0.19
 -10  -1  -9    1.94    0.29
  -9   1 -10    1.59    0.27
  -9 -10   1    0.71    0.22
 -10  -9  -1    0.66    0.21
 -10  -9   1    0.53    0.19
   1  -9 -10    0.67    0.40
  -9 -10  -1    0.37    0.18
   1 -10  -9    0.11    0.33
  -9  -1 -10    0.67    0.22
 -10   1  -9    0.45    0.20
 -10  -3  -9   15.78    0.72
 -10  -9  -3   16.49    0.73
  -9 -10  -3   16.14    0.73
  -3 -10  -9   16.40    0.75
  -9  -3 -10   17.30    0.74
  -9   3 -10   16.22    0.74
 -10   3   9   15.54    1.57
 -10   3  -9   18.07    0.77
 -10  -5  -9   16.61    0.75
  -9  -5 -10   17.46    0.77
  -5  -9 -10   17.04    0.79
  -9 -10  -5   17.36    0.78
 -10   5  -9   17.42    0.77
 -10  -9  -5   17.15    0.77
  -9   5 -10   18.17    0.81
  -5  -9  10   17.23    0.68
 -10  -5  -9   18.18    0.72
  -9  -5 -10   15.74    0.69
  -5 -10  -9   17.33    0.79
 -10  -7  -9    5.15    0.45
 -10  -7  -9    5.31    0.44
 -10   9  -7    5.06    0.41
 -10  -9  -7    5.43    0.47
  -9  -7 -10    4.94    0.45
  -7 -10  -9    6.15    0.49
  -7  -9 -10    4.45    0.44
  -9  -7 -10    5.34    0.45
 -10   7  -9    5.83    0.48
  -9   7 -10    5.26    0.46
  -9 -10  -7    5.56    0.47
  -9  -9 -10   24.84    0.96
  -9 -10  -9   23.80    1.00
  -9  -9 -10   24.77    1.02
 -10   9  -9   26.27    1.01
 -10  -9  -9   23.16    0.98
 -10   0 -10 1280.29   17.56
 -10 -10   0 1334.29   17.54
 -10 -10   2    0.40    0.22
 -10   2 -10    0.08    0.20
 -10   4 -10 2247.20   29.47
  -4 -10 -10 2254.13   29.53
 -10  -4 -10 2256.40   29.44
 -10 -10  -4 2238.79   29.44
 -10  -6 -10    0.14    0.20
 -10   6 -10    1.05    0.29
  -6 -10 -10    0.72    0.25
 -10 -10  -6    1.28    0.29
 -10  -6 -10    0.43    0.22
 -10   8 -10  207.15    3.67
 -10 -10  -8  188.43    3.61
  -8 -10 -10  195.48    3.70
 -10  -8 -10  193.74    3.56
 -10  -8 -10  190.37    3.54
 -10  10 -10    0.45    0.27
 -10 -10 -10    0.54    0.27
  -1 -11   0    0.02    0.15
   1 -11   0    0.08    0.15
 -11   0  -1    0.05    0.11
   0   1  11    0.02    0.12
 -11  -1   0   -0.03    0.11
   0 -11   1    0.06    0.16
   0 -11  -1    0.02    0.15
   0  -1  11   -0.07    0.15
  -1   0  11   -0.03    0.14
   1   0 -11    0.19    0.27
  11  -1   0   -0.08    0.25
   0  -1 -11    0.37    0.32
  11   1   0    0.09    0.26
  11   0  -1    0.08    0.26
  11   0   1    0.32    0.32
   1   0  11    0.10    0.14
  11  -2  -1    3.47    0.63
  -2   1  11    3.47    0.30
  -2  -1 -11    4.16    0.30
  -2 -11  -1    4.07    0.28
   1  -2 -11    3.19    0.70
  11   2  -1    4.01    0.72
  -1  -2 -11    3.19    0.67
  11   1  -2    3.42    0.69
 -11   1  -2    4.12    0.29
   2  -1 -11    3.42    0.69
 -11  -2  -1    3.60    0.26
  -2 -11   1    3.82    0.35
  -2  11  -1    5.38    0.82
  -1  -2  11    3.75    0.32
  -2  -1  11    4.12    0.33
   2   1 -11    3.92    0.72
  -1  11   2    2.75    0.63
  -2  11   1    3.80    0.74
   2 -11   1    4.31    0.37
  -2 -11  -1    4.35    0.37
  -2  -1 -11    3.49    0.72
   1  -2  11    3.99    0.32
  11  -1  -2    3.79    0.71
   2  -1  11    3.52    0.30
  -1 -11  -2    3.99    0.36
   1 -11  -2    3.73    0.35
 -11  -2  -1    3.89    0.30
  -1   2  11    4.15    0.31
   1 -11   2    4.33    0.37
   2   1  11    3.67    0.31
 -11  -1  -2    3.86    0.30
  11   1   2    4.36    0.71
  11   2   1    3.21    0.63
   2 -11  -1    4.09    0.35
  -2 -11  -1    3.65    0.63
   1   2  11    6.09    0.37
  -1 -11   2    3.61    0.34
   3   0  11    0.02    0.15
   0  -3  11    0.04    0.16
   0 -11  -3    0.11    0.16
  -3   0 -11    0.19    0.15
  -3 -11   0    0.06    0.12
  -3 -11   0    0.32    0.26
   0 -11   3    0.06    0.17
   3 -11   0    0.15    0.17
  -3 -11   0    0.27    0.17
 -11   0  -3    0.51    0.16
  -3  11   0   -0.10    0.33
   0 -11  -3    0.54    0.33
   0  -3 -11   -0.10    0.35
  -3   0  11    0.21    0.16
  11   0  -3    0.91    0.44
   3   0 -11    0.10    0.25
   0   3  11    0.11    0.14
   2 -11   3    0.75    0.21
  -3 -11   2    0.99    0.23
  -3   2  11    1.20    0.21
   3   2 -11    0.47    0.40
  -3  11   2    1.19    0.45
 -11   3   2    0.26    0.34
  -2  -3 -11    1.64    0.53
  -3 -11  -2    1.57    0.21
  -2 -11  -3    0.86    0.39
   3   2  11    0.73    0.19
  -2  -3  11    0.91    0.20
 -11  -3  -2    0.99    0.18
  -2 -11   3    0.92    0.22
  -2 -11  -3    0.86    0.23
   2 -11  -3    1.02    0.22
  -2  11  -3    1.74    0.56
   3  -2 -11    0.81    0.39
  -3  11  -2    1.40    0.50
  11   3  -2    1.34    0.49
  -2  11   3    1.26    0.50
   3  -2  11    0.96    0.20
 -11  -2  -3    0.77    0.19
   2  -3 -11    0.62    0.35
 -11  -3  -2    2.08    0.25
  -3 -11  -2    0.77    0.21
  -3 -11  -2    0.59    0.37
  -3  -2 -11    0.95    0.18
   3 -11   2    1.29    0.24
   2   3  11    0.88    0.19
 -11   2  -3    0.69    0.16
   3 -11  -2    2.46    0.30
  11   3   2    1.02    0.43
  -3  -2  11    0.82    0.19
  -2   3  11    0.78    0.18
  11   2  -3    0.75    0.39
   2  -3  11    0.86    0.20
  11  -2  -3    0.93    0.39
 -11  -2  -3    0.69    0.38
 -11  -3  -2    0.37    0.33
  -2 -11  -3    1.54    0.21
  -3  -2 -11    0.49    0.36
  -1 -11  -4   68.93    1.62
   4   1  11   70.11    1.54
  -4 -11   1   70.00    2.83
 -11  -4  -1   67.17    1.44
 -11  -1  -4   74.00    1.53
  -4 -11  -1   69.18    1.47
  -4   1  11   68.42    1.50
  -4  -1 -11   69.65    1.47
  -4 -11   1   71.00    1.67
   1  -4  11   74.53    1.56
  -4 -11  -1   72.10    1.68
 -11   1  -4   67.60    1.46
   1  -4 -11   73.13    3.17
  -1  -4 -11   74.38    3.14
   1 -11  -4   68.56    2.90
  -4   1 -11   69.62    1.51
   4 -11   1   72.62    1.67
   4 -11  -1   72.18    1.67
  11   4   1   71.01    3.02
  11   4  -1   68.73    2.98
  -1  -4  11   70.76    1.53
  -4  -1  11   71.01    1.54
  -1   4  11   72.40    1.46
  -4 -11   1   72.83    1.47
  -1 -11  -4   70.54    1.47
   4  -1  11   70.55    1.56
   1 -11   4   73.23    1.63
  -1  11   4   74.01    3.04
  -4  11   1   69.31    3.09
  11   1  -4   65.10    2.90
   4   1 -11   68.94    2.98
  -4  11  -1   62.64    2.95
 -11   4   1   70.07    2.93
   1   4  11   69.06    1.45
  11  -1  -4   65.12    2.83
   1 -11  -4   71.67    1.62
   4  -1 -11   69.63    3.07
  -1 -11   4   72.67    1.63
  11   3  -4    6.92    0.98
  -3 -11   4    6.11    0.44
  -3  11   4    6.56    0.98
  -4 -11   3    6.79    0.38
  -4 -11  -3    6.74    0.41
 -11   3  -4    6.91    0.39
 -11  -3  -4    6.91    0.95
  -3 -11  -4    8.02    0.45
  -3 -11  -4    7.40    0.49
   3 -11   4    6.81    0.45
  -4  11   3    6.09    0.96
 -11  -4  -3    7.26    0.40
  -4 -11   3    6.49    0.46
   4 -11  -3    7.04    0.47
   4 -11   3    7.79    0.49
 -11   4  -3    6.13    0.90
  -3  -4 -11    6.28    0.94
   4   3  11    7.10    0.42
   4   3 -11    5.38    0.85
  -4  -3  11    7.09    0.43
  -3   4  11    7.18    0.39
  -3  -4  11   10.91    0.52
  -4  -3 -11    6.92    0.39
 -11  -3  -4    6.59    0.37
 -11  -3  -4    6.87    0.42
   3  -4  11    7.31    0.43
   3   4  11    7.07    0.41
   4  -3  11    6.51    0.42
   3 -11  -4    6.52    0.44
  -4 -11  -3    7.89    0.50
  -4   3  11    6.76    0.40
  -4  11  -3    6.50    1.00
  -3 -11  -4    6.68    0.94
  -4 -11  -3    4.51    0.78
  11   4  -3    6.58    0.94
   4  -3 -11    7.51    1.04
 -11   4   3    7.45    1.00
   3  -4 -11    6.75    1.00
  -3  11  -4    6.70    0.98
  -4  -3 -11    5.66    0.88
 -11  -4  -3    7.58    0.44
  -5   0 -11    0.09    0.16
 -11  -5   0    0.19    0.14
  -5 -11   0   -0.09    0.14
  -5   0  11    0.02    0.14
   5 -11   0    0.07    0.17
   0 -11  -5    0.23    0.17
  11   5   0   -0.10    0.27
   0  -5 -11    0.42    0.35
   0 -11   5    0.33    0.18
   5   0 -11    0.10    0.31
  -5 -11   0   -0.28    0.28
   0  -5  11   -0.04    0.14
  11   0  -5    0.30    0.34
 -11   5   0   -0.10    0.30
   0 -11  -5    0.14    0.13
  -5  11   0    0.11    0.30
  -2  -5  11   41.90    1.11
 -11  -5  -2   39.32    1.03
  -5   2  11   38.54    1.05
  -2 -11  -5   41.95    1.18
  -5 -11  -2   39.56    1.07
  11   2  -5   39.50    2.31
  -2 -11  -5   40.30    1.08
   5  -2 -11   37.91    2.28
  -2 -11  -5   41.93    2.27
  11   5  -2   37.55    2.24
  -2 -11   5   42.54    1.18
   5 -11   2   45.64    1.25
   5 -11  -2   44.39    1.23
  -5   2 -11   40.37    1.11
   2 -11  -5   37.83    2.25
  -2  -5 -11   41.56    2.33
   2 -11   5   38.94    1.12
  -5  -2  11   40.74    1.11
 -11  -2  -5   40.53    1.10
  -5  -2 -11   41.06    1.08
   2  -5  11   41.32    1.10
 -11   2  -5   39.29    1.05
  -5 -11   2   41.06    1.05
  -5  11  -2   36.95    2.31
 -11   5   2   43.77    2.39
   2  -5 -11   41.99    2.40
   2 -11  -5   39.80    1.13
 -11  -5  -2   39.19    2.26
  -5 -11   2   39.13    2.14
  -2  11   5   37.29    2.20
   5   2 -11   40.15    2.27
 -11   4  -5    1.02    0.20
   5  -4  11    1.24    0.24
   4  -5  11    1.10    0.22
 -11  -4  -5    1.29    0.21
 -11  -5  -4    1.39    0.53
  -5  11  -4    0.81    0.43
   4   5  11    0.92    0.20
 -11  -5  -4    1.37    0.21
 -11  -5  -4    1.07    0.23
  -5 -11  -4    1.28    0.22
   5 -11   4    1.17    0.23
 -11   5  -4    1.41    0.50
  11  -5  -4    1.38    0.52
 -11  -4  -5    0.71    0.20
   5   4 -11    1.04    0.46
  -4 -11  -5    1.70    0.26
   4  -5 -11    1.46    0.54
   5  -4 -11    1.23    0.51
  -4  11   5    0.79    0.44
  -5   4  11    1.94    0.23
   4 -11   5    1.20    0.23
   4 -11  -5    0.66    0.20
 -11   5   4    1.51    0.53
  -5  -4  11    1.78    0.26
  -5  -4 -11    1.33    0.22
  -4 -11  -5    1.25    0.49
  -5 -11  -4    2.26    0.61
  11   5  -4    1.42    0.50
  -4  -5  11    3.15    0.31
  11   4  -5    0.93    0.46
 -11  -4  -5    1.00    0.40
   5 -11  -4    1.00    0.25
   4 -11  -5    1.72    0.55
   1  -6 -11    2.96    0.72
  -6   1  11    3.38    0.31
  11   6   1    2.89    0.69
  -6  11  -1    3.48    0.82
 -11   1  -6    3.86    0.34
   1 -11  -6    3.69    0.34
  -1 -11  -6    2.99    0.32
  -6  -1 -11    3.16    0.31
   1 -11   6    2.85    0.32
  -6   1 -11    3.01    0.31
   1  -6  11    3.33    0.31
 -11   6  -1    3.24    0.68
 -11   6   1    3.68    0.76
   6  -1 -11    4.08    0.81
   1 -11  -6    3.27    0.71
  -6  -1  11    2.94    0.31
 -11  -6  -1    3.25    0.31
  -6 -11   1    3.33    0.31
  -1  -6  11    3.53    0.32
   6   1 -11    3.34    0.75
  -1  -6 -11    4.45    0.83
  -1 -11   6    3.00    0.32
 -11  -1  -6    3.14    0.31
  11   6  -1    3.88    0.77
  -6 -11  -1    3.27    0.71
  -1 -11  -6    3.82    0.33
  11   1  -6    3.67    0.75
 -11  -6  -1    3.48    0.73
  -6 -11  -1    3.67    0.33
  -3 -11  -6    0.26    0.18
 -11   6   3    0.11    0.35
 -11   3  -6    0.18    0.17
   3 -11  -6    0.64    0.43
  -6  11   3    0.36    0.37
  -6   3 -11    0.31    0.18
  -3 -11   6    0.22    0.17
  -6 -11   3    0.23    0.15
 -11   6  -3   -0.11    0.38
  -3 -11  -6    0.52    0.20
   3  -6  11    0.49    0.17
   3 -11   6    0.15    0.17
  -6 -11  -3    0.23    0.16
  11   6  -3    0.31    0.32
 -11  -3  -6    0.70    0.20
   3  -6 -11    0.45    0.40
   6  -3 -11    0.45    0.32
  11   3  -6    0.22    0.31
  -6  -3 -11    0.10    0.16
 -11  -6  -3    0.16    0.16
  -6  11  -3    0.47    0.36
  -6   3  11    0.94    0.21
  -3  11   6    0.78    0.41
  -6  -3  11    1.18    0.23
  -3 -11  -6    0.21    0.32
  -3  -6  11    0.22    0.16
   3 -11  -6    0.13    0.16
  11  -6  -5    3.55    0.78
 -11  -5  -6    3.14    0.35
  -6 -11  -5    3.83    0.37
   5 -11   6    3.50    0.36
 -11  -6  -5    3.55    0.33
  -5 -11  -6    3.21    0.35
 -11  -5  -6    3.68    0.33
  11  -5  -6    3.98    0.80
 -11   6  -5    4.10    0.33
   6 -11   5    3.93    0.39
   5 -11  -6    3.87    0.38
   5  -6  11    3.73    0.35
 -11   5   6    3.22    0.77
 -11  -5  -6    4.40    0.82
  -6  -5  11    3.77    0.35
  -5  -6  11    3.45    0.35
   6 -11  -5    4.13    0.39
 -11  -6  -5    4.21    0.38
 -11   6   5    3.20    0.76
  -6  -5 -11    4.74    0.36
 -11   5  -6    3.83    0.34
  -7   0 -11   -0.09    0.18
 -11  -7   0    0.02    0.16
   7   0 -11    0.11    0.34
  -7 -11   0   -0.02    0.17
  -7  11   0   -0.12    0.37
 -11   7   0    0.11    0.35
   0  -7 -11    0.11    0.37
  -7   0  11    0.09    0.16
  11   7   0    0.33    0.39
   0  -7  11    0.02    0.15
   0 -11   7    0.02    0.16
  -7   2  11    0.06    0.15
   2  -7  11    0.47    0.18
  -2  11   7   -0.11    0.31
  -7   2 -11    0.11    0.17
  -7 -11   2    0.13    0.15
  -2 -11   7    0.32    0.17
 -11  -7  -2    0.04    0.16
  -7 -11  -2    0.09    0.16
   2 -11  -7    0.11    0.42
 -11   7  -2   -0.12    0.35
   2  -7 -11   -0.11    0.37
   7  -2 -11    0.11    0.29
 -11  -2  -7    0.02    0.16
 -11   7   2    0.12    0.29
  -7  -2  11    0.76    0.21
   2 -11   7    0.15    0.16
  -2  -7  11    0.20    0.17
  -2 -11  -7    0.11    0.17
  -7 -11  -2    0.11    0.28
  -7  -2 -11    0.22    0.18
 -11   2  -7    0.04    0.16
  -7  -4  11   32.89    1.04
  -7  -4 -11   33.29    1.02
  -7 -11  -4   31.66    1.03
  -4 -11  -7   31.63    1.05
  -4  -7  11   33.76    1.02
 -11   4  -7   32.28    1.01
   4 -11   7   31.43    0.98
  -7   4 -11   30.95    1.04
 -11   7  -4   28.95    2.11
 -11   4   7   31.71    2.16
 -11  -4  -7   33.62    1.07
   4  -7  11   33.64    1.00
  -7  -4 -11   31.98    0.98
 -11  -7  -4   30.93    1.00
  -6 -11  -7   28.88    1.03
 -11  -6  -7   28.63    0.95
  -7 -11  -6   28.50    1.01
  -7  -6 -11   27.42    0.97
 -11  -7  -6   30.48    0.99
 -11   6  -7   28.06    0.95
 -11   7  -6   30.54    0.94
   6 -11   7   26.07    0.96
  -7  -6  11   29.20    0.99
  -7  -6 -11   27.45    0.93
   6  -7  11   27.68    0.95
 -11  -6  -7   28.06    1.00
  -6  -7 -11   28.96    1.02
 -11  -7  -6   28.24    1.01
  -6  -7  11   27.54    0.95
  -8 -11   1    0.39    0.18
 -11  -8   1    0.25    0.17
 -11  -8  -1    0.83    0.21
  -8 -11  -1    0.35    0.21
 -11  -1  -8    0.19    0.19
  -8   1 -11    0.17    0.19
  -1  -8  11    1.19    0.23
 -11   1  -8    0.55    0.23
   8  -1 -11    0.44    0.39
   1  -8  11    0.29    0.18
   1  -8 -11    0.69    0.46
  -8  -1 -11    0.54    0.21
  -1 -11  -8    0.31    0.19
 -11   3  -8    5.78    0.45
  -8 -11  -3    4.95    0.41
 -11  -3  -8    5.09    0.43
 -11  -8  -3    5.36    0.42
  -8  -3 -11    5.58    0.44
  -3 -11  -8    5.72    0.44
  -8   3 -11    5.73    0.46
  -3  -8  11    6.02    0.42
   3  -8  11    5.31    0.40
 -11  -5  -8   45.68    1.33
  -8  -5 -11   45.55    1.28
 -11  -8  -5   44.36    1.28
  -8 -11  -5   45.42    1.32
 -11  -5  -8   43.07    1.20
  -5 -11  -8   48.51    1.38
  -8  -5 -11   43.83    1.24
 -11   5  -8   44.01    1.28
  -8   5 -11   45.56    1.35
  -5  -8 -11   45.43    1.35
  -5  -8  11   45.65    1.24
   5  -8  11   47.19    1.24
 -11  -7  -8    2.86    0.34
  -8  -7 -11    3.08    0.36
 -11   7  -8    2.19    0.32
  -7  -8 -11    3.33    0.38
 -11   8  -7    2.80    0.34
  -8 -11  -7    2.72    0.37
  -7 -11  -8    2.93    0.38
   7  -8  11    3.06    0.35
  -8  -7 -11    2.26    0.33
 -11  -8  -7    4.49    0.42
 -11  -7  -8    4.59    0.44
  -9   0 -11    0.18    0.20
 -11  -9   0    0.02    0.17
 -11   0  -9   -0.10    0.22
  -9 -11   2   10.35    0.59
  -9 -11  -2    9.96    0.58
 -11  -2  -9    9.26    0.57
  -9  -2 -11   10.68    0.62
 -11   2  -9   10.08    0.59
  -2 -11  -9   11.36    0.64
  -9   2 -11   10.12    0.61
 -11  -9  -2   10.49    0.59
  -9  -4 -11   14.08    0.70
  -9 -11  -4   14.07    0.71
  -4 -11  -9   13.03    0.70
  -4  -9 -11   13.62    0.73
 -11  -9  -4   13.20    0.68
  -9   4 -11   13.39    0.70
 -11  -4  -9   13.26    0.69
  -4  -9  11   13.58    0.63
 -11   4  -9   14.45    0.72
  -9  -6 -11   24.87    0.95
  -9 -11  -6   22.93    0.95
 -11  -6  -9   22.25    0.88
  -6 -11  -9   24.18    0.99
  -9  -6 -11   24.21    0.93
  -6  -9 -11   23.94    0.98
 -11   6  -9   22.11    0.92
 -11  -9  -6   23.79    0.95
  -6  -9  11   23.45    0.87
  -9   6 -11   24.86    1.00
 -11  -6  -9   23.12    0.95
 -11   8  -9    0.17    0.22
 -11   9  -8   -0.14    0.29
  -8  -9 -11    0.29    0.24
 -11  -8  -9    0.48    0.26
 -11  -9  -8    0.30    0.23
 -11  -8  -9    0.87    0.26
  -9  -8 -11    0.22    0.21
  -9 -11  -8    0.22    0.25
  -8 -11  -9    1.10    0.30
  -9  -8 -11    0.31    0.24
 -10 -11  -1   14.40    0.72
 -11  -1 -10   16.08    0.77
 -10  -1 -11   14.13    0.73
 -11   1 -10   14.81    0.75
 -10 -11   1   14.57    0.73
 -10   1 -11   14.82    0.75
 -11 -10   1   14.32    0.72
 -11 -10  -1   14.52    0.71
 -11 -10  -3   33.51    1.14
 -11  -3 -10   36.08    1.19
  -3 -11 -10   35.13    1.20
 -11   3 -10   34.27    1.18
 -10   3 -11   34.67    1.19
 -10  -3 -11   34.32    1.17
 -10 -11  -3   34.79    1.17
 -10  -5 -11    2.01    0.35
 -10   5 -11    2.55    0.38
 -10 -11  -5    2.42    0.36
 -10  -5 -11    2.19    0.32
  -5 -11 -10    2.30    0.36
 -11   5 -10    2.18    0.37
 -11 -10  -5    2.59    0.36
  -5 -10 -11    2.78    0.38
 -11  -5 -10    2.52    0.37
 -11  -7 -10    8.30    0.60
 -11  -7 -10    8.01    0.56
 -11 -10  -7    8.00    0.58
 -10  -7 -11    6.86    0.53
  -7 -11 -10    6.78    0.56
 -11   7 -10    6.48    0.54
 -10   7 -11    7.06    0.57
 -10  -7 -11    7.38    0.56
 -10 -11  -7    6.90    0.56
  -7 -10 -11    7.90    0.61
 -11   9 -10    0.42    0.28
 -11 -10  -9    0.51    0.27
 -10   9 -11    0.47    0.28
 -10  -9 -11    0.43    0.28
 -11  10  -9    0.70    0.29
 -10 -11  -9    1.39    0.33
 -11  -9 -10    0.46    0.25
  -9 -11 -10    0.45    0.28
 -10  -9 -11    0.46    0.27
  -9 -10 -11    0.77    0.30
 -11 -11   0    0.11    0.22
 -11   0 -11    0.15    0.25
 -11   2 -11   14.27    0.78
 -11 -11  -2   15.49    0.77
 -11  -2 -11   14.30    0.76
 -11  -4 -11    0.71    0.27
 -11   4 -11    0.28    0.25
  -4 -11 -11   -0.03    0.24
 -11 -11  -4    0.06    0.20
 -11  -6 -11   48.26    1.50
 -11 -11  -6   49.27    1.52
 -11  -6 -11   47.92    1.38
  -6 -11 -11   50.59    1.57
 -11   6 -11   49.00    1.52
 -11   8 -11    0.10    0.24
 -11 -11  -8    0.38    0.29
 -11  -8 -11   -0.03    0.25
  -8 -11 -11   -0.04    0.27
 -11  -8 -11   -0.09    0.25
 -10 -11 -11    3.94    0.48
 -11  10 -11    3.55    0.48
 -11 -11 -10    3.15    0.45
 -11 -10 -11    3.25    0.46
 -11  11 -10    3.36    0.45
  12   0   0 3178.47   43.63
   0   0  12 3149.38   40.47
   0   0 -12 3175.28   44.33
   0 -12   0 3145.36   40.70
   1 -12   1    0.07    0.20
   1   1 -12    0.10    0.37
  -1  -1 -12    0.52    0.44
 -12  -1  -1    0.40    0.18
   1  -1 -12    0.10    0.41
  12   1   1   -0.09    0.34
   1 -12  -1    0.19    0.21
  -1 -12   1    0.20    0.24
  -1 -12  -1   -0.10    0.21
  12   1  -1    0.09    0.35
  12  -1  -1    0.95    0.46
  -1  -1  12   -0.04    0.19
  -1   1  12    0.31    0.19
   1  -1  12    0.22    0.19
   1   1  12    0.19    0.18
 -12   0  -2 1272.15   16.75
   2 -12   0 1286.27   17.14
   0  -2  12 1263.39   16.92
   0  -2 -12 1277.07   20.39
  -2   0  12 1217.01   16.86
  12   0  -2 1293.18   20.06
  -2  12   0 1289.58   20.20
   0   2  12 1280.10   16.87
   2   0  12 1292.99   16.93
   2   0 -12 1254.58   20.19
  12   2   0 1289.98   20.14
   0 -12   2 1285.70   17.12
   0 -12  -2 1300.35   17.13
  -2 -12   0 1290.99   17.16
 -12  -2  -2 4289.41   55.44
  -2  12   2 4375.34   59.26
  -2 -12   2 4289.91   55.74
  -2 -12  -2 4378.43   55.76
  12   2  -2 4345.30   59.16
  12   2   2 4406.08   58.96
   2   2 -12 4419.13   59.45
  -2   2  12 4394.38   55.47
  -2 -12  -2 4346.52   55.36
   2 -12   2 4373.46   55.76
   2 -12  -2 4396.82   55.75
  -2  -2  12 4395.01   55.55
  -2  12  -2 4218.58   59.07
   2   2  12 4333.03   55.50
  -2  -2 -12 4351.41   59.36
   2  -2 -12 4229.17   59.37
   2  -2  12 4348.83   55.56
  -3 -12   1    1.70    0.30
  -3 -12  -1    1.02    0.26
   3  -1  12    1.92    0.28
  -3  -1 -12    1.72    0.24
   3  -1 -12    1.37    0.52
  -3 -12  -1    1.68    0.23
  -3  12  -1    0.64    0.43
  -3  -1 -12    2.67    0.75
   3   1 -12    1.61    0.55
   1  -3 -12    1.84    0.61
   3   1  12    2.14    0.28
  12   1  -3    1.98    0.58
 -12   1  -3    1.76    0.24
   3 -12   1    1.67    0.28
  -1   3  12    2.35    0.26
  -1 -12  -3    1.57    0.28
   1 -12   3    2.85    0.35
   1 -12  -3    2.69    0.33
  -1  -3 -12    0.97    0.52
  12   3   1    1.68    0.57
   3 -12  -1    1.90    0.30
  -3   1  12    1.89    0.26
  -3  -1  12    1.93    0.27
  12   3  -1    1.92    0.63
  -1  -3  12    2.10    0.28
  12  -1  -3    1.81    0.60
   1  -3  12    2.07    0.28
   1   3  12    1.51    0.24
  -1 -12   3    1.52    0.29
   3   3 -12   -0.10    0.35
   3   3  12    0.08    0.16
   3  -3  12    0.06    0.15
  -3 -12   3    0.08    0.17
  -3 -12  -3    0.03    0.18
  -3  -3 -12    0.41    0.35
 -12  -3  -3    0.10    0.33
  -3 -12  -3    0.19    0.15
 -12  -3  -3    0.18    0.16
  -3  12  -3   -0.11    0.30
  -3  12   3    0.22    0.37
   3  -3 -12    0.11    0.34
  -3  -3  12    0.04    0.16
  -3   3  12   -0.02    0.15
  12   3  -3    0.31    0.40
   3 -12   3    0.10    0.16
   3 -12  -3    0.05    0.17
 -12   0  -4  913.00   12.16
  -4 -12   0  911.20   12.10
   0   4  12  893.48   12.09
   4   0 -12  869.99   15.43
  12   0  -4  885.97   15.34
   0  -4 -12  925.41   15.79
   4 -12   0  916.08   12.45
  -4 -12   0  904.57   12.48
  -4   0 -12  905.05   12.16
  -4   0  12  885.82   12.20
   0  -4  12  898.24   12.22
   4   0  12  894.30   12.26
  -4  12   0  868.63   15.51
  12   4   0  865.41   15.40
   0 -12   4  890.82   12.36
   0 -12  -4  894.34   12.36
   2   4  12    1.35    0.22
   4 -12  -2    0.63    0.23
  12  -2  -4    8.40    1.02
   4  -2  12    0.53    0.19
  -4 -12  -2    0.61    0.22
 -12   2  -4    0.59    0.18
   2 -12  -4    0.48    0.22
 -12  -4  -2    1.30    0.21
  -4 -12   2    0.37    0.16
  -4  12   2    1.11    0.49
  -4 -12   2    0.97    0.26
  -4  -2 -12    1.88    0.25
  -4   2  12    3.48    0.32
  -4 -12  -2    0.55    0.17
  -2 -12  -4    0.54    0.19
 -12  -2  -4    0.86    0.20
  -2  -4 -12    2.22    0.62
   4   2 -12    1.21    0.49
  -4  -2 -12    4.63    0.88
   4   2  12    0.99    0.23
   4 -12   2    1.27    0.27
   2 -12   4    0.43    0.20
  -2  -4  12    3.03    0.31
  -4  12  -2   13.94    1.44
  -2 -12   4    6.11    0.45
  -2 -12  -4    8.43    0.53
  -4  -2  12    1.36    0.24
  -2 -12  -4    1.93    0.59
  12   4  -2    0.32    0.38
   2  -4  12    4.07    0.35
  -4 -12  -2    1.04    0.48
  -2   4  12    0.94    0.21
   4  -2 -12    0.33    0.34
  12   4   2    2.51    0.66
  12   2  -4    0.62    0.42
  -2  12  -4    1.68    0.56
  -4 -12  -4   20.29    1.67
   4   4  12   16.95    0.70
  -4 -12   4   18.19    0.81
  -4 -12  -4   17.89    0.81
   4 -12   4   17.95    0.79
   4 -12  -4   16.37    0.76
   4  -4  12   15.19    0.70
  -4 -12  -4   33.73    0.96
 -12  -4  -4   17.47    1.55
  -4  -4  12   26.15    0.89
   4   4 -12   19.23    1.63
  -4  12   4   16.54    1.60
 -12  -4  -4   16.36    0.65
 -12  -4  -4   18.24    0.75
 -12  -5  -1    0.65    0.19
  -1 -12   5    0.72    0.24
  -1 -12  -5    0.67    0.23
   5  -1  12    0.49    0.19
  12  -1  -5    0.72    0.45
  -5  12   1    0.12    0.33
  -5 -12   1    1.98    0.25
  -5   1 -12    3.55    0.34
   1 -12   5    0.31    0.18
  -5 -12  -1    0.50    0.19
 -12  -1  -5    0.34    0.18
  -5 -12  -1    1.66    0.56
 -12   1  -5    0.52    0.18
  -5  12  -1    0.12    0.33
  12   5   1    0.54    0.42
   1  -5 -12    1.46    0.55
  -1  -5 -12    0.11    0.31
   5 -12   1    1.44    0.27
   5 -12  -1    0.96    0.26
  -1 -12  -5    0.33    0.17
   1  -5  12    0.77    0.21
  -5  -1 -12    0.78    0.21
  -5  -1  12    0.59    0.21
  12   5  -1   -0.11    0.37
   5   1 -12    0.63    0.45
   5  -1 -12    0.44    0.41
  -1  -5  12    0.55    0.21
  12   1  -5    0.54    0.35
   1 -12  -5    0.62    0.23
  -5   1  12    0.90    0.22
  -5 -12   3   14.43    0.61
 -12  -5  -3   13.10    0.59
 -12  -3  -5   14.40    0.66
  -3 -12  -5   13.61    1.39
   5   3  12   13.76    0.64
  -5 -12  -3   14.23    0.64
 -12   3  -5   14.31    0.62
  -3 -12  -5   15.25    0.68
  -5  -3 -12   14.63    0.62
  -3 -12   5   14.37    0.71
  -3 -12  -5   13.02    0.68
   5   3 -12   13.55    1.36
   5 -12   3   14.39    0.72
   5 -12  -3   14.36    0.71
  -5  -3  12   13.53    0.65
  -5 -12  -3   12.60    1.33
  -5   3  12   14.07    0.61
   3 -12   5   14.24    0.69
   3 -12  -5   14.35    0.69
  -3  -5  12   14.61    0.66
   3  -5  12   14.96    0.66
   5  -3  12   14.31    0.67
   3 -12  -5   12.47    1.38
 -12  -5  -3   12.75    1.36
  -3  -5 -12   16.41    1.52
  -5  12  -3   13.00    1.46
   5  -5  12    0.02    0.18
 -12  -5  -5    0.26    0.17
 -12  -5  -5    0.64    0.22
   5   5  12    0.08    0.17
  -5 -12  -5    0.10    0.19
 -12   5  -5    0.10    0.15
  -5  -5  12    0.17    0.19
   5 -12   5   -0.03    0.18
   5 -12  -5    0.08    0.19
  -6 -12   0  543.95    7.65
   0 -12  -6  530.88    7.61
  -6   0 -12  537.02    7.70
 -12  -6   0  534.18    7.64
   6   0 -12  511.57   10.61
   0  -6  12  532.38    7.67
   6 -12   0  537.11    7.93
  -6 -12   0  530.31   10.49
  12   0  -6  550.24   11.00
   0 -12   6  533.58    7.76
   0  -6 -12  538.33   10.85
  -6   0  12  530.27    7.68
 -12   0  -6  517.26    7.67
   0 -12  -6  543.66    7.79
  -6  -2 -12 2268.49   28.91
  -2  -6  12 2178.90   28.90
  -6 -12   2 2264.06   28.87
 -12  -2  -6 2200.41   28.96
 -12   2  -6 2206.79   28.90
  -2 -12   6 2195.84   29.03
  -2 -12  -6 2227.41   29.06
  -2 -12  -6 2221.09   28.93
   2  -6  12 2176.40   28.91
   6   2 -12 2205.81   32.57
  -6   2  12 2220.73   28.88
  -6   2 -12 2230.34   29.01
   6 -12   2 2292.61   29.22
   6 -12  -2 2340.61   29.24
  -6  -2  12 2263.17   28.99
  -2  -6 -12 2192.51   32.68
  -2 -12  -6 2123.37   32.30
  -6 -12  -2 2181.19   28.90
   2 -12  -6 2303.50   32.87
   2 -12   6 2220.22   29.05
   2 -12  -6 2213.31   29.02
 -12   6  -2 2173.06   32.74
 -12  -6  -2 2194.78   28.84
 -12   6   2 2177.11   32.81
   4  -6  12    1.55    0.28
 -12   6   4    2.14    0.68
 -12  -6  -4    2.00    0.27
  -6 -12  -4    2.52    0.32
   6  -4  12    3.28    0.37
   6 -12   4    2.79    0.35
   6 -12  -4    1.63    0.31
 -12  -4  -6    1.08    0.26
  -4 -12  -6    0.76    0.24
  -6   4  12    0.77    0.22
  -6  -4  12    0.46    0.20
  -6  -4 -12    0.92    0.22
  -4  -6  12    0.91    0.22
   4 -12   6    0.78    0.24
   4 -12  -6    1.01    0.24
 -12   4  -6    1.29    0.25
  -6 -12  -6 2660.37   33.91
 -12   6  -6 2551.92   33.66
  -6  -6 -12 2598.14   33.88
   6 -12   6 2582.27   33.94
   6 -12  -6 2594.06   33.94
 -12  -6  -6 2588.65   33.71
  -6  -6  12 2618.07   33.83
   6  -6  12 2648.22   33.85
 -12  -6  -6 2589.53   33.90
  -7  -1 -12    2.32    0.31
  -7 -12   1    2.42    0.32
 -12   1  -7    3.46    0.35
  -1 -12  -7    3.16    0.35
   1 -12  -7    2.49    0.30
  -1 -12   7    2.39    0.32
 -12  -7  -1    2.04    0.28
  -7 -12  -1    2.55    0.32
   1 -12   7    2.52    0.34
  -7   1 -12    2.69    0.34
 -12   7  -1    2.01    0.64
  -1  -7 -12    2.39    0.68
  -7 -12   1    3.06    0.72
 -12  -1  -7    1.90    0.30
  -7   1  12    2.01    0.29
  -7  -1  12    2.13    0.30
  -1  -7  12    2.80    0.31
   1  -7  12    2.08    0.29
 -12  -3  -7   32.74    1.09
  -3 -12   7   30.83    1.05
  -7 -12  -3   30.85    1.04
  -7  -3 -12   32.70    1.05
  -3 -12  -7   30.69    1.05
  -7   3 -12   33.39    1.11
 -12   3  -7   32.90    1.05
  -7  -3  12   31.95    1.06
  -3  -7  12   32.04    1.03
 -12  -7  -3   33.10    1.04
   3 -12   7   30.91    1.04
  -7   3  12   31.26    1.00
  -7 -12   3   30.63    1.01
   3  -7  12   31.12    1.01
  -7 -12  -5    6.52    0.50
 -12  -5  -7    6.39    0.43
  -7  -5  12    6.52    0.49
  -5 -12  -7    6.39    0.51
 -12  -7  -5    5.58    0.44
  -7  -5 -12    6.39    0.47
   7 -12  -5    6.07    0.52
  -5  -7  12    6.68    0.48
   5 -12   7    5.96    0.47
   7 -12   5    6.80    0.55
  -7  -5 -12    5.56    0.43
 -12  -5  -7    5.70    0.48
   5  -7  12    6.40    0.47
 -12   5  -7    6.25    0.46
   7  -7  12    0.29    0.23
 -12  -7  -7    0.23    0.24
 -12  -7  -7    0.03    0.19
  -7 -12  -7    0.57    0.27
   7 -12   7    0.14    0.23
  -7  -7 -12    0.17    0.22
 -12   7  -7    0.02    0.21
  -7  -7  12    0.08    0.25
 -12  -8   0 2394.59   31.05
 -12   0  -8 2357.86   31.08
  -8 -12   0 2406.34   31.04
  -8   0 -12 2348.15   31.08
   0 -12  -8 2358.45   31.03
  -8   0  12 2383.74   31.07
   0  -8  12 2422.04   30.93
  -2  -8  12  757.25   10.43
  -8  -2  12  754.63   10.59
  -8 -12   2  776.68   10.56
 -12  -8  -2  741.74   10.50
  -8  -2 -12  745.41   10.55
 -12   2  -8  733.69   10.54
  -2 -12  -8  743.93   10.55
  -8   2 -12  760.72   10.61
 -12  -2  -8  753.54   10.60
   2  -8  12  734.37   10.39
  -8 -12  -2  747.13   10.54
 -12  -4  -8  333.15    5.32
 -12  -8  -4  326.49    5.24
  -8 -12  -4  334.03    5.31
 -12   4  -8  335.03    5.27
  -8  -4 -12  331.80    5.13
  -8   4 -12  332.43    5.36
  -8  -4 -12  332.86    5.24
   4  -8  12  344.87    5.19
  -4  -8  12  326.03    5.16
  -4 -12  -8  328.82    5.33
 -12  -6  -8  842.26   11.78
  -8  -6 -12  870.15   11.66
  -8 -12  -6  820.95   11.77
   6  -8  12  833.78   11.58
  -6 -12  -8  825.28   11.82
  -8  -6 -12  832.12   11.66
 -12  -6  -8  807.17   11.53
  -6  -8  12  834.89   11.60
  -8   6 -12  844.21   11.83
 -12   6  -8  837.24   11.66
  -6  -8 -12  823.88   11.79
 -12  -8  -6  828.79   11.67
 -12  -8  -8 1777.68   23.40
  -8 -12  -8 1757.09   23.57
  -8  -8 -12 1779.43   23.50
 -12   8  -8 1750.76   23.30
   8  -8  12 1725.77   23.32
  -9  -1 -12    3.32    0.39
 -12  -1  -9    2.09    0.33
  -9 -12   1    2.34    0.33
 -12  -9  -1    1.63    0.31
  -9 -12  -1    1.53    0.30
  -9   1 -12    1.45    0.31
 -12   1  -9    1.50    0.30
  -1  -9  12    2.01    0.29
  -1 -12  -9    2.13    0.33
 -12  -3  -9   15.23    0.77
 -12  -9  -3   14.10    0.72
  -9 -12  -3   12.42    0.69
  -9  -3 -12   16.12    0.77
 -12   3  -9   17.37    0.80
  -3 -12  -9   15.65    0.78
  -9   3 -12   13.66    0.73
  -3  -9  12   15.36    0.69
  -9  -5 -12    7.49    0.54
 -12  -9  -5    6.73    0.52
 -12  -5  -9    7.04    0.55
  -5 -12  -9    6.18    0.53
  -9  -5 -12    6.88    0.50
 -12   5  -9    6.12    0.51
  -5  -9 -12    5.92    0.52
  -9   5 -12    6.43    0.54
  -5  -9  12    6.03    0.47
  -9 -12  -5    5.90    0.50
 -12   7  -9    0.95    0.30
  -9   7 -12    1.23    0.36
 -12  -9  -7    1.21    0.34
 -12  -7  -9    0.95    0.29
 -12  -7  -9    0.45    0.29
  -9 -12  -7    0.76    0.31
  -7 -12  -9    1.08    0.34
  -9  -7 -12    1.06    0.31
  -9  -7 -12    0.83    0.28
  -7  -9 -12    1.35    0.34
 -12   9  -9    0.09    0.25
  -9  -9 -12   -0.06    0.24
 -12  -9  -9    0.19    0.26
  -9 -12  -9   -0.04    0.29
  -9  -9 -12   -0.04    0.25
 -12 -10   0  591.62    8.70
 -10 -12   0  590.75    8.69
 -12   0 -10  594.14    8.76
 -10   0 -12  598.29    8.77
 -10 -12  -2 1734.12   23.37
 -12  -2 -10 1785.46   23.42
 -12   2 -10 1748.92   23.41
 -10   2 -12 1804.33   23.47
  -2 -12 -10 1781.28   23.43
 -12 -10  -2 1702.95   23.32
 -10  -2 -12 1737.29   23.37
 -10   4 -12    0.35    0.27
 -12 -10  -4    0.30    0.23
 -10 -12  -4    0.65    0.27
 -10  -4 -12    1.40    0.32
  -4 -12 -10    0.42    0.25
 -12  -4 -10    1.22    0.30
 -12  -6 -10 1908.13   25.69
 -10  -6 -12 1929.20   25.57
 -12 -10  -6 1916.11   25.63
 -10 -12  -6 1914.44   25.68
 -12  -6 -10 1862.36   25.37
 -10  -6 -12 1941.35   25.50
  -6 -12 -10 2006.91   25.80
 -12   6 -10 1973.55   25.64
 -10   6 -12 1915.63   25.70
  -6 -10 -12 1904.95   25.72
 -10  -8 -12  395.34    6.25
 -12 -10  -8  386.09    6.29
 -10 -12  -8  396.15    6.40
 -12  -8 -10  373.56    6.17
  -8 -12 -10  385.64    6.39
 -10  -8 -12  399.09    6.30
 -12   8 -10  390.83    6.27
 -10   8 -12  391.67    6.38
  -8 -10 -12  387.89    6.36
 -12  -8 -10  404.13    6.36
 -10 -12 -10 1274.46   17.48
 -10 -10 -12 1243.81   17.36
 -12 -10 -10 1250.00   17.34
 -12  10 -10 1227.29   17.20
 -10  10 -12 1264.04   17.41
 -11 -12   1    3.38    0.40
 -12  -1 -11    3.36    0.43
 -11  -1 -12    3.40    0.43
 -12 -11  -1    3.11    0.40
 -11 -12  -1    3.12    0.38
 -12   1 -11    3.55    0.43
 -11   1 -12    3.07    0.42
 -11   3 -12    2.77    0.40
  -3 -12 -11    3.12    0.41
  -3 -11 -12    2.73    0.40
 -12 -11  -3    2.95    0.41
 -11 -12  -3    2.93    0.39
 -12  -3 -11    2.00    0.36
 -11  -3 -12    2.63    0.39
 -12   3 -11    2.65    0.38
 -11   5 -12    0.94    0.31
 -12   5 -11    0.43    0.26
 -12 -11  -5    0.50    0.24
 -11 -12  -5    0.41    0.26
 -12  -5 -11    0.87    0.30
  -5 -12 -11    0.67    0.30
 -11  -5 -12    0.86    0.30
  -5 -11 -12    0.99    0.31
 -12   7 -11    0.94    0.32
 -11   7 -12    0.68    0.31
 -12 -11  -7    1.13    0.32
 -11 -12  -7    1.28    0.35
 -12  -7 -11    1.03    0.29
 -12  -7 -11    0.67    0.31
 -11  -7 -12    1.27    0.34
 -11  -7 -12    1.16    0.30
  -7 -12 -11    1.30    0.37
  -7 -11 -12    0.94    0.32
 -12   9 -11    1.46    0.36
 -11  -9 -12    1.32    0.33
 -12 -11  -9    1.80    0.39
 -11 -12  -9    1.93    0.40
 -12  -9 -11    1.49    0.36
 -11  -9 -12    1.64    0.34
  -9 -12 -11    2.76    0.44
  -9 -11 -12    1.88    0.39
 -11   9 -12    2.11    0.42
 -12  11 -11    0.85    0.33
 -11  11 -12   -0.12    0.29
 -11  12 -11    0.04    0.28
 -12 -11 -11    0.32    0.30
 -11 -12 -11    0.13    0.30
 -11 -11 -12    0.32    0.30
 -12 -12   0  164.07    3.28
 -12   0 -12  165.69    3.34
  -2 -12 -12    0.54    0.28
 -12   2 -12    0.24    0.28
 -12  -2 -12    0.24    0.24
  -4 -12 -12   41.25    1.47
 -12   4 -12   48.21    1.56
 -12 -12  -4   41.78    1.45
 -12 -12  -6    0.04    0.24
 -12  -6 -12    0.62    0.30
  -6 -12 -12    0.51    0.31
 -12   6 -12    0.37    0.28
 -12  -8 -12  378.65    6.25
 -12 -12  -8  390.92    6.46
  -8 -12 -12  397.36    6.61
 -12   8 -12  397.23    6.48
 -12  -8 -12  388.88    6.41
 -12  10 -12   -0.04    0.29
 -10  12 -12    0.40    0.32
 -12 -12 -10    0.49    0.31
 -10 -12 -12    0.13    0.27
 -12 -12 -12   10.48    0.77
 -12  12 -12    2.26    0.43
  -1 -13   0    0.03    0.19
   1 -13   0   -0.03    0.21
   0   1  13    0.11    0.17
   0 -13   1    0.63    0.22
   1   0  13    0.16    0.18
   0   1 -13    0.80    0.46
   0  -1 -13    0.11    0.31
   1   0 -13    0.22    0.37
  -1   0 -13    0.23    0.30
  13   1   0    0.10    0.37
  13   0  -1    0.87    0.45
  -1   0  13    0.33    0.19
   0  -1  13    0.11    0.16
   0 -13  -1    0.27    0.19
   1  -2  13   77.77    1.78
  -1 -13  -2   81.24    1.94
 -13  -1  -2   77.18    1.67
  -1 -13   2   80.23    1.93
  -1   2  13   81.40    1.76
  -2 -13   1   80.90    1.93
  -2 -13  -1   79.59    1.92
  -1  -2 -13   82.05    3.47
   2 -13   1   80.08    1.92
  -2  -1 -13   85.05    3.58
  -2   1  13   79.11    1.75
  -2  -1  13   78.99    1.77
   2   1  13   82.53    1.79
  -1  -2  13   81.44    1.80
  13   2   1   83.49    3.36
   2 -13  -1   81.70    1.93
   1   2  13   80.64    1.76
   2  -1  13   81.40    1.80
   1 -13   2   80.58    1.93
   1 -13  -2   79.48    1.91
  13   1  -2   80.38    3.34
  13   2  -1   75.87    3.29
   3   0  13    0.39    0.20
  13   3   0    0.11    0.30
  -3   0 -13   -0.08    0.16
  -3 -13   0   -0.06    0.20
 -13   0  -3    0.04    0.15
   0 -13   3    0.03    0.19
   0 -13  -3    0.05    0.18
  -3   0  13    0.09    0.15
  13   0  -3    0.10    0.36
   0  -3  13    0.16    0.18
   0   3  13    0.08    0.16
   3 -13   0   -0.08    0.21
  -3  -2  13    3.98    0.37
   2 -13  -3    4.01    0.40
 -13   2  -3    4.88    0.36
  -2 -13  -3    4.59    0.44
  -3 -13  -2    4.24    0.35
  -2  -3 -13    4.78    0.88
  -3 -13   2    5.02    0.45
  -3 -13  -2    3.51    0.40
  -2   3  13    4.63    0.38
  -3  13  -2    3.19    0.73
  -3  -2 -13    4.16    0.84
  -2 -13  -3    6.18    0.40
   3 -13  -2    3.70    0.40
   3 -13   2    4.19    0.41
  -2 -13   3    3.38    0.38
  -2  -3  13    4.22    0.39
   2 -13   3    4.66    0.42
  13   3  -2    3.93    0.81
   2  -3  13    3.78    0.38
   2   3  13    5.27    0.40
   3  -2  13    4.18    0.39
   3   2  13    4.87    0.40
 -13  -2  -3    5.05    0.39
  13   3   2    3.94    0.78
  -3   2  13    4.01    0.36
  13   2  -3    4.37    0.80
 -13  -3  -2    7.69    0.46
   4   1  13    1.00    0.25
  -4   1 -13    1.06    0.24
   4  -1  13    0.66    0.21
  -4  -1 -13    0.99    0.23
  -1  -4  13    1.28    0.25
  -1 -13   4    1.15    0.27
  -1 -13  -4    0.68    0.24
  -4 -13   1    0.91    0.27
  -4 -13  -1    0.82    0.25
  -4 -13  -1    0.76    0.20
   1 -13   4    0.73    0.25
   1 -13  -4    0.89    0.25
  -4  13  -1    0.47    0.47
 -13  -1  -4    0.92    0.22
  -4  13   1    0.47    0.40
 -13   1  -4    0.89    0.21
   4 -13   1    0.80    0.25
  -4  -1 -13    0.98    0.51
  -4   1  13    0.75    0.22
  -4  -1  13    1.00    0.24
   4 -13  -1    0.66    0.24
  -1   4  13    1.34    0.23
  13  -1  -4    1.04    0.50
   1  -4  13    1.07    0.25
   1   4  13    0.61    0.20
  -4 -13   3    0.55    0.26
   3   4  13    0.61    0.20
   4  -3  13    0.72    0.22
   4   3  13    0.62    0.21
   3 -13   4    2.68    0.34
  -4 -13  -3    0.47    0.23
 -13  -4  -3    1.07    0.22
 -13  -4  -3    0.80    0.23
  -4 -13  -3    0.62    0.21
  -3 -13   4    1.06    0.27
   3 -13  -4    3.53    0.37
 -13  -3  -4    0.66    0.21
   4 -13  -3    3.49    0.37
  -3 -13  -4    1.53    0.25
  -3 -13  -4    0.58    0.24
   3  -4  13    0.98    0.24
 -13   3  -4    0.85    0.21
  -4   3  13    0.64    0.21
  -4  -3  13    0.62    0.23
  -3  -4 -13    1.57    0.59
  -3   4  13    1.30    0.24
  -3  -4  13    1.40    0.27
   4 -13   3    1.61    0.30
  -4  -3 -13    0.78    0.45
   5   0  13    0.10    0.18
  -5 -13   0    0.06    0.15
   5 -13   0    0.03    0.21
 -13   0  -5    0.36    0.20
   0  -5  13    0.10    0.17
  -5   0  13   -0.02    0.18
   0 -13   5   -0.11    0.20
   0 -13  -5   -0.03    0.21
 -13  -2  -5   60.00    1.51
 -13   2  -5   56.95    1.42
  -5 -13  -2   57.58    1.45
  -2 -13   5   57.39    1.58
  -5  -2 -13   59.17    1.46
  -5   2  13   60.14    1.48
   5  -2  13   61.01    1.57
  -2 -13  -5   61.52    1.51
  -2 -13  -5   60.95    1.62
  -5 -13   2   59.85    1.42
   5 -13   2   61.32    1.65
   5 -13  -2   58.86    1.63
  -5   2 -13   61.80    1.54
 -13  -5  -2   58.54    1.42
  -5  -2  13   60.32    1.54
   5   2  13   58.53    1.52
   2 -13   5   62.94    1.64
   2 -13  -5   62.02    1.62
   2  -5  13   61.33    1.54
  -2  -5  13   57.45    1.50
   4  -5  13    1.39    0.29
   4   5  13    1.34    0.27
   5  -4  13    0.92    0.26
   5   4  13    1.26    0.27
  -5 -13  -4    1.71    0.30
 -13  -5  -4    1.12    0.24
 -13  -4  -5    0.81    0.26
  -4 -13  -5    1.26    0.27
  -4  -5  13    1.33    0.29
   5 -13   4    1.46    0.32
  -5   4  13    1.17    0.25
   5 -13  -4    1.36    0.32
  -4 -13   5    1.40    0.32
  -5  -4  13    1.11    0.27
 -13   4  -5    1.01    0.23
   4 -13   5    1.44    0.29
   4 -13  -5    0.90    0.28
   6  -1  13    0.35    0.20
  -6   1 -13    0.27    0.21
  -6  -1 -13    0.05    0.20
 -13  -6  -1    0.90    0.22
  -6 -13  -1    0.37    0.20
 -13  -1  -6    0.69    0.23
  -1 -13   6    0.40    0.21
  -1 -13  -6    0.11    0.20
   6 -13   1    0.06    0.20
   6 -13  -1    0.25    0.22
  -1 -13  -6    0.28    0.19
   1 -13   6    0.66    0.24
 -13   1  -6    0.31    0.19
  -6   1  13    0.31    0.20
  -6  -1  13    0.13    0.19
  -1  -6  13    0.49    0.20
   1 -13  -6    0.76    0.24
   1  -6  13    0.39    0.20
 -13  -6  -3    9.21    0.52
 -13  -3  -6    7.51    0.52
  -6 -13   3    6.55    0.45
  -6 -13  -3    7.23    0.50
 -13   3  -6    6.48    0.46
  -6  -3 -13    6.49    0.47
  -3 -13  -6    6.98    0.51
   3 -13  -6    6.67    0.51
  -3 -13   6    7.15    0.53
  -3 -13  -6    5.78    0.49
  -6   3  13    6.64    0.47
  -6   3 -13    6.78    0.51
   6 -13   3    6.94    0.55
   6 -13  -3    6.78    0.54
  -6  -3  13    7.55    0.52
  -3  -6  13    6.27    0.47
   3 -13   6    5.70    0.48
   3  -6  13    7.01    0.49
   6  -3  13    7.02    0.52
   6   3  13    6.73    0.50
   6  -5  13    3.86    0.42
   6   5  13    2.96    0.35
   5 -13  -6    3.34    0.39
 -13  -6  -5    4.84    0.41
   5  -6  13    3.43    0.38
  -6 -13  -5    3.69    0.40
  -5 -13  -6    3.60    0.40
 -13   5  -6    5.64    0.43
 -13  -5  -6    4.25    0.38
   6 -13   5    3.61    0.42
   6 -13  -5    3.97    0.42
  -6  -5  13    3.54    0.39
  -5  -6  13    3.45    0.39
   5 -13   6    3.15    0.37
 -13  -5  -6    4.20    0.44
  -7   0 -13    0.58    0.24
   0 -13   7    0.11    0.20
   0 -13  -7    0.12    0.18
  -7 -13   0    0.02    0.18
   7 -13   0    0.64    0.25
  -7   0  13    0.03    0.19
 -13   0  -7    0.08    0.17
   0  -7  13    0.02    0.17
  -7 -13   2    4.18    0.40
 -13  -7  -2    4.62    0.41
  -7 -13  -2    4.91    0.43
  -7  -2  13    4.15    0.40
  -2 -13  -7    5.82    0.46
  -2 -13   7    4.21    0.43
  -7  -2 -13    4.81    0.43
  -7   2 -13    4.94    0.45
   7 -13   2    5.46    0.50
   7 -13  -2    5.15    0.50
 -13  -2  -7    4.51    0.43
  -2  -7  13    4.48    0.40
   2  -7  13    4.28    0.41
   2 -13   7    4.69    0.43
  -7   2  13    4.60    0.41
 -13   2  -7    5.23    0.43
   4 -13   7    0.03    0.21
   7  -4  13    0.06    0.21
  -7   4 -13    0.09    0.22
 -13  -7  -4   -0.03    0.17
  -7 -13  -4    0.22    0.20
   7 -13   4   -0.03    0.23
   7 -13  -4   -0.06    0.27
 -13  -4  -7    0.20    0.22
  -4 -13  -7   -0.06    0.21
  -7  -4 -13   -0.05    0.19
  -7   4  13   -0.09    0.19
  -7  -4 -13   -0.08    0.19
  -7  -4  13   -0.03    0.19
  -4  -7  13    0.47    0.23
 -13   4  -7    0.03    0.18
   4  -7  13    0.78    0.23
  -7  -6  13   30.57    1.11
   7  -6  13   30.87    1.12
 -13  -6  -7   30.04    1.04
  -7 -13  -6   31.46    1.15
 -13   6  -7   31.49    1.06
  -6  -7  13   32.10    1.12
  -7  -6 -13   32.08    1.13
  -6  -7 -13   32.29    1.17
  -6 -13  -7   29.44    1.12
   7 -13   6   31.47    1.19
   7 -13  -6   30.19    1.16
   6 -13   7   30.76    1.13
 -13  -7  -6   31.86    1.09
 -13  -6  -7   33.02    1.18
   6  -7  13   30.04    1.08
 -13  -8  -1   11.42    0.64
  -8 -13   1   11.56    0.64
  -8 -13  -1   11.83    0.66
 -13  -1  -8   11.24    0.66
 -13   1  -8   11.54    0.65
  -1 -13  -8   11.64    0.65
  -8  -1 -13   11.25    0.65
   1 -13  -8   10.84    0.62
  -8   1 -13   12.13    0.68
  -8  -1  13   11.35    0.67
   1  -8  13   12.21    0.64
  -8   1  13   13.04    0.68
  -1  -8  13   12.15    0.63
 -13   3  -8   36.53    1.19
 -13  -3  -8   35.65    1.22
 -13  -8  -3   35.94    1.17
  -8 -13  -3   35.81    1.21
  -8  -3 -13   36.76    1.20
  -8   3 -13   37.30    1.25
  -8  -3  13   37.11    1.24
  -3  -8  13   37.12    1.17
  -3 -13  -8   36.63    1.22
   3  -8  13   36.92    1.16
 -13  -5  -8    5.26    0.49
  -8  -5 -13    4.81    0.45
  -8 -13  -5    5.72    0.50
  -5 -13  -8    5.68    0.51
 -13   5  -8    5.41    0.48
  -8  -5 -13    5.51    0.45
  -5  -8 -13    5.58    0.51
  -8   5 -13    5.14    0.51
   8 -13   5    4.48    0.48
   8 -13  -5    4.48    0.49
  -5  -8  13    5.38    0.47
 -13  -8  -5    5.12    0.46
   5  -8  13    5.14    0.46
   7  -8  13    0.20    0.22
   8  -7  13    0.15    0.23
   8 -13  -7    0.36    0.26
 -13  -8  -7    0.06    0.21
 -13  -7  -8    0.50    0.24
 -13  -7  -8    0.23    0.27
  -8 -13  -7   -0.03    0.23
  -7 -13  -8    0.37    0.26
  -8  -7 -13    0.72    0.28
   8 -13   7    0.13    0.25
  -7  -8 -13    0.36    0.26
 -13  -9   0    0.29    0.23
  -9 -13   0    0.08    0.22
   0 -13  -9    0.09    0.22
 -13   0  -9    0.30    0.21
   0  -9  13    0.15    0.19
  -9   0 -13    0.27    0.24
  -2 -13  -9    2.91    0.38
  -9 -13   2    1.26    0.29
 -13  -9  -2    2.10    0.31
  -9 -13  -2    2.60    0.37
  -9   2 -13    1.18    0.32
 -13  -2  -9    1.69    0.34
  -9  -2 -13    1.38    0.31
  -2  -9  13    1.75    0.30
 -13   2  -9    1.82    0.33
   2  -9  13    1.70    0.30
 -13  -9  -4    3.54    0.42
  -9  -4 -13    3.54    0.41
  -9 -13  -4    3.49    0.42
  -9   4 -13    3.33    0.42
 -13   4  -9    3.46    0.41
  -4 -13  -9    3.65    0.44
 -13  -4  -9    2.34    0.38
  -4  -9  13    3.26    0.39
   4  -9  13    3.48    0.38
  -9  -6 -13    4.86    0.46
 -13  -9  -6    3.63    0.43
  -6 -13  -9    4.77    0.50
  -9  -6 -13    4.03    0.43
 -13   6  -9    5.10    0.48
   9 -13   6    3.71    0.46
   9 -13  -6    4.29    0.49
  -9 -13  -6    3.61    0.45
 -13  -6  -9    3.47    0.45
  -9   6 -13    4.00    0.49
  -6  -9 -13    3.92    0.47
   6  -9  13    4.19    0.43
  -6  -9  13    3.87    0.42
  -9  -8 -13   10.48    0.67
  -8  -9 -13    9.32    0.68
 -13  -9  -8   10.56    0.69
 -13  -8  -9   10.01    0.66
  -9 -13  -8   11.19    0.75
  -9  -8 -13    9.55    0.67
 -13   8  -9   10.76    0.68
  -9   8 -13   10.46    0.73
  -8 -13  -9    9.01    0.68
   9  -8  13   10.20    0.67
 -10 -13   1    1.48    0.31
 -13 -10  -1    1.35    0.33
 -10 -13  -1    1.60    0.33
  -1 -13 -10    1.57    0.32
 -13  -1 -10    1.51    0.33
 -10   1 -13    2.19    0.36
 -13   1 -10    1.76    0.35
 -10  -1 -13    1.99    0.38
 -10 -13  -3   13.70    0.77
 -13  -3 -10   14.24    0.80
 -13 -10  -3   15.07    0.79
 -10  -3 -13   14.45    0.79
 -13   3 -10   14.86    0.81
  -3 -13 -10   14.06    0.79
 -10   3 -13   15.02    0.82
 -13   5 -10    1.21    0.34
 -10   5 -13    0.91    0.34
 -13 -10  -5    1.40    0.34
 -10 -13  -5    1.20    0.33
 -13  -5 -10    3.15    0.44
  -5 -13 -10    1.46    0.36
  -5 -10 -13    1.08    0.33
 -10  -5 -13    1.20    0.33
 -10  -7 -13   15.61    0.84
 -13 -10  -7   15.20    0.84
 -10 -13  -7   15.54    0.88
 -13  -7 -10   14.49    0.77
  -7 -13 -10   16.42    0.91
 -10  -7 -13   15.07    0.82
  -7 -10 -13   15.71    0.89
 -13   7 -10   16.60    0.85
  10 -13  -7   16.69    0.91
 -10   7 -13   15.92    0.89
 -13  -7 -10   16.29    0.89
 -13   9 -10    3.57    0.47
 -13 -10  -9    5.18    0.53
 -13  -9 -10    5.08    0.51
 -10 -13  -9    5.24    0.56
 -10  -9 -13    6.03    0.57
  -9 -10 -13    4.17    0.52
 -10   9 -13    5.36    0.56
  -9 -13 -10    3.98    0.49
 -10  -9 -13    4.61    0.50
 -13 -11   0    0.03    0.20
 -11 -13   0    0.39    0.25
 -13   0 -11    0.03    0.22
 -11   0 -13    0.17    0.26
   0 -13 -11    0.07    0.22
 -11   2 -13    2.43    0.39
 -13 -11  -2    1.67    0.33
 -11 -13  -2    1.50    0.34
 -13  -2 -11    2.55    0.40
 -11  -2 -13    1.50    0.34
  -2 -13 -11    1.77    0.38
 -13   2 -11    1.87    0.37
 -13  -4 -11    9.60    0.68
 -11  -4 -13    9.88    0.68
 -13 -11  -4    8.94    0.64
 -11 -13  -4    9.10    0.66
 -13   4 -11    9.82    0.69
  -4 -13 -11   10.78    0.73
  -4 -11 -13    9.87    0.71
 -11   4 -13    9.59    0.70
 -13  -6 -11   11.91    0.77
 -11  -6 -13   11.58    0.74
 -11   6 -13   11.39    0.77
 -13 -11  -6   11.42    0.74
 -11 -13  -6   10.94    0.75
 -13   6 -11   11.24    0.75
  -6 -13 -11   11.03    0.76
  -6 -11 -13   12.00    0.79
 -13  -8 -11   12.24    0.80
 -13   8 -11   11.34    0.77
 -13 -11  -8   11.42    0.77
 -11 -13  -8   11.62    0.80
 -13  -8 -11   10.95    0.70
  -8 -13 -11   12.76    0.83
  -8 -11 -13   10.89    0.78
 -11   8 -13   11.75    0.79
 -11  -8 -13   12.53    0.75
 -11  -8 -13   11.70    0.75
 -13  10 -11    3.64    0.48
 -13 -10 -11    4.55    0.52
 -10 -13 -11    4.53    0.58
 -10 -11 -13    4.23    0.52
 -11  10 -13    4.21    0.55
 -10  11 -13    4.44    0.55
 -13 -11 -10    3.96    0.50
 -11 -13 -10    3.93    0.52
 -11 -10 -13    3.91    0.49
 -13 -12  -1    0.46    0.27
 -12 -13  -1    0.42    0.26
  -1 -13 -12    0.22    0.27
 -13  -1 -12    0.74    0.32
 -12  -1 -13    0.29    0.29
 -13   1 -12    0.48    0.29
 -12   1 -13    0.59    0.31
  -3 -12 -13    3.51    0.49
 -13 -12  -3    3.87    0.46
 -12 -13  -3    2.93    0.42
 -13  -3 -12    3.94    0.50
  -3 -13 -12    3.69    0.48
 -12  -3 -13    3.82    0.47
 -13   3 -12    3.29    0.46
 -12   3 -13    3.09    0.45
 -13  -5 -12    5.16    0.56
 -13 -12  -5    5.15    0.53
 -12 -13  -5    4.40    0.52
 -12  -5 -13    4.98    0.54
  -5 -13 -12    4.21    0.51
 -13   5 -12    4.78    0.53
  -5 -12 -13    5.93    0.60
 -12   5 -13    5.10    0.55
 -12   7 -13    2.22    0.42
 -13 -12  -7    1.41    0.37
 -12 -13  -7    1.33    0.36
 -13  -7 -12    1.19    0.36
 -12  -7 -13    1.38    0.39
  -7 -13 -12    1.02    0.35
  -7 -12 -13    1.04    0.35
 -13   9 -12    1.00    0.39
 -12   9 -13    0.57    0.31
 -12  -9 -13    0.50    0.34
 -13 -12  -9    0.78    0.36
 -12 -13  -9    1.54    0.42
 -13  -9 -12    0.55    0.31
 -12  -9 -13    0.56    0.32
  -9 -13 -12    0.30    0.29
  -9 -12 -13    0.77    0.35
 -13  11 -12    0.81    0.37
 -12  11 -13    1.10    0.38
 -11  12 -13    1.04    0.39
 -11  13 -12    0.99    0.41
 -13 -12 -11    0.85    0.34
 -12 -13 -11    1.52    0.41
 -13 -11 -12    1.04    0.35
 -11 -13 -12    1.72    0.41
 -12 -11 -13    1.08    0.35
 -11 -12 -13    1.95    0.42
 -13 -13   0    0.19    0.30
 -13   0 -13   -0.04    0.29
 -13 -13  -2    3.03    0.47
  -2 -13 -13    3.69    0.51
 -13  -2 -13    3.49    0.49
 -13   2 -13    3.08    0.47
 -13 -13  -4   -0.04    0.27
 -13  -4 -13    0.16    0.30
  -4 -13 -13   -0.04    0.30
 -13   4 -13    0.12    0.30
 -13   6 -13    3.79    0.52
 -13 -13  -6    3.40    0.49
 -13  -6 -13    3.53    0.52
  -6 -13 -13    2.97    0.50
 -13   8 -13   -0.08    0.29
 -13 -13  -8    0.77    0.36
 -13  -8 -13    0.12    0.28
  -8 -13 -13    0.23    0.31
 -13 -13 -10   23.71    1.20
 -13 -10 -13   23.99    1.16
 -10 -13 -13   25.36    1.24
 -13  10 -13   25.17    1.21
 -10  13 -13   25.41    1.23
 -12  13 -13    0.04    0.30
 -13 -13 -12   -0.05    0.31
 -13 -12 -13   -0.04    0.31
 -12 -13 -13    0.28    0.32
 -13  12 -13    0.04    0.32
   0 -14   0    0.03    0.20
   0   0  14    0.02    0.18
  -1 -14   1   56.33    1.63
  -1 -14  -1   55.27    1.61
  -1  -1  14   56.51    1.48
  -1   1  14   57.07    1.47
   1  -1  14   57.43    1.50
   1   1  14   56.48    1.48
   1 -14   1   57.95    1.63
   1 -14  -1   56.37    1.61
 -14  -1  -1   54.31    1.33
 -14   0  -2  489.68    7.03
  -2 -14   0  478.12    7.48
  -2   0  14  474.80    7.20
   0  -2  14  482.31    7.25
   0   2  14  482.35    7.18
   2 -14   0  484.77    7.49
   0 -14   2  484.62    7.47
   0 -14  -2  484.20    7.48
  -2 -14   2    3.13    0.41
   2 -14   2    0.75    0.31
   2 -14  -2    1.81    0.34
  -2   2  14    4.41    0.39
  -2 -14  -2    2.88    0.41
  -2  -2  14    0.23    0.20
   2  -2  14    0.82    0.25
   2   2  14    1.09    0.25
   3  -1  14    1.77    0.31
   3   1  14    1.82    0.30
   1  -3  14    1.13    0.27
   3 -14   1    1.47    0.33
   3 -14  -1    1.56    0.31
  -1 -14   3    1.17    0.32
  -1 -14  -3    0.95    0.28
  -3 -14   1    1.00    0.31
  -3 -14  -1    1.35    0.32
  -3   1 -14    1.06    0.26
 -14  -1  -3    1.23    0.26
   1 -14   3    1.43    0.32
   1 -14  -3    1.55    0.33
 -14   1  -3    1.14    0.24
  -3   1  14    1.38    0.27
  -3  -1  14    1.21    0.27
  -1   3  14    1.29    0.26
  -1  -3  14    1.56    0.28
   1   3  14    2.25    0.31
   3   3  14    3.59    0.39
  -3 -14  -3    3.51    0.36
  -3 -14   3    4.35    0.47
  -3 -14  -3    3.85    0.46
  -3  -3  14    3.69    0.40
  -3   3  14    4.34    0.40
   3 -14  -3    4.06    0.45
   3  -3  14    3.38    0.39
   3 -14   3    3.16    0.41
 -14  -3  -3    4.33    0.41
   0 -14  -4  533.91    8.18
   4 -14   0  583.09    8.29
 -14   0  -4  544.62    7.85
  -4   0 -14  535.27    7.85
  -4 -14   0  566.11    8.31
   4   0  14  535.50    7.98
  -4   0  14  536.21    7.96
   0  -4  14  550.77    8.01
   0   4  14  543.91    7.87
   0 -14   4  537.81    8.19
 -14   2  -4 2250.37   29.79
  -4 -14  -2 2354.33   29.88
  -2 -14   4 2272.66   30.26
  -2 -14  -4 2303.90   30.28
  -4 -14  -2 2274.32   30.33
  -2 -14  -4 2261.62   29.83
   4  -2  14 2362.80   30.12
 -14  -2  -4 2284.01   29.95
  -4 -14   2 2252.81   30.32
  -4   2 -14 2254.21   29.96
   4   2  14 2301.61   30.01
   4 -14  -2 2230.93   30.27
  -4   2  14 2369.56   30.02
  -4  -2  14 2295.63   30.07
  -2   4  14 2305.77   29.88
  -2  -4  14 2329.34   30.06
   2  -4  14 2305.49   30.08
   2   4  14 2264.98   29.92
   2 -14   4 2359.95   30.30
   2 -14  -4 2336.53   30.28
   4 -14   2 2252.05   30.27
   4 -14   4    0.38    0.26
   4 -14  -4    0.19    0.25
  -4  -4  14    1.73    0.32
  -4 -14   4    6.04    0.53
 -14  -4  -4    2.65    0.36
  -4 -14  -4    6.06    0.53
   4   4  14    9.67    0.56
   4  -4  14    7.96    0.55
  -1  -5  14   31.76    1.10
 -14  -1  -5   32.90    1.08
  -5 -14   1   33.38    1.03
 -14   1  -5   32.13    1.05
  -1 -14   5   32.18    1.17
  -1 -14  -5   32.82    1.17
  -5 -14  -1   33.22    1.06
  -5  -1 -14   33.68    1.08
  -5   1 -14   32.58    1.09
  -5  -1  14   32.66    1.11
   5 -14   1   32.02    1.19
   5 -14  -1   33.80    1.22
  -5   1  14   30.26    1.07
   5  -1  14   33.95    1.15
   5   1  14   33.44    1.13
   1  -5  14   31.46    1.10
   1 -14   5   34.49    1.20
   1 -14  -5   34.86    1.20
   5   3  14    0.08    0.22
  -3 -14   5    0.35    0.27
  -3 -14  -5    0.13    0.26
   5  -3  14    0.45    0.23
   3 -14  -5   -0.03    0.23
 -14  -5  -3    0.07    0.19
  -5   3 -14   -0.03    0.22
  -5 -14  -3    0.41    0.24
 -14  -3  -5    0.14    0.22
  -3 -14  -5    1.13    0.27
   5 -14   3    0.22    0.22
   3 -14   5   -0.06    0.22
 -14   3  -5    0.11    0.20
  -5   3  14   -0.02    0.21
  -5  -3  14    0.40    0.24
   5 -14  -3    0.15    0.23
  -3  -5  14    0.08    0.22
   3  -5  14    0.17    0.22
   3   5  14    0.12    0.21
  -5 -14  -5   38.93    1.26
   5   5  14   37.91    1.20
  -5  -5  14   41.54    1.32
   5  -5  14   39.17    1.28
   5 -14   5   41.61    1.37
   5 -14  -5   42.62    1.38
 -14  -5  -5   40.41    1.32
   0 -14   6  458.76    7.12
   0 -14  -6  462.75    7.13
 -14   0  -6  464.53    6.97
  -6 -14   0  468.22    6.91
  -6   0 -14  469.90    7.00
   6 -14   0  470.29    7.28
  -6   0  14  465.16    7.00
   0  -6  14  464.23    7.01
   6   0  14  460.59    7.07
 -14  -2  -6    4.50    0.43
  -6 -14   2    3.44    0.37
 -14  -6  -2    5.38    0.44
 -14   2  -6    5.35    0.44
  -2 -14  -6    6.61    0.50
  -6  -2 -14    4.77    0.43
  -2 -14   6    5.23    0.50
  -2 -14  -6    6.13    0.53
  -6   2  14    4.24    0.41
  -6   2 -14    4.55    0.44
  -6  -2  14    4.69    0.44
   6   2  14    3.78    0.41
  -2  -6  14    6.55    0.50
   2  -6  14    5.37    0.47
  -6 -14  -2    4.10    0.41
   6  -2  14    4.46    0.46
   2 -14   6    9.71    0.62
   2 -14  -6    6.23    0.51
 -14  -4  -6 1948.22   25.27
 -14  -6  -4 1914.10   24.99
  -6 -14  -4 1914.49   25.16
 -14   4  -6 1895.34   25.00
  -4 -14  -6 1931.90   25.17
   6   4  14 1898.14   25.12
  -6   4 -14 1940.52   25.27
   4 -14  -6 1894.12   25.29
   6 -14   4 1896.33   25.39
   6 -14  -4 1891.78   25.40
  -6   4  14 1865.01   24.98
   4 -14   6 1902.18   25.31
  -6  -4  14 1876.76   25.20
  -4  -6  14 1882.36   25.17
   6  -4  14 1886.34   25.25
   4  -6  14 1888.71   25.17
   6  -6  14    2.15    0.36
 -14  -6  -6    0.87    0.26
  -6 -14  -6    0.31    0.23
   6 -14   6    2.14    0.35
  -7  -1 -14    2.91    0.36
   7  -1  14    2.98    0.39
   7   1  14    2.75    0.39
  -7 -14   1    3.00    0.35
  -7   1  14    2.34    0.33
  -7  -1  14    3.24    0.38
 -14   1  -7    3.37    0.38
  -7   1 -14    2.89    0.37
  -1 -14  -7    3.95    0.40
  -7 -14  -1    2.38    0.34
 -14  -1  -7    3.12    0.38
   7 -14  -1    1.98    0.35
  -1  -7  14    2.81    0.36
  -1 -14   7    2.50    0.36
   1  -7  14    2.16    0.34
   1 -14   7    2.80    0.39
   7 -14   1    2.62    0.40
 -14  -7  -3    9.06    0.57
  -7  -3  14    8.12    0.59
  -7 -14  -3    8.79    0.59
  -7  -3 -14    8.48    0.57
  -3 -14  -7    9.04    0.62
 -14   3  -7    9.23    0.59
  -3 -14   7    8.44    0.61
   7 -14   3    7.66    0.63
   7 -14  -3    9.54    0.69
  -7   3  14    8.45    0.56
  -3  -7  14    9.59    0.61
  -7   3 -14    8.95    0.62
   3  -7  14    8.39    0.57
   7   3  14    9.94    0.63
 -14  -3  -7    8.52    0.60
   7  -3  14    8.38    0.59
   3 -14   7    7.75    0.58
  -7 -14  -5    7.98    0.59
 -14  -7  -5    7.54    0.54
 -14   5  -7    7.44    0.53
  -7  -5 -14    6.58    0.52
  -5 -14  -7    7.47    0.57
  -5  -7  14    7.06    0.55
  -7   5 -14    6.88    0.57
   7 -14   5    6.47    0.57
   7 -14  -5    7.64    0.61
   5 -14  -7    5.92    0.53
   5 -14   7    6.84    0.56
  -7  -5  14    6.99    0.56
   7   5  14    6.05    0.51
   7  -5  14    6.99    0.57
   5  -7  14    6.97    0.54
 -14  -5  -7    6.74    0.57
   7  -7  14    2.14    0.36
   7 -14  -7    1.85    0.36
 -14  -7  -7    2.22    0.33
  -7  -7  14    2.62    0.39
  -7 -14  -7    3.13    0.42
  -7  -7 -14    3.33    0.42
   7 -14   7    2.59    0.39
  -8   0 -14    1.85    0.34
   0 -14  -8    1.82    0.31
  -8 -14   0    1.80    0.31
   8 -14   0    2.73    0.42
  -8   0  14    2.68    0.36
  -8 -14   2  390.44    6.02
 -14  -2  -8  383.83    6.12
 -14  -8  -2  371.37    6.00
  -8 -14  -2  383.14    6.06
  -8  -2  14  378.34    6.10
 -14   2  -8  384.33    6.06
  -8  -2 -14  398.25    6.09
  -2 -14  -8  398.75    6.12
  -8   2 -14  380.51    6.12
   8 -14   2  373.03    6.29
   8 -14  -2  391.46    6.35
  -2  -8  14  372.90    5.96
   2  -8  14  384.84    6.00
 -14  -4  -8  633.65    9.33
  -4  -8  14  617.14    9.14
  -8 -14  -4  641.09    9.29
  -8  -4 -14  634.70    9.17
   8  -4  14  621.49    9.34
  -4 -14  -8  651.29    9.36
  -8   4 -14  633.66    9.35
 -14   4  -8  626.73    9.17
 -14  -8  -4  611.87    9.12
   8 -14   4  608.65    9.45
   8 -14  -4  622.07    9.46
  -8  -4  14  624.66    9.29
   4  -8  14  640.42    9.17
 -14  -8  -6  374.99    5.93
  -8 -14  -6  380.47    6.11
  -6 -14  -8  374.19    6.08
 -14   6  -8  370.45    5.90
  -8  -6 -14  364.08    5.92
  -6  -8 -14  358.17    6.07
  -8   6 -14  370.35    6.14
   8 -14   6  373.12    6.14
   8 -14  -6  385.28    6.20
  -6  -8  14  366.03    5.95
   6  -8  14  368.23    5.92
   8  -6  14  370.62    6.05
 -14  -6  -8  377.11    6.11
   8  -8  14    1.24    0.32
 -14  -8  -8    0.54    0.27
  -8 -14  -8    1.33    0.34
  -9   1 -14    0.50    0.27
 -14  -9  -1    0.82    0.28
  -9 -14   1    0.52    0.24
  -9 -14  -1    0.21    0.21
   1  -9  14    0.19    0.21
  -1  -9  14    0.11    0.20
  -1 -14  -9    0.37    0.24
   1 -14  -9    0.17    0.21
 -14  -1  -9    0.55    0.27
 -14   1  -9    0.25    0.25
  -9  -1 -14    0.55    0.26
 -14  -3  -9   11.29    0.73
 -14  -9  -3   11.66    0.70
  -9 -14  -3   11.93    0.73
  -9  -3 -14   10.60    0.69
 -14   3  -9   13.37    0.75
  -3 -14  -9   13.34    0.77
  -9   3 -14   12.82    0.78
   9 -14   3   11.69    0.78
   9 -14  -3   13.90    0.84
  -3  -9  14   12.14    0.69
   3  -9  14   12.04    0.68
   9  -5  14    0.88    0.31
  -9   5 -14    0.43    0.29
 -14  -9  -5    0.41    0.28
  -9 -14  -5    0.42    0.29
 -14  -5  -9    0.36    0.30
   9 -14   5    0.52    0.29
   9 -14  -5    0.34    0.28
  -5 -14  -9    0.68    0.29
  -5  -9 -14    0.48    0.28
  -9  -5 -14    0.48    0.27
  -5  -9  14    0.54    0.27
 -14   5  -9    0.51    0.26
   5  -9  14    0.94    0.29
  -9  -7 -14   39.73    1.33
 -14  -9  -7   40.14    1.37
  -7 -14  -9   39.12    1.43
  -9  -7 -14   38.82    1.35
 -14   7  -9   38.51    1.32
  -7  -9 -14   38.90    1.42
  -9   7 -14   41.52    1.48
   9 -14   7   39.01    1.43
   9 -14  -7   40.98    1.47
   7  -9  14   40.79    1.34
   9  -7  14   40.37    1.40
  -9 -14  -7   39.67    1.43
 -14  -7  -9   40.00    1.44
   9  -9  14    3.28    0.43
  -9   9 -14    2.73    0.47
 -14  -9  -9    3.05    0.43
  -9 -14  -9    2.47    0.42
  -9  -9 -14    2.10    0.41
 -10 -14   0  419.13    6.71
 -14   0 -10  417.55    6.79
 -10   0 -14  440.71    6.85
   0 -14 -10  433.60    6.74
 -14 -10  -2   10.90    0.71
 -14  -2 -10   12.36    0.77
 -10 -14  -2    9.83    0.67
 -10  -2 -14   10.91    0.71
 -14   2 -10   10.62    0.71
  -2 -14 -10   10.45    0.70
 -10   2 -14   11.93    0.76
   2 -14 -10   12.98    0.73
 -14  -4 -10 1386.77   19.41
 -14 -10  -4 1395.64   19.30
 -10  -4 -14 1430.03   19.33
 -10 -14  -4 1447.85   19.44
 -14   4 -10 1430.01   19.38
  -4 -14 -10 1413.36   19.45
  -4 -10 -14 1403.65   19.53
 -10   4 -14 1449.30   19.53
  -4 -10  14 1417.99   19.12
 -14  -6 -10   18.81    0.97
  -6 -10  14    9.08    0.64
 -10  -6 -14   11.32    0.73
 -14 -10  -6   10.53    0.71
 -10 -14  -6   11.92    0.77
  -6 -14 -10   16.49    0.90
 -14   6 -10   10.92    0.72
  -6 -10 -14    9.71    0.72
 -10   6 -14   12.08    0.80
  10 -14   6   10.21    0.75
  10 -14  -6    9.09    0.72
 -10  -6 -14   11.12    0.68
  10  -6  14   12.14    0.78
 -10  -8 -14  202.16    3.84
 -10  -8 -14  208.96    3.96
  -8 -10 -14  208.66    4.08
 -14   8 -10  211.10    3.93
 -10 -14  -8  201.75    4.04
  -8 -14 -10  202.95    4.06
 -10   8 -14  193.42    4.00
 -14  -8 -10  201.86    3.80
  10  -8  14  208.03    3.94
 -14 -10  -8  199.25    3.90
 -10  10 -14    2.25    0.46
 -14 -10 -10    0.61    0.31
 -10 -14 -10    2.44    0.46
 -10 -10 -14    0.08    0.27
 -14 -11  -1   15.75    0.85
 -11 -14  -1   13.23    0.80
 -14  -1 -11   13.84    0.84
 -11 -14   1   14.29    0.81
 -14   1 -11   14.37    0.85
 -11  -1 -14   15.01    0.86
 -11   1 -14   14.55    0.86
  -1 -14 -11   13.09    0.79
   1 -14 -11   14.49    0.82
 -14  -3 -11   44.57    1.53
 -14   3 -11   42.57    1.48
 -14 -11  -3   41.67    1.45
 -11 -14  -3   41.04    1.45
 -11  -3 -14   43.33    1.48
  -3 -14 -11   43.73    1.51
 -11   3 -14   42.07    1.52
  -3 -11 -14   44.42    1.57
 -11   5 -14    0.87    0.36
 -11 -14  -5    0.50    0.31
 -14  -5 -11    0.78    0.34
  -5 -14 -11    0.84    0.33
 -11  -5 -14    0.36    0.29
  -5 -11 -14    0.48    0.32
 -14   5 -11    1.85    0.40
 -11  -7 -14    4.41    0.51
 -14 -11  -7    4.21    0.49
 -11 -14  -7    4.54    0.54
 -11   7 -14    4.08    0.52
  -7 -14 -11    4.45    0.54
  -7 -11 -14    4.72    0.54
 -14   7 -11    4.50    0.52
  11 -14   7    4.11    0.52
 -14  -7 -11    4.05    0.51
  11 -14  -7    4.27    0.55
 -11  -7 -14    3.78    0.45
  11  -7  14    4.72    0.53
  11  -9  14    2.73    0.45
 -14   9 -11    2.90    0.45
 -11   9 -14    4.10    0.55
 -14 -11  -9    2.91    0.45
 -14  -9 -11    2.81    0.43
 -11  -9 -14    2.67    0.45
 -11 -14  -9    2.94    0.49
  -9 -14 -11    2.98    0.48
 -11  -9 -14    2.13    0.42
  -9 -11 -14    3.01    0.49
 -11  11 -14    2.19    0.49
 -14 -11 -11    1.91    0.44
 -11 -14 -11    3.12    0.52
 -11 -11 -14    1.73    0.41
 -12 -14   0  603.20    9.11
 -14   0 -12  586.89    9.17
 -12   0 -14  597.72    9.20
   0 -14 -12  608.00    9.14
 -14 -12  -2 1282.16   17.70
 -14  -2 -12 1289.44   17.78
 -12  -2 -14 1290.25   17.75
 -14   2 -12 1285.12   17.76
 -12   2 -14 1273.24   17.79
  -2 -14 -12 1276.08   17.74
  -2 -12 -14 1291.71   17.86
 -12 -14  -2 1221.68   17.63
 -12   4 -14    1.80    0.41
  -4 -12 -14    2.74    0.48
 -14 -12  -4    1.51    0.37
 -12 -14  -4    1.25    0.35
 -14  -4 -12    0.83    0.36
  -4 -14 -12   -0.04    0.29
 -14   4 -12    0.91    0.34
 -12  -4 -14    2.05    0.42
 -14  -6 -12 1199.25   16.74
 -12  -6 -14 1193.88   16.62
 -14 -12  -6 1165.79   16.63
 -12 -14  -6 1168.76   16.69
  -6 -14 -12 1200.58   16.84
 -14   6 -12 1191.26   16.64
  -6 -12 -14 1183.71   16.79
 -12   6 -14 1177.71   16.72
 -14 -12  -8  229.69    4.42
 -12 -14  -8  225.52    4.47
 -12  -8 -14  220.37    4.20
  -8 -14 -12  220.41    4.45
  -8 -12 -14  237.68    4.61
 -14   8 -12  234.44    4.43
 -12   8 -14  227.73    4.46
  12  -8  14  228.31    4.36
 -14  -8 -12  225.85    4.42
 -12  -8 -14  231.74    4.37
 -14 -12 -10  900.14   13.23
 -12 -14 -10  888.33   13.29
 -14 -10 -12  880.60   13.08
 -10 -14 -12  913.18   13.45
 -12 -10 -14  929.49   13.22
 -10 -12 -14  910.24   13.36
 -14  10 -12  912.26   13.13
 -12  10 -14  895.97   13.27
 -10  12 -14  920.93   13.36
 -12  12 -14    0.14    0.34
 -14 -12 -12    0.13    0.32
 -12 -14 -12   -0.05    0.33
  -1 -13 -14    0.34    0.33
 -14 -13  -1   -0.04    0.29
 -13 -14  -1    0.08    0.28
   1 -14 -13    0.32    0.32
 -13   1 -14    0.58    0.37
 -14  -1 -13    0.53    0.32
 -13  -1 -14    0.41    0.31
 -14   1 -13    0.12    0.30
  -1 -14 -13    0.37    0.32
 -14 -13  -3    2.38    0.44
 -13 -14  -3    1.37    0.37
  -3 -14 -13    1.61    0.39
 -14  -3 -13    2.39    0.45
 -13  -3 -14    1.88    0.44
 -14   3 -13    1.71    0.43
  -3 -13 -14    1.75    0.41
 -13   3 -14    2.83    0.50
 -13   5 -14    0.21    0.33
 -14 -13  -5    0.37    0.31
 -13 -14  -5    0.21    0.30
 -14  -5 -13    0.17    0.35
  -5 -14 -13    0.09    0.32
 -13  -5 -14    0.41    0.32
  -5 -13 -14    0.22    0.32
 -14   5 -13    0.51    0.35
 -14   7 -13    0.72    0.38
 -13   7 -14    0.84    0.35
 -14 -13  -7    1.25    0.39
 -13 -14  -7    1.62    0.41
 -14  -7 -13    1.55    0.40
 -13  -7 -14    1.22    0.39
  -7 -14 -13    1.20    0.40
  -7 -13 -14    1.35    0.43
 -14 -13  -9   12.88    0.89
 -13 -14  -9   13.38    0.94
 -13  -9 -14   12.17    0.80
  -9 -14 -13   12.40    0.90
  -9 -13 -14   13.62    0.92
 -14   9 -13   11.63    0.85
 -13   9 -14   11.90    0.88
 -14  11 -13    3.34    0.50
 -13  11 -14    2.93    0.53
 -11  13 -14    2.92    0.52
 -11  14 -13    2.26    0.49
 -14 -13 -11    2.90    0.53
 -13 -14 -11    2.18    0.46
 -14 -11 -13    2.81    0.48
 -13 -11 -14    3.43    0.52
 -11 -14 -13    3.24    0.54
 -11 -13 -14    2.84    0.51
 -14 -13 -13   19.45    1.10
 -13 -14 -13   17.70    1.10
 -13 -13 -14   19.97    1.12
 -13  13 -14   16.30    1.02
 -14   0 -14  183.51    3.94
   0 -14 -14  199.28    4.01
 -14   2 -14    2.57    0.47
 -14 -14  -2    3.75    0.51
 -14  -2 -14    2.17    0.45
 -14  -4 -14 1028.92   14.87
 -14 -14  -4 1004.86   14.81
 -14   4 -14 1060.87   14.98
  -4 -14 -14 1042.86   14.98
 -14 -14  -6    0.44    0.32
 -14  -6 -14    0.80    0.37
  -6 -14 -14    0.38    0.34
 -14   6 -14    0.58    0.37
 -14 -14  -8  157.24    3.56
  -8 -14 -14  156.46    3.61
 -14   8 -14  161.92    3.58
 -14  -8 -14  158.45    3.53
 -14  10 -14    1.82    0.46
 -10  14 -14    2.10    0.47
 -14 -14 -10    0.09    0.30
 -14 -10 -14    0.37    0.35
 -10 -14 -14    0.05    0.32
 -14 -14 -12  560.96    9.09
 -14 -12 -14  563.03    8.97
 -12 -14 -14  571.32    9.16
 -14  12 -14  575.60    9.02
 -12  14 -14  562.03    9.00
 -14 -14 -14    0.53    0.37
  -1 -15   0   -0.03    0.25
   1 -15   0    0.07    0.24
   0 -15   1    0.03    0.23
   0 -15  -1    0.03    0.23
  -1   0  15    0.11    0.19
   0  -1  15   -0.03    0.20
   0   1  15    0.03    0.18
   1   0  15    0.25    0.22
  -1 -15   2    3.86    0.46
  -1 -15  -2    3.82    0.45
  -2 -15  -1    3.75    0.46
   2 -15  -1    2.59    0.42
  -2  -1  15    4.16    0.42
  -2   1  15    4.02    0.41
   1   2  15    4.45    0.42
   1 -15   2    3.47    0.43
  -1   2  15    3.48    0.38
   1  -2  15    3.43    0.39
   2   1  15    3.16    0.39
  -2 -15   1    3.40    0.44
   2 -15   1    4.44    0.49
   2  -1  15    3.06    0.38
   1 -15  -2    4.40    0.48
  -1  -2  15    2.74    0.37
 -15  -1  -2    3.10    0.34
   0 -15   3    0.10    0.27
   0 -15  -3   -0.03    0.25
   3 -15   0    1.30    0.32
  -3 -15   0    1.14    0.33
 -15   0  -3    0.30    0.22
  -3   0  15    0.20    0.20
   0  -3  15   -0.03    0.22
   0   3  15    0.05    0.21
   3   0  15    0.15    0.21
   3 -15   2    0.48    0.27
   3 -15  -2    0.48    0.27
  -3   2 -15    0.68    0.24
   2 -15   3    1.20    0.32
   2 -15  -3    0.75    0.28
 -15  -2  -3    1.27    0.27
  -3 -15   2    0.57    0.26
  -3 -15  -2    0.68    0.30
  -3   2  15    2.20    0.33
  -3  -2  15    0.44    0.24
  -2   3  15    0.81    0.25
  -2  -3  15    0.79    0.26
  -2 -15   3    0.90    0.29
  -2 -15  -3    0.79    0.28
   2  -3  15    0.59    0.25
   2   3  15    0.25    0.22
   3  -2  15    1.01    0.28
   3   2  15    0.73    0.24
   4  -1  15    1.97    0.33
   4   1  15    1.52    0.30
   4 -15  -1    2.27    0.39
   4 -15   1    2.42    0.40
  -4   1 -15    1.20    0.28
  -4 -15   1    1.15    0.32
  -4 -15  -1    2.10    0.40
  -1 -15   4    1.98    0.38
  -1 -15  -4    1.37    0.34
 -15  -1  -4    1.95    0.30
 -15   1  -4    1.21    0.27
   1 -15   4    1.32    0.32
   1 -15  -4    1.51    0.34
  -4   1  15    1.81    0.34
  -4  -1  15    2.24    0.34
  -1   4  15    1.78    0.31
  -1  -4  15    1.59    0.31
   1  -4  15    1.65    0.31
   1   4  15    1.82    0.31
  -4 -15  -3   17.49    0.79
  -3 -15  -4   18.44    0.81
  -3 -15   4   19.67    0.96
  -3 -15  -4   18.76    0.95
  -4 -15   3   19.38    0.97
  -4 -15  -3   19.34    0.98
  -3   4  15   19.81    0.83
  -4   3  15   19.86    0.85
  -4  -3  15   19.76    0.91
  -3  -4  15   19.42    0.88
   4 -15   3   20.75    0.98
   4 -15  -3   19.06    0.95
   3  -4  15   20.23    0.91
   3   4  15   19.02    0.84
   4  -3  15   21.31    0.93
   4   3  15   18.36    0.84
   3 -15   4   19.33    0.95
   3 -15  -4   20.04    0.98
 -15  -3  -4   19.90    0.87
   5   0  15   -0.06    0.20
  -5   0 -15   -0.11    0.20
   0 -15   5    0.37    0.25
   0 -15  -5   -0.03    0.25
 -15   0  -5    0.16    0.19
  -5   0  15   -0.03    0.20
   0  -5  15    0.27    0.22
   5 -15   0    0.25    0.26
   5  -2  15    2.79    0.38
   5   2  15    2.42    0.35
 -15   2  -5    4.06    0.40
  -5 -15  -2    3.12    0.37
  -2 -15   5    2.85    0.41
  -2 -15  -5    2.23    0.39
  -5   2 -15    2.69    0.37
 -15  -2  -5    2.49    0.35
   2 -15   5    2.48    0.41
   2 -15  -5    2.58    0.39
  -5   2  15    3.17    0.38
  -5  -2  15    2.54    0.37
  -2  -5  15    2.18    0.35
   2  -5  15    2.45    0.36
   5 -15   2    2.55    0.40
   5 -15  -2    2.86    0.41
  -5   4  15   42.18    1.29
   5 -15   4   42.59    1.48
  -5 -15  -4   47.98    1.41
  -4 -15  -5   46.93    1.40
   4  -5  15   45.14    1.42
  -5  -4  15   45.71    1.44
  -4  -5  15   43.95    1.41
   4 -15   5   43.99    1.47
   4 -15  -5   43.54    1.46
   4   5  15   44.66    1.34
   5   4  15   44.50    1.36
   5  -4  15   43.83    1.42
 -15  -4  -5   46.16    1.42
   5 -15  -4   43.58    1.49
   6   1  15    2.95    0.39
  -6 -15   1    3.09    0.35
 -15   1  -6    3.74    0.40
  -6 -15  -1    3.36    0.38
   6  -1  15    3.33    0.41
  -6   1  15    3.85    0.42
  -1 -15   6    3.95    0.46
  -1 -15  -6    3.56    0.44
  -6   1 -15    4.00    0.44
   6 -15  -1    4.05    0.50
  -6  -1  15    4.00    0.43
  -1  -6  15    4.17    0.43
  -6  -1 -15    4.23    0.44
   1  -6  15    3.75    0.42
   6 -15   1    3.45    0.44
 -15  -1  -6    4.02    0.42
   1 -15   6    3.35    0.43
   1 -15  -6    4.15    0.47
 -15  -6  -3    6.24    0.48
 -15   3  -6    7.20    0.51
  -6 -15  -3    6.57    0.52
  -3 -15  -6    6.43    0.51
  -6   3 -15    6.40    0.54
  -3 -15   6    6.55    0.57
  -3 -15  -6    6.32    0.55
   6 -15   3    6.34    0.57
   6 -15  -3    6.69    0.58
  -6  -3  15    5.99    0.53
  -6   3  15    6.21    0.50
  -3  -6  15    6.86    0.55
   3  -6  15    5.95    0.52
   6  -3  15    5.49    0.51
   6   3  15    6.85    0.55
 -15  -3  -6    6.42    0.54
   3 -15   6    6.12    0.55
   3 -15  -6    6.22    0.56
 -15  -6  -5   28.90    1.03
   5 -15   6   29.42    1.19
  -6 -15  -5   30.16    1.15
  -5 -15  -6   33.19    1.19
   5 -15  -6   32.15    1.23
  -6   5 -15   28.64    1.17
   6 -15   5   28.36    1.19
  -6  -5  15   28.58    1.14
   6 -15  -5   30.96    1.23
  -5  -6  15   29.63    1.14
   5  -6  15   28.08    1.12
   6   5  15   29.66    1.10
   6  -5  15   30.68    1.18
 -15  -5  -6   30.37    1.19
   7   0  15   -0.03    0.26
  -7   0 -15    0.56    0.26
 -15   0  -7    0.36    0.23
   0 -15   7    0.39    0.25
   0 -15  -7    0.13    0.24
   7 -15   0    0.23    0.25
  -7   0  15   -0.06    0.24
   0  -7  15    0.39    0.25
 -15  -2  -7   14.24    0.78
   7   2  15   13.83    0.77
 -15  -7  -2   14.04    0.73
  -7  -2 -15   15.49    0.79
  -2 -15  -7   16.28    0.81
  -7  -2  15   13.72    0.78
  -2 -15   7   14.43    0.81
  -2 -15  -7   12.58    0.77
  -7   2 -15   14.19    0.78
  -7 -15   2   14.93    0.74
   7 -15   2   13.73    0.85
   7 -15  -2   13.49    0.83
  -7   2  15   14.37    0.76
  -2  -7  15   14.67    0.78
   2  -7  15   14.90    0.77
  -7 -15  -2   14.53    0.76
   7  -2  15   14.92    0.82
 -15   2  -7   12.69    0.71
   2 -15   7   13.55    0.78
   2 -15  -7   14.68    0.81
   7  -4  15    0.37    0.27
   7   4  15    0.38    0.24
  -7   4 -15    0.41    0.28
   4 -15   7    0.55    0.27
   4 -15  -7    0.51    0.29
 -15  -7  -4    0.23    0.23
  -7 -15  -4    0.51    0.27
 -15  -4  -7    0.54    0.27
  -4 -15  -7    0.22    0.23
  -7  -4 -15    0.99    0.27
   7 -15   4    0.64    0.32
   7 -15  -4    0.41    0.29
 -15   4  -7    0.40    0.24
  -7   4  15    0.48    0.25
  -7  -4  15    0.67    0.28
  -4  -7  15    0.48    0.28
   4  -7  15    0.76    0.29
   6  -7  15    0.53    0.27
   6 -15   7    0.25    0.27
   6 -15  -7    0.56    0.31
 -15  -7  -6    0.23    0.21
  -7   6 -15    0.44    0.29
  -7 -15  -6    0.49    0.27
  -6 -15  -7    0.56    0.28
  -7  -6 -15    0.40    0.25
  -6  -7 -15    0.57    0.28
  -7  -6  15    0.38    0.25
  -6  -7  15    0.40    0.25
   7 -15   6    0.21    0.23
   7 -15  -6    0.73    0.27
   7  -6  15    0.34    0.25
 -15  -1  -8   18.55    0.92
  -8 -15  -1   19.28    0.89
 -15   1  -8   19.36    0.91
  -8  -1 -15   18.07    0.90
  -1 -15  -8   19.64    0.90
  -8   1 -15   18.10    0.90
   8 -15   1   17.17    0.97
   8 -15  -1   18.41    1.00
  -8   1  15   17.78    0.89
  -8  -1  15   19.78    0.94
  -8 -15   1   18.26    0.86
  -1  -8  15   19.00    0.88
   1  -8  15   17.95    0.86
   8  -1  15   18.66    0.95
   8   1  15   16.65    0.89
   8 -15   3    0.63    0.32
   8  -3  15    0.68    0.30
   8   3  15    1.42    0.37
  -8   3 -15    0.83    0.31
 -15  -8  -3    0.67    0.27
  -8 -15  -3    0.66    0.28
 -15  -3  -8    0.87    0.32
  -3 -15  -8    0.54    0.29
   8 -15  -3    0.39    0.31
 -15   3  -8    0.90    0.30
  -8  -3  15    0.52    0.29
  -8  -3 -15    0.69    0.29
  -3  -8  15    0.50    0.26
   3  -8  15    0.59    0.27
   8  -5  15   -0.07    0.26
   8   5  15    0.49    0.28
 -15  -8  -5    0.86    0.28
   5  -8  15    0.72    0.29
  -8 -15  -5    0.63    0.28
 -15  -5  -8    0.33    0.27
  -5 -15  -8    0.28    0.25
  -8  -5 -15    0.65    0.29
  -8   5 -15    0.30    0.30
   8 -15   5    0.19    0.28
   8 -15  -5    0.74    0.34
  -8  -5 -15    0.40    0.25
 -15   5  -8    0.65    0.28
  -5  -8  15    0.52    0.29
 -15  -8  -7    6.10    0.53
  -8 -15  -7    6.19    0.59
  -7 -15  -8    6.49    0.60
  -8  -7 -15    6.87    0.58
  -7  -8 -15    6.51    0.59
  -7  -8  15    6.57    0.58
  -8   7 -15    6.29    0.61
   8 -15   7    4.69    0.52
   8 -15  -7    5.37    0.57
   7  -8  15    6.21    0.56
   8  -7  15    6.71    0.59
  -9 -15   0   -0.03    0.24
 -15   0  -9   -0.03    0.24
   9 -15   0    0.29    0.31
   0 -15  -9    0.28    0.26
   0  -9  15    0.12    0.23
  -9   0 -15    0.24    0.27
   9  -2  15    2.26    0.43
  -9   2 -15    2.82    0.43
 -15  -9  -2    2.34    0.37
  -9 -15  -2    2.13    0.38
   9 -15   2    2.68    0.47
   9 -15  -2    2.38    0.47
  -2 -15  -9    2.37    0.39
 -15  -2  -9    1.80    0.38
 -15   2  -9    2.93    0.43
  -9  -2 -15    3.13    0.45
  -2  -9  15    2.32    0.40
   2  -9  15    2.39    0.39
   9  -4  15   -0.04    0.25
   9   4  15    0.07    0.28
  -9   4 -15    0.15    0.25
 -15  -9  -4    0.03    0.24
  -9 -15  -4    0.22    0.27
 -15  -4  -9   -0.07    0.27
  -4 -15  -9    0.18    0.27
   9 -15   4   -0.04    0.30
  -9  -4 -15    0.07    0.27
   9 -15  -4   -0.13    0.31
  -4  -9  15    0.26    0.25
   4  -9  15    0.03    0.23
  -9  -6 -15   13.40    0.78
 -15  -9  -6   13.71    0.80
  -9 -15  -6   13.27    0.83
  -6 -15  -9   13.95    0.85
 -15   6  -9   14.60    0.82
  -9  -6 -15   14.39    0.80
  -6  -9 -15   13.04    0.83
  -9   6 -15   13.41    0.87
   9  -6  15   14.16    0.85
   9 -15   6   14.48    0.89
   9 -15  -6   13.30    0.85
  -6  -9  15   15.09    0.83
   6  -9  15   13.53    0.79
 -15  -6  -9   13.39    0.85
   8  -9  15    2.22    0.40
   9  -8  15    2.02    0.40
  -9   8 -15    1.78    0.42
 -15  -9  -8    3.02    0.42
 -15  -8  -9    1.73    0.38
  -9 -15  -8    2.23    0.42
  -8 -15  -9    1.22    0.38
  -9  -8 -15    1.90    0.41
  -8  -9 -15    1.75    0.40
 -10 -15   1    7.11    0.60
 -10 -15  -1    7.30    0.61
 -15  -1 -10    7.10    0.61
 -15   1 -10    7.85    0.63
 -10  -1 -15    7.20    0.61
 -10   1 -15    7.43    0.63
  -1 -15 -10    7.38    0.60
   1 -15 -10    7.37    0.58
  10 -15   1    6.92    0.65
  10 -15  -1    6.40    0.63
 -15  -3 -10   13.31    0.83
 -15 -10  -3   12.51    0.77
 -10 -15  -3   13.44    0.82
 -10  -3 -15   13.55    0.81
 -15   3 -10   12.48    0.79
  -3 -15 -10   13.43    0.82
  -3 -10  15   13.56    0.76
 -10   3 -15   13.10    0.82
  10 -15   3   12.88    0.86
  10 -15  -3   13.85    0.89
  10  -5  15    2.45    0.43
 -10   5 -15    2.67    0.46
 -15 -10  -5    2.18    0.39
 -10  -5 -15    2.11    0.39
 -10 -15  -5    3.43    0.47
 -15  -5 -10    1.67    0.38
  -5 -15 -10    2.39    0.42
  10 -15   5    2.72    0.49
  10 -15  -5    2.02    0.43
  -5 -10 -15    2.45    0.43
  -5 -10  15    1.94    0.37
 -15   5 -10    2.35    0.43
  10 -15   7    0.20    0.30
  10  -7  15    0.47    0.31
 -10   7 -15    0.59    0.33
 -15 -10  -7    0.30    0.29
 -15  -7 -10    0.37    0.29
 -10 -15  -7    0.04    0.27
  10 -15  -7    0.25    0.30
  -7 -15 -10    0.50    0.32
 -10  -7 -15    0.29    0.27
 -10  -7 -15    0.11    0.24
  -7 -10 -15    0.08    0.28
 -15   7 -10    0.14    0.28
 -15 -10  -9    9.69    0.72
 -15  -9 -10    9.63    0.70
 -10 -15  -9   10.15    0.79
  -9 -15 -10   10.60    0.81
 -10  -9 -15   10.51    0.78
  -9 -10 -15   11.29    0.82
 -10   9 -15   11.59    0.84
  -9  10 -15   10.39    0.81
  10  -9  15   10.08    0.73
 -11 -15   0    0.11    0.27
   0 -15 -11   -0.11    0.26
 -15   0 -11    0.12    0.28
 -11   0 -15   -0.04    0.29
 -15 -11  -2   38.75    1.40
 -15  -2 -11   36.03    1.40
 -11 -15  -2   36.26    1.37
 -11  -2 -15   39.33    1.43
 -15   2 -11   36.96    1.40
 -11   2 -15   35.97    1.41
  -2 -15 -11   35.68    1.38
  11 -15   2   36.57    1.50
  11 -15  -2   36.60    1.51
 -15 -11  -4    2.02    0.38
 -11 -15  -4    2.31    0.43
  11 -15   4    1.71    0.41
  11 -15  -4    1.91    0.42
 -11   4 -15    2.24    0.46
 -15  -4 -11    2.32    0.43
  -4 -15 -11    1.79    0.40
  -4 -11 -15    1.74    0.40
 -11  -4 -15    2.84    0.44
 -15   4 -11    1.94    0.40
 -11   6 -15    0.69    0.36
  11  -6  15    1.36    0.37
 -15 -11  -6    0.12    0.25
 -11 -15  -6   -0.04    0.32
 -15  -6 -11    0.21    0.29
  -6 -15 -11    0.08    0.27
  11 -15   6    0.09    0.32
  11 -15  -6    0.09    0.32
 -11  -6 -15    0.57    0.30
  -6 -11 -15   -0.13    0.27
 -15   6 -11   -0.12    0.31
  11  -8  15    0.97    0.37
 -11   8 -15    1.10    0.41
 -15 -11  -8    0.84    0.35
 -11 -15  -8    0.58    0.34
 -11  -8 -15    0.34    0.29
  -8 -15 -11    0.67    0.34
 -11  -8 -15    0.90    0.35
  -8 -11 -15    0.80    0.35
 -15   8 -11    0.61    0.32
 -11  10 -15    0.37    0.33
 -10  11 -15    0.28    0.36
 -15 -11 -10    0.33    0.32
 -15 -10 -11   -0.12    0.40
 -11 -15 -10    0.14    0.29
 -10 -15 -11    0.23    0.36
 -11 -10 -15    0.68    0.32
 -10 -11 -15    0.40    0.33
 -12 -15  -1    0.36    0.27
 -15  -1 -12    0.46    0.34
  -1 -15 -12    0.28    0.31
 -15   1 -12    0.58    0.35
 -12  -1 -15    0.45    0.32
 -12   1 -15    0.62    0.36
   1 -15 -12    0.46    0.31
 -12 -15  -3    4.94    0.55
 -12   3 -15    4.36    0.56
 -15 -12  -3    3.69    0.49
  -3 -15 -12    3.91    0.51
 -12  -3 -15    3.78    0.52
 -15  -3 -12    3.45    0.52
 -15   3 -12    4.18    0.52
  -3 -12 -15    3.76    0.52
 -15  -5 -12    4.42    0.57
 -15 -12  -5    4.42    0.54
 -12 -15  -5    4.43    0.53
 -12  -5 -15    5.95    0.60
 -15   5 -12    4.67    0.57
  -5 -15 -12    4.86    0.61
  -5 -12 -15    5.09    0.59
 -12   5 -15    4.79    0.58
  12 -15   5    4.60    0.59
  12  -7  15    0.43    0.33
 -12   7 -15    0.77    0.36
 -15 -12  -7    0.50    0.33
 -12 -15  -7    0.67    0.33
 -15  -7 -12    0.31    0.34
 -12  -7 -15    0.25    0.34
  -7 -15 -12    0.58    0.40
  12 -15   7    0.53    0.35
  12 -15  -7    0.41    0.32
  -7 -12 -15    0.64    0.35
 -15   7 -12    0.29    0.31
  12  -9  15    0.41    0.33
 -12   9 -15    0.32    0.34
  -9  12 -15    0.66    0.39
 -15 -12  -9    0.51    0.37
 -12 -15  -9    0.47    0.36
 -12  -9 -15    0.69    0.35
  -9 -15 -12    1.00    0.40
 -12  -9 -15    0.88    0.36
  -9 -12 -15    0.71    0.37
 -15   9 -12    0.45    0.36
 -11  12 -15   -0.05    0.35
 -12  11 -15    0.19    0.33
 -15 -12 -11   -0.18    0.37
 -15 -11 -12    0.21    0.30
 -12 -15 -11    0.29    0.32
 -11 -15 -12    0.10    0.31
 -12 -11 -15    0.05    0.30
 -11 -12 -15   -0.09    0.31
   0 -15 -13   -0.08    0.32
 -15   0 -13    0.21    0.32
 -13   0 -15   -0.04    0.29
 -15 -13  -2   11.12    0.79
 -13 -15  -2   10.24    0.78
 -15  -2 -13   11.13    0.82
 -13  -2 -15   12.38    0.86
 -15   2 -13   10.56    0.79
 -13   2 -15   12.26    0.86
  -2 -15 -13   11.02    0.82
  -2 -13 -15   10.48    0.81
   2 -15 -13   10.82    0.78
 -15  -4 -13    6.32    0.66
 -13  -4 -15    6.42    0.63
 -15 -13  -4    6.45    0.64
 -13 -15  -4    6.88    0.64
 -15   4 -13    6.48    0.66
 -13   4 -15    6.76    0.67
  -4 -15 -13    5.71    0.63
  -4 -13 -15    6.78    0.67
 -15 -13  -6    0.52    0.32
 -13 -15  -6    0.40    0.32
  13 -15   6    0.18    0.32
 -15  -6 -13    0.14    0.32
 -13  -6 -15    0.04    0.30
  -6 -15 -13    0.38    0.32
  -6 -13 -15    0.14    0.31
 -13   6 -15    0.18    0.31
 -15   6 -13    0.13    0.31
  13  -8  15    1.98    0.44
 -15 -13  -8    1.20    0.37
 -13 -15  -8    1.68    0.41
 -13  -8 -15    1.90    0.43
  -8 -15 -13    1.92    0.45
  -8 -13 -15    1.41    0.44
 -13   8 -15    1.64    0.42
 -15   8 -13    1.78    0.42
 -13  10 -15    4.17    0.58
 -15 -13 -10    5.60    0.62
 -13 -15 -10    5.36    0.64
 -13 -10 -15    5.00    0.59
 -10 -13 -15    5.41    0.67
 -15  10 -13    5.70    0.63
 -10  15 -13    4.80    0.60
 -10  13 -15    5.36    0.66
 -10 -15 -13    4.86    0.62
 -13  12 -15    2.71    0.52
 -12  13 -15    2.97    0.51
 -15 -13 -12    2.85    0.50
 -15 -12 -13    2.36    0.50
 -13 -15 -12    2.23    0.50
 -12 -15 -13    3.26    0.55
 -13 -12 -15    3.12    0.50
 -12 -13 -15    2.36    0.48
 -15  -1 -14   11.67    0.86
 -14  -1 -15   11.20    0.82
 -15   1 -14   12.20    0.88
 -14   1 -15   10.00    0.81
  -1 -15 -14   12.35    0.87
  -1 -14 -15   11.70    0.87
   1 -15 -14   11.85    0.85
   1 -14 -15   12.59    0.89
 -15  -3 -14   20.32    1.12
 -15 -14  -3   19.55    1.08
 -14  -3 -15   20.33    1.09
 -14 -15  -3   19.95    1.09
 -15   3 -14   21.68    1.14
 -14   3 -15   21.69    1.16
  -3 -15 -14   19.66    1.11
  -3 -14 -15   20.80    1.15
   3 -15 -14   21.10    1.09
 -15 -14  -5    0.22    0.31
 -14 -15  -5    0.09    0.32
 -15  -5 -14    0.19    0.32
 -14  -5 -15    0.82    0.39
  -5 -15 -14    0.19    0.32
  -5 -14 -15    0.20    0.33
 -15   5 -14    0.64    0.38
 -14   5 -15    0.28    0.33
  -7 -15 -14   25.37    1.28
 -15 -14  -7   23.87    1.21
 -14 -15  -7   25.07    1.24
 -15   7 -14   25.18    1.27
  -7 -14 -15   27.60    1.35
 -14   7 -15   26.50    1.28
  14 -15   7   23.64    1.23
  14  -7  15   26.85    1.28
 -15  -7 -14   27.65    1.31
 -14  -7 -15   27.08    1.27
 -14   9 -15    0.38    0.35
 -15 -14  -9    0.24    0.35
 -14 -15  -9   -0.05    0.33
  -9 -15 -14    0.25    0.33
  -9 -14 -15    0.65    0.35
 -15   9 -14    0.59    0.37
 -15  11 -14    3.45    0.52
 -14  11 -15    3.65    0.55
 -11  14 -15    3.18    0.56
 -11  15 -14    3.66    0.56
 -15 -14 -11    2.47    0.48
 -14 -15 -11    2.88    0.53
 -15 -11 -14    3.50    0.51
 -14 -11 -15    2.18    0.45
 -11 -15 -14    2.97    0.53
 -11 -14 -15    3.10    0.53
 -15 -14 -13    5.60    0.65
 -15 -13 -14    6.53    0.69
 -14 -15 -13    7.56    0.72
 -13 -15 -14    7.74    0.75
 -14 -13 -15    5.95    0.64
 -13 -14 -15    5.76    0.67
 -14  13 -15    5.85    0.67
 -13  14 -15    6.55    0.69
   0 -15 -15    0.37    0.36
 -15   0 -15    0.70    0.39
  -2 -15 -15    2.96    0.52
 -15  -2 -15    3.04    0.50
   2 -15 -15    3.07    0.51
 -15   2 -15    3.73    0.56
 -15 -15  -4    0.14    0.29
 -15  -4 -15    0.14    0.33
  -4 -15 -15   -0.15    0.33
 -15   4 -15    0.24    0.35
 -15  -6 -15   24.14    1.25
 -15 -15  -6   24.57    1.23
 -15   6 -15   23.93    1.24
  -6 -15 -15   24.96    1.31
  15  -8  15    0.27    0.36
 -15 -15  -8    1.42    0.39
  -8 -15 -15    0.50    0.38
 -15   8 -15    0.14    0.34
 -15  10 -15    1.54    0.43
 -10  15 -15    0.24    0.37
 -15 -15 -10    0.63    0.35
 -10 -15 -15    0.36    0.34
 -15  12 -15   -0.14    0.35
 -12  15 -15    0.14    0.35
 -15 -15 -12    0.24    0.33
 -15 -12 -15    0.13    0.35
 -12 -15 -15   -0.05    0.36
 -15 -15 -14    0.23    0.32
 -15 -14 -15   -0.05    0.33
 -14 -15 -15    0.33    0.34
   0 -16   0 4020.46   52.25
   0   0  16 4019.00   51.88
  -1 -16   1    0.30    0.29
  -1 -16  -1    0.26    0.27
   1 -16  -1   -0.04    0.28
   1 -16   1    0.11    0.29
  -1   1  16    0.27    0.27
  -1  -1  16    0.03    0.25
   1  -1  16    0.06    0.25
   1   1  16    0.06    0.23
   0 -16  -2   23.59    1.11
   0 -16   2   25.62    1.16
  -2 -16   0   36.04    1.35
  -2   0  16   31.44    1.14
   0  -2  16   23.79    1.04
   0   2  16   25.31    1.03
   2   0  16   31.28    1.15
   2 -16   0   35.56    1.34
  -2 -16   2  243.38    4.51
  -2 -16  -2  253.34    4.57
  -2   2  16  231.72    4.17
  -2  -2  16  232.46    4.24
   2  -2  16  238.00    4.27
   2   2  16  255.81    4.29
   2 -16   2  239.99    4.47
   2 -16  -2  236.87    4.45
   3 -16   1    1.36    0.38
   3 -16  -1    1.75    0.40
 -16  -1  -3    0.65    0.27
  -1 -16   3    1.13    0.35
  -1 -16  -3    1.24    0.36
  -3 -16   1    1.06    0.35
  -3 -16  -1    1.45    0.38
   1 -16   3    1.51    0.37
   1 -16  -3    1.69    0.39
  -3   1  16    1.22    0.31
  -3  -1  16    0.86    0.29
  -1   3  16    1.28    0.31
  -1  -3  16    1.36    0.33
   1  -3  16    1.01    0.33
   1   3  16    1.22    0.30
   3  -1  16    1.24    0.32
   3   1  16    1.05    0.30
  -3 -16  -3   -0.08    0.29
   3  -3  16    0.07    0.25
   3 -16   3    0.23    0.27
   3 -16  -3   -0.04    0.25
  -3   3  16    0.15    0.22
  -3  -3  16   -0.16    0.22
  -3 -16   3   -0.04    0.26
   3   3  16   -0.03    0.24
 -16   0  -4 1694.23   22.70
   0 -16   4 1724.83   23.21
   0 -16  -4 1709.09   23.20
   4 -16   0 1698.82   23.22
  -4 -16   0 1698.26   23.29
  -4   0  16 1717.61   22.93
   0   4  16 1744.52   22.82
   0  -4  16 1703.33   22.96
   4   0  16 1706.47   22.97
  -2 -16   4  626.67    9.61
  -2 -16  -4  632.16    9.61
  -4   2 -16  644.45    9.30
  -4 -16   2  639.52    9.69
  -4 -16  -2  632.71    9.69
  -4   2  16  623.79    9.28
  -4  -2  16  649.29    9.43
  -2   4  16  655.17    9.24
  -2  -4  16  611.55    9.33
   2  -4  16  641.32    9.40
   2   4  16  650.60    9.28
   4  -2  16  619.14    9.38
   4   2  16  633.27    9.33
   4 -16  -2  611.22    9.55
   2 -16   4  630.19    9.58
   2 -16  -4  636.95    9.58
 -16  -2  -4  630.05    9.23
  -4 -16  -4  320.74    5.20
   4   4  16  316.55    5.24
  -4   4  16  325.27    5.22
   4  -4  16  309.85    5.36
   4 -16  -4  321.17    5.56
   4 -16   4  319.12    5.55
  -4  -4  16  316.33    5.37
   1 -16   5    4.68    0.53
   1 -16  -5    4.42    0.52
 -16  -1  -5    5.37    0.49
 -16   1  -5    4.98    0.46
  -1 -16   5    4.73    0.53
  -1 -16  -5    5.55    0.56
  -5   1 -16    4.09    0.46
  -5   1  16    5.19    0.50
  -5  -1  16    5.01    0.51
   5 -16  -1    4.57    0.52
  -1  -5  16    4.13    0.47
   1  -5  16    4.79    0.50
   5  -1  16    4.82    0.50
   5   1  16    5.60    0.52
   5 -16   1    4.86    0.55
  -5 -16  -3   13.95    0.74
  -3 -16  -5   13.28    0.73
  -5   3  16   13.28    0.74
  -3  -5  16   12.89    0.77
  -3 -16   5   12.94    0.83
  -5   3 -16   13.08    0.77
  -3 -16  -5   14.07    0.85
   5 -16   3   13.33    0.82
  -5  -3  16   13.65    0.79
   5 -16  -3   13.22    0.83
   3  -5  16   13.69    0.79
   5  -3  16   12.43    0.76
   5   3  16   13.80    0.76
   3 -16   5   12.72    0.81
   3 -16  -5   13.91    0.84
 -16  -3  -5   12.72    0.74
   5 -16   5    0.04    0.25
   5 -16  -5    0.04    0.29
  -5 -16  -5   -0.03    0.24
  -5  -5  16    0.14    0.25
   5  -5  16   -0.07    0.24
   5   5  16    0.09    0.26
 -16   0  -6   15.25    0.80
  -6 -16   0   15.35    0.77
   0 -16   6   29.17    1.17
   0 -16  -6   20.29    1.00
   6 -16   0   26.49    1.17
  -6   0 -16   19.63    0.91
   0  -6  16   19.23    0.93
  -6   0  16   14.25    0.81
   6   0  16   14.84    0.85
 -16   2  -6  356.97    5.71
  -6 -16  -2  366.71    5.77
   6 -16   2  359.02    6.13
   2  -6  16  367.69    5.91
  -2 -16   6  361.97    6.07
  -2 -16  -6  350.78    6.06
  -6   2 -16  365.23    5.88
 -16  -2  -6  375.59    5.89
  -6   2  16  366.10    5.83
  -6  -2  16  352.03    5.89
  -2  -6  16  362.25    5.88
   6  -2  16  342.59    5.88
   6   2  16  348.71    5.85
   6 -16  -2  360.13    6.14
   2 -16   6  351.51    6.01
   2 -16  -6  343.43    5.99
  -6 -16  -4  492.79    7.47
  -4 -16  -6  494.06    7.47
  -6   4  16  479.76    7.35
  -6   4 -16  489.60    7.60
  -6  -4  16  475.38    7.53
  -4  -6  16  473.86    7.51
   6 -16   4  468.82    7.69
   6 -16  -4  474.39    7.72
   4  -6  16  500.00    7.57
   6  -4  16  490.13    7.59
   6   4  16  477.13    7.43
   4 -16   6  489.08    7.69
   4 -16  -6  474.69    7.66
 -16  -4  -6  487.74    7.54
  -6 -16  -6  327.32    5.53
  -6   6 -16  318.37    5.58
  -6  -6  16  345.32    5.62
   6 -16  -6  317.66    5.66
   6  -6  16  328.55    5.57
   6 -16   6  322.52    5.67
   7   1  16    0.04    0.29
  -7   1 -16    0.17    0.28
  -1 -16   7   -0.04    0.30
  -1 -16  -7    0.14    0.29
   1 -16   7   -0.07    0.33
   1 -16  -7    0.21    0.30
  -7 -16   1    0.06    0.25
  -7 -16  -1   -0.03    0.26
   7  -1  16    0.14    0.29
  -7   1  16    1.19    0.34
 -16  -1  -7    0.10    0.25
 -16   1  -7    0.25    0.27
  -7  -1  16    0.21    0.27
   7 -16   1    0.32    0.33
   7 -16  -1    0.12    0.31
  -1  -7  16    0.53    0.29
   1  -7  16    0.03    0.30
  -7  -1 -16    0.16    0.26
   7  -3  16    3.02    0.45
   7   3  16    3.20    0.44
  -7   3 -16    2.81    0.44
   3 -16  -7    2.65    0.44
 -16  -7  -3    3.45    0.42
  -7 -16  -3    2.42    0.39
 -16  -3  -7    3.33    0.46
  -3 -16  -7    2.39    0.40
 -16   3  -7    2.49    0.40
   3 -16   7    2.94    0.46
  -7   3  16    2.65    0.39
  -7  -3  16    2.71    0.45
  -7  -3 -16    3.13    0.43
  -3  -7  16    2.67    0.41
   7 -16   3    2.99    0.46
   7 -16  -3    2.44    0.42
   3  -7  16    2.95    0.43
   7  -5  16    1.59    0.37
   7   5  16    1.38    0.35
   5 -16   7    1.57    0.40
  -7   5 -16    1.73    0.39
   5 -16  -7    1.84    0.39
 -16  -7  -5    1.21    0.32
 -16  -5  -7    0.93    0.35
  -7 -16  -5    0.88    0.34
  -7  -5 -16    1.83    0.38
  -5 -16  -7    1.50    0.35
  -7  -5  16    1.13    0.34
  -5  -7  16    1.69    0.37
   7 -16   5    1.49    0.40
   7 -16  -5    1.34    0.41
   5  -7  16    1.36    0.35
   7  -7  16    0.07    0.30
   7 -16  -7    0.16    0.30
  -7   7 -16    0.08    0.32
  -7 -16  -7    0.43    0.30
  -7  -7 -16    0.26    0.29
  -7  -7  16   -0.04    0.28
 -16   0  -8 3626.59   47.49
  -8 -16   0 3726.00   47.41
  -8   0 -16 3649.04   47.49
  -8   0  16 3723.48   47.55
   8 -16   0 3565.48   47.89
   0  -8  16 3592.54   47.43
   8   0  16 3708.06   47.67
 -16  -2  -8   12.34    0.78
  -8 -16  -2   17.51    0.88
 -16   2  -8   12.46    0.77
  -8  -2 -16   14.10    0.81
  -2 -16  -8   11.56    0.73
  -8   2 -16   14.32    0.85
   8 -16   2   13.62    0.91
   8 -16  -2   14.28    0.92
  -8  -2  16   16.35    0.89
  -2  -8  16   11.84    0.75
   2  -8  16   11.54    0.73
   8  -2  16   14.04    0.86
   8   2  16   12.15    0.79
 -16  -8  -4 1364.13   19.03
  -8 -16  -4 1388.19   19.21
  -8  -4 -16 1397.66   19.11
 -16   4  -8 1399.33   19.07
  -4 -16  -8 1426.34   19.22
  -8   4 -16 1446.75   19.36
   8 -16   4 1372.59   19.45
   8 -16  -4 1404.82   19.48
  -8  -4  16 1383.38   19.30
  -4  -8  16 1415.88   19.18
   4  -8  16 1389.74   19.14
   8  -4  16 1404.76   19.32
   8   4  16 1400.36   19.20
 -16  -4  -8 1443.44   19.34
   8  -6  16    1.18    0.36
 -16  -8  -6    5.71    0.53
  -6 -16  -8    4.55    0.54
  -8  -6 -16    7.32    0.60
  -8   6 -16    4.15    0.54
  -8 -16  -6    2.58    0.45
  -6  -8 -16    4.11    0.53
  -6  -8  16    2.49    0.42
   8 -16   6    1.89    0.42
   8 -16  -6    1.89    0.41
   6  -8  16    2.03    0.40
   8  -8  16 2411.66   32.06
  -8 -16  -8 2412.88   32.25
  -8  -8 -16 2406.44   32.13
  -8   8 -16 2436.02   32.35
   9   1  16    4.74    0.56
 -16  -1  -9    5.35    0.56
  -9 -16  -1    4.67    0.52
 -16   1  -9    4.81    0.53
  -9  -1 -16    4.37    0.51
  -9   1 -16    5.04    0.56
  -9 -16   1    3.93    0.48
  -1 -16  -9    4.02    0.47
  -1  -9  16    4.42    0.49
   9 -16   1    4.42    0.60
   9 -16  -1    4.73    0.58
   1  -9  16    4.50    0.50
   9  -1  16    4.55    0.56
   9  -3  16    1.01    0.37
   9   3  16    0.50    0.30
  -9   3 -16    0.24    0.28
 -16  -9  -3    0.62    0.30
  -9 -16  -3    0.11    0.32
 -16  -3  -9    0.66    0.31
  -3 -16  -9    0.71    0.32
   9 -16   3    0.62    0.35
   9 -16  -3    0.75    0.35
 -16   3  -9    0.88    0.32
  -9  -3 -16    0.53    0.30
  -3  -9  16    0.24    0.26
   3  -9  16    0.48    0.28
   9  -5  16    2.24    0.43
  -5  -9 -16    2.63    0.48
   9   5  16    2.75    0.43
  -9   5 -16    2.62    0.45
 -16  -9  -5    2.54    0.40
  -9 -16  -5    2.05    0.41
 -16  -5  -9    2.41    0.45
  -5 -16  -9    2.31    0.43
  -9  -5 -16    3.28    0.47
   9 -16   5    2.84    0.48
   9 -16  -5    2.77    0.48
 -16   5  -9    2.06    0.38
  -5  -9  16    2.40    0.41
   5  -9  16    2.21    0.40
   9  -7  16    2.93    0.47
  -9   7 -16    2.21    0.48
 -16  -9  -7    2.53    0.42
  -9 -16  -7    3.07    0.49
  -7 -16  -9    2.81    0.47
  -9  -7 -16    2.90    0.47
  -7  -9 -16    2.91    0.46
   9 -16   7    2.30    0.44
   9 -16  -7    3.40    0.49
   7  -9  16    2.97    0.46
   9  -9  16   -0.12    0.30
  -9   9 -16    0.60    0.40
 -16  -9  -9   -0.04    0.28
  -9 -16  -9    0.04    0.30
  -9  -9 -16   -0.08    0.30
  10   0  16    2.65    0.48
 -10 -16   0    5.57    0.56
 -16   0 -10    7.57    0.65
 -10   0 -16    8.94    0.70
   0 -16 -10    1.09    0.34
  10 -16   0    0.75    0.37
   0 -10  16    3.02    0.43
 -16  -2 -10  298.87    5.42
 -10 -16  -2  296.71    5.33
 -16   2 -10  302.41    5.37
 -10  -2 -16  303.33    5.38
  -2 -16 -10  338.50    5.50
 -10   2 -16  291.29    5.43
  10 -16   2  349.67    5.91
  10 -16  -2  349.04    5.93
  -2 -10  16  305.77    5.23
  10  -2  16  297.93    5.51
  10   2  16  309.35    5.52
 -16  -4 -10  255.84    4.88
 -16 -10  -4  260.52    4.74
 -10  -4 -16  271.74    4.80
 -10 -16  -4  257.36    4.82
 -16   4 -10  260.92    4.75
  -4 -16 -10  260.53    4.84
  -4 -10  16  263.91    4.65
 -10   4 -16  265.69    4.92
  -4 -10 -16  266.35    4.99
  10 -16   4  254.54    4.99
  10 -16  -4  265.06    5.06
  10  -4  16  264.17    4.91
  10   4  16  269.28    4.87
 -10  -6 -16  178.32    3.50
 -16 -10  -6  164.31    3.42
 -10 -16  -6  167.76    3.58
 -16   6 -10  158.80    3.38
  -6 -16 -10  170.88    3.60
  -6 -10 -16  164.65    3.58
 -10   6 -16  154.67    3.54
  10 -16   6  169.74    3.67
  10 -16  -6  162.73    3.64
  -6 -10  16  166.74    3.41
  10  -6  16  173.94    3.60
 -16  -6 -10  157.69    3.55
  10  -8  16    0.77    0.36
 -10   8 -16    0.23    0.34
 -16 -10  -8    0.38    0.28
  -8  10 -16    0.41    0.35
  -8 -16 -10    0.27    0.34
  -8 -10 -16    1.03    0.39
 -16 -10 -10  120.87    2.86
 -10 -16 -10  127.19    3.12
 -10 -10 -16  128.81    3.04
 -10  10 -16  125.12    3.11
  11  -1  16    0.53    0.36
 -11 -16  -1    0.35    0.28
  11 -16   1    0.63    0.36
  11 -16  -1    0.87    0.40
  -1 -16 -11    0.70    0.32
 -16  -1 -11    0.62    0.33
 -16   1 -11    1.55    0.39
 -11  -1 -16    0.36    0.32
 -11   1 -16    0.71    0.34
 -11   3 -16    3.60    0.50
  11  -3  16    3.70    0.54
 -16 -11  -3    2.89    0.45
 -11 -16  -3    3.09    0.47
 -16  -3 -11    2.82    0.48
  -3 -16 -11    3.79    0.52
  11 -16   3    2.40    0.47
  11 -16  -3    3.64    0.54
  -3 -11 -16    2.64    0.49
 -11  -3 -16    3.42    0.49
 -16   3 -11    2.82    0.46
 -11  -5 -16    5.24    0.56
  -5 -16 -11    5.89    0.61
 -11   5 -16    5.24    0.61
 -16 -11  -5    3.68    0.50
 -11 -16  -5    4.01    0.53
 -16  -5 -11    4.32    0.56
  11 -16   5    5.80    0.65
  -5 -11 -16    3.27    0.51
  11 -16  -5    4.41    0.60
  11  -5  16    4.84    0.58
  11   5  16    4.43    0.54
 -16   5 -11    3.87    0.50
  11  -7  16    1.46    0.40
 -11   7 -16    1.53    0.44
 -16 -11  -7    2.10    0.44
 -11 -16  -7    1.31    0.42
  -7 -16 -11    1.44    0.40
 -11  -7 -16    1.08    0.37
  -7 -11 -16    1.69    0.43
  11 -16   7    1.25    0.41
 -16   7 -11    1.19    0.39
  11  -9  16    0.16    0.30
 -11   9 -16    0.09    0.37
  -9  11 -16   -0.05    0.37
 -16 -11  -9   -0.16    0.28
 -11 -16  -9    0.33    0.33
  -9 -16 -11    0.62    0.37
 -11  -9 -16   -0.12    0.30
  -9 -11 -16   -0.05    0.31
 -11  11 -16    0.29    0.33
 -16 -11 -11    0.17    0.32
 -11 -16 -11   -0.05    0.42
 -11 -11 -16   -0.09    0.30
 -16   0 -12 1145.26   16.05
 -12   0 -16 1130.54   16.02
   0 -16 -12 1112.96   15.88
  12 -16   0 1106.73   16.31
 -16  -2 -12  261.25    4.93
 -12 -16  -2  260.75    4.86
 -12  -2 -16  258.04    4.86
 -16   2 -12  255.70    4.85
 -12   2 -16  267.82    5.00
  -2 -16 -12  262.49    4.89
  -2 -12 -16  263.00    5.02
  12 -16   2  252.24    5.07
  12 -16  -2  255.94    5.11
 -16  -4 -12  257.36    4.95
 -16 -12  -4  258.92    4.86
 -12  -4 -16  268.17    4.92
 -12 -16  -4  250.83    4.87
 -16   4 -12  262.44    4.88
  -4 -16 -12  281.10    5.09
 -12   4 -16  249.82    4.91
  -4 -12 -16  254.15    4.97
  12 -16   4  254.84    5.08
  12 -16  -4  257.52    5.11
  12  -4  16  262.20    5.02
 -12  -6 -16  273.88    5.11
 -16 -12  -6  273.21    5.09
 -12 -16  -6  281.70    5.25
 -16   6 -12  280.04    5.14
  -6 -16 -12  285.64    5.26
  -6 -12 -16  276.66    5.28
 -12   6 -16  280.43    5.28
  12 -16   6  266.75    5.24
  12  -6  16  285.74    5.25
 -16  -6 -12  277.01    5.23
 -16 -12  -8  749.06   11.33
 -12 -16  -8  755.43   11.53
  -8 -16 -12  754.90   11.57
 -16   8 -12  735.44   11.30
  -8 -12 -16  772.32   11.63
 -12   8 -16  770.32   11.59
  12  -8  16  770.89   11.41
 -12  -8 -16  758.14   11.31
 -16 -12 -10  365.86    6.33
 -12 -16 -10  370.50    6.55
 -10 -16 -12  358.22    6.49
 -12 -10 -16  358.43    6.27
 -10 -12 -16  363.42    6.42
 -12  10 -16  368.25    6.54
 -10  12 -16  367.10    6.55
 -16 -12 -12   79.82    2.24
 -12 -16 -12   71.52    2.28
 -12 -12 -16   69.12    2.19
 -12  12 -16   67.52    2.21
 -13 -16  -1    0.99    0.35
  -1 -16 -13    1.53    0.40
 -16  -1 -13    1.31    0.41
  -1 -13 -16    1.28    0.40
 -16   1 -13    1.27    0.39
 -13  -1 -16    1.47    0.41
 -13   1 -16    1.00    0.39
   1 -16 -13    1.29    0.39
 -13  -3 -16    3.47    0.53
 -16 -13  -3    3.21    0.50
 -13 -16  -3    3.46    0.51
  13 -16   3    3.69    0.60
  13 -16  -3    4.73    0.62
 -16  -3 -13    4.35    0.56
  -3 -16 -13    2.80    0.48
  -3 -13 -16    3.37    0.54
 -16   3 -13    3.50    0.53
 -13   3 -16    3.90    0.57
  13  -5  16    3.00    0.52
 -16 -13  -5    1.99    0.43
 -13 -16  -5    2.89    0.51
 -16  -5 -13    2.34    0.47
  13 -16   5    2.32    0.51
  -5 -16 -13    2.19    0.47
  13 -16  -5    2.52    0.52
 -13  -5 -16    2.82    0.49
  -5 -13 -16    2.38    0.50
 -16   5 -13    2.55    0.50
 -13   5 -16    2.16    0.49
  13 -16   7    0.43    0.37
 -13   7 -16   -0.05    0.39
  13  -7  16    0.23    0.29
 -16 -13  -7    0.04    0.28
 -13 -16  -7    0.33    0.37
 -16  -7 -13   -0.19    0.32
 -13  -7 -16    0.09    0.29
  -7 -16 -13   -0.05    0.33
  -7 -13 -16    0.25    0.34
 -16   7 -13    0.04    0.30
  13  -9  16    0.86    0.37
 -13   9 -16    2.26    0.49
  -9  13 -16    1.66    0.49
 -16 -13  -9    1.84    0.42
 -13 -16  -9    2.01    0.47
  -9 -16 -13    2.34    0.51
  -9 -13 -16    1.87    0.47
 -16   9 -13    1.36    0.43
 -16 -13 -11    6.34    0.67
 -13 -16 -11    6.11    0.68
 -11 -16 -13    6.19    0.69
 -13 -11 -16    5.82    0.63
 -11 -13 -16    6.80    0.71
 -13  11 -16    5.76    0.63
 -11  13 -16    6.74    0.71
 -13  13 -16    1.15    0.42
 -16 -13 -13    0.09    0.32
 -13 -16 -13    0.86    0.39
 -13 -13 -16   -0.05    0.34
 -16   0 -14    7.56    0.73
 -14   0 -16   10.26    0.82
   0 -16 -14    8.41    0.73
   0 -14 -16    7.56    0.74
  14 -16   0    6.85    0.76
 -16  -2 -14  182.82    3.97
 -14 -16  -2  190.72    3.99
 -14  -2 -16  194.94    4.05
 -16   2 -14  185.96    3.97
 -14   2 -16  186.50    4.00
  -2 -16 -14  184.73    3.97
  -2 -14 -16  188.14    4.04
   2 -16 -14  183.88    3.88
  14 -16   2  179.32    4.12
  14 -16  -2  179.89    4.15
 -16  -4 -14  243.11    4.81
 -14  -4 -16  239.86    4.74
 -16 -14  -4  239.72    4.72
 -14 -16  -4  236.68    4.73
 -16   4 -14  261.50    4.87
 -14   4 -16  243.24    4.84
  -4 -16 -14  244.08    4.83
  -4 -14 -16  238.65    4.83
  14 -16   4  231.78    4.83
  14 -16  -4  231.68    4.88
 -14  -6 -16   90.61    2.52
 -16 -14  -6   85.68    2.46
 -14 -16  -6   89.52    2.52
 -16   6 -14   87.18    2.49
  -6 -16 -14   86.58    2.55
 -14   6 -16   89.97    2.58
  -6 -14 -16   92.71    2.63
  14 -16   6   85.25    2.54
  14 -16  -6   90.14    2.62
  14  -6  16   85.81    2.49
 -16  -6 -14   99.01    2.65
  14  -8  16    1.46    0.42
 -16 -14  -8    1.89    0.45
 -14  -8 -16    2.19    0.48
  -8 -16 -14    1.91    0.44
  -8 -14 -16    1.46    0.42
 -16   8 -14    2.31    0.47
 -14   8 -16    1.26    0.45
 -16 -14 -10  112.50    2.89
 -14 -16 -10  114.64    2.99
 -10 -16 -14  113.60    3.02
 -10 -14 -16  119.46    3.05
 -16  10 -14  116.93    2.91
 -14  10 -16  115.41    3.00
 -10  14 -16  112.53    3.00
 -10  16 -14  116.64    2.93
 -16 -14 -12  174.71    3.80
 -16 -12 -14  169.70    3.66
 -14 -16 -12  171.28    3.87
 -12 -16 -14  176.23    3.92
 -14 -12 -16  175.46    3.74
 -12 -14 -16  173.41    3.86
 -14  12 -16  169.84    3.83
 -12  14 -16  172.98    3.84
 -16 -14 -14   90.63    2.50
 -14 -16 -14   93.30    2.62
 -14 -14 -16   90.29    2.52
 -14  14 -16   94.77    2.56
  -1 -16 -15    2.59    0.51
  -1 -15 -16    2.49    0.52
 -16  -1 -15    2.57    0.54
   1 -15 -16    2.31    0.52
 -15  -1 -16    2.51    0.51
 -16   1 -15    2.99    0.54
 -15   1 -16    2.86    0.54
   1 -16 -15    2.99    0.52
 -15 -16  -3    0.05    0.34
  15 -16   3    0.37    0.42
  15 -16  -3    0.27    0.41
 -16  -3 -15    0.05    0.36
  -3 -16 -15    0.15    0.34
 -15  -3 -16    0.05    0.34
  -3 -15 -16    0.15    0.34
   3 -15 -16    0.05    0.34
 -16   3 -15    0.34    0.38
 -15   3 -16    0.25    0.33
   3 -16 -15    0.13    0.32
 -16   5 -15    1.21    0.43
 -16 -15  -5    1.29    0.42
 -15 -16  -5    1.06    0.41
  15 -16   5    1.38    0.47
  15 -16  -5    1.15    0.44
 -16  -5 -15    0.93    0.42
 -15  -5 -16    0.87    0.42
  -5 -16 -15    0.82    0.37
  -5 -15 -16    0.97    0.39
 -15   5 -16    1.34    0.46
  15  -7  16    1.23    0.42
 -16 -15  -7    1.71    0.45
 -15 -16  -7    1.46    0.43
 -16  -7 -15    1.55    0.46
 -15  -7 -16    1.38    0.45
  -7 -16 -15    1.76    0.46
  -7 -15 -16    1.55    0.47
  15 -16   7    1.92    0.49
 -16   7 -15    1.69    0.46
 -15   7 -16    1.64    0.45
 -16 -15  -9    1.66    0.43
 -15 -16  -9    1.27    0.43
  -9  15 -16    2.17    0.52
  -9 -16 -15    1.20    0.46
  -9 -15 -16    1.53    0.46
 -16   9 -15    1.51    0.44
 -15   9 -16    0.44    0.39
 -11  15 -16    0.19    0.38
 -11  16 -15    0.37    0.36
 -16 -15 -11    0.43    0.40
 -15 -16 -11    0.25    0.36
 -11 -16 -15   -0.05    0.37
 -11 -15 -16    0.10    0.36
 -16  11 -15    0.09    0.33
 -15  11 -16    0.09    0.37
 -13  15 -16    2.18    0.49
 -16 -15 -13    2.26    0.47
 -15 -16 -13    1.78    0.46
 -16 -13 -15    1.75    0.42
 -15 -13 -16    2.10    0.45
 -13 -16 -15    2.31    0.50
 -13 -15 -16    2.28    0.48
 -15  13 -16    1.42    0.39
 -16 -15 -15    0.13    0.29
 -15 -16 -15    0.09    0.35
 -15 -15 -16    0.04    0.30
 -16   0 -16 1454.10   20.40
   0 -16 -16 1439.54   20.34
  -2 -16 -16    0.95    0.40
 -16  -2 -16    0.25    0.39
 -16   2 -16    0.05    0.36
   2 -16 -16    0.52    0.35
 -16 -16  -4  662.00   10.27
 -16   4 -16  657.12   10.31
 -16  -4 -16  654.43   10.30
  -4 -16 -16  664.24   10.38
  16 -16   4  629.37   10.38
  16 -16  -4  643.75   10.42
  16  -6  16    0.74    0.42
 -16 -16  -6    3.00    0.54
 -16  -6 -16    2.98    0.53
  16 -16   6    1.82    0.49
  16 -16  -6    1.51    0.46
  -6 -16 -16   -0.05    0.36
 -16   6 -16    1.79    0.50
 -16 -16  -8 1340.63   18.79
  -8 -16 -16 1305.97   18.87
 -16   8 -16 1322.78   18.79
  16  -8  16 1317.24   18.64
 -10  16 -16    0.98    0.45
 -16 -16 -10   -0.10    0.32
 -10 -16 -16    0.10    0.36
 -16 -16 -12  403.23    6.94
 -12 -16 -16  405.40    7.04
 -16  12 -16  416.03    6.93
 -12  16 -16  397.09    6.87
 -16 -16 -14    1.68    0.42
 -16 -14 -16    1.41    0.39
 -14 -16 -16    0.50    0.36
 -16 -16 -16  765.57   11.34
   0 -17   1    0.04    0.30
   0 -17  -1    0.29    0.30
  -1 -17   0    0.63    0.33
  -1   0  17   -0.14    0.26
   0   1  17   -0.07    0.26
   0  -1  17   -0.03    0.23
   1 -17   0    0.84    0.33
   1   0  17   -0.03    0.22
  -2 -17   1    3.27    0.48
  -1 -17  -2    4.40    0.56
  -2 -17  -1    4.75    0.56
  -1   2  17    3.70    0.44
  -1  -2  17    3.97    0.47
  -2   1  17    3.61    0.45
   2 -17   1    3.19    0.48
   1  -2  17    4.66    0.50
   1   2  17    4.06    0.47
   2  -1  17    3.84    0.47
   2   1  17    3.63    0.45
  -1 -17   2    3.28    0.47
  -2  -1  17    3.35    0.43
   2 -17  -1    4.38    0.53
   1 -17   2    4.23    0.52
   1 -17  -2    3.54    0.49
  -3 -17   0    0.51    0.33
   0 -17   3    0.04    0.29
   0 -17  -3    0.33    0.30
   3 -17   0    0.04    0.30
  -3   0  17    0.03    0.22
   0   3  17    0.16    0.26
   0  -3  17   -0.07    0.26
   3   0  17   -0.11    0.25
   2  -3  17    6.05    0.57
   3   2  17    6.62    0.57
  -2 -17   3    6.05    0.61
  -2 -17  -3    5.24    0.58
  -3 -17   2    5.93    0.61
  -3 -17  -2    5.75    0.60
  -3   2  17    6.31    0.56
  -3  -2  17    5.08    0.53
  -2   3  17    5.46    0.52
  -2  -3  17    5.99    0.57
   2   3  17    5.01    0.52
   3  -2  17    4.76    0.52
   3 -17   2    6.23    0.61
   3 -17  -2    6.87    0.65
   2 -17   3    5.19    0.57
   2 -17  -3    5.86    0.61
   1 -17   4   21.73    1.09
   1 -17  -4   20.86    1.08
  -1 -17   4   20.04    1.06
  -1 -17  -4   20.07    1.06
  -4 -17   1   21.53    1.12
  -4 -17  -1   19.98    1.08
  -4   1  17   21.81    1.00
  -4  -1  17   20.96    1.00
  -1   4  17   18.89    0.90
  -1  -4  17   19.85    0.98
   1  -4  17   23.15    1.05
   1   4  17   20.92    0.96
   4  -1  17   22.52    1.04
   4   1  17   20.39    0.99
   4 -17   1   22.77    1.14
   4 -17  -1   22.59    1.13
 -17  -1  -4   19.22    0.89
  -4   3 -17    0.81    0.32
   4 -17   3    0.46    0.33
   3 -17   4    0.37    0.30
  -4   3  17    0.79    0.30
  -4  -3  17    0.47    0.29
  -3   4  17    1.10    0.33
  -3  -4  17    0.73    0.30
  -3 -17   4    0.25    0.30
   3  -4  17    0.59    0.30
   3   4  17    0.49    0.27
   4  -3  17    0.59    0.33
   4   3  17    0.83    0.32
  -3 -17  -4    0.79    0.33
  -5   0 -17    0.16    0.26
   5 -17   0   -0.13    0.33
 -17   0  -5    0.22    0.26
   0 -17   5   -0.04    0.28
   0 -17  -5    0.28    0.27
  -5   0  17   -0.04    0.25
   0  -5  17    0.36    0.28
   5   0  17    0.15    0.26
   5 -17   2    3.63    0.54
   5 -17  -2    4.08    0.56
  -2 -17  -5    4.67    0.54
  -5   2 -17    4.93    0.51
  -5   2  17    4.83    0.50
  -5  -2  17    4.15    0.49
  -2  -5  17    5.15    0.52
   2  -5  17    4.82    0.53
   5  -2  17    5.17    0.55
   5   2  17    5.81    0.55
  -2 -17   5    3.75    0.50
   2 -17   5    4.33    0.53
 -17  -2  -5    4.85    0.49
   2 -17  -5    5.50    0.58
  -5 -17  -4    4.92    0.49
  -4 -17  -5    5.69    0.52
   5 -17   4    4.05    0.56
  -5   4 -17    5.86    0.58
   4 -17   5    4.20    0.54
  -5   4  17    5.65    0.53
  -5  -4  17    4.57    0.52
   4  -5  17    4.65    0.54
   4   5  17    5.50    0.52
   5  -4  17    4.38    0.52
   5   4  17    6.03    0.55
   5 -17  -4    4.74    0.58
   4 -17  -5    4.87    0.58
  -4  -5  17    5.10    0.53
 -17   1  -6   10.54    0.68
   1 -17   6   11.54    0.80
   1 -17  -6   11.41    0.79
  -1 -17   6   10.41    0.77
  -1 -17  -6   10.99    0.80
  -6  -1 -17   10.16    0.67
  -6   1 -17   11.39    0.73
  -6   1  17   10.90    0.72
  -1  -6  17   11.32    0.75
   6 -17   1    9.94    0.76
   6 -17  -1   10.44    0.79
 -17  -1  -6   10.94    0.71
   1  -6  17   10.76    0.73
   6  -1  17   10.95    0.75
   6   1  17    9.07    0.68
  -6  -1  17   10.17    0.71
  -6 -17  -3    4.85    0.49
  -6   3 -17    4.03    0.49
  -6   3  17    4.00    0.47
   6 -17   3    5.12    0.57
   6 -17  -3    4.71    0.58
   3  -6  17    4.44    0.51
   3 -17   6    3.79    0.54
   3 -17  -6    3.76    0.52
   6  -3  17    4.39    0.52
   6   3  17    6.62    0.59
  -6  -3  17    3.30    0.48
  -3  -6  17    4.35    0.50
 -17  -3  -6    3.95    0.48
  -6 -17  -5   17.50    0.91
  -5 -17  -6   14.38    0.84
  -6   5 -17   15.51    0.90
   6   5  17   14.06    0.82
  -6  -5  17   15.02    0.89
  -5  -6  17   14.01    0.85
   5  -6  17   14.58    0.88
   6 -17   5   15.14    0.95
   6  -5  17   14.45    0.87
   5 -17   6   15.70    0.94
   5 -17  -6   15.08    0.93
   7   0  17   -0.08    0.25
  -7   0 -17    0.11    0.28
  -7 -17   0    0.22    0.27
 -17   0  -7    0.17    0.24
  -7   0  17    0.62    0.32
   0 -17   7    0.04    0.27
   0 -17  -7   -0.12    0.29
   7  -2  17    1.21    0.36
   7   2  17    1.87    0.41
  -7   2 -17    1.64    0.39
  -2 -17  -7    0.95    0.34
   2 -17   7    0.80    0.34
   2 -17  -7    1.46    0.40
  -7 -17  -2    1.25    0.35
 -17  -2  -7    1.16    0.34
 -17   2  -7    1.67    0.36
  -7   2  17    1.48    0.37
  -7  -2  17    0.91    0.34
  -2  -7  17    0.85    0.34
  -7  -2 -17    1.39    0.36
  -2 -17   7    1.30    0.39
   2  -7  17    1.44    0.37
   7 -17   2    0.90    0.39
   7 -17  -2    1.52    0.42
   7  -4  17    2.10    0.41
   7   4  17    2.35    0.42
   7 -17   4    2.78    0.50
   7 -17  -4    3.08    0.49
  -7   4 -17    2.82    0.44
  -7 -17  -4    2.56    0.43
 -17  -4  -7    2.61    0.44
  -4 -17  -7    3.16    0.45
   4 -17   7    2.24    0.43
   4 -17  -7    1.83    0.40
  -7   4  17    2.26    0.39
  -7  -4  17    2.29    0.40
  -4  -7  17    2.90    0.45
   4  -7  17    2.36    0.40
  -7  -6  17    8.72    0.70
  -7 -17  -6    7.26    0.64
  -6 -17  -7    7.00    0.63
  -7  -6 -17    8.22    0.66
  -6  -7 -17    8.13    0.68
  -7   6 -17    8.76    0.73
  -6   7 -17    8.70    0.74
  -6  -7  17    7.68    0.65
   7 -17  -6    8.95    0.75
   6  -7  17    7.86    0.67
   7  -6  17    8.05    0.67
   6 -17   7    8.68    0.75
   6 -17  -7    9.24    0.76
 -17  -1  -8   14.35    0.84
 -17   1  -8   13.08    0.80
  -8 -17   1   14.44    0.81
  -8 -17  -1   14.94    0.83
  -8  -1 -17   15.48    0.87
  -8   1 -17   14.89    0.89
   8  -1  17   13.88    0.87
   8 -17   1   15.42    0.94
  -8  -1  17   14.57    0.87
   8 -17  -1   12.92    0.88
  -1  -8  17   13.98    0.83
   1  -8  17   14.73    0.85
   8   1  17   14.40    0.89
  -8   1  17   14.52    0.85
   8  -3  17    0.73    0.33
   8   3  17    1.30    0.37
  -8   3 -17    0.96    0.34
  -8 -17  -3    1.35    0.35
 -17  -3  -8    0.51    0.29
  -3 -17  -8    0.72    0.30
 -17   3  -8    0.49    0.31
  -8  -3  17    0.52    0.30
  -8  -3 -17    0.35    0.29
  -3  -8  17    0.60    0.29
   8 -17   3    0.49    0.33
   8 -17  -3    0.53    0.37
   3  -8  17    0.63    0.32
   8 -17  -5    3.43    0.53
   8  -5  17    2.63    0.46
   8   5  17    2.75    0.43
  -8   5 -17    2.63    0.46
 -17  -8  -5    2.31    0.39
  -8 -17  -5    2.75    0.46
 -17  -5  -8    2.93    0.46
  -5 -17  -8    3.65    0.51
  -5  -8 -17    3.54    0.50
  -5  -8  17    3.11    0.46
   5  -8  17    2.29    0.43
   8 -17   5    2.48    0.46
  -8 -17  -7   10.76    0.79
  -7 -17  -8   11.91    0.84
  -8  -7 -17   10.99    0.78
  -7  -8 -17   10.44    0.78
  -8   7 -17   11.85    0.86
  -7   8 -17   12.30    0.89
   8 -17   7   10.58    0.80
   8 -17  -7   10.20    0.79
   7  -8  17   10.76    0.77
   8  -7  17   10.38    0.78
   9   0  17   -0.08    0.30
  -9 -17   0   -0.04    0.24
 -17   0  -9    0.11    0.25
   9 -17   0    0.14    0.33
   0  -9  17   -0.14    0.29
  -9   0 -17    0.98    0.35
 -17  -2  -9   26.91    1.21
 -17   2  -9   23.86    1.10
  -9 -17  -2   26.29    1.15
  -9  -2 -17   27.40    1.18
  -2 -17  -9   26.68    1.15
  -9   2 -17   24.85    1.18
   9 -17   2   26.14    1.27
   9 -17  -2   23.69    1.23
  -2  -9  17   25.86    1.13
   2  -9  17   25.35    1.12
   9  -2  17   26.25    1.23
   9   2  17   26.13    1.20
 -17  -9  -4    8.58    0.66
  -9 -17  -4    7.03    0.63
  -9  -4 -17    8.23    0.66
 -17   4  -9    8.02    0.64
  -4 -17  -9    7.49    0.66
  -9   4 -17    8.51    0.72
   9 -17   4    7.54    0.70
  -4  -9  17    8.03    0.65
   4  -9  17    8.75    0.68
   9  -4  17    8.22    0.70
   9   4  17    8.91    0.71
 -17  -4  -9    7.87    0.69
   9  -6  17    4.19    0.53
 -17  -9  -6    5.44    0.55
  -9 -17  -6    4.63    0.56
  -6 -17  -9    4.38    0.55
  -6  -9 -17    5.40    0.61
  -9   6 -17    4.82    0.58
  -6  -9  17    5.03    0.56
   9 -17  -6    5.29    0.62
   6  -9  17    4.28    0.53
   9 -17   6    4.32    0.56
  -9   8 -17    3.32    0.53
  -8   9 -17    3.22    0.52
  -9 -17  -8    3.66    0.54
  -8 -17  -9    3.16    0.52
  -9  -8 -17    1.95    0.43
  -8  -9 -17    2.78    0.50
   8  -9  17    2.71    0.47
   9  -8  17    3.73    0.53
 -17  -1 -10    6.65    0.64
 -10 -17  -1    7.52    0.65
 -17   1 -10    5.97    0.60
 -10  -1 -17    7.01    0.64
 -10   1 -17    7.19    0.66
  -1 -17 -10    7.00    0.62
  10 -17   1    5.71    0.65
  10 -17  -1    6.89    0.69
  -1 -10  17    6.23    0.57
   1 -10  17    6.78    0.60
  10  -1  17    6.44    0.65
  10   1  17    6.60    0.66
 -10   3 -17    1.94    0.46
  10  -3  17    1.65    0.41
  10   3  17    1.92    0.43
 -10 -17  -3    1.71    0.39
 -17  -3 -10    1.24    0.37
  -3 -17 -10    1.66    0.41
 -17   3 -10    2.22    0.43
 -10  -3 -17    1.34    0.38
  10 -17  -3    2.11    0.47
  -3 -10  17    1.67    0.36
  10 -17   3    2.83    0.51
   3 -10  17    1.29    0.34
  10  -5  17    1.93    0.41
  10   5  17    1.49    0.37
 -10   5 -17    1.40    0.41
 -17 -10  -5    1.78    0.39
 -10 -17  -5    1.77    0.42
 -17  -5 -10    1.28    0.41
  -5 -17 -10    2.00    0.42
 -10  -5 -17    2.09    0.43
  -5 -10 -17    1.68    0.42
  -5 -10  17    1.46    0.36
  10 -17   5    1.57    0.43
  10 -17  -5    1.59    0.43
 -17   5 -10    2.24    0.42
 -17 -10  -7   10.94    0.77
 -10 -17  -7   11.44    0.86
  -7 -17 -10   11.42    0.84
  -7 -10 -17   10.11    0.80
 -10   7 -17   12.04    0.88
  10  -7  17   10.01    0.79
 -17 -10  -9    9.19    0.71
 -10 -17  -9   10.28    0.83
  -9 -17 -10    8.21    0.75
 -10  -9 -17   10.96    0.80
  -9 -10 -17   10.08    0.80
 -10   9 -17   10.38    0.85
  -9  10 -17    7.85    0.76
  10  -9  17    9.55    0.74
  11   0  17    0.14    0.34
 -11 -17   0    0.20    0.28
 -17   0 -11   -0.13    0.30
 -11   0 -17    0.35    0.34
 -17  -2 -11   12.44    0.87
 -11 -17  -2   13.62    0.88
 -17   2 -11   12.62    0.86
 -11  -2 -17   13.86    0.89
 -11   2 -17   12.05    0.88
  -2 -17 -11   12.33    0.85
  11 -17   2   13.50    0.96
  11  -2  17   13.79    0.93
  11   2  17   15.24    0.97
 -11   4 -17    0.09    0.31
  11  -4  17    0.14    0.33
  11   4  17   -0.04    0.33
  11 -17   4    0.10    0.36
 -17 -11  -4    0.16    0.27
 -11 -17  -4    0.39    0.31
 -17  -4 -11    0.27    0.35
  -4 -17 -11   -0.04    0.30
  -4 -11 -17   -0.05    0.33
 -11  -4 -17   -0.08    0.31
  11 -17  -4    0.05    0.36
 -17   4 -11   -0.04    0.31
  11  -6  17    0.27    0.32
 -11   6 -17    0.05    0.32
 -17 -11  -6    0.21    0.29
 -11 -17  -6    0.60    0.36
 -17   6 -11   -0.12    0.31
 -17  -6 -11    0.28    0.33
  -6 -17 -11    0.09    0.29
 -11  -6 -17    0.12    0.30
  -6 -11 -17    0.05    0.32
  11 -17   6    0.66    0.38
  11 -17  -6    0.48    0.35
  11  -8  17    0.22    0.29
 -11   8 -17    0.49    0.40
 -17 -11  -8    0.12    0.30
  -8  11 -17    0.15    0.37
 -11 -17  -8    0.29    0.33
  -8 -17 -11    0.38    0.35
  -8 -11 -17    0.24    0.31
 -17 -11 -10   10.28    0.77
 -11 -17 -10   10.05    0.83
 -10 -17 -11   10.14    0.84
 -11 -10 -17   11.80    0.85
 -10 -11 -17   11.88    0.87
 -11  10 -17    9.33    0.83
 -10  11 -17   10.18    0.86
  12  -1  17    0.29    0.35
  12   1  17    0.15    0.34
 -12 -17  -1    0.09    0.30
  -1 -17 -12    0.80    0.38
 -17  -1 -12    0.67    0.35
  12 -17   1    0.75    0.44
  12 -17  -1    0.96    0.44
 -12  -1 -17    0.13    0.32
 -12   1 -17    0.73    0.38
 -17   1 -12    0.94    0.38
  12  -3  17    1.02    0.39
  12   3  17    1.16    0.40
 -12 -17  -3    1.37    0.41
  12 -17   3    2.01    0.49
 -17  -3 -12    1.72    0.44
  -3 -17 -12    1.44    0.40
  -3 -12 -17    1.21    0.42
  12 -17  -3    1.56    0.45
 -12  -3 -17    1.32    0.43
 -17   3 -12    0.96    0.37
 -12   3 -17    1.78    0.45
 -12   5 -17    0.86    0.42
  12  -5  17    1.95    0.48
  12   5  17    1.92    0.45
 -17 -12  -5    1.90    0.43
 -12 -17  -5    1.52    0.42
 -17  -5 -12    1.88    0.46
  -5 -17 -12    1.65    0.43
 -12  -5 -17    1.98    0.44
  -5 -12 -17    1.46    0.43
  12 -17  -5    1.36    0.44
 -17   5 -12    1.34    0.41
  12  -7  17    1.32    0.41
 -12   7 -17    2.07    0.51
 -17 -12  -7    1.46    0.40
 -12 -17  -7    1.21    0.42
  -7 -17 -12    1.26    0.42
 -12  -7 -17    1.84    0.44
  -7 -12 -17    1.43    0.47
  12 -17   7    1.78    0.45
 -17   7 -12    1.40    0.44
  12  -9  17    0.39    0.35
 -12   9 -17    0.85    0.46
  -9  12 -17    0.46    0.42
 -17 -12  -9    0.60    0.36
 -12 -17  -9    1.04    0.42
  -9 -17 -12    0.20    0.35
  -9 -12 -17    0.59    0.40
 -12  11 -17    0.66    0.41
 -11  12 -17    0.35    0.37
 -17 -12 -11    0.51    0.34
 -12 -17 -11    0.31    0.36
 -11 -17 -12    0.40    0.36
 -12 -11 -17    0.23    0.34
 -11 -12 -17    0.52    0.36
  13   0  17    0.10    0.36
   0 -17 -13    0.26    0.32
  13 -17   0   -0.27    0.45
 -13   0 -17    0.23    0.33
 -17   0 -13    0.09    0.35
  13  -2  17    1.32    0.45
  13   2  17    1.29    0.49
 -13 -17  -2    1.68    0.41
  -2 -17 -13    2.00    0.45
 -17  -2 -13    1.51    0.44
  13 -17   2    1.67    0.49
  13 -17  -2    1.63    0.50
  -2 -13 -17    1.28    0.43
 -13  -2 -17    2.03    0.44
 -17   2 -13    1.86    0.45
 -13   2 -17    1.34    0.44
 -17  -4 -13    5.70    0.64
 -17 -13  -4    6.07    0.64
 -13  -4 -17    6.85    0.69
 -13 -17  -4    6.88    0.71
 -17   4 -13    6.56    0.69
 -13   4 -17    7.39    0.74
  -4 -17 -13    7.16    0.72
  -4 -13 -17    6.13    0.69
  13 -17   4    6.55    0.74
  13 -17  -4    6.58    0.73
  13  -4  17    5.41    0.66
  13   4  17    7.21    0.72
  13  -6  17    1.54    0.47
 -17 -13  -6    1.99    0.44
 -13 -17  -6    2.59    0.50
 -17  -6 -13    2.19    0.47
  -6 -17 -13    2.29    0.45
 -13  -6 -17    1.59    0.44
  -6 -13 -17    2.03    0.47
  13 -17  -6    2.39    0.52
 -17   6 -13    2.61    0.48
 -13   6 -17    2.64    0.51
  13  -8  17    0.14    0.32
 -13   8 -17    0.66    0.40
 -17 -13  -8    0.09    0.32
 -13 -17  -8    0.30    0.34
  -8  13 -17    0.05    0.37
 -13  -8 -17    0.18    0.31
  -8 -17 -13    0.46    0.38
  -8 -13 -17    0.62    0.39
 -17   8 -13    0.18    0.33
 -17 -13 -10   13.85    0.91
 -13 -17 -10   15.42    1.02
 -10 -17 -13   13.52    0.97
 -10 -13 -17   13.72    0.96
 -13  10 -17   15.43    1.04
 -10  13 -17   15.22    1.03
 -13  12 -17    1.19    0.43
 -12  13 -17    1.60    0.50
 -17 -13 -12    0.87    0.35
 -13 -17 -12    1.16    0.43
 -12 -17 -13    1.02    0.43
 -13 -12 -17    0.99    0.40
 -12 -13 -17    1.24    0.44
  14  -1  17   -0.05    0.38
  14 -17   1   -0.05    0.34
  14 -17  -1    0.27    0.35
  -1 -17 -14    0.14    0.30
 -17  -1 -14    0.10    0.32
   1 -17 -14   -0.04    0.29
  -1 -14 -17    0.25    0.31
 -17   1 -14    0.19    0.35
   1 -14 -17    0.20    0.36
 -14  -1 -17    0.53    0.34
 -14   1 -17    0.29    0.32
 -17  -3 -14    9.91    0.84
 -14 -17  -3    8.30    0.75
 -14  -3 -17    7.92    0.75
 -17   3 -14    8.83    0.78
 -14   3 -17    9.80    0.85
  -3 -17 -14    9.84    0.82
  -3 -14 -17   10.83    0.88
  14 -17   3    8.44    0.85
  14  -3  17    9.68    0.86
  14  -5  17    0.15    0.33
  14   5  17    0.19    0.33
 -17 -14  -5   -0.14    0.32
 -14 -17  -5    0.10    0.33
 -17  -5 -14   -0.05    0.33
  -5 -17 -14    0.15    0.32
 -14  -5 -17   -0.10    0.33
  -5 -14 -17    0.21    0.36
  14 -17   5    0.42    0.41
  14 -17  -5    0.32    0.38
 -17   5 -14   -0.09    0.30
 -14   5 -17    0.05    0.34
  14  -7  17    1.82    0.47
 -17 -14  -7    1.55    0.41
 -14 -17  -7    1.41    0.41
 -14  -7 -17    1.70    0.45
  -7 -17 -14    1.71    0.48
  -7 -14 -17    1.37    0.46
  14 -17   7    0.98    0.40
 -17   7 -14    1.34    0.42
 -14   7 -17    1.86    0.50
 -17 -14  -9    8.17    0.75
 -14 -17  -9    8.30    0.80
  -9 -17 -14    9.78    0.87
 -17   9 -14    9.57    0.78
  -9 -14 -17    8.48    0.79
 -14   9 -17    7.83    0.78
  -9  14 -17    8.83    0.83
  14  -9  17    8.67    0.75
 -14  11 -17    2.92    0.58
 -11  14 -17    3.83    0.61
 -17 -14 -11    3.80    0.55
 -14 -17 -11    3.98    0.59
 -11 -17 -14    3.24    0.55
 -11 -14 -17    3.96    0.60
 -14  13 -17    1.53    0.45
 -13  14 -17    2.14    0.49
 -17 -14 -13    1.68    0.40
 -14 -17 -13    2.16    0.49
 -13 -17 -14    1.83    0.46
 -14 -13 -17    1.76    0.43
 -13 -14 -17    1.29    0.43
  15 -17   0   -0.72    0.42
   0 -17 -15    0.05    0.33
 -17   0 -15    0.30    0.34
 -15   0 -17    0.05    0.37
   0 -15 -17    0.30    0.36
 -17  -2 -15    5.18    0.64
 -15  -2 -17    5.35    0.63
 -17   2 -15    6.08    0.71
 -15   2 -17    5.43    0.67
  -2 -17 -15    4.44    0.62
   2 -17 -15    4.17    0.58
   2 -15 -17    4.99    0.64
  15  -2  17    6.32    0.73
  -2 -15 -17    4.61    0.63
  15  -4  17    1.92    0.52
 -15 -17  -4    1.62    0.47
 -17  -4 -15    1.76    0.46
  -4 -17 -15    1.17    0.47
 -15  -4 -17    1.37    0.42
  -4 -15 -17    1.94    0.48
 -17   4 -15    2.16    0.50
 -15   4 -17    2.56    0.54
 -17 -15  -6    6.50    0.70
 -15 -17  -6    7.28    0.73
 -17   6 -15    7.24    0.74
 -15   6 -17    8.99    0.80
  -6 -17 -15    6.60    0.70
  -6 -15 -17    6.78    0.75
  15 -17   6    6.17    0.72
  15 -17  -6    7.03    0.78
  15  -6  17    7.96    0.76
 -17  -6 -15    7.26    0.73
 -15  -6 -17    7.39    0.74
  15  -8  17    0.14    0.35
  17  -8  15   -0.18    0.57
 -17 -15  -8    0.67    0.36
 -15 -17  -8    0.15    0.34
  -8  15 -17    0.31    0.37
  -8 -17 -15    0.41    0.36
  -8 -15 -17    0.36    0.35
 -17   8 -15    0.19    0.38
 -15   8 -17    0.45    0.40
 -10  15 -17    0.56    0.40
 -10  17 -15    0.33    0.35
 -17 -15 -10   -0.09    0.31
 -15 -17 -10    0.05    0.33
 -10 -17 -15    0.15    0.37
 -10 -15 -17    0.26    0.35
 -17  10 -15   -0.23    0.33
 -15  10 -17    0.24    0.34
 -12  15 -17    0.38    0.38
 -17 -15 -12    0.49    0.34
 -15 -17 -12    0.63    0.35
 -12 -17 -15    0.15    0.33
 -12 -15 -17    0.43    0.34
 -15  12 -17    0.51    0.35
 -14  15 -17    2.65    0.48
 -17 -15 -14    3.01    0.50
 -15 -17 -14    2.21    0.47
 -14 -17 -15    2.64    0.48
 -15 -14 -17    2.64    0.46
 -14 -15 -17    2.97    0.49
 -15  14 -17    2.50    0.47
 -17  -1 -16    6.39    0.70
 -16  -1 -17    6.44    0.71
 -17   1 -16    7.23    0.73
  -1 -17 -16    5.53    0.70
  -1 -16 -17    6.48    0.70
   1 -17 -16    5.49    0.65
   1 -16 -17    6.04    0.67
  16 -17   1    6.00    0.72
  16 -17  -1    5.83    0.73
 -16   1 -17    5.24    0.66
  16  -3  17    0.05    0.34
 -17  -3 -16    0.05    0.33
  -3 -17 -16   -0.21    0.40
 -16  -3 -17    0.10    0.35
  -3 -16 -17    0.21    0.35
   3 -16 -17    0.19    0.33
 -17   3 -16    0.05    0.35
 -16   3 -17    0.25    0.36
  16 -17   5    0.05    0.35
  16  -5  17    0.20    0.36
 -16 -17  -5    0.10    0.32
  17 -16  -5    0.37    0.39
 -17  -5 -16    0.80    0.39
 -16  -5 -17    0.15    0.36
  -5 -17 -16   -0.05    0.34
  -5 -16 -17    0.05    0.36
  16 -17  -5   -0.05    0.40
 -17   5 -16    0.35    0.37
 -16   5 -17    0.05    0.36
  16  -7  17    1.58    0.49
  17  -7  16    1.14    0.43
 -17 -16  -7    0.93    0.40
 -16 -17  -7    1.99    0.48
 -16  -7 -17    1.15    0.41
  -7 -17 -16    1.70    0.46
  -7 -16 -17    1.54    0.48
 -17   7 -16    1.56    0.48
 -16   7 -17    1.75    0.46
 -17 -16  -9    0.53    0.37
  -9  16 -17    0.75    0.40
 -16 -17  -9    1.26    0.42
  -9  17 -16    1.26    0.46
  -9 -17 -16    0.67    0.39
  -9 -16 -17    1.18    0.43
 -17   9 -16    0.37    0.34
 -16   9 -17    0.59    0.41
 -11  16 -17    0.89    0.37
 -11  17 -16    1.21    0.43
 -17 -16 -11    0.83    0.38
 -16 -17 -11    0.61    0.35
 -11 -17 -16    0.84    0.39
 -11 -16 -17    0.84    0.40
 -17  11 -16    1.50    0.40
 -16  11 -17    0.65    0.37
 -13  16 -17    0.77    0.37
 -17 -16 -13    0.77    0.37
 -16 -17 -13    0.63    0.39
 -13 -17 -16    0.70    0.34
 -13 -16 -17    0.50    0.33
 -16  13 -17    0.47    0.33
 -17 -16 -15   -0.35    0.47
 -16 -17 -15    0.41    0.30
 -16 -15 -17    0.15    0.29
 -15 -17 -16    0.46    0.32
 -15 -16 -17    0.36    0.31
  17 -17   0    0.94    0.46
   0 -17 -17    0.50    0.35
 -17   0 -17    0.71    0.36
  17 -17   2    0.33    0.37
  17 -17  -2    0.11    0.38
 -17  -2 -17    0.45    0.36
  -2 -17 -17   -0.05    0.33
   2 -17 -17    0.29    0.33
 -17   2 -17    0.46    0.39
  17  -4  17   -0.16    0.43
 -17  -4 -17    0.05    0.34
  -4 -17 -17   -0.16    0.39
  17 -17   4    0.43    0.34
  17 -17  -4    1.08    0.42
 -17   4 -17    0.05    0.34
 -17 -17  -6   16.23    1.05
 -17   6 -17   16.64    1.06
  -6 -17 -17   17.00    1.08
  17 -17   6   15.31    1.06
  17  -6  17   14.94    1.01
 -17  -6 -17   15.99    1.04
  17  -8  17   -0.04    0.32
 -17 -17  -8    0.05    0.30
  -8  17 -17    0.15    0.37
  -8 -17 -17    0.10    0.33
 -17   8 -17    0.19    0.33
 -10  17 -17    1.96    0.45
 -17 -17 -10    1.82    0.44
 -10 -17 -17    1.58    0.42
 -17  10 -17    1.82    0.43
 -12  17 -17    0.25    0.31
 -17 -17 -12    0.04    0.28
 -12 -17 -17    0.05    0.31
 -17  12 -17   -0.13    0.29
 -17 -17 -14    0.28    0.27
 -14 -17 -17    0.21    0.29
 -17 -17 -16    0.07    0.23
 -16 -17 -17    0.10    0.26
   0 -18   0    0.04    0.29
   0   0  18    0.30    0.27
   1 -18   1   -0.18    0.29
   1 -18  -1    0.27    0.28
  -1 -18  -1    0.23    0.28
  -1   1  18    0.07    0.25
  -1  -1  18    0.04    0.26
   1  -1  18    0.04    0.27
   1   1  18    0.63    0.29
   0 -18   2  452.88    7.62
   0 -18  -2  464.86    7.66
  -2 -18   0  450.39    7.69
  -2   0  18  465.26    7.37
   0   2  18  464.02    7.34
   0  -2  18  466.45    7.40
   2   0  18  476.75    7.42
   2 -18   0  457.22    7.66
  -2 -18  -2    0.32    0.30
  -2 -18   2    0.74    0.38
   2 -18   2   -0.05    0.29
   2 -18  -2    0.05    0.30
  -2   2  18    0.25    0.27
  -2  -2  18    1.64    0.37
   2  -2  18    1.05    0.34
   2   2  18    1.76    0.38
   3 -18   1    0.14    0.31
   3 -18  -1    0.18    0.31
  -3 -18   1    0.18    0.31
  -3 -18  -1   -0.05    0.31
  -3   1  18    0.07    0.26
  -3  -1  18    0.23    0.30
  -1   3  18    0.14    0.29
  -1  -3  18    0.08    0.30
   1   3  18   -0.18    0.32
   1  -3  18    0.16    0.29
   3  -1  18    0.15    0.29
   3   1  18   -0.08    0.27
  -1 -18   3    0.41    0.34
  -1 -18  -3    0.45    0.34
  -3   3 -18    1.92    0.42
  -3 -18   3    2.33    0.47
  -3 -18  -3    3.10    0.55
   3 -18   3    3.21    0.51
   3 -18  -3    2.17    0.46
  -3   3  18    2.21    0.43
  -3  -3  18    2.11    0.43
   3  -3  18    2.66    0.47
   3   3  18    2.13    0.40
   0 -18   4  315.38    5.83
   0 -18  -4  324.97    5.85
   0   4  18  330.84    5.51
  -4   0  18  328.79    5.63
   0  -4  18  335.32    5.69
   4   0  18  324.65    5.64
   4 -18   0  324.48    5.90
   2 -18  -4 1223.96   17.73
  -2 -18   4 1250.20   17.78
  -2 -18  -4 1246.73   17.77
  -4   2 -18 1288.43   17.32
  -4   2  18 1220.07   17.37
  -4  -2  18 1263.64   17.53
  -2   4  18 1300.29   17.35
  -2  -4  18 1259.09   17.51
   2  -4  18 1308.32   17.60
   2   4  18 1249.03   17.36
   4   2  18 1232.42   17.44
   4 -18   2 1231.34   17.79
   4 -18  -2 1226.70   17.80
   4  -2  18 1273.61   17.56
   2 -18   4 1232.90   17.77
  -4   4 -18    0.48    0.33
   4 -18   4    3.06    0.51
  -4   4  18    2.37    0.41
  -4  -4  18    1.68    0.39
   4  -4  18    3.29    0.49
   4   4  18    1.63    0.38
   1 -18   5   32.94    1.41
   1 -18  -5   31.92    1.38
  -1 -18   5   31.50    1.40
  -1 -18  -5   33.22    1.42
  -5   1 -18   32.63    1.26
  -5   1  18   34.92    1.33
  -5  -1  18   34.61    1.35
  -1  -5  18   32.47    1.32
   1  -5  18   33.31    1.33
   5  -1  18   31.47    1.32
   5   1  18   32.88    1.32
   5 -18   1   34.80    1.49
   5 -18  -1   34.82    1.49
 -18  -1  -5   35.93    1.28
  -5   3 -18    5.28    0.56
  -5   3  18    5.43    0.56
  -5  -3  18    6.91    0.66
  -3  -5  18    6.77    0.63
   3  -5  18    7.16    0.64
   5  -3  18    6.25    0.64
   5   3  18    6.63    0.62
   5 -18   3    5.05    0.61
   5 -18  -3    5.80    0.64
   3 -18   5    5.07    0.61
  -5 -18  -5    4.69    0.52
  -5   5 -18    3.82    0.55
   5 -18   5    4.64    0.61
   5 -18  -5    3.84    0.56
   5   5  18    4.63    0.54
  -5  -5  18    4.52    0.55
   5  -5  18    3.55    0.51
 -18   0  -6  267.13    4.85
   0 -18   6  306.60    5.37
   0 -18  -6  297.31    5.31
  -6   0 -18  275.12    4.94
   0  -6  18  295.31    5.14
   6 -18   0  271.76    5.29
   6   0  18  289.71    5.15
  -6   0  18  272.11    5.03
   2 -18   6    9.11    0.76
   2 -18  -6   11.43    0.84
  -6   2 -18   11.24    0.77
  -2 -18   6   12.40    0.86
  -2 -18  -6   12.93    0.88
  -6   2  18   17.65    0.93
  -6  -2  18    9.45    0.73
  -2  -6  18    9.77    0.74
   2  -6  18   10.01    0.75
   6  -2  18   10.79    0.78
   6   2  18    9.39    0.72
   6 -18   2   19.38    1.08
   6 -18  -2   22.23    1.16
 -18  -2  -6   10.62    0.73
  -6 -18  -4 1134.21   15.70
  -6   4  18 1114.81   15.67
  -6   4 -18 1131.40   15.89
  -4  -6  18 1116.77   15.86
  -6  -4  18 1130.68   15.91
   4  -6  18 1135.93   15.88
   6  -4  18 1109.41   15.90
   6   4  18 1103.04   15.74
   6 -18   4 1117.03   16.16
   6 -18  -4 1125.43   16.16
   4 -18   6 1109.46   16.02
   6 -18   6    0.09    0.31
   6 -18  -6    0.87    0.40
  -6 -18  -6    1.01    0.35
  -6  -6 -18    0.52    0.31
  -6  -6  18    1.20    0.37
   6  -6  18    0.30    0.29
 -18  -1  -7   10.90    0.74
 -18   1  -7   10.52    0.71
  -7   1  18   11.74    0.79
   1 -18   7   10.31    0.79
   1 -18  -7   11.23    0.81
  -7  -1 -18   11.47    0.76
  -7   1 -18   11.72    0.78
  -1 -18   7   10.20    0.80
  -1 -18  -7   11.11    0.80
  -7  -1  18   11.85    0.81
  -1  -7  18   12.34    0.81
   1  -7  18   11.87    0.80
   7 -18   1   11.27    0.88
   7 -18  -1   12.02    0.90
   7  -1  18   12.57    0.84
   7   1  18   11.51    0.81
   3 -18   7    4.95    0.59
   3 -18  -7    4.90    0.59
  -7   3 -18    5.13    0.58
  -7 -18  -3    4.39    0.54
  -7   3  18    5.29    0.56
  -7  -3  18    4.86    0.56
  -3  -7  18    5.13    0.57
   3  -7  18    5.33    0.58
   7 -18   3    5.78    0.65
   7 -18  -3    5.19    0.62
   7  -3  18    5.68    0.61
   7   3  18    5.40    0.58
 -18  -3  -7    4.79    0.54
   7 -18  -5    0.97    0.38
  -7   5 -18    0.04    0.30
  -7 -18  -5   -0.04    0.29
  -5 -18  -7    0.20    0.29
   5 -18   7    0.17    0.31
   5 -18  -7    0.17    0.32
  -7  -5  18   -0.21    0.32
  -5  -7  18   -0.08    0.30
   5  -7  18   -0.04    0.30
   7  -5  18    0.17    0.31
   7   5  18    0.08    0.27
  -7   7 -18    2.49    0.47
   7 -18  -7    2.09    0.45
  -7 -18  -7    2.01    0.43
  -7  -7 -18    2.09    0.42
  -7  -7  18    1.55    0.40
   7  -7  18    1.89    0.41
   8   0  18    3.38    0.50
   8 -18   0    1.24    0.42
  -8 -18   0    1.47    0.35
 -18   0  -8    1.51    0.35
  -8   0  18    2.22    0.44
   0  -8  18    2.07    0.40
 -18  -2  -8  151.18    3.31
 -18   2  -8  148.84    3.17
  -8 -18  -2  152.98    3.23
  -8  -2 -18  151.31    3.24
  -8   2 -18  150.51    3.33
  -8  -2  18  147.45    3.33
  -2  -8  18  150.63    3.28
   8 -18   2  150.47    3.55
   8 -18  -2  151.55    3.54
   8  -2  18  149.47    3.38
   8   2  18  154.52    3.36
   2  -8  18  156.08    3.31
  -8 -18  -4  304.14    5.39
  -4 -18  -8  305.13    5.38
  -8   4 -18  300.49    5.51
  -4  -8  18  306.71    5.40
   8 -18   4  297.73    5.66
   4  -8  18  293.82    5.37
   8  -4  18  309.93    5.55
   8   4  18  307.78    5.41
 -18  -4  -8  305.49    5.45
  -8 -18  -6  193.89    3.89
  -6 -18  -8  187.57    3.84
  -6  -8 -18  176.30    3.80
  -8   6 -18  176.65    3.85
  -6   8 -18  176.84    3.88
  -6  -8  18  178.89    3.75
   6  -8  18  185.02    3.79
   8 -18   6  178.45    3.92
   8  -6  18  177.91    3.82
  -8   8 -18    0.63    0.38
  -8 -18  -8    0.58    0.38
   8  -8  18    0.17    0.30
 -18  -1  -9   11.86    0.82
 -18   1  -9    9.94    0.74
  -9 -18  -1    9.78    0.72
   9 -18   1    7.42    0.73
  -9  -1 -18    9.81    0.74
  -9   1 -18    9.34    0.74
   9 -18  -1    8.72    0.79
  -1  -9  18    9.33    0.72
   1  -9  18    9.23    0.71
   9  -1  18    9.20    0.76
   9   1  18    9.76    0.77
   9  -3  18    4.35    0.58
   9   3  18    4.42    0.56
  -9   3 -18    4.32    0.57
 -18   3  -9    4.32    0.51
  -9  -3 -18    5.21    0.58
  -3 -18  -9    5.12    0.56
  -9 -18  -3    4.13    0.52
   9 -18   3    5.03    0.64
  -3  -9  18    4.52    0.53
   3  -9  18    4.61    0.54
   9 -18  -3    4.78    0.63
 -18  -3  -9    4.83    0.59
   9  -5  18   -0.04    0.31
   9   5  18    0.36    0.32
   9 -18   5    0.15    0.31
   9 -18  -5   -0.10    0.32
  -9   5 -18    0.23    0.33
  -9 -18  -5    0.26    0.31
  -5 -18  -9   -0.09    0.35
  -5  -9 -18    0.23    0.32
  -5  -9  18    0.20    0.29
   5  -9  18   -0.04    0.30
   9 -18   7    4.04    0.58
  -9   7 -18    5.65    0.63
  -7   9 -18    4.25    0.59
  -9 -18  -7    3.65    0.54
  -7 -18  -9    4.43    0.57
  -7  -9 -18    3.33    0.51
   7  -9  18    4.51    0.56
   9  -7  18    4.39    0.57
  -9 -18  -9    8.28    0.75
  -9  -9 -18    7.67    0.70
  -9   9 -18    7.39    0.74
   9  -9  18    8.30    0.72
 -18   0 -10   75.33    2.21
 -10 -18   0   81.49    2.23
 -10   0 -18   85.74    2.34
  10 -18   0   73.86    2.37
   0 -10  18   82.41    2.19
  10   0  18   82.47    2.38
 -18  -2 -10    4.55    0.58
  10  -2  18    3.11    0.51
  10   2  18    4.25    0.57
 -10 -18  -2    4.55    0.56
  -2 -18 -10    4.65    0.55
 -18   2 -10    2.84    0.47
 -10  -2 -18    3.12    0.51
  -2 -10  18    4.20    0.51
  10 -18   2    3.98    0.59
  10 -18  -2    4.06    0.57
   2 -10  18    3.53    0.48
 -10   2 -18    3.47    0.53
 -10 -18  -4  829.43   12.11
 -10  -4 -18  804.78   11.98
 -18   4 -10  816.94   11.97
  -4 -18 -10  823.71   12.08
 -10   4 -18  825.60   12.27
  10 -18  -4  769.33   12.28
  -4 -10 -18  808.74   12.26
  10 -18   4  777.40   12.26
  -4 -10  18  829.25   11.96
   4 -10  18  831.88   11.98
  10  -4  18  824.47   12.24
  10   4  18  784.76   12.03
 -18  -4 -10  847.17   12.24
 -18 -10  -6   11.70    0.79
 -10 -18  -6   14.82    0.95
  -6 -18 -10   13.47    0.90
  -6 -10 -18    5.73    0.64
 -10   6 -18    6.92    0.72
  10 -18  -6    5.73    0.68
  10  -6  18    7.59    0.72
 -10 -18  -8  213.71    4.36
  -8 -18 -10  206.74    4.32
  -8 -10 -18  210.11    4.32
 -10   8 -18  202.41    4.34
  -8  10 -18  210.17    4.44
  10  -8  18  206.24    4.24
 -10  10 -18    0.56    0.38
 -10 -10 -18    0.18    0.33
  11  -1  18    0.49    0.36
  11   1  18    0.82    0.39
 -11 -18  -1    1.24    0.37
 -18  -1 -11    1.31    0.40
 -18   1 -11    1.32    0.42
  11 -18  -1    1.00    0.42
 -11  -1 -18    1.50    0.42
 -11   1 -18    0.78    0.40
  11 -18   1    1.73    0.46
 -18  -3 -11    4.31    0.58
  11  -3  18    3.04    0.54
  11   3  18    3.93    0.56
 -11 -18  -3    3.12    0.52
  -3 -18 -11    3.76    0.53
 -18   3 -11    3.52    0.52
  -3 -11 -18    4.56    0.60
 -11  -3 -18    4.06    0.55
  11 -18   3    3.02    0.56
  11 -18  -3    2.72    0.55
 -11   3 -18    3.18    0.55
  11  -5  18    0.62    0.39
  11   5  18    0.56    0.35
 -11   5 -18    0.74    0.40
 -11 -18  -5    0.50    0.36
 -18  -5 -11    0.38    0.35
  -5 -18 -11    0.55    0.36
 -11  -5 -18    0.63    0.34
  -5 -11 -18    0.53    0.38
 -18   5 -11    0.41    0.32
  11  -7  18    3.99    0.59
  11 -18   7    3.31    0.55
 -11   7 -18    3.24    0.55
 -18 -11  -7    4.15    0.54
  -7  11 -18    3.46    0.57
 -11 -18  -7    3.24    0.56
  -7 -18 -11    3.98    0.59
  -7 -11 -18    2.44    0.50
 -18 -11  -9    7.89    0.69
 -11 -18  -9    8.21    0.79
  -9 -18 -11    6.45    0.70
  -9 -11 -18    9.04    0.79
 -11   9 -18    9.07    0.83
  -9  11 -18    9.34    0.84
  11  -9  18    7.22    0.70
 -11  11 -18    2.94    0.58
 -11 -18 -11    2.86    0.57
 -11 -11 -18    3.30    0.55
 -18   0 -12  321.26    5.88
 -12   0 -18  329.36    5.96
  12 -18   0  329.43    6.22
  12   0  18  336.00    6.12
 -18  -2 -12  804.04   11.99
 -12 -18  -2  769.78   11.80
 -18   2 -12  775.15   11.83
 -12  -2 -18  814.24   11.89
 -12   2 -18  779.77   11.94
  -2 -18 -12  772.79   11.78
  -2 -12 -18  789.00   12.07
  12 -18   2  781.04   12.20
  12 -18  -2  797.00   12.24
  12  -2  18  780.75   12.07
  12   2  18  802.33   12.04
  12  -4  18    0.30    0.37
  12   4  18    0.84    0.39
 -12 -18  -4    0.37    0.34
 -18  -4 -12    0.43    0.37
  -4 -18 -12    1.82    0.44
 -12  -4 -18    0.36    0.36
  -4 -12 -18    0.85    0.41
 -18   4 -12    1.25    0.43
  12 -18   4    3.84    0.59
  12 -18  -4    1.89    0.49
 -12   4 -18    3.82    0.57
 -12  -6 -18  700.48   10.47
 -18 -12  -6  673.92   10.38
 -12 -18  -6  696.25   10.61
 -18   6 -12  671.85   10.38
  -6 -18 -12  694.65   10.63
  -6 -12 -18  708.39   10.74
 -12   6 -18  690.38   10.70
  12 -18   6  631.45   10.45
  12 -18  -6  653.04   10.54
  12  -6  18  694.19   10.60
 -18 -12  -8  196.46    4.05
 -12 -18  -8  193.95    4.23
  -8 -18 -12  205.79    4.30
  -8 -12 -18  196.26    4.27
 -12   8 -18  192.21    4.24
  -8  12 -18  203.96    4.36
  12  -8  18  196.67    4.13
 -18 -12 -10  607.07    9.38
 -12 -18 -10  591.78    9.67
 -10 -18 -12  599.00    9.72
 -10 -12 -18  603.40    9.61
 -12  10 -18  622.41    9.82
 -10  12 -18  604.81    9.77
 -12  12 -18    0.05    0.38
 -12 -12 -18    0.93    0.40
  13  -1  18    0.21    0.40
  13   1  18    0.77    0.42
  -1 -18 -13    0.14    0.32
 -18  -1 -13    0.39    0.33
 -18   1 -13    0.24    0.32
  -1 -13 -18    0.05    0.34
  13 -18   1    0.39    0.39
  13 -18  -1    0.28    0.37
 -13  -1 -18    0.28    0.34
 -13   1 -18    0.97    0.41
  13  -3  18    1.91    0.48
  13   3  18    2.56    0.53
 -13 -18  -3    2.33    0.48
 -18  -3 -13    2.72    0.53
  -3 -18 -13    2.31    0.48
 -13  -3 -18    1.91    0.47
 -18   3 -13    2.84    0.53
  13 -18   3    2.66    0.56
 -13   3 -18    2.10    0.48
  -3 -13 -18    2.08    0.50
  13  -5  18    3.20    0.55
  13   5  18    3.47    0.55
 -13 -18  -5    2.75    0.52
 -18  -5 -13    3.22    0.55
  -5 -18 -13    3.79    0.58
 -13  -5 -18    3.56    0.56
  -5 -13 -18    3.04    0.56
 -18   5 -13    2.28    0.47
  13 -18   5    3.25    0.61
  13 -18  -5    2.94    0.58
 -13   5 -18    3.45    0.57
 -18 -13  -7    9.82    0.79
 -13 -18  -7    9.45    0.82
 -18   7 -13    8.72    0.76
  -7 -18 -13   10.47    0.87
  -7 -13 -18    9.21    0.82
 -13   7 -18    9.05    0.82
  13  -7  18    9.33    0.80
 -13  -7 -18    9.98    0.79
 -18 -13  -9   16.13    0.99
 -13 -18  -9   17.19    1.08
  -9 -18 -13   15.97    1.06
  -9 -13 -18   16.45    1.06
 -13   9 -18   15.57    1.06
  -9  13 -18   14.96    1.06
  13  -9  18   15.17    0.98
 -18 -13 -11    4.98    0.59
 -13 -18 -11    6.11    0.72
 -11 -18 -13    6.08    0.68
 -11 -13 -18    5.77    0.68
 -13  11 -18    5.55    0.69
 -11  13 -18    5.65    0.69
 -13 -18 -13    6.83    0.74
 -13 -13 -18    6.06    0.64
 -13  13 -18    7.92    0.75
 -18   0 -14   87.75    2.52
 -14   0 -18   81.87    2.46
   0 -18 -14   84.43    2.41
   0 -14 -18   86.29    2.56
  14 -18   0   86.40    2.66
  14   0  18   88.29    2.62
 -18  -2 -14    8.71    0.81
 -14  -2 -18    9.50    0.82
 -18   2 -14    7.78    0.76
 -14   2 -18    6.06    0.68
  -2 -18 -14    6.30    0.68
  -2 -14 -18    6.14    0.70
  14 -18   2    6.38    0.75
  14 -18  -2    6.85    0.75
  14  -2  18    7.18    0.78
  14   2  18    8.11    0.78
 -14  -4 -18  625.55    9.99
 -14 -18  -4  649.17   10.12
 -18   4 -14  636.49   10.05
 -14   4 -18  634.15   10.14
  -4 -18 -14  642.75   10.07
  -4 -14 -18  635.92   10.16
  14 -18   4  628.80   10.24
  14 -18  -4  645.21   10.31
  14  -4  18  652.02   10.23
  14   4  18  619.73   10.01
 -18  -4 -14  641.14   10.14
  14  -6  18    3.41    0.57
  -6 -14 -18    5.25    0.67
 -14 -18  -6    4.26    0.62
 -14  -6 -18    3.55    0.57
  -6 -18 -14    3.86    0.58
 -18   6 -14    4.67    0.63
  14 -18   6    5.55    0.67
  14 -18  -6    4.15    0.63
 -14   6 -18    4.35    0.62
 -18 -14  -8  125.93    3.06
 -14 -18  -8  124.83    3.15
 -18   8 -14  119.98    2.99
  -8 -18 -14  135.94    3.30
  -8 -14 -18  121.91    3.15
 -14   8 -18  124.03    3.18
  -8  14 -18  120.89    3.18
  14  -8  18  121.65    3.04
 -10  14 -18    0.72    0.39
 -18 -14 -10    1.65    0.45
 -14 -18 -10    1.79    0.48
 -10 -18 -14    0.81    0.38
 -10 -14 -18    0.60    0.34
 -14  10 -18    1.04    0.42
 -18 -14 -12  357.61    6.07
 -14 -18 -12  342.07    6.26
 -12 -18 -14  349.19    6.31
 -12 -14 -18  349.90    6.21
 -14  12 -18  337.90    6.21
 -12  14 -18  342.23    6.26
 -14  14 -18    0.40    0.33
 -14 -18 -14    1.08    0.39
 -14 -14 -18    0.30    0.28
  15  -1  18    3.02    0.54
  15   1  18    2.23    0.52
  -1 -18 -15    2.42    0.49
 -18  -1 -15    1.16    0.44
 -18   1 -15    1.66    0.46
  -1 -15 -18    2.28    0.48
 -15  -1 -18    1.75    0.44
   1 -15 -18    2.11    0.49
  15 -18   1    1.29    0.42
  15 -18  -1    1.80    0.49
 -15   1 -18    1.80    0.44
 -18  -3 -15    6.38    0.71
  15  -3  18    5.58    0.69
 -15  -3 -18    5.67    0.69
  15   3  18    5.54    0.68
 -18   3 -15    6.55    0.70
 -15   3 -18    5.81    0.71
  -3 -18 -15    5.84    0.69
  -3 -15 -18    6.56    0.74
   3 -15 -18    6.62    0.71
  15  -5  18    3.84    0.58
  15   5  18    3.40    0.56
 -15 -18  -5    3.90    0.58
 -18  -5 -15    2.83    0.54
 -15  -5 -18    2.57    0.50
  -5 -18 -15    2.32    0.53
  -5 -15 -18    2.57    0.53
 -18   5 -15    2.98    0.54
 -15   5 -18    3.12    0.57
  15  -7  18    3.86    0.58
 -18 -15  -7    3.78    0.56
 -15 -18  -7    3.55    0.56
 -15  -7 -18    3.91    0.59
  -7 -18 -15    4.22    0.59
  -7 -15 -18    2.87    0.55
 -18   7 -15    3.87    0.56
  15 -18   7    3.74    0.56
 -15   7 -18    3.68    0.61
  -9  15 -18    0.21    0.37
 -18 -15  -9    0.46    0.34
 -15 -18  -9    0.05    0.30
  -9  18 -15    0.14    0.31
  -9 -18 -15    0.31    0.33
  -9 -15 -18    0.45    0.35
 -18   9 -15    0.22    0.32
 -15   9 -18   -0.05    0.36
 -11  15 -18   -0.05    0.37
 -18 -15 -11    0.04    0.29
 -15 -18 -11   -0.10    0.38
 -11 -18 -15    0.20    0.36
 -11 -15 -18    0.05    0.33
 -15  11 -18    0.10    0.38
 -13  15 -18    1.79    0.45
 -18 -15 -13    2.80    0.47
 -15 -18 -13    2.65    0.49
 -13 -18 -15    1.97    0.44
 -13 -15 -18    1.71    0.41
 -15  13 -18    2.66    0.50
 -15 -18 -15    0.42    0.31
 -15 -15 -18    0.27    0.31
 -18   0 -16   10.66    0.87
 -16   0 -18    7.67    0.78
   0 -18 -16    9.62    0.82
   0 -16 -18   10.79    0.88
  16   0  18    9.83    0.87
 -18  -2 -16   95.77    2.73
 -16  -2 -18   91.90    2.63
 -18   2 -16   91.07    2.64
 -16   2 -18   92.35    2.69
  -2 -18 -16   96.29    2.72
  -2 -16 -18   98.46    2.74
   2 -16 -18   93.72    2.65
  16 -18   2   96.95    2.85
  16 -18  -2   96.37    2.83
  16  -2  18   93.79    2.74
  16   2  18   87.28    2.64
 -16  -4 -18  200.30    4.31
 -18   4 -16  203.36    4.33
 -16   4 -18  203.70    4.35
  -4 -18 -16  207.77    4.37
  -4 -16 -18  207.66    4.43
   4 -16 -18  210.39    4.31
  18 -16   4  202.60    4.45
  18 -16  -4  201.58    4.42
  16 -18   4  191.03    4.36
  16  -4  18  198.98    4.37
  16   4  18  198.56    4.27
 -18  -4 -16  201.44    4.31
 -16 -18  -6   76.96    2.35
 -18   6 -16   74.67    2.30
 -16   6 -18   73.55    2.33
  -6 -18 -16   76.63    2.36
  -6 -16 -18   72.52    2.34
  18 -16   6   70.77    2.30
  16  -6  18   76.61    2.33
  18  -6  16   70.78    2.25
 -16  -6 -18   78.53    2.34
  16  -8  18    1.57    0.43
  18  -8  16    1.82    0.45
 -18 -16  -8    2.39    0.47
 -16 -18  -8    2.11    0.47
  -8  16 -18    1.52    0.46
  -8 -18 -16    2.24    0.50
  -8 -16 -18    1.71    0.45
 -18   8 -16    2.22    0.48
 -16   8 -18    1.93    0.46
 -18 -16 -10   80.55    2.32
 -16 -18 -10   75.86    2.31
 -18  10 -16   78.99    2.25
 -10 -18 -16   76.54    2.37
 -10 -16 -18   73.43    2.30
 -16  10 -18   79.54    2.35
 -10  16 -18   78.25    2.35
 -10  18 -16   76.54    2.25
 -18 -16 -12   62.72    1.97
 -16 -18 -12   65.02    2.05
 -12 -18 -16   64.67    2.09
 -12 -16 -18   61.60    2.01
 -16  12 -18   66.99    2.05
 -12  16 -18   66.75    2.06
 -18 -16 -14   43.47    1.52
 -16 -18 -14   41.85    1.54
 -14 -18 -16   45.90    1.63
 -14 -16 -18   39.99    1.51
 -16 -18 -16    0.85    0.30
 -17  -1 -18    6.47    0.71
  17  -1  18    4.57    0.65
  17   1  18    5.35    0.68
 -18   1 -17    5.58    0.66
  -1 -17 -18    6.23    0.70
  18 -17   1    4.58    0.65
  18 -17  -1    3.96    0.62
 -18  -1 -17    5.22    0.65
  -1 -18 -17    4.68    0.62
   1 -18 -17    4.78    0.62
   1 -17 -18    3.82    0.58
  17 -18   1    4.83    0.67
  17 -18  -1    3.64    0.61
 -17   1 -18    4.88    0.64
 -18  -3 -17    8.01    0.80
 -17  -3 -18    9.87    0.84
 -18   3 -17    6.81    0.73
 -17   3 -18    7.89    0.78
  -3 -18 -17    8.13    0.78
  -3 -17 -18    6.87    0.75
   3 -17 -18    6.47    0.70
  18 -17   3    8.41    0.85
  17 -18   3    7.35    0.81
  17 -18  -3    8.15    0.82
  17  -3  18    6.08    0.70
  17   3  18    7.98    0.79
  18  -3  17    7.59    0.77
  17   5  18    5.32    0.65
 -18   5 -17    7.37    0.74
 -17   5 -18    6.40    0.70
  -5 -18 -17    6.79    0.72
  -5 -17 -18    5.88    0.68
  17  -5  18    7.20    0.74
  18  -5  17    5.99    0.69
 -18  -5 -17    7.05    0.73
 -17  -5 -18    5.33    0.66
  17  -7  18    2.69    0.50
  18  -7  17    2.33    0.46
 -17 -18  -7    1.93    0.47
  -7 -18 -17    2.21    0.50
  -7 -17 -18    2.22    0.51
 -18   7 -17    1.97    0.46
 -17   7 -18    2.81    0.53
  -9  17 -18    2.66    0.51
  -9  18 -17    2.44    0.48
 -18 -17  -9    1.55    0.42
 -17 -18  -9    1.50    0.41
  -9 -18 -17    1.56    0.44
  -9 -17 -18    2.25    0.51
 -18   9 -17    2.01    0.47
 -17   9 -18    2.18    0.48
 -11  17 -18    0.04    0.32
 -11  18 -17   -0.12    0.31
 -18 -17 -11   -0.04    0.30
 -17 -18 -11    0.13    0.31
 -11 -18 -17   -0.14    0.33
 -11 -17 -18    0.05    0.31
 -18  11 -17    0.20    0.27
 -17  11 -18    0.09    0.31
 -18 -17 -13    1.88    0.41
 -17 -18 -13    1.75    0.40
 -13 -18 -17    2.19    0.44
 -13 -17 -18    2.28    0.43
 -18 -17 -15    5.92    0.56
 -17 -18 -15    6.04    0.57
 -15 -18 -17    5.53    0.57
 -15 -17 -18    6.23    0.58
 -18   0 -18   95.02    2.68
   0 -18 -18   94.52    2.66
  18   0  18   98.33    2.78
  18  -2  18    1.34    0.44
  18   2  18    0.72    0.41
 -18  -2 -18    1.46    0.45
  -2 -18 -18    2.48    0.49
   2 -18 -18    0.09    0.30
 -18   2 -18   -0.10    0.34
 -18   4 -18  433.46    7.33
  -4 -18 -18  422.29    7.31
  18  -4  18  408.07    7.24
  18   4  18  422.19    7.24
 -18  -4 -18  430.41    7.30
  18  -6  18   -0.14    0.36
  -6 -18 -18    0.73    0.39
 -18   6 -18    0.91    0.38
  18 -18  -6    0.29    0.36
 -18   8 -18   55.81    1.90
  -8 -18 -18   60.69    2.02
  -8  18 -18   56.40    1.92
  18  -8  18   57.05    1.84
 -10  18 -18    0.25    0.30
 -18 -18 -10    0.56    0.35
 -10 -18 -18    0.05    0.29
 -18  10 -18    0.71    0.31
 -18 -18 -12  197.27    3.93
 -12 -18 -18  195.77    3.99
 -18 -18 -14    0.14    0.24
 -14 -18 -18    0.29    0.27
   1 -19   0    0.05    0.32
   0 -19   1    0.15    0.32
   0 -19  -1    0.20    0.33
  -1   0  19    0.32    0.30
   0   1  19    0.16    0.29
   0  -1  19    0.12    0.28
   1   0  19    0.24    0.29
   2 -19   1   19.83    1.14
   2 -19  -1   17.92    1.09
   1 -19   2   18.24    1.09
   1 -19  -2   18.06    1.09
  -1 -19   2   17.08    1.08
  -2 -19   1   15.97    1.04
  -2 -19  -1   18.77    1.11
  -2   1  19   18.28    0.98
  -2  -1  19   17.13    0.97
  -1   2  19   17.71    0.97
  -1  -2  19   19.33    1.04
   1   2  19   17.38    0.96
   1  -2  19   18.51    1.00
   2  -1  19   20.17    1.05
   2   1  19   17.74    0.98
   0 -19   3    0.10    0.35
   0 -19  -3    0.77    0.39
  -3 -19   0    0.30    0.38
   3 -19   0   -0.05    0.37
  -3   0  19   -0.08    0.30
   0   3  19    0.27    0.31
   0  -3  19    0.54    0.35
   3   0  19   -0.04    0.29
  -3 -19  -2    0.70    0.35
   2 -19   3    0.29    0.35
   2 -19  -3    0.44    0.35
  -2 -19   3    0.58    0.35
  -2 -19  -3    0.53    0.37
   3 -19   2    1.28    0.42
   3 -19  -2    0.63    0.35
  -3   2  19    0.43    0.30
  -3  -2  19    0.50    0.33
  -2   3  19    0.65    0.33
  -2  -3  19    0.59    0.32
   2  -3  19    0.47    0.32
   2   3  19    0.39    0.31
   3  -2  19    0.67    0.34
   3   2  19    0.48    0.32
   1 -19   4    6.10    0.66
   1 -19  -4    6.61    0.68
  -1 -19   4    6.93    0.72
  -1 -19  -4    7.64    0.74
  -4   1  19    6.64    0.63
  -4  -1  19    7.19    0.67
  -1   4  19    6.67    0.60
  -1  -4  19    7.40    0.68
   1   4  19    8.01    0.65
   1  -4  19    7.08    0.65
   4  -1  19    6.99    0.67
   4   1  19    7.06    0.65
   4 -19   1    7.94    0.75
   4 -19  -1    6.99    0.69
  -4   3 -19    2.69    0.44
  -3   4 -19    3.40    0.46
   4 -19  -3    2.90    0.52
  -4   3  19    2.08    0.42
  -4  -3  19    2.43    0.44
  -3   4  19    2.68    0.43
  -3  -4  19    2.88    0.49
   3 -19   4    2.43    0.50
   3  -4  19    1.77    0.44
   3   4  19    2.12    0.41
   3 -19  -4    2.02    0.47
   4  -3  19    3.03    0.50
   4   3  19    2.53    0.44
   5 -19   0   -0.10    0.34
  -5   0  19   -0.04    0.31
   0  -5  19    0.17    0.29
   5   0  19    0.04    0.28
   2 -19  -5   12.97    0.92
  -5   2 -19   12.95    0.82
  -2 -19   5   12.09    0.91
  -2 -19  -5   11.51    0.88
  -5   2  19   11.69    0.79
  -5  -2  19   12.24    0.84
  -2  -5  19   12.96    0.87
   2  -5  19   13.07    0.87
   5  -2  19   13.62    0.89
   5   2  19   11.67    0.82
   5 -19   2   12.88    0.93
   5 -19  -2   12.28    0.92
  -5   4 -19    0.24    0.33
  -4   5 -19    0.69    0.31
   5 -19   4    0.05    0.31
   5 -19  -4    0.05    0.33
   4 -19  -5    0.24    0.33
  -5   4  19    0.30    0.28
  -5  -4  19   -0.09    0.31
  -4  -5  19    0.22    0.29
   4  -5  19    0.26    0.30
   5  -4  19    0.22    0.27
   5   4  19    0.04    0.26
  -6   1 -19    1.55    0.40
  -1 -19  -6    1.66    0.46
   6 -19   1    1.91    0.47
   6 -19  -1    1.80    0.46
 -19  -1  -6    2.29    0.41
   1 -19   6    1.68    0.43
   1 -19  -6    1.48    0.44
  -6   1  19    1.64    0.41
  -6  -1  19    2.13    0.45
  -1  -6  19    1.61    0.40
   1  -6  19    1.82    0.43
  -1 -19   6    2.05    0.44
   6  -1  19    2.17    0.44
   6   1  19    1.63    0.40
   3 -19   6   30.97    1.40
   3 -19  -6   30.67    1.39
  -6   3 -19   30.23    1.31
  -6   3  19   30.47    1.27
  -6  -3  19   31.82    1.37
  -3  -6  19   33.83    1.39
   3  -6  19   31.72    1.35
   6  -3  19   28.98    1.32
   6   3  19   33.24    1.37
   6 -19   3   32.12    1.48
   6 -19  -3   30.29    1.43
  -6   5 -19    1.30    0.38
  -5   6 -19    1.10    0.40
  -6 -19  -5    1.53    0.39
   6 -19   5    1.33    0.42
   6 -19  -5    2.31    0.49
   5 -19   6    1.84    0.46
   5 -19  -6    1.36    0.43
  -6  -5  19    1.84    0.42
  -5  -6  19    1.26    0.39
   5  -6  19    1.36    0.39
   6  -5  19    1.12    0.39
 -19   0  -7    0.38    0.28
   0 -19   7    0.27    0.33
   0 -19  -7    0.05    0.32
  -7   0  19    0.34    0.32
   0  -7  19   -0.08    0.27
  -7   0 -19    0.47    0.31
   7   0  19    0.27    0.31
  -7   2 -19    2.25    0.45
   7 -19   2    1.58    0.47
   7 -19  -2    1.88    0.47
 -19  -2  -7    1.60    0.41
   2 -19   7    1.86    0.45
   2 -19  -7    1.40    0.42
  -7   2  19    1.63    0.40
  -7  -2  19    1.91    0.45
  -2  -7  19    1.79    0.41
   2  -7  19    2.30    0.45
   7  -2  19    1.94    0.43
   7   2  19    1.90    0.44
   4 -19   7   20.12    1.14
   4 -19  -7   20.70    1.14
  -7 -19  -4   19.87    1.03
  -7   4 -19   19.86    1.10
  -7   4  19   20.11    1.03
  -7  -4  19   22.03    1.14
  -4  -7  19   20.40    1.09
   4  -7  19   21.47    1.12
   7  -4  19   18.04    1.06
   7   4  19   18.98    1.04
   7 -19   4   19.74    1.17
   7 -19  -4   20.98    1.19
  -7 -19  -6    8.15    0.72
  -6 -19  -7    9.54    0.74
  -7  -6 -19    9.65    0.74
  -6  -7 -19    8.06    0.70
  -7   6 -19    7.67    0.72
  -6   7 -19    9.54    0.81
  -7  -6  19    9.47    0.78
  -6  -7  19    8.03    0.70
   6  -7  19    7.98    0.72
   7  -6  19    9.32    0.77
   7 -19   6    8.08    0.77
   7 -19  -6    7.85    0.76
   6 -19   7    8.50    0.78
   8   1  19    1.13    0.38
   8 -19   1    0.89    0.41
   8 -19  -1    1.05    0.42
 -19  -1  -8    1.06    0.35
 -19   1  -8    1.14    0.36
  -1  -8  19    0.64    0.35
  -8  -1 -19    0.81    0.35
   1  -8  19    1.30    0.38
  -8   1 -19    0.71    0.36
   8  -1  19    0.64    0.33
  -8   3 -19    0.09    0.32
   8 -19   3   -0.10    0.35
   8 -19  -3   -0.05    0.36
  -8 -19  -3    0.04    0.29
 -19  -3  -8    0.17    0.29
  -3  -8  19   -0.04    0.31
   3  -8  19    0.42    0.31
   8  -3  19    0.05    0.33
   8   3  19    0.09    0.31
  -8   5 -19    0.65    0.37
   8 -19   5    1.16    0.43
   8 -19  -5    1.52    0.44
  -5   8 -19    0.75    0.36
  -8 -19  -5    0.98    0.35
  -5 -19  -8    1.13    0.38
  -5  -8 -19    1.29    0.41
  -5  -8  19    1.38    0.39
   5  -8  19    1.05    0.37
   8  -5  19    0.83    0.35
   8   5  19    0.87    0.37
  -8  -7 -19    3.68    0.51
  -8   7 -19    3.53    0.56
  -7   8 -19    3.15    0.54
   8 -19   7    2.97    0.52
  -8 -19  -7    3.35    0.52
  -7 -19  -8    3.31    0.53
  -7  -8 -19    3.80    0.55
   7  -8  19    3.44    0.54
   8  -7  19    3.14    0.52
   9   0  19    0.23    0.33
   9 -19   0   -0.11    0.34
  -9 -19   0    0.39    0.31
 -19   0  -9   -0.04    0.29
   0  -9  19    0.54    0.34
  -9   0 -19    0.13    0.31
   9  -2  19    3.84    0.56
   9   2  19    4.20    0.57
   9 -19   2    2.81    0.52
  -9 -19  -2    2.74    0.46
 -19  -2  -9    3.69    0.53
 -19   2  -9    3.33    0.49
  -9  -2 -19    3.20    0.49
  -2  -9  19    3.55    0.50
   2  -9  19    3.79    0.51
  -9   2 -19    2.53    0.49
   9   4  19    2.09    0.45
  -9   4 -19    2.54    0.50
   9 -19   4    2.29    0.53
   9 -19  -4    2.72    0.53
  -9 -19  -4    3.08    0.48
  -4 -19  -9    2.57    0.46
  -4  -9 -19    1.73    0.45
  -4  -9  19    2.42    0.45
   4  -9  19    2.75    0.46
   9  -4  19    2.04    0.49
  -9   6 -19    2.11    0.51
   9 -19   6    1.49    0.45
  -6   9 -19    1.74    0.48
  -9 -19  -6    1.69    0.43
  -6 -19  -9    1.30    0.39
  -6  -9 -19    1.44    0.44
  -6  -9  19    2.55    0.48
   6  -9  19    1.53    0.42
   9  -6  19    1.18    0.39
  -9   8 -19    0.70    0.40
  -8   9 -19    1.22    0.42
  -9 -19  -8    1.10    0.40
  -8 -19  -9    0.99    0.41
  -9  -8 -19    0.69    0.35
  -8  -9 -19    0.64    0.35
   8  -9  19    0.93    0.37
   9  -8  19    1.34    0.44
  10  -1  19    0.10    0.37
  10   1  19    0.19    0.34
 -10 -19  -1    0.17    0.33
 -19  -1 -10    0.27    0.31
 -19   1 -10    0.09    0.30
 -10  -1 -19    0.35    0.33
  -1 -10  19    0.16    0.29
   1 -10  19    0.28    0.33
 -10   1 -19    0.23    0.34
  10  -3  19    3.66    0.57
  10 -19   3    3.66    0.61
  10 -19  -3    4.27    0.64
 -19   3 -10    5.06    0.57
  -3 -10 -19    5.16    0.67
 -10 -19  -3    4.57    0.57
 -19  -3 -10    4.38    0.59
  -3 -19 -10    4.53    0.56
  -3 -10  19    5.20    0.58
   3 -10  19    5.38    0.61
 -10  -3 -19    4.51    0.56
  10   3  19    4.97    0.63
 -10   3 -19    3.79    0.57
  10  -5  19    0.05    0.33
  10   5  19    0.13    0.30
 -10   5 -19    0.05    0.37
  10 -19  -5    0.11    0.35
 -10 -19  -5    0.82    0.37
  -5 -19 -10    0.36    0.33
  -5 -10 -19    0.29    0.32
  -5 -10  19    0.50    0.33
   5 -10  19    0.17    0.29
 -10   7 -19    3.53    0.58
  10 -19   7    3.96    0.59
  -7  10 -19    3.67    0.60
 -10 -19  -7    3.06    0.52
  -7 -19 -10    3.17    0.53
  -7 -10 -19    3.18    0.55
  10  -7  19    3.33    0.55
 -10 -19  -9    8.71    0.79
  -9 -19 -10    8.85    0.80
 -10  -9 -19    7.90    0.72
  -9 -10 -19    8.18    0.77
 -10   9 -19    9.21    0.85
  -9  10 -19    8.24    0.80
  10  -9  19    9.17    0.79
  11   0  19   -0.05    0.37
 -19   0 -11   -0.05    0.32
 -11   0 -19    0.14    0.34
  11 -19   0    0.28    0.35
  11  -2  19    2.86    0.56
  11   2  19    2.76    0.53
 -11 -19  -2    3.22    0.53
 -19  -2 -11    3.24    0.54
 -19   2 -11    3.22    0.51
  -2 -11 -19    4.39    0.60
 -11  -2 -19    3.43    0.53
 -11   2 -19    3.27    0.54
  11 -19   4    0.65    0.40
  11 -19  -4    0.87    0.40
  11  -4  19    0.75    0.36
  11   4  19    0.18    0.32
 -11 -19  -4    0.65    0.36
 -19  -4 -11    1.11    0.42
  -4 -19 -11    0.85    0.38
 -11  -4 -19    0.78    0.38
 -19   4 -11    0.73    0.36
  -4 -11 -19    1.47    0.45
 -11   4 -19    0.49    0.35
  11  -6  19    0.15    0.34
 -11   6 -19    1.03    0.42
  11 -19  -6    0.42    0.38
 -11 -19  -6    0.24    0.35
  -6 -19 -11    0.05    0.33
  -6 -11 -19   -0.10    0.36
 -11   8 -19    1.08    0.45
  -8  11 -19    1.33    0.46
 -11 -19  -8    0.80    0.42
  -8 -19 -11    0.69    0.36
  -8 -11 -19    0.49    0.36
  11  -8  19    0.85    0.41
 -11 -19 -10   10.15    0.85
 -10 -19 -11    9.92    0.85
 -11 -10 -19    8.83    0.76
 -10 -11 -19    8.41    0.77
 -11  10 -19   10.75    0.88
 -10  11 -19    9.15    0.85
  12  -1  19    1.55    0.45
  12   1  19    2.33    0.50
 -19  -1 -12    1.51    0.42
 -19   1 -12    1.26    0.40
  -1 -12 -19    2.16    0.52
 -12  -1 -19    1.78    0.46
 -12   1 -19    1.01    0.44
  12 -19   1    1.64    0.47
  12 -19  -1    1.43    0.43
  12  -3  19   -0.05    0.37
  12   3  19    0.19    0.33
 -12 -19  -3   -0.05    0.31
 -19  -3 -12    0.15    0.32
  -3 -19 -12    0.23    0.34
 -19   3 -12    0.09    0.31
  -3 -12 -19    0.10    0.32
 -12  -3 -19   -0.09    0.30
 -12   3 -19    0.20    0.35
  12 -19   3   -0.05    0.37
  12 -19  -3   -0.11    0.40
  12  -5  19   -0.05    0.31
  12   5  19    0.32    0.33
 -12 -19  -5    0.10    0.31
  -5 -19 -12   -0.05    0.30
 -12  -5 -19   -0.04    0.33
  -5 -12 -19    0.10    0.32
 -19   5 -12    0.04    0.34
 -12   5 -19    0.05    0.34
  12 -19  -5    0.38    0.36
 -12   7 -19    1.75    0.49
  -7  12 -19    2.13    0.52
 -12 -19  -7    1.81    0.46
  -7 -19 -12    1.58    0.43
  -7 -12 -19    2.62    0.50
  12  -7  19    2.18    0.48
 -12   9 -19    4.02    0.59
  -9  12 -19    4.80    0.65
 -12 -19  -9    3.59    0.58
  -9 -19 -12    3.27    0.55
  -9 -12 -19    4.03    0.59
  12  -9  19    3.95    0.56
 -12  11 -19    0.41    0.39
 -11  12 -19    0.26    0.39
 -12 -19 -11    0.81    0.39
 -11 -19 -12   -0.10    0.36
 -11 -12 -19    0.60    0.41
  13   0  19    0.05    0.34
 -19   0 -13   -0.10    0.33
   0 -13 -19   -0.05    0.33
 -13   0 -19    0.20    0.34
  13 -19   0    0.06    0.37
  13  -2  19    4.20    0.63
  13   2  19    3.94    0.61
 -13  -2 -19    8.16    0.75
 -19  -2 -13    3.80    0.56
  -2 -19 -13    4.27    0.57
 -19   2 -13    4.92    0.63
  -2 -13 -19    4.26    0.62
 -13   2 -19    5.02    0.64
  13 -19   2    4.81    0.64
  13  -4  19    1.19    0.45
  13   4  19    1.24    0.43
 -13 -19  -4    1.23    0.42
 -19  -4 -13    1.36    0.42
  -4 -19 -13    1.23    0.42
 -13  -4 -19    1.70    0.43
  -4 -13 -19    0.94    0.40
 -19   4 -13    0.47    0.35
 -13   4 -19    1.02    0.44
  13  -6  19    0.55    0.37
  -6 -19 -13    0.35    0.35
  -6 -13 -19    0.21    0.34
 -19   6 -13    0.49    0.33
 -13   6 -19    0.67    0.42
 -19 -13  -8    2.94    0.47
  -8  13 -19    2.73    0.55
 -13 -19  -8    2.40    0.51
  -8 -19 -13    2.81    0.52
  -8 -13 -19    3.23    0.54
 -13   8 -19    2.91    0.52
  13  -8  19    2.12    0.46
 -19 -13 -10    7.79    0.70
 -13 -19 -10    6.23    0.69
 -10 -19 -13    6.56    0.72
 -10 -13 -19    7.80    0.75
 -13  10 -19    6.63    0.73
 -10  13 -19    6.12    0.71
 -13  12 -19    1.30    0.42
 -12  13 -19    1.74    0.47
 -13 -19 -12    1.68    0.45
 -12 -19 -13    1.33    0.42
 -12 -13 -19    2.11    0.46
 -19  -1 -14    7.23    0.74
  14  -1  19    5.81    0.71
 -19   1 -14    6.99    0.72
 -14  -1 -19    6.85    0.72
 -14   1 -19    6.24    0.73
  -1 -19 -14    5.95    0.65
  -1 -14 -19    6.49    0.74
   1 -14 -19    5.80    0.70
  14 -19   1    6.70    0.77
  14   1  19    6.74    0.74
  14 -19  -1    5.26    0.71
  14  -3  19    0.42    0.39
  14   3  19    0.40    0.37
 -19  -3 -14    0.56    0.41
  -3 -19 -14    0.24    0.33
 -14  -3 -19    0.19    0.36
  -3 -14 -19    0.05    0.36
 -19   3 -14    0.48    0.34
 -14   3 -19    0.61    0.40
  14 -19   3    0.43    0.38
  14 -19  -3    0.76    0.41
 -14  -5 -19    9.29    0.80
 -14 -19  -5    9.51    0.83
 -19   5 -14   10.25    0.84
  -5 -19 -14   10.11    0.84
 -14   5 -19    9.53    0.86
  -5 -14 -19    9.31    0.83
  14  -5  19   11.07    0.89
  14   5  19    9.92    0.83
  14  -7  19    4.77    0.62
 -14   7 -19    5.45    0.67
 -14 -19  -7    4.02    0.57
  -7  14 -19    4.60    0.65
  -7 -19 -14    3.12    0.56
  -7 -14 -19    4.66    0.64
 -19   7 -14    4.99    0.63
 -19 -14  -9    6.04    0.65
 -14 -19  -9    6.64    0.69
  -9 -19 -14    6.22    0.70
  -9 -14 -19    6.13    0.70
 -14   9 -19    6.32    0.69
  -9  14 -19    7.16    0.76
  14  -9  19    6.95    0.69
 -19 -14 -11    8.50    0.73
 -14 -19 -11    8.64    0.78
 -11 -19 -14   10.08    0.83
 -11 -14 -19    8.90    0.78
 -14  11 -19    8.28    0.78
 -11  14 -19    9.51    0.83
 -14 -19 -13    8.38    0.75
 -13 -19 -14    8.87    0.77
 -13 -14 -19    7.93    0.69
 -14  13 -19    7.57    0.73
 -13  14 -19    7.58    0.73
  15   0  19   -0.22    0.46
 -19   0 -15   -0.05    0.34
   0 -15 -19    0.16    0.37
 -15   0 -19    0.40    0.39
  15  -2  19    0.32    0.44
  15   2  19   -0.05    0.48
 -19  -2 -15   -0.05    0.35
  -2 -19 -15    0.67    0.38
 -15  -2 -19    0.74    0.37
  -2 -15 -19    0.58    0.39
 -19   2 -15    0.30    0.34
   2 -15 -19    0.26    0.34
 -15   2 -19    0.30    0.36
  15 -19   2    0.17    0.47
  15  -4  19    1.96    0.52
  15   4  19    1.56    0.45
 -19  -4 -15    1.73    0.46
  -4 -19 -15    2.16    0.48
 -15  -4 -19    2.33    0.49
  -4 -15 -19    1.48    0.43
 -19   4 -15    2.62    0.53
   4 -15 -19    2.49    0.52
 -15   4 -19    2.20    0.52
  15 -19   4    2.05    0.51
 -15 -19  -6   10.80    0.87
 -19   6 -15    9.86    0.82
 -15   6 -19    9.94    0.85
  -6 -19 -15    9.90    0.85
  -6 -15 -19   11.05    0.90
  15  -6  19    9.54    0.85
 -15  -6 -19   11.31    0.87
  15  -8  19    1.23    0.40
  19  -8  15    0.88    0.39
  -8  15 -19    0.36    0.36
 -15 -19  -8    0.74    0.37
  -8 -19 -15    0.85    0.40
  -8 -15 -19    0.70    0.36
 -19   8 -15    1.04    0.40
 -15   8 -19    0.55    0.40
 -10  15 -19    1.80    0.46
 -19 -15 -10    2.18    0.45
 -15 -19 -10    1.53    0.43
 -10 -19 -15    1.45    0.42
 -10 -15 -19    2.47    0.52
 -15  10 -19    1.74    0.46
 -12  15 -19    1.50    0.43
 -19 -15 -12    1.47    0.37
 -15 -19 -12    1.39    0.40
 -12 -19 -15    2.28    0.48
 -12 -15 -19    1.93    0.45
 -15  12 -19    2.18    0.47
 -15 -19 -14    3.18    0.47
 -14 -19 -15    3.30    0.51
 -14 -15 -19    3.31    0.48
 -15  14 -19    3.60    0.52
 -14  15 -19    3.35    0.50
  16  -1  19   -0.16    0.38
  16   1  19    0.05    0.36
 -19  -1 -16    0.10    0.34
  -1 -19 -16   -0.14    0.31
 -19   1 -16    0.05    0.33
  -1 -16 -19   -0.05    0.33
 -16  -1 -19    0.10    0.34
   1 -16 -19    0.20    0.35
 -16   1 -19    0.05    0.34
  16  -3  19    0.52    0.40
  16   3  19    0.15    0.38
 -19  -3 -16    0.30    0.37
  -3 -19 -16    0.05    0.34
 -16  -3 -19    0.25    0.35
  -3 -16 -19    0.10    0.34
 -19   3 -16    0.05    0.34
   3 -16 -19    0.25    0.34
 -16   3 -19    0.35    0.34
  16 -19  -3    0.54    0.39
  16  -5  19    1.54    0.46
  16   5  19    1.66    0.44
  19 -16   5    1.17    0.42
 -16  -5 -19    1.66    0.44
  -5 -19 -16    1.18    0.41
  -5 -16 -19    1.26    0.43
 -19   5 -16    1.39    0.41
 -16   5 -19    0.86    0.41
  16  -7  19    1.98    0.46
  19  -7  16    1.98    0.44
 -16 -19  -7    1.55    0.45
  -7  16 -19    2.31    0.52
  -7 -19 -16    1.74    0.46
  -7 -16 -19    1.39    0.45
 -19   7 -16    2.60    0.49
 -16   7 -19    2.47    0.51
  -9  16 -19   -0.05    0.35
 -16 -19  -9    0.38    0.34
  -9  19 -16   -0.09    0.36
  -9 -19 -16    0.05    0.32
  -9 -16 -19    0.29    0.35
 -19   9 -16    0.17    0.33
 -16   9 -19    0.14    0.34
 -11  16 -19   -0.13    0.32
 -19 -16 -11    0.12    0.30
 -16 -19 -11    0.09    0.30
 -11 -19 -16   -0.05    0.33
 -11 -16 -19    0.04    0.30
 -16  11 -19    0.45    0.35
 -13  16 -19    0.24    0.30
 -19 -16 -13   -0.15    0.25
 -16 -19 -13    0.08    0.28
 -13 -19 -16    0.04    0.28
 -13 -16 -19    0.20    0.30
 -16  13 -19    0.32    0.31
 -16 -19 -15    0.51    0.28
 -15 -19 -16    0.66    0.32
 -15 -16 -19    0.57    0.28
  17   0  19   -0.26    0.48
 -19   0 -17    0.25    0.34
   0 -19 -17   -0.10    0.32
   0 -17 -19    0.05    0.33
 -17   0 -19    0.25    0.36
  17  -2  19   -0.21    0.40
  17   2  19   -0.15    0.38
 -19  -2 -17    0.05    0.34
  19 -17   2    0.21    0.39
  19 -17  -2    0.05    0.36
  -2 -19 -17    0.15    0.34
 -17  -2 -19   -0.20    0.37
  -2 -17 -19    0.20    0.37
 -19   2 -17   -0.10    0.36
   2 -17 -19    0.10    0.35
 -17   2 -19    0.20    0.35
  17  -4  19    1.05    0.43
  17   4  19    1.09    0.40
  19  -4  17    1.09    0.46
 -19  -4 -17    1.62    0.46
 -17  -4 -19    1.63    0.46
  -4 -19 -17    1.46    0.45
  -4 -17 -19    0.97    0.42
  19 -17   4    1.80    0.45
  19 -17  -4    1.69    0.44
 -19   4 -17    1.20    0.42
 -17   4 -19    1.45    0.45
 -19   6 -17   14.66    0.98
 -17   6 -19   16.27    1.03
  -6 -19 -17   15.12    1.01
  -6 -17 -19   12.54    0.94
  17  -6  19   13.59    0.94
  19  -6  17   13.52    0.95
  17  -8  19    0.13    0.30
  19  -8  17   -0.04    0.28
  -8  17 -19    0.57    0.38
 -17 -19  -8    0.18    0.33
  -8  19 -17    0.13    0.31
  -8 -19 -17   -0.14    0.31
  -8 -17 -19    0.05    0.29
 -19   8 -17   -0.04    0.30
 -17   8 -19    0.14    0.33
 -10  17 -19    0.99    0.39
 -10  19 -17    1.62    0.40
 -17 -19 -10    1.58    0.41
 -10 -19 -17    1.39    0.41
 -10 -17 -19    0.76    0.36
 -17  10 -19    1.34    0.41
 -12  17 -19    1.48    0.38
 -19 -17 -12    0.98    0.33
 -17 -19 -12    1.55    0.41
 -12 -19 -17    0.75    0.35
 -12 -17 -19    1.26    0.36
 -17  12 -19    1.05    0.34
 -17 -19 -14    1.11    0.34
 -14 -19 -17    0.88    0.31
 -14 -17 -19    1.47    0.36
  18  -1  19    1.32    0.44
  18   1  19    1.06    0.43
  19  -1  18    0.86    0.40
  19   1  18    1.06    0.44
 -19  -1 -18    1.23    0.46
 -18  -1 -19    1.03    0.41
  -1 -19 -18    1.42    0.44
  -1 -18 -19    1.48    0.46
 -19   1 -18    1.36    0.45
   1 -18 -19    0.90    0.40
 -18   1 -19    1.06    0.44
  19 -18   1    1.11    0.41
  19 -18  -1    1.00    0.43
  18  -3  19    1.03    0.43
  18   3  19    0.62    0.41
  19  -3  18    1.12    0.45
  19   3  18    0.63    0.38
 -19  -3 -18    1.05    0.42
 -18  -3 -19    0.38    0.39
  -3 -19 -18    0.85    0.39
  -3 -18 -19    0.69    0.41
 -19   3 -18    0.52    0.39
 -18   3 -19    0.58    0.39
  19 -18  -3    0.96    0.43
  18   5  19    4.83    0.59
  19   5  18    4.82    0.61
 -19   5 -18    6.24    0.68
 -18   5 -19    5.48    0.66
  -5 -19 -18    5.58    0.67
  -5 -18 -19    5.72    0.67
  18  -5  19    5.13    0.62
  19  -5  18    6.12    0.67
 -18  -5 -19    5.53    0.66
  18  -7  19    1.13    0.35
  19  -7  18    0.91    0.36
  -7  18 -19    1.04    0.39
  -7  19 -18    1.41    0.40
  -7 -19 -18    1.31    0.41
  -7 -18 -19    0.61    0.34
 -19   7 -18    1.06    0.39
 -18   7 -19    1.02    0.38
  -9  18 -19    0.34    0.33
  -9  19 -18    0.33    0.33
  -9 -19 -18    0.27    0.32
  -9 -18 -19    0.53    0.36
 -19   9 -18    0.04    0.31
 -18   9 -19    0.88    0.35
 -11  18 -19    0.46    0.32
 -11 -19 -18    0.58    0.32
 -11 -18 -19    0.36    0.31
 -18  11 -19    0.83    0.33
 -18 -19 -13    1.50    0.37
 -13 -19 -18    1.91    0.38
 -13 -18 -19    1.38    0.36
  19   0  19   -0.19    0.38
 -19   0 -19    0.05    0.37
   0 -19 -19   -0.05    0.31
  19   2  19    4.71    0.63
 -19   2 -19    6.02    0.67
  -2 -19 -19    6.18    0.67
  19  -2  19    6.48    0.72
 -19  -2 -19    5.91    0.67
  19  -4  19   -0.05    0.32
  19   4  19    0.04    0.31
 -19  -4 -19    0.22    0.32
  -4 -19 -19    0.14    0.30
 -19   4 -19    0.23    0.31
  19  -6  19    1.49    0.41
  -6  19 -19    1.93    0.46
  -6 -19 -19    1.77    0.45
 -19   6 -19    2.04    0.46
  -8  19 -19   -0.08    0.29
  -8 -19 -19   -0.17    0.34
 -19   8 -19    0.04    0.30
 -10  19 -19    0.37    0.31
 -10 -19 -19    0.12    0.28
 -19  10 -19    0.22    0.26
 -12 -19 -19   -0.04    0.25
   0 -20   0 1130.74   16.81
   0   0  20 1174.09   16.44
  -1 -20   1    0.05    0.39
  -1 -20  -1    0.05    0.40
   1 -20   1    0.26    0.39
   1 -20  -1    0.16    0.38
  -1   1  20   -0.21    0.33
  -1  -1  20   -0.26    0.34
   1   1  20    0.09    0.33
   1  -1  20    0.09    0.34
   2 -20   0  337.37    6.37
   0 -20   2  341.51    6.37
   0 -20  -2  355.12    6.42
  -2 -20   0  343.75    6.42
  -2   0  20  360.77    6.15
   0   2  20  346.03    6.03
   0  -2  20  342.47    6.09
   2   0  20  350.18    6.10
   2 -20   2  917.71   14.37
   2 -20  -2  940.08   14.39
  -2 -20   2  963.41   14.43
  -2 -20  -2  945.23   14.39
  -2   2  20  995.40   14.07
  -2  -2  20  985.29   14.16
   2   2  20 1004.12   14.06
   2  -2  20  976.51   14.14
   3 -20   1    7.72    0.77
   3 -20  -1    7.23    0.78
   1 -20  -3    8.47    0.83
  -1 -20  -3    6.94    0.75
  -3   1  20    9.14    0.73
  -3  -1  20    8.22    0.72
  -1   3  20    7.68    0.69
  -1  -3  20    8.37    0.73
   1   3  20    8.15    0.70
   1  -3  20    8.34    0.73
   3  -1  20    8.84    0.76
   3   1  20    9.38    0.76
   3 -20   3    0.21    0.35
   3 -20  -3    0.16    0.35
  -3   3  20    0.45    0.32
  -3  -3  20    0.14    0.31
   3  -3  20    0.05    0.27
   3   3  20    0.25    0.28
   0 -20   4  161.74    3.79
  -4   0  20  165.52    3.62
   0   4  20  160.16    3.45
   0  -4  20  165.59    3.65
   4   0  20  168.33    3.64
  -2 -20   4    0.67    0.41
  -2 -20  -4    1.02    0.41
   2   4  20    5.13    0.57
   2  -4  20   11.69    0.86
   4 -20   2    1.26    0.44
  -4   2  20    4.21    0.53
  -4  -2  20    1.48    0.42
  -2   4  20    0.80    0.33
  -2  -4  20    0.78    0.37
   4  -2  20    0.27    0.32
   4   2  20    0.47    0.33
  -4   4 -20   20.96    1.07
  -4   4  20   23.27    1.13
  -4  -4  20   22.28    1.16
   4  -4  20   18.49    1.07
   4   4  20   18.83    1.05
   4 -20   4   18.30    1.14
   4 -20  -4   20.04    1.19
  -1 -20   5    0.15    0.35
  -1 -20  -5    0.35    0.36
   5 -20   1    0.05    0.36
   5 -20  -1   -0.05    0.36
  -5   1  20    0.39    0.33
  -5  -1  20    0.13    0.32
   1 -20   5   -0.05    0.34
  -1  -5  20   -0.05    0.32
   1 -20  -5   -0.05    0.34
   1  -5  20    0.14    0.29
   5  -1  20    0.18    0.34
   5   1  20   -0.22    0.35
  -5   3 -20    3.00    0.50
   3 -20  -5    3.70    0.60
  -3   5 -20    3.35    0.51
   5 -20   3    2.24    0.49
   5   3  20    4.94    0.59
  -5   3  20    4.32    0.55
  -5  -3  20    3.15    0.53
  -3  -5  20    4.30    0.58
   3  -5  20    3.38    0.51
   5  -3  20    3.64    0.52
  -5   5 -20    0.09    0.31
   5 -20   5   -0.05    0.33
   5 -20  -5   -0.05    0.31
  -5  -5  20    0.18    0.32
   5  -5  20    0.14    0.32
   0 -20   6  299.08    5.71
   0 -20  -6  295.85    5.68
  -6   0  20  304.99    5.55
   0  -6  20  308.27    5.56
   6   0  20  307.20    5.60
   6 -20   0  299.79    5.83
   2 -20   6  977.08   14.39
  -6   2 -20  976.74   14.06
  -6   2  20  953.71   14.06
  -6  -2  20  960.74   14.21
  -2  -6  20  992.22   14.22
   2  -6  20  980.04   14.21
   6  -2  20  968.70   14.25
   6   2  20 1001.36   14.22
   6 -20  -2  939.78   14.47
   4 -20   6    0.10    0.34
   4 -20  -6    0.10    0.35
  -6   4 -20    0.26    0.31
  -4   6 -20    2.80    0.49
   6 -20   4   -0.05    0.36
  -6  -4  20    1.20    0.39
  -4  -6  20    2.17    0.44
   4  -6  20    0.09    0.31
   6  -4  20    0.57    0.35
   6   4  20    0.30    0.30
  -6  -6 -20  786.16   11.68
  -6   6 -20  783.01   11.81
  -6  -6  20  796.10   11.84
   6  -6  20  773.41   11.81
   6 -20   6  769.78   11.96
   1 -20   7   -0.05    0.36
   7 -20   1    0.27    0.36
   7 -20  -1    0.44    0.40
 -20  -1  -7   -0.16    0.33
  -7   1  20    0.18    0.33
  -7  -1  20    0.46    0.40
  -1  -7  20   -0.14    0.35
   1  -7  20    0.31    0.36
   7  -1  20    0.19    0.34
   7   1  20   -0.19    0.34
  -7   1 -20   -0.04    0.35
   3 -20   7   12.48    0.91
  -7   3 -20   12.91    0.89
  -7   3  20   11.85    0.84
  -7  -3  20   12.33    0.89
  -3  -7  20   11.13    0.84
   3  -7  20   11.44    0.85
   7  -3  20   13.75    0.95
   7   3  20   12.07    0.87
   7 -20   3   12.76    0.99
   7 -20  -3   10.39    0.92
   5 -20   7    0.89    0.41
  -7   5 -20    0.97    0.41
  -5   7 -20    0.75    0.39
  -7 -20  -5    0.51    0.42
  -5  -7 -20    1.32    0.40
  -7  -5  20    0.95    0.39
  -5  -7  20    0.92    0.38
   5  -7  20    1.35    0.39
   7  -5  20    1.10    0.41
  -7   7 -20    0.58    0.35
  -7 -20  -7    0.09    0.36
  -7  -7 -20    0.04    0.33
   7  -7  20   -0.09    0.35
  -8   0 -20  698.08   10.64
   0  -8  20  705.52   10.73
   8   0  20  713.05   10.88
   8 -20   0  688.99   11.14
 -20   0  -8  701.40   10.57
  -8   2 -20  259.25    4.91
  -2  -8  20  259.86    4.92
   2  -8  20  258.41    4.93
   8  -2  20  253.12    5.03
   8   2  20  257.89    5.00
   8 -20   2  253.00    5.27
   8 -20  -2  260.35    5.29
  -8 -20  -4  147.66    3.32
  -8   4 -20  149.96    3.45
  -4   8 -20  147.55    3.45
  -4  -8  20  151.23    3.42
   4  -8  20  146.56    3.38
   8  -4  20  166.48    3.65
   8   4  20  150.01    3.42
   8 -20   4  145.35    3.64
   8 -20  -4  147.63    3.63
  -8 -20  -6  217.94    4.46
  -6 -20  -8  229.42    4.49
  -6  -8 -20  228.04    4.55
  -8   6 -20  221.97    4.60
  -6   8 -20  226.43    4.64
  -6  -8  20  232.75    4.58
   6  -8  20  234.57    4.60
   8  -6  20  233.84    4.65
   8 -20   6  227.46    4.73
   8 -20  -6  217.74    4.69
  -8 -20  -8  619.16    9.78
  -8  -8 -20  613.54    9.68
  -8   8 -20  629.46    9.96
   8  -8  20  633.23    9.82
   9 -20   1    0.61    0.42
   9 -20  -1    0.33    0.37
 -20  -1  -9    0.48    0.37
 -20   1  -9    1.01    0.40
  -9  -1 -20    0.04    0.38
  -1  -9  20    0.44    0.38
   1  -9  20    0.61    0.36
  -9   1 -20    0.41    0.39
   9  -1  20    0.65    0.40
   9   1  20    0.44    0.36
   9 -20   3   -0.05    0.35
   9 -20  -3    0.05    0.37
  -9 -20  -3    0.13    0.33
  -3  -9  20    0.40    0.34
   3  -9  20   -0.04    0.33
   9  -3  20    0.15    0.36
   9   3  20    0.37    0.33
  -9   3 -20   -0.14    0.42
  -9   5 -20    4.39    0.62
  -9 -20  -5    4.96    0.60
   9 -20   5    4.97    0.66
   9 -20  -5    4.96    0.69
  -5   9 -20    3.94    0.60
  -5 -20  -9    4.38    0.57
  -5  -9 -20    4.76    0.62
  -5  -9  20    4.68    0.61
   5  -9  20    4.64    0.60
   9  -5  20    3.35    0.56
   9   5  20    4.51    0.57
  -9   7 -20    2.35    0.52
  -7   9 -20    1.44    0.48
  -9 -20  -7    0.80    0.42
  -7 -20  -9    2.14    0.50
  -7  -9 -20    2.31    0.49
   7  -9  20    1.51    0.45
   9  -7  20    1.94    0.47
  -9   9 -20    0.05    0.37
  -9 -20  -9   -0.19    0.39
  -9  -9 -20   -0.18    0.34
   9  -9  20    0.32    0.38
 -20   0 -10  229.01    4.56
 -10   0 -20  227.91    4.58
   0 -10  20  229.04    4.50
  10 -20   0  232.17    4.95
  10   0  20  239.67    4.79
 -20   2 -10  691.78   10.53
 -10 -20  -2  692.02   10.56
 -10  -2 -20  679.44   10.52
 -10   2 -20  708.01   10.75
  -2 -10  20  677.20   10.47
   2 -10  20  703.62   10.53
  10 -20   2  671.08   11.00
  10 -20  -2  682.61   11.04
  10  -2  20  694.58   10.83
  10   2  20  695.77   10.76
 -20  -2 -10  698.89   10.67
  -4 -20 -10    1.01    0.37
  -4 -10 -20    0.91    0.42
  -4 -10  20    1.21    0.42
   4 -10  20    2.46    0.46
 -10   4 -20    1.76    0.47
  10  -4  20    3.20    0.54
  10   4  20    1.34    0.42
 -10 -20  -6  614.10    9.66
  -6 -20 -10  599.46    9.60
  -6 -10 -20  606.99    9.71
 -10   6 -20  606.83    9.81
  -6  10 -20  613.25    9.86
   6 -10  20  631.99    9.57
  10  -6  20  615.44    9.79
  10 -20   6  606.80    9.87
 -10 -20  -8  189.02    4.15
  -8 -20 -10  200.51    4.20
  -8 -10 -20  196.55    4.13
 -10   8 -20  191.76    4.26
  -8  10 -20  194.29    4.28
  10  -8  20  196.63    4.15
 -10 -20 -10  556.50    9.11
 -10 -10 -20  565.10    8.95
 -10  10 -20  570.36    9.31
 -20   1 -11   17.12    1.04
 -11  -1 -20   18.72    1.08
 -11   1 -20   16.61    1.05
  11  -1  20   18.47    1.14
  11   1  20   16.78    1.08
 -20  -1 -11   17.84    1.07
  11  -3  20    0.05    0.32
  11   3  20    0.58    0.37
 -11 -20  -3    0.14    0.31
 -20  -3 -11    0.19    0.31
 -20   3 -11   -0.04    0.35
 -11  -3 -20   -0.04    0.35
  -3 -11 -20    0.16    0.36
 -11   3 -20    0.20    0.34
  11 -20   5    3.27    0.57
  11 -20  -5    3.10    0.58
 -11 -20  -5    3.19    0.54
  -5 -20 -11    3.46    0.54
  -5 -11 -20    2.84    0.52
 -11   5 -20    3.78    0.58
  11  -5  20    2.85    0.52
  11   5  20    2.36    0.48
 -11 -20  -7    6.62    0.71
  -7 -20 -11    6.73    0.69
  -7 -11 -20    6.29    0.72
 -11   7 -20    6.36    0.73
  -7  11 -20    6.86    0.74
  11  -7  20    6.32    0.70
  11 -20   7    6.86    0.75
 -11   9 -20    2.65    0.52
  -9  11 -20    2.78    0.54
 -11 -20  -9    1.25    0.45
  -9 -20 -11    1.64    0.46
  -9 -11 -20    2.83    0.53
  11  -9  20    2.02    0.47
 -11  11 -20   -0.05    0.37
 -11 -20 -11    0.05    0.31
 -11 -11 -20   -0.13    0.29
 -20   0 -12  111.50    2.91
 -12   0 -20  109.89    2.88
  12 -20   0  107.63    3.08
  12   0  20  114.39    3.03
  12   2  20    1.26    0.42
  12 -20   2    0.86    0.43
  12 -20  -2    0.17    0.34
 -20   2 -12    0.65    0.37
  -2 -12 -20    1.17    0.42
 -12  -2 -20    1.83    0.46
 -12   2 -20    0.55    0.38
 -20   4 -12    9.02    0.77
 -12 -20  -4   12.38    0.91
  -4 -20 -12    8.43    0.76
 -12   4 -20   10.48    0.88
  -4 -12 -20    9.39    0.83
  12  -4  20   10.85    0.88
  12   4  20   11.17    0.87
 -12 -20  -6    1.81    0.45
  -6  12 -20    1.49    0.49
  -6 -20 -12    2.01    0.47
  -6 -12 -20    1.53    0.45
 -12   6 -20    2.21    0.51
  12  -6  20    3.42    0.56
 -12 -20  -8   71.24    2.26
  -8 -20 -12   68.15    2.21
  -8 -12 -20   72.47    2.30
 -12   8 -20   73.51    2.35
  -8  12 -20   74.51    2.38
  12  -8  20   77.13    2.30
 -12  10 -20    0.05    0.36
 -10  12 -20    0.62    0.39
 -12 -20 -10    0.30    0.31
 -10 -20 -12    0.94    0.38
 -12 -20 -12   18.30    1.10
 -12  12 -20   20.28    1.18
  13  -1  20    0.05    0.36
  13   1  20    0.26    0.43
 -20  -1 -13    0.15    0.35
 -20   1 -13    0.20    0.36
  -1 -13 -20    0.27    0.39
 -13  -1 -20    0.05    0.35
   1 -13 -20    0.05    0.40
 -13   1 -20    0.05    0.35
  13 -20  -1   -0.06    0.38
 -20   3 -13   10.69    0.84
 -13  -3 -20   11.35    0.86
 -13   3 -20   10.76    0.87
  -3 -20 -13   10.89    0.84
  -3 -13 -20   11.79    0.93
  13 -20  -3   11.81    0.97
  13  -3  20    9.84    0.86
  13   3  20   10.65    0.87
 -20  -3 -13   11.03    0.90
  13  -5  20    1.28    0.42
  13   5  20    1.10    0.39
 -13 -20  -5    1.48    0.43
  -5 -20 -13    1.59    0.45
  -5 -13 -20    1.25    0.43
 -20   5 -13    1.25    0.41
 -13   5 -20    1.45    0.46
  13 -20   7    4.69    0.63
  -7  13 -20    5.28    0.69
 -13 -20  -7    4.21    0.61
  -7 -20 -13    4.84    0.64
  -7 -13 -20    4.45    0.62
  13  -7  20    5.51    0.66
 -13   7 -20    4.25    0.63
  -9  13 -20    0.21    0.38
 -13 -20  -9    0.14    0.32
  -9 -20 -13    0.25    0.34
  -9 -13 -20    0.24    0.33
 -13   9 -20    0.15    0.36
  13  -9  20    0.18    0.34
 -13  11 -20    0.63    0.38
 -11  13 -20   -0.10    0.41
 -13 -20 -11    0.33    0.33
 -11 -20 -13    0.39    0.37
 -11 -13 -20    0.27    0.30
 -13  13 -20   -0.05    0.33
 -13 -20 -13   -0.14    0.33
 -20   0 -14  140.04    3.44
 -14   0 -20  142.96    3.44
   0 -14 -20  148.17    3.57
  14   0  20  144.31    3.54
 -20   2 -14  525.48    8.42
 -14  -2 -20  517.09    8.40
 -14   2 -20  502.00    8.42
  -2 -20 -14  493.78    8.20
  -2 -14 -20  488.86    8.43
   2 -14 -20  514.37    8.58
  14  -2  20  506.71    8.54
  14   2  20  500.16    8.43
 -20  -2 -14  509.38    8.44
  14  -4  20    1.25    0.45
  14   4  20    1.43    0.42
  14 -20  -4    0.94    0.41
  -4 -20 -14    2.24    0.47
 -14  -4 -20    0.71    0.40
  -4 -14 -20    1.26    0.42
 -20   4 -14    3.12    0.53
 -14   4 -20    1.27    0.42
 -14 -20  -6  428.63    7.30
 -20   6 -14  408.78    7.02
  -6 -20 -14  408.26    7.19
 -14   6 -20  431.54    7.36
  -6 -14 -20  414.01    7.32
  -6  14 -20  425.83    7.38
  14  -6  20  420.31    7.25
 -14 -20  -8  133.18    3.29
  -8 -20 -14  140.85    3.35
  -8 -14 -20  139.49    3.35
 -14   8 -20  140.14    3.41
  -8  14 -20  140.89    3.44
  14  -8  20  135.66    3.24
 -14 -20 -10  342.50    6.23
 -10 -20 -14  346.39    6.28
 -10 -14 -20  358.34    6.27
 -14  10 -20  354.90    6.37
 -10  14 -20  350.20    6.35
 -12  14 -20    0.23    0.31
 -14 -20 -12    0.90    0.37
 -12 -20 -14    0.91    0.37
 -12 -14 -20    1.08    0.37
 -14  12 -20    1.92    0.46
 -14 -20 -14  252.98    4.71
 -14  14 -20  242.84    4.65
  15  -1  20    0.05    0.37
  15   1  20    0.05    0.37
 -20  -1 -15    0.05    0.35
 -20   1 -15    0.25    0.37
  -1 -15 -20   -0.10    0.38
 -15  -1 -20    0.05    0.35
   1 -15 -20   -0.16    0.40
 -15   1 -20   -0.10    0.38
  15 -20   1   -0.05    0.39
  15  -3  20    2.08    0.52
  15   3  20    1.38    0.43
 -20  -3 -15    1.41    0.43
  -3 -20 -15    2.01    0.46
 -15  -3 -20    1.59    0.46
 -20   3 -15    2.10    0.48
  -3 -15 -20    1.88    0.49
   3 -15 -20    0.82    0.37
 -15   3 -20    1.82    0.48
  15  -5  20    1.60    0.43
  15   5  20    1.30    0.41
  15 -20   5    1.55    0.45
  -5 -20 -15    2.29    0.49
 -15  -5 -20    2.33    0.49
  -5 -15 -20    2.31    0.52
 -20   5 -15    2.11    0.48
   5 -15 -20    1.74    0.46
 -15   5 -20    2.21    0.50
 -15 -20  -7    0.39    0.37
  -7  15 -20    0.35    0.39
  -7 -20 -15    0.34    0.35
  -7 -15 -20    0.15    0.34
 -20   7 -15    0.73    0.36
 -15   7 -20    0.25    0.38
  15  -7  20    0.42    0.36
  -9  15 -20    0.05    0.38
 -15 -20  -9   -0.24    0.41
  -9 -20 -15    0.09    0.39
  -9 -15 -20   -0.05    0.32
 -15   9 -20   -0.05    0.40
 -11  15 -20    0.18    0.32
 -15 -20 -11    0.40    0.33
 -11 -20 -15   -0.05    0.30
 -11 -15 -20    0.13    0.27
 -15  11 -20    0.18    0.32
 -13  15 -20    2.00    0.44
 -15 -20 -13    1.72    0.40
 -13 -20 -15    1.22    0.40
 -13 -15 -20    2.16    0.43
 -15  13 -20    1.71    0.43
 -15 -20 -15   -0.11    0.27
 -15  15 -20    0.28    0.25
 -20   0 -16  354.25    6.40
 -16   0 -20  354.91    6.36
   0 -16 -20  349.18    6.41
  16   0  20  351.63    6.44
 -16  -2 -20  127.21    3.16
 -20   2 -16  134.30    3.24
 -16   2 -20  127.74    3.21
  -2 -20 -16  128.11    3.12
  -2 -16 -20  125.63    3.25
   2 -16 -20  127.30    3.20
  16  -2  20  126.62    3.25
  16   2  20  127.18    3.21
 -20  -2 -16  131.97    3.25
 -16  -4 -20   61.56    2.05
 -20   4 -16   61.37    2.03
 -16   4 -20   61.73    2.08
  -4 -20 -16   62.17    2.05
  -4 -16 -20   60.88    2.13
   4 -16 -20   63.38    2.08
  20 -16  -4   61.04    2.10
  16  -4  20   65.08    2.14
  16   4  20   61.07    2.01
 -20   6 -16  129.84    3.10
 -16   6 -20  127.97    3.20
  -6 -20 -16  132.59    3.21
  -6 -16 -20  130.64    3.22
  -6  16 -20  126.68    3.20
  16  -6  20  129.41    3.15
  20  -6  16  123.28    3.07
 -16  -6 -20  133.03    3.14
 -16 -20  -8  318.49    5.74
 -20   8 -16  312.97    5.54
  -8 -20 -16  302.38    5.68
 -16   8 -20  304.79    5.70
  -8 -16 -20  314.53    5.74
  -8  16 -20  303.86    5.71
  -8  20 -16  314.42    5.58
  16  -8  20  315.16    5.60
 -16 -20 -10   90.49    2.49
 -10 -20 -16   91.73    2.51
 -10 -16 -20   88.85    2.46
 -16  10 -20   94.50    2.53
 -10  16 -20   91.16    2.50
 -16 -20 -12   42.27    1.56
 -12 -20 -16   39.87    1.52
 -12 -16 -20   42.19    1.52
 -16  12 -20   40.63    1.52
 -12  16 -20   43.21    1.56
 -16 -20 -14   74.74    2.07
 -14 -20 -16   75.37    2.08
 -14 -16 -20   82.53    2.06
 -16  14 -20   79.50    2.07
 -14  16 -20   77.97    2.05
  17  -1  20    1.86    0.49
  17   1  20    1.97    0.50
 -20  -1 -17    2.45    0.53
  20 -17   1    2.11    0.51
  20 -17  -1    1.53    0.48
  -1 -20 -17    1.24    0.40
 -20   1 -17    2.04    0.50
 -17  -1 -20    1.19    0.41
  -1 -17 -20    0.99    0.44
   1 -17 -20    1.75    0.46
 -17   1 -20    1.88    0.48
  17  -3  20    4.12    0.59
  17   3  20    4.20    0.60
  20  -3  17    4.03    0.60
 -20  -3 -17    3.74    0.59
 -17  -3 -20    4.60    0.60
  -3 -20 -17    4.29    0.59
  -3 -17 -20    5.32    0.67
 -20   3 -17    3.83    0.58
   3 -17 -20    3.80    0.56
 -17   3 -20    5.08    0.65
  17  -5  20    2.13    0.46
  20  -5  17    2.03    0.47
 -17  -5 -20    0.89    0.39
  -5 -20 -17    2.02    0.46
  -5 -17 -20    1.63    0.44
  20 -17   5    1.63    0.46
 -20   5 -17    1.21    0.40
 -17   5 -20    2.19    0.51
  20  -7  17    1.23    0.40
  -7  17 -20    1.19    0.45
  -7 -20 -17    0.87    0.40
  -7 -17 -20    1.53    0.44
 -20   7 -17    1.55    0.41
 -17   7 -20    1.19    0.42
  17  -7  20    1.19    0.40
  -9  17 -20   -0.13    0.35
  -9 -20 -17    0.04    0.30
  -9 -17 -20    0.31    0.32
 -17   9 -20   -0.04    0.35
 -11  17 -20   -0.04    0.30
 -17 -20 -11    0.28    0.29
 -11 -20 -17    0.08    0.27
 -11 -17 -20    0.08    0.26
 -17  11 -20   -0.04    0.36
 -17 -20 -13    0.46    0.29
 -13 -20 -17    0.07    0.28
 -13 -17 -20    0.58    0.30
 -17  13 -20    0.20    0.28
 -13  17 -20    0.07    0.31
 -20   0 -18   95.14    2.61
 -18   0 -20   94.44    2.59
   0 -18 -20   94.00    2.58
  18   0  20   85.26    2.51
  20   0  18   91.63    2.59
 -18  -2 -20  323.54    5.86
 -20   2 -18  328.43    5.88
 -18   2 -20  331.33    5.89
  -2 -20 -18  311.83    5.73
  -2 -18 -20  330.98    5.93
   2 -18 -20  332.31    5.85
  20 -18   2  310.18    5.92
  20 -18  -2  310.04    5.89
  18  -2  20  316.84    5.84
  18   2  20  317.97    5.82
  20  -2  18  314.49    5.84
  20   2  18  314.45    5.83
 -20  -2 -18  328.07    5.88
  18  -4  20    0.14    0.31
  18   4  20    0.26    0.32
  20  -4  18    0.67    0.37
  20   4  18    0.97    0.38
 -18  -4 -20    0.57    0.36
  -4 -20 -18    0.45    0.33
  -4 -18 -20    0.73    0.37
 -20   4 -18    0.44    0.35
 -18   4 -20    0.36    0.32
 -20   6 -18  266.87    4.90
 -18   6 -20  260.47    4.95
  -6 -20 -18  265.01    4.97
  -6 -18 -20  268.41    5.01
  -6  18 -20  252.38    4.88
  18  -6  20  252.78    4.82
  20  -6  18  246.79    4.75
 -20   8 -18   88.32    2.31
 -18   8 -20   89.08    2.41
  -8 -20 -18   89.31    2.42
  -8 -18 -20   87.87    2.41
  -8  18 -20   84.62    2.34
  -8  20 -18   88.82    2.35
  18  -8  20   84.60    2.24
 -18  10 -20  196.00    3.86
 -10 -20 -18  194.31    3.93
 -10 -18 -20  199.45    3.93
 -10  18 -20  196.63    3.87
 -12 -20 -18    0.81    0.31
 -12 -18 -20    0.31    0.25
  19  -1  20    2.70    0.50
  19   1  20    2.13    0.47
  20  -1  19    3.07    0.53
  20   1  19    2.35    0.46
 -20  -1 -19    1.99    0.45
 -19  -1 -20    2.83    0.51
 -20   1 -19    2.46    0.48
  -1 -20 -19    1.94    0.42
  -1 -19 -20    2.36    0.46
 -19   1 -20    2.65    0.51
   1 -19 -20    2.57    0.49
  19  -3  20   -0.04    0.31
  19   3  20    0.08    0.30
  20  -3  19    0.04    0.28
  20   3  19    0.04    0.31
 -20  -3 -19    0.04    0.31
 -19  -3 -20   -0.30    0.37
  -3 -20 -19    0.08    0.30
  -3 -19 -20    0.22    0.31
 -20   3 -19   -0.04    0.33
 -19   3 -20    0.13    0.31
  19  -5  20    1.50    0.40
  20  -5  19    1.72    0.40
  -5  19 -20    1.76    0.42
  -5 -20 -19    1.45    0.39
  -5 -19 -20    1.89    0.43
 -20   5 -19    2.04    0.42
 -19   5 -20    2.36    0.46
  20  -7  19    0.11    0.26
  -7  19 -20    0.24    0.32
  -7  20 -19    0.04    0.29
  -7 -20 -19   -0.04    0.28
  -7 -19 -20    0.04    0.30
 -20   7 -19   -0.15    0.29
 -19   7 -20    0.08    0.28
  19  -7  20   -0.11    0.27
  -9 -20 -19    4.57    0.53
  -9  19 -20    3.84    0.50
  -9  20 -19    3.60    0.48
  -9 -19 -20    3.95    0.52
 -20   9 -19    4.01    0.48
 -19   9 -20    4.33    0.53
  20   0  20   33.86    1.40
 -20   0 -20   37.45    1.47
  20  -2  20    0.49    0.33
  20   2  20    0.16    0.30
 -20  -2 -20    0.16    0.30
  -2 -20 -20    0.16    0.29
 -20   2 -20    0.12    0.30
 -20   4 -20    8.37    0.70
  -4 -20 -20   10.79    0.78
  20  -4  20    8.19    0.68
  20   4  20   10.88    0.76
  20  -6  20    0.21    0.27
  -6  20 -20    0.07    0.28
  -6 -20 -20    0.58    0.32
 -20   6 -20    0.59    0.29
 -20   8 -20   22.69    1.03
  -8 -20 -20   24.69    1.10
  -8  20 -20   23.10    1.04
   0 -21   1   -0.06    0.35
   0 -21  -1    0.11    0.35
  -1   0  21    0.27    0.31
   0   1  21    0.31    0.32
   0  -1  21    0.14    0.33
   1   0  21    0.23    0.32
  -1 -21   0   -0.11    0.36
  -2 -21  -1    0.45    0.39
  -1 -21   2    0.22    0.35
  -1 -21  -2    0.11    0.37
   2 -21   1    0.27    0.34
   2 -21  -1    0.76    0.41
  -2   1  21    0.09    0.30
  -2  -1  21    0.14    0.33
  -1   2  21    0.13    0.31
  -1  -2  21    0.05    0.32
   1 -21   2    0.16    0.38
   1 -21  -2    0.16    0.36
   1   2  21    0.22    0.31
   1  -2  21    0.28    0.32
   2   1  21    0.27    0.32
   2  -1  21    0.33    0.33
  -2 -21   1    0.39    0.41
   0 -21  -3    0.87    0.38
  -3   0  21    0.05    0.31
   0   3  21    0.13    0.29
   0  -3  21    0.14    0.33
   3   0  21    0.42    0.34
   3 -21   2   13.35    1.01
  -2 -21   3   12.92    1.00
  -2 -21  -3   12.07    0.97
  -3   2  21   14.37    0.93
  -3  -2  21   14.00    0.95
  -2   3  21   13.81    0.90
  -2  -3  21   14.79    0.97
   2   3  21   13.02    0.89
   2  -3  21   12.34    0.90
   3   2  21   12.20    0.87
   3  -2  21   13.67    0.93
   4 -21   1    1.34    0.47
   4 -21  -1    2.01    0.51
   1 -21   4    1.99    0.49
   1 -21  -4    1.87    0.50
  -1 -21   4    1.82    0.48
  -1 -21  -4    1.28    0.47
  -4   1  21    2.28    0.46
  -4  -1  21    2.30    0.45
  -1   4  21    2.26    0.47
  -1  -4  21    2.63    0.51
   1   4  21    2.26    0.45
   1  -4  21    1.66    0.42
   4  -1  21    2.34    0.46
   4   1  21    2.33    0.49
   4 -21   3    5.02    0.68
   4 -21  -3    5.16    0.70
  -4   3  21    5.34    0.62
  -4  -3  21    5.23    0.65
  -3   4  21    4.77    0.59
  -3  -4  21    5.18    0.63
   3   4  21    5.14    0.60
   3  -4  21    5.65    0.64
   4  -3  21    5.09    0.64
   4   3  21    4.95    0.60
   5 -21   0    0.17    0.37
  -5   0  21   -0.09    0.34
   0  -5  21   -0.05    0.31
   0 -21   5   -0.11    0.37
   0 -21  -5   -0.10    0.35
   5   0  21    0.38    0.34
   2 -21   5    0.26    0.36
   2 -21  -5    0.58    0.42
  -5   2  21    0.58    0.35
  -5  -2  21    0.57    0.36
   5 -21   2    1.50    0.49
   5 -21  -2    0.67    0.39
  -2  -5  21    0.29    0.33
   2  -5  21    0.76    0.35
   5  -2  21    0.19    0.33
   5   2  21    0.37    0.33
  -5   4 -21    0.56    0.36
  -4   5 -21    0.59    0.39
  -5  -4  21    0.87    0.39
  -4  -5  21    1.15    0.44
   4  -5  21    0.48    0.33
   5  -4  21    0.93    0.44
   5   4  21    0.92    0.38
   5 -21   4    1.04    0.45
   5 -21  -4    0.71    0.48
  -1 -21  -6    1.33    0.46
   1 -21   6    1.40    0.49
  -6   1  21    1.59    0.41
  -6  -1  21    1.84    0.46
  -1 -21   6    1.35    0.45
  -1  -6  21    1.43    0.41
   1  -6  21    1.37    0.38
   6  -1  21    1.70    0.43
   6   1  21    2.37    0.49
  -6   3 -21    0.17    0.31
  -3   6 -21    0.13    0.30
   6 -21   3   -0.05    0.36
  -6   3  21    0.04    0.33
  -6  -3  21    0.39    0.35
  -3  -6  21    0.14    0.32
   3  -6  21    0.29    0.35
   6  -3  21    0.10    0.34
   6   3  21    0.14    0.31
   5 -21   6   14.72    1.04
   5 -21  -6   13.33    1.00
  -5  -6 -21   13.90    0.92
  -6   5 -21   12.42    0.90
  -5   6 -21   13.63    0.93
  -6  -5  21   12.84    0.93
  -5  -6  21   13.43    0.95
   5  -6  21   14.14    0.97
   6  -5  21   13.02    0.95
   6 -21   5   12.51    0.98
   6 -21  -5   14.81    1.05
   7 -21   0   -0.06    0.35
  -7   0  21   -0.05    0.37
   0  -7  21    0.19    0.34
   7   0  21    0.29    0.34
   2 -21   7    7.22    0.73
  -7   2 -21    8.40    0.73
  -2   7 -21    8.37    0.72
  -7  -2  21    9.14    0.79
  -2  -7  21    8.13    0.75
   2  -7  21    7.71    0.74
   7  -2  21    8.00    0.76
   7   2  21    7.93    0.75
   7 -21   2    7.75    0.80
   7 -21  -2    5.94    0.75
  -7   4 -21    6.41    0.67
  -4   7 -21    5.88    0.67
  -7  -4  21    6.43    0.72
   7 -21  -4    4.76    0.69
  -4  -7  21    5.44    0.62
   4  -7  21    6.38    0.69
   7  -4  21    7.35    0.73
   7   4  21    5.93    0.64
   7 -21   4    5.80    0.72
  -7   6 -21    5.15    0.64
  -6   7 -21    5.15    0.64
  -6  -7 -21    5.45    0.64
   7  -6  21    5.35    0.65
  -6  -7  21    4.49    0.60
   6  -7  21    4.52    0.59
  -1  -8  21    0.42    0.33
   1  -8  21    0.28    0.30
  -8   1 -21    0.40    0.32
   8  -1  21    0.31    0.34
   8   1  21    0.30    0.38
  -8   3 -21    0.74    0.35
  -3   8 -21    0.51    0.35
   8 -21   3    0.73    0.42
   8 -21  -3    1.13    0.43
  -3  -8  21    0.42    0.34
   3  -8  21    0.61    0.35
   8  -3  21    0.81    0.40
   8   3  21    0.33    0.32
  -8   5 -21    0.72    0.40
  -5   8 -21    0.44    0.37
  -8 -21  -5    0.17    0.30
   8 -21   5    0.22    0.41
   8 -21  -5    0.60    0.40
  -5  -8 -21    0.43    0.37
  -5  -8  21    0.51    0.36
   5  -8  21    0.33    0.32
   8  -5  21    0.50    0.35
  -8   7 -21    0.20    0.35
  -7   8 -21    0.30    0.36
  -8 -21  -7    0.60    0.35
  -7 -21  -8    0.32    0.33
  -7  -8 -21    0.45    0.34
   7  -8  21    0.48    0.35
   8  -7  21    0.49    0.37
   9 -21   0   -0.12    0.46
 -21   0  -9   -0.13    0.32
  -9   0 -21    0.04    0.34
   0  -9  21    0.50    0.37
   9   0  21    0.05    0.35
  -9   2 -21    8.27    0.76
  -2  -9  21    6.73    0.67
   2  -9  21    6.60    0.67
   9  -2  21    5.90    0.70
   9   2  21    5.82    0.68
   9 -21   2    6.28    0.72
   9 -21  -2    7.26    0.80
  -9   4 -21    0.53    0.40
  -9 -21  -4    0.96    0.37
  -4   9 -21    1.19    0.47
   9 -21   4    0.28    0.41
   9 -21  -4    1.01    0.46
  -4  -9 -21    1.15    0.42
  -4  -9  21    0.32    0.31
   4  -9  21    0.73    0.37
   9  -4  21    0.52    0.40
   9   4  21    1.07    0.39
  -9 -21  -6    5.99    0.64
  -6 -21  -9    5.82    0.65
  -6  -9 -21    6.46    0.70
  -9   6 -21    6.59    0.74
  -6   9 -21    7.62    0.76
   9 -21  -6    4.81    0.68
   6  -9  21    5.62    0.64
   9  -6  21    6.89    0.73
   9 -21   6    5.96    0.73
  -9   8 -21    0.26    0.39
  -8   9 -21   -0.05    0.38
  -9 -21  -8    0.05    0.33
  -8 -21  -9   -0.05    0.32
  -8  -9 -21    0.32    0.35
   8  -9  21    0.05    0.32
   9  -8  21   -0.05    0.32
 -10  -1 -21   20.30    1.12
 -10   1 -21   19.60    1.11
  -1 -10  21   18.00    1.05
   1 -10  21   20.10    1.11
  10  -1  21   20.11    1.20
  10   1  21   21.10    1.21
 -21  -1 -10   18.27    1.08
 -21   1 -10   17.91    1.05
  10 -21   3    2.54    0.55
  10 -21  -3    3.01    0.60
 -10 -21  -3    2.39    0.49
  -3 -10 -21    3.70    0.58
  -3 -10  21    2.12    0.46
   3 -10  21    3.50    0.51
 -10   3 -21    3.68    0.58
  10  -3  21    2.88    0.54
  10   3  21    2.28    0.48
 -10 -21  -5   12.40    0.89
 -10   5 -21   12.38    0.94
  -5 -10 -21   11.38    0.90
  -5  10 -21   12.52    0.97
   5 -10  21   12.23    0.88
  10  -5  21   11.58    0.92
  10 -21   5   10.03    0.89
  10 -21  -5   11.23    0.94
 -10   7 -21    1.35    0.45
  -7  10 -21    0.99    0.42
 -10 -21  -7    1.41    0.43
  -7 -21 -10    1.03    0.40
  -7 -10 -21    1.20    0.42
   7 -10  21    1.02    0.38
  10  -7  21    1.57    0.46
 -10   9 -21    2.96    0.55
  -9  10 -21    1.74    0.50
 -10 -21  -9    2.03    0.46
  -9 -21 -10    1.96    0.47
  -9 -10 -21    1.19    0.39
  10  -9  21    2.25    0.50
 -21   0 -11   -0.09    0.32
 -11   0 -21    0.14    0.35
  11   0  21   -0.05    0.38
 -21   2 -11    5.43    0.63
  11 -21   2    5.86    0.74
  -2 -11 -21    4.98    0.66
  11  -2  21    6.38    0.73
  11   2  21    6.70    0.74
  11 -21  -2    5.99    0.77
 -11   2 -21    4.52    0.63
 -21  -2 -11    6.16    0.68
 -11   4 -21    5.46    0.69
  -4 -11 -21    6.54    0.73
 -11 -21  -4    4.93    0.62
  -4  11 -21    6.70    0.75
  11  -4  21    5.77    0.70
  11   4  21    5.86    0.66
  11 -21  -6    4.05    0.62
 -11 -21  -6    4.53    0.61
  -6  11 -21    5.74    0.70
  -6 -21 -11    4.66    0.59
  -6 -11 -21    3.24    0.55
 -11   6 -21    3.56    0.57
  11  -6  21    3.80    0.59
 -11   8 -21    1.56    0.47
  -8  11 -21    1.30    0.44
 -11 -21  -8    1.72    0.45
  -8 -21 -11    1.29    0.41
  -8 -11 -21    1.47    0.43
  11  -8  21    0.95    0.38
 -11  10 -21    1.50    0.48
 -10  11 -21    1.39    0.47
 -11 -21 -10    1.92    0.47
 -10 -21 -11    1.63    0.44
 -10 -11 -21    1.39    0.38
  12 -21  -1   -0.12    0.41
 -21  -1 -12   -0.05    0.33
 -21   1 -12    0.66    0.37
  -1 -12 -21   -0.05    0.35
 -12  -1 -21    0.66    0.36
 -12   1 -21    0.39    0.39
  12  -1  21    0.11    0.36
  12   1  21    0.05    0.36
 -21   3 -12    0.86    0.39
  -3 -12 -21    0.84    0.40
 -12   3 -21    0.65    0.42
  12  -3  21    1.06    0.45
  12   3  21    0.59    0.37
  12 -21  -5    0.55    0.42
 -12 -21  -5    0.38    0.37
  -5  12 -21   -0.05    0.36
  -5 -21 -12    0.23    0.33
  -5 -12 -21    0.46    0.38
 -12   5 -21   -0.05    0.34
  12  -5  21    0.46    0.36
 -12 -21  -7    5.25    0.65
  -7  12 -21    4.42    0.64
  -7 -21 -12    4.10    0.57
  -7 -12 -21    5.07    0.64
 -12   7 -21    3.85    0.60
  12  -7  21    3.77    0.60
  -9  12 -21    3.60    0.59
 -12 -21  -9    2.86    0.52
  -9 -21 -12    3.10    0.55
  -9 -12 -21    2.89    0.50
  12  -9  21    3.07    0.51
 -12   9 -21    2.87    0.53
 -12  11 -21    0.30    0.39
 -11  12 -21    0.44    0.35
 -12 -21 -11    0.28    0.29
 -11 -21 -12    0.61    0.35
 -11 -12 -21    0.55    0.31
  13   0  21    0.37    0.44
 -21   0 -13   -0.05    0.33
   0 -13 -21    0.38    0.41
 -13   0 -21    0.10    0.35
 -21   2 -13    9.81    0.82
 -13  -2 -21   10.18    0.84
 -13   2 -21   10.31    0.86
  -2 -13 -21    7.53    0.79
  13  -2  21   10.35    0.90
  13   2  21    9.11    0.83
 -21  -2 -13    9.87    0.84
  13 -21   4    1.95    0.53
  13 -21  -4    1.26    0.46
  -4 -21 -13    1.32    0.43
 -21   4 -13    1.33    0.42
  -4 -13 -21    1.41    0.48
 -13   4 -21    1.16    0.46
  13  -4  21    1.67    0.48
  13   4  21    1.42    0.45
 -13 -21  -6    5.12    0.65
  -6 -21 -13    5.75    0.67
 -13   6 -21    5.67    0.71
  -6  13 -21    5.97    0.72
  -6 -13 -21    4.64    0.62
  13  -6  21    5.56    0.66
  -8  13 -21   -0.05    0.35
 -13 -21  -8    0.38    0.36
  -8 -21 -13   -0.09    0.33
  -8 -13 -21   -0.19    0.36
 -13   8 -21    0.20    0.35
  13  -8  21    0.09    0.31
 -10  13 -21    1.44    0.47
 -13 -21 -10    1.10    0.38
 -10 -21 -13    0.97    0.37
 -10 -13 -21    0.92    0.35
 -13  10 -21    1.46    0.45
 -12  13 -21    0.70    0.37
 -13 -21 -12    0.53    0.33
 -12 -21 -13    0.13    0.31
 -13  12 -21    0.50    0.38
 -21   1 -14    5.35    0.65
 -14  -1 -21    5.70    0.68
 -14   1 -21    5.05    0.65
 -21  -1 -14    4.65    0.63
  -1 -14 -21    5.04    0.66
   1 -14 -21    5.20    0.69
  14  -1  21    6.02    0.71
  14   1  21    5.68    0.69
 -21   3 -14   13.18    0.92
 -14  -3 -21   11.34    0.86
 -14   3 -21   11.99    0.93
  -3 -14 -21   12.03    0.94
   3 -14 -21   12.76    0.99
  14  -3  21   11.40    0.92
  14   3  21   12.96    0.94
  14 -21   5    0.82    0.41
  -5  14 -21    0.57    0.37
  -5 -21 -14    1.15    0.40
  -5 -14 -21    0.86    0.40
 -21   5 -14    1.30    0.41
 -14   5 -21    1.39    0.46
  14  -5  21    1.30    0.45
  -7  14 -21    1.32    0.44
 -14 -21  -7    1.04    0.39
  -7 -21 -14    1.07    0.37
  -7 -14 -21    0.79    0.39
 -14   7 -21    0.95    0.42
  14  -7  21    0.90    0.40
  -9  14 -21   -0.19    0.36
 -14 -21  -9    0.28    0.31
  -9 -21 -14   -0.14    0.32
  -9 -14 -21    0.27    0.33
 -14   9 -21   -0.05    0.37
 -11  14 -21    1.04    0.39
 -14 -21 -11    1.09    0.37
 -11 -21 -14    1.37    0.40
 -11 -14 -21    1.07    0.36
 -14  11 -21    0.64    0.36
 -14 -21 -13    0.24    0.29
 -13 -21 -14   -0.04    0.28
 -14  13 -21    0.08    0.31
 -13  14 -21    0.20    0.30
  15   0  21    0.05    0.37
 -21   0 -15    0.10    0.34
   0 -15 -21   -0.05    0.34
 -15   0 -21    0.43    0.36
 -21   2 -15    7.71    0.74
 -15  -2 -21    6.70    0.70
 -15   2 -21    6.05    0.69
  -2 -15 -21    7.54    0.77
   2 -15 -21    6.82    0.75
  15  -2  21    7.28    0.77
  15   2  21    6.08    0.69
 -21  -2 -15    6.44    0.71
  15   4  21    1.10    0.40
  15 -21  -4    1.04    0.39
  -4 -21 -15    1.09    0.39
 -15  -4 -21    1.04    0.39
 -21   4 -15    1.21    0.38
  -4 -15 -21    1.52    0.43
   4 -15 -21    1.35    0.43
 -15   4 -21    1.37    0.45
  15  -4  21    0.70    0.37
  -6  15 -21    1.13    0.42
  -6 -21 -15    0.64    0.35
  -6 -15 -21    1.28    0.42
 -21   6 -15    0.71    0.35
   6 -15 -21    0.71    0.39
 -15   6 -21    1.26    0.43
  15  -6  21    0.70    0.38
  -8  15 -21    2.50    0.52
 -15 -21  -8    3.26    0.52
  -8 -21 -15    4.06    0.56
  -8 -15 -21    3.75    0.54
 -15   8 -21    5.07    0.63
  15  -8  21    3.24    0.52
 -10  15 -21    1.80    0.45
 -15 -21 -10    1.56    0.41
 -10 -21 -15    1.92    0.42
 -10 -15 -21    1.70    0.41
 -15  10 -21    2.19    0.46
 -12  15 -21    0.57    0.33
 -15 -21 -12    0.64    0.31
 -12 -21 -15    0.89    0.35
 -12 -15 -21    0.85    0.32
 -15  12 -21    0.65    0.34
 -15 -21 -14    1.56    0.36
 -14 -21 -15    1.84    0.38
 -15  14 -21    1.58    0.37
 -14  15 -21    1.78    0.38
  16  -1  21    0.30    0.38
  16   1  21    0.25    0.35
  16 -21   1    0.21    0.35
  16 -21  -1    0.16    0.35
 -21  -1 -16    0.14    0.36
 -21   1 -16    0.43    0.33
 -16  -1 -21    0.33    0.35
  -1 -16 -21    0.25    0.39
   1 -16 -21    0.10    0.34
 -16   1 -21    0.33    0.37
  16  -3  21    0.54    0.37
  16   3  21    1.06    0.39
  -3 -21 -16    0.58    0.33
 -16  -3 -21    0.55    0.37
 -21   3 -16    0.73    0.37
  -3 -16 -21    0.90    0.40
   3 -16 -21    0.57    0.36
 -16   3 -21    1.05    0.43
  16 -21   5    0.05    0.33
  -5  16 -21    0.05    0.33
 -16  -5 -21   -0.04    0.33
  -5 -21 -16    0.04    0.29
  -5 -16 -21   -0.15    0.35
 -21   5 -16   -0.17    0.33
   5 -16 -21    0.05    0.31
 -16   5 -21    0.09    0.34
  16  -5  21    0.14    0.31
  21  -7  16    2.15    0.43
  -7  16 -21    1.52    0.45
  -7 -21 -16    1.10    0.39
  -7 -16 -21    1.78    0.43
 -16   7 -21    1.74    0.44
  16  -7  21    2.42    0.44
  -9  16 -21    0.04    0.30
 -16 -21  -9    0.04    0.30
  -9 -21 -16    0.13    0.31
  -9 -16 -21    0.22    0.30
 -16   9 -21    0.22    0.31
 -11  16 -21    0.43    0.33
 -16 -21 -11    0.24    0.30
 -11 -21 -16    0.44    0.28
 -11 -16 -21    0.23    0.25
 -16  11 -21    0.12    0.29
 -16 -21 -13   -0.11    0.24
 -13 -21 -16    0.07    0.26
 -13 -16 -21    0.10    0.24
 -16  13 -21    0.10    0.26
 -13  16 -21    0.07    0.25
  17   0  21    0.05    0.33
 -21   0 -17    0.09    0.32
 -17   0 -21   -0.37    0.41
   0 -17 -21   -0.19    0.32
 -17  -2 -21    7.81    0.73
 -21   2 -17    7.04    0.70
  21  -2  17    5.86    0.68
 -17   2 -21    7.28    0.72
  -2 -17 -21    7.76    0.74
   2 -17 -21    6.56    0.69
  17 -21   2    5.91    0.69
  17 -21  -2    6.33    0.71
  17  -2  21    6.38    0.69
  17   2  21    6.65    0.69
 -21  -2 -17    7.19    0.71
  17  -4  21    0.27    0.35
  17   4  21    0.34    0.30
  21  -4  17    0.44    0.35
 -17  -4 -21    0.60    0.34
  -4 -21 -17    0.82    0.34
  -4 -17 -21    0.75    0.39
 -21   4 -17    0.43    0.34
   4 -17 -21    0.65    0.34
 -17   4 -21    1.18    0.40
  21  -6  17    0.36    0.33
  -6  17 -21    0.31    0.36
  -6 -21 -17    0.51    0.31
  -6 -17 -21    0.40    0.37
 -21   6 -17    0.28    0.32
 -17   6 -21    0.58    0.35
  17  -6  21    0.25    0.32
  -8  17 -21    0.33    0.35
  -8 -21 -17    0.29    0.32
  -8 -17 -21    0.47    0.33
 -17   8 -21    0.29    0.34
  17  -8  21    0.45    0.31
 -10  17 -21    1.60    0.40
 -10 -21 -17    1.82    0.39
 -10 -17 -21    1.60    0.38
 -17  10 -21    1.70    0.38
 -12 -21 -17    0.21    0.26
  18  -1  21    3.24    0.50
  18   1  21    3.14    0.50
  18 -21   1    2.87    0.53
  18 -21  -1    2.81    0.53
  21  -1  18    2.81    0.50
  21   1  18    3.35    0.53
 -21  -1 -18    3.34    0.53
 -21   1 -18    2.33    0.49
 -18  -1 -21    3.07    0.51
  -1 -18 -21    2.63    0.50
 -18   1 -21    2.93    0.49
   1 -18 -21    3.44    0.52
  18  -3  21    3.20    0.52
  18   3  21    3.33    0.51
  21  -3  18    3.86    0.53
  21   3  18    3.22    0.51
  18 -21   3    3.68    0.56
 -18  -3 -21    2.81    0.49
  -3 -21 -18    3.87    0.52
 -21   3 -18    3.29    0.51
  -3 -18 -21    3.76    0.54
 -18   3 -21    4.42    0.57
  21  -5  18    3.81    0.52
  21   5  18    4.19    0.53
  -5  18 -21    4.14    0.55
  -5 -21 -18    3.85    0.53
  -5 -18 -21    4.64    0.58
 -21   5 -18    3.78    0.51
 -18   5 -21    3.96    0.55
  18  -5  21    3.90    0.52
  -7 -21 -18    4.85    0.57
  -7 -18 -21    5.04    0.58
  -7  18 -21    3.47    0.51
  -7  21 -18    4.71    0.54
 -21   7 -18    3.76    0.50
 -18   7 -21    4.36    0.56
  18  -7  21    5.28    0.54
  21  -7  18    4.89    0.53
  -9  18 -21    3.93    0.51
  -9 -21 -18    3.83    0.49
  -9 -18 -21    3.41    0.46
 -18   9 -21    3.52    0.48
  19   0  21    0.04    0.29
  21   0  19   -0.17    0.33
 -21   0 -19    0.08    0.29
 -19   0 -21   -0.17    0.28
   0 -19 -21    0.37    0.31
  19  -2  21    1.32    0.39
  19   2  21    1.05    0.36
  21  -2  19    1.02    0.38
  21   2  19    1.02    0.36
 -19  -2 -21    1.08    0.37
  -2 -21 -19    1.54    0.39
 -21   2 -19    1.05    0.38
  -2 -19 -21    1.30    0.38
 -19   2 -21    0.83    0.35
  19  -4  21    1.06    0.36
  19   4  21    0.81    0.33
  21  -4  19    0.76    0.32
  21   4  19    0.76    0.31
  -4  19 -21    1.03    0.37
  -4 -21 -19    1.01    0.33
  -4 -19 -21    1.17    0.36
 -21   4 -19    0.86    0.34
 -19   4 -21    1.42    0.37
 -21   6 -19    4.89    0.54
  -6 -21 -19    4.19    0.51
  -6 -19 -21    5.62    0.58
  -6  19 -21    4.63    0.53
  -6  21 -19    5.07    0.54
 -19   6 -21    4.16    0.53
  19  -6  21    4.90    0.53
  21  -6  19    4.54    0.50
  -8  19 -21    0.37    0.27
  -8 -21 -19    0.14    0.26
  -8 -19 -21    0.11    0.26
 -19   8 -21    0.10    0.25
  20  -1  21    0.34    0.29
  20   1  21    0.49    0.30
  21  -1  20    0.30    0.27
  21   1  20    0.60    0.30
 -21  -1 -20    0.56    0.31
 -20  -1 -21    0.53    0.31
 -21   1 -20    0.45    0.30
 -20   1 -21    0.27    0.31
  -1 -20 -21    0.37    0.28
  20  -3  21    0.33    0.27
  20   3  21    0.32    0.28
  21  -3  20    0.51    0.29
  21   3  20    0.47    0.30
  -3 -21 -20    0.33    0.28
  -3 -20 -21    0.11    0.26
 -21   3 -20    0.18    0.30
 -20   3 -21    0.56    0.30
  21  -5  20    0.50    0.28
  -5  20 -21    0.34    0.25
  -5  21 -20    0.61    0.28
  -5 -21 -20    0.56    0.29
  -5 -20 -21    0.83    0.34
 -21   5 -20    0.45    0.27
 -20   5 -21    0.63    0.33
  20  -5  21    0.78    0.31
   0 -22   0    0.17    0.36
   0   0  22    0.05    0.30
  -1 -22   1    4.55    0.66
  -1 -22  -1    4.95    0.69
   1 -22   1    3.69    0.63
   1 -22  -1    3.97    0.64
   1  -1  22    5.66    0.66
  -1   1  22    4.45    0.60
  -1  -1  22    4.06    0.57
   1   1  22    3.99    0.54
   0 -22   2   94.63    2.84
  -2   0  22   95.76    2.65
   0   2  22   92.48    2.58
   0  -2  22   99.06    2.71
   2   0  22   96.87    2.67
   2 -22  -2    0.23    0.35
  -2   2  22   -0.18    0.35
  -2  -2  22    1.38    0.42
   2  -2  22    2.26    0.54
   3 -22  -1   11.41    0.96
  -1 -22   3   10.57    0.94
  -3   1  22   11.91    0.88
  -3  -1  22   12.56    0.91
  -1   3  22   13.29    0.91
  -1  -3  22   14.07    0.99
   1   3  22   12.22    0.89
   1  -3  22   12.40    0.92
   3   1  22   12.55    0.91
   3  -1  22   12.80    0.93
   3 -22   3    1.01    0.45
   3 -22  -3    0.22    0.40
  -3   3  22    0.76    0.40
  -3  -3  22    1.34    0.46
   3   3  22    0.86    0.40
   3  -3  22    0.65    0.40
   4 -22   0  221.21    4.83
   0 -22   4  219.23    4.76
   0 -22  -4  210.98    4.70
  -4   0  22  224.20    4.57
   0   4  22  229.27    4.47
   0  -4  22  231.96    4.64
   4   0  22  225.72    4.59
   2 -22   4  621.71   10.18
   2 -22  -4  596.32   10.11
  -4   2  22  636.70    9.82
  -4  -2  22  620.47    9.91
  -2  -4  22  630.05    9.96
   2   4  22  645.40    9.76
   2  -4  22  630.46    9.95
   4   2  22  617.27    9.83
   4  -2  22  621.06    9.94
  -4  -4  22   -0.05    0.34
   4   4  22    0.75    0.36
   4  -4  22    0.15    0.35
   5 -22   1    1.51    0.49
   5 -22  -1    1.92    0.51
  -5   1  22    1.61    0.43
  -5  -1  22    2.25    0.50
  -1  -5  22    2.09    0.49
   1  -5  22    1.68    0.48
   5  -1  22    1.41    0.45
   5   1  22    1.91    0.46
   5 -22   3    5.83    0.74
   5 -22  -3    5.75    0.75
   3 -22   5    5.85    0.74
  -5   3  22    6.90    0.68
  -5  -3  22    6.21    0.71
  -3  -5  22    6.26    0.69
   3  -5  22    6.24    0.72
   5  -3  22    5.76    0.70
   5   3  22    5.60    0.66
   5 -22   5   -0.05    0.41
  -5  -5  22    0.40    0.39
   5  -5  22   -0.10    0.35
   0 -22   6  149.04    3.64
   0 -22  -6  136.73    3.51
  -6   0  22  151.85    3.51
   0  -6  22  157.61    3.60
   6   0  22  150.53    3.55
   6 -22   0  145.73    3.72
  -6   2  22    2.69    0.50
  -6  -2  22    2.86    0.51
  -2  -6  22    4.28    0.60
   2  -6  22    3.78    0.56
   6 -22  -2    2.95    0.60
   6  -2  22    2.19    0.49
   6   2  22    3.29    0.57
   4 -22  -6  617.24   10.13
  -6  -4  22  627.21   10.01
  -4  -6  22  649.53   10.06
   4  -6  22  640.22   10.02
   6  -4  22  641.82   10.11
   6   4  22  617.75    9.85
   6 -22   4  619.68   10.27
  -6   6 -22    0.28    0.35
  -6  -6  22    0.75    0.42
   6  -6  22   -0.15    0.36
   7 -22   1    1.73    0.50
  -1  -7  22    2.00    0.46
   1  -7  22    2.30    0.48
   7  -1  22    1.93    0.47
   7   1  22    2.08    0.47
  -3  -7  22    1.60    0.47
   3  -7  22    1.12    0.43
   7  -3  22    1.12    0.44
   7   3  22    0.90    0.37
  -7   5 -22    4.91    0.62
  -5   7 -22    4.34    0.58
  -5  -7 -22    4.69    0.61
   7  -5  22    5.27    0.67
  -5  -7  22    4.03    0.59
   7 -22   5    4.75    0.69
   5  -7  22    4.32    0.61
   7 -22   7   22.96    1.27
  -7   7 -22   21.76    1.22
   7  -7  22   24.26    1.25
   8 -22   0    2.56    0.56
   0  -8  22    2.73    0.52
   8   0  22    2.20    0.50
  -2  -8  22  154.62    3.57
   2  -8  22  157.86    3.59
   8  -2  22  157.98    3.69
   8   2  22  156.40    3.62
   8 -22   2  154.45    3.83
   8 -22  -2  146.15    3.76
  -8   4 -22  169.61    3.78
  -4  -8 -22  171.41    3.85
  -4   8 -22  168.45    3.79
  -4  -8  22  171.26    3.81
   4  -8  22  176.35    3.86
   8  -4  22  170.86    3.91
   8   4  22  175.56    3.80
  -6  -8 -22   80.18    2.35
  -8   6 -22   81.43    2.43
  -6   8 -22   80.11    2.41
   6  -8  22   78.98    2.36
   8  -6  22   85.72    2.51
   8 -22   6   81.20    2.53
   8 -22  -6   81.88    2.54
  -8   8 -22   -0.05    0.37
   8  -8  22   -0.05    0.34
  -1  -9  22    0.37    0.33
   1  -9  22    0.42    0.34
   9  -1  22    0.52    0.36
   9   1  22    0.71    0.40
  -3   9 -22    2.14    0.51
   9 -22   3    2.63    0.57
   9 -22  -3    2.23    0.55
  -3  -9 -22    1.86    0.49
  -3  -9  22    2.10    0.47
   3  -9  22    2.66    0.51
  -9   3 -22    2.57    0.53
   9  -3  22    2.97    0.55
   9   3  22    2.52    0.51
  -9   5 -22    8.99    0.82
  -5  -9 -22   11.30    0.87
  -5   9 -22   10.42    0.88
  -5  -9  22    9.62    0.81
   5  -9  22    9.84    0.83
   9  -5  22   10.24    0.87
   9 -22  -5    8.85    0.86
  -9   7 -22    0.15    0.37
  -7   9 -22    0.05    0.34
  -9 -22  -7    0.09    0.32
  -7  -9 -22    0.64    0.36
   7  -9  22    0.23    0.33
   9  -7  22    0.25    0.32
  -9   9 -22    4.55    0.61
  -9 -22  -9    4.17    0.56
   9  -9  22    4.78    0.60
   0 -10  22  129.63    3.12
  10   0  22  135.55    3.36
  10 -22   0  122.70    3.40
 -22   0 -10  132.62    3.11
  10 -22   2    0.76    0.43
  10 -22  -2    0.94    0.46
  -2 -10 -22    2.70    0.54
  -2 -10  22    1.04    0.40
 -10   2 -22    0.76    0.39
   2 -10  22    0.72    0.36
  10  -2  22    1.87    0.51
  10   2  22    2.83    0.53
 -10 -22  -4  526.91    8.43
 -10   4 -22  516.34    8.57
  -4 -10 -22  521.13    8.60
  -4  10 -22  521.87    8.63
  -4 -10  22  521.62    8.43
   4 -10  22  518.40    8.38
  10  -4  22  526.84    8.71
  10   4  22  511.59    8.47
  10 -22  -4  525.13    8.86
  -6  10 -22    2.81    0.55
 -10 -22  -6    3.71    0.55
  -6 -10 -22    3.68    0.57
   6 -10  22    4.82    0.60
  10  -6  22    4.60    0.62
 -10   6 -22    4.83    0.65
 -10 -22  -8   65.16    2.07
  -8 -22 -10   62.86    2.04
  -8 -10 -22   63.69    2.05
 -10   8 -22   57.46    2.07
  -8  10 -22   66.20    2.19
  10  -8  22   64.24    2.09
 -10  10 -22    1.32    0.45
 -10 -22 -10    0.37    0.33
 -22   1 -11    4.94    0.61
  -1 -11 -22    5.17    0.69
 -11   1 -22    4.77    0.61
  11  -1  22    4.28    0.62
  11   1  22    4.03    0.63
  -3  11 -22    0.75    0.42
  -3 -11 -22    0.99    0.42
 -11   3 -22    0.69    0.42
  11  -3  22    1.38    0.47
  11   3  22    1.08    0.43
 -11 -22  -5    5.35    0.64
  -5  11 -22    5.22    0.70
  11 -22  -5    4.69    0.67
  -5 -11 -22    4.21    0.64
 -11   5 -22    4.92    0.66
  11  -5  22    5.18    0.64
  -7 -22 -11    5.15    0.62
  -7  11 -22    4.18    0.63
 -11 -22  -7    4.72    0.60
  -7 -11 -22    4.26    0.58
  11  -7  22    5.48    0.66
 -11   7 -22    3.97    0.62
 -11   9 -22    0.10    0.34
  -9  11 -22    0.41    0.37
 -11 -22  -9    0.41    0.30
  -9 -22 -11    0.77    0.41
  -9 -11 -22    0.96    0.38
  11  -9  22    0.89    0.36
 -11  11 -22    4.85    0.61
 -11 -22 -11    3.51    0.55
 -12   0 -22  126.24    3.10
   0 -12 -22  130.53    3.32
  12   0  22  126.74    3.24
  12 -22   0  118.48    3.30
 -22   0 -12  121.31    3.03
 -12   2 -22  500.84    8.22
  -2 -12 -22  483.85    8.29
  12  -2  22  509.38    8.41
  12   2  22  486.55    8.23
  12 -22   2  493.24    8.53
  12 -22  -2  495.59    8.55
 -22   2 -12  487.07    8.00
  -4  12 -22    0.05    0.38
  -4 -12 -22    1.59    0.48
 -12   4 -22    1.44    0.48
  12  -4  22    0.21    0.42
  12   4  22    0.05    0.34
 -12 -22  -6  352.78    6.22
  -6 -22 -12  335.64    6.09
 -12   6 -22  352.26    6.34
  -6 -12 -22  354.50    6.31
  -6  12 -22  335.62    6.31
  12  -6  22  359.02    6.35
  12 -22  -6  348.09    6.40
 -12 -22  -8  117.66    2.94
  -8 -22 -12  111.09    2.88
  -8 -12 -22  120.17    2.98
 -12   8 -22  115.25    3.02
  -8  12 -22  118.37    3.05
  12  -8  22  117.92    2.92
 -12 -22 -10  257.38    4.90
 -10 -22 -12  253.86    4.91
 -10 -12 -22  256.09    4.79
 -12  10 -22  251.22    4.97
 -10  12 -22  265.04    5.07
 -12 -22 -12    0.38    0.31
 -12  12 -22    0.31    0.35
 -13   1 -22    5.62    0.67
  13 -22  -1    5.41    0.73
  -1 -13 -22    5.94    0.69
 -22  -1 -13    4.58    0.61
 -22   1 -13    4.93    0.61
 -13  -1 -22    4.95    0.62
   1 -13 -22    5.22    0.69
  13  -1  22    4.20    0.62
  13   1  22    5.23    0.67
 -13   3 -22    5.01    0.67
 -22   3 -13    3.97    0.54
  -3 -13 -22    3.40    0.58
  13  -3  22    5.36    0.68
  13   3  22    3.99    0.60
  -5  13 -22    0.92    0.46
  -5 -13 -22    1.30    0.45
 -13   5 -22    2.01    0.51
  13  -5  22    1.70    0.50
  -7  13 -22    1.49    0.48
 -13 -22  -7    2.23    0.48
  -7 -22 -13    2.56    0.48
  -7 -13 -22    1.66    0.45
 -13   7 -22    1.37    0.44
  13  -7  22    1.48    0.42
  -9  13 -22    0.10    0.33
 -13 -22  -9    0.04    0.35
  -9 -22 -13    0.31    0.33
  -9 -13 -22    0.34    0.32
 -13   9 -22    0.66    0.35
  13  -9  22    0.08    0.27
 -11  13 -22    1.62    0.44
 -13 -22 -11    1.22    0.39
 -11 -22 -13    0.89    0.36
 -11 -13 -22    1.42    0.39
 -13  11 -22    1.48    0.42
 -13 -22 -13    0.04    0.34
 -13  13 -22    0.32    0.29
 -14   0 -22   83.49    2.43
   0 -14 -22   81.79    2.50
  14   0  22   84.99    2.53
 -22   0 -14   86.81    2.46
 -22   2 -14    1.50    0.41
 -14  -2 -22    1.21    0.38
  -2 -14 -22    1.64    0.45
   2 -14 -22    1.40    0.45
 -14   2 -22    1.11    0.41
  14  -2  22    1.08    0.42
  14   2  22    1.57    0.47
 -22   4 -14  332.17    5.77
 -14   4 -22  318.95    5.90
  -4 -14 -22  319.76    5.96
   4 -14 -22  317.06    5.99
  -4  14 -22  321.79    5.98
  14  -4  22  333.72    6.03
  14   4  22  312.44    5.75
  -6  14 -22    1.71    0.47
  -6 -22 -14    1.78    0.42
  -6 -14 -22    0.96    0.41
 -14   6 -22    0.38    0.34
  14  -6  22    0.09    0.33
 -14 -22  -8   40.78    1.57
  -8 -22 -14   39.75    1.55
 -14   8 -22   41.97    1.64
  -8 -14 -22   39.41    1.54
  -8  14 -22   37.37    1.56
  14  -8  22   41.40    1.55
 -10  14 -22    1.68    0.44
 -14 -22 -10    1.59    0.40
 -10 -22 -14    2.97    0.48
 -10 -14 -22    1.77    0.40
 -14  10 -22    1.42    0.38
 -14 -22 -12  212.92    4.13
 -12 -22 -14  214.04    4.13
 -14  12 -22  214.55    4.20
 -12  14 -22  209.74    4.14
 -14 -22 -14    0.24    0.25
 -22  -1 -15    2.86    0.50
 -22   1 -15    3.60    0.53
 -15  -1 -22    3.46    0.54
  -1 -15 -22    3.01    0.53
   1 -15 -22    3.38    0.56
 -15   1 -22    4.22    0.60
  15  -1  22    2.65    0.54
  15   1  22    4.15    0.60
 -22   3 -15    0.82    0.37
 -15  -3 -22    0.79    0.34
  -3 -15 -22    0.74    0.39
   3 -15 -22    0.74    0.41
 -15   3 -22    0.85    0.40
  15  -3  22    0.20    0.33
  15   3  22    1.01    0.39
 -22   5 -15    4.93    0.58
 -15   5 -22    5.76    0.65
  -5 -22 -15    6.10    0.64
  -5  15 -22    4.83    0.63
  -5 -15 -22    5.04    0.63
   5 -15 -22    4.76    0.61
  15  -5  22    3.99    0.57
  22  -7  15    0.23    0.29
  -7  15 -22    0.68    0.36
  -7 -22 -15    0.25    0.30
  -7 -15 -22    0.22    0.31
 -15   7 -22    0.14    0.33
  15  -7  22    0.13    0.28
 -15 -22  -9    8.01    0.71
  -9 -22 -15    8.17    0.70
 -15   9 -22    9.16    0.76
  -9 -15 -22    9.23    0.74
  -9  15 -22    9.76    0.78
 -15 -22 -11    5.17    0.57
 -11 -22 -15    5.35    0.58
 -11 -15 -22    6.08    0.59
 -15  11 -22    5.68    0.60
 -11  15 -22    5.87    0.60
 -15 -22 -13    1.06    0.33
 -13 -22 -15    1.01    0.32
 -16   0 -22    5.13    0.62
   0 -16 -22    7.25    0.72
  16   0  22    6.39    0.69
 -22   0 -16    5.65    0.63
 -16  -2 -22   36.76    1.49
 -16   2 -22   35.92    1.49
  -2 -16 -22   37.15    1.55
   2 -16 -22   37.16    1.54
  16  -2  22   35.67    1.53
  16   2  22   38.68    1.55
 -22   2 -16   38.72    1.52
 -22   4 -16   82.71    2.30
 -16   4 -22   88.31    2.45
  -4 -16 -22   88.79    2.50
   4 -16 -22   88.77    2.45
  -4  16 -22   87.64    2.45
  22 -16  -4   86.78    2.42
  16  -4  22   86.78    2.44
  16   4  22   81.71    2.29
 -16  -4 -22   85.94    2.35
 -16   6 -22   51.08    1.77
  -6 -22 -16   49.18    1.69
  -6 -16 -22   51.37    1.77
  -6  16 -22   47.69    1.73
  16  -6  22   54.99    1.81
  22  -6  16   47.33    1.64
  -8  16 -22    3.77    0.51
  -8 -22 -16    2.88    0.46
  -8 -16 -22    3.54    0.52
 -16   8 -22    3.81    0.52
  16  -8  22    2.19    0.41
 -10 -22 -16   33.47    1.32
 -16  10 -22   33.47    1.34
 -10 -16 -22   33.24    1.29
 -10  16 -22   32.74    1.32
  22  -1  17    1.47    0.42
 -22   1 -17    1.85    0.42
 -17  -1 -22    2.27    0.47
  -1 -17 -22    1.36    0.41
 -17   1 -22    1.46    0.39
   1 -17 -22    2.21    0.45
  17  -1  22    1.25    0.40
  17   1  22    2.37    0.47
  22  -3  17    0.26    0.32
  22   3  17    0.26    0.32
 -17  -3 -22    0.08    0.29
 -22   3 -17    0.08    0.31
  -3 -17 -22    0.05    0.31
   3 -17 -22    0.09    0.31
 -17   3 -22   -0.04    0.32
  17  -3  22    0.09    0.29
  17   3  22    0.25    0.31
  22  -5  17    1.47    0.35
  22   5  17    1.60    0.42
  -5  17 -22    1.37    0.41
  -5 -22 -17    1.25    0.38
  -5 -17 -22    1.74    0.41
 -22   5 -17    1.45    0.38
 -17   5 -22    1.39    0.40
  17  -5  22    1.36    0.40
  22  -7  17    2.44    0.41
  -7  17 -22    2.18    0.42
  -7 -22 -17    2.57    0.45
  -7 -17 -22    2.37    0.44
 -17   7 -22    2.05    0.42
  17  -7  22    2.41    0.42
  -9  17 -22    0.58    0.32
  -9 -22 -17    0.40    0.26
  -9 -17 -22    0.54    0.28
 -17   9 -22    0.07    0.25
 -18   0 -22   39.62    1.51
   0 -18 -22   39.06    1.52
  18   0  22   40.59    1.53
  22   0  18   39.13    1.51
 -22   0 -18   41.19    1.53
  22  -2  18    0.44    0.33
  22   2  18    0.16    0.29
 -18  -2 -22    0.78    0.32
 -22   2 -18    0.55    0.30
  -2 -18 -22    0.25    0.30
 -18   2 -22    0.12    0.29
   2 -18 -22    0.44    0.31
  18  -2  22    0.29    0.32
  18   2  22    0.60    0.31
 -22   4 -18  188.14    3.69
 -18   4 -22  187.89    3.78
  -4 -22 -18  185.99    3.66
  -4 -18 -22  185.99    3.77
  -4  18 -22  174.24    3.63
  18  -4  22  187.49    3.75
  22  -4  18  171.00    3.60
  22   4  18  167.70    3.58
  22  -6  18    1.48    0.35
  -6  18 -22    1.79    0.39
  -6  22 -18    1.21    0.35
  -6 -22 -18    0.79    0.31
  -6 -18 -22    0.85    0.33
 -22   6 -18    0.76    0.30
 -18   6 -22    0.72    0.33
  18  -6  22    1.22    0.35
 -18   8 -22   29.01    1.19
  -8 -22 -18   26.97    1.14
  -8 -18 -22   27.88    1.17
  -8  18 -22   25.65    1.10
  22  -1  19    1.58    0.37
  22   1  19    2.65    0.43
 -22   1 -19    2.51    0.43
 -19  -1 -22    2.77    0.46
 -19   1 -22    2.45    0.42
  -1 -19 -22    3.41    0.48
   1 -19 -22    2.16    0.42
  19  -1  22    2.07    0.40
  19   1  22    2.36    0.41
 -19   3 -22    7.04    0.64
  -3 -19 -22    6.88    0.62
  -3  19 -22    6.79    0.61
  19  -3  22    6.94    0.62
  19   3  22    6.34    0.58
  22  -3  19    6.63    0.60
  22   3  19    6.58    0.60
 -22   3 -19    6.72    0.60
  22  -5  19    0.16    0.25
  -5  19 -22    0.31    0.28
  -5  22 -19    0.20    0.25
  -5 -22 -19    0.54    0.27
  -5 -19 -22    0.07    0.28
 -22   5 -19    0.47    0.28
 -19   5 -22    0.32    0.28
  19  -5  22    0.37    0.27
   0 -23  -1    0.23    0.38
   1 -23   0   -0.06    0.37
  -1 -23   0    0.18    0.43
  -1   0  23   -0.05    0.33
   0   1  23    0.39    0.37
   0  -1  23    0.05    0.33
   1   0  23    0.10    0.32
   2 -23   1    9.28    0.89
   2 -23  -1    7.31    0.83
   1 -23   2    8.99    0.89
   1 -23  -2    8.42    0.87
  -2   1  23   10.20    0.84
  -2  -1  23   10.86    0.86
  -1   2  23    9.06    0.78
  -1  -2  23    8.53    0.81
   1   2  23    9.98    0.82
   1  -2  23    9.87    0.85
   2   1  23    9.51    0.82
   2  -1  23   10.80    0.87
   0 -23   3    0.23    0.38
  -3   0  23   -0.05    0.33
   0   3  23    0.09    0.36
   0  -3  23    0.05    0.36
   3   0  23    0.25    0.33
   2 -23   3   13.47    1.05
   2 -23  -3   12.30    1.00
  -3   2  23   12.95    0.92
  -3  -2  23   12.06    0.93
  -2   3  23   13.74    0.94
  -2  -3  23   12.60    0.93
   2   3  23   12.02    0.89
   2  -3  23   12.16    0.93
   3   2  23   13.51    0.95
   3  -2  23   13.47    0.97
   1 -23   4    0.90    0.43
   4 -23  -1    0.75    0.44
  -4   1  23    0.63    0.37
  -4  -1  23    0.65    0.37
  -1  -4  23    0.51    0.39
   1  -4  23    0.86    0.41
   4   1  23    0.64    0.35
   4  -1  23    0.56    0.40
   3 -23  -4    0.56    0.41
   4 -23  -3    0.23    0.38
  -4   3  23    0.05    0.32
  -4  -3  23    0.05    0.33
  -3  -4  23    0.35    0.37
   3   4  23    0.22    0.36
   3  -4  23    0.15    0.35
   4   3  23   -0.56    0.34
   4  -3  23   -0.15    0.36
   0 -23   5    0.17    0.35
   5 -23   0    1.00    0.45
   0 -23  -5   -0.06    0.37
  -5   0  23    0.05    0.33
   0  -5  23    1.12    0.42
   5   0  23    1.41    0.44
   2 -23   5    2.35    0.53
   2 -23  -5    2.16    0.55
  -5   2  23    2.15    0.48
  -5  -2  23    2.31    0.49
  -2  -5  23    2.79    0.55
   2  -5  23    3.08    0.55
   5   2  23    2.22    0.49
   5  -2  23    2.70    0.54
   5 -23   4    3.13    0.58
   5 -23  -4    2.67    0.56
   4 -23   5    3.82    0.61
  -5  -4  23    3.27    0.57
   4 -23  -5    3.26    0.60
  -4  -5  23    3.44    0.57
   4  -5  23    2.27    0.51
   5   4  23    2.54    0.48
   5  -4  23    2.66    0.51
   6 -23   1    1.36    0.45
   6 -23  -1    1.42    0.49
   1 -23  -6    1.33    0.45
  -6   1  23    1.70    0.48
  -6  -1  23    1.40    0.46
  -1  -6  23    1.55    0.45
   1  -6  23    1.02    0.37
   6  -1  23    1.19    0.41
   6   1  23    1.10    0.41
   6 -23  -3    3.92    0.66
  -6  -3  23    4.28    0.61
  -3  -6  23    4.58    0.61
   3  -6  23    4.00    0.58
   6  -3  23    4.38    0.63
   6   3  23    4.27    0.60
   6 -23  -5    2.25    0.53
   5 -23   6    2.31    0.53
  -6  -5  23    2.40    0.51
  -5  -6  23    2.04    0.47
   5  -6  23    2.15    0.48
   6  -5  23    2.23    0.48
   0  -7  23    0.20    0.33
   7   0  23   -0.15    0.34
   7 -23   0   -0.06    0.36
   7  -2  23    5.24    0.68
  -2  -7  23    4.14    0.59
   2  -7  23    3.36    0.56
   7   2  23    4.57    0.63
   7 -23   4    0.23    0.37
   7 -23  -4    0.63    0.41
   4 -23   7    0.62    0.40
  -4  -7 -23    0.81    0.38
  -4  -7  23    0.49    0.38
   4  -7  23    0.69    0.42
   7  -4  23    0.52    0.37
   7   4  23    0.69    0.38
   7 -23   6    6.62    0.75
  -7   6 -23    6.04    0.68
  -6   7 -23    5.89    0.67
   6  -7  23    5.98    0.68
   7  -6  23    6.46    0.72
  -1  -8  23    8.18    0.77
   1  -8  23    9.10    0.80
   8  -1  23   10.26    0.89
   8   1  23    9.33    0.83
   8 -23   1    7.85    0.84
   8 -23  -1    8.73    0.89
  -3  -8 -23    0.20    0.36
  -3  -8  23   -0.10    0.35
   8 -23   3   -0.06    0.35
   8 -23  -3    0.23    0.39
   3  -8  23    0.34    0.38
   8  -3  23    0.05    0.37
   8   3  23    0.14    0.33
  -5   8 -23   -0.05    0.32
  -5  -8 -23   -0.09    0.31
  -5  -8  23    0.15    0.34
   5  -8  23   -0.10    0.32
   8  -5  23   -0.21    0.35
  -8   5 -23    0.23    0.36
  -8   7 -23    4.44    0.64
  -7   8 -23    4.38    0.61
   7  -8  23    3.67    0.57
   8  -7  23    3.95    0.59
   0  -9  23    0.33    0.35
   9   0  23    0.05    0.34
  -2  -9 -23   -0.05    0.35
  -2  -9  23    0.09    0.33
   2  -9  23    0.05    0.32
   9  -2  23    0.10    0.34
   9   2  23    0.25    0.33
  -4   9 -23    0.99    0.41
  -4  -9 -23    1.23    0.44
  -4  -9  23    1.03    0.37
   9 -23  -4    1.01    0.46
   4  -9  23    1.31    0.44
  -9   4 -23    1.18    0.43
   9  -4  23    0.93    0.42
   9   4  23    1.11    0.43
  -9   6 -23   14.40    0.98
  -6  -9 -23   13.75    0.93
  -6   9 -23   13.54    0.97
   6  -9  23   15.26    0.99
   9  -6  23   14.43    1.00
  -9   8 -23    3.78    0.58
  -8   9 -23    3.40    0.56
   8  -9  23    3.39    0.54
   9  -8  23    3.16    0.53
  10 -23   1    2.07    0.54
  10 -23  -1    1.96    0.53
  -1 -10 -23    2.03    0.53
  -1 -10  23    2.55    0.48
   1 -10  23    2.24    0.47
  10  -1  23    2.30    0.53
  10   1  23    2.49    0.51
  -3  10 -23    0.86    0.40
  -3 -10 -23    0.86    0.40
  -3 -10  23    1.38    0.41
 -10   3 -23    0.84    0.38
   3 -10  23    0.81    0.36
  10  -3  23    1.76    0.50
  10   3  23    0.96    0.40
  -5  10 -23    4.69    0.64
  -5 -10 -23    5.00    0.63
   5 -10  23    4.74    0.58
 -10   5 -23    4.11    0.59
  10  -5  23    4.23    0.62
  -7  10 -23    0.40    0.38
 -10 -23  -7    0.52    0.33
  -7 -10 -23    0.49    0.32
  10  -7  23    0.24    0.32
 -10   7 -23    0.48    0.37
 -10   9 -23    1.40    0.44
  -9  10 -23    1.81    0.49
 -10 -23  -9    1.19    0.39
  -9 -23 -10    1.19    0.39
  10  -9  23    1.26    0.38
   0 -11 -23    0.05    0.37
  11   0  23    0.05    0.36
  -2  11 -23   -0.14    0.35
  -2 -11 -23    0.16    0.35
 -11   2 -23   -0.14    0.36
  11  -2  23    0.36    0.37
  11   2  23   -0.10    0.36
  -4  11 -23   -0.25    0.36
  11 -23   4   -0.05    0.33
  -4 -11 -23   -0.10    0.35
 -11   4 -23   -0.05    0.33
  11  -4  23   -0.20    0.39
  11   4  23    0.05    0.32
 -11 -23  -6    8.86    0.76
 -11   6 -23    8.39    0.78
  -6 -11 -23   10.04    0.82
  -6  11 -23    8.03    0.76
  11  -6  23    9.91    0.82
  -8  11 -23    0.15    0.37
 -11 -23  -8    0.22    0.31
  -8 -23 -11    0.13    0.30
  -8 -11 -23   -0.04    0.30
  11  -8  23    0.09    0.33
 -11   8 -23    0.24    0.34
 -10  11 -23    2.21    0.48
 -11 -23 -10    1.75    0.42
 -10 -23 -11    1.90    0.42
 -11  10 -23    2.67    0.50
  12 -23   1    0.56    0.41
  12 -23  -1    0.45    0.40
  -1 -12 -23    0.42    0.35
   1 -12 -23   -0.05    0.35
 -12   1 -23    0.58    0.39
  12  -1  23    0.05    0.34
  12   1  23    0.50    0.40
  -3  12 -23    0.10    0.34
  -3 -12 -23    0.30    0.33
 -12   3 -23    0.23    0.31
  12  -3  23    0.10    0.34
  12   3  23    0.09    0.30
  -5  12 -23    1.27    0.45
  -5 -12 -23    0.97    0.38
 -12   5 -23    1.38    0.44
  12  -5  23    0.39    0.34
  -7  12 -23   -0.14    0.34
 -12 -23  -7    0.04    0.29
  -7 -12 -23    0.05    0.35
 -12   7 -23    0.29    0.36
  12  -7  23   -0.05    0.32
  -9  12 -23   -0.14    0.36
 -12 -23  -9    0.13    0.28
  -9 -23 -12    0.08    0.28
  -9 -12 -23   -0.24    0.32
 -12   9 -23    0.05    0.33
  12  -9  23    0.04    0.28
 -11  12 -23    0.56    0.35
 -12 -23 -11    0.43    0.28
 -11 -23 -12    0.32    0.29
 -12  11 -23    0.30    0.32
  13 -23   0   -0.11    0.40
   0 -13 -23    0.05    0.34
 -13   0 -23    0.04    0.33
  13   0  23   -0.15    0.39
  -2  13 -23    3.19    0.56
 -23   2 -13    3.93    0.56
  -2 -13 -23    2.56    0.55
   2 -13 -23    3.70    0.62
 -13   2 -23    2.99    0.51
  13  -2  23    3.92    0.62
  13   2  23    2.97    0.55
  -4  13 -23    2.10    0.48
  13 -23  -4    2.05    0.49
  -4 -13 -23    2.16    0.51
 -13   4 -23    2.13    0.46
  13  -4  23    1.96    0.47
  13   4  23    2.01    0.45
  -6  13 -23    2.89    0.54
  -6 -13 -23    2.03    0.47
 -13   6 -23    2.12    0.48
  13  -6  23    2.33    0.48
  -8  13 -23    2.54    0.50
 -13 -23  -8    1.50    0.39
  -8 -23 -13    1.27    0.38
  -8 -13 -23    1.36    0.38
 -13   8 -23    1.96    0.49
  13  -8  23    0.75    0.34
 -10  13 -23    1.86    0.44
 -13 -23 -10    1.79    0.41
 -10 -23 -13    1.65    0.41
 -10 -13 -23    1.31    0.36
 -13  10 -23    1.77    0.44
 -13 -23 -12    0.04    0.26
 -12 -23 -13   -0.04    0.28
 -13  12 -23   -0.08    0.31
 -12  13 -23    0.08    0.29
 -23   1 -14    2.80    0.49
 -14  -1 -23    3.68    0.55
  -1 -14 -23    4.25    0.59
   1 -14 -23    3.36    0.56
 -14   1 -23    3.47    0.53
  14  -1  23    3.73    0.58
  14   1  23    3.35    0.55
  -3  14 -23    0.24    0.33
  -3 -14 -23   -0.05    0.32
   3 -14 -23    0.49    0.33
 -14   3 -23    0.55    0.35
  14  -3  23    0.44    0.34
  14   3  23    0.09    0.31
 -14   5 -23    6.48    0.67
  -5 -14 -23    6.31    0.67
   5 -14 -23    6.16    0.68
  -5  14 -23    5.75    0.66
  14  -5  23    5.84    0.65
  -7  14 -23    2.97    0.52
  -7 -23 -14    3.23    0.48
  -7 -14 -23    3.36    0.51
 -14   7 -23    3.65    0.56
  14  -7  23    3.39    0.51
  -9  14 -23    1.60    0.41
 -14 -23  -9    1.64    0.38
  -9 -23 -14    1.44    0.38
  -9 -14 -23    2.19    0.43
 -14   9 -23    1.30    0.41
 -14 -23 -11    6.37    0.60
 -11 -23 -14    6.05    0.58
 -14  11 -23    6.62    0.63
 -11  14 -23    6.15    0.60
 -15   0 -23    0.17    0.30
   0 -15 -23    0.05    0.30
  15   0  23    0.14    0.31
  -2  15 -23    0.18    0.31
 -23   2 -15    0.41    0.29
 -15  -2 -23    0.50    0.33
  -2 -15 -23    0.28    0.34
   2 -15 -23    0.66    0.33
 -15   2 -23    0.48    0.34
  15  -2  23    0.61    0.36
  15   2  23    0.40    0.33
  -4  15 -23    0.09    0.33
  -4 -15 -23    0.05    0.32
   4 -15 -23    0.05    0.36
 -15   4 -23    0.44    0.32
  15  -4  23    0.23    0.30
  15   4  23   -0.12    0.32
  -6  15 -23    1.63    0.42
  -6 -23 -15    2.01    0.40
  -6 -15 -23    1.48    0.38
   6 -15 -23    1.41    0.39
 -15   6 -23    1.61    0.40
  15  -6  23    1.57    0.40
  -8  15 -23   -0.08    0.31
  -8 -23 -15    0.08    0.28
  -8 -15 -23    0.19    0.29
 -15   8 -23    0.08    0.33
  15  -8  23    0.47    0.30
 -10 -23 -15    5.70    0.56
 -15  10 -23    4.55    0.54
 -10 -15 -23    6.31    0.58
 -10  15 -23    4.92    0.54
 -23   1 -16    3.04    0.49
 -16  -1 -23    3.26    0.50
  -1 -16 -23    3.78    0.57
 -16   1 -23    4.11    0.53
   1 -16 -23    3.57    0.54
  16  -1  23    4.11    0.55
  16   1  23    3.84    0.55
  -3  16 -23    0.17    0.31
 -23   3 -16    0.19    0.28
 -16  -3 -23    0.08    0.29
  -3 -16 -23    0.18    0.30
   3 -16 -23    0.30    0.33
 -16   3 -23    0.21    0.30
  16  -3  23   -0.09    0.33
  16   3  23    0.04    0.30
  23  -5  16    0.50    0.31
  -5  16 -23    0.41    0.29
  -5 -16 -23    1.00    0.37
   5 -16 -23    0.37    0.28
 -16   5 -23    0.45    0.32
  16  -5  23    0.40    0.32
  -7  16 -23    0.65    0.33
  -7 -23 -16    0.44    0.29
  -7 -16 -23    0.69    0.34
 -16   7 -23    0.58    0.34
  16  -7  23    1.01    0.33
  -9  16 -23    0.57    0.31
  -9 -23 -16    0.34    0.28
  -9 -16 -23    0.41    0.29
 -16   9 -23    0.33    0.28
  23   0  17   -0.16    0.31
 -17   0 -23   -0.04    0.29
   0 -17 -23    0.17    0.31
  17   0  23   -0.17    0.31
  23  -2  17    3.34    0.49
   2 -17 -23    4.61    0.58
  -2  17 -23    4.12    0.53
 -23   2 -17    4.07    0.52
 -17  -2 -23    4.55    0.54
  -2 -17 -23    3.75    0.55
 -17   2 -23    4.22    0.54
  23   2  17    4.39    0.57
  17  -2  23    4.33    0.54
  17   2  23    4.09    0.52
  23  -4  17    0.26    0.32
  23   4  17    0.04    0.31
  -4  17 -23    0.15    0.28
 -23   4 -17    0.31    0.30
  -4 -17 -23    0.40    0.28
   4 -17 -23    0.19    0.29
 -17   4 -23    0.23    0.27
  17  -4  23    0.20    0.32
  23  -6  17    0.10    0.24
  -6  17 -23    0.14    0.28
  -6 -23 -17    0.03    0.28
  -6 -17 -23    0.11    0.28
 -17   6 -23    0.04    0.30
  17  -6  23    0.04    0.25
  23  -1  18   -0.07    0.29
  23   1  18   -0.04    0.28
 -18  -1 -23    0.14    0.27
 -18   1 -23   -0.22    0.30
  -1 -18 -23    0.08    0.27
   1 -18 -23    0.12    0.28
  18  -1  23   -0.11    0.30
  18   1  23    0.37    0.27
  23  -3  18    0.18    0.27
  23   3  18   -0.07    0.28
  -3  18 -23    0.04    0.25
 -23   3 -18    0.03    0.25
  -3 -18 -23    0.19    0.27
 -18   3 -23   -0.14    0.27
   3 -18 -23    0.04    0.25
  18  -3  23    0.15    0.28
  18   3  23    0.03    0.25
  -5  18 -23    2.04    0.39
  -5 -18 -23    1.89    0.38
 -18   5 -23    1.56    0.35
   0 -24   0 1379.04   20.69
   0   0  24 1490.62   20.38
   1 -24   1    0.06    0.47
   1 -24  -1   -0.12    0.47
  -1   1  24    0.29    0.39
  -1  -1  24    0.30    0.41
   1   1  24    0.05    0.40
   1  -1  24    0.05    0.41
   2 -24   0   15.62    1.15
   0 -24   2   13.68    1.08
   0 -24  -2   12.86    1.03
  -2   0  24   13.05    0.99
   0   2  24   14.67    1.00
   0  -2  24   14.90    1.03
   2   0  24   16.30    1.07
   2 -24   2  111.82    3.23
  -2   2  24  119.07    3.02
  -2  -2  24  123.30    3.15
   2   2  24  114.10    2.97
   2  -2  24  123.70    3.15
   3 -24   1    1.42    0.51
   3 -24  -1    0.83    0.46
  -3   1  24    0.72    0.39
  -3  -1  24    0.96    0.43
   1 -24   3    1.84    0.54
  -1   3  24    0.83    0.40
  -1  -3  24    2.30    0.51
   1   3  24    1.60    0.46
   1  -3  24    1.14    0.43
   3   1  24    0.88    0.40
   3  -1  24    0.71    0.40
  -3   3  24    0.09    0.33
  -3  -3  24   -0.05    0.33
   3   3  24    0.23    0.33
   3  -3  24    0.15    0.32
  -4   0  24  538.19    8.82
   0  -4  24  548.45    8.90
   4   0  24  531.48    8.83
   2 -24   4  130.14    3.50
  -4   2  24  144.75    3.38
  -4  -2  24  142.29    3.45
  -2  -4  24  141.67    3.47
   2  -4  24  148.65    3.51
   4   2  24  139.04    3.36
   4  -2  24  147.40    3.49
   4 -24   4  109.20    3.12
   4 -24  -4  108.32    3.09
  -4  -4  24  121.11    3.08
   4  -4  24  116.90    3.05
   1 -24  -5    1.93    0.51
  -5   1  24    1.88    0.47
  -5  -1  24    1.89    0.46
  -1  -5  24    1.73    0.48
   1  -5  24    1.22    0.42
   5   1  24    1.34    0.43
   5  -1  24    1.73    0.46
   5 -24   3    0.35    0.36
  -5   3  24    0.69    0.37
  -5  -3  24    0.56    0.38
  -3  -5  24    0.86    0.39
   3  -5  24    0.35    0.36
   5   3  24    0.75    0.35
   5  -3  24    1.02    0.43
  -5  -5  24    0.30    0.34
   5  -5  24    0.10    0.32
   5 -24  -5   -0.27    0.37
   6 -24   0    1.40    0.52
   0  -6  24    2.86    0.52
   6   0  24    1.85    0.47
  -2  -6  24   69.29    2.24
   2  -6  24   69.18    2.26
   6   2  24   68.42    2.21
   6  -2  24   80.23    2.40
   6 -24  -4  149.02    3.74
   4 -24   6  152.03    3.71
  -4  -6  24  154.82    3.62
   4  -6  24  158.16    3.64
   6  -4  24  165.33    3.73
   6  -6  24   48.44    1.83
  -1  -7  24    0.54    0.38
   1  -7  24    1.33    0.47
   7   1  24    0.60    0.44
   7  -1  24    0.51    0.36
   7 -24  -3   -0.11    0.36
   3 -24   7    0.05    0.35
  -3  -7 -24   -0.05    0.35
  -3  -7  24    0.05    0.33
   3  -7  24    0.29    0.37
   7   3  24   -0.05    0.32
   7  -3  24   -0.05    0.33
   7 -24  -5    0.64    0.38
   5  -7  24    0.43    0.35
   7  -5  24    0.60    0.38
  -7   7 -24   -0.05    0.35
   7  -7  24    0.05    0.35
   8 -24   0  918.69   14.09
   0  -8  24  905.26   13.63
   8   0  24  940.65   13.83
   8 -24   2    1.04    0.45
  -2  -8 -24    1.16    0.44
  -2  -8  24    2.10    0.50
   2  -8  24    1.73    0.45
   8  -2  24    0.98    0.42
   8   2  24    1.32    0.45
  -4  -8 -24  385.38    6.88
  -4  -8  24  413.98    7.02
   4  -8  24  405.91    6.98
   8  -4  24  415.28    7.14
  -6   8 -24    3.33    0.56
   6  -8  24    3.11    0.53
   8  -6  24    2.70    0.53
  -8   6 -24    2.64    0.50
  -8   8 -24  887.83   13.28
   8  -8  24  904.16   13.25
  -1  -9  24    0.05    0.32
   1  -9  24    0.14    0.33
   9  -1  24    0.31    0.39
   9   1  24    0.35    0.38
   9 -24   1    0.17    0.38
   9 -24  -1   -0.12    0.39
  -3  -9 -24    0.83    0.38
  -3  -9  24    1.09    0.39
   3  -9  24    0.65    0.35
   9  -3  24    0.77    0.37
   9   3  24    0.80    0.36
  -5   9 -24    2.77    0.51
  -5  -9 -24    2.55    0.49
   5  -9  24    1.98    0.47
  -9   5 -24    2.26    0.46
   9  -5  24    2.53    0.53
  -7   9 -24    0.83    0.41
   7  -9  24    0.04    0.32
   9  -7  24    0.23    0.39
  -9   7 -24    0.23    0.38
  -9   9 -24   -0.18    0.36
   9  -9  24   -0.08    0.30
   0 -10  24    0.69    0.36
  10   0  24    0.15    0.36
  -2 -10 -24   37.64    1.61
  -2 -10  24   38.96    1.53
   2 -10  24   39.41    1.54
  10  -2  24   42.32    1.70
  10   2  24   37.12    1.57
  10 -24   2   39.92    1.74
  10 -24  -2   39.25    1.73
 -10   4 -24  156.63    3.56
  -4 -10 -24  158.16    3.64
  -4  10 -24  163.61    3.62
   4 -10  24  170.91    3.62
  10  -4  24  167.36    3.79
 -10   6 -24   62.21    2.02
  -6 -10 -24   57.66    1.92
  -6  10 -24   59.76    2.00
   6 -10  24   58.98    1.89
  10  -6  24   59.98    2.01
  -8  10 -24    0.28    0.40
  10  -8  24    0.26    0.34
 -10   8 -24    1.37    0.43
 -10 -24 -10   55.59    1.76
 -10  10 -24   54.93    1.86
  -1 -11 -24    0.05    0.32
   1 -11 -24   -0.26    0.44
  11  -1  24   -0.20    0.37
  11   1  24    0.19    0.34
  -3  11 -24    0.05    0.38
  -3 -11 -24    0.05    0.33
 -11   3 -24   -0.18    0.36
  11  -3  24    0.40    0.36
  11   3  24   -0.05    0.32
  -5  11 -24    0.05    0.34
  -5 -11 -24    0.05    0.31
 -11   5 -24    0.04    0.32
  11  -5  24    0.10    0.35
  -7  11 -24    0.09    0.32
  -7 -11 -24   -0.13    0.29
 -11   7 -24    0.27    0.36
  11  -7  24    0.18    0.32
  -9  11 -24    0.31    0.33
 -11 -24  -9    0.35    0.28
  11  -9  24    0.16    0.28
 -11   9 -24    0.26    0.35
 -11 -24 -11    0.04    0.25
 -11  11 -24   -0.04    0.29
   0 -12 -24  303.01    5.75
  12   0  24  308.49    5.72
 -12   2 -24  137.62    3.20
  -2 -12 -24  140.48    3.38
   2 -12 -24  143.74    3.48
  -2  12 -24  141.93    3.32
  12  -2  24  147.13    3.45
  12   2  24  143.16    3.33
 -12   4 -24   44.00    1.66
  -4 -12 -24   48.53    1.76
  -4  12 -24   50.16    1.78
  12  -4  24   47.15    1.77
 -12   6 -24   99.60    2.65
  -6 -12 -24  105.44    2.70
  -6  12 -24  102.41    2.71
  12  -6  24  104.00    2.71
 -12 -24  -8  254.88    4.80
 -12   8 -24  270.78    5.02
  -8 -12 -24  259.91    4.79
  -8  12 -24  269.15    5.01
  12  -8  24  271.83    4.92
 -12 -24 -10   44.94    1.55
 -10 -24 -12   45.09    1.52
 -12  10 -24   45.86    1.63
 -10  12 -24   48.52    1.67
 -12 -24 -12   44.52    1.49
 -12  12 -24   50.65    1.64
  -1  13 -24    0.41    0.37
  -1 -13 -24   -0.05    0.41
   1 -13 -24    0.44    0.38
 -13   1 -24    0.50    0.35
  13  -1  24    0.38    0.31
  13   1  24    0.28    0.33
  -3  13 -24    0.09    0.34
  -3 -13 -24    0.19    0.32
   3 -13 -24    0.39    0.36
 -13   3 -24    0.51    0.34
  13  -3  24    0.14    0.32
  13   3  24    0.26    0.30
  -5  13 -24    0.04    0.36
  -5 -13 -24   -0.13    0.31
   5 -13 -24    0.05    0.38
 -13   5 -24   -0.04    0.35
  13  -5  24    0.09    0.30
  -7  13 -24    0.39    0.33
  -7 -13 -24    0.75    0.32
 -13   7 -24    0.59    0.33
  13  -7  24    0.94    0.36
  -9  13 -24    0.08    0.31
 -13 -24  -9    0.18    0.27
  -9 -24 -13    0.07    0.26
  -9 -13 -24   -0.21    0.27
 -13   9 -24   -0.08    0.31
 -13 -24 -11    2.53    0.42
 -11 -24 -13    2.15    0.38
 -13  11 -24    2.34    0.41
 -11  13 -24    2.74    0.43
   0  14 -24    0.56    0.35
 -14   0 -24    0.48    0.32
   0 -14 -24    0.75    0.38
  14   0  24    1.71    0.41
 -14   2 -24   30.32    1.31
  -2 -14 -24   28.48    1.34
   2 -14 -24   32.84    1.42
  -2  14 -24   38.01    1.49
  14  -2  24   30.67    1.39
  14   2  24   29.88    1.33
  14 -24   2   27.42    1.35
  14 -24  -2   28.09    1.35
 -14   4 -24   88.27    2.40
  -4 -14 -24   96.09    2.54
   4 -14 -24   88.40    2.48
  -4  14 -24   88.92    2.43
  14  -4  24   89.80    2.46
 -14   6 -24   53.47    1.77
  -6 -14 -24   52.52    1.74
   6 -14 -24   54.10    1.82
  -6  14 -24   50.91    1.74
  14  -6  24   54.33    1.77
  -8  14 -24    1.61    0.39
  -8 -14 -24    1.81    0.37
   8 -14 -24    2.05    0.41
 -14   8 -24    1.60    0.40
  14  -8  24    1.35    0.36
 -14  10 -24   26.92    1.16
 -10  14 -24   24.75    1.11
  -1  15 -24    0.25    0.36
  -1 -15 -24    0.18    0.30
 -15   1 -24    0.35    0.33
   1 -15 -24    0.04    0.40
  15  -1  24    0.30    0.33
  15   1  24    0.29    0.31
  -3  15 -24    0.54    0.34
  -3 -15 -24    1.00    0.38
   3 -15 -24    0.51    0.34
 -15   3 -24    0.95    0.35
  15  -3  24    0.72    0.36
  15   3  24    0.62    0.34
  -5  15 -24   -0.04    0.35
  -5 -15 -24    0.20    0.29
   5 -15 -24    0.12    0.35
 -15   5 -24    0.31    0.30
  15  -5  24    0.31    0.31
  -7  15 -24    0.49    0.33
  -7 -15 -24    0.62    0.31
 -15   7 -24    0.53    0.31
  15  -7  24    0.46    0.30
 -16   0 -24  579.72    8.75
   0 -16 -24  569.23    8.89
   0  16 -24  566.38    8.78
  16   0  24  556.90    8.80
  -2  16 -24    0.12    0.31
  -2 -16 -24    0.08    0.31
 -16   2 -24    0.82    0.33
   2 -16 -24    0.32    0.32
  16  -2  24    0.56    0.33
 -16   4 -24  200.76    3.91
  -4 -16 -24  204.93    3.98
   4 -16 -24  204.17    3.97
  -4  16 -24  201.52    3.91
  16  -4  24  201.81    3.93
  24  -4  16  187.39    3.80
  -6  16 -24    0.53    0.30
  -6 -16 -24    0.04    0.26
 -16   6 -24    0.25    0.28
  16  -6  24    0.03    0.26
  24  -1  17    0.07    0.27
  24   1  17    0.37    0.31
  -1  17 -24    0.35    0.30
 -17  -1 -24    0.07    0.26
 -17   1 -24    0.21    0.29
  -1 -17 -24   -0.15    0.35
   1 -17 -24    0.56    0.31
  17  -1  24   -0.04    0.27
  17   1  24    0.18    0.31
  24  -3  17    0.48    0.30
  -3  17 -24    0.31    0.32
  -3 -17 -24    0.40    0.28
 -17   3 -24    0.55    0.32
  17  -3  24    0.36    0.28
   1 -25   0    0.18    0.36
  -1   0  25   -0.10    0.36
   0   1  25   -0.10    0.34
   0  -1  25    0.70    0.37
   1   0  25    0.30    0.36
   1 -25  -2    1.67    0.51
  -2   1  25    2.15    0.51
  -2  -1  25    2.37    0.49
  -1   2  25    2.43    0.50
  -1  -2  25    2.26    0.51
   1 -25   2    1.50    0.49
   1   2  25    1.97    0.47
   1  -2  25    2.12    0.48
   2   1  25    2.49    0.51
   2  -1  25    1.91    0.49
   3 -25   0   -0.47    0.45
  -3   0  25   -0.15    0.33
   0   3  25   -0.09    0.31
   0  -3  25   -0.10    0.39
   3   0  25    0.25    0.34
  -3   2  25    4.12    0.57
  -3  -2  25    3.64    0.57
  -2   3  25    4.01    0.55
  -2  -3  25    3.31    0.56
   2   3  25    3.53    0.54
   2  -3  25    4.05    0.61
   3 -25  -2    3.28    0.63
   3   2  25    3.59    0.56
   3  -2  25    3.62    0.57
   4 -25   1    0.41    0.39
   4 -25  -1    0.81    0.43
  -4   1  25    0.38    0.35
  -4  -1  25    0.44    0.37
  -1  -4  25    0.80    0.40
   1  -4  25    0.60    0.41
   4   1  25    0.72    0.38
   4  -1  25    0.65    0.38
  -4  -3  25    3.77    0.58
  -3  -4  25    3.78    0.59
   3  -4  25    3.61    0.57
   4   3  25    4.59    0.59
   4  -3  25    4.91    0.63
  -5   0  25    0.05    0.33
   0  -5  25    0.30    0.36
   5   0  25    0.05    0.34
   5 -25  -2    4.87    0.67
   2 -25   5    3.28    0.60
  -5  -2  25    4.73    0.63
  -2  -5  25    4.08    0.58
   2 -25  -5    3.70    0.60
   2  -5  25    4.44    0.61
   5   2  25    3.72    0.56
   5  -2  25    3.81    0.58
   4 -25  -5    6.68    0.77
  -5  -4  25    6.24    0.70
  -4  -5  25    6.66    0.71
   4  -5  25    7.81    0.75
   5  -4  25    5.41    0.67
  -1  -6  25    2.47    0.52
   1  -6  25    2.30    0.49
   6   1  25    2.80    0.55
   6  -1  25    1.95    0.48
  -3  -6  25    3.67    0.57
   3  -6  25    4.01    0.58
   6   3  25    5.08    0.62
   6  -3  25    4.25    0.59
   5 -25   6   -0.10    0.37
   5 -25  -6    0.15    0.32
   5  -6  25    0.14    0.32
   6  -5  25   -0.05    0.32
   0  -7  25    0.10    0.33
   7   0  25   -0.05    0.33
  -2  -7 -25    2.56    0.52
  -2  -7  25    2.51    0.50
   2  -7  25    2.33    0.46
   7   2  25    3.02    0.53
   7  -2  25    2.76    0.53
   7 -25   4    0.64    0.42
  -4  -7  25    0.85    0.40
   4  -7  25    0.38    0.34
   7  -4  25    0.59    0.38
   6  -7  25    4.73    0.61
   7  -6  25    4.88    0.63
   8 -25  -1    1.87    0.51
  -1  -8  25    1.84    0.46
   1  -8  25    1.71    0.44
   8   1  25    1.20    0.41
   8  -1  25    1.88    0.46
   8 -25   3    0.32    0.41
   8 -25  -3    0.48    0.39
  -3  -8 -25    0.23    0.34
  -3  -8  25    0.18    0.35
   3  -8  25    0.05    0.31
   8   3  25    0.09    0.32
   8  -3  25    0.10    0.34
   5  -8  25    0.05    0.31
   8  -5  25    0.29    0.33
  -7   8 -25    0.72    0.38
   7  -8  25    1.00    0.39
   8  -7  25    1.74    0.43
  -8   7 -25    1.17    0.39
   0  -9  25    0.22    0.30
   9   0  25   -0.15    0.34
  -2  -9  25    5.27    0.60
   2  -9  25    5.37    0.61
  -2  -9 -25    5.34    0.64
   9   2  25    5.21    0.62
   9  -2  25    6.10    0.69
   9 -25   4    0.45    0.38
  -4  -9 -25    0.66    0.33
   4  -9  25    0.87    0.37
   9  -4  25    0.67    0.39
  -6   9 -25    1.98    0.44
   9 -25   6    1.72    0.44
   6  -9  25    2.28    0.43
  -9   6 -25    1.59    0.39
   9  -6  25    1.73    0.44
  -8   9 -25    0.08    0.32
   8  -9  25    0.20    0.27
   9  -8  25    0.08    0.28
  -9   8 -25    0.25    0.32
  10 -25   1    4.37    0.64
  10 -25  -1    4.33    0.61
  -1 -10  25    4.66    0.56
  -1 -10 -25    3.88    0.57
   1 -10  25    3.84    0.52
  10  -1  25    4.43    0.62
  10   1  25    3.29    0.55
  -3 -10 -25    3.49    0.52
   3 -10  25    3.21    0.50
  10  -3  25    3.94    0.59
  10   3  25    3.92    0.54
 -10   5 -25    5.78    0.62
  -5 -10 -25    5.84    0.62
  -5  10 -25    5.93    0.65
  10  -5  25    6.63    0.67
   5 -10  25    4.69    0.55
  -7  10 -25    4.40    0.57
 -10   7 -25    4.35    0.56
  10  -7  25    3.63    0.52
  10  -9  25    1.53    0.37
 -10   9 -25    1.11    0.40
  -9  10 -25    1.10    0.37
   0 -11 -25    0.05    0.32
  11   0  25    0.19    0.32
  -2 -11 -25    0.32    0.34
   2 -11 -25    0.49    0.34
  11  -2  25    0.14    0.33
  11   2  25    0.31    0.36
  -4  11 -25    0.13    0.32
  -4 -11 -25    0.04    0.31
 -11   4 -25   -0.12    0.32
  11  -4  25   -0.05    0.32
 -11   6 -25    8.67    0.72
  -6 -11 -25    9.04    0.74
  -6  11 -25    9.38    0.77
  11  -6  25    8.06    0.72
  -8  11 -25    2.12    0.45
 -11   8 -25    1.83    0.42
  11  -8  25    2.33    0.43
 -11  10 -25    2.08    0.42
 -10  11 -25    1.84    0.40
  -1 -12 -25    0.59    0.35
   1 -12 -25    0.19    0.32
  12  -1  25    0.32    0.35
  12   1  25    0.54    0.36
  -3  12 -25   -0.08    0.29
  -3 -12 -25    0.04    0.31
   3 -12 -25   -0.09    0.31
 -12   3 -25   -0.12    0.30
  12  -3  25    0.27    0.35
  12   3  25    0.12    0.29
  -5  12 -25    1.00    0.37
  -5 -12 -25    0.91    0.36
 -12   5 -25    0.88    0.37
  12  -5  25    1.33    0.40
  -7  12 -25    0.48    0.33
  -7 -12 -25    0.51    0.32
 -12   7 -25    0.32    0.32
  12  -7  25    0.38    0.31
  -9  12 -25    0.26    0.29
 -12   9 -25    0.38    0.31
   0 -13 -25   -0.13    0.35
  13   0  25   -0.04    0.33
  -2 -13 -25    4.86    0.60
   2 -13 -25    5.14    0.63
 -13   2 -25    3.80    0.51
  13  -2  25    4.50    0.59
  13   2  25    4.83    0.56
  -4  13 -25    0.97    0.37
  -4 -13 -25    1.08    0.38
   4 -13 -25    1.62    0.42
 -13   4 -25    0.93    0.34
  13  -4  25    1.78    0.43
  -6  13 -25    3.73    0.53
  -6 -13 -25    4.17    0.53
   6 -13 -25    3.84    0.54
  13  -6  25    4.56    0.54
 -13   6 -25    4.05    0.52
  -8  13 -25    0.11    0.28
  -8 -13 -25   -0.07    0.24
 -13   8 -25   -0.07    0.29
  13  -8  25   -0.03    0.26
  -1 -14 -25    2.02    0.43
   1 -14 -25    2.29    0.45
  14  -1  25    1.70    0.42
  14   1  25    2.20    0.44
  -3  14 -25    0.16    0.29
  -3 -14 -25   -0.04    0.29
   3 -14 -25    0.21    0.32
 -14   3 -25    0.11    0.28
  14  -3  25    0.24    0.30
  14   3  25    0.29    0.30
 -14   5 -25    8.38    0.67
  -5 -14 -25    7.75    0.65
   5 -14 -25    7.68    0.68
  -5  14 -25    7.62    0.67
  14  -5  25    7.84    0.68
  -7  14 -25   -0.04    0.29
  -7 -14 -25    0.20    0.27
   7 -14 -25    0.04    0.30
 -14   7 -25    0.04    0.26
  14  -7  25    0.20    0.26
   0 -15 -25   -0.12    0.31
  15   0  25   -0.08    0.31
  -2  15 -25    2.58    0.44
  -2 -15 -25    4.12    0.52
 -15   2 -25    3.44    0.47
   2 -15 -25    2.99    0.48
  15  -2  25    3.80    0.51
  15   2  25    3.34    0.46
  -4  15 -25    0.61    0.30
  -4 -15 -25    0.85    0.32
   4 -15 -25    0.98    0.34
 -15   4 -25    0.94    0.32
  15  -4  25    0.41    0.31
   0   0  26   -0.14    0.32
  -1   1  26    0.69    0.35
  -1  -1  26    0.91    0.37
   1   1  26    1.03    0.43
   1  -1  26    1.16    0.42
  -2   0  26   71.86    2.21
   0   2  26   68.50    2.11
   0  -2  26   74.49    2.27
   2   0  26   65.29    2.13
  -2   2  26    0.49    0.33
  -2  -2  26    1.65    0.45
   2   2  26    0.68    0.37
   2  -2  26    1.76    0.46
  -3   1  26    5.26    0.63
  -3  -1  26    5.35    0.66
  -1  -3  26    5.79    0.66
   3   1  26    5.18    0.63
   1   3  26    4.82    0.58
   1  -3  26    5.24    0.64
   3  -1  26    4.76    0.62
  -3  -3  26    7.18    0.73
   3   3  26    8.10    0.72
   3  -3  26    7.99    0.77
  -4   0  26  139.33    3.36
   0  -4  26  147.76    3.45
   4   0  26  149.71    3.45
  -4   2  26  342.90    6.06
  -4  -2  26  343.77    6.18
  -2  -4  26  357.50    6.25
   2  -4  26  340.25    6.18
   4   2  26  329.58    6.02
   4  -2  26  342.11    6.19
  -4  -4  26    1.19    0.42
   4  -4  26    0.10    0.35
  -1  -5  26    0.24    0.35
   1  -5  26    0.43    0.37
   5   1  26    0.05    0.31
   5  -1  26    0.19    0.32
  -3  -5  26    1.03    0.39
   3  -5  26    1.66    0.44
   5   3  26    1.25    0.40
   5  -3  26    0.72    0.40
   5  -5  26    1.39    0.43
   0  -6  26   49.39    1.79
   6   0  26   47.13    1.76
  -2  -6 -26    2.18    0.44
  -2  -6  26    1.99    0.50
   2  -6  26    1.45    0.44
   6   2  26    2.50    0.49
   6  -2  26    1.91    0.48
   6 -26   4  286.03    5.59
   4  -6  26  292.05    5.46
   6  -4  26  294.93    5.46
   6  -6  26   -0.04    0.34
  -1  -7 -26    2.28    0.45
  -1  -7  26    2.21    0.44
   1  -7  26    3.08    0.52
   7   1  26    2.55    0.50
   7  -1  26    2.31    0.47
  -3  -7  26    1.89    0.43
   3  -7  26    2.01    0.45
   7   3  26    1.74    0.43
   7  -3  26    2.02    0.49
   5  -7  26    3.66    0.55
   7  -5  26    3.63    0.57
   7  -7  26    1.40    0.40
   0  -8  26    2.96    0.47
   8   0  26    0.60    0.35
   8 -26   2   50.28    1.91
   8 -26  -2   49.59    1.91
  -2  -8 -26   50.03    1.76
  -2  -8  26   49.24    1.74
   2  -8  26   54.83    1.83
   8   2  26   51.93    1.79
   8  -2  26   58.48    1.94
   4  -8  26   78.05    2.23
   8  -4  26   76.05    2.29
   6  -8  26   49.15    1.69
   8  -6  26   43.34    1.63
   8  -8  26    0.90    0.34
   1  -9  26    4.82    0.56
  -1  -9 -26    3.47    0.52
  -1  -9  26    4.39    0.55
   9   1  26    3.46    0.53
   9  -1  26    4.46    0.57
  -3  -9 -26    0.55    0.34
   3  -9  26    0.57    0.32
   9   3  26    0.77    0.36
   9  -3  26    0.55    0.32
   5  -9  26    5.73    0.59
   9  -5  26    5.30    0.61
   7  -9  26    0.50    0.29
   9  -7  26    0.52    0.32
   9  -9  26    2.51    0.41
  -9   9 -26    1.75    0.38
   0 -10 -26   41.55    1.61
   0 -10  26   42.82    1.52
  10   0  26   44.04    1.63
   2 -10  26    4.62    0.53
  -2 -10 -26    2.38    0.45
   2 -10 -26    2.73    0.48
  10   2  26    1.91    0.43
  10  -2  26    3.40    0.52
  -4 -10 -26  239.63    4.56
  10  -4  26  247.41    4.71
  10  -6  26    1.77    0.43
 -10   8 -26   41.29    1.47
  -8  10 -26   41.81    1.48
  10  -8  26   42.49    1.47
  -1 -11 -26    0.64    0.32
   1 -11 -26    0.65    0.34
  11   1  26    1.04    0.36
  11  -1  26    0.78    0.37
  -3 -11 -26    0.28    0.33
   3 -11 -26   -0.22    0.41
  11   3  26    0.08    0.28
  11  -3  26    0.08    0.33
  -5 -11 -26    3.05    0.47
  11  -5  26    3.37    0.51
  -7  11 -26    0.11    0.33
 -11   7 -26    0.29    0.32
  11  -7  26    0.33    0.27
   0 -12 -26   35.35    1.44
  12   0  26   39.35    1.49
  -2 -12 -26  195.60    3.90
   2 -12 -26  187.84    3.92
  12   2  26  191.51    3.82
  12  -2  26  189.48    3.90
   4 -12 -26   -0.04    0.30
  12  -4  26    0.28    0.29
 -12   6 -26  186.40    3.66
  -6 -12 -26  190.17    3.66
  -6  12 -26  192.77    3.75
   6 -12 -26  183.27    3.77
  12  -6  26  188.96    3.73
  -1 -13 -26    8.16    0.71
   1 -13 -26    7.35    0.69
  13  -1  26    9.10    0.70
  13   1  26    7.73    0.66
  -3 -13 -26    1.69    0.39
   3 -13 -26    1.09    0.35
  13  -3  26    1.81    0.41
 -13   5 -26    6.00    0.57
  -5 -13 -26    6.13    0.58
  -5  13 -26    6.12    0.61
   5 -13 -26    4.38    0.54
  13  -5  26    6.22    0.60
   0 -14 -26   40.94    1.46
  14   0  26   37.69    1.40
  -2 -14 -26    0.29    0.28
   2 -14 -26    0.22    0.26
  14  -2  26   -0.11    0.27
  -1   0  27    0.40    0.32
   0   1  27    0.17    0.30
   0  -1  27   -0.23    0.33
   1   0  27   -0.09    0.30
  -2   1  27    0.30    0.31
  -2  -1  27    0.04    0.32
  -1   2  27    0.38    0.32
  -1  -2  27   -0.09    0.32
   1   2  27    0.17    0.32
   1  -2  27    0.41    0.33
   2   1  27   -0.04    0.29
   2  -1  27    0.09    0.30
  -3   0  27    0.22    0.30
   0  -3  27    0.14    0.29
   3   0  27    0.40    0.36
  -3   2  27    6.47    0.65
  -3  -2  27    5.52    0.63
  -2  -3  27    5.72    0.63
   2  -3  27    5.35    0.63
   3   2  27    5.64    0.62
   3  -2  27    6.18    0.66
  -1  -4  27    0.09    0.31
   1  -4  27   -0.23    0.32
   4   1  27    0.09    0.30
   4  -1  27    0.05    0.32
   4 -27  -3   -0.15    0.33
  -3  -4  27    0.13    0.30
   3  -4  27   -0.04    0.33
   4  -3  27   -0.14    0.29
   0  -5  27   -0.09    0.29
   5   0  27   -0.04    0.30
   5 -27   2    0.50    0.39
  -2  -5  27    0.13    0.29
   2  -5  27    0.53    0.32
   5   2  27    0.38    0.33
   5  -2  27    1.13    0.39
   4  -5  27    0.48    0.34
   5  -4  27   -0.09    0.31
  -1  -6  27   10.32    0.81
   1  -6  27   10.66    0.82
   6   1  27   10.16    0.79
   6  -1  27   10.90    0.83
   3  -6  27    2.15    0.44
   6  -3  27    1.77    0.43
   5  -6  27    2.56    0.46
   6  -5  27    2.01    0.42
   7 -27   0    0.49    0.34
   0  -7 -27   -0.04    0.29
   0  -7  27    0.04    0.32
   7   0  27    0.17    0.29
  -2  -7  27    7.94    0.72
   2  -7  27    7.70    0.69
   7   2  27    7.25    0.67
   7  -2  27    9.40    0.77
   4  -7  27    0.86    0.36
   7  -4  27    0.77    0.33
   6  -7  27    0.28    0.29
   7  -6  27    0.04    0.29
  -1  -8 -27    0.08    0.31
   1  -8 -27    0.04    0.29
  -1  -8  27    0.04    0.28
   1  -8  27    0.16    0.29
   8   1  27    0.33    0.31
   8  -1  27    0.43    0.32
   3  -8  27    2.16    0.43
   8  -3  27    1.49    0.40
   5  -8  27    0.38    0.29
   8  -5  27   -0.08    0.30
   7  -8  27    0.51    0.29
   8  -7  27    0.48    0.30
   0  -9 -27   -0.04    0.30
   0  -9  27    0.15    0.28
   9   0  27    0.04    0.29
  -2  -9 -27    3.46    0.49
   2  -9 -27    3.57    0.51
   2  -9  27    3.45    0.48
   9   2  27    3.00    0.49
   9  -2  27    3.21    0.51
   4  -9  27    1.74    0.38
   9  -4  27    1.50    0.41
   6  -9  27    1.98    0.40
   9  -6  27    2.85    0.45
  -1 -10 -27    1.96    0.40
   1 -10 -27    1.42    0.36
   1 -10  27    1.45    0.34
  10   1  27    1.19    0.35
  10  -1  27    1.65    0.40
  -3 -10 -27    0.55    0.29
   3 -10 -27    0.24    0.29
  10  -3  27    0.16    0.28
  10  -5  27    7.38    0.65
   0 -11 -27    0.11    0.25
  11   0  27   -0.08    0.28
  -2 -11 -27    2.48    0.44
   2 -11 -27    2.85    0.46
  11   2  27    1.87    0.40
  11  -2  27    2.49    0.45
  -4 -11 -27   -0.03    0.26
   4 -11 -27    0.04    0.26
  11  -4  27    0.04    0.28
  -1 -12 -27    0.11    0.26
   1 -12 -27   -0.14    0.27
  12  -1  27   -0.04    0.26
   0   0  28  163.72    3.50
  -1   1  28    0.04    0.29
  -1  -1  28   -0.12    0.33
   1   1  28   -0.12    0.30
   1  -1  28   -0.12    0.32
  -2   0  28   67.84    2.02
   0   2  28   66.17    1.96
   0  -2  28   70.56    2.09
   2   0  28   67.71    2.02
  -2  -2  28  216.87    4.25
   2   2  28  206.89    4.09
   2  -2  28  219.22    4.28
  -1  -3  28    0.25    0.30
   1  -3  28    0.62    0.34
   3   1  28    0.40    0.31
   3  -1  28    0.37    0.31
   3  -3  28    0.12    0.29
   0  -4  28   23.96    1.16
   4   0  28   23.00    1.13
  -2  -4  28    0.49    0.33
   2  -4  28    0.53    0.32
   4   2  28    0.53    0.32
   4  -2  28    1.16    0.38
   4  -4  28    7.51    0.69
  -1  -5  28    0.20    0.31
   1  -5  28    0.08    0.29
   5   1  28    0.16    0.29
   5  -1  28   -0.16    0.31
   3  -5  28    0.68    0.31
   5  -3  28    0.98    0.35
   5  -5  28    0.12    0.29
   0  -6  28  117.46    2.78
   6   0  28  118.36    2.82
   2  -6  28  241.82    4.53
   6   2  28  238.01    4.46
   6  -2  28  247.97    4.64
   4  -6  28    1.14    0.34
   6  -4  28    2.49    0.44
   6  -6  28  193.99    3.81
   1  -7 -28   -0.07    0.33
  -1  -7  28    0.15    0.28
   1  -7  28    0.30    0.31
   7   1  28   -0.04    0.29
   7  -1  28   -0.12    0.31
   3  -7  28    1.43    0.36
   7  -3  28    1.41    0.38
   5  -7  28    0.25    0.28
   7  -5  28    0.04    0.27
   0  -8 -28  193.02    3.81
   0  -8  28  205.02    3.88
   8   0  28  204.13    3.94
   2  -8 -28   71.08    2.00
   2  -8  28   77.64    2.05
   8   2  28   71.51    1.98
   8  -2  28   75.82    2.09
   4  -8  28   33.72    1.27
   8  -4  28   32.78    1.30
  -1  -9 -28   -0.03    0.31
   1  -9 -28    0.21    0.28
   1  -9  28    0.03    0.26
   9   1  28    0.14    0.27
   9  -1  28    0.07    0.28
   3  -9 -28    0.73    0.31
   9  -3  28    0.76    0.31
  -1   0  29    0.04    0.25
   0   1  29    0.03    0.24
   0  -1  29   -0.04    0.28
   1   0  29    0.04    0.28
  -1  -2  29    2.65    0.43
   1  -2  29    2.73    0.44
   2   1  29    2.41    0.40
   2  -1  29    2.31    0.40
   0  -3  29    0.07    0.25
   3   0  29    0.21    0.26
   2  -3  29    3.73    0.49
   3  -2  29    3.03    0.44
  -1  -4  29    0.87    0.32
   1  -4  29    0.69    0.29
   4   1  29    0.76    0.31
   4  -1  29    0.62    0.30
   3  -4  29    0.93    0.32
   4  -3  29    1.59    0.39
   0  -5  29    0.04    0.28
   5   0  29    0.14    0.28
   2  -5  29    2.39    0.41
   5  -2  29    2.31    0.41
   0   0   0    0.00    0.00
TITL exp_1 in Ia-3d
REM Ia-3d (#230 in standard setting)
CELL 0.71073  12.757599  12.757599  12.757599  90.0000  90.0000  90.0000
ZERR    8.00   0.000088   0.000088   0.000088   0.0000   0.0000   0.0000
LATT  2
SYMM -x+1/2,-y, z+1/2
SYMM -x, y+1/2,-z+1/2
SYMM  x+1/2,-y+1/2,-z
SYMM  z, x, y
SYMM  z+1/2,-x+1/2,-y
SYMM -z+1/2,-x, y+1/2
SYMM -z, x+1/2,-y+1/2
SYMM  y, z, x
SYMM -y, z+1/2,-x+1/2
SYMM  y+1/2,-z+1/2,-x
SYMM -y+1/2,-z, x+1/2
SYMM  y+3/4, x+1/4,-z+1/4
SYMM -y+3/4,-x+3/4,-z+3/4
SYMM  y+1/4,-x+1/4, z+3/4
SYMM -y+1/4, x+3/4, z+1/4
SYMM  x+3/4, z+1/4,-y+1/4
SYMM -x+1/4, z+3/4, y+1/4
SYMM -x+3/4,-z+3/4,-y+3/4
SYMM  x+1/4,-z+1/4, y+3/4
SYMM  z+3/4, y+1/4,-x+1/4
SYMM  z+1/4,-y+1/4, x+3/4
SYMM -z+1/4, y+3/4, x+1/4
SYMM -z+3/4,-y+3/4,-x+3/4
SFAC O Na Ca V Cd
UNIT 96.00 8.00 16.00 24.00 16.00
TREF
HKLF 4
END
_computing_structure_solution     'SHELXT 2014/5 (Sheldrick, 2014)'
;
_shelx_hkl_checksum              60253
_shelx_res_file
;
TITL exp_1_a.res in Ia-3d
    shelx.res
    created by SHELXL-2016/6 at 11:01:25 on 27-Feb-2018
REM Old TITL exp_1_a.res in Ia-3d
REM SHELXT solution in Ia-3d
REM R1 0.116, Rweak 0.000, Alpha 0.052, Orientation as input
REM Formula found by SHELXT: O12 Na3 V3 Cd2
CELL 0.71073 12.7576 12.7576 12.7576 90 90 90
ZERR 8 0.0001 0.0001 0.0001 0 0 0
LATT 2
SYMM 0.5-X,-Y,0.5+Z
SYMM -X,0.5+Y,0.5-Z
SYMM 0.5+X,0.5-Y,-Z
SYMM +Z,+X,+Y
SYMM 0.5+Z,0.5-X,-Y
SYMM 0.5-Z,-X,0.5+Y
SYMM -Z,0.5+X,0.5-Y
SYMM +Y,+Z,+X
SYMM -Y,0.5+Z,0.5-X
SYMM 0.5+Y,0.5-Z,-X
SYMM 0.5-Y,-Z,0.5+X
SYMM 0.75+Y,0.25+X,0.25-Z
SYMM 0.75-Y,0.75-X,0.75-Z
SYMM 0.25+Y,0.25-X,0.75+Z
SYMM 0.25-Y,0.75+X,0.25+Z
SYMM 0.75+X,0.25+Z,0.25-Y
SYMM 0.25-X,0.75+Z,0.25+Y
SYMM 0.75-X,0.75-Z,0.75-Y
SYMM 0.25+X,0.25-Z,0.75+Y
SYMM 0.75+Z,0.25+Y,0.25-X
SYMM 0.25+Z,0.25-Y,0.75+X
SYMM 0.25-Z,0.75+Y,0.25+X
SYMM 0.75-Z,0.75-Y,0.75-X
SFAC O Na Ca V Cd
UNIT 96 8 16 24 16
EADP Ca1 Na1 Cd1
EXYZ Ca1 Na1 Cd1
SUMP 1.0 0.01 1.0 2 1.0 3 1.0 4
SUMP 1.7 0.01 2.0 2 1.0 3 2.0 4
L.S. 15
PLAN  5
BOND
list 4
fmap 2
acta
OMIT -3 90
REM <olex2.extras>
REM <HklSrc "%.\\exp_1.hkl">
REM </olex2.extras>
WGHT    0.024000    1.850000
EXTI    0.001771
FVAR       0.13654   0.65994   0.33653   0.02050   0.01000
CD01  5    0.500000    0.500000    0.500000    10.16667    0.01059    0.01059 =
         0.01059   -0.00065   -0.00065   -0.00065
V002  4    0.625000    0.500000    0.250000    10.25000    0.00688    0.00767 =
         0.00767    0.00000    0.00000    0.00000
CA1   3    0.375000    0.500000    0.250000    20.25000    0.00856    0.01245 =
         0.01245    0.00144    0.00000    0.00000
O004  1    0.540149    0.441686    0.337340    11.00000    0.01415    0.01295 =
         0.00979    0.00008    0.00159   -0.00146
NA1   2    0.375000    0.500000    0.250000    30.25000    0.00856    0.01245 =
         0.01245    0.00144    0.00000    0.00000
CD1   5    0.375000    0.500000    0.250000    40.25000    0.00856    0.01245 =
         0.01245    0.00144    0.00000    0.00000
HKLF 4
REM  exp_1_a.res in Ia-3d
REM R1 =  0.0163 for     675 Fo > 4sig(Fo)  and  0.0175 for all     719 data
REM     22 parameters refined using      2 restraints
END
WGHT      0.0241      1.8068
REM Highest difference peak  0.608,  deepest hole -1.598,  1-sigma level  0.121
Q1    1   0.4986  0.5145  0.5494  11.00000  0.05    0.61
Q2    1   0.5108  0.5312  0.5346  11.00000  0.05    0.49
Q3    1   0.4974  0.3750  0.2526  10.50000  0.05    0.43
Q4    1   0.3680  0.4579  0.2461  11.00000  0.05    0.40
Q5    1   0.5903  0.4566  0.3106  11.00000  0.05    0.39
;
_shelx_res_checksum              84221
loop_
_space_group_symop_operation_xyz
'x, y, z'
'-x+1/2, -y, z+1/2'
'-x, y+1/2, -z+1/2'
'x+1/2, -y+1/2, -z'
'z, x, y'
'z+1/2, -x+1/2, -y'
'-z+1/2, -x, y+1/2'
'-z, x+1/2, -y+1/2'
'y, z, x'
'-y, z+1/2, -x+1/2'
'y+1/2, -z+1/2, -x'
'-y+1/2, -z, x+1/2'
'y+3/4, x+1/4, -z+1/4'
'-y+3/4, -x+3/4, -z+3/4'
'y+1/4, -x+1/4, z+3/4'
'-y+1/4, x+3/4, z+1/4'
'x+3/4, z+1/4, -y+1/4'
'-x+1/4, z+3/4, y+1/4'
'-x+3/4, -z+3/4, -y+3/4'
'x+1/4, -z+1/4, y+3/4'
'z+3/4, y+1/4, -x+1/4'
'z+1/4, -y+1/4, x+3/4'
'-z+1/4, y+3/4, x+1/4'
'-z+3/4, -y+3/4, -x+3/4'
'x+1/2, y+1/2, z+1/2'
'-x+1, -y+1/2, z+1'
'-x+1/2, y+1, -z+1'
'x+1, -y+1, -z+1/2'
'z+1/2, x+1/2, y+1/2'
'z+1, -x+1, -y+1/2'
'-z+1, -x+1/2, y+1'
'-z+1/2, x+1, -y+1'
'y+1/2, z+1/2, x+1/2'
'-y+1/2, z+1, -x+1'
'y+1, -z+1, -x+1/2'
'-y+1, -z+1/2, x+1'
'y+5/4, x+3/4, -z+3/4'
'-y+5/4, -x+5/4, -z+5/4'
'y+3/4, -x+3/4, z+5/4'
'-y+3/4, x+5/4, z+3/4'
'x+5/4, z+3/4, -y+3/4'
'-x+3/4, z+5/4, y+3/4'
'-x+5/4, -z+5/4, -y+5/4'
'x+3/4, -z+3/4, y+5/4'
'z+5/4, y+3/4, -x+3/4'
'z+3/4, -y+3/4, x+5/4'
'-z+3/4, y+5/4, x+3/4'
'-z+5/4, -y+5/4, -x+5/4'
'-x, -y, -z'
'x-1/2, y, -z-1/2'
'x, -y-1/2, z-1/2'
'-x-1/2, y-1/2, z'
'-z, -x, -y'
'-z-1/2, x-1/2, y'
'z-1/2, x, -y-1/2'
'z, -x-1/2, y-1/2'
'-y, -z, -x'
'y, -z-1/2, x-1/2'
'-y-1/2, z-1/2, x'
'y-1/2, z, -x-1/2'
'-y-3/4, -x-1/4, z-1/4'
'y-3/4, x-3/4, z-3/4'
'-y-1/4, x-1/4, -z-3/4'
'y-1/4, -x-3/4, -z-1/4'
'-x-3/4, -z-1/4, y-1/4'
'x-1/4, -z-3/4, -y-1/4'
'x-3/4, z-3/4, y-3/4'
'-x-1/4, z-1/4, -y-3/4'
'-z-3/4, -y-1/4, x-1/4'
'-z-1/4, y-1/4, -x-3/4'
'z-1/4, -y-3/4, -x-1/4'
'z-3/4, y-3/4, x-3/4'
'-x+1/2, -y+1/2, -z+1/2'
'x, y+1/2, -z'
'x+1/2, -y, z'
'-x, y, z+1/2'
'-z+1/2, -x+1/2, -y+1/2'
'-z, x, y+1/2'
'z, x+1/2, -y'
'z+1/2, -x, y'
'-y+1/2, -z+1/2, -x+1/2'
'y+1/2, -z, x'
'-y, z, x+1/2'
'y, z+1/2, -x'
'-y-1/4, -x+1/4, z+1/4'
'y-1/4, x-1/4, z-1/4'
'-y+1/4, x+1/4, -z-1/4'
'y+1/4, -x-1/4, -z+1/4'
'-x-1/4, -z+1/4, y+1/4'
'x+1/4, -z-1/4, -y+1/4'
'x-1/4, z-1/4, y-1/4'
'-x+1/4, z+1/4, -y-1/4'
'-z-1/4, -y+1/4, x+1/4'
'-z+1/4, y+1/4, -x-1/4'
'z+1/4, -y-1/4, -x+1/4'
'z-1/4, y-1/4, x-1/4'
loop_
_atom_site_type_symbol
_atom_site_label
_atom_site_fract_x
_atom_site_fract_y
_atom_site_fract_z
_atom_site_U_iso_or_equiv
_atom_site_adp_type
_atom_site_calc_flag
_atom_site_occupancy
Cd Cd01 0.500000 0.500000 0.500000 0.01059(6) Uani d 1
V V002 0.625000 0.500000 0.250000 0.00741(6) Uani d 1
Ca Ca1 0.375000 0.500000 0.250000 0.01115(15) Uani d 0.660(14)
O O004 0.54015(4) 0.44169(4) 0.33734(4) 0.01230(10) Uani d 1
Na Na1 0.375000 0.500000 0.250000 0.01115(15) Uani d 0.34(2)
Cd Cd1 0.375000 0.500000 0.250000 0.01115(15) Uani d 0.021(3)
loop_
_atom_site_aniso_label
_atom_site_aniso_U_11
_atom_site_aniso_U_22
_atom_site_aniso_U_33
_atom_site_aniso_U_12
_atom_site_aniso_U_13
_atom_site_aniso_U_23
Cd01 0.01059(6) 0.01059(6) 0.01059(6) -0.000650(10) -0.000650(10) -0.000650(10)
V002 0.00688(9) 0.00767(7) 0.00767(7) 0.000 0.000 0.000
Ca1 0.00856(18) 0.01245(16) 0.01245(16) 0.000 0.000 0.00144(7)
O004 0.01415(19) 0.01295(19) 0.00979(17) -0.00146(14) 0.00159(14) 0.00008(14)
Na1 0.00856(18) 0.01245(16) 0.01245(16) 0.000 0.000 0.00144(7)
Cd1 0.00856(18) 0.01245(16) 0.01245(16) 0.000 0.000 0.00144(7)
loop_
_atom_type_symbol
_atom_type_description
_atom_type_scat_dispersion_real
_atom_type_scat_dispersion_imag
_atom_type_scat_source
O O 0.0106 0.0060 'International Tables Vol C Tables 4.2.6.8 and 6.1.1.4'
Na Na 0.0362 0.0249 'International Tables Vol C Tables 4.2.6.8 and 6.1.1.4'
Ca Ca 0.2262 0.3064 'International Tables Vol C Tables 4.2.6.8 and 6.1.1.4'
V V 0.3005 0.5294 'International Tables Vol C Tables 4.2.6.8 and 6.1.1.4'
Cd Cd -0.8075 1.2024 'International Tables Vol C Tables 4.2.6.8 and 6.1.1.4'
loop_
_geom_angle_atom_site_label_1
_geom_angle_atom_site_label_2
_geom_angle_atom_site_label_3
_geom_angle_site_symmetry_1
_geom_angle_site_symmetry_3
_geom_angle
O004 Cd01 O004 . 57_666 91.12(2)
O004 Cd01 O004 . 9 88.88(2)
O004 Cd01 O004 57_666 9 180.0
O004 Cd01 O004 . 53_666 91.12(2)
O004 Cd01 O004 57_666 53_666 88.88(2)
O004 Cd01 O004 9 53_666 91.12(2)
O004 Cd01 O004 . 5 88.88(2)
O004 Cd01 O004 57_666 5 91.12(2)
O004 Cd01 O004 9 5 88.88(2)
O004 Cd01 O004 53_666 5 180.0
O004 Cd01 O004 . 49_666 180.0
O004 Cd01 O004 57_666 49_666 88.884(19)
O004 Cd01 O004 9 49_666 91.12(2)
O004 Cd01 O004 53_666 49_666 88.884(19)
O004 Cd01 O004 5 49_666 91.116(19)
O004 Cd01 Ca1 . . 44.037(14)
O004 Cd01 Ca1 57_666 . 86.822(14)
O004 Cd01 Ca1 9 . 93.178(14)
O004 Cd01 Ca1 53_666 . 134.753(13)
O004 Cd01 Ca1 5 . 45.247(13)
O004 Cd01 Ca1 49_666 . 135.964(14)
O004 Cd01 Ca1 . 9 45.246(13)
O004 Cd01 Ca1 57_666 9 135.964(14)
O004 Cd01 Ca1 9 9 44.036(14)
O004 Cd01 Ca1 53_666 9 86.822(14)
O004 Cd01 Ca1 5 9 93.178(14)
O004 Cd01 Ca1 49_666 9 134.753(13)
Ca1 Cd01 Ca1 . 9 66.4
O004 Cd01 Ca1 . 57_666 134.754(13)
O004 Cd01 Ca1 57_666 57_666 44.036(14)
O004 Cd01 Ca1 9 57_666 135.964(14)
O004 Cd01 Ca1 53_666 57_666 93.178(14)
O004 Cd01 Ca1 5 57_666 86.822(14)
O004 Cd01 Ca1 49_666 57_666 45.247(13)
Ca1 Cd01 Ca1 . 57_666 113.6
Ca1 Cd01 Ca1 9 57_666 180.0
O004 Cd01 Ca1 . 53_666 86.823(14)
O004 Cd01 Ca1 57_666 53_666 45.247(13)
O004 Cd01 Ca1 9 53_666 134.753(13)
O004 Cd01 Ca1 53_666 53_666 44.036(14)
O004 Cd01 Ca1 5 53_666 135.964(14)
O004 Cd01 Ca1 49_666 53_666 93.178(14)
Ca1 Cd01 Ca1 . 53_666 113.6
Ca1 Cd01 Ca1 9 53_666 113.6
Ca1 Cd01 Ca1 57_666 53_666 66.4
O004 Cd01 Ca1 . 5 93.177(14)
O004 Cd01 Ca1 57_666 5 134.753(13)
O004 Cd01 Ca1 9 5 45.247(13)
O004 Cd01 Ca1 53_666 5 135.964(14)
O004 Cd01 Ca1 5 5 44.036(14)
O004 Cd01 Ca1 49_666 5 86.822(14)
Ca1 Cd01 Ca1 . 5 66.4
Ca1 Cd01 Ca1 9 5 66.4
Ca1 Cd01 Ca1 57_666 5 113.6
Ca1 Cd01 Ca1 53_666 5 180.0
O004 Cd01 Ca1 . 49_666 135.963(14)
O004 Cd01 Ca1 57_666 49_666 93.178(14)
O004 Cd01 Ca1 9 49_666 86.822(14)
O004 Cd01 Ca1 53_666 49_666 45.247(13)
O004 Cd01 Ca1 5 49_666 134.753(13)
O004 Cd01 Ca1 49_666 49_666 44.036(14)
Ca1 Cd01 Ca1 . 49_666 180.0
Ca1 Cd01 Ca1 9 49_666 113.6
Ca1 Cd01 Ca1 57_666 49_666 66.4
Ca1 Cd01 Ca1 53_666 49_666 66.4
Ca1 Cd01 Ca1 5 49_666 113.6
O004 V002 O004 92_656 28_455 113.27(2)
O004 V002 O004 92_656 65_765 102.12(4)
O004 V002 O004 28_455 65_765 113.27(2)
O004 V002 O004 92_656 . 113.26(2)
O004 V002 O004 28_455 . 102.13(4)
O004 V002 O004 65_765 . 113.26(2)
O004 V002 Ca1 92_656 . 128.938(19)
O004 V002 Ca1 28_455 . 51.062(19)
O004 V002 Ca1 65_765 . 128.938(19)
O004 V002 Ca1 . . 51.063(19)
O004 V002 Ca1 92_656 50_656 51.062(19)
O004 V002 Ca1 28_455 50_656 128.938(19)
O004 V002 Ca1 65_765 50_656 51.062(19)
O004 V002 Ca1 . 50_656 128.937(19)
Ca1 V002 Ca1 . 50_656 180.0
O004 Ca1 O004 19 42_544 64.90(2)
O004 Ca1 O004 19 28_455 167.96(2)
O004 Ca1 O004 42_544 28_455 116.50(2)
O004 Ca1 O004 19 . 116.50(2)
O004 Ca1 O004 42_544 . 167.96(2)
O004 Ca1 O004 28_455 . 64.90(2)
O004 Ca1 O004 19 47_544 121.891(11)
O004 Ca1 O004 42_544 47_544 77.90(2)
O004 Ca1 O004 28_455 47_544 69.15(2)
O004 Ca1 O004 . 47_544 92.131(14)
O004 Ca1 O004 19 30_455 92.130(14)
O004 Ca1 O004 42_544 30_455 69.15(2)
O004 Ca1 O004 28_455 30_455 77.90(2)
O004 Ca1 O004 . 30_455 121.891(11)
O004 Ca1 O004 47_544 30_455 115.00(2)
O004 Ca1 O004 19 24 77.90(2)
O004 Ca1 O004 42_544 24 121.891(11)
O004 Ca1 O004 28_455 24 92.130(14)
O004 Ca1 O004 . 24 69.15(2)
O004 Ca1 O004 47_544 24 158.23(2)
O004 Ca1 O004 30_455 24 69.43(3)
O004 Ca1 O004 19 5 69.15(2)
O004 Ca1 O004 42_544 5 92.130(14)
O004 Ca1 O004 28_455 5 121.891(11)
O004 Ca1 O004 . 5 77.90(2)
O004 Ca1 O004 47_544 5 69.43(3)
O004 Ca1 O004 30_455 5 158.23(2)
O004 Ca1 O004 24 5 115.00(2)
O004 Ca1 V002 19 50_556 32.451(12)
O004 Ca1 V002 42_544 50_556 32.451(12)
O004 Ca1 V002 28_455 50_556 147.549(12)
O004 Ca1 V002 . 50_556 147.548(12)
O004 Ca1 V002 47_544 50_556 100.886(12)
O004 Ca1 V002 30_455 50_556 79.114(12)
O004 Ca1 V002 24 50_556 100.886(12)
O004 Ca1 V002 5 50_556 79.114(12)
O004 Ca1 V002 19 . 147.549(12)
O004 Ca1 V002 42_544 . 147.549(12)
O004 Ca1 V002 28_455 . 32.451(12)
O004 Ca1 V002 . . 32.452(12)
O004 Ca1 V002 47_544 . 79.114(12)
O004 Ca1 V002 30_455 . 100.886(12)
O004 Ca1 V002 24 . 79.114(12)
O004 Ca1 V002 5 . 100.886(12)
V002 Ca1 V002 50_556 . 180.0
O004 Ca1 Cd01 19 14 39.056(12)
O004 Ca1 Cd01 42_544 14 91.247(12)
O004 Ca1 Cd01 28_455 14 130.081(12)
O004 Ca1 Cd01 . 14 96.366(12)
O004 Ca1 Cd01 47_544 14 160.758(12)
O004 Ca1 Cd01 30_455 14 74.662(12)
O004 Ca1 Cd01 24 14 39.175(11)
O004 Ca1 Cd01 5 14 95.486(13)
V002 Ca1 Cd01 50_556 14 63.4
V002 Ca1 Cd01 . 14 116.6
O004 Ca1 Cd01 19 . 96.367(12)
O004 Ca1 Cd01 42_544 . 130.081(12)
O004 Ca1 Cd01 28_455 . 91.247(12)
O004 Ca1 Cd01 . . 39.056(12)
O004 Ca1 Cd01 47_544 . 74.662(12)
O004 Ca1 Cd01 30_455 . 160.758(12)
O004 Ca1 Cd01 24 . 95.486(13)
O004 Ca1 Cd01 5 . 39.175(11)
V002 Ca1 Cd01 50_556 . 116.6
V002 Ca1 Cd01 . . 63.4
Cd01 Ca1 Cd01 14 . 101.5
V002 O004 Cd01 . . 126.40(3)
V002 O004 Ca1 . . 96.48(2)
Cd01 O004 Ca1 . . 96.91(2)
V002 O004 Ca1 . 9 131.59(3)
Cd01 O004 Ca1 . 9 95.580(18)
Ca1 O004 Ca1 . 9 101.582(19)
loop_
_geom_bond_atom_site_label_1
_geom_bond_atom_site_label_2
_geom_bond_site_symmetry_2
_geom_bond_distance
Cd01 O004 . 2.2632(5)
Cd01 O004 57_666 2.2632(5)
Cd01 O004 9 2.2632(5)
Cd01 O004 53_666 2.2632(5)
Cd01 O004 5 2.2632(5)
Cd01 O004 49_666 2.2632(5)
Cd01 Ca1 . 3.56586(3)
Cd01 Ca1 9 3.56586(3)
Cd01 Ca1 57_666 3.56586(3)
Cd01 Ca1 53_666 3.56586(3)
Cd01 Ca1 5 3.56586(3)
Cd01 Ca1 49_666 3.56586(3)
V002 O004 92_656 1.7224(5)
V002 O004 28_455 1.7224(5)
V002 O004 65_765 1.7224(5)
V002 O004 . 1.7224(5)
V002 Ca1 . 3.18940(3)
V002 Ca1 50_656 3.18940(2)
Ca1 O004 19 2.4968(6)
Ca1 O004 42_544 2.4968(6)
Ca1 O004 28_455 2.4968(6)
Ca1 O004 . 2.4968(6)
Ca1 O004 47_544 2.5443(5)
Ca1 O004 30_455 2.5443(5)
Ca1 O004 24 2.5443(5)
Ca1 O004 5 2.5443(5)

_cod_database_fobs_code 2021055
