#------------------------------------------------------------------------------
#$Date: 2016-03-11 03:52:44 +0200 (Fri, 11 Mar 2016) $
#$Revision: 178106 $
#$URL: svn://www.crystallography.net/cod/cif/2/10/74/2107479.cif $
#------------------------------------------------------------------------------
#
# This file is available in the Crystallography Open Database (COD),
# http://www.crystallography.net/. The original data for this entry
# were provided by IUCr Journals, http://journals.iucr.org/.
#
# The file may be used within the scientific community so long as
# proper attribution is given to the journal article from which the
# data were obtained.
#
data_2107479
loop_
_publ_author_name
'P\'erez-Cruz, Mar\'ia Ana'
'Elizalde-Gonz\'alez, Mar\'ia de la Paz'
'Escudero, Roberto'
'Bern\`es, Sylvain'
'Silva-Gonz\'alez, Rutilo'
'Reyes-Ortega, Yasmi'
_publ_section_title
;
 At last! The single-crystal X-ray structure of a naturally occurring
 sample of the ilmenite-type oxide FeCrO~3~
;
_journal_coeditor_code           BP5080
_journal_issue                   5
_journal_name_full               'Acta Crystallographica Section B'
_journal_page_first              555
_journal_page_last               561
_journal_paper_doi               10.1107/S2052520615015838
_journal_volume                  71
_journal_year                    2015
_chemical_formula_moiety         'Cr Fe O3'
_chemical_formula_sum            'Cr Fe O3'
_chemical_formula_weight         155.85
_space_group_crystal_system      trigonal
_space_group_IT_number           148
_space_group_name_Hall           '-R 3'
_space_group_name_H-M_alt        'R -3 :H'
_symmetry_space_group_name_Hall  '-R 3'
_symmetry_space_group_name_H-M   'R -3 :H'
_audit_creation_method           SHELXL-2014/7
_cell_angle_alpha                90
_cell_angle_beta                 90
_cell_angle_gamma                120
_cell_formula_units_Z            6
_cell_length_a                   5.0770(4)
_cell_length_b                   5.0770(4)
_cell_length_c                   13.9621(14)
_cell_measurement_reflns_used    50
_cell_measurement_temperature    298(2)
_cell_measurement_theta_max      19.42
_cell_measurement_theta_min      7.46
_cell_volume                     311.67(5)
_computing_cell_refinement       XSCANS
_computing_data_collection       'XSCANS (Bruker, 1997)'
_computing_data_reduction        'XPREP (Bruker, 1997)'
_computing_molecular_graphics
;
SHELXTL (Bruker, 1997) and CaRIne Crystallography (Boudias & Monceau, 1998)
;
_computing_publication_material  SHELXTL
_computing_structure_refinement  'SHELXL-2014/7 (Sheldrick, 2015)'
_diffrn_ambient_temperature      298.0(10)
_diffrn_measured_fraction_theta_full 1.000
_diffrn_measured_fraction_theta_max 1.000
_diffrn_measurement_device_type  'Bruker P4'
_diffrn_measurement_method       '2\q/\w scans'
_diffrn_radiation_monochromator  graphite
_diffrn_radiation_source         'fine-focus sealed tube'
_diffrn_radiation_type           MoK\a
_diffrn_radiation_wavelength     0.71073
_diffrn_reflns_av_R_equivalents  0.0268
_diffrn_reflns_limit_h_max       8
_diffrn_reflns_limit_h_min       -8
_diffrn_reflns_limit_k_max       8
_diffrn_reflns_limit_k_min       -8
_diffrn_reflns_limit_l_max       23
_diffrn_reflns_limit_l_min       -23
_diffrn_reflns_number            2211
_diffrn_reflns_theta_full        25.242
_diffrn_reflns_theta_max         37.472
_diffrn_reflns_theta_min         4.379
_diffrn_standards_decay_%        2
_diffrn_standards_interval_count 97
_diffrn_standards_number         0
_exptl_absorpt_coefficient_mu    11.873
_exptl_absorpt_correction_T_max  0.489
_exptl_absorpt_correction_T_min  0.303
_exptl_absorpt_correction_type   psi-scan
_exptl_absorpt_process_details   'XSCANS (Bruker, 1997)'
_exptl_crystal_colour            metallic_silver
_exptl_crystal_density_diffrn    4.982
_exptl_crystal_density_method    'not measured'
_exptl_crystal_description       prism
_exptl_crystal_F_000             444
_exptl_crystal_size_max          0.10
_exptl_crystal_size_mid          0.06
_exptl_crystal_size_min          0.06
_refine_diff_density_max         0.647
_refine_diff_density_min         -1.185
_refine_ls_extinction_coef       0.0254(19)
_refine_ls_extinction_expression Fc^*^=kFc[1+0.001xFc^2^\l^3^/sin(2\q)]^-1/4^
_refine_ls_extinction_method     'SHELXL-2014/7 (Sheldrick, 2015)'
_refine_ls_goodness_of_fit_ref   1.114
_refine_ls_hydrogen_treatment    undef
_refine_ls_matrix_type           full
_refine_ls_number_constraints    0
_refine_ls_number_parameters     17
_refine_ls_number_reflns         373
_refine_ls_number_restraints     0
_refine_ls_restrained_S_all      1.114
_refine_ls_R_factor_all          0.0236
_refine_ls_R_factor_gt           0.0202
_refine_ls_shift/su_max          0.000
_refine_ls_shift/su_mean         0.000
_refine_ls_structure_factor_coef Fsqd
_refine_ls_weighting_details
'w=1/[\s^2^(Fo^2^)+(0.0301P)^2^+1.1564P] where P=(Fo^2^+2Fc^2^)/3'
_refine_ls_weighting_scheme      calc
_refine_ls_wR_factor_gt          0.0565
_refine_ls_wR_factor_ref         0.0592
_reflns_number_gt                324
_reflns_number_total             373
_reflns_threshold_expression     'I > 2\s(I)'
_cod_data_source_file            bp5080sup1.cif
_cod_data_source_block           I
_cod_original_cell_volume        311.67(6)
_cod_database_code               2107479
_shelx_hkl_file
;
  -8   6   6    0.87    0.84
  -8   6   5   -0.15    0.57
  -8   6   4  135.76    3.64
  -8   6   3    0.30    0.68
  -8   6   2    0.02    0.64
  -8   6   1    4.66    1.41
  -8   5   1    0.33    0.73
  -8   5   2    4.09    0.92
  -8   5   3   -0.06    0.60
  -8   5   4    0.88    0.69
  -8   5   5   -0.04    0.60
  -8   5   6    0.10    0.68
  -8   5   7   -0.67    0.51
  -8   5   8   28.31    2.07
  -8   4   9    0.29    0.69
  -8   4   8   -0.10    0.56
  -8   4   7    0.19    0.64
  -8   4   6   96.84    3.03
  -8   4   5   -0.20    0.49
  -8   4   4    1.01    0.72
  -8   4   3    3.25    1.14
  -8   4   2    0.29    0.67
  -8   4   1   -0.40    0.50
  -8   3   1    4.72    0.90
  -8   3   2    0.80    0.60
  -8   3   3   -0.48    0.44
  -8   3   4  160.73    3.39
  -8   3   5    0.92    0.52
  -8   3   6    0.93    0.66
  -8   3   7    6.70    1.18
  -8   3   8    0.10    0.55
  -8   2   6   -0.64    0.54
  -8   2   5    0.94    0.73
  -8   2   4    0.28    0.56
  -8   2   3    0.25    0.50
  -8   2   2    4.22    0.89
  -8   2   1    0.04    0.51
  -8   2   0    0.38    0.45
  -8   2  -1    0.73    0.70
  -8   2  -2   -0.72    0.41
  -8   2  -3    0.14    0.47
  -8   2  -4  124.00    2.88
  -8   2  -5   -0.14    0.47
  -8   2  -6   -0.76    0.38
  -8   3  -8   16.29    1.32
  -8   3  -7    0.89    0.68
  -8   3  -6   -0.42    0.45
  -8   3  -5    4.69    0.83
  -8   3  -4   -0.02    0.48
  -8   3  -3    0.25    0.48
  -8   3  -2    2.91    0.68
  -8   3  -1   -0.19    0.45
  -8   3   0    0.50    0.56
  -8   4   0  142.73    3.35
  -8   4  -1   -0.19    0.56
  -8   4  -2   -0.19    0.61
  -8   4  -3    2.17    0.73
  -8   4  -4    0.34    0.53
  -8   4  -5    0.13    0.45
  -8   4  -6   81.89    2.44
  -8   4  -7   -0.18    0.51
  -8   4  -8   -0.20    0.67
  -8   4  -9    4.17    0.93
  -8   5  -8    0.45    0.55
  -8   5  -7    0.67    0.71
  -8   5  -6    0.31    0.50
  -8   5  -5   -0.01    0.57
  -8   5  -4  140.02    3.35
  -8   5  -3    0.43    0.77
  -8   5  -2    0.72    0.75
  -8   5  -1   -0.33    0.78
  -8   5   0   -0.77    0.68
  -8   6   0    0.75    0.74
  -8   6  -1    0.04    0.62
  -8   6  -2    1.58    1.15
  -8   6  -3   -0.30    0.55
  -8   6  -4   -0.35    0.54
  -8   6  -5    4.75    1.00
  -8   6  -6   -0.61    0.51
  -7   0   8   68.08    2.25
  -7   0   7   -0.72    0.50
  -7   0   6    0.04    0.53
  -7   0   5    0.02    0.50
  -7   0   4   -0.38    0.47
  -7   0   3    0.32    0.47
  -7   0   2   31.10    1.50
  -7   0   1    0.12    0.52
  -7   1   1    0.81    0.56
  -7   1   2    0.03    0.46
  -7   1   3   -0.21    0.51
  -7   1   4   78.00    2.09
  -7   1   5    0.32    0.52
  -7   1   6   -0.04    0.59
  -7   1   7    0.50    0.57
  -7   1   8    0.19    0.61
  -7   1   9    0.40    0.59
  -7   1  10  193.55    3.69
  -7   1  11    0.60    0.52
  -7   2  13    0.26    0.50
  -7   2  12    0.90    0.79
  -7   2  11    0.48    0.57
  -7   2  10    1.01    0.57
  -7   2   9    6.74    1.15
  -7   2   8    0.25    0.55
  -7   2   7    0.53    0.67
  -7   2   6  122.61    2.65
  -7   2   5   -0.43    0.51
  -7   2   4    0.13    0.55
  -7   2   3    7.01    0.75
  -7   2   2   -0.39    0.42
  -7   2   1   -0.26    0.38
  -7   3   1    0.06    0.64
  -7   3   2   25.64    1.33
  -7   3   3    0.16    0.56
  -7   3   4    0.28    0.56
  -7   3   5    0.38    0.60
  -7   3   6   -0.71    0.58
  -7   3   7    0.55    0.68
  -7   3   8   72.40    2.31
  -7   3   9    0.68    0.67
  -7   3  10   -0.39    0.53
  -7   3  11    0.43    0.69
  -7   3  12    1.13    0.70
  -7   3  13    0.04    0.56
  -7   3  14  112.88    3.14
  -7   4  14   -0.37    0.74
  -7   4  13    0.35    0.70
  -7   4  12    0.43    0.69
  -7   4  11    0.38    0.70
  -7   4  10  244.32    4.28
  -7   4   9   -0.39    0.63
  -7   4   8   -0.12    0.66
  -7   4   7    0.03    0.67
  -7   4   6   -0.24    0.60
  -7   4   5    0.34    0.74
  -7   4   4   93.43    2.62
  -7   4   3   -0.62    0.52
  -7   4   2    0.26    0.55
  -7   4   1   -0.14    0.59
  -7   5   1   -0.27    0.66
  -7   5   2    1.17    0.71
  -7   5   3    5.60    1.03
  -7   5   4    0.29    0.62
  -7   5   5   -0.21    0.57
  -7   5   6  117.83    2.99
  -7   5   7   -0.68    0.58
  -7   5   8    0.40    0.70
  -7   5   9    7.77    1.31
  -7   5  10   -0.64    0.56
  -7   5  11   -0.59    0.64
  -7   5  12    0.14    0.66
  -7   5  13   -0.45    0.64
  -7   6  11    0.93    1.07
  -7   6  10   -0.49    0.64
  -7   6   9   -0.92    0.68
  -7   6   8   38.97    2.00
  -7   6   7   -0.07    0.68
  -7   6   6   -0.82    0.51
  -7   6   5    2.65    0.83
  -7   6   4   -0.02    0.56
  -7   6   3    0.51    0.68
  -7   6   2    9.68    1.24
  -7   6   1   -0.05    0.55
  -7   7   1    0.57    0.57
  -7   7   2   -0.36    0.48
  -7   7   3    0.73    0.65
  -7   7   4   77.10    2.39
  -7   7   5    0.52    0.65
  -7   7   6   -0.59    0.56
  -7   7   7   -0.34    0.76
  -7   7   8    0.22    0.77
  -7   7  -8   63.23    2.27
  -7   7  -7    0.29    0.52
  -7   7  -6    0.56    0.61
  -7   7  -5   -0.79    0.52
  -7   7  -4    0.14    0.58
  -7   7  -3   -0.02    0.51
  -7   7  -2   30.72    1.63
  -7   7  -1    0.14    0.54
  -7   7   0   -0.38    0.51
  -7   6   0   -0.29    0.56
  -7   6  -1    3.69    0.79
  -7   6  -2    0.22    0.56
  -7   6  -3   -0.18    0.45
  -7   6  -4  140.42    2.80
  -7   6  -5    0.13    0.46
  -7   6  -6    0.21    0.47
  -7   6  -7    3.20    0.69
  -7   6  -8   -0.24    0.57
  -7   6  -9    0.19    0.55
  -7   6 -10  128.52    3.04
  -7   6 -11   -0.15    0.55
  -7   5 -13    0.06    0.84
  -7   5 -12    2.09    0.89
  -7   5 -11   -0.27    0.73
  -7   5 -10   -0.51    0.63
  -7   5  -9    2.78    0.85
  -7   5  -8   -0.24    0.53
  -7   5  -7    0.07    0.52
  -7   5  -6  115.65    2.52
  -7   5  -5    0.02    0.43
  -7   5  -4    0.04    0.39
  -7   5  -3    6.10    0.92
  -7   5  -2    0.08    0.48
  -7   5  -1    0.16    0.55
  -7   5   0  191.00    3.52
  -7   4   0   -0.46    0.63
  -7   4  -1    0.43    0.70
  -7   4  -2   53.61    2.13
  -7   4  -3    0.00    0.56
  -7   4  -4   -0.38    0.50
  -7   4  -5    0.47    0.64
  -7   4  -6   -0.02    0.64
  -7   4  -7    0.15    0.58
  -7   4  -8  104.67    2.92
  -7   4  -9   -0.55    0.57
  -7   4 -10   -0.28    0.65
  -7   4 -11    0.22    0.65
  -7   4 -12   -0.04    0.76
  -7   4 -13   -0.40    0.69
  -7   4 -14   82.74    2.80
  -7   3 -14   -0.10    0.60
  -7   3 -13    1.52    1.04
  -7   3 -12    0.15    0.61
  -7   3 -11   -1.02    0.63
  -7   3 -10  178.69    3.62
  -7   3  -9   -0.15    0.55
  -7   3  -8   -0.14    0.48
  -7   3  -7    1.00    0.88
  -7   3  -6    0.20    0.46
  -7   3  -5    0.55    0.51
  -7   3  -4  125.09    2.47
  -7   3  -3   -0.20    0.52
  -7   3  -2    0.16    0.57
  -7   3  -1    0.60    0.63
  -7   3   0    0.21    0.52
  -7   2   0  164.01    2.90
  -7   2  -1    0.12    0.46
  -7   2  -2    0.35    0.52
  -7   2  -3    2.73    0.77
  -7   2  -4   -0.15    0.45
  -7   2  -5    0.01    0.48
  -7   2  -6  125.53    2.66
  -7   2  -7    0.20    0.45
  -7   2  -8    0.02    0.49
  -7   2  -9   -0.06    0.74
  -7   2 -10   -0.28    0.44
  -7   2 -11   -0.42    0.50
  -7   2 -12    3.12    1.18
  -7   2 -13   -0.03    0.55
  -7   1 -11    0.38    0.62
  -7   1 -10   -0.26    0.55
  -7   1  -9   -0.39    0.70
  -7   1  -8   75.25    2.26
  -7   1  -7    0.03    0.44
  -7   1  -6   -0.21    0.52
  -7   1  -5    0.38    0.48
  -7   1  -4   -0.31    0.46
  -7   1  -3   -0.06    0.61
  -7   1  -2   36.06    1.52
  -7   1  -1   -0.30    0.51
  -7   1   0   -0.44    0.37
  -7   0   0   -0.10    0.45
  -7   0  -1   -0.08    0.49
  -7   0  -2   -0.20    0.41
  -7   0  -3   -0.30    0.48
  -7   0  -4   67.53    2.13
  -7   0  -5   -0.40    0.51
  -7   0  -6    0.21    0.48
  -7   0  -7    0.38    0.55
  -7   0  -8   -0.37    0.51
  -6   8   6    0.37    0.58
  -6   8   5   -0.23    0.54
  -6   8   4  123.94    2.96
  -6   8   3    0.20    0.58
  -6   8   2   -0.43    0.47
  -6   8   1    1.36    0.84
  -6   7   1    0.30    0.45
  -6   7   2   33.97    1.57
  -6   7   3   -0.29    0.54
  -6   7   4    0.09    0.50
  -6   7   5    0.18    0.62
  -6   7   6   -0.10    0.49
  -6   7   7    0.74    0.71
  -6   7   8   79.34    2.51
  -6   7   9   -0.78    0.59
  -6   7  10    0.18    0.68
  -6   7  11    1.07    0.94
  -6   6  14   -0.04    0.61
  -6   6  13    0.92    0.73
  -6   6  12    2.69    0.89
  -6   6  11    0.03    0.79
  -6   6  10   -0.46    0.50
  -6   6   9   -0.13    0.64
  -6   6   8    0.97    0.54
  -6   6   7    0.21    0.55
  -6   6   6   59.62    2.03
  -6   6   5    0.04    0.57
  -6   6   4    0.42    0.53
  -6   6   3    0.42    0.55
  -6   6   2    0.89    0.51
  -6   6   1   -0.84    0.45
  -6   5   1    4.78    0.75
  -6   5   2    0.07    0.43
  -6   5   3    0.31    0.55
  -6   5   4  258.86    3.74
  -6   5   5    0.00    0.52
  -6   5   6    0.01    0.69
  -6   5   7    7.03    0.97
  -6   5   8   -0.59    0.67
  -6   5   9   -0.25    0.58
  -6   5  10  141.45    3.06
  -6   5  11   -0.72    0.56
  -6   5  12    0.02    0.65
  -6   5  13    5.65    1.03
  -6   5  14   -0.06    0.50
  -6   5  15   -1.02    0.55
  -6   5  16   54.35    2.25
  -6   4  17    0.53    0.87
  -6   4  16   -0.17    0.68
  -6   4  15   -0.28    0.67
  -6   4  14  158.08    3.34
  -6   4  13   -0.36    0.62
  -6   4  12   -0.47    0.60
  -6   4  11    0.24    0.60
  -6   4  10   -0.07    0.58
  -6   4   9    0.18    0.65
  -6   4   8   89.86    2.38
  -6   4   7    0.85    0.69
  -6   4   6   -0.16    0.65
  -6   4   5    2.74    0.75
  -6   4   4    0.79    0.57
  -6   4   3   -0.16    0.47
  -6   4   2   35.44    1.56
  -6   4   1   -0.03    0.54
  -6   3   1    0.46    0.37
  -6   3   2   -0.24    0.44
  -6   3   3   -0.35    0.33
  -6   3   4    0.19    0.48
  -6   3   5    0.18    0.50
  -6   3   6   71.63    2.10
  -6   3   7    0.32    0.53
  -6   3   8    0.62    0.54
  -6   3   9   -0.92    0.64
  -6   3  10   -0.42    0.46
  -6   3  11   -0.27    0.48
  -6   3  12    6.06    1.15
  -6   3  13    0.83    0.64
  -6   3  14    0.42    0.52
  -6   3  15    0.66    0.78
  -6   3  16    0.21    0.72
  -6   3  17   -0.47    0.55
  -6   2  17   -0.40    0.46
  -6   2  16   50.44    2.09
  -6   2  15    0.38    0.63
  -6   2  14    0.73    0.62
  -6   2  13    7.21    0.92
  -6   2  12   -0.04    0.69
  -6   2  11   -0.25    0.59
  -6   2  10  163.77    3.03
  -6   2   9   -1.08    0.44
  -6   2   8    0.04    0.47
  -6   2   7    7.81    0.92
  -6   2   6    0.92    0.50
  -6   2   5    0.02    0.46
  -6   2   4  254.22    3.39
  -6   2   3    0.13    0.45
  -6   2   2   -0.21    0.38
  -6   2   1    7.70    0.55
  -6   1   1    0.27    0.36
  -6   1   2   12.55    0.85
  -6   1   3    0.42    0.45
  -6   1   4    0.08    0.46
  -6   1   5    4.27    0.86
  -6   1   6    0.22    0.41
  -6   1   7   -0.42    0.34
  -6   1   8   51.36    1.73
  -6   1   9    0.01    0.50
  -6   1  10   -0.24    0.54
  -6   1  11    2.27    0.83
  -6   1  12    0.56    0.64
  -6   1  13   -0.07    0.67
  -6   1  14  163.77    3.41
  -6   1  15   -0.20    0.51
  -6   1  16   -0.15    0.47
  -6   0  14    0.01    0.46
  -6   0  13    0.08    0.45
  -6   0  12    4.84    0.94
  -6   0  11    0.06    0.45
  -6   0  10   -0.36    0.47
  -6   0   9    0.00    0.48
  -6   0   8    0.08    0.44
  -6   0   7    0.43    0.60
  -6   0   6   57.36    1.82
  -6   0   5    0.16    0.52
  -6   0   4    0.60    0.48
  -6   0   3    0.46    0.52
  -6   0   2    0.01    0.34
  -6   0   1   -0.29    0.39
  -6  -1   1    3.20    0.67
  -6  -1   2   -0.28    0.41
  -6  -1   3   -0.01    0.46
  -6  -1   4  138.70    2.77
  -6  -1   5   -0.55    0.42
  -6  -1   6    0.04    0.48
  -6  -1   7    4.19    0.89
  -6  -1   8    0.42    0.54
  -6  -1   9    0.15    0.47
  -6  -1  10  116.82    2.87
  -6  -1  11   -0.32    0.45
  -6  -2   6   -0.43    0.48
  -6  -2   5    6.15    0.84
  -6  -2   4    0.20    0.43
  -6  -2   3   -0.30    0.44
  -6  -2   2    2.02    0.75
  -6  -2   1   -0.11    0.47
  -6  -2   0   -0.21    0.42
  -6  -2  -1    4.20    0.91
  -6  -2  -2   -0.11    0.45
  -6  -2  -3   -0.15    0.43
  -6  -2  -4  121.94    2.85
  -6  -2  -5   -0.12    0.42
  -6  -2  -6    0.04    0.60
  -6  -1 -11    3.20    1.05
  -6  -1 -10   -0.25    0.47
  -6  -1  -9    0.29    0.47
  -6  -1  -8   39.80    1.77
  -6  -1  -7   -0.32    0.50
  -6  -1  -6   -0.49    0.46
  -6  -1  -5    1.29    0.70
  -6  -1  -4   -0.02    0.51
  -6  -1  -3    0.11    0.42
  -6  -1  -2    9.44    0.95
  -6  -1  -1   -0.46    0.40
  -6  -1   0   -0.20    0.44
  -6   0   0  297.54    3.59
  -6   0  -1    0.21    0.38
  -6   0  -2   -0.01    0.39
  -6   0  -3    0.01    0.48
  -6   0  -4   -0.22    0.40
  -6   0  -5    0.44    0.46
  -6   0  -6   52.02    1.75
  -6   0  -7   -0.71    0.52
  -6   0  -8    0.64    0.46
  -6   0  -9    0.64    0.61
  -6   0 -10   -0.57    0.44
  -6   0 -11   -0.06    0.53
  -6   0 -12    1.78    0.80
  -6   0 -13   -0.86    0.53
  -6   0 -14   -0.29    0.45
  -6   1 -16   28.47    1.71
  -6   1 -15   -0.70    0.50
  -6   1 -14   -0.69    0.53
  -6   1 -13    2.90    0.94
  -6   1 -12   -0.14    0.47
  -6   1 -11   -0.24    0.43
  -6   1 -10  181.04    3.27
  -6   1  -9    0.28    0.46
  -6   1  -8    0.12    0.53
  -6   1  -7    4.13    0.67
  -6   1  -6   -0.21    0.38
  -6   1  -5    0.34    0.45
  -6   1  -4  197.59    2.90
  -6   1  -3    0.08    0.33
  -6   1  -2   -0.27    0.35
  -6   1  -1    7.52    0.64
  -6   1   0    0.24    0.40
  -6   2   0    0.01    0.32
  -6   2  -1   -0.10    0.25
  -6   2  -2   11.17    0.57
  -6   2  -3   -0.07    0.34
  -6   2  -4    0.19    0.43
  -6   2  -5    5.35    0.75
  -6   2  -6    0.69    0.40
  -6   2  -7    0.68    0.45
  -6   2  -8   51.83    1.76
  -6   2  -9    0.36    0.58
  -6   2 -10    0.09    0.48
  -6   2 -11    5.92    1.00
  -6   2 -12    0.28    0.49
  -6   2 -13    0.35    0.56
  -6   2 -14  162.32    3.47
  -6   2 -15   -0.01    0.50
  -6   2 -16    0.68    0.62
  -6   2 -17    4.48    0.99
  -6   3 -17   -0.73    0.48
  -6   3 -16    0.15    0.64
  -6   3 -15    1.08    0.85
  -6   3 -14   -0.18    0.55
  -6   3 -13    0.21    0.62
  -6   3 -12    7.51    1.03
  -6   3 -11    0.89    0.70
  -6   3 -10    0.50    0.66
  -6   3  -9    0.73    0.54
  -6   3  -8    0.16    0.54
  -6   3  -7    0.19    0.58
  -6   3  -6   73.39    2.05
  -6   3  -5   -0.40    0.36
  -6   3  -4   -0.20    0.35
  -6   3  -3   -0.13    0.36
  -6   3  -2    0.13    0.36
  -6   3  -1   -0.39    0.38
  -6   3   0  464.01    4.92
  -6   4   0   -0.16    0.41
  -6   4  -1    2.40    0.42
  -6   4  -2   -0.34    0.41
  -6   4  -3    0.17    0.35
  -6   4  -4  174.92    2.64
  -6   4  -5    0.03    0.40
  -6   4  -6    0.01    0.43
  -6   4  -7    1.28    0.51
  -6   4  -8   -0.19    0.53
  -6   4  -9   -0.31    0.54
  -6   4 -10  240.73    3.86
  -6   4 -11    0.72    0.54
  -6   4 -12    0.34    0.62
  -6   4 -13   -0.06    0.60
  -6   4 -14    0.72    0.67
  -6   4 -15    0.51    0.74
  -6   4 -16   20.73    1.76
  -6   4 -17   -0.60    0.74
  -6   5 -16    0.53    0.76
  -6   5 -15    0.01    0.69
  -6   5 -14  169.16    3.69
  -6   5 -13    0.15    0.62
  -6   5 -12    0.88    0.60
  -6   5 -11    5.50    0.98
  -6   5 -10   -0.27    0.49
  -6   5  -9   -0.37    0.50
  -6   5  -8   46.68    1.64
  -6   5  -7   -0.06    0.39
  -6   5  -6    0.14    0.43
  -6   5  -5    5.32    0.69
  -6   5  -4   -0.31    0.42
  -6   5  -3   -0.02    0.40
  -6   5  -2    6.49    0.74
  -6   5  -1    0.02    0.40
  -6   5   0    0.20    0.41
  -6   6   0  301.31    3.89
  -6   6  -1    0.00    0.43
  -6   6  -2    0.28    0.42
  -6   6  -3   -0.23    0.51
  -6   6  -4   -0.39    0.45
  -6   6  -5   -0.01    0.49
  -6   6  -6   55.23    1.83
  -6   6  -7    0.24    0.38
  -6   6  -8   -0.20    0.49
  -6   6  -9    0.56    0.53
  -6   6 -10    0.02    0.53
  -6   6 -11    0.24    0.51
  -6   6 -12    4.38    1.01
  -6   6 -13   -0.67    0.54
  -6   6 -14   -0.40    0.60
  -6   7 -11    0.50    0.57
  -6   7 -10  183.30    3.60
  -6   7  -9    0.13    0.54
  -6   7  -8   -0.03    0.52
  -6   7  -7    0.62    0.54
  -6   7  -6    0.20    0.47
  -6   7  -5   -0.39    0.42
  -6   7  -4   80.02    2.22
  -6   7  -3    0.08    0.52
  -6   7  -2   -0.33    0.40
  -6   7  -1   -0.30    0.52
  -6   7   0    0.47    0.49
  -6   8   0   -0.12    0.58
  -6   8  -1   -0.06    0.50
  -6   8  -2    2.19    0.88
  -6   8  -3    0.26    0.51
  -6   8  -4   -0.08    0.47
  -6   8  -5    1.96    0.90
  -6   8  -6    0.10    0.49
  -5  -3   1   -0.06    0.42
  -5  -3   2   -0.17    0.43
  -5  -3   3    0.09    0.44
  -5  -3   4  138.11    2.90
  -5  -3   5    0.02    0.42
  -5  -3   6    0.41    0.51
  -5  -3   7    0.11    0.59
  -5  -3   8    0.87    0.53
  -5  -2  13    0.25    0.68
  -5  -2  12    1.77    0.82
  -5  -2  11   -0.96    0.51
  -5  -2  10    0.24    0.45
  -5  -2   9    2.66    0.90
  -5  -2   8    0.13    0.46
  -5  -2   7    0.29    0.51
  -5  -2   6  116.05    2.52
  -5  -2   5   -0.17    0.41
  -5  -2   4    0.51    0.48
  -5  -2   3    4.72    0.88
  -5  -2   2   -0.11    0.43
  -5  -2   1    0.75    0.53
  -5  -1   1    0.30    0.43
  -5  -1   2    5.71    0.75
  -5  -1   3   -0.06    0.33
  -5  -1   4    0.12    0.47
  -5  -1   5    5.86    0.64
  -5  -1   6    0.43    0.47
  -5  -1   7   -0.28    0.45
  -5  -1   8   51.47    1.65
  -5  -1   9   -0.49    0.40
  -5  -1  10    0.45    0.43
  -5  -1  11    4.87    0.90
  -5  -1  12   -0.16    0.46
  -5  -1  13    0.05    0.48
  -5  -1  14  168.57    3.40
  -5  -1  15   -0.70    0.52
  -5  -1  16    0.28    0.52
  -5   0  17   -0.07    0.43
  -5   0  16   49.10    1.97
  -5   0  15   -0.17    0.43
  -5   0  14   -0.02    0.50
  -5   0  13    2.15    0.73
  -5   0  12    0.94    0.64
  -5   0  11    0.61    0.52
  -5   0  10  186.97    3.05
  -5   0   9   -0.47    0.36
  -5   0   8    0.03    0.43
  -5   0   7    2.34    0.62
  -5   0   6   -0.08    0.35
  -5   0   5    0.44    0.28
  -5   0   4  296.69    3.52
  -5   0   3    0.72    0.31
  -5   0   2    0.53    0.29
  -5   0   1    4.35    0.44
  -5   1   1   -0.10    0.25
  -5   1   2    0.44    0.29
  -5   1   3   13.45    0.60
  -5   1   4    0.10    0.38
  -5   1   5   -0.30    0.38
  -5   1   6  249.99    3.56
  -5   1   7    0.20    0.34
  -5   1   8    0.18    0.29
  -5   1   9   10.67    0.93
  -5   1  10    0.22    0.44
  -5   1  11   -0.08    0.43
  -5   1  12    7.88    0.92
  -5   1  13    0.23    0.55
  -5   1  14   -0.09    0.42
  -5   1  15    6.72    0.92
  -5   1  16   -0.01    0.59
  -5   1  17    0.16    0.61
  -5   1  18   48.19    2.11
  -5   2  19   -0.23    0.50
  -5   2  18   -0.09    0.49
  -5   2  17    0.94    0.67
  -5   2  16    0.30    0.57
  -5   2  15    0.09    0.55
  -5   2  14  248.73    3.80
  -5   2  13   -0.36    0.50
  -5   2  12   -0.24    0.46
  -5   2  11    2.62    0.73
  -5   2  10    0.15    0.47
  -5   2   9    0.09    0.47
  -5   2   8   65.64    1.99
  -5   2   7   -0.04    0.43
  -5   2   6    0.34    0.40
  -5   2   5    0.46    0.37
  -5   2   4    0.41    0.34
  -5   2   3    0.90    0.47
  -5   2   2   11.56    0.62
  -5   2   1   -0.69    0.27
  -5   3   1   14.45    0.73
  -5   3   2   -0.09    0.39
  -5   3   3    0.22    0.41
  -5   3   4  385.72    5.32
  -5   3   5    0.00    0.42
  -5   3   6    0.49    0.35
  -5   3   7    9.35    0.63
  -5   3   8   -0.82    0.32
  -5   3   9   -0.11    0.43
  -5   3  10  259.24    3.60
  -5   3  11   -0.03    0.45
  -5   3  12   -0.21    0.37
  -5   3  13    4.02    0.91
  -5   3  14    0.05    0.50
  -5   3  15    0.01    0.60
  -5   3  16   55.21    2.05
  -5   3  17    0.04    0.56
  -5   3  18    0.07    0.49
  -5   3  19    3.78    1.00
  -5   4  18   49.43    2.09
  -5   4  17    0.33    0.56
  -5   4  16    0.02    0.52
  -5   4  15    6.21    1.05
  -5   4  14   -0.31    0.61
  -5   4  13    0.23    0.57
  -5   4  12    8.89    1.11
  -5   4  11   -0.57    0.50
  -5   4  10    0.09    0.49
  -5   4   9    8.94    0.95
  -5   4   8   -0.17    0.47
  -5   4   7   -0.08    0.48
  -5   4   6  263.07    3.97
  -5   4   5   -0.08    0.44
  -5   4   4   -0.27    0.31
  -5   4   3   11.42    0.65
  -5   4   2   -0.23    0.31
  -5   4   1    0.26    0.48
  -5   5   1    0.11    0.28
  -5   5   2    8.34    0.60
  -5   5   3    0.06    0.35
  -5   5   4    0.15    0.35
  -5   5   5    3.43    0.46
  -5   5   6   -0.30    0.36
  -5   5   7    0.27    0.56
  -5   5   8   48.76    1.79
  -5   5   9   -0.42    0.48
  -5   5  10   -0.40    0.54
  -5   5  11    0.08    0.59
  -5   5  12    0.33    0.67
  -5   5  13   -0.21    0.54
  -5   5  14  223.44    3.99
  -5   5  15   -0.14    0.56
  -5   5  16   -0.37    0.51
  -5   5  17    0.80    0.76
  -5   6  16   29.61    1.80
  -5   6  15   -0.04    0.55
  -5   6  14   -0.97    0.46
  -5   6  13    1.54    0.98
  -5   6  12    0.51    0.52
  -5   6  11    0.15    0.54
  -5   6  10  179.38    3.45
  -5   6   9    0.44    0.46
  -5   6   8    0.36    0.56
  -5   6   7    3.54    0.76
  -5   6   6   -0.33    0.50
  -5   6   5   -0.93    0.48
  -5   6   4  198.29    3.09
  -5   6   3    0.43    0.43
  -5   6   2   -0.38    0.46
  -5   6   1    6.34    0.67
  -5   7   1    0.34    0.44
  -5   7   2    0.51    0.49
  -5   7   3    3.90    0.88
  -5   7   4   -0.02    0.42
  -5   7   5   -0.30    0.41
  -5   7   6  127.62    2.85
  -5   7   7   -0.22    0.50
  -5   7   8   -0.28    0.47
  -5   7   9    1.45    0.71
  -5   7  10    0.42    0.61
  -5   7  11    0.05    0.67
  -5   7  12    2.68    1.24
  -5   7  13   -0.24    0.50
  -5   8   8   17.11    1.48
  -5   8   7    0.00    0.50
  -5   8   6   -0.77    0.43
  -5   8   5    5.97    1.02
  -5   8   4   -0.58    0.55
  -5   8   3    0.47    0.56
  -5   8   2    2.03    0.84
  -5   8   1   -0.25    0.40
  -5   8   0   -0.18    0.46
  -5   8  -1    5.42    0.84
  -5   8  -2   -0.15    0.45
  -5   8  -3   -0.69    0.42
  -5   8  -4  150.47    3.08
  -5   8  -5    0.17    0.44
  -5   8  -6   -0.01    0.47
  -5   8  -7    6.10    1.11
  -5   8  -8   -0.49    0.52
  -5   7 -13   -0.28    0.59
  -5   7 -12    0.50    0.80
  -5   7 -11    0.74    0.63
  -5   7 -10    0.49    0.67
  -5   7  -9    5.06    0.89
  -5   7  -8    0.03    0.47
  -5   7  -7    0.18    0.45
  -5   7  -6  123.04    2.60
  -5   7  -5   -0.08    0.47
  -5   7  -4    0.27    0.45
  -5   7  -3    3.67    0.69
  -5   7  -2    0.02    0.45
  -5   7  -1   -0.16    0.41
  -5   7   0  156.12    2.82
  -5   6   0   -0.03    0.36
  -5   6  -1   -0.02    0.31
  -5   6  -2   11.09    0.89
  -5   6  -3    0.18    0.34
  -5   6  -4    0.35    0.40
  -5   6  -5    5.49    0.71
  -5   6  -6   -0.44    0.42
  -5   6  -7    0.22    0.39
  -5   6  -8   45.56    1.66
  -5   6  -9   -0.50    0.44
  -5   6 -10    0.17    0.49
  -5   6 -11    2.17    0.62
  -5   6 -12    0.01    0.51
  -5   6 -13   -0.15    0.54
  -5   6 -14  171.72    3.61
  -5   6 -15   -0.38    0.63
  -5   6 -16    0.06    0.70
  -5   5 -17    0.51    0.70
  -5   5 -16   47.75    2.08
  -5   5 -15   -0.30    0.51
  -5   5 -14   -0.32    0.47
  -5   5 -13    2.58    1.03
  -5   5 -12    0.28    0.57
  -5   5 -11    0.33    0.54
  -5   5 -10  189.77    3.03
  -5   5  -9   -0.92    0.30
  -5   5  -8   -0.51    0.41
  -5   5  -7    3.35    0.62
  -5   5  -6   -0.52    0.30
  -5   5  -5   -0.32    0.31
  -5   5  -4  292.99    3.38
  -5   5  -3   -0.34    0.27
  -5   5  -2   -0.15    0.30
  -5   5  -1    4.31    0.41
  -5   5   0    0.17    0.25
  -5   4   0  299.67    4.16
  -5   4  -1   -0.53    0.35
  -5   4  -2    0.03    0.30
  -5   4  -3   23.65    0.81
  -5   4  -4   -0.03    0.24
  -5   4  -5   -0.31    0.33
  -5   4  -6  223.57    3.21
  -5   4  -7   -0.02    0.28
  -5   4  -8    0.15    0.32
  -5   4  -9   16.22    1.04
  -5   4 -10    0.32    0.47
  -5   4 -11   -0.31    0.37
  -5   4 -12    2.14    0.78
  -5   4 -13   -0.36    0.58
  -5   4 -14    0.40    0.60
  -5   4 -15    6.95    1.24
  -5   4 -16   -0.72    0.53
  -5   4 -17    0.01    0.61
  -5   4 -18   71.50    2.53
  -5   3 -19    0.14    0.63
  -5   3 -18    0.07    0.48
  -5   3 -17    2.94    0.85
  -5   3 -16    0.76    0.62
  -5   3 -15    0.07    0.51
  -5   3 -14  267.79    4.10
  -5   3 -13   -0.23    0.44
  -5   3 -12    0.07    0.44
  -5   3 -11    2.15    0.85
  -5   3 -10   -0.22    0.44
  -5   3  -9   -0.45    0.42
  -5   3  -8   67.29    2.14
  -5   3  -7    0.32    0.36
  -5   3  -6   -0.10    0.45
  -5   3  -5   10.25    0.64
  -5   3  -4   -0.06    0.37
  -5   3  -3   -0.01    0.36
  -5   3  -2   14.95    0.82
  -5   3  -1    0.42    0.35
  -5   3   0    0.31    0.51
  -5   2   0   -0.01    0.27
  -5   2  -1   -0.08    0.30
  -5   2  -2    0.32    0.39
  -5   2  -3    0.12    0.35
  -5   2  -4  374.71    4.35
  -5   2  -5    0.46    0.29
  -5   2  -6   -0.17    0.35
  -5   2  -7    1.66    0.35
  -5   2  -8   -0.19    0.35
  -5   2  -9    0.22    0.30
  -5   2 -10  229.57    3.42
  -5   2 -11    0.04    0.48
  -5   2 -12   -0.01    0.54
  -5   2 -13    0.23    0.57
  -5   2 -14   -0.10    0.48
  -5   2 -15   -0.22    0.53
  -5   2 -16   60.27    2.17
  -5   2 -17   -0.34    0.55
  -5   2 -18   -0.80    0.54
  -5   2 -19    1.00    0.67
  -5   1 -18   77.62    2.58
  -5   1 -17    0.19    0.50
  -5   1 -16   -0.70    0.48
  -5   1 -15    6.72    1.17
  -5   1 -14   -0.01    0.59
  -5   1 -13   -0.99    0.45
  -5   1 -12    0.51    0.66
  -5   1 -11   -0.06    0.43
  -5   1 -10    0.17    0.50
  -5   1  -9   19.13    1.12
  -5   1  -8   -0.35    0.26
  -5   1  -7    0.29    0.30
  -5   1  -6  205.67    3.18
  -5   1  -5    0.03    0.25
  -5   1  -4    0.14    0.22
  -5   1  -3   22.90    1.16
  -5   1  -2    0.27    0.28
  -5   1  -1    0.12    0.30
  -5   1   0  318.09    3.96
  -5   0   0   -0.08    0.34
  -5   0  -1   -0.09    0.24
  -5   0  -2    6.84    0.45
  -5   0  -3   -0.15    0.31
  -5   0  -4    0.04    0.29
  -5   0  -5    3.49    0.42
  -5   0  -6    0.01    0.37
  -5   0  -7   -0.41    0.28
  -5   0  -8   46.09    1.56
  -5   0  -9    0.24    0.44
  -5   0 -10    0.44    0.53
  -5   0 -11    0.65    0.57
  -5   0 -12    0.07    0.55
  -5   0 -13    0.21    0.50
  -5   0 -14  215.80    3.78
  -5   0 -15    0.74    0.80
  -5   0 -16   -0.08    0.57
  -5   0 -17    0.36    0.57
  -5  -1 -16   47.56    2.20
  -5  -1 -15   -0.37    0.51
  -5  -1 -14   -0.13    0.46
  -5  -1 -13    2.91    0.79
  -5  -1 -12    0.69    0.56
  -5  -1 -11   -0.66    0.33
  -5  -1 -10  129.40    2.78
  -5  -1  -9    0.20    0.55
  -5  -1  -8    0.31    0.45
  -5  -1  -7    5.58    0.70
  -5  -1  -6    0.51    0.44
  -5  -1  -5    0.29    0.47
  -5  -1  -4  232.85    3.16
  -5  -1  -3   -0.31    0.39
  -5  -1  -2   -0.01    0.35
  -5  -1  -1    5.76    0.66
  -5  -1   0    0.35    0.39
  -5  -2   0  173.30    2.90
  -5  -2  -1    0.17    0.47
  -5  -2  -2   -0.05    0.50
  -5  -2  -3    6.48    0.79
  -5  -2  -4    0.02    0.43
  -5  -2  -5   -0.12    0.49
  -5  -2  -6  106.24    2.49
  -5  -2  -7    0.23    0.52
  -5  -2  -8   -0.42    0.50
  -5  -2  -9    6.74    0.95
  -5  -2 -10    0.02    0.54
  -5  -2 -11   -0.22    0.44
  -5  -2 -12    0.65    0.59
  -5  -2 -13    0.16    0.52
  -5  -3  -8   25.83    1.59
  -5  -3  -7   -0.15    0.45
  -5  -3  -6    0.79    0.58
  -5  -3  -5    0.15    0.47
  -5  -3  -4    0.00    0.48
  -5  -3  -3   -0.55    0.38
  -5  -3  -2    4.37    0.90
  -5  -3  -1   -0.17    0.48
  -5  -3   0    0.35    0.44
  -4   8   9    2.89    1.00
  -4   8   8    0.88    0.67
  -4   8   7   -0.45    0.42
  -4   8   6   85.64    2.49
  -4   8   5    0.42    0.59
  -4   8   4    0.04    0.59
  -4   8   3    1.42    0.66
  -4   8   2   -0.31    0.40
  -4   8   1    0.09    0.47
  -4   7   1    0.96    0.47
  -4   7   2    0.14    0.50
  -4   7   3   -0.19    0.55
  -4   7   4  130.51    2.58
  -4   7   5   -0.36    0.47
  -4   7   6   -0.36    0.40
  -4   7   7    2.00    0.71
  -4   7   8   -0.44    0.50
  -4   7   9    0.16    0.60
  -4   7  10  183.65    3.50
  -4   7  11   -0.63    0.52
  -4   7  12   -0.28    0.46
  -4   7  13    0.52    0.69
  -4   7  14    0.22    0.67
  -4   6  17    4.89    0.97
  -4   6  16   -0.36    0.53
  -4   6  15    0.46    0.59
  -4   6  14  170.99    3.49
  -4   6  13    0.27    0.56
  -4   6  12    1.36    0.66
  -4   6  11    7.73    0.93
  -4   6  10   -0.11    0.49
  -4   6   9   -0.31    0.49
  -4   6   8   55.77    1.85
  -4   6   7   -0.82    0.45
  -4   6   6   -0.09    0.41
  -4   6   5    8.17    0.79
  -4   6   4   -0.55    0.39
  -4   6   3   -0.36    0.36
  -4   6   2   10.26    0.84
  -4   6   1   -0.18    0.37
  -4   5   1    0.02    0.34
  -4   5   2   -0.03    0.33
  -4   5   3   26.46    1.28
  -4   5   4    0.30    0.31
  -4   5   5    0.23    0.30
  -4   5   6  218.57    3.34
  -4   5   7    0.03    0.32
  -4   5   8   -0.38    0.32
  -4   5   9   18.29    1.12
  -4   5  10   -0.39    0.38
  -4   5  11   -0.13    0.43
  -4   5  12    1.75    0.66
  -4   5  13   -0.17    0.47
  -4   5  14   -0.09    0.56
  -4   5  15    8.61    0.95
  -4   5  16    0.00    0.58
  -4   5  17   -0.11    0.40
  -4   5  18   77.78    2.47
  -4   4  20   -0.02    0.49
  -4   4  19    0.27    0.59
  -4   4  18   -0.02    0.49
  -4   4  17   -0.07    0.47
  -4   4  16   28.98    1.47
  -4   4  15   -0.04    0.45
  -4   4  14   -0.42    0.49
  -4   4  13    1.95    0.62
  -4   4  12    0.09    0.36
  -4   4  11    0.20    0.31
  -4   4  10  393.78    4.56
  -4   4   9   -0.48    0.42
  -4   4   8   -0.06    0.47
  -4   4   7    3.03    0.48
  -4   4   6    0.09    0.30
  -4   4   5    0.10    0.36
  -4   4   4  279.31    4.27
  -4   4   3    0.05    0.32
  -4   4   2    0.30    0.28
  -4   4   1    0.07    0.30
  -4   3   1    0.08    0.29
  -4   3   2   60.91    2.33
  -4   3   3    0.45    0.32
  -4   3   4    0.66    0.35
  -4   3   5    4.30    0.47
  -4   3   6    0.29    0.44
  -4   3   7   -0.10    0.38
  -4   3   8  147.79    3.30
  -4   3   9    0.14    0.42
  -4   3  10   -0.51    0.41
  -4   3  11    6.26    0.54
  -4   3  12   -0.24    0.40
  -4   3  13    0.12    0.42
  -4   3  14  243.52    3.57
  -4   3  15   -0.15    0.39
  -4   3  16   -0.15    0.52
  -4   3  17    0.79    0.68
  -4   3  18    0.23    0.44
  -4   3  19   -0.49    0.41
  -4   3  20  124.75    3.07
  -4   2  21   12.80    1.28
  -4   2  20   -0.15    0.50
  -4   2  19   -0.78    0.43
  -4   2  18   92.10    2.47
  -4   2  17   -0.38    0.56
  -4   2  16   -0.12    0.37
  -4   2  15   13.30    1.01
  -4   2  14    0.09    0.52
  -4   2  13    0.18    0.42
  -4   2  12    4.35    0.49
  -4   2  11   -0.20    0.45
  -4   2  10    0.64    0.35
  -4   2   9   33.74    1.20
  -4   2   8    0.11    0.29
  -4   2   7    0.83    0.53
  -4   2   6  381.56    5.42
  -4   2   5   -0.17    0.40
  -4   2   4    0.07    0.38
  -4   2   3   68.59    2.46
  -4   2   2    0.11    0.29
  -4   2   1   -0.36    0.39
  -4   1   1    2.06    0.32
  -4   1   2   -0.07    0.29
  -4   1   3    0.26    0.42
  -4   1   4  322.06    4.64
  -4   1   5    0.08    0.46
  -4   1   6   -0.55    0.26
  -4   1   7    0.57    0.30
  -4   1   8    0.15    0.40
  -4   1   9    0.00    0.45
  -4   1  10  449.50    5.06
  -4   1  11   -0.54    0.43
  -4   1  12   -0.34    0.39
  -4   1  13    0.02    0.38
  -4   1  14    0.09    0.41
  -4   1  15   -0.46    0.46
  -4   1  16   30.17    1.45
  -4   1  17   -0.09    0.38
  -4   1  18   -0.10    0.50
  -4   1  19   -0.25    0.43
  -4   1  20    0.11    0.48
  -4   0  20  130.11    3.17
  -4   0  19    0.15    0.45
  -4   0  18    0.44    0.57
  -4   0  17    0.03    0.52
  -4   0  16    0.24    0.48
  -4   0  15   -0.20    0.37
  -4   0  14  172.77    3.05
  -4   0  13    0.09    0.54
  -4   0  12   -0.21    0.38
  -4   0  11    0.80    0.32
  -4   0  10    0.03    0.29
  -4   0   9   -0.47    0.32
  -4   0   8  166.14    3.03
  -4   0   7   -0.33    0.27
  -4   0   6    0.06    0.31
  -4   0   5   -0.16    0.31
  -4   0   4   -0.25    0.24
  -4   0   3   -0.15    0.25
  -4   0   2   84.03    2.19
  -4   0   1   -0.56    0.26
  -4  -1   1    0.02    0.30
  -4  -1   2    0.06    0.27
  -4  -1   3   23.37    0.76
  -4  -1   4   -0.20    0.24
  -4  -1   5   -0.29    0.31
  -4  -1   6  222.51    3.20
  -4  -1   7    0.21    0.32
  -4  -1   8   -0.13    0.28
  -4  -1   9   16.72    0.92
  -4  -1  10    0.04    0.31
  -4  -1  11    0.33    0.36
  -4  -1  12    2.34    0.79
  -4  -1  13    0.19    0.47
  -4  -1  14    0.45    0.44
  -4  -1  15    5.40    0.94
  -4  -1  16   -0.55    0.34
  -4  -1  17    0.02    0.54
  -4  -1  18   73.04    2.43
  -4  -2  17   -0.34    0.55
  -4  -2  16   19.66    1.45
  -4  -2  15    0.17    0.52
  -4  -2  14   -0.02    0.45
  -4  -2  13    0.47    0.50
  -4  -2  12    0.39    0.48
  -4  -2  11   -0.71    0.47
  -4  -2  10  238.21    3.51
  -4  -2   9    0.06    0.43
  -4  -2   8   -0.06    0.40
  -4  -2   7    1.24    0.56
  -4  -2   6    0.34    0.39
  -4  -2   5   -0.63    0.26
  -4  -2   4  172.66    2.54
  -4  -2   3    0.23    0.37
  -4  -2   2   -0.47    0.28
  -4  -2   1    2.31    0.34
  -4  -3   1    0.27    0.38
  -4  -3   2   50.73    1.64
  -4  -3   3   -0.29    0.40
  -4  -3   4    0.25    0.41
  -4  -3   5    0.42    0.50
  -4  -3   6    0.01    0.43
  -4  -3   7    0.00    0.46
  -4  -3   8   95.89    2.36
  -4  -3   9   -0.10    0.44
  -4  -3  10    0.09    0.45
  -4  -3  11   -0.28    0.46
  -4  -3  12    0.00    0.40
  -4  -3  13    0.10    0.58
  -4  -3  14   84.01    2.52
  -4  -4   9    3.70    0.72
  -4  -4   8   -0.05    0.34
  -4  -4   7    0.06    0.47
  -4  -4   6   80.18    2.35
  -4  -4   5    0.01    0.41
  -4  -4   4   -0.17    0.33
  -4  -4   3    2.44    0.64
  -4  -4   2    0.37    0.45
  -4  -4   1   -0.07    0.45
  -4  -4   0  140.17    2.88
  -4  -4  -1    0.08    0.35
  -4  -4  -2   -0.08    0.47
  -4  -4  -3    2.85    0.93
  -4  -4  -4    0.45    0.47
  -4  -4  -5   -0.15    0.45
  -4  -4  -6   99.56    2.58
  -4  -4  -7   -0.13    0.41
  -4  -4  -8   -0.35    0.37
  -4  -4  -9    1.64    0.80
  -4  -3 -14    0.18    0.60
  -4  -3 -13    1.26    0.66
  -4  -3 -12   -0.22    0.45
  -4  -3 -11   -0.08    0.43
  -4  -3 -10  216.56    3.72
  -4  -3  -9   -0.07    0.39
  -4  -3  -8   -0.07    0.44
  -4  -3  -7   -0.25    0.43
  -4  -3  -6    0.23    0.40
  -4  -3  -5    0.38    0.44
  -4  -3  -4   89.47    2.20
  -4  -3  -3   -0.10    0.31
  -4  -3  -2    0.19    0.39
  -4  -3  -1    0.26    0.41
  -4  -3   0   -0.01    0.45
  -4  -2   0   -0.13    0.20
  -4  -2  -1   -0.25    0.33
  -4  -2  -2   34.49    1.26
  -4  -2  -3   -0.19    0.30
  -4  -2  -4    0.13    0.33
  -4  -2  -5    1.94    0.57
  -4  -2  -6   -0.05    0.39
  -4  -2  -7   -0.17    0.37
  -4  -2  -8   75.16    2.02
  -4  -2  -9   -0.12    0.35
  -4  -2 -10   -0.03    0.39
  -4  -2 -11    1.05    0.71
  -4  -2 -12   -0.59    0.38
  -4  -2 -13   -0.38    0.47
  -4  -2 -14  145.52    3.17
  -4  -2 -15    0.14    0.52
  -4  -2 -16   -0.09    0.50
  -4  -2 -17   -0.10    0.59
  -4  -1 -18   41.64    1.94
  -4  -1 -17   -0.21    0.47
  -4  -1 -16   -0.09    0.51
  -4  -1 -15    6.29    0.89
  -4  -1 -14   -0.04    0.45
  -4  -1 -13   -0.48    0.48
  -4  -1 -12    9.96    0.89
  -4  -1 -11   -0.23    0.34
  -4  -1 -10   -0.11    0.42
  -4  -1  -9    8.59    0.71
  -4  -1  -8   -0.03    0.30
  -4  -1  -7   -0.12    0.28
  -4  -1  -6  246.44    3.34
  -4  -1  -5   -0.07    0.26
  -4  -1  -4   -0.33    0.28
  -4  -1  -3   12.56    0.55
  -4  -1  -2   -0.18    0.22
  -4  -1  -1    0.35    0.26
  -4  -1   0  308.62    3.80
  -4   0   0    0.25    0.25
  -4   0  -1   -0.49    0.42
  -4   0  -2   -0.36    0.31
  -4   0  -3    0.38    0.32
  -4   0  -4  266.07    3.83
  -4   0  -5   -0.15    0.28
  -4   0  -6    0.00    0.31
  -4   0  -7    4.11    0.45
  -4   0  -8    0.20    0.28
  -4   0  -9    0.05    0.26
  -4   0 -10  367.46    4.26
  -4   0 -11    0.24    0.30
  -4   0 -12    0.72    0.49
  -4   0 -13    0.32    0.57
  -4   0 -14    0.49    0.47
  -4   0 -15   -0.16    0.50
  -4   0 -16   26.63    1.51
  -4   0 -17    0.34    0.51
  -4   0 -18   -0.10    0.41
  -4   0 -19   -0.44    0.52
  -4   0 -20    0.06    0.47
  -4   1 -21    1.21    0.66
  -4   1 -20  135.58    3.18
  -4   1 -19   -0.09    0.41
  -4   1 -18   -0.20    0.45
  -4   1 -17   -0.57    0.53
  -4   1 -16   -0.15    0.57
  -4   1 -15    0.11    0.46
  -4   1 -14  199.25    3.20
  -4   1 -13   -0.11    0.39
  -4   1 -12   -0.27    0.39
  -4   1 -11    0.01    0.36
  -4   1 -10    0.07    0.32
  -4   1  -9    0.09    0.37
  -4   1  -8  185.44    3.37
  -4   1  -7    0.00    0.39
  -4   1  -6    0.23    0.33
  -4   1  -5    2.24    0.35
  -4   1  -4    0.13    0.23
  -4   1  -3   -0.22    0.33
  -4   1  -2   99.53    2.41
  -4   1  -1    0.33    0.23
  -4   1   0   -0.09    0.35
  -4   2   0  520.02    6.16
  -4   2  -1    0.41    0.33
  -4   2  -2   -0.28    0.31
  -4   2  -3   26.95    0.97
  -4   2  -4   -0.14    0.37
  -4   2  -5   -0.08    0.35
  -4   2  -6  439.60    5.67
  -4   2  -7   -0.18    0.46
  -4   2  -8   -0.31    0.38
  -4   2  -9   22.03    0.82
  -4   2 -10   -0.41    0.40
  -4   2 -11    0.57    0.40
  -4   2 -12   18.05    0.76
  -4   2 -13    0.32    0.52
  -4   2 -14   -0.41    0.36
  -4   2 -15   13.79    1.01
  -4   2 -16    0.15    0.45
  -4   2 -17    0.13    0.46
  -4   2 -18   52.23    2.09
  -4   2 -19    0.10    0.50
  -4   2 -20   -0.02    0.45
  -4   2 -21    2.48    0.84
  -4   3 -21   -0.53    0.55
  -4   3 -20    1.11    0.68
  -4   3 -19   -0.19    0.45
  -4   3 -18    0.17    0.51
  -4   3 -17   -0.18    0.44
  -4   3 -16   54.23    1.95
  -4   3 -15    0.18    0.49
  -4   3 -14    0.94    0.56
  -4   3 -13    3.15    0.64
  -4   3 -12   -0.01    0.36
  -4   3 -11   -0.39    0.38
  -4   3 -10  359.73    4.50
  -4   3  -9    0.23    0.36
  -4   3  -8   -0.48    0.31
  -4   3  -7   11.01    0.59
  -4   3  -6   -0.29    0.31
  -4   3  -5    0.17    0.30
  -4   3  -4  435.45    4.95
  -4   3  -3   -0.17    0.23
  -4   3  -2   -0.03    0.25
  -4   3  -1    3.58    0.43
  -4   3   0    0.04    0.24
  -4   4   0    0.51    0.26
  -4   4  -1   -0.05    0.32
  -4   4  -2   77.60    2.10
  -4   4  -3   -0.12    0.29
  -4   4  -4    0.08    0.27
  -4   4  -5   -0.23    0.27
  -4   4  -6   -0.06    0.29
  -4   4  -7    0.43    0.29
  -4   4  -8  166.61    2.99
  -4   4  -9    0.00    0.28
  -4   4 -10    0.29    0.31
  -4   4 -11    0.09    0.34
  -4   4 -12    0.32    0.38
  -4   4 -13    0.43    0.52
  -4   4 -14  174.74    3.06
  -4   4 -15    0.13    0.48
  -4   4 -16    0.06    0.50
  -4   4 -17    0.81    0.73
  -4   4 -18    0.10    0.56
  -4   4 -19    0.30    0.58
  -4   4 -20  134.05    3.30
  -4   5 -18   48.65    2.12
  -4   5 -17    0.70    0.66
  -4   5 -16   -0.02    0.52
  -4   5 -15    6.37    0.96
  -4   5 -14   -0.08    0.50
  -4   5 -13    0.24    0.51
  -4   5 -12    8.34    0.80
  -4   5 -11    0.20    0.45
  -4   5 -10    0.28    0.51
  -4   5  -9    9.89    0.78
  -4   5  -8    0.33    0.36
  -4   5  -7    0.61    0.41
  -4   5  -6  240.98    3.16
  -4   5  -5   -0.02    0.24
  -4   5  -4   -0.01    0.26
  -4   5  -3   12.05    0.60
  -4   5  -2    0.18    0.26
  -4   5  -1    0.09    0.24
  -4   5   0  302.04    3.77
  -4   6   0   -0.46    0.28
  -4   6  -1    6.63    0.49
  -4   6  -2   -0.30    0.35
  -4   6  -3   -0.03    0.30
  -4   6  -4  250.94    3.05
  -4   6  -5   -0.28    0.37
  -4   6  -6   -0.05    0.37
  -4   6  -7    6.69    0.68
  -4   6  -8   -0.43    0.28
  -4   6  -9   -0.63    0.38
  -4   6 -10  163.89    2.80
  -4   6 -11   -0.22    0.52
  -4   6 -12    0.25    0.53
  -4   6 -13    4.74    0.99
  -4   6 -14    0.44    0.54
  -4   6 -15   -0.90    0.49
  -4   6 -16   52.69    2.17
  -4   6 -17   -0.30    0.59
  -4   7 -14   98.66    2.86
  -4   7 -13   -0.31    0.45
  -4   7 -12   -0.16    0.56
  -4   7 -11    0.76    0.68
  -4   7 -10    0.48    0.47
  -4   7  -9   -0.03    0.48
  -4   7  -8   64.81    1.98
  -4   7  -7    0.11    0.49
  -4   7  -6    0.05    0.46
  -4   7  -5    0.35    0.50
  -4   7  -4    0.21    0.43
  -4   7  -3   -0.11    0.38
  -4   7  -2   24.34    1.17
  -4   7  -1    0.12    0.47
  -4   7   0   -0.01    0.37
  -4   8   0  125.96    2.84
  -4   8  -1   -0.11    0.41
  -4   8  -2    0.16    0.51
  -4   8  -3    1.81    0.96
  -4   8  -4   -0.09    0.51
  -4   8  -5    0.65    0.62
  -4   8  -6   89.79    2.42
  -4   8  -7    0.34    0.55
  -4   8  -8   -0.37    0.49
  -4   8  -9    0.18    0.61
  -3  -5   1   -0.35    0.38
  -3  -5   2    2.06    0.87
  -3  -5   3    0.40    0.45
  -3  -5   4   -0.27    0.36
  -3  -5   5    5.80    0.95
  -3  -5   6   -0.14    0.48
  -3  -5   7    0.39    0.46
  -3  -5   8   18.30    1.29
  -3  -4  14    0.06    0.45
  -3  -4  13    1.59    0.81
  -3  -4  12   -0.02    0.40
  -3  -4  11    0.13    0.50
  -3  -4  10  170.04    3.09
  -3  -4   9    0.39    0.35
  -3  -4   8   -0.17    0.39
  -3  -4   7    0.55    0.55
  -3  -4   6    0.04    0.35
  -3  -4   5    0.00    0.41
  -3  -4   4  131.17    2.47
  -3  -4   3    0.19    0.46
  -3  -4   2    0.45    0.46
  -3  -4   1    0.67    0.46
  -3  -3   1    0.24    0.33
  -3  -3   2   -0.13    0.21
  -3  -3   3   -0.31    0.29
  -3  -3   4    0.13    0.35
  -3  -3   5   -0.05    0.38
  -3  -3   6   65.00    1.58
  -3  -3   7   -0.07    0.37
  -3  -3   8   -0.23    0.37
  -3  -3   9   -0.07    0.36
  -3  -3  10   -0.39    0.35
  -3  -3  11   -0.39    0.33
  -3  -3  12    6.62    0.84
  -3  -3  13   -0.55    0.44
  -3  -3  14    0.06    0.43
  -3  -3  15    0.95    0.55
  -3  -3  16   -0.12    0.54
  -3  -3  17   -0.01    0.51
  -3  -2  19    1.00    0.61
  -3  -2  18   -0.10    0.41
  -3  -2  17    2.02    0.67
  -3  -2  16    0.67    0.58
  -3  -2  15   -0.19    0.37
  -3  -2  14  261.10    3.59
  -3  -2  13   -0.44    0.36
  -3  -2  12    0.34    0.39
  -3  -2  11    2.50    0.51
  -3  -2  10    0.01    0.31
  -3  -2   9   -0.11    0.28
  -3  -2   8   61.71    1.72
  -3  -2   7    0.05    0.35
  -3  -2   6    0.00    0.27
  -3  -2   5    9.94    0.50
  -3  -2   4    0.22    0.22
  -3  -2   3    0.22    0.25
  -3  -2   2   12.37    0.53
  -3  -2   1    0.14    0.23
  -3  -1   1    3.71    0.35
  -3  -1   2   -0.23    0.25
  -3  -1   3    0.08    0.19
  -3  -1   4  417.14    4.79
  -3  -1   5   -0.32    0.25
  -3  -1   6   -0.01    0.25
  -3  -1   7   11.53    0.56
  -3  -1   8    0.13    0.26
  -3  -1   9   -0.25    0.34
  -3  -1  10  350.99    4.12
  -3  -1  11    0.27    0.28
  -3  -1  12   -0.32    0.34
  -3  -1  13    2.81    0.61
  -3  -1  14   -0.09    0.36
  -3  -1  15   -0.19    0.34
  -3  -1  16   49.70    1.85
  -3  -1  17   -0.24    0.36
  -3  -1  18    0.30    0.51
  -3  -1  19    0.37    0.47
  -3  -1  20    0.16    0.57
  -3   0  21    0.76    0.59
  -3   0  20    0.32    0.47
  -3   0  19   -0.25    0.32
  -3   0  18  192.24    3.34
  -3   0  17    0.17    0.51
  -3   0  16    0.27    0.47
  -3   0  15    4.34    0.65
  -3   0  14   -0.08    0.32
  -3   0  13    0.01    0.30
  -3   0  12   28.86    1.32
  -3   0  11   -0.30    0.25
  -3   0  10   -0.15    0.28
  -3   0   9    1.08    0.36
  -3   0   8    0.27    0.31
  -3   0   7   -0.10    0.36
  -3   0   6  106.88    2.74
  -3   0   5   -0.26    0.24
  -3   0   4    0.09    0.20
  -3   0   3    0.93    0.24
  -3   0   2   -0.25    0.23
  -3   0   1   -0.27    0.24
  -3   1   1   -0.04    0.20
  -3   1   2   79.11    2.35
  -3   1   3    0.02    0.31
  -3   1   4    0.19    0.23
  -3   1   5   12.16    0.54
  -3   1   6   -0.17    0.24
  -3   1   7    0.29    0.27
  -3   1   8  180.46    3.74
  -3   1   9    0.43    0.31
  -3   1  10   -0.42    0.41
  -3   1  11   -0.07    0.44
  -3   1  12   -0.23    0.29
  -3   1  13   -0.10    0.36
  -3   1  14  331.38    3.93
  -3   1  15   -0.36    0.29
  -3   1  16   -0.27    0.41
  -3   1  17    1.67    0.60
  -3   1  18    0.15    0.45
  -3   1  19   -0.45    0.32
  -3   1  20  122.64    2.89
  -3   1  21    0.09    0.45
  -3   1  22    0.14    0.39
  -3   2  22   21.22    1.46
  -3   2  21   -0.10    0.46
  -3   2  20    0.18    0.44
  -3   2  19   -0.21    0.38
  -3   2  18    0.53    0.49
  -3   2  17   -0.34    0.39
  -3   2  16   87.11    2.11
  -3   2  15   -0.01    0.44
  -3   2  14   -0.44    0.39
  -3   2  13    1.80    0.42
  -3   2  12   -0.04    0.32
  -3   2  11   -0.43    0.34
  -3   2  10  449.79    5.67
  -3   2   9    0.17    0.29
  -3   2   8    0.23    0.34
  -3   2   7   13.41    0.61
  -3   2   6   -0.05    0.35
  -3   2   5   -0.05    0.34
  -3   2   4  743.12    7.71
  -3   2   3   -0.35    0.22
  -3   2   2   -0.01    0.25
  -3   2   1    5.88    0.42
  -3   3   1   -0.07    0.25
  -3   3   2   -0.21    0.25
  -3   3   3    0.73    0.28
  -3   3   4   -0.10    0.29
  -3   3   5    0.31    0.28
  -3   3   6  118.51    3.11
  -3   3   7   -0.26    0.43
  -3   3   8    0.19    0.29
  -3   3   9    2.32    0.44
  -3   3  10   -0.78    0.32
  -3   3  11   -0.61    0.26
  -3   3  12   25.15    0.85
  -3   3  13    0.26    0.45
  -3   3  14   -0.04    0.37
  -3   3  15    3.65    0.78
  -3   3  16   -0.38    0.42
  -3   3  17    0.36    0.45
  -3   3  18  198.12    3.48
  -3   3  19    0.28    0.48
  -3   3  20   -0.61    0.35
  -3   3  21    0.32    0.58
  -3   4  20  134.33    3.16
  -3   4  19   -0.41    0.38
  -3   4  18    0.04    0.40
  -3   4  17    0.63    0.60
  -3   4  16    0.10    0.43
  -3   4  15   -0.25    0.45
  -3   4  14  197.50    3.10
  -3   4  13   -0.20    0.40
  -3   4  12    0.04    0.39
  -3   4  11   -0.24    0.41
  -3   4  10   -0.27    0.40
  -3   4   9    0.13    0.30
  -3   4   8  196.98    3.39
  -3   4   7    0.33    0.33
  -3   4   6   -0.11    0.30
  -3   4   5    1.48    0.34
  -3   4   4    0.10    0.27
  -3   4   3    0.14    0.26
  -3   4   2   94.29    2.47
  -3   4   1    0.34    0.26
  -3   5   1    0.05    0.30
  -3   5   2    0.31    0.24
  -3   5   3   -0.07    0.24
  -3   5   4  381.10    4.31
  -3   5   5   -0.13    0.30
  -3   5   6   -0.33    0.31
  -3   5   7    1.12    0.32
  -3   5   8    0.34    0.39
  -3   5   9   -0.24    0.33
  -3   5  10  225.52    3.09
  -3   5  11   -0.11    0.40
  -3   5  12    0.41    0.50
  -3   5  13   -0.30    0.43
  -3   5  14   -0.02    0.38
  -3   5  15   -0.81    0.33
  -3   5  16   60.88    2.15
  -3   5  17   -0.26    0.45
  -3   5  18    0.42    0.54
  -3   5  19   -0.10    0.41
  -3   6  17   -0.16    0.47
  -3   6  16   -0.12    0.47
  -3   6  15    0.83    0.67
  -3   6  14   -0.23    0.49
  -3   6  13   -0.10    0.42
  -3   6  12    6.99    0.88
  -3   6  11    0.24    0.44
  -3   6  10    0.08    0.39
  -3   6   9   -0.16    0.45
  -3   6   8    0.41    0.41
  -3   6   7    0.45    0.41
  -3   6   6   64.01    1.75
  -3   6   5   -0.19    0.37
  -3   6   4   -0.21    0.31
  -3   6   3    0.25    0.43
  -3   6   2    0.06    0.26
  -3   6   1   -0.40    0.27
  -3   7   1    0.00    0.30
  -3   7   2   46.11    1.61
  -3   7   3   -0.28    0.41
  -3   7   4    0.73    0.47
  -3   7   5   -0.22    0.37
  -3   7   6   -0.01    0.32
  -3   7   7   -0.04    0.38
  -3   7   8   95.14    2.43
  -3   7   9    0.20    0.43
  -3   7  10    0.16    0.54
  -3   7  11   -0.38    0.40
  -3   7  12   -0.36    0.43
  -3   7  13    0.27    0.52
  -3   7  14   85.31    2.69
  -3   8   8   -0.49    0.44
  -3   8   7   -0.32    0.43
  -3   8   6   -0.17    0.44
  -3   8   5   -0.43    0.48
  -3   8   4  136.55    2.92
  -3   8   3   -0.29    0.41
  -3   8   2   -0.48    0.44
  -3   8   1    0.46    0.48
  -3   8   0   -0.21    0.34
  -3   8  -1    0.31    0.43
  -3   8  -2    2.85    0.70
  -3   8  -3    0.23    0.34
  -3   8  -4    0.21    0.42
  -3   8  -5    0.22    0.44
  -3   8  -6   -0.18    0.36
  -3   8  -7    0.11    0.51
  -3   8  -8   20.01    1.57
  -3   7 -14    0.29    0.56
  -3   7 -13   -0.15    0.60
  -3   7 -12    0.10    0.47
  -3   7 -11   -0.05    0.47
  -3   7 -10  222.31    3.65
  -3   7  -9   -0.18    0.43
  -3   7  -8    0.26    0.44
  -3   7  -7   -0.10    0.37
  -3   7  -6    0.22    0.43
  -3   7  -5   -0.08    0.42
  -3   7  -4   89.43    2.14
  -3   7  -3    0.01    0.46
  -3   7  -2    0.56    0.44
  -3   7  -1    0.40    0.43
  -3   7   0   -0.34    0.33
  -3   6   0  432.06    3.98
  -3   6  -1    0.42    0.27
  -3   6  -2    0.01    0.36
  -3   6  -3    0.20    0.27
  -3   6  -4    0.05    0.34
  -3   6  -5    0.03    0.28
  -3   6  -6   68.54    1.66
  -3   6  -7   -0.16    0.40
  -3   6  -8    0.31    0.39
  -3   6  -9    0.74    0.67
  -3   6 -10    0.17    0.39
  -3   6 -11   -0.15    0.41
  -3   6 -12    5.55    0.92
  -3   6 -13   -0.30    0.48
  -3   6 -14    0.62    0.49
  -3   6 -15    0.76    0.56
  -3   6 -16   -0.52    0.56
  -3   6 -17   -0.31    0.47
  -3   5 -19    0.18    0.53
  -3   5 -18    0.12    0.44
  -3   5 -17    0.29    0.60
  -3   5 -16    0.08    0.51
  -3   5 -15    0.18    0.46
  -3   5 -14  245.47    3.64
  -3   5 -13   -0.01    0.43
  -3   5 -12    0.52    0.36
  -3   5 -11    2.64    0.55
  -3   5 -10    0.31    0.30
  -3   5  -9   -0.10    0.32
  -3   5  -8   69.04    1.73
  -3   5  -7   -0.30    0.28
  -3   5  -6    0.20    0.30
  -3   5  -5    0.44    0.37
  -3   5  -4   -0.07    0.32
  -3   5  -3   -0.36    0.27
  -3   5  -2   11.55    0.50
  -3   5  -1   -0.13    0.22
  -3   5   0    0.16    0.27
  -3   4   0    0.30    0.26
  -3   4  -1    1.97    0.40
  -3   4  -2   -0.24    0.26
  -3   4  -3    0.23    0.25
  -3   4  -4  316.17    4.12
  -3   4  -5    0.07    0.25
  -3   4  -6    0.06    0.24
  -3   4  -7    0.64    0.27
  -3   4  -8    0.21    0.23
  -3   4  -9   -0.03    0.38
  -3   4 -10  441.21    4.66
  -3   4 -11    0.20    0.28
  -3   4 -12   -0.43    0.31
  -3   4 -13    0.22    0.44
  -3   4 -14   -0.26    0.44
  -3   4 -15   -0.09    0.44
  -3   4 -16   29.17    1.39
  -3   4 -17   -0.02    0.43
  -3   4 -18   -0.38    0.49
  -3   4 -19    0.62    0.56
  -3   4 -20    0.62    0.58
  -3   3 -21    0.79    0.69
  -3   3 -20    0.15    0.49
  -3   3 -19   -0.25    0.53
  -3   3 -18  195.40    3.48
  -3   3 -17   -0.40    0.44
  -3   3 -16    0.21    0.46
  -3   3 -15    2.54    0.75
  -3   3 -14   -0.41    0.39
  -3   3 -13   -0.44    0.32
  -3   3 -12   27.14    0.86
  -3   3 -11   -0.11    0.34
  -3   3 -10   -0.26    0.33
  -3   3  -9    1.01    0.31
  -3   3  -8    0.05    0.33
  -3   3  -7   -0.32    0.38
  -3   3  -6  110.07    2.75
  -3   3  -5   -0.06    0.26
  -3   3  -4   -0.40    0.21
  -3   3  -3    1.06    0.24
  -3   3  -2   -0.17    0.22
  -3   3  -1    0.14    0.16
  -3   3   0 1137.28    8.38
  -3   2   0   -0.21    0.22
  -3   2  -1    0.07    0.20
  -3   2  -2   36.32    1.52
  -3   2  -3   -0.27    0.17
  -3   2  -4    0.03    0.21
  -3   2  -5    7.51    0.42
  -3   2  -6   -0.13    0.26
  -3   2  -7   -0.39    0.32
  -3   2  -8  160.16    3.61
  -3   2  -9   -0.29    0.34
  -3   2 -10   -0.29    0.33
  -3   2 -11    9.69    0.65
  -3   2 -12    0.56    0.29
  -3   2 -13   -0.14    0.37
  -3   2 -14  342.30    4.13
  -3   2 -15    0.26    0.51
  -3   2 -16    0.31    0.45
  -3   2 -17    1.30    0.61
  -3   2 -18    0.08    0.51
  -3   2 -19   -0.12    0.55
  -3   2 -20  113.05    2.90
  -3   2 -21   -0.21    0.57
  -3   2 -22   -0.46    0.48
  -3   1 -22    7.59    1.29
  -3   1 -21   -0.31    0.45
  -3   1 -20    0.08    0.45
  -3   1 -19    1.70    0.71
  -3   1 -18   -0.35    0.42
  -3   1 -17   -0.11    0.46
  -3   1 -16   57.50    1.88
  -3   1 -15    0.57    0.49
  -3   1 -14   -0.28    0.35
  -3   1 -13    2.59    0.41
  -3   1 -12    0.19    0.37
  -3   1 -11    0.30    0.33
  -3   1 -10  492.58    5.94
  -3   1  -9   -0.09    0.26
  -3   1  -8    0.03    0.35
  -3   1  -7    1.05    0.35
  -3   1  -6    0.38    0.25
  -3   1  -5   -0.06    0.29
  -3   1  -4  600.37    6.25
  -3   1  -3    0.21    0.20
  -3   1  -2   -0.08    0.16
  -3   1  -1   19.00    0.73
  -3   1   0   -0.04    0.27
  -3   0   0 1230.95    8.48
  -3   0  -1   -0.12    0.17
  -3   0  -2   -0.18    0.17
  -3   0  -3    0.63    0.22
  -3   0  -4   -0.07    0.27
  -3   0  -5    0.24    0.19
  -3   0  -6   99.70    2.65
  -3   0  -7   -0.13    0.29
  -3   0  -8    0.29    0.27
  -3   0  -9    1.79    0.37
  -3   0 -10    0.06    0.31
  -3   0 -11   -0.16    0.36
  -3   0 -12   24.22    0.84
  -3   0 -13   -0.44    0.33
  -3   0 -14   -0.21    0.42
  -3   0 -15    3.49    0.64
  -3   0 -16   -0.02    0.44
  -3   0 -17   -0.07    0.47
  -3   0 -18  180.73    3.38
  -3   0 -19   -0.37    0.38
  -3   0 -20    0.47    0.58
  -3   0 -21    1.35    0.60
  -3  -1 -21    0.41    0.60
  -3  -1 -20  116.89    2.99
  -3  -1 -19   -0.52    0.36
  -3  -1 -18    0.16    0.66
  -3  -1 -17    0.75    0.62
  -3  -1 -16    0.22    0.48
  -3  -1 -15   -0.01    0.43
  -3  -1 -14  218.68    3.36
  -3  -1 -13    0.17    0.36
  -3  -1 -12    0.02    0.38
  -3  -1 -11    5.53    0.56
  -3  -1 -10    0.23    0.26
  -3  -1  -9   -0.35    0.37
  -3  -1  -8  135.14    2.83
  -3  -1  -7    0.34    0.29
  -3  -1  -6    0.11    0.24
  -3  -1  -5    4.24    0.39
  -3  -1  -4    0.12    0.23
  -3  -1  -3    0.17    0.21
  -3  -1  -2   50.20    1.80
  -3  -1  -1    0.14    0.29
  -3  -1   0    0.12    0.23
  -3  -2   0    0.10    0.35
  -3  -2  -1   14.04    0.56
  -3  -2  -2    0.49    0.24
  -3  -2  -3    0.08    0.31
  -3  -2  -4  354.45    4.14
  -3  -2  -5   -0.13    0.23
  -3  -2  -6   -0.44    0.27
  -3  -2  -7    4.68    0.42
  -3  -2  -8   -0.14    0.32
  -3  -2  -9   -0.38    0.28
  -3  -2 -10  236.39    3.20
  -3  -2 -11   -0.14    0.44
  -3  -2 -12    0.14    0.47
  -3  -2 -13    5.79    0.94
  -3  -2 -14   -0.60    0.34
  -3  -2 -15    0.08    0.40
  -3  -2 -16   45.53    1.86
  -3  -2 -17   -0.30    0.41
  -3  -2 -18    0.24    0.48
  -3  -2 -19    4.96    0.97
  -3  -3 -17    0.11    0.56
  -3  -3 -16    0.08    0.50
  -3  -3 -15    1.86    0.83
  -3  -3 -14   -0.33    0.41
  -3  -3 -13    0.24    0.46
  -3  -3 -12    7.27    0.88
  -3  -3 -11    0.17    0.45
  -3  -3 -10   -0.18    0.38
  -3  -3  -9    0.13    0.44
  -3  -3  -8   -0.19    0.31
  -3  -3  -7    0.16    0.38
  -3  -3  -6   65.06    1.73
  -3  -3  -5    0.07    0.35
  -3  -3  -4    0.18    0.29
  -3  -3  -3   -0.16    0.32
  -3  -3  -2   -0.15    0.29
  -3  -3  -1    0.00    0.24
  -3  -3   0  440.89    4.00
  -3  -4   0   -0.16    0.32
  -3  -4  -1   -0.01    0.32
  -3  -4  -2   25.09    1.24
  -3  -4  -3   -0.03    0.36
  -3  -4  -4    0.09    0.43
  -3  -4  -5    0.09    0.43
  -3  -4  -6    0.07    0.41
  -3  -4  -7   -0.45    0.36
  -3  -4  -8   68.10    2.10
  -3  -4  -9   -0.37    0.39
  -3  -4 -10    0.07    0.53
  -3  -4 -11   -0.18    0.64
  -3  -4 -12    0.83    0.69
  -3  -4 -13   -0.05    0.40
  -3  -4 -14  106.11    2.91
  -3  -5  -8   -0.21    0.43
  -3  -5  -7    7.28    0.92
  -3  -5  -6    0.09    0.53
  -3  -5  -5    0.34    0.51
  -3  -5  -4  142.19    3.07
  -3  -5  -3    0.14    0.51
  -3  -5  -2   -0.23    0.41
  -3  -5  -1    4.78    1.02
  -3  -5   0    0.20    0.41
  -2   8   6   -0.31    0.34
  -2   8   5    5.16    0.88
  -2   8   4    0.04    0.46
  -2   8   3    0.32    0.46
  -2   8   2    1.82    0.72
  -2   8   1    0.65    0.48
  -2   7   1    0.33    0.37
  -2   7   2    0.07    0.37
  -2   7   3    5.51    0.70
  -2   7   4    0.13    0.41
  -2   7   5    0.16    0.41
  -2   7   6  122.30    2.64
  -2   7   7   -0.36    0.38
  -2   7   8    0.33    0.49
  -2   7   9    2.32    0.74
  -2   7  10    0.64    0.54
  -2   7  11    0.45    0.52
  -2   7  12    1.71    0.99
  -2   7  13   -0.43    0.55
  -2   6  17   -0.10    0.44
  -2   6  16   21.75    1.56
  -2   6  15    0.27    0.47
  -2   6  14   -0.55    0.37
  -2   6  13    0.43    0.44
  -2   6  12    0.04    0.45
  -2   6  11   -0.35    0.41
  -2   6  10  232.77    3.55
  -2   6   9   -0.32    0.44
  -2   6   8   -0.15    0.40
  -2   6   7   -0.09    0.47
  -2   6   6    0.59    0.37
  -2   6   5   -0.20    0.34
  -2   6   4  173.67    2.58
  -2   6   3    0.32    0.31
  -2   6   2    0.02    0.34
  -2   6   1    1.90    0.37
  -2   5   1    0.05    0.29
  -2   5   2   14.26    0.63
  -2   5   3    0.26    0.26
  -2   5   4    0.15    0.27
  -2   5   5   10.88    0.55
  -2   5   6   -0.23    0.38
  -2   5   7   -0.15    0.25
  -2   5   8   63.07    1.78
  -2   5   9   -0.38    0.30
  -2   5  10   -0.28    0.38
  -2   5  11    3.05    0.58
  -2   5  12   -0.31    0.32
  -2   5  13   -0.30    0.56
  -2   5  14  254.03    3.76
  -2   5  15   -0.08    0.43
  -2   5  16   -0.28    0.43
  -2   5  17    1.45    0.75
  -2   5  18    0.03    0.54
  -2   5  19    0.03    0.48
  -2   4  21    1.71    0.98
  -2   4  20    0.28    0.52
  -2   4  19    0.13    0.57
  -2   4  18   55.95    2.06
  -2   4  17    0.26    0.48
  -2   4  16    0.01    0.42
  -2   4  15   10.21    0.96
  -2   4  14    0.41    0.37
  -2   4  13    0.32    0.42
  -2   4  12   14.31    0.69
  -2   4  11    0.10    0.35
  -2   4  10    0.02    0.39
  -2   4   9   19.69    0.71
  -2   4   8   -0.02    0.31
  -2   4   7   -0.04    0.27
  -2   4   6  408.81    4.92
  -2   4   5    0.19    0.28
  -2   4   4    0.32    0.25
  -2   4   3   28.51    1.01
  -2   4   2    0.12    0.25
  -2   4   1   -0.07    0.21
  -2   3   1   20.53    0.79
  -2   3   2   -0.26    0.20
  -2   3   3    0.10    0.24
  -2   3   4  595.14    6.32
  -2   3   5    0.54    0.27
  -2   3   6   -0.08    0.22
  -2   3   7    0.68    0.29
  -2   3   8    0.15    0.30
  -2   3   9   -0.51    0.34
  -2   3  10  503.12    5.91
  -2   3  11    0.36    0.38
  -2   3  12   -0.08    0.29
  -2   3  13    2.12    0.43
  -2   3  14    0.50    0.32
  -2   3  15    0.48    0.43
  -2   3  16   55.39    1.89
  -2   3  17   -0.22    0.35
  -2   3  18    0.13    0.45
  -2   3  19    4.02    0.65
  -2   3  20    0.48    0.50
  -2   3  21    0.83    0.57
  -2   3  22    9.59    1.13
  -2   2  23   -0.07    0.50
  -2   2  22   -0.18    0.33
  -2   2  21   -0.37    0.38
  -2   2  20  114.37    2.78
  -2   2  19   -0.05    0.48
  -2   2  18    0.03    0.35
  -2   2  17    0.57    0.43
  -2   2  16    0.49    0.51
  -2   2  15   -0.26    0.41
  -2   2  14  401.45    4.65
  -2   2  13   -0.13    0.30
  -2   2  12    0.31    0.34
  -2   2  11    0.43    0.44
  -2   2  10    0.19    0.34
  -2   2   9   -0.65    0.35
  -2   2   8  175.80    3.84
  -2   2   7    0.25    0.31
  -2   2   6    0.12    0.31
  -2   2   5    4.63    0.37
  -2   2   4   -0.23    0.28
  -2   2   3   -0.16    0.20
  -2   2   2   44.24    1.73
  -2   2   1    0.12    0.19
  -2   1   1   -0.04    0.19
  -2   1   2    0.23    0.20
  -2   1   3  168.89    3.57
  -2   1   4    0.22    0.41
  -2   1   5   -0.05    0.23
  -2   1   6  859.22    8.35
  -2   1   7   -0.10    0.29
  -2   1   8    0.32    0.31
  -2   1   9   57.76    2.27
  -2   1  10    0.08    0.41
  -2   1  11    0.27    0.31
  -2   1  12   38.48    1.69
  -2   1  13    0.24    0.34
  -2   1  14    0.05    0.33
  -2   1  15   24.05    0.81
  -2   1  16   -0.19    0.25
  -2   1  17    0.07    0.36
  -2   1  18   67.18    2.02
  -2   1  19   -0.02    0.50
  -2   1  20   -0.10    0.45
  -2   1  21    2.09    0.70
  -2   1  22    0.04    0.43
  -2   1  23    0.29    0.45
  -2   0  23    0.43    0.53
  -2   0  22   15.37    1.18
  -2   0  21   -0.06    0.48
  -2   0  20   -0.07    0.38
  -2   0  19    1.29    0.83
  -2   0  18   -0.01    0.43
  -2   0  17    0.30    0.43
  -2   0  16   84.98    2.14
  -2   0  15    0.11    0.27
  -2   0  14   -0.31    0.33
  -2   0  13    2.29    0.38
  -2   0  12    0.20    0.34
  -2   0  11    0.05    0.38
  -2   0  10  516.85    6.11
  -2   0   9    0.10    0.29
  -2   0   8   -0.21    0.32
  -2   0   7   -0.45    0.28
  -2   0   6   -0.55    0.22
  -2   0   5   -0.01    0.23
  -2   0   4  921.18    7.40
  -2   0   3   -0.30    0.16
  -2   0   2    0.42    0.16
  -2   0   1   12.34    0.52
  -2  -1   1    0.15    0.15
  -2  -1   2   37.96    1.61
  -2  -1   3    0.05    0.22
  -2  -1   4    0.17    0.20
  -2  -1   5    6.80    0.36
  -2  -1   6   -0.37    0.18
  -2  -1   7   -0.11    0.21
  -2  -1   8  145.69    3.23
  -2  -1   9   -0.04    0.25
  -2  -1  10   -0.58    0.26
  -2  -1  11   10.99    0.54
  -2  -1  12   -0.20    0.28
  -2  -1  13    0.01    0.30
  -2  -1  14  328.56    3.85
  -2  -1  15    0.06    0.38
  -2  -1  16    0.27    0.46
  -2  -1  17    1.07    0.72
  -2  -1  18    0.29    0.44
  -2  -1  19    0.23    0.45
  -2  -1  20  121.32    2.98
  -2  -1  21    0.31    0.44
  -2  -1  22   -0.71    0.33
  -2  -2  21   -0.09    0.72
  -2  -2  20   -0.61    0.40
  -2  -2  19   -0.21    0.40
  -2  -2  18   51.01    2.01
  -2  -2  17    0.12    0.42
  -2  -2  16   -0.20    0.40
  -2  -2  15   11.46    1.09
  -2  -2  14   -0.11    0.42
  -2  -2  13   -0.05    0.27
  -2  -2  12   17.06    0.74
  -2  -2  11    0.20    0.27
  -2  -2  10    0.02    0.32
  -2  -2   9   19.43    0.68
  -2  -2   8   -0.18    0.25
  -2  -2   7    0.13    0.29
  -2  -2   6  400.75    4.77
  -2  -2   5   -0.03    0.21
  -2  -2   4    0.08    0.25
  -2  -2   3   27.40    1.36
  -2  -2   2    0.02    0.25
  -2  -2   1    0.11    0.21
  -2  -3   1   -0.24    0.28
  -2  -3   2   -0.05    0.32
  -2  -3   3    0.03    0.20
  -2  -3   4  390.02    4.21
  -2  -3   5    0.00    0.31
  -2  -3   6   -0.29    0.28
  -2  -3   7    0.19    0.45
  -2  -3   8    0.07    0.32
  -2  -3   9    0.05    0.36
  -2  -3  10  219.70    2.90
  -2  -3  11   -0.18    0.39
  -2  -3  12   -0.22    0.32
  -2  -3  13    0.00    0.37
  -2  -3  14   -0.55    0.33
  -2  -3  15   -0.46    0.42
  -2  -3  16   62.64    2.13
  -2  -3  17   -0.36    0.40
  -2  -3  18   -0.19    0.37
  -2  -3  19   -0.19    0.44
  -2  -4  17    5.03    0.94
  -2  -4  16    0.48    0.52
  -2  -4  15    0.02    0.46
  -2  -4  14  165.62    3.29
  -2  -4  13   -0.01    0.41
  -2  -4  12    0.03    0.37
  -2  -4  11    7.11    0.77
  -2  -4  10    0.00    0.35
  -2  -4   9   -0.06    0.38
  -2  -4   8   52.45    1.66
  -2  -4   7    0.11    0.33
  -2  -4   6    0.01    0.30
  -2  -4   5    7.10    0.67
  -2  -4   4   -0.21    0.27
  -2  -4   3   -0.44    0.26
  -2  -4   2   12.14    0.52
  -2  -4   1   -0.01    0.21
  -2  -5   1   -0.08    0.34
  -2  -5   2    0.55    0.46
  -2  -5   3    3.98    0.62
  -2  -5   4    0.09    0.36
  -2  -5   5    0.11    0.32
  -2  -5   6  124.76    2.59
  -2  -5   7    0.01    0.37
  -2  -5   8    0.33    0.46
  -2  -5   9    1.44    0.65
  -2  -5  10    0.46    0.48
  -2  -5  11   -0.17    0.38
  -2  -5  12    3.65    0.91
  -2  -5  13    0.04    0.40
  -2  -6   6   -0.45    0.41
  -2  -6   5    0.22    0.50
  -2  -6   4  137.72    2.96
  -2  -6   3    0.07    0.44
  -2  -6   2   -0.31    0.36
  -2  -6   1    0.76    0.57
  -2  -6   0    0.53    0.57
  -2  -6  -1   -0.25    0.37
  -2  -6  -2    2.57    0.79
  -2  -6  -3    0.29    0.48
  -2  -6  -4    0.29    0.41
  -2  -6  -5    0.81    0.74
  -2  -6  -6   -0.04    0.47
  -2  -5 -13    0.40    0.51
  -2  -5 -12    0.32    0.62
  -2  -5 -11   -0.50    0.36
  -2  -5 -10   -0.06    0.34
  -2  -5  -9    4.10    0.75
  -2  -5  -8   -0.18    0.36
  -2  -5  -7   -0.15    0.44
  -2  -5  -6  109.89    2.52
  -2  -5  -5    0.06    0.37
  -2  -5  -4   -0.26    0.28
  -2  -5  -3    4.58    0.72
  -2  -5  -2   -0.05    0.42
  -2  -5  -1   -0.14    0.42
  -2  -5   0  158.11    2.79
  -2  -4   0   -0.07    0.22
  -2  -4  -1    7.50    0.48
  -2  -4  -2   -0.17    0.28
  -2  -4  -3    0.20    0.45
  -2  -4  -4  254.68    3.15
  -2  -4  -5    0.20    0.34
  -2  -4  -6    0.09    0.33
  -2  -4  -7    7.59    0.75
  -2  -4  -8   -0.49    0.32
  -2  -4  -9    0.23    0.44
  -2  -4 -10  155.67    2.92
  -2  -4 -11    0.08    0.42
  -2  -4 -12    0.29    0.50
  -2  -4 -13    4.73    0.81
  -2  -4 -14    0.46    0.50
  -2  -4 -15   -0.50    0.40
  -2  -4 -16   43.94    2.10
  -2  -4 -17   -0.06    0.45
  -2  -3 -19   -0.02    0.51
  -2  -3 -18   -0.06    0.43
  -2  -3 -17    0.49    0.66
  -2  -3 -16   -0.40    0.40
  -2  -3 -15    0.07    0.41
  -2  -3 -14  226.71    3.61
  -2  -3 -13    0.46    0.47
  -2  -3 -12    0.25    0.42
  -2  -3 -11    1.46    0.55
  -2  -3 -10    0.48    0.35
  -2  -3  -9    0.18    0.30
  -2  -3  -8   64.19    1.78
  -2  -3  -7   -0.22    0.30
  -2  -3  -6    0.01    0.34
  -2  -3  -5    0.51    0.25
  -2  -3  -4    0.04    0.21
  -2  -3  -3    0.05    0.29
  -2  -3  -2   11.50    0.52
  -2  -3  -1    0.57    0.23
  -2  -3   0   -0.16    0.35
  -2  -2   0  476.22    5.24
  -2  -2  -1   -0.05    0.21
  -2  -2  -2   -0.15    0.17
  -2  -2  -3   67.75    2.03
  -2  -2  -4   -0.05    0.22
  -2  -2  -5    0.14    0.23
  -2  -2  -6  359.46    4.56
  -2  -2  -7   -0.11    0.25
  -2  -2  -8    0.32    0.28
  -2  -2  -9   29.60    1.47
  -2  -2 -10   -0.10    0.25
  -2  -2 -11    0.17    0.30
  -2  -2 -12    3.39    0.43
  -2  -2 -13    0.27    0.41
  -2  -2 -14   -0.38    0.35
  -2  -2 -15   12.32    0.97
  -2  -2 -16    0.28    0.46
  -2  -2 -17   -0.04    0.42
  -2  -2 -18   85.31    2.49
  -2  -2 -19   -0.24    0.34
  -2  -2 -20   -0.17    0.46
  -2  -2 -21    9.00    1.18
  -2  -1 -22   17.74    1.29
  -2  -1 -21    0.00    0.50
  -2  -1 -20   -0.12    0.38
  -2  -1 -19   -0.14    0.42
  -2  -1 -18    0.20    0.49
  -2  -1 -17    0.47    0.45
  -2  -1 -16   81.50    2.17
  -2  -1 -15   -0.15    0.38
  -2  -1 -14    0.47    0.30
  -2  -1 -13    1.35    0.37
  -2  -1 -12   -0.42    0.38
  -2  -1 -11    0.30    0.28
  -2  -1 -10  410.13    5.12
  -2  -1  -9    0.37    0.28
  -2  -1  -8    0.38    0.28
  -2  -1  -7   13.64    0.61
  -2  -1  -6   -0.05    0.28
  -2  -1  -5   -0.18    0.19
  -2  -1  -4  724.20    6.55
  -2  -1  -3   -0.24    0.24
  -2  -1  -2    0.14    0.23
  -2  -1  -1    5.54    0.31
  -2  -1   0    0.05    0.20
  -2   0   0   -0.20    0.21
  -2   0  -1    0.15    0.15
  -2   0  -2   46.51    1.61
  -2   0  -3   -0.05    0.15
  -2   0  -4    0.10    0.18
  -2   0  -5    4.36    0.31
  -2   0  -6    0.27    0.20
  -2   0  -7    0.15    0.26
  -2   0  -8  175.73    3.66
  -2   0  -9    0.14    0.27
  -2   0 -10   -0.09    0.30
  -2   0 -11    0.43    0.46
  -2   0 -12    0.05    0.39
  -2   0 -13   -0.04    0.33
  -2   0 -14  397.81    4.73
  -2   0 -15   -0.10    0.31
  -2   0 -16    0.29    0.44
  -2   0 -17    0.46    0.56
  -2   0 -18    0.23    0.43
  -2   0 -19    0.16    0.44
  -2   0 -20  117.68    2.77
  -2   0 -21    0.35    0.58
  -2   0 -22   -0.17    0.50
  -2   0 -23    0.26    0.59
  -2   1 -23   -0.13    0.55
  -2   1 -22   -0.10    0.49
  -2   1 -21   15.72    1.19
  -2   1 -20    0.26    0.50
  -2   1 -19   -0.12    0.44
  -2   1 -18  113.85    2.61
  -2   1 -17   -0.36    0.44
  -2   1 -16    0.00    0.31
  -2   1 -15   23.69    0.83
  -2   1 -14    0.25    0.29
  -2   1 -13    0.10    0.30
  -2   1 -12    8.00    0.55
  -2   1 -11    0.14    0.32
  -2   1 -10    0.35    0.27
  -2   1  -9   92.42    2.83
  -2   1  -8    0.35    0.27
  -2   1  -7   -0.22    0.26
  -2   1  -6  774.17    7.89
  -2   1  -5   -0.22    0.21
  -2   1  -4    0.02    0.21
  -2   1  -3  309.37    4.63
  -2   1  -2   -0.17    0.22
  -2   1  -1   -0.14    0.15
  -2   1   0  765.64    6.48
  -2   2   0    0.24    0.16
  -2   2  -1   11.79    0.48
  -2   2  -2   -0.18    0.18
  -2   2  -3    0.01    0.14
  -2   2  -4  924.27    7.16
  -2   2  -5    0.43    0.24
  -2   2  -6    0.00    0.20
  -2   2  -7    0.32    0.20
  -2   2  -8   -0.02    0.28
  -2   2  -9    0.06    0.33
  -2   2 -10  518.08    5.99
  -2   2 -11   -0.23    0.26
  -2   2 -12   -0.02    0.37
  -2   2 -13    3.78    0.47
  -2   2 -14    0.79    0.31
  -2   2 -15   -0.56    0.30
  -2   2 -16   85.97    2.14
  -2   2 -17   -0.36    0.46
  -2   2 -18   -0.17    0.40
  -2   2 -19    1.02    0.87
  -2   2 -20    0.52    0.44
  -2   2 -21   -0.38    0.46
  -2   2 -22   15.16    1.43
  -2   2 -23    0.01    0.51
  -2   3 -22    0.44    0.48
  -2   3 -21    0.66    0.52
  -2   3 -20  129.52    3.04
  -2   3 -19    0.74    0.59
  -2   3 -18    0.07    0.40
  -2   3 -17    1.50    0.60
  -2   3 -16   -0.13    0.38
  -2   3 -15    0.04    0.38
  -2   3 -14  320.27    3.86
  -2   3 -13    0.09    0.42
  -2   3 -12   -0.58    0.29
  -2   3 -11    1.37    0.31
  -2   3 -10   -0.60    0.26
  -2   3  -9   -0.20    0.29
  -2   3  -8  174.49    3.35
  -2   3  -7   -0.24    0.19
  -2   3  -6    0.20    0.21
  -2   3  -5   11.77    0.49
  -2   3  -4    0.24    0.17
  -2   3  -3    0.03    0.18
  -2   3  -2   76.96    2.07
  -2   3  -1    0.12    0.18
  -2   3   0    0.09    0.21
  -2   4   0  469.65    5.13
  -2   4  -1   -0.34    0.22
  -2   4  -2    0.03    0.29
  -2   4  -3   64.51    2.03
  -2   4  -4    0.20    0.23
  -2   4  -5    0.59    0.24
  -2   4  -6  369.89    4.42
  -2   4  -7   -0.31    0.21
  -2   4  -8   -0.16    0.32
  -2   4  -9   32.60    1.40
  -2   4 -10    0.12    0.25
  -2   4 -11   -0.06    0.26
  -2   4 -12    3.60    0.42
  -2   4 -13   -0.15    0.24
  -2   4 -14    0.40    0.46
  -2   4 -15   12.56    0.99
  -2   4 -16    0.07    0.35
  -2   4 -17    0.09    0.40
  -2   4 -18   82.44    2.54
  -2   4 -19   -0.08    0.51
  -2   4 -20   -0.03    0.42
  -2   4 -21    6.82    1.05
  -2   5 -19    4.83    0.94
  -2   5 -18    0.68    0.57
  -2   5 -17   -0.32    0.40
  -2   5 -16   51.77    1.95
  -2   5 -15    0.57    0.49
  -2   5 -14   -0.22    0.44
  -2   5 -13    4.59    0.80
  -2   5 -12    0.04    0.44
  -2   5 -11   -0.25    0.31
  -2   5 -10  244.90    3.07
  -2   5  -9    0.08    0.26
  -2   5  -8    0.22    0.34
  -2   5  -7    6.18    0.41
  -2   5  -6    0.04    0.35
  -2   5  -5   -0.01    0.31
  -2   5  -4  365.79    4.08
  -2   5  -3    0.34    0.28
  -2   5  -2   -0.05    0.23
  -2   5  -1   12.83    0.52
  -2   5   0    0.17    0.34
  -2   6   0    0.30    0.24
  -2   6  -1   -0.01    0.29
  -2   6  -2   33.45    1.19
  -2   6  -3    0.13    0.32
  -2   6  -4   -0.33    0.28
  -2   6  -5    1.50    0.52
  -2   6  -6    0.02    0.33
  -2   6  -7    0.18    0.35
  -2   6  -8   82.12    1.97
  -2   6  -9   -0.34    0.32
  -2   6 -10    0.05    0.41
  -2   6 -11    0.29    0.55
  -2   6 -12   -0.14    0.49
  -2   6 -13    0.04    0.49
  -2   6 -14  148.03    3.13
  -2   6 -15    0.24    0.66
  -2   6 -16   -0.79    0.37
  -2   6 -17    0.95    0.60
  -2   7 -13    0.01    0.46
  -2   7 -12    0.74    0.51
  -2   7 -11    0.20    0.38
  -2   7 -10    0.13    0.40
  -2   7  -9    7.65    0.88
  -2   7  -8   -0.31    0.32
  -2   7  -7   -0.25    0.34
  -2   7  -6  103.19    2.38
  -2   7  -5    0.05    0.33
  -2   7  -4    0.12    0.41
  -2   7  -3    4.58    0.85
  -2   7  -2   -0.12    0.37
  -2   7  -1   -0.39    0.32
  -2   7   0  173.65    2.95
  -2   8   0    0.88    0.51
  -2   8  -1    3.70    0.82
  -2   8  -2   -0.06    0.41
  -2   8  -3    0.31    0.62
  -2   8  -4  130.02    2.89
  -2   8  -5    0.00    0.43
  -2   8  -6   -0.39    0.31
  -1  -6  11    0.24    0.56
  -1  -6  10   -0.12    0.38
  -1  -6   9   -0.01    0.41
  -1  -6   8   77.37    2.27
  -1  -6   7    0.26    0.43
  -1  -6   6   -0.17    0.33
  -1  -6   5    0.33    0.46
  -1  -6   4    0.35    0.39
  -1  -6   3    0.00    0.37
  -1  -6   2   34.85    1.48
  -1  -6   1   -0.29    0.30
  -1  -5   1    5.79    0.61
  -1  -5   2    0.10    0.37
  -1  -5   3   -0.17    0.32
  -1  -5   4  197.78    2.80
  -1  -5   5    0.08    0.38
  -1  -5   6   -0.13    0.31
  -1  -5   7    3.03    0.71
  -1  -5   8    0.13    0.40
  -1  -5   9   -0.34    0.27
  -1  -5  10  183.88    3.06
  -1  -5  11    0.74    0.49
  -1  -5  12   -0.59    0.33
  -1  -5  13    1.98    0.57
  -1  -5  14    0.54    0.47
  -1  -5  15   -0.22    0.34
  -1  -5  16   30.00    1.69
  -1  -4  18   77.39    2.50
  -1  -4  17    0.46    0.51
  -1  -4  16   -0.39    0.43
  -1  -4  15    7.12    0.87
  -1  -4  14    0.16    0.40
  -1  -4  13    0.19    0.42
  -1  -4  12    2.02    0.78
  -1  -4  11   -0.13    0.23
  -1  -4  10   -0.16    0.30
  -1  -4   9   18.05    0.92
  -1  -4   8   -0.11    0.28
  -1  -4   7   -0.06    0.26
  -1  -4   6  211.24    2.98
  -1  -4   5   -0.03    0.27
  -1  -4   4   -0.15    0.26
  -1  -4   3   25.35    1.19
  -1  -4   2    0.02    0.24
  -1  -4   1    0.09    0.23
  -1  -3   1    0.29    0.28
  -1  -3   2   98.48    2.44
  -1  -3   3    0.17    0.28
  -1  -3   4   -0.25    0.27
  -1  -3   5    1.89    0.34
  -1  -3   6   -0.11    0.25
  -1  -3   7    0.18    0.33
  -1  -3   8  183.82    3.08
  -1  -3   9   -0.07    0.30
  -1  -3  10   -0.41    0.30
  -1  -3  11    0.36    0.25
  -1  -3  12   -0.32    0.31
  -1  -3  13    0.27    0.36
  -1  -3  14  206.41    3.14
  -1  -3  15   -0.14    0.40
  -1  -3  16   -0.28    0.38
  -1  -3  17    0.69    0.56
  -1  -3  18    0.02    0.45
  -1  -3  19    0.42    0.49
  -1  -3  20  136.49    3.16
  -1  -2  22    9.02    1.20
  -1  -2  21    0.36    0.39
  -1  -2  20    0.38    0.45
  -1  -2  19    2.44    0.94
  -1  -2  18    0.27    0.47
  -1  -2  17   -0.38    0.30
  -1  -2  16   68.02    1.89
  -1  -2  15    0.04    0.33
  -1  -2  14    0.15    0.42
  -1  -2  13    2.78    0.38
  -1  -2  12   -0.05    0.32
  -1  -2  11    0.68    0.27
  -1  -2  10  501.05    5.41
  -1  -2   9   -0.33    0.23
  -1  -2   8   -0.13    0.21
  -1  -2   7    1.35    0.25
  -1  -2   6    0.07    0.20
  -1  -2   5   -0.10    0.27
  -1  -2   4  608.21    5.92
  -1  -2   3   -0.22    0.27
  -1  -2   2    0.12    0.16
  -1  -2   1   18.27    0.73
  -1  -1   1    0.24    0.15
  -1  -1   2   -0.27    0.14
  -1  -1   3  285.79    3.75
  -1  -1   4    0.01    0.15
  -1  -1   5    0.20    0.30
  -1  -1   6  736.21    6.79
  -1  -1   7   -0.42    0.18
  -1  -1   8   -0.20    0.19
  -1  -1   9   86.73    2.56
  -1  -1  10   -0.12    0.22
  -1  -1  11    0.27    0.28
  -1  -1  12    6.66    0.56
  -1  -1  13   -0.24    0.28
  -1  -1  14   -0.08    0.31
  -1  -1  15   23.02    0.78
  -1  -1  16    0.25    0.28
  -1  -1  17    0.08    0.31
  -1  -1  18  115.32    2.52
  -1  -1  19    0.33    0.40
  -1  -1  20    0.09    0.43
  -1  -1  21   18.13    1.34
  -1  -1  22    0.05    0.39
  -1  -1  23    0.05    0.47
  -1   0  23    0.11    0.43
  -1   0  22    0.24    0.43
  -1   0  21    0.49    0.79
  -1   0  20  151.71    3.09
  -1   0  19    0.39    0.45
  -1   0  18    0.93    0.46
  -1   0  17    0.71    0.44
  -1   0  16   -0.28    0.29
  -1   0  15    0.46    0.37
  -1   0  14  403.30    4.86
  -1   0  13    0.15    0.31
  -1   0  12    0.05    0.23
  -1   0  11    3.02    0.37
  -1   0  10    0.10    0.23
  -1   0   9    0.10    0.23
  -1   0   8  337.58    5.05
  -1   0   7    0.06    0.22
  -1   0   6    0.05    0.19
  -1   0   5    0.13    0.20
  -1   0   4   -0.18    0.16
  -1   0   3   -0.12    0.13
  -1   0   2  192.59    2.65
  -1   0   1   -0.01    0.10
  -1   1   1    0.18    0.13
  -1   1   2   -0.10    0.14
  -1   1   3    0.09    0.16
  -1   1   4  916.29    7.16
  -1   1   5    0.00    0.21
  -1   1   6   -0.03    0.20
  -1   1   7    9.22    0.47
  -1   1   8    0.01    0.25
  -1   1   9   -0.40    0.30
  -1   1  10  727.16    7.62
  -1   1  11   -0.38    0.31
  -1   1  12    0.33    0.27
  -1   1  13    0.42    0.32
  -1   1  14   -0.24    0.39
  -1   1  15   -0.03    0.32
  -1   1  16   75.20    1.95
  -1   1  17   -0.07    0.42
  -1   1  18    0.39    0.42
  -1   1  19    0.26    0.39
  -1   1  20    0.39    0.49
  -1   1  21    0.14    0.46
  -1   1  22   11.53    1.05
  -1   1  23    0.21    0.53
  -1   2  23   -0.42    0.39
  -1   2  22    0.59    0.50
  -1   2  21   16.79    1.31
  -1   2  20    0.06    0.35
  -1   2  19    0.47    0.46
  -1   2  18  114.01    2.48
  -1   2  17   -0.13    0.39
  -1   2  16    0.29    0.29
  -1   2  15   22.92    0.79
  -1   2  14    0.04    0.25
  -1   2  13    0.08    0.41
  -1   2  12   13.67    0.62
  -1   2  11    0.09    0.25
  -1   2  10    0.04    0.25
  -1   2   9   86.74    2.66
  -1   2   8    0.39    0.26
  -1   2   7    0.30    0.24
  -1   2   6  733.00    7.21
  -1   2   5    0.01    0.18
  -1   2   4   -0.07    0.19
  -1   2   3  282.38    3.90
  -1   2   2    0.12    0.17
  -1   2   1   -0.10    0.12
  -1   3   1   -0.21    0.19
  -1   3   2   37.43    1.58
  -1   3   3    0.09    0.16
  -1   3   4   -0.11    0.27
  -1   3   5    8.07    0.45
  -1   3   6   -0.36    0.24
  -1   3   7   -0.04    0.23
  -1   3   8  145.88    3.18
  -1   3   9   -0.03    0.26
  -1   3  10    0.04    0.35
  -1   3  11    9.40    0.53
  -1   3  12   -0.30    0.40
  -1   3  13    0.27    0.27
  -1   3  14  334.14    3.96
  -1   3  15   -0.08    0.30
  -1   3  16    0.04    0.38
  -1   3  17    0.67    0.68
  -1   3  18   -0.19    0.29
  -1   3  19   -0.13    0.37
  -1   3  20  126.69    2.86
  -1   3  21    0.37    0.48
  -1   3  22    0.20    0.47
  -1   4  20   -0.22    0.38
  -1   4  19    0.42    0.65
  -1   4  18    0.30    0.46
  -1   4  17   -0.23    0.38
  -1   4  16   51.54    1.94
  -1   4  15   -0.07    0.32
  -1   4  14    0.13    0.32
  -1   4  13    1.62    0.69
  -1   4  12    0.17    0.28
  -1   4  11    0.14    0.45
  -1   4  10  346.28    4.15
  -1   4   9    0.00    0.27
  -1   4   8   -0.09    0.27
  -1   4   7   12.18    0.54
  -1   4   6    0.18    0.27
  -1   4   5   -0.27    0.20
  -1   4   4  419.03    4.83
  -1   4   3   -0.33    0.25
  -1   4   2   -0.11    0.20
  -1   4   1    3.88    0.32
  -1   5   1    0.18    0.21
  -1   5   2    0.14    0.21
  -1   5   3   23.15    1.16
  -1   5   4   -0.10    0.30
  -1   5   5   -0.14    0.27
  -1   5   6  222.25    3.19
  -1   5   7   -0.17    0.25
  -1   5   8    0.11    0.27
  -1   5   9   14.67    0.91
  -1   5  10    0.17    0.37
  -1   5  11    0.22    0.47
  -1   5  12    1.90    0.59
  -1   5  13   -0.17    0.34
  -1   5  14   -0.05    0.31
  -1   5  15    6.64    0.95
  -1   5  16   -0.30    0.38
  -1   5  17    0.16    0.45
  -1   5  18   70.87    2.31
  -1   6  16   -0.15    0.37
  -1   6  15    0.72    0.55
  -1   6  14  166.28    3.42
  -1   6  13   -0.28    0.29
  -1   6  12   -0.23    0.41
  -1   6  11    4.18    0.97
  -1   6  10    0.20    0.42
  -1   6   9   -0.02    0.42
  -1   6   8   43.74    1.54
  -1   6   7    0.14    0.34
  -1   6   6   -0.02    0.26
  -1   6   5    5.15    0.70
  -1   6   4   -0.40    0.31
  -1   6   3    0.04    0.42
  -1   6   2    6.45    0.64
  -1   6   1    0.11    0.26
  -1   7   1    3.12    0.61
  -1   7   2   -0.21    0.38
  -1   7   3    0.39    0.41
  -1   7   4  137.08    2.89
  -1   7   5   -0.17    0.36
  -1   7   6    0.39    0.39
  -1   7   7    2.23    0.63
  -1   7   8   -0.19    0.34
  -1   7   9   -0.21    0.43
  -1   7  10  120.43    2.93
  -1   7  11   -0.02    0.49
  -1   7 -11    0.70    0.66
  -1   7 -10    0.18    0.44
  -1   7  -9    0.12    0.49
  -1   7  -8   41.97    1.75
  -1   7  -7   -0.42    0.34
  -1   7  -6   -0.31    0.40
  -1   7  -5    3.87    0.89
  -1   7  -4    0.08    0.35
  -1   7  -3    0.52    0.49
  -1   7  -2    9.41    0.88
  -1   7  -1    0.18    0.33
  -1   7   0    0.19    0.30
  -1   6   0   -0.12    0.29
  -1   6  -1    3.93    0.72
  -1   6  -2    0.18    0.36
  -1   6  -3    0.06    0.35
  -1   6  -4  238.84    3.14
  -1   6  -5    0.23    0.33
  -1   6  -6    0.05    0.32
  -1   6  -7    5.46    0.76
  -1   6  -8   -0.24    0.29
  -1   6  -9    0.27    0.37
  -1   6 -10  139.79    2.79
  -1   6 -11    0.08    0.40
  -1   6 -12   -0.73    0.33
  -1   6 -13    4.70    0.97
  -1   6 -14   -0.31    0.32
  -1   6 -15   -0.37    0.40
  -1   6 -16   54.85    2.21
  -1   5 -18   47.77    2.08
  -1   5 -17    0.23    0.50
  -1   5 -16   -0.05    0.46
  -1   5 -15    4.94    0.77
  -1   5 -14    1.09    0.61
  -1   5 -13    0.16    0.37
  -1   5 -12    8.34    0.80
  -1   5 -11    0.12    0.33
  -1   5 -10   -0.19    0.25
  -1   5  -9    6.45    0.75
  -1   5  -8    0.04    0.25
  -1   5  -7   -0.35    0.31
  -1   5  -6  250.19    3.19
  -1   5  -5   -0.34    0.24
  -1   5  -4    0.12    0.24
  -1   5  -3   10.81    0.51
  -1   5  -2   -0.01    0.28
  -1   5  -1    0.18    0.23
  -1   5   0  305.19    3.70
  -1   4   0   -0.13    0.21
  -1   4  -1   -0.33    0.25
  -1   4  -2   53.72    1.74
  -1   4  -3    0.45    0.28
  -1   4  -4    0.23    0.20
  -1   4  -5    3.78    0.37
  -1   4  -6    0.39    0.23
  -1   4  -7    0.04    0.28
  -1   4  -8  136.22    2.60
  -1   4  -9    0.01    0.24
  -1   4 -10   -0.12    0.29
  -1   4 -11    6.07    0.50
  -1   4 -12   -0.30    0.35
  -1   4 -13    0.17    0.38
  -1   4 -14  237.77    3.30
  -1   4 -15   -0.39    0.40
  -1   4 -16    0.01    0.36
  -1   4 -17   -0.06    0.56
  -1   4 -18   -0.11    0.42
  -1   4 -19    0.32    0.63
  -1   4 -20  122.98    3.03
  -1   3 -22   22.24    1.49
  -1   3 -21   -0.94    0.29
  -1   3 -20   -0.29    0.38
  -1   3 -19    0.90    0.54
  -1   3 -18    0.34    0.57
  -1   3 -17   -0.23    0.41
  -1   3 -16   80.32    2.00
  -1   3 -15   -0.10    0.40
  -1   3 -14    0.25    0.35
  -1   3 -13    1.12    0.42
  -1   3 -12   -0.10    0.24
  -1   3 -11   -0.77    0.24
  -1   3 -10  416.54    4.95
  -1   3  -9    0.21    0.23
  -1   3  -8   -0.03    0.24
  -1   3  -7   13.19    0.53
  -1   3  -6   -0.16    0.24
  -1   3  -5    0.04    0.19
  -1   3  -4  741.90    6.50
  -1   3  -3   -0.12    0.21
  -1   3  -2   -0.03    0.18
  -1   3  -1    5.83    0.30
  -1   3   0   -0.12    0.16
  -1   2   0  744.29    5.58
  -1   2  -1   -0.07    0.14
  -1   2  -2    0.13    0.14
  -1   2  -3  161.36    2.85
  -1   2  -4   -0.15    0.17
  -1   2  -5   -0.16    0.21
  -1   2  -6  864.47    7.34
  -1   2  -7   -0.10    0.23
  -1   2  -8    0.05    0.23
  -1   2  -9   55.91    2.04
  -1   2 -10    0.27    0.27
  -1   2 -11   -0.13    0.25
  -1   2 -12   30.38    1.50
  -1   2 -13    0.10    0.28
  -1   2 -14   -0.13    0.42
  -1   2 -15   22.97    0.77
  -1   2 -16   -0.24    0.43
  -1   2 -17    0.15    0.46
  -1   2 -18   64.56    1.97
  -1   2 -19   -0.12    0.39
  -1   2 -20   -0.48    0.39
  -1   2 -21    3.05    0.87
  -1   2 -22    0.05    0.40
  -1   2 -23   -0.38    0.45
  -1   1 -23    0.39    0.52
  -1   1 -22   -0.05    0.40
  -1   1 -21   -0.46    0.72
  -1   1 -20  153.39    3.16
  -1   1 -19   -0.25    0.42
  -1   1 -18    0.16    0.45
  -1   1 -17   -0.25    0.40
  -1   1 -16   -0.17    0.35
  -1   1 -15    0.81    0.52
  -1   1 -14  390.99    4.85
  -1   1 -13   -0.40    0.27
  -1   1 -12   -0.20    0.46
  -1   1 -11    3.20    0.36
  -1   1 -10    0.22    0.22
  -1   1  -9    0.13    0.21
  -1   1  -8  345.15    5.10
  -1   1  -7    0.14    0.22
  -1   1  -6   -0.23    0.19
  -1   1  -5    0.17    0.19
  -1   1  -4    0.02    0.16
  -1   1  -3   -0.16    0.14
  -1   1  -2  194.41    2.59
  -1   1  -1   -0.01    0.10
  -1   1   0    0.22    0.11
  -1   0   0    0.06    0.10
  -1   0  -1    0.13    0.11
  -1   0  -2    0.02    0.11
  -1   0  -3   -0.10    0.16
  -1   0  -4  935.83    7.02
  -1   0  -5    0.07    0.19
  -1   0  -6    0.06    0.23
  -1   0  -7    8.17    0.43
  -1   0  -8   -0.26    0.29
  -1   0  -9   -0.10    0.34
  -1   0 -10  732.52    7.55
  -1   0 -11    0.07    0.25
  -1   0 -12   -0.15    0.33
  -1   0 -13    0.01    0.29
  -1   0 -14   -0.06    0.35
  -1   0 -15   -0.19    0.40
  -1   0 -16   73.64    1.97
  -1   0 -17    0.06    0.40
  -1   0 -18    0.15    0.43
  -1   0 -19    0.25    0.46
  -1   0 -20   -0.30    0.49
  -1   0 -21   -0.10    0.36
  -1   0 -22   10.12    1.07
  -1   0 -23   -0.66    0.39
  -1  -1 -23    0.05    0.63
  -1  -1 -22    0.35    0.49
  -1  -1 -21    3.31    0.81
  -1  -1 -20    0.19    0.36
  -1  -1 -19   -0.12    0.43
  -1  -1 -18   63.32    1.95
  -1  -1 -17    0.12    0.42
  -1  -1 -16    0.14    0.28
  -1  -1 -15   23.65    0.87
  -1  -1 -14   -0.08    0.26
  -1  -1 -13    0.01    0.24
  -1  -1 -12   29.80    1.08
  -1  -1 -11   -0.49    0.30
  -1  -1 -10   -0.14    0.26
  -1  -1  -9   55.26    2.14
  -1  -1  -8   -0.18    0.27
  -1  -1  -7    0.33    0.21
  -1  -1  -6  825.38    7.28
  -1  -1  -5    0.18    0.17
  -1  -1  -4    0.40    0.27
  -1  -1  -3  145.74    2.78
  -1  -1  -2    0.14    0.14
  -1  -1  -1    0.13    0.13
  -1  -1   0  794.16    5.82
  -1  -2   0    0.28    0.18
  -1  -2  -1    0.23    0.19
  -1  -2  -2   73.49    2.18
  -1  -2  -3   -0.06    0.16
  -1  -2  -4   -0.37    0.20
  -1  -2  -5   10.53    0.44
  -1  -2  -6    0.36    0.21
  -1  -2  -7   -0.19    0.28
  -1  -2  -8  178.88    3.47
  -1  -2  -9    0.09    0.34
  -1  -2 -10   -0.09    0.26
  -1  -2 -11    0.93    0.32
  -1  -2 -12   -0.19    0.26
  -1  -2 -13   -0.07    0.30
  -1  -2 -14  312.67    3.91
  -1  -2 -15    0.32    0.35
  -1  -2 -16   -0.21    0.33
  -1  -2 -17    1.58    0.49
  -1  -2 -18    0.07    0.37
  -1  -2 -19    0.01    0.42
  -1  -2 -20  106.83    2.80
  -1  -2 -21   -0.24    0.34
  -1  -2 -22   -0.60    0.37
  -1  -3 -21   -0.18    0.50
  -1  -3 -20   -0.55    0.39
  -1  -3 -19    0.21    0.36
  -1  -3 -18   -0.69    0.29
  -1  -3 -17    0.32    0.44
  -1  -3 -16   24.79    1.34
  -1  -3 -15   -0.12    0.42
  -1  -3 -14   -0.10    0.33
  -1  -3 -13    0.79    0.42
  -1  -3 -12   -0.16    0.27
  -1  -3 -11    0.20    0.32
  -1  -3 -10  425.54    4.53
  -1  -3  -9   -0.16    0.27
  -1  -3  -8   -0.01    0.26
  -1  -3  -7    0.14    0.23
  -1  -3  -6   -0.13    0.21
  -1  -3  -5   -0.12    0.24
  -1  -3  -4  311.60    4.15
  -1  -3  -3   -0.02    0.34
  -1  -3  -2    0.26    0.24
  -1  -3  -1    2.28    0.34
  -1  -3   0    0.11    0.20
  -1  -4   0  316.98    3.77
  -1  -4  -1    0.28    0.25
  -1  -4  -2    0.25    0.24
  -1  -4  -3   12.60    0.60
  -1  -4  -4    0.00    0.24
  -1  -4  -5   -0.11    0.29
  -1  -4  -6  238.86    3.24
  -1  -4  -7   -0.17    0.34
  -1  -4  -8   -0.11    0.27
  -1  -4  -9    8.16    0.75
  -1  -4 -10    0.35    0.40
  -1  -4 -11   -0.49    0.33
  -1  -4 -12    6.38    0.77
  -1  -4 -13   -0.24    0.40
  -1  -4 -14    0.00    0.40
  -1  -4 -15    6.33    0.88
  -1  -4 -16    0.21    0.39
  -1  -4 -17    0.85    0.56
  -1  -4 -18   53.37    2.09
  -1  -5 -16   -0.09    0.54
  -1  -5 -15   -0.01    0.39
  -1  -5 -14  175.17    3.45
  -1  -5 -13   -0.25    0.42
  -1  -5 -12    0.27    0.53
  -1  -5 -11    3.37    0.88
  -1  -5 -10    0.32    0.49
  -1  -5  -9   -0.29    0.35
  -1  -5  -8   48.15    1.69
  -1  -5  -7   -0.14    0.32
  -1  -5  -6    0.20    0.39
  -1  -5  -5    4.77    0.69
  -1  -5  -4    0.06    0.32
  -1  -5  -3    0.05    0.29
  -1  -5  -2    9.77    0.82
  -1  -5  -1   -0.13    0.33
  -1  -5   0   -0.47    0.31
  -1  -6   0   -0.41    0.30
  -1  -6  -1    0.37    0.36
  -1  -6  -2    0.10    0.41
  -1  -6  -3   -0.18    0.39
  -1  -6  -4   83.69    2.26
  -1  -6  -5   -0.11    0.32
  -1  -6  -6    0.57    0.50
  -1  -6  -7    0.99    0.50
  -1  -6  -8    0.50    0.43
  -1  -6  -9    0.04    0.34
  -1  -6 -10  195.37    3.61
  -1  -6 -11    0.15    0.48
   0   7   1   -0.17    0.29
   0   7   2   31.64    1.56
   0   7   3   -0.33    0.34
   0   7   4   -0.07    0.38
   0   7   5    0.00    0.40
   0   7   6   -0.53    0.28
   0   7   7    0.29    0.45
   0   7   8   71.27    2.38
   0   6  14    0.75    0.57
   0   6  13    0.12    0.37
   0   6  12    2.44    0.77
   0   6  11   -0.41    0.37
   0   6  10   -0.27    0.34
   0   6   9    0.20    0.40
   0   6   8   -0.03    0.33
   0   6   7    0.04    0.39
   0   6   6   52.59    1.81
   0   6   5   -0.36    0.29
   0   6   4   -0.14    0.26
   0   6   3    0.34    0.39
   0   6   2    0.25    0.41
   0   6   1    0.27    0.37
   0   5   1    5.42    0.40
   0   5   2   -0.05    0.29
   0   5   3    0.15    0.26
   0   5   4  300.21    3.39
   0   5   5    0.12    0.29
   0   5   6   -0.43    0.30
   0   5   7    2.09    0.48
   0   5   8    0.19    0.30
   0   5   9    0.39    0.43
   0   5  10  179.74    3.01
   0   5  11    0.39    0.43
   0   5  12   -0.15    0.33
   0   5  13    0.27    0.61
   0   5  14   -0.39    0.37
   0   5  15    0.46    0.46
   0   5  16   51.00    2.05
   0   5  17   -0.16    0.44
   0   4  20  137.04    3.18
   0   4  19    0.28    0.54
   0   4  18    0.04    0.48
   0   4  17   -0.29    0.35
   0   4  16   -0.15    0.35
   0   4  15    0.04    0.40
   0   4  14  164.83    3.04
   0   4  13    0.12    0.36
   0   4  12    0.01    0.32
   0   4  11    0.07    0.29
   0   4  10   -0.25    0.25
   0   4   9   -0.04    0.35
   0   4   8  167.91    2.83
   0   4   7   -0.23    0.31
   0   4   6    0.21    0.24
   0   4   5   -0.07    0.34
   0   4   4    0.31    0.24
   0   4   3   -0.09    0.32
   0   4   2   79.96    2.10
   0   4   1   -0.24    0.20
   0   3   1   -0.02    0.16
   0   3   2   -0.08    0.18
   0   3   3    1.03    0.27
   0   3   4   -0.39    0.18
   0   3   5    0.10    0.19
   0   3   6  112.95    2.72
   0   3   7    0.11    0.24
   0   3   8   -0.09    0.30
   0   3   9    1.46    0.31
   0   3  10   -0.33    0.28
   0   3  11   -0.14    0.32
   0   3  12   25.62    0.81
   0   3  13   -0.08    0.31
   0   3  14   -0.18    0.26
   0   3  15    3.16    0.70
   0   3  16   -0.04    0.37
   0   3  17    0.16    0.38
   0   3  18  184.09    3.44
   0   3  19   -0.60    0.35
   0   3  20    0.59    0.50
   0   3  21    0.75    0.61
   0   2  23   -0.45    0.29
   0   2  22   13.45    1.37
   0   2  21    0.55    0.45
   0   2  20    0.20    0.35
   0   2  19    0.35    0.56
   0   2  18   -0.18    0.34
   0   2  17    0.08    0.38
   0   2  16   86.35    2.10
   0   2  15    0.08    0.25
   0   2  14   -0.38    0.29
   0   2  13    2.26    0.38
   0   2  12    0.23    0.30
   0   2  11   -0.05    0.37
   0   2  10  502.39    5.77
   0   2   9   -0.26    0.25
   0   2   8    0.05    0.20
   0   2   7    0.07    0.28
   0   2   6   -0.07    0.19
   0   2   5    0.03    0.26
   0   2   4  853.75    7.13
   0   2   3    0.15    0.19
   0   2   2    0.00    0.16
   0   2   1   12.69    0.47
   0   1   1    0.32    0.16
   0   1   2  194.96    2.68
   0   1   3   -0.22    0.13
   0   1   4    0.09    0.15
   0   1   5    0.12    0.19
   0   1   6   -0.04    0.18
   0   1   7   -0.14    0.22
   0   1   8  337.38    5.12
   0   1   9    0.00    0.35
   0   1  10   -0.01    0.38
   0   1  11    3.31    0.36
   0   1  12    0.21    0.42
   0   1  13    0.41    0.29
   0   1  14  391.97    4.79
   0   1  15   -0.70    0.28
   0   1  16    0.54    0.27
   0   1  17    0.33    0.43
   0   1  18    0.60    0.47
   0   1  19    0.61    0.47
   0   1  20  167.87    3.21
   0   1  21    0.15    0.41
   0   1  22    0.66    0.47
   0   1  23   -0.15    0.43
   0   0  23    0.65    0.63
   0   0  22    0.52    0.43
   0   0  21    1.05    0.67
   0   0  20   -0.05    0.39
   0   0  19    1.22    0.64
   0   0  18  275.71    3.65
   0   0  17   -0.17    0.38
   0   0  16   -0.19    0.33
   0   0  15    8.39    0.54
   0   0  14    0.60    0.28
   0   0  13    0.04    0.34
   0   0  12   66.68    2.29
   0   0  11   -0.08    0.27
   0   0  10   -0.18    0.25
   0   0   9    6.18    0.44
   0   0   8    0.76    0.24
   0   0   7   -0.26    0.18
   0   0   6   96.39    2.62
   0   0   5   -0.01    0.17
   0   0   4   -0.24    0.18
   0   0   3    0.38    0.15
   0   0   2   -0.12    0.10
   0  -1   1    0.17    0.12
   0  -1   2    0.18    0.13
   0  -1   3    0.01    0.11
   0  -1   4  888.06    6.39
   0  -1   5    0.06    0.17
   0  -1   6   -0.15    0.20
   0  -1   7    9.35    0.39
   0  -1   8   -0.02    0.30
   0  -1   9    0.00    0.19
   0  -1  10  707.86    7.26
   0  -1  11    0.39    0.28
   0  -1  12    0.06    0.30
   0  -1  13    0.42    0.27
   0  -1  14    0.12    0.34
   0  -1  15   -0.02    0.31
   0  -1  16   69.60    1.95
   0  -1  17   -0.12    0.31
   0  -1  18   -0.37    0.33
   0  -1  19   -0.31    0.46
   0  -1  20    0.19    0.48
   0  -1  21    0.25    0.50
   0  -1  22   13.38    1.17
   0  -1  23   -0.43    0.36
   0  -2  23    0.21    0.55
   0  -2  22   -0.07    0.42
   0  -2  21    0.30    0.43
   0  -2  20  125.70    2.84
   0  -2  19    0.73    0.51
   0  -2  18   -0.18    0.31
   0  -2  17    0.02    0.38
   0  -2  16   -0.40    0.34
   0  -2  15   -0.13    0.32
   0  -2  14  404.10    4.54
   0  -2  13   -0.55    0.23
   0  -2  12    0.13    0.27
   0  -2  11    0.90    0.27
   0  -2  10    0.16    0.25
   0  -2   9   -0.26    0.25
   0  -2   8  166.74    3.39
   0  -2   7   -0.28    0.17
   0  -2   6   -0.19    0.19
   0  -2   5    4.22    0.26
   0  -2   4    0.01    0.15
   0  -2   3    0.09    0.17
   0  -2   2   46.24    1.60
   0  -2   1    0.11    0.14
   0  -3   1    0.04    0.27
   0  -3   2    0.07    0.16
   0  -3   3    0.55    0.21
   0  -3   4    0.11    0.24
   0  -3   5    0.13    0.23
   0  -3   6  110.79    2.58
   0  -3   7    0.31    0.20
   0  -3   8   -0.16    0.20
   0  -3   9    1.32    0.40
   0  -3  10   -0.04    0.29
   0  -3  11    0.06    0.25
   0  -3  12   25.25    0.80
   0  -3  13    0.19    0.26
   0  -3  14    0.04    0.33
   0  -3  15    2.82    0.62
   0  -3  16    0.00    0.34
   0  -3  17   -0.34    0.27
   0  -3  18  187.18    3.40
   0  -3  19   -0.23    0.44
   0  -3  20   -0.05    0.39
   0  -3  21    0.53    0.58
   0  -4  20    0.48    0.50
   0  -4  19    0.19    0.47
   0  -4  18   -0.31    0.27
   0  -4  17    0.23    0.34
   0  -4  16   26.19    1.40
   0  -4  15    0.32    0.47
   0  -4  14   -0.16    0.33
   0  -4  13    0.78    0.53
   0  -4  12    0.00    0.34
   0  -4  11    0.26    0.30
   0  -4  10  377.39    3.95
   0  -4   9   -0.08    0.31
   0  -4   8   -0.03    0.22
   0  -4   7    4.44    0.43
   0  -4   6    0.01    0.25
   0  -4   5    0.28    0.20
   0  -4   4  273.33    3.72
   0  -4   3    0.34    0.23
   0  -4   2    0.23    0.21
   0  -4   1   -0.28    0.22
   0  -5   1    0.13    0.28
   0  -5   2    7.11    0.46
   0  -5   3    0.07    0.20
   0  -5   4    0.13    0.20
   0  -5   5    2.72    0.34
   0  -5   6   -0.54    0.22
   0  -5   7    0.18    0.29
   0  -5   8   44.58    1.41
   0  -5   9   -0.34    0.28
   0  -5  10   -0.52    0.24
   0  -5  11   -0.43    0.35
   0  -5  12   -0.10    0.33
   0  -5  13    0.44    0.43
   0  -5  14  223.34    3.65
   0  -5  15    0.17    0.49
   0  -5  16   -0.33    0.38
   0  -5  17    0.13    0.39
   0  -6  14    0.12    0.39
   0  -6  13   -0.10    0.40
   0  -6  12    4.14    0.97
   0  -6  11    0.33    0.44
   0  -6  10   -0.23    0.29
   0  -6   9    0.77    0.48
   0  -6   8   -0.07    0.32
   0  -6   7   -0.54    0.28
   0  -6   6   56.16    1.76
   0  -6   5   -0.45    0.32
   0  -6   4   -0.03    0.26
   0  -6   3    0.48    0.44
   0  -6   2   -0.14    0.33
   0  -6   1   -0.33    0.32
   0  -7   1   -0.33    0.30
   0  -7   2   -0.13    0.27
   0  -7   3    0.12    0.37
   0  -7   4   64.24    2.21
   0  -7   5    0.49    0.44
   0  -7   6    0.04    0.36
   0  -7   7   -0.21    0.39
   0  -7   8   -0.29    0.34
   0  -7  -8   60.53    2.27
   0  -7  -7   -0.15    0.36
   0  -7  -6   -0.08    0.40
   0  -7  -5    0.42    0.53
   0  -7  -4   -0.14    0.42
   0  -7  -3   -0.20    0.39
   0  -7  -2   33.58    1.52
   0  -7  -1    0.07    0.43
   0  -7   0    0.05    0.33
   0  -6   0  298.77    3.68
   0  -6  -1    0.09    0.32
   0  -6  -2   -0.13    0.32
   0  -6  -3    0.23    0.34
   0  -6  -4   -0.15    0.23
   0  -6  -5   -0.01    0.33
   0  -6  -6   52.23    1.74
   0  -6  -7    0.05    0.43
   0  -6  -8    0.01    0.54
   0  -6  -9    0.10    0.38
   0  -6 -10    0.14    0.46
   0  -6 -11    0.25    0.48
   0  -6 -12    4.13    0.80
   0  -6 -13    0.10    0.41
   0  -6 -14   -0.06    0.38
   0  -5 -17   -0.21    0.41
   0  -5 -16   48.79    2.00
   0  -5 -15   -0.56    0.46
   0  -5 -14   -0.33    0.38
   0  -5 -13    3.41    0.88
   0  -5 -12   -0.44    0.44
   0  -5 -11   -0.29    0.36
   0  -5 -10  178.76    2.94
   0  -5  -9   -0.18    0.30
   0  -5  -8    0.10    0.36
   0  -5  -7    1.10    0.55
   0  -5  -6    0.02    0.28
   0  -5  -5   -0.07    0.28
   0  -5  -4  285.78    3.33
   0  -5  -3    0.18    0.32
   0  -5  -2    0.14    0.26
   0  -5  -1    5.26    0.43
   0  -5   0    0.04    0.26
   0  -4   0    0.00    0.20
   0  -4  -1   -0.22    0.25
   0  -4  -2   82.60    2.11
   0  -4  -3    0.10    0.23
   0  -4  -4    0.41    0.27
   0  -4  -5    0.35    0.27
   0  -4  -6    0.07    0.25
   0  -4  -7    0.17    0.33
   0  -4  -8  162.23    2.84
   0  -4  -9    0.35    0.26
   0  -4 -10   -0.15    0.31
   0  -4 -11    0.29    0.25
   0  -4 -12    0.15    0.39
   0  -4 -13    0.27    0.37
   0  -4 -14  176.57    3.08
   0  -4 -15    0.35    0.39
   0  -4 -16   -0.01    0.41
   0  -4 -17   -0.07    0.36
   0  -4 -18    0.28    0.48
   0  -4 -19    0.60    0.49
   0  -4 -20  130.08    3.19
   0  -3 -21    1.16    0.60
   0  -3 -20   -0.07    0.43
   0  -3 -19   -0.16    0.43
   0  -3 -18  179.00    3.40
   0  -3 -17   -0.01    0.39
   0  -3 -16   -0.22    0.30
   0  -3 -15    2.96    0.69
   0  -3 -14   -0.08    0.32
   0  -3 -13   -0.09    0.28
   0  -3 -12   26.54    0.83
   0  -3 -11   -0.06    0.30
   0  -3 -10   -0.07    0.23
   0  -3  -9    0.97    0.34
   0  -3  -8    0.10    0.29
   0  -3  -7    0.28    0.26
   0  -3  -6  107.05    2.63
   0  -3  -5   -0.06    0.19
   0  -3  -4   -0.22    0.19
   0  -3  -3    0.48    0.23
   0  -3  -2   -0.13    0.23
   0  -3  -1    0.04    0.28
   0  -3   0 1198.90    8.43
   0  -2   0   -0.31    0.13
   0  -2  -1   12.05    0.45
   0  -2  -2   -0.04    0.16
   0  -2  -3    0.07    0.17
   0  -2  -4  897.68    7.02
   0  -2  -5    0.03    0.24
   0  -2  -6    0.12    0.19
   0  -2  -7   -0.33    0.18
   0  -2  -8   -0.05    0.20
   0  -2  -9   -0.21    0.22
   0  -2 -10  507.86    5.95
   0  -2 -11   -0.27    0.24
   0  -2 -12    0.43    0.25
   0  -2 -13    1.91    0.39
   0  -2 -14   -0.11    0.27
   0  -2 -15   -0.31    0.27
   0  -2 -16   83.97    1.99
   0  -2 -17   -0.10    0.38
   0  -2 -18   -0.69    0.33
   0  -2 -19    1.49    0.52
   0  -2 -20   -0.11    0.35
   0  -2 -21   -0.04    0.38
   0  -2 -22   15.83    1.29
   0  -2 -23    0.04    0.39
   0  -1 -23    0.97    0.53
   0  -1 -22    0.34    0.50
   0  -1 -21   -0.67    0.33
   0  -1 -20  157.26    3.10
   0  -1 -19    0.74    0.51
   0  -1 -18   -0.21    0.41
   0  -1 -17    0.00    0.42
   0  -1 -16   -0.37    0.33
   0  -1 -15   -0.33    0.27
   0  -1 -14  385.36    4.91
   0  -1 -13   -0.03    0.41
   0  -1 -12    0.36    0.29
   0  -1 -11    3.20    0.41
   0  -1 -10    0.33    0.23
   0  -1  -9    0.01    0.26
   0  -1  -8  331.92    5.08
   0  -1  -7   -0.30    0.22
   0  -1  -6    0.11    0.21
   0  -1  -5   -0.02    0.19
   0  -1  -4   -0.21    0.17
   0  -1  -3    0.04    0.13
   0  -1  -2  195.27    2.66
   0  -1  -1    0.15    0.16
   0  -1   0   -0.52    0.12
   0   0  -2   -0.15    0.11
   0   0  -3    0.39    0.15
   0   0  -4   -0.01    0.16
   0   0  -5   -0.21    0.21
   0   0  -6   98.12    2.67
   0   0  -7    0.18    0.23
   0   0  -8    0.12    0.25
   0   0  -9    6.27    0.40
   0   0 -10    0.24    0.22
   0   0 -11    0.31    0.31
   0   0 -12   61.10    2.26
   0   0 -13    0.02    0.39
   0   0 -14    0.22    0.32
   0   0 -15    7.64    0.51
   0   0 -16    0.25    0.34
   0   0 -17    0.02    0.43
   0   0 -18  265.60    3.67
   0   0 -19    0.61    0.65
   0   0 -20   -0.55    0.46
   0   0 -21    0.28    0.52
   0   0 -22   -0.37    0.34
   0   0 -23   -0.02    0.45
   0   1 -23    0.18    0.47
   0   1 -22    9.90    1.10
   0   1 -21    0.33    0.46
   0   1 -20   -0.54    0.39
   0   1 -19    0.35    0.56
   0   1 -18   -0.14    0.48
   0   1 -17   -0.46    0.33
   0   1 -16   74.05    1.94
   0   1 -15   -0.13    0.26
   0   1 -14   -0.43    0.28
   0   1 -13    0.04    0.29
   0   1 -12   -0.09    0.29
   0   1 -11   -0.09    0.30
   0   1 -10  715.31    7.29
   0   1  -9   -0.05    0.21
   0   1  -8    0.01    0.25
   0   1  -7    8.84    0.39
   0   1  -6    0.39    0.27
   0   1  -5   -0.08    0.16
   0   1  -4  914.22    6.36
   0   1  -3    0.07    0.12
   0   1  -2    0.10    0.12
   0   1  -1    0.11    0.12
   0   1   0   -0.26    0.11
   0   2   0    0.17    0.15
   0   2  -1    0.19    0.27
   0   2  -2   45.95    1.64
   0   2  -3    0.29    0.16
   0   2  -4    0.14    0.21
   0   2  -5    4.38    0.28
   0   2  -6    0.10    0.18
   0   2  -7    0.08    0.20
   0   2  -8  168.61    3.34
   0   2  -9    0.15    0.25
   0   2 -10   -0.15    0.36
   0   2 -11    0.60    0.31
   0   2 -12    0.56    0.29
   0   2 -13    0.32    0.28
   0   2 -14  406.27    4.52
   0   2 -15    0.46    0.28
   0   2 -16   -0.40    0.34
   0   2 -17    0.10    0.44
   0   2 -18    0.35    0.44
   0   2 -19    0.07    0.42
   0   2 -20  122.63    2.83
   0   2 -21   -0.22    0.45
   0   2 -22   -0.21    0.40
   0   2 -23    0.24    0.55
   0   3 -21    1.68    0.64
   0   3 -20    0.08    0.49
   0   3 -19   -0.40    0.40
   0   3 -18  183.23    3.39
   0   3 -17    0.24    0.45
   0   3 -16   -0.30    0.35
   0   3 -15    3.72    0.60
   0   3 -14   -0.15    0.28
   0   3 -13    0.22    0.27
   0   3 -12   27.16    1.34
   0   3 -11   -0.29    0.22
   0   3 -10    0.03    0.30
   0   3  -9    1.78    0.30
   0   3  -8    0.24    0.23
   0   3  -7   -0.35    0.20
   0   3  -6  112.04    2.59
   0   3  -5   -0.16    0.19
   0   3  -4   -0.07    0.25
   0   3  -3    0.43    0.19
   0   3  -2   -0.02    0.17
   0   3  -1   -0.01    0.15
   0   3   0 1272.14    8.39
   0   4   0    0.00    0.27
   0   4  -1    0.15    0.23
   0   4  -2    0.23    0.23
   0   4  -3   -0.01    0.30
   0   4  -4  272.54    3.65
   0   4  -5   -0.13    0.23
   0   4  -6    0.00    0.31
   0   4  -7    4.14    0.36
   0   4  -8   -0.25    0.22
   0   4  -9    0.00    0.32
   0   4 -10  381.62    3.93
   0   4 -11    0.05    0.26
   0   4 -12    0.08    0.43
   0   4 -13    0.44    0.65
   0   4 -14   -0.49    0.34
   0   4 -15   -0.21    0.35
   0   4 -16   26.78    1.49
   0   4 -17    0.23    0.42
   0   4 -18   -0.16    0.41
   0   4 -19    0.58    0.43
   0   4 -20    0.28    0.53
   0   5 -17    0.52    0.50
   0   5 -16   -0.53    0.37
   0   5 -15    0.07    0.52
   0   5 -14  199.71    3.53
   0   5 -13   -0.45    0.29
   0   5 -12    0.17    0.37
   0   5 -11    1.18    0.50
   0   5 -10   -0.19    0.26
   0   5  -9    0.19    0.37
   0   5  -8   43.82    1.38
   0   5  -7   -0.35    0.30
   0   5  -6   -0.29    0.29
   0   5  -5    2.81    0.38
   0   5  -4    0.30    0.31
   0   5  -3    0.13    0.22
   0   5  -2    7.50    0.43
   0   5  -1   -0.22    0.21
   0   5   0   -0.03    0.24
   0   6   0  302.12    3.66
   0   6  -1    0.00    0.34
   0   6  -2   -0.34    0.29
   0   6  -3    0.13    0.34
   0   6  -4    0.03    0.37
   0   6  -5    0.06    0.33
   0   6  -6   54.47    1.69
   0   6  -7    0.01    0.39
   0   6  -8   -0.22    0.41
   0   6  -9   -0.25    0.42
   0   6 -10    0.28    0.40
   0   6 -11   -0.08    0.37
   0   6 -12    2.68    0.70
   0   6 -13    0.72    0.43
   0   6 -14   -0.16    0.43
   0   7  -8    0.12    0.44
   0   7  -7    0.02    0.38
   0   7  -6    0.54    0.46
   0   7  -5   -0.08    0.41
   0   7  -4   72.35    2.19
   0   7  -3   -0.32    0.35
   0   7  -2    0.01    0.36
   0   7  -1   -0.30    0.42
   0   7   0   -0.14    0.33
   1  -7   1    0.11    0.32
   1  -7   2   10.18    0.99
   1  -7   3   -0.12    0.39
   1  -7   4    0.62    0.42
   1  -7   5    0.44    0.76
   1  -7   6   -0.19    0.29
   1  -7   7   -0.26    0.35
   1  -7   8   40.86    1.72
   1  -7   9    1.07    0.52
   1  -7  10    0.16    0.34
   1  -7  11    1.14    0.81
   1  -6  16   51.68    2.11
   1  -6  15    0.36    0.42
   1  -6  14    0.20    0.45
   1  -6  13    2.48    0.75
   1  -6  12   -0.09    0.40
   1  -6  11   -0.17    0.32
   1  -6  10  140.67    2.75
   1  -6   9    0.26    0.37
   1  -6   8   -0.18    0.34
   1  -6   7    5.48    0.62
   1  -6   6   -0.38    0.31
   1  -6   5   -0.20    0.29
   1  -6   4  235.12    3.03
   1  -6   3    0.09    0.39
   1  -6   2    0.21    0.29
   1  -6   1    5.91    0.64
   1  -5   1   -0.06    0.32
   1  -5   2   -0.22    0.21
   1  -5   3   12.46    0.57
   1  -5   4   -0.10    0.23
   1  -5   5    0.44    0.23
   1  -5   6  250.13    3.15
   1  -5   7    0.04    0.22
   1  -5   8   -0.07    0.27
   1  -5   9    9.20    0.72
   1  -5  10    0.43    0.30
   1  -5  11    0.01    0.26
   1  -5  12    9.07    0.77
   1  -5  13    0.06    0.40
   1  -5  14    0.05    0.33
   1  -5  15    5.91    0.90
   1  -5  16   -0.18    0.41
   1  -5  17    0.07    0.34
   1  -5  18   44.50    1.96
   1  -4  20  123.08    3.05
   1  -4  19   -0.11    0.40
   1  -4  18    0.14    0.38
   1  -4  17    1.31    0.75
   1  -4  16   -0.17    0.38
   1  -4  15    0.02    0.39
   1  -4  14  232.01    3.27
   1  -4  13   -0.01    0.34
   1  -4  12    0.38    0.27
   1  -4  11    4.61    0.51
   1  -4  10   -0.39    0.21
   1  -4   9    0.21    0.24
   1  -4   8  137.93    2.64
   1  -4   7    0.19    0.24
   1  -4   6    0.05    0.26
   1  -4   5    4.77    0.37
   1  -4   4    0.08    0.21
   1  -4   3    0.31    0.22
   1  -4   2   50.37    1.78
   1  -4   1    0.14    0.22
   1  -3   1    4.87    0.30
   1  -3   2   -0.05    0.16
   1  -3   3   -0.17    0.19
   1  -3   4  723.24    6.50
   1  -3   5    0.09    0.16
   1  -3   6    0.18    0.19
   1  -3   7   13.85    0.59
   1  -3   8    0.28    0.21
   1  -3   9   -0.02    0.29
   1  -3  10  425.82    4.91
   1  -3  11    0.08    0.27
   1  -3  12   -0.08    0.25
   1  -3  13    1.22    0.28
   1  -3  14   -0.26    0.26
   1  -3  15   -0.03    0.26
   1  -3  16   80.49    2.08
   1  -3  17    0.25    0.50
   1  -3  18   -0.08    0.33
   1  -3  19    0.30    0.38
   1  -3  20   -0.34    0.43
   1  -3  21   -0.95    0.36
   1  -3  22   18.43    1.41
   1  -2  23    0.00    0.43
   1  -2  22    0.07    0.33
   1  -2  21    4.21    0.73
   1  -2  20   -0.16    0.38
   1  -2  19   -0.34    0.35
   1  -2  18   65.03    1.90
   1  -2  17   -0.55    0.30
   1  -2  16    0.04    0.26
   1  -2  15   24.16    0.79
   1  -2  14    0.31    0.29
   1  -2  13    0.18    0.34
   1  -2  12   31.14    1.03
   1  -2  11   -0.25    0.27
   1  -2  10    0.22    0.27
   1  -2   9   57.98    1.99
   1  -2   8   -0.06    0.21
   1  -2   7   -0.05    0.22
   1  -2   6  881.73    7.18
   1  -2   5    0.23    0.21
   1  -2   4   -0.24    0.15
   1  -2   3  166.37    2.81
   1  -2   2   -0.12    0.19
   1  -2   1    0.02    0.14
   1  -1   1    0.11    0.09
   1  -1   2  201.97    2.62
   1  -1   3   -0.05    0.12
   1  -1   4    0.01    0.16
   1  -1   5   -0.34    0.22
   1  -1   6    0.20    0.20
   1  -1   7    0.14    0.18
   1  -1   8  341.04    5.08
   1  -1   9   -0.32    0.23
   1  -1  10   -0.16    0.24
   1  -1  11    3.39    0.39
   1  -1  12   -0.15    0.32
   1  -1  13   -0.51    0.23
   1  -1  14  396.77    4.85
   1  -1  15   -0.34    0.28
   1  -1  16    0.16    0.26
   1  -1  17    0.25    0.38
   1  -1  18   -0.17    0.36
   1  -1  19    0.25    0.58
   1  -1  20  154.23    3.12
   1  -1  21   -0.14    0.61
   1  -1  22    0.06    0.47
   1  -1  23    0.17    0.42
   1   0  23    0.01    0.44
   1   0  22    9.28    1.14
   1   0  21    0.31    0.42
   1   0  20    0.42    0.47
   1   0  19    0.03    0.38
   1   0  18   -0.20    0.33
   1   0  17   -0.10    0.26
   1   0  16   77.91    2.02
   1   0  15   -0.10    0.33
   1   0  14   -0.10    0.34
   1   0  13    0.40    0.35
   1   0  12    0.15    0.26
   1   0  11    0.02    0.25
   1   0  10  717.23    7.43
   1   0   9   -0.63    0.23
   1   0   8    0.22    0.27
   1   0   7    9.24    0.49
   1   0   6    0.38    0.27
   1   0   5    0.02    0.19
   1   0   4  937.44    7.08
   1   0   3    0.18    0.14
   1   0   2    0.03    0.11
   1   0   1    0.46    0.11
   1   1   1   -0.12    0.14
   1   1   2    0.11    0.14
   1   1   3  155.76    2.82
   1   1   4    0.12    0.14
   1   1   5   -0.15    0.15
   1   1   6  849.60    7.35
   1   1   7   -0.01    0.18
   1   1   8   -0.05    0.32
   1   1   9   57.90    2.22
   1   1  10    0.04    0.27
   1   1  11   -0.13    0.36
   1   1  12   33.28    1.10
   1   1  13    0.00    0.33
   1   1  14    0.07    0.39
   1   1  15   23.75    0.77
   1   1  16    0.60    0.28
   1   1  17    0.37    0.44
   1   1  18   63.50    1.96
   1   1  19    0.21    0.38
   1   1  20   -0.14    0.31
   1   1  21    2.64    0.66
   1   1  22    0.16    0.40
   1   1  23   -0.40    0.28
   1   2  22    0.36    0.46
   1   2  21   -0.14    0.39
   1   2  20  120.31    2.90
   1   2  19   -0.23    0.35
   1   2  18    0.24    0.41
   1   2  17    1.64    0.54
   1   2  16   -0.06    0.37
   1   2  15    0.04    0.34
   1   2  14  316.18    3.85
   1   2  13    0.08    0.32
   1   2  12    0.12    0.29
   1   2  11    0.90    0.29
   1   2  10   -0.07    0.26
   1   2   9    0.11    0.25
   1   2   8  174.35    3.37
   1   2   7   -0.26    0.25
   1   2   6   -0.10    0.18
   1   2   5   11.04    0.44
   1   2   4   -0.22    0.18
   1   2   3    0.29    0.18
   1   2   2   74.43    2.15
   1   2   1    0.39    0.19
   1   3   1    2.05    0.28
   1   3   2    0.19    0.19
   1   3   3    0.09    0.23
   1   3   4  316.11    4.24
   1   3   5    0.09    0.28
   1   3   6    0.24    0.24
   1   3   7    0.31    0.25
   1   3   8   -0.02    0.27
   1   3   9   -0.43    0.22
   1   3  10  442.18    4.66
   1   3  11   -0.12    0.35
   1   3  12   -0.17    0.30
   1   3  13   -0.05    0.40
   1   3  14   -0.09    0.36
   1   3  15    0.38    0.43
   1   3  16   28.01    1.37
   1   3  17   -0.23    0.38
   1   3  18    0.10    0.40
   1   3  19   -0.08    0.37
   1   3  20   -0.13    0.41
   1   3  21   -0.03    0.40
   1   4  18   48.53    1.99
   1   4  17    0.35    0.40
   1   4  16    0.15    0.40
   1   4  15    7.75    1.06
   1   4  14   -0.45    0.29
   1   4  13    0.02    0.41
   1   4  12    6.11    0.78
   1   4  11   -0.01    0.35
   1   4  10    0.04    0.33
   1   4   9    8.43    0.73
   1   4   8    0.08    0.35
   1   4   7   -0.08    0.19
   1   4   6  237.88    3.16
   1   4   5    0.15    0.23
   1   4   4   -0.04    0.25
   1   4   3   13.99    0.59
   1   4   2    0.27    0.26
   1   4   1   -0.05    0.31
   1   5   1    0.10    0.33
   1   5   2   12.44    0.84
   1   5   3    0.14    0.33
   1   5   4    0.00    0.36
   1   5   5    3.83    0.69
   1   5   6   -0.05    0.28
   1   5   7    0.10    0.33
   1   5   8   52.73    1.76
   1   5   9   -0.08    0.35
   1   5  10   -0.01    0.39
   1   5  11    1.70    0.64
   1   5  12   -0.38    0.25
   1   5  13   -0.19    0.40
   1   5  14  175.15    3.52
   1   5  15    0.03    0.44
   1   5  16   -0.01    0.36
   1   6  11   -0.63    0.39
   1   6  10  201.39    3.67
   1   6   9   -0.09    0.41
   1   6   8   -0.16    0.40
   1   6   7   -0.09    0.32
   1   6   6    0.20    0.38
   1   6   5   -0.51    0.28
   1   6   4   82.56    2.23
   1   6   3   -0.17    0.30
   1   6   2    0.15    0.40
   1   6   1    0.09    0.32
   1   6   0    0.09    0.42
   1   6  -1    0.22    0.45
   1   6  -2   34.33    1.49
   1   6  -3    0.15    0.35
   1   6  -4    0.02    0.37
   1   6  -5    0.82    0.46
   1   6  -6   -0.47    0.25
   1   6  -7    0.25    0.35
   1   6  -8   78.76    2.19
   1   6  -9    0.68    0.45
   1   6 -10    0.32    0.40
   1   6 -11   -0.20    0.46
   1   5 -16   25.27    1.70
   1   5 -15   -0.08    0.40
   1   5 -14   -0.07    0.35
   1   5 -13    1.56    0.57
   1   5 -12    0.06    0.36
   1   5 -11    0.11    0.43
   1   5 -10  166.32    3.07
   1   5  -9    0.05    0.34
   1   5  -8   -0.19    0.28
   1   5  -7    2.95    0.57
   1   5  -6    0.25    0.40
   1   5  -5   -0.32    0.28
   1   5  -4  195.92    2.82
   1   5  -3    0.17    0.36
   1   5  -2    0.33    0.38
   1   5  -1    6.61    0.62
   1   5   0    0.28    0.28
   1   4   0  321.59    3.81
   1   4  -1    0.17    0.25
   1   4  -2   -0.08    0.24
   1   4  -3   25.46    1.15
   1   4  -4   -0.33    0.25
   1   4  -5   -0.22    0.27
   1   4  -6  212.80    2.96
   1   4  -7    0.22    0.25
   1   4  -8    0.11    0.29
   1   4  -9   17.96    0.91
   1   4 -10   -0.01    0.30
   1   4 -11    0.41    0.39
   1   4 -12    2.46    0.53
   1   4 -13    0.32    0.45
   1   4 -14   -0.11    0.39
   1   4 -15    7.93    1.02
   1   4 -16    0.19    0.44
   1   4 -17   -0.27    0.41
   1   4 -18   75.08    2.49
   1   3 -20  136.07    3.27
   1   3 -19    0.18    0.47
   1   3 -18    0.26    0.43
   1   3 -17    0.79    0.52
   1   3 -16    0.15    0.50
   1   3 -15   -0.11    0.36
   1   3 -14  198.57    3.04
   1   3 -13   -0.21    0.33
   1   3 -12   -0.31    0.24
   1   3 -11    0.33    0.30
   1   3 -10   -0.03    0.22
   1   3  -9    0.01    0.30
   1   3  -8  187.78    3.19
   1   3  -7    0.03    0.34
   1   3  -6   -0.17    0.26
   1   3  -5    2.27    0.32
   1   3  -4    0.04    0.19
   1   3  -3   -0.21    0.22
   1   3  -2  101.24    2.45
   1   3  -1   -0.11    0.23
   1   3   0    0.00    0.20
   1   2   0    0.02    0.18
   1   2  -1   18.50    0.76
   1   2  -2   -0.14    0.16
   1   2  -3    0.29    0.21
   1   2  -4  609.87    6.03
   1   2  -5    0.12    0.18
   1   2  -6    0.15    0.18
   1   2  -7    0.50    0.22
   1   2  -8   -0.42    0.22
   1   2  -9   -0.23    0.25
   1   2 -10  506.73    5.37
   1   2 -11   -0.08    0.31
   1   2 -12   -0.29    0.28
   1   2 -13    1.76    0.46
   1   2 -14   -0.08    0.31
   1   2 -15   -0.56    0.36
   1   2 -16   58.33    1.81
   1   2 -17    0.12    0.37
   1   2 -18   -0.17    0.38
   1   2 -19    1.36    0.62
   1   2 -20    0.00    0.42
   1   2 -21    0.46    0.55
   1   2 -22    6.41    1.06
   1   1 -23   -0.59    0.46
   1   1 -22   -0.27    0.41
   1   1 -21   14.08    1.26
   1   1 -20   -0.13    0.49
   1   1 -19    0.08    0.40
   1   1 -18  110.61    2.45
   1   1 -17    0.99    0.47
   1   1 -16    0.41    0.37
   1   1 -15   22.43    0.78
   1   1 -14    0.35    0.26
   1   1 -13    0.31    0.24
   1   1 -12    7.47    0.50
   1   1 -11    0.20    0.33
   1   1 -10    0.37    0.21
   1   1  -9   85.44    2.55
   1   1  -8   -0.13    0.25
   1   1  -7    0.02    0.18
   1   1  -6  760.60    6.73
   1   1  -5    0.23    0.16
   1   1  -4    0.19    0.18
   1   1  -3  295.52    3.76
   1   1  -2    0.06    0.14
   1   1  -1    0.15    0.13
   1   1   0  820.56    5.88
   1   0   0    0.01    0.09
   1   0  -1    0.01    0.10
   1   0  -2  199.74    2.69
   1   0  -3   -0.15    0.13
   1   0  -4   -0.02    0.18
   1   0  -5    0.21    0.19
   1   0  -6   -0.01    0.18
   1   0  -7   -0.13    0.22
   1   0  -8  339.79    4.98
   1   0  -9   -0.09    0.25
   1   0 -10    0.00    0.29
   1   0 -11    3.70    0.44
   1   0 -12   -0.03    0.33
   1   0 -13   -0.13    0.28
   1   0 -14  391.59    4.78
   1   0 -15    0.29    0.31
   1   0 -16   -0.27    0.31
   1   0 -17   -0.18    0.32
   1   0 -18    0.02    0.29
   1   0 -19   -0.40    0.49
   1   0 -20  151.17    3.11
   1   0 -21    0.01    0.69
   1   0 -22   -0.31    0.36
   1   0 -23    1.18    0.59
   1  -1 -23    0.36    0.44
   1  -1 -22    9.41    1.03
   1  -1 -21    0.05    0.40
   1  -1 -20    0.12    0.42
   1  -1 -19   -0.25    0.42
   1  -1 -18    0.44    0.45
   1  -1 -17    0.03    0.40
   1  -1 -16   71.22    1.90
   1  -1 -15    0.02    0.39
   1  -1 -14    0.04    0.36
   1  -1 -13    0.44    0.33
   1  -1 -12    0.36    0.29
   1  -1 -11    0.27    0.30
   1  -1 -10  735.97    7.71
   1  -1  -9    0.08    0.32
   1  -1  -8   -0.44    0.26
   1  -1  -7    9.48    0.44
   1  -1  -6   -0.14    0.19
   1  -1  -5    0.36    0.20
   1  -1  -4  915.09    7.19
   1  -1  -3    0.07    0.15
   1  -1  -2    0.12    0.14
   1  -1  -1    0.18    0.12
   1  -1   0   -0.05    0.09
   1  -2   0  752.48    5.60
   1  -2  -1    0.02    0.16
   1  -2  -2   -0.16    0.15
   1  -2  -3  292.48    3.88
   1  -2  -4   -0.22    0.20
   1  -2  -5    0.47    0.22
   1  -2  -6  737.92    7.03
   1  -2  -7   -0.24    0.17
   1  -2  -8    0.29    0.22
   1  -2  -9   79.64    2.53
   1  -2 -10    0.16    0.40
   1  -2 -11    0.08    0.29
   1  -2 -12   12.38    0.59
   1  -2 -13    0.09    0.36
   1  -2 -14   -0.16    0.23
   1  -2 -15   22.52    0.80
   1  -2 -16    0.09    0.26
   1  -2 -17   -0.10    0.45
   1  -2 -18  112.34    2.44
   1  -2 -19   -0.38    0.33
   1  -2 -20   -0.12    0.37
   1  -2 -21   13.54    1.16
   1  -2 -22    0.04    0.47
   1  -2 -23   -0.12    0.44
   1  -3 -22    0.41    0.42
   1  -3 -21    0.39    0.46
   1  -3 -20  124.10    2.92
   1  -3 -19   -0.28    0.43
   1  -3 -18   -0.03    0.36
   1  -3 -17    0.94    0.62
   1  -3 -16    0.30    0.46
   1  -3 -15   -0.15    0.24
   1  -3 -14  329.32    3.93
   1  -3 -13   -0.43    0.29
   1  -3 -12    0.47    0.27
   1  -3 -11   10.07    0.54
   1  -3 -10   -0.20    0.36
   1  -3  -9   -0.24    0.27
   1  -3  -8  147.04    3.25
   1  -3  -7    0.46    0.22
   1  -3  -6   -0.13    0.22
   1  -3  -5    6.89    0.39
   1  -3  -4   -0.06    0.16
   1  -3  -3    0.33    0.16
   1  -3  -2   39.70    1.60
   1  -3  -1    0.23    0.17
   1  -3   0   -0.12    0.14
   1  -4   0    0.18    0.24
   1  -4  -1    4.35    0.32
   1  -4  -2    0.33    0.27
   1  -4  -3   -0.28    0.22
   1  -4  -4  424.86    4.78
   1  -4  -5    0.00    0.21
   1  -4  -6   -0.33    0.25
   1  -4  -7   10.50    0.52
   1  -4  -8   -0.20    0.19
   1  -4  -9   -0.18    0.23
   1  -4 -10  337.81    4.12
   1  -4 -11    0.04    0.28
   1  -4 -12   -0.19    0.23
   1  -4 -13    2.78    0.64
   1  -4 -14   -0.10    0.33
   1  -4 -15   -0.16    0.41
   1  -4 -16   54.93    1.89
   1  -4 -17   -0.04    0.45
   1  -4 -18   -0.30    0.43
   1  -4 -19   -0.14    0.46
   1  -4 -20   -0.14    0.27
   1  -5 -18   68.82    2.39
   1  -5 -17    0.10    0.44
   1  -5 -16   -0.14    0.42
   1  -5 -15    7.14    0.89
   1  -5 -14   -0.32    0.35
   1  -5 -13    0.12    0.40
   1  -5 -12    1.98    0.87
   1  -5 -11   -0.17    0.38
   1  -5 -10    0.12    0.34
   1  -5  -9   15.36    0.89
   1  -5  -8    0.21    0.23
   1  -5  -7    0.45    0.30
   1  -5  -6  215.83    3.03
   1  -5  -5   -0.33    0.24
   1  -5  -4    0.17    0.23
   1  -5  -3   24.65    0.78
   1  -5  -2    0.11    0.23
   1  -5  -1   -0.26    0.19
   1  -5   0  308.33    3.69
   1  -6   0    0.00    0.32
   1  -6  -1   -0.02    0.23
   1  -6  -2    7.38    0.67
   1  -6  -3   -0.45    0.21
   1  -6  -4    0.19    0.30
   1  -6  -5    4.94    0.63
   1  -6  -6   -0.18    0.27
   1  -6  -7    0.11    0.33
   1  -6  -8   44.93    1.60
   1  -6  -9    0.19    0.38
   1  -6 -10    0.23    0.44
   1  -6 -11    7.27    0.77
   1  -6 -12   -0.20    0.32
   1  -6 -13    0.02    0.36
   1  -6 -14  169.82    3.45
   1  -6 -15   -0.47    0.37
   1  -6 -16    0.54    0.52
   1  -7 -11   -0.07    0.37
   1  -7 -10  121.94    2.96
   1  -7  -9    0.16    0.45
   1  -7  -8    0.19    0.50
   1  -7  -7    1.37    0.98
   1  -7  -6   -0.23    0.30
   1  -7  -5   -0.60    0.33
   1  -7  -4  143.68    2.88
   1  -7  -3   -0.20    0.31
   1  -7  -2   -0.23    0.28
   1  -7  -1    2.32    0.69
   1  -7   0    0.21    0.39
   2   6   6    0.08    0.37
   2   6   5    0.89    0.58
   2   6   4   -0.09    0.35
   2   6   3   -0.08    0.43
   2   6   2    3.68    0.74
   2   6   1    0.88    0.45
   2   5   1   -0.20    0.32
   2   5   2   -0.10    0.25
   2   5   3    4.22    0.66
   2   5   4    0.15    0.36
   2   5   5    0.06    0.38
   2   5   6  117.80    2.58
   2   5   7   -0.19    0.30
   2   5   8    0.27    0.44
   2   5   9    6.92    1.03
   2   5  10    0.07    0.42
   2   5  11   -0.69    0.26
   2   5  12    0.41    0.46
   2   5  13   -0.19    0.33
   2   4  17   -0.19    0.37
   2   4  16   55.01    2.18
   2   4  15    0.24    0.39
   2   4  14    0.02    0.39
   2   4  13    5.51    0.85
   2   4  12   -0.03    0.39
   2   4  11    0.02    0.33
   2   4  10  166.10    2.97
   2   4   9    0.06    0.41
   2   4   8   -0.17    0.29
   2   4   7    6.87    0.70
   2   4   6   -0.59    0.25
   2   4   5   -0.15    0.34
   2   4   4  247.32    3.05
   2   4   3    0.33    0.33
   2   4   2   -0.12    0.28
   2   4   1    7.42    0.44
   2   3   1   -0.05    0.21
   2   3   2   12.67    0.57
   2   3   3   -0.14    0.26
   2   3   4   -0.03    0.23
   2   3   5    0.40    0.27
   2   3   6   -0.10    0.25
   2   3   7    0.35    0.24
   2   3   8   63.57    1.74
   2   3   9   -0.10    0.22
   2   3  10    0.05    0.29
   2   3  11    1.60    0.58
   2   3  12    0.38    0.35
   2   3  13   -0.04    0.36
   2   3  14  234.81    3.61
   2   3  15   -0.12    0.38
   2   3  16    0.03    0.37
   2   3  17    0.52    0.59
   2   3  18   -0.44    0.34
   2   3  19    0.13    0.47
   2   2  21    6.24    1.03
   2   2  20    0.13    0.44
   2   2  19    0.55    0.42
   2   2  18   86.17    2.46
   2   2  17    0.53    0.39
   2   2  16   -0.37    0.32
   2   2  15   13.37    1.01
   2   2  14    0.15    0.35
   2   2  13   -0.08    0.31
   2   2  12    3.04    0.43
   2   2  11   -0.05    0.33
   2   2  10   -0.19    0.24
   2   2   9   33.43    1.47
   2   2   8   -0.21    0.26
   2   2   7    0.00    0.32
   2   2   6  358.47    4.49
   2   2   5    0.25    0.25
   2   2   4    0.08    0.22
   2   2   3   61.31    1.97
   2   2   2   -0.08    0.26
   2   2   1   -0.17    0.17
   2   1   1    4.72    0.32
   2   1   2    0.19    0.17
   2   1   3   -0.02    0.16
   2   1   4  750.35    6.61
   2   1   5    0.22    0.21
   2   1   6   -0.03    0.16
   2   1   7   12.69    0.52
   2   1   8   -0.01    0.20
   2   1   9   -0.10    0.31
   2   1  10  411.49    5.09
   2   1  11    0.22    0.36
   2   1  12   -0.25    0.28
   2   1  13    1.41    0.36
   2   1  14   -0.08    0.32
   2   1  15   -0.35    0.27
   2   1  16   78.63    2.09
   2   1  17    0.44    0.45
   2   1  18   -0.11    0.34
   2   1  19    0.27    0.43
   2   1  20    0.02    0.38
   2   1  21    0.01    0.33
   2   1  22   17.87    1.32
   2   0  23    0.27    0.53
   2   0  22    0.78    0.45
   2   0  21   -0.33    0.40
   2   0  20  116.50    2.74
   2   0  19   -0.49    0.35
   2   0  18    0.13    0.37
   2   0  17    0.04    0.44
   2   0  16    0.09    0.34
   2   0  15   -0.29    0.31
   2   0  14  403.98    4.67
   2   0  13    0.14    0.33
   2   0  12   -0.07    0.33
   2   0  11    0.14    0.33
   2   0  10   -0.08    0.23
   2   0   9   -0.04    0.27
   2   0   8  164.46    3.58
   2   0   7    0.20    0.24
   2   0   6    0.09    0.21
   2   0   5    3.71    0.30
   2   0   4    0.09    0.15
   2   0   3    0.04    0.14
   2   0   2   41.49    1.51
   2   0   1    0.14    0.15
   2  -1   1    0.61    0.16
   2  -1   2    0.11    0.17
   2  -1   3  309.83    4.57
   2  -1   4    0.23    0.17
   2  -1   5    0.03    0.26
   2  -1   6  759.08    7.68
   2  -1   7   -0.29    0.26
   2  -1   8   -0.32    0.21
   2  -1   9   93.27    2.74
   2  -1  10   -0.16    0.29
   2  -1  11   -0.18    0.34
   2  -1  12    7.14    0.52
   2  -1  13    0.23    0.30
   2  -1  14    0.05    0.34
   2  -1  15   22.74    0.79
   2  -1  16   -0.05    0.38
   2  -1  17   -0.12    0.33
   2  -1  18  115.49    2.51
   2  -1  19    0.13    0.33
   2  -1  20   -0.63    0.31
   2  -1  21   17.92    1.15
   2  -1  22   -0.43    0.31
   2  -1  23    1.03    0.61
   2  -2  23   -0.38    0.30
   2  -2  22   15.84    1.31
   2  -2  21    0.04    0.35
   2  -2  20   -0.37    0.31
   2  -2  19    2.34    0.58
   2  -2  18   -0.02    0.42
   2  -2  17   -0.10    0.34
   2  -2  16   85.94    2.08
   2  -2  15   -0.09    0.27
   2  -2  14   -0.11    0.23
   2  -2  13    1.83    0.36
   2  -2  12    0.13    0.28
   2  -2  11    0.08    0.37
   2  -2  10  507.88    5.99
   2  -2   9    0.31    0.26
   2  -2   8   -0.25    0.21
   2  -2   7    0.18    0.23
   2  -2   6   -0.03    0.23
   2  -2   5    0.01    0.16
   2  -2   4  920.07    7.06
   2  -2   3   -0.10    0.14
   2  -2   2   -0.02    0.13
   2  -2   1   11.86    0.49
   2  -3   1   -0.09    0.16
   2  -3   2   78.56    2.15
   2  -3   3    0.08    0.17
   2  -3   4   -0.27    0.17
   2  -3   5   11.32    0.49
   2  -3   6    0.06    0.25
   2  -3   7   -0.14    0.24
   2  -3   8  178.29    3.41
   2  -3   9   -0.22    0.22
   2  -3  10    0.24    0.25
   2  -3  11    0.67    0.30
   2  -3  12   -0.18    0.28
   2  -3  13    0.22    0.28
   2  -3  14  318.60    3.81
   2  -3  15   -0.26    0.32
   2  -3  16   -0.09    0.28
   2  -3  17    1.57    0.68
   2  -3  18    0.38    0.36
   2  -3  19   -0.24    0.38
   2  -3  20  121.32    2.95
   2  -3  21   -0.01    0.42
   2  -3  22   -0.07    0.52
   2  -4  21    8.91    1.11
   2  -4  20    0.15    0.47
   2  -4  19   -0.01    0.33
   2  -4  18   91.08    2.54
   2  -4  17    0.23    0.41
   2  -4  16    0.32    0.34
   2  -4  15   11.37    0.93
   2  -4  14   -0.05    0.33
   2  -4  13   -0.05    0.29
   2  -4  12    2.65    0.43
   2  -4  11    0.28    0.23
   2  -4  10   -0.03    0.27
   2  -4   9   31.79    1.39
   2  -4   8    0.23    0.34
   2  -4   7    0.16    0.22
   2  -4   6  360.04    4.43
   2  -4   5    0.03    0.26
   2  -4   4    0.25    0.21
   2  -4   3   62.63    1.96
   2  -4   2    0.06    0.26
   2  -4   1   -0.26    0.20
   2  -5   1   13.61    0.58
   2  -5   2   -0.18    0.24
   2  -5   3   -0.40    0.23
   2  -5   4  359.82    3.99
   2  -5   5    0.23    0.21
   2  -5   6    0.07    0.28
   2  -5   7    5.49    0.39
   2  -5   8   -0.02    0.19
   2  -5   9    0.15    0.33
   2  -5  10  235.65    2.99
   2  -5  11   -0.11    0.26
   2  -5  12   -0.25    0.26
   2  -5  13    4.07    0.81
   2  -5  14    0.71    0.46
   2  -5  15    0.03    0.32
   2  -5  16   50.08    1.93
   2  -5  17    0.10    0.44
   2  -5  18   -0.17    0.34
   2  -5  19    3.03    0.89
   2  -6  17    0.06    0.47
   2  -6  16    0.14    0.43
   2  -6  15   -0.07    0.38
   2  -6  14  152.06    3.14
   2  -6  13    0.33    0.46
   2  -6  12   -0.24    0.27
   2  -6  11    0.54    0.54
   2  -6  10    0.07    0.28
   2  -6   9    0.15    0.34
   2  -6   8   80.55    1.95
   2  -6   7    0.11    0.34
   2  -6   6    0.05    0.27
   2  -6   5    1.64    0.63
   2  -6   4    0.16    0.26
   2  -6   3   -0.17    0.26
   2  -6   2   32.42    1.16
   2  -6   1   -0.23    0.23
   2  -7   1    0.29    0.34
   2  -7   2   -0.04    0.33
   2  -7   3    5.38    0.89
   2  -7   4   -0.21    0.29
   2  -7   5   -0.34    0.26
   2  -7   6   99.27    2.42
   2  -7   7    0.37    0.43
   2  -7   8    0.14    0.36
   2  -7   9    5.73    0.83
   2  -7  10    0.35    0.39
   2  -7  11   -0.69    0.45
   2  -7  12    0.75    0.53
   2  -7  13    0.02    0.39
   2  -8   6    0.51    0.45
   2  -8   5    0.30    0.42
   2  -8   4  124.53    2.86
   2  -8   3   -0.45    0.34
   2  -8   2   -0.11    0.46
   2  -8   1    6.20    1.02
   2  -8   0    0.25    0.42
   2  -8  -1    0.08    0.43
   2  -8  -2    3.24    0.71
   2  -8  -3   -0.59    0.35
   2  -8  -4   -0.52    0.40
   2  -8  -5    4.52    0.89
   2  -8  -6    0.05    0.42
   2  -7 -13    0.39    0.50
   2  -7 -12    2.25    0.74
   2  -7 -11   -0.14    0.39
   2  -7 -10    0.33    0.46
   2  -7  -9    2.69    0.84
   2  -7  -8    0.25    0.40
   2  -7  -7    0.49    0.39
   2  -7  -6  115.64    2.55
   2  -7  -5   -0.11    0.38
   2  -7  -4   -0.02    0.33
   2  -7  -3    3.58    0.63
   2  -7  -2    0.19    0.39
   2  -7  -1    0.10    0.35
   2  -7   0  176.46    2.95
   2  -6   0    0.00    0.24
   2  -6  -1    2.68    0.30
   2  -6  -2    0.10    0.24
   2  -6  -3   -0.06    0.29
   2  -6  -4  170.00    2.62
   2  -6  -5   -0.07    0.31
   2  -6  -6    0.28    0.29
   2  -6  -7    0.34    0.40
   2  -6  -8    0.26    0.34
   2  -6  -9   -0.19    0.29
   2  -6 -10  226.32    3.49
   2  -6 -11    0.37    0.43
   2  -6 -12   -0.29    0.35
   2  -6 -13    0.35    0.55
   2  -6 -14   -0.27    0.43
   2  -6 -15    0.49    0.49
   2  -6 -16   20.95    1.37
   2  -6 -17   -0.06    0.52
   2  -5 -19    0.31    0.60
   2  -5 -18   -0.28    0.32
   2  -5 -17    0.96    0.61
   2  -5 -16   -0.23    0.35
   2  -5 -15   -0.03    0.38
   2  -5 -14  242.77    3.72
   2  -5 -13    0.68    0.46
   2  -5 -12   -0.17    0.35
   2  -5 -11    2.05    0.61
   2  -5 -10   -0.42    0.23
   2  -5  -9    0.51    0.27
   2  -5  -8   60.65    1.70
   2  -5  -7    0.07    0.32
   2  -5  -6   -0.06    0.21
   2  -5  -5   10.77    0.53
   2  -5  -4   -0.01    0.26
   2  -5  -3    0.05    0.19
   2  -5  -2   13.08    0.54
   2  -5  -1    0.32    0.28
   2  -5   0    0.07    0.24
   2  -4   0  477.62    5.17
   2  -4  -1   -0.01    0.23
   2  -4  -2    0.29    0.21
   2  -4  -3   28.15    0.92
   2  -4  -4   -0.07    0.29
   2  -4  -5    0.02    0.21
   2  -4  -6  391.35    4.83
   2  -4  -7    0.15    0.27
   2  -4  -8    0.26    0.30
   2  -4  -9   19.72    0.75
   2  -4 -10    0.10    0.22
   2  -4 -11    0.19    0.27
   2  -4 -12   13.65    0.63
   2  -4 -13    0.16    0.33
   2  -4 -14    0.12    0.36
   2  -4 -15   10.14    1.11
   2  -4 -16   -0.15    0.40
   2  -4 -17   -0.14    0.36
   2  -4 -18   49.78    1.89
   2  -4 -19    0.10    0.46
   2  -4 -20   -0.03    0.34
   2  -4 -21    2.86    0.78
   2  -3 -22   10.75    1.26
   2  -3 -21    0.36    0.49
   2  -3 -20    0.12    0.43
   2  -3 -19    1.51    0.80
   2  -3 -18    0.66    0.50
   2  -3 -17   -0.21    0.30
   2  -3 -16   53.74    1.75
   2  -3 -15   -0.05    0.29
   2  -3 -14    0.09    0.35
   2  -3 -13    2.29    0.41
   2  -3 -12    0.13    0.39
   2  -3 -11   -0.02    0.29
   2  -3 -10  501.37    5.68
   2  -3  -9   -0.08    0.38
   2  -3  -8    0.04    0.23
   2  -3  -7    0.76    0.30
   2  -3  -6   -0.03    0.25
   2  -3  -5   -0.09    0.30
   2  -3  -4  589.17    6.13
   2  -3  -3    0.15    0.20
   2  -3  -2    0.08    0.17
   2  -3  -1   19.11    0.65
   2  -3   0   -0.10    0.12
   2  -2   0    0.00    0.13
   2  -2  -1    0.11    0.14
   2  -2  -2   44.03    1.74
   2  -2  -3   -0.06    0.17
   2  -2  -4    0.09    0.20
   2  -2  -5    5.32    0.35
   2  -2  -6   -0.10    0.22
   2  -2  -7    0.29    0.24
   2  -2  -8  171.84    3.69
   2  -2  -9    0.03    0.23
   2  -2 -10   -0.16    0.35
   2  -2 -11    0.18    0.41
   2  -2 -12   -0.27    0.28
   2  -2 -13    0.07    0.31
   2  -2 -14  401.45    4.65
   2  -2 -15    0.41    0.36
   2  -2 -16   -0.17    0.37
   2  -2 -17    0.94    0.47
   2  -2 -18   -0.15    0.39
   2  -2 -19    0.03    0.37
   2  -2 -20  110.02    2.70
   2  -2 -21   -0.47    0.42
   2  -2 -22   -0.65    0.38
   2  -2 -23    0.06    0.36
   2  -1 -23   -0.08    0.50
   2  -1 -22    0.03    0.50
   2  -1 -21    3.57    0.82
   2  -1 -20    0.06    0.46
   2  -1 -19   -0.18    0.37
   2  -1 -18   68.07    2.05
   2  -1 -17   -0.23    0.31
   2  -1 -16    0.10    0.28
   2  -1 -15   21.55    0.87
   2  -1 -14    0.37    0.29
   2  -1 -13    0.30    0.27
   2  -1 -12   38.23    1.82
   2  -1 -11    0.13    0.32
   2  -1 -10   -0.26    0.27
   2  -1  -9   59.96    2.34
   2  -1  -8    0.07    0.22
   2  -1  -7   -0.05    0.22
   2  -1  -6  884.50    8.06
   2  -1  -5    0.17    0.28
   2  -1  -4   -0.18    0.22
   2  -1  -3  172.60    3.45
   2  -1  -2    0.22    0.19
   2  -1  -1    0.04    0.19
   2  -1   0  773.40    6.38
   2   0   0    0.01    0.13
   2   0  -1   12.39    0.49
   2   0  -2    0.04    0.14
   2   0  -3   -0.01    0.16
   2   0  -4  923.50    7.36
   2   0  -5    0.00    0.16
   2   0  -6    0.21    0.18
   2   0  -7    0.01    0.27
   2   0  -8    0.30    0.22
   2   0  -9   -0.03    0.20
   2   0 -10  506.19    5.88
   2   0 -11   -0.17    0.34
   2   0 -12   -0.07    0.37
   2   0 -13    2.10    0.34
   2   0 -14    0.42    0.28
   2   0 -15   -0.31    0.27
   2   0 -16   81.02    1.98
   2   0 -17    0.29    0.38
   2   0 -18   -0.55    0.35
   2   0 -19    0.50    0.58
   2   0 -20   -0.34    0.35
   2   0 -21   -0.25    0.46
   2   0 -22   12.65    1.28
   2   0 -23   -0.03    0.46
   2   1 -22    0.48    0.45
   2   1 -21    0.14    0.51
   2   1 -20   99.64    2.92
   2   1 -19    0.00    0.39
   2   1 -18    0.47    0.51
   2   1 -17    0.94    0.50
   2   1 -16   -0.42    0.29
   2   1 -15    0.06    0.33
   2   1 -14  321.76    3.86
   2   1 -13    0.03    0.36
   2   1 -12   -0.07    0.29
   2   1 -11    9.48    0.51
   2   1 -10    0.25    0.26
   2   1  -9    0.30    0.25
   2   1  -8  147.55    3.01
   2   1  -7    0.07    0.25
   2   1  -6   -0.20    0.17
   2   1  -5    7.24    0.37
   2   1  -4    0.10    0.17
   2   1  -3    0.10    0.17
   2   1  -2   39.58    1.48
   2   1  -1    0.19    0.17
   2   1   0    0.18    0.14
   2   2   0  487.42    5.18
   2   2  -1   -0.03    0.20
   2   2  -2    0.01    0.19
   2   2  -3   28.16    1.34
   2   2  -4   -0.12    0.19
   2   2  -5    0.26    0.23
   2   2  -6  407.69    4.63
   2   2  -7    0.14    0.24
   2   2  -8    0.00    0.24
   2   2  -9   20.44    0.71
   2   2 -10   -0.34    0.25
   2   2 -11    0.20    0.29
   2   2 -12   16.91    0.66
   2   2 -13    0.00    0.36
   2   2 -14   -0.16    0.30
   2   2 -15   10.17    0.92
   2   2 -16   -0.03    0.38
   2   2 -17    0.06    0.37
   2   2 -18   53.04    1.96
   2   2 -19    0.52    0.44
   2   2 -20    0.64    0.66
   2   2 -21    0.90    0.89
   2   3 -19    0.30    0.46
   2   3 -18    0.44    0.46
   2   3 -17    0.10    0.44
   2   3 -16   62.95    2.08
   2   3 -15    0.49    0.44
   2   3 -14    0.02    0.42
   2   3 -13    0.16    0.37
   2   3 -12    0.33    0.36
   2   3 -11    0.12    0.35
   2   3 -10  212.95    2.87
   2   3  -9   -0.10    0.20
   2   3  -8    0.10    0.31
   2   3  -7    1.16    0.30
   2   3  -6   -0.17    0.25
   2   3  -5   -0.17    0.22
   2   3  -4  378.62    4.18
   2   3  -3   -0.19    0.27
   2   3  -2    0.00    0.21
   2   3  -1    0.14    0.23
   2   3   0   -0.39    0.21
   2   4   0   -0.05    0.22
   2   4  -1    0.15    0.28
   2   4  -2   11.16    0.58
   2   4  -3   -0.02    0.35
   2   4  -4    0.01    0.24
   2   4  -5    7.07    0.61
   2   4  -6   -0.22    0.26
   2   4  -7    0.24    0.31
   2   4  -8   50.90    1.60
   2   4  -9    0.07    0.36
   2   4 -10   -0.04    0.34
   2   4 -11    6.48    0.86
   2   4 -12    0.41    0.31
   2   4 -13   -0.35    0.37
   2   4 -14  168.17    3.28
   2   4 -15    0.55    0.59
   2   4 -16    0.18    0.42
   2   4 -17    4.04    0.90
   2   5 -13    0.07    0.44
   2   5 -12    4.47    1.05
   2   5 -11   -0.40    0.37
   2   5 -10    0.34    0.45
   2   5  -9    0.88    0.65
   2   5  -8    0.18    0.35
   2   5  -7   -0.41    0.36
   2   5  -6  118.94    2.59
   2   5  -5    0.12    0.36
   2   5  -4    0.28    0.33
   2   5  -3    2.58    0.59
   2   5  -2   -0.28    0.33
   2   5  -1   -0.15    0.30
   2   5   0  164.52    2.83
   2   6   0   -0.02    0.30
   2   6  -1    0.86    0.61
   2   6  -2    0.39    0.41
   2   6  -3    0.58    0.48
   2   6  -4  130.02    2.91
   2   6  -5   -0.28    0.36
   2   6  -6    0.15    0.47
   3  -8   8   23.44    1.40
   3  -8   7    0.58    0.41
   3  -8   6    0.06    0.36
   3  -8   5   -0.03    0.34
   3  -8   4   -0.14    0.40
   3  -8   3   -0.39    0.33
   3  -8   2    4.32    0.71
   3  -8   1    0.35    0.38
   3  -7   1    0.22    0.34
   3  -7   2    0.19    0.34
   3  -7   3    0.06    0.36
   3  -7   4   87.32    2.13
   3  -7   5    0.08    0.30
   3  -7   6   -0.21    0.24
   3  -7   7    0.31    0.32
   3  -7   8    0.04    0.36
   3  -7   9   -0.09    0.27
   3  -7  10  225.89    3.69
   3  -7  11    0.46    0.35
   3  -7  12    0.02    0.40
   3  -7  13    0.11    0.46
   3  -7  14    0.03    0.38
   3  -6  17   -0.12    0.29
   3  -6  16    0.13    0.42
   3  -6  15    0.63    0.72
   3  -6  14   -0.06    0.43
   3  -6  13   -0.43    0.38
   3  -6  12    6.99    0.76
   3  -6  11   -0.30    0.26
   3  -6  10    0.09    0.33
   3  -6   9    1.29    0.64
   3  -6   8    0.01    0.28
   3  -6   7   -0.04    0.31
   3  -6   6   66.60    1.69
   3  -6   5    0.18    0.29
   3  -6   4   -0.20    0.22
   3  -6   3    0.14    0.22
   3  -6   2    0.66    0.23
   3  -6   1   -0.02    0.22
   3  -5   1    0.22    0.21
   3  -5   2   12.25    0.57
   3  -5   3    0.26    0.19
   3  -5   4    0.14    0.23
   3  -5   5    0.57    0.27
   3  -5   6   -0.05    0.19
   3  -5   7   -0.05    0.28
   3  -5   8   66.04    1.68
   3  -5   9   -0.23    0.21
   3  -5  10    0.06    0.19
   3  -5  11    1.46    0.52
   3  -5  12   -0.09    0.29
   3  -5  13    0.23    0.40
   3  -5  14  236.83    3.61
   3  -5  15   -0.07    0.48
   3  -5  16   -0.31    0.36
   3  -5  17    0.40    0.55
   3  -5  18    0.17    0.35
   3  -5  19   -0.07    0.40
   3  -4  20   -0.08    0.43
   3  -4  19    1.02    0.51
   3  -4  18    0.34    0.49
   3  -4  17   -0.47    0.35
   3  -4  16   28.40    1.41
   3  -4  15   -0.02    0.31
   3  -4  14    0.29    0.36
   3  -4  13    0.29    0.32
   3  -4  12    0.51    0.27
   3  -4  11    0.33    0.25
   3  -4  10  458.19    4.65
   3  -4   9    0.09    0.32
   3  -4   8    0.08    0.30
   3  -4   7    0.51    0.23
   3  -4   6   -0.07    0.20
   3  -4   5    0.12    0.24
   3  -4   4  312.01    4.11
   3  -4   3   -0.02    0.22
   3  -4   2    0.04    0.24
   3  -4   1    1.99    0.28
   3  -3   1   -0.14    0.15
   3  -3   2   -0.05    0.17
   3  -3   3    1.07    0.20
   3  -3   4    0.04    0.16
   3  -3   5    0.01    0.18
   3  -3   6  107.65    2.66
   3  -3   7    0.39    0.27
   3  -3   8    0.03    0.26
   3  -3   9    1.55    0.28
   3  -3  10   -0.08    0.25
   3  -3  11   -0.19    0.26
   3  -3  12   27.23    0.90
   3  -3  13    0.12    0.27
   3  -3  14    0.05    0.31
   3  -3  15    3.95    0.59
   3  -3  16   -0.10    0.42
   3  -3  17   -0.13    0.39
   3  -3  18  195.83    3.51
   3  -3  19    0.50    0.45
   3  -3  20    0.12    0.46
   3  -3  21    0.45    0.56
   3  -2  22   -0.40    0.38
   3  -2  21    0.42    0.44
   3  -2  20  121.05    2.90
   3  -2  19    0.29    0.44
   3  -2  18   -0.32    0.36
   3  -2  17    1.93    0.53
   3  -2  16    0.09    0.34
   3  -2  15   -0.11    0.34
   3  -2  14  346.25    4.14
   3  -2  13    0.03    0.27
   3  -2  12    0.08    0.32
   3  -2  11    9.93    0.58
   3  -2  10    0.34    0.26
   3  -2   9    0.14    0.36
   3  -2   8  155.41    3.44
   3  -2   7    0.40    0.24
   3  -2   6   -0.12    0.19
   3  -2   5    7.83    0.46
   3  -2   4    0.19    0.24
   3  -2   3    0.06    0.16
   3  -2   2   36.06    1.49
   3  -2   1    0.07    0.20
   3  -1   1   20.32    0.76
   3  -1   2   -0.01    0.15
   3  -1   3   -0.13    0.15
   3  -1   4  610.26    6.23
   3  -1   5   -0.07    0.19
   3  -1   6    0.18    0.20
   3  -1   7    0.75    0.30
   3  -1   8   -0.45    0.23
   3  -1   9    0.24    0.24
   3  -1  10  501.53    5.92
   3  -1  11    0.04    0.30
   3  -1  12    0.03    0.27
   3  -1  13    2.46    0.42
   3  -1  14    0.19    0.33
   3  -1  15   -0.19    0.26
   3  -1  16   52.77    1.78
   3  -1  17    0.14    0.38
   3  -1  18    0.57    0.43
   3  -1  19    1.35    0.79
   3  -1  20    0.33    0.37
   3  -1  21    0.18    0.42
   3  -1  22    6.44    1.17
   3   0  21    0.91    0.59
   3   0  20   -0.22    0.38
   3   0  19   -0.12    0.41
   3   0  18  179.96    3.39
   3   0  17   -0.26    0.36
   3   0  16   -0.05    0.27
   3   0  15    2.72    0.75
   3   0  14    0.03    0.34
   3   0  13   -0.11    0.32
   3   0  12   27.08    0.92
   3   0  11   -0.23    0.28
   3   0  10    0.20    0.28
   3   0   9    1.16    0.35
   3   0   8    0.06    0.27
   3   0   7   -0.32    0.21
   3   0   6  103.52    2.67
   3   0   5    0.10    0.19
   3   0   4   -0.04    0.18
   3   0   3    0.50    0.20
   3   0   2   -0.12    0.15
   3   0   1    0.02    0.16
   3   1   1   -0.16    0.18
   3   1   2   46.04    1.76
   3   1   3    0.16    0.23
   3   1   4   -0.04    0.23
   3   1   5    3.95    0.37
   3   1   6    0.19    0.30
   3   1   7    0.43    0.23
   3   1   8  136.50    2.84
   3   1   9   -0.06    0.26
   3   1  10    0.10    0.24
   3   1  11    6.10    0.52
   3   1  12    0.21    0.26
   3   1  13    0.14    0.41
   3   1  14  226.66    3.36
   3   1  15   -0.15    0.40
   3   1  16   -0.18    0.38
   3   1  17    1.17    0.49
   3   1  18   -0.17    0.36
   3   1  19    0.11    0.37
   3   1  20  118.50    2.96
   3   1  21    0.14    0.38
   3   2  19    4.96    1.16
   3   2  18   -0.23    0.30
   3   2  17   -0.39    0.35
   3   2  16   51.30    1.94
   3   2  15    0.03    0.49
   3   2  14   -0.12    0.34
   3   2  13    4.54    0.76
   3   2  12   -0.09    0.24
   3   2  11    0.09    0.32
   3   2  10  232.19    3.14
   3   2   9   -0.12    0.22
   3   2   8   -0.31    0.23
   3   2   7    5.19    0.43
   3   2   6    0.19    0.29
   3   2   5   -0.06    0.25
   3   2   4  364.06    4.14
   3   2   3    0.13    0.24
   3   2   2   -0.05    0.20
   3   2   1   14.30    0.63
   3   3   1    0.21    0.28
   3   3   2   -0.17    0.19
   3   3   3   -0.21    0.24
   3   3   4    0.08    0.31
   3   3   5   -0.01    0.32
   3   3   6   67.55    1.73
   3   3   7    0.11    0.32
   3   3   8   -0.17    0.39
   3   3   9    0.03    0.31
   3   3  10    0.37    0.34
   3   3  11   -0.07    0.33
   3   3  12    6.06    0.77
   3   3  13    0.22    0.42
   3   3  14    0.22    0.43
   3   3  15    1.08    0.72
   3   3  16   -0.32    0.38
   3   3  17    0.03    0.54
   3   4  14  109.98    2.89
   3   4  13    0.30    0.49
   3   4  12    0.36    0.47
   3   4  11    0.52    0.54
   3   4  10   -0.45    0.30
   3   4   9    0.60    0.44
   3   4   8   68.46    2.08
   3   4   7    0.07    0.38
   3   4   6   -0.10    0.33
   3   4   5   -0.03    0.38
   3   4   4    0.24    0.37
   3   4   3    0.31    0.36
   3   4   2   23.52    1.17
   3   4   1   -0.35    0.27
   3   5   1    5.12    0.90
   3   5   2    0.44    0.42
   3   5   3   -0.15    0.30
   3   5   4  144.95    2.99
   3   5   5    0.00    0.43
   3   5   6    0.49    0.44
   3   5   7    6.44    0.97
   3   5   8    0.10    0.42
   3   5  -8   16.16    1.28
   3   5  -7    0.62    0.43
   3   5  -6    0.16    0.39
   3   5  -5    5.08    0.92
   3   5  -4    0.11    0.29
   3   5  -3   -0.34    0.31
   3   5  -2    1.69    0.61
   3   5  -1   -0.41    0.38
   3   5   0    0.08    0.38
   3   4   0    0.08    0.31
   3   4  -1    0.36    0.42
   3   4  -2    0.21    0.34
   3   4  -3   -0.41    0.31
   3   4  -4  127.04    2.51
   3   4  -5   -0.06    0.28
   3   4  -6   -0.32    0.35
   3   4  -7    0.71    0.66
   3   4  -8    0.52    0.33
   3   4  -9    0.23    0.51
   3   4 -10  181.26    3.22
   3   4 -11    0.17    0.46
   3   4 -12   -0.27    0.40
   3   4 -13    1.73    0.80
   3   4 -14   -0.19    0.36
   3   3 -17    0.52    0.52
   3   3 -16   -0.13    0.39
   3   3 -15    1.44    0.58
   3   3 -14   -0.64    0.31
   3   3 -13   -0.37    0.35
   3   3 -12    6.42    0.89
   3   3 -11   -0.22    0.31
   3   3 -10   -0.34    0.30
   3   3  -9    0.77    0.55
   3   3  -8    0.05    0.29
   3   3  -7   -0.21    0.33
   3   3  -6   68.35    1.69
   3   3  -5   -0.30    0.23
   3   3  -4    0.36    0.35
   3   3  -3   -0.16    0.26
   3   3  -2    0.08    0.26
   3   3  -1   -0.04    0.32
   3   3   0  439.98    4.05
   3   2   0    0.13    0.24
   3   2  -1   -0.07    0.18
   3   2  -2   13.21    0.54
   3   2  -3    0.13    0.25
   3   2  -4    0.08    0.25
   3   2  -5    8.95    0.46
   3   2  -6    0.20    0.22
   3   2  -7   -0.45    0.23
   3   2  -8   63.28    1.69
   3   2  -9   -0.07    0.26
   3   2 -10   -0.31    0.28
   3   2 -11    1.48    0.77
   3   2 -12    0.25    0.40
   3   2 -13    0.51    0.43
   3   2 -14  254.60    3.73
   3   2 -15    0.57    0.47
   3   2 -16    0.53    0.47
   3   2 -17    0.83    0.77
   3   2 -18    0.08    0.41
   3   2 -19    0.08    0.43
   3   1 -20    0.39    0.37
   3   1 -19    0.44    0.60
   3   1 -18    0.05    0.40
   3   1 -17    0.38    0.45
   3   1 -16   54.69    1.82
   3   1 -15    0.03    0.39
   3   1 -14   -0.05    0.35
   3   1 -13    2.34    0.53
   3   1 -12    0.02    0.31
   3   1 -11    0.03    0.27
   3   1 -10  347.84    4.10
   3   1  -9    0.36    0.33
   3   1  -8   -0.24    0.28
   3   1  -7   11.18    0.60
   3   1  -6    0.25    0.23
   3   1  -5    0.00    0.21
   3   1  -4  424.96    4.88
   3   1  -3    0.28    0.23
   3   1  -2   -0.07    0.24
   3   1  -1    3.77    0.31
   3   1   0    0.11    0.24
   3   0   0 1269.42    8.50
   3   0  -1   -0.13    0.17
   3   0  -2   -0.06    0.24
   3   0  -3    0.67    0.24
   3   0  -4    0.06    0.21
   3   0  -5    0.28    0.20
   3   0  -6  109.21    2.77
   3   0  -7    0.24    0.25
   3   0  -8    0.46    0.26
   3   0  -9    0.97    0.43
   3   0 -10    0.04    0.29
   3   0 -11   -0.16    0.25
   3   0 -12   26.55    0.85
   3   0 -13    0.06    0.34
   3   0 -14   -0.32    0.31
   3   0 -15    3.84    0.65
   3   0 -16   -0.14    0.33
   3   0 -17    0.34    0.39
   3   0 -18  191.11    3.44
   3   0 -19    0.13    0.50
   3   0 -20    0.13    0.44
   3   0 -21    0.89    0.72
   3  -1 -22    0.30    0.51
   3  -1 -21   -0.06    0.40
   3  -1 -20  115.30    2.82
   3  -1 -19   -0.44    0.32
   3  -1 -18    0.36    0.60
   3  -1 -17    1.81    0.60
   3  -1 -16    0.14    0.37
   3  -1 -15    0.17    0.38
   3  -1 -14  324.23    3.97
   3  -1 -13    0.12    0.32
   3  -1 -12   -0.20    0.29
   3  -1 -11    0.78    0.31
   3  -1 -10   -0.14    0.39
   3  -1  -9    0.02    0.30
   3  -1  -8  188.05    3.77
   3  -1  -7    0.11    0.23
   3  -1  -6   -0.12    0.26
   3  -1  -5   12.76    0.58
   3  -1  -4   -0.04    0.23
   3  -1  -3   -0.04    0.21
   3  -1  -2   75.99    2.35
   3  -1  -1    0.00    0.15
   3  -1   0    0.05    0.16
   3  -2   0   -0.09    0.21
   3  -2  -1    7.04    0.39
   3  -2  -2   -0.22    0.21
   3  -2  -3    0.02    0.21
   3  -2  -4  751.81    7.90
   3  -2  -5    0.21    0.31
   3  -2  -6   -0.31    0.21
   3  -2  -7   14.81    0.66
   3  -2  -8   -0.22    0.27
   3  -2  -9   -0.03    0.28
   3  -2 -10  429.14    5.59
   3  -2 -11   -0.17    0.34
   3  -2 -12    0.40    0.30
   3  -2 -13    1.50    0.36
   3  -2 -14    0.23    0.38
   3  -2 -15    0.05    0.46
   3  -2 -16   82.93    2.13
   3  -2 -17   -0.19    0.32
   3  -2 -18   -0.13    0.40
   3  -2 -19    0.16    0.40
   3  -2 -20    0.59    0.57
   3  -2 -21    0.63    0.49
   3  -2 -22   16.93    1.35
   3  -3 -21    1.55    0.59
   3  -3 -20    0.37    0.46
   3  -3 -19    0.16    0.46
   3  -3 -18  195.22    3.48
   3  -3 -17   -0.54    0.32
   3  -3 -16   -0.18    0.36
   3  -3 -15    3.62    0.69
   3  -3 -14    0.30    0.35
   3  -3 -13    0.12    0.40
   3  -3 -12   27.44    0.97
   3  -3 -11    0.05    0.32
   3  -3 -10   -0.01    0.38
   3  -3  -9    1.62    0.35
   3  -3  -8   -0.20    0.43
   3  -3  -7    0.40    0.31
   3  -3  -6  116.80    3.01
   3  -3  -5   -0.08    0.27
   3  -3  -4   -0.09    0.24
   3  -3  -3    1.05    0.24
   3  -3  -2    0.11    0.19
   3  -3  -1    0.14    0.24
   3  -3   0 1146.84    8.20
   3  -4   0   -0.06    0.23
   3  -4  -1   -0.17    0.20
   3  -4  -2   99.51    2.45
   3  -4  -3    0.08    0.23
   3  -4  -4    0.39    0.26
   3  -4  -5    1.83    0.34
   3  -4  -6    0.03    0.32
   3  -4  -7   -0.14    0.30
   3  -4  -8  193.71    3.37
   3  -4  -9    0.08    0.29
   3  -4 -10    0.37    0.26
   3  -4 -11    0.12    0.38
   3  -4 -12    0.19    0.29
   3  -4 -13    0.62    0.43
   3  -4 -14  198.51    3.19
   3  -4 -15    0.85    0.48
   3  -4 -16   -0.07    0.35
   3  -4 -17   -0.02    0.51
   3  -4 -18   -0.29    0.37
   3  -4 -19   -0.48    0.31
   3  -4 -20  136.82    3.17
   3  -5 -19    0.39    0.54
   3  -5 -18    0.06    0.44
   3  -5 -17   -0.15    0.46
   3  -5 -16   62.17    2.16
   3  -5 -15   -0.48    0.36
   3  -5 -14    0.14    0.39
   3  -5 -13   -0.30    0.39
   3  -5 -12    0.07    0.38
   3  -5 -11    0.29    0.42
   3  -5 -10  218.46    3.09
   3  -5  -9    0.27    0.30
   3  -5  -8   -0.27    0.26
   3  -5  -7    1.56    0.31
   3  -5  -6   -0.21    0.25
   3  -5  -5   -0.03    0.27
   3  -5  -4  374.23    4.28
   3  -5  -3    0.15    0.20
   3  -5  -2   -0.34    0.22
   3  -5  -1    0.28    0.24
   3  -5   0   -0.28    0.21
   3  -6   0  434.50    4.02
   3  -6  -1    0.00    0.26
   3  -6  -2   -0.03    0.34
   3  -6  -3    0.37    0.32
   3  -6  -4   -0.18    0.23
   3  -6  -5    0.19    0.30
   3  -6  -6   68.07    1.72
   3  -6  -7    0.08    0.36
   3  -6  -8    0.23    0.32
   3  -6  -9    0.78    0.56
   3  -6 -10   -0.18    0.32
   3  -6 -11    0.45    0.35
   3  -6 -12    5.27    0.86
   3  -6 -13    0.01    0.40
   3  -6 -14   -0.05    0.44
   3  -6 -15    1.67    0.64
   3  -6 -16    0.30    0.50
   3  -6 -17   -0.35    0.37
   3  -7 -14   83.61    2.69
   3  -7 -13    0.32    0.56
   3  -7 -12   -0.15    0.45
   3  -7 -11    0.11    0.40
   3  -7 -10    0.16    0.44
   3  -7  -9    0.22    0.51
   3  -7  -8  105.27    2.49
   3  -7  -7    0.05    0.42
   3  -7  -6    0.41    0.32
   3  -7  -5   -0.02    0.34
   3  -7  -4   -0.07    0.30
   3  -7  -3    0.05    0.43
   3  -7  -2   46.37    1.62
   3  -7  -1    0.31    0.32
   3  -7   0    0.08    0.29
   3  -8   0    0.04    0.38
   3  -8  -1   -0.59    0.29
   3  -8  -2    0.24    0.42
   3  -8  -3    0.25    0.50
   3  -8  -4  131.69    2.94
   3  -8  -5   -0.49    0.38
   3  -8  -6    0.24    0.41
   3  -8  -7   -0.15    0.36
   3  -8  -8    0.05    0.41
   4   4   9    0.28    0.58
   4   4   8   -0.04    0.39
   4   4   7   -0.50    0.37
   4   4   6   84.08    2.49
   4   4   5    0.02    0.37
   4   4   4   -0.11    0.36
   4   4   3    0.78    0.64
   4   4   2   -0.26    0.33
   4   4   1    0.04    0.33
   4   3   1    0.31    0.31
   4   3   2   -0.18    0.34
   4   3   3    0.05    0.37
   4   3   4   87.79    2.16
   4   3   5   -0.13    0.31
   4   3   6   -0.01    0.31
   4   3   7    0.11    0.40
   4   3   8    0.30    0.37
   4   3   9   -0.15    0.37
   4   3  10  208.76    3.74
   4   3  11   -0.01    0.39
   4   3  12   -0.20    0.43
   4   3  13    0.59    0.54
   4   3  14   -0.07    0.39
   4   2  17    0.46    0.58
   4   2  16    0.28    0.45
   4   2  15   -0.40    0.36
   4   2  14  147.23    3.14
   4   2  13   -0.50    0.30
   4   2  12    0.53    0.46
   4   2  11    0.30    0.58
   4   2  10    0.44    0.39
   4   2   9   -0.18    0.28
   4   2   8   82.84    2.04
   4   2   7   -0.08    0.32
   4   2   6   -0.41    0.31
   4   2   5    1.83    0.48
   4   2   4   -0.09    0.25
   4   2   3   -0.11    0.28
   4   2   2   33.35    1.19
   4   2   1   -0.01    0.19
   4   1   1    0.03    0.25
   4   1   2    0.05    0.22
   4   1   3   11.24    0.57
   4   1   4   -0.04    0.24
   4   1   5   -0.28    0.21
   4   1   6  248.34    3.37
   4   1   7    0.07    0.24
   4   1   8    0.07    0.23
   4   1   9    6.14    0.76
   4   1  10    0.10    0.35
   4   1  11    0.23    0.30
   4   1  12    8.67    0.80
   4   1  13   -0.04    0.34
   4   1  14    0.20    0.35
   4   1  15    6.40    0.84
   4   1  16    0.34    0.49
   4   1  17    0.39    0.52
   4   1  18   41.28    1.95
   4   0  20   -0.03    0.42
   4   0  19    0.00    0.43
   4   0  18   -0.11    0.41
   4   0  17   -0.42    0.32
   4   0  16   27.32    1.39
   4   0  15    0.11    0.40
   4   0  14    0.72    0.41
   4   0  13    0.51    0.49
   4   0  12   -0.30    0.30
   4   0  11    0.04    0.29
   4   0  10  355.96    4.18
   4   0   9    0.46    0.23
   4   0   8   -0.14    0.25
   4   0   7    9.71    0.54
   4   0   6    0.10    0.24
   4   0   5    0.26    0.22
   4   0   4  257.60    3.80
   4   0   3    0.22    0.20
   4   0   2   -0.22    0.24
   4   0   1    0.23    0.22
   4  -1   1    0.53    0.21
   4  -1   2   96.88    2.42
   4  -1   3   -0.09    0.23
   4  -1   4    0.00    0.22
   4  -1   5    1.58    0.31
   4  -1   6   -0.12    0.21
   4  -1   7    0.03    0.28
   4  -1   8  184.44    3.44
   4  -1   9    0.06    0.25
   4  -1  10    0.31    0.29
   4  -1  11   -0.01    0.27
   4  -1  12   -0.13    0.24
   4  -1  13   -0.16    0.28
   4  -1  14  190.90    3.20
   4  -1  15    0.24    0.40
   4  -1  16    0.29    0.43
   4  -1  17    0.11    0.41
   4  -1  18   -0.17    0.47
   4  -1  19    0.07    0.38
   4  -1  20  127.05    3.16
   4  -1  21    0.29    0.49
   4  -2  21    1.43    0.73
   4  -2  20   -0.86    0.31
   4  -2  19    0.04    0.49
   4  -2  18   54.75    2.10
   4  -2  17    0.13    0.45
   4  -2  16   -0.15    0.29
   4  -2  15   12.52    1.04
   4  -2  14   -0.19    0.34
   4  -2  13    0.32    0.36
   4  -2  12   19.95    0.77
   4  -2  11    0.87    0.34
   4  -2  10   -0.16    0.26
   4  -2   9   23.58    0.92
   4  -2   8   -0.15    0.31
   4  -2   7   -0.30    0.35
   4  -2   6  426.34    5.70
   4  -2   5    0.30    0.30
   4  -2   4   -0.12    0.26
   4  -2   3   28.60    0.96
   4  -2   2    0.13    0.21
   4  -2   1    0.41    0.23
   4  -3   1    3.67    0.38
   4  -3   2   -0.07    0.22
   4  -3   3    0.10    0.21
   4  -3   4  421.26    4.86
   4  -3   5    0.07    0.24
   4  -3   6   -0.15    0.26
   4  -3   7   12.11    0.55
   4  -3   8    0.10    0.34
   4  -3   9    0.24    0.29
   4  -3  10  354.85    4.47
   4  -3  11   -0.19    0.28
   4  -3  12    0.24    0.26
   4  -3  13    4.35    0.75
   4  -3  14   -0.04    0.34
   4  -3  15   -0.17    0.34
   4  -3  16   55.25    1.96
   4  -3  17    0.83    0.51
   4  -3  18    0.22    0.38
   4  -3  19   -0.21    0.45
   4  -3  20   -0.42    0.44
   4  -3  21    0.31    0.49
   4  -4  20  130.03    3.24
   4  -4  19    0.36    0.52
   4  -4  18    0.43    0.44
   4  -4  17    0.38    0.51
   4  -4  16    0.04    0.39
   4  -4  15   -0.11    0.34
   4  -4  14  172.28    3.12
   4  -4  13    0.16    0.36
   4  -4  12    0.47    0.34
   4  -4  11    0.72    0.28
   4  -4  10   -0.05    0.25
   4  -4   9   -0.17    0.25
   4  -4   8  164.22    2.88
   4  -4   7   -0.14    0.22
   4  -4   6   -0.04    0.28
   4  -4   5   -0.19    0.21
   4  -4   4    0.36    0.22
   4  -4   3   -0.23    0.28
   4  -4   2   81.94    2.14
   4  -4   1    0.14    0.22
   4  -5   1    0.31    0.20
   4  -5   2   -0.14    0.21
   4  -5   3   13.12    0.55
   4  -5   4   -0.07    0.23
   4  -5   5    0.23    0.20
   4  -5   6  240.26    3.18
   4  -5   7    0.34    0.26
   4  -5   8    0.08    0.24
   4  -5   9    9.53    0.68
   4  -5  10    0.13    0.27
   4  -5  11   -0.25    0.39
   4  -5  12    6.34    0.82
   4  -5  13    0.27    0.35
   4  -5  14   -0.11    0.41
   4  -5  15    6.58    0.85
   4  -5  16   -0.27    0.37
   4  -5  17   -0.06    0.33
   4  -5  18   50.43    2.15
   4  -6  17    0.49    0.53
   4  -6  16   52.97    2.14
   4  -6  15   -0.13    0.43
   4  -6  14   -0.43    0.42
   4  -6  13    3.44    0.73
   4  -6  12    0.16    0.40
   4  -6  11    0.43    0.45
   4  -6  10  162.07    2.83
   4  -6   9   -0.48    0.28
   4  -6   8    0.12    0.34
   4  -6   7    7.74    0.77
   4  -6   6   -0.05    0.27
   4  -6   5   -0.22    0.30
   4  -6   4  249.02    3.04
   4  -6   3   -0.13    0.27
   4  -6   2    0.05    0.30
   4  -6   1    6.89    0.41
   4  -7   1   -0.08    0.33
   4  -7   2   24.60    1.23
   4  -7   3    0.40    0.46
   4  -7   4    0.11    0.32
   4  -7   5    0.56    0.41
   4  -7   6   -0.34    0.31
   4  -7   7   -0.13    0.28
   4  -7   8   63.27    2.02
   4  -7   9    0.29    0.44
   4  -7  10    0.64    0.38
   4  -7  11   -0.03    0.39
   4  -7  12   -0.53    0.41
   4  -7  13   -0.38    0.41
   4  -7  14  110.09    2.91
   4  -8   9    0.85    0.56
   4  -8   8   -0.34    0.37
   4  -8   7    0.08    0.35
   4  -8   6   98.49    2.52
   4  -8   5   -0.16    0.33
   4  -8   4    0.95    0.51
   4  -8   3    2.91    0.94
   4  -8   2   -0.03    0.36
   4  -8   1   -0.02    0.41
   4  -8   0  131.92    2.85
   4  -8  -1   -0.28    0.37
   4  -8  -2   -0.24    0.42
   4  -8  -3    1.10    0.69
   4  -8  -4   -0.03    0.32
   4  -8  -5    0.37    0.48
   4  -8  -6   83.52    2.46
   4  -8  -7    0.26    0.47
   4  -8  -8    0.41    0.36
   4  -8  -9    3.63    1.07
   4  -7 -14    0.04    0.48
   4  -7 -13    1.23    0.85
   4  -7 -12   -0.06    0.40
   4  -7 -11    0.14    0.46
   4  -7 -10  177.43    3.44
   4  -7  -9    0.24    0.43
   4  -7  -8   -0.10    0.41
   4  -7  -7    0.84    0.71
   4  -7  -6    0.08    0.37
   4  -7  -5   -0.50    0.34
   4  -7  -4  127.47    2.66
   4  -7  -3    0.60    0.42
   4  -7  -2    0.06    0.34
   4  -7  -1    0.70    0.45
   4  -7   0   -0.24    0.38
   4  -6   0    0.13    0.21
   4  -6  -1   -0.12    0.26
   4  -6  -2   11.68    0.77
   4  -6  -3   -0.04    0.26
   4  -6  -4    0.03    0.33
   4  -6  -5    6.63    0.69
   4  -6  -6    0.14    0.32
   4  -6  -7   -0.16    0.30
   4  -6  -8   55.11    1.78
   4  -6  -9    0.06    0.40
   4  -6 -10   -0.27    0.30
   4  -6 -11    8.76    0.97
   4  -6 -12    0.83    0.64
   4  -6 -13   -0.11    0.50
   4  -6 -14  175.24    3.54
   4  -6 -15    0.65    0.56
   4  -6 -16   -0.23    0.39
   4  -6 -17    5.01    0.93
   4  -5 -18   76.96    2.52
   4  -5 -17    0.07    0.53
   4  -5 -16    0.28    0.40
   4  -5 -15    7.34    0.89
   4  -5 -14   -0.11    0.48
   4  -5 -13   -0.40    0.36
   4  -5 -12    1.14    0.77
   4  -5 -11    0.05    0.40
   4  -5 -10    0.55    0.45
   4  -5  -9   17.38    0.98
   4  -5  -8    0.14    0.37
   4  -5  -7   -0.02    0.29
   4  -5  -6  209.10    3.18
   4  -5  -5    0.04    0.29
   4  -5  -4    0.41    0.30
   4  -5  -3   25.56    0.90
   4  -5  -2    0.02    0.26
   4  -5  -1    0.06    0.30
   4  -5   0  307.67    3.81
   4  -4   0   -0.08    0.29
   4  -4  -1   -0.09    0.31
   4  -4  -2   -0.11    0.26
   4  -4  -3   -0.18    0.25
   4  -4  -4  270.95    4.17
   4  -4  -5    0.02    0.24
   4  -4  -6    0.05    0.28
   4  -4  -7    3.85    0.45
   4  -4  -8   -0.35    0.34
   4  -4  -9    0.07    0.33
   4  -4 -10  384.60    4.44
   4  -4 -11    0.19    0.36
   4  -4 -12   -0.03    0.36
   4  -4 -13    0.22    0.53
   4  -4 -14    0.40    0.47
   4  -4 -15    0.36    0.48
   4  -4 -16   27.31    1.47
   4  -4 -17   -0.29    0.38
   4  -4 -18   -0.21    0.34
   4  -4 -19    0.16    0.49
   4  -4 -20   -0.35    0.44
   4  -3 -20  121.61    3.11
   4  -3 -19    0.81    0.52
   4  -3 -18   -0.06    0.42
   4  -3 -17    1.66    0.58
   4  -3 -16   -0.22    0.40
   4  -3 -15   -0.64    0.34
   4  -3 -14  236.30    3.67
   4  -3 -13   -0.11    0.39
   4  -3 -12   -0.13    0.43
   4  -3 -11    6.07    0.52
   4  -3 -10    0.15    0.37
   4  -3  -9    0.96    0.49
   4  -3  -8  142.60    3.29
   4  -3  -7   -0.48    0.30
   4  -3  -6    0.26    0.38
   4  -3  -5    4.32    0.42
   4  -3  -4    0.03    0.30
   4  -3  -3    0.31    0.28
   4  -3  -2   58.42    2.23
   4  -3  -1    0.34    0.28
   4  -3   0    0.01    0.22
   4  -2   0  518.20    6.20
   4  -2  -1    0.32    0.29
   4  -2  -2   -0.01    0.27
   4  -2  -3   70.00    2.49
   4  -2  -4    0.01    0.35
   4  -2  -5    0.20    0.38
   4  -2  -6  363.57    5.38
   4  -2  -7   -0.07    0.48
   4  -2  -8   -0.16    0.31
   4  -2  -9   33.38    1.13
   4  -2 -10   -0.17    0.30
   4  -2 -11   -0.18    0.38
   4  -2 -12    3.94    0.45
   4  -2 -13   -0.23    0.32
   4  -2 -14   -0.32    0.36
   4  -2 -15   13.94    0.99
   4  -2 -16   -0.33    0.35
   4  -2 -17   -0.28    0.37
   4  -2 -18   85.48    2.47
   4  -2 -19    0.16    0.39
   4  -2 -20    0.11    0.43
   4  -2 -21    7.06    1.05
   4  -1 -20   -0.01    0.44
   4  -1 -19    0.68    0.52
   4  -1 -18   -0.45    0.42
   4  -1 -17    0.32    0.53
   4  -1 -16   33.10    1.44
   4  -1 -15   -0.05    0.35
   4  -1 -14   -0.03    0.36
   4  -1 -13   -0.62    0.32
   4  -1 -12   -0.10    0.34
   4  -1 -11    0.38    0.29
   4  -1 -10  446.05    5.00
   4  -1  -9    0.02    0.32
   4  -1  -8    0.00    0.31
   4  -1  -7    1.15    0.29
   4  -1  -6    0.12    0.27
   4  -1  -5    0.07    0.30
   4  -1  -4  338.02    4.67
   4  -1  -3    0.12    0.30
   4  -1  -2    0.12    0.27
   4  -1  -1    2.24    0.30
   4  -1   0   -0.11    0.24
   4   0   0   -0.01    0.20
   4   0  -1   -0.16    0.21
   4   0  -2   80.44    2.16
   4   0  -3   -0.02    0.25
   4   0  -4   -0.50    0.23
   4   0  -5   -0.10    0.25
   4   0  -6   -0.14    0.24
   4   0  -7    0.32    0.28
   4   0  -8  167.78    2.90
   4   0  -9    0.21    0.30
   4   0 -10   -0.14    0.31
   4   0 -11    0.72    0.46
   4   0 -12   -0.33    0.30
   4   0 -13   -0.32    0.33
   4   0 -14  174.10    3.05
   4   0 -15    0.08    0.46
   4   0 -16   -0.37    0.37
   4   0 -17    0.43    0.43
   4   0 -18    0.53    0.46
   4   0 -19   -0.25    0.38
   4   0 -20  140.76    3.26
   4   1 -18   68.83    2.48
   4   1 -17    0.46    0.44
   4   1 -16    0.83    0.54
   4   1 -15    7.49    1.13
   4   1 -14    0.48    0.51
   4   1 -13    0.10    0.38
   4   1 -12    2.67    0.62
   4   1 -11    0.22    0.31
   4   1 -10    0.02    0.35
   4   1  -9   16.80    0.95
   4   1  -8   -0.12    0.28
   4   1  -7    0.56    0.22
   4   1  -6  220.88    3.09
   4   1  -5   -0.03    0.26
   4   1  -4    0.00    0.30
   4   1  -3   24.14    0.77
   4   1  -2    0.11    0.24
   4   1  -1   -0.12    0.23
   4   1   0  304.06    3.81
   4   2   0   -0.02    0.20
   4   2  -1    2.71    0.35
   4   2  -2    0.03    0.32
   4   2  -3   -0.17    0.24
   4   2  -4  171.51    2.57
   4   2  -5    0.30    0.32
   4   2  -6   -0.06    0.24
   4   2  -7    0.53    0.38
   4   2  -8    0.10    0.37
   4   2  -9   -0.42    0.30
   4   2 -10  224.51    3.37
   4   2 -11   -0.50    0.40
   4   2 -12    0.16    0.42
   4   2 -13   -0.22    0.37
   4   2 -14   -0.05    0.43
   4   2 -15    0.35    0.45
   4   2 -16   21.13    1.51
   4   2 -17    0.06    0.54
   4   3 -14   84.90    2.56
   4   3 -13    0.16    0.46
   4   3 -12    0.04    0.39
   4   3 -11   -0.43    0.29
   4   3 -10    0.14    0.39
   4   3  -9    0.57    0.43
   4   3  -8   94.90    2.37
   4   3  -7   -0.17    0.29
   4   3  -6   -0.10    0.35
   4   3  -5    0.20    0.42
   4   3  -4   -0.29    0.33
   4   3  -3   -0.04    0.30
   4   3  -2   47.92    1.54
   4   3  -1   -0.07    0.32
   4   3   0   -0.06    0.30
   4   4   0  139.49    2.83
   4   4  -1   -0.24    0.33
   4   4  -2    0.15    0.35
   4   4  -3    1.06    0.71
   4   4  -4    0.02    0.31
   4   4  -5   -0.45    0.36
   4   4  -6   82.17    2.36
   4   4  -7    0.21    0.49
   4   4  -8    0.01    0.41
   4   4  -9    2.92    0.82
   5  -8   8    0.17    0.44
   5  -8   7    6.50    0.95
   5  -8   6   -0.22    0.35
   5  -8   5   -0.13    0.37
   5  -8   4  143.76    3.05
   5  -8   3    0.24    0.46
   5  -8   2   -0.49    0.32
   5  -8   1    4.68    0.94
   5  -7   1    0.49    0.41
   5  -7   2    0.21    0.40
   5  -7   3    4.69    0.65
   5  -7   4   -0.20    0.33
   5  -7   5   -0.01    0.31
   5  -7   6  126.95    2.63
   5  -7   7    0.16    0.41
   5  -7   8   -0.06    0.34
   5  -7   9    6.61    0.99
   5  -7  10    0.24    0.48
   5  -7  11   -0.04    0.35
   5  -7  12    0.96    0.71
   5  -7  13   -0.98    0.39
   5  -6  16    0.11    0.45
   5  -6  15   -0.07    0.51
   5  -6  14  174.97    3.55
   5  -6  13   -0.38    0.41
   5  -6  12   -0.07    0.42
   5  -6  11    2.94    0.81
   5  -6  10    0.06    0.42
   5  -6   9    0.05    0.36
   5  -6   8   47.99    1.66
   5  -6   7    0.44    0.36
   5  -6   6    0.41    0.38
   5  -6   5    5.58    0.62
   5  -6   4    0.05    0.25
   5  -6   3   -0.35    0.22
   5  -6   2   12.96    0.85
   5  -6   1    0.16    0.31
   5  -5   1    4.68    0.41
   5  -5   2   -0.20    0.24
   5  -5   3   -0.23    0.25
   5  -5   4  290.28    3.37
   5  -5   5    0.04    0.26
   5  -5   6    0.10    0.23
   5  -5   7    2.79    0.53
   5  -5   8    0.00    0.31
   5  -5   9    0.55    0.41
   5  -5  10  186.41    3.09
   5  -5  11   -0.20    0.32
   5  -5  12    0.05    0.37
   5  -5  13    1.05    0.68
   5  -5  14   -0.06    0.39
   5  -5  15   -0.25    0.41
   5  -5  16   49.87    2.08
   5  -5  17   -0.03    0.48
   5  -4  18   71.43    2.55
   5  -4  17    0.29    0.55
   5  -4  16    0.11    0.39
   5  -4  15    7.60    1.00
   5  -4  14   -0.08    0.38
   5  -4  13    0.42    0.42
   5  -4  12    1.51    0.59
   5  -4  11   -0.20    0.32
   5  -4  10   -0.33    0.30
   5  -4   9   18.41    1.03
   5  -4   8    0.06    0.26
   5  -4   7   -0.22    0.25
   5  -4   6  223.11    3.19
   5  -4   5   -0.14    0.24
   5  -4   4   -0.01    0.23
   5  -4   3   22.44    1.13
   5  -4   2   -0.34    0.18
   5  -4   1    0.49    0.25
   5  -3   1   -0.16    0.29
   5  -3   2   14.86    0.78
   5  -3   3   -0.12    0.21
   5  -3   4   -0.11    0.22
   5  -3   5   11.14    0.65
   5  -3   6    0.28    0.45
   5  -3   7    0.20    0.29
   5  -3   8   71.00    2.09
   5  -3   9    0.49    0.33
   5  -3  10   -0.15    0.39
   5  -3  11    2.63    0.86
   5  -3  12    0.09    0.31
   5  -3  13   -0.02    0.38
   5  -3  14  259.86    4.01
   5  -3  15    0.46    0.49
   5  -3  16   -0.22    0.34
   5  -3  17    1.91    0.72
   5  -3  18   -0.22    0.42
   5  -3  19    0.30    0.58
   5  -2  19   -0.30    0.53
   5  -2  18    0.10    0.39
   5  -2  17    0.37    0.44
   5  -2  16   64.69    2.21
   5  -2  15   -0.10    0.37
   5  -2  14   -0.45    0.31
   5  -2  13    0.28    0.46
   5  -2  12    0.04    0.39
   5  -2  11   -0.11    0.31
   5  -2  10  226.40    3.40
   5  -2   9   -0.12    0.32
   5  -2   8    0.16    0.28
   5  -2   7    1.50    0.39
   5  -2   6    0.14    0.27
   5  -2   5    0.28    0.23
   5  -2   4  380.10    4.32
   5  -2   3   -0.19    0.19
   5  -2   2    0.03    0.26
   5  -2   1   -0.11    0.22
   5  -1   1    0.06    0.21
   5  -1   2   -0.02    0.19
   5  -1   3   25.49    1.23
   5  -1   4    0.08    0.24
   5  -1   5   -0.17    0.22
   5  -1   6  208.83    3.10
   5  -1   7    0.07    0.25
   5  -1   8   -0.02    0.22
   5  -1   9   15.54    1.00
   5  -1  10    0.12    0.28
   5  -1  11   -0.22    0.30
   5  -1  12    1.20    0.64
   5  -1  13   -0.51    0.30
   5  -1  14   -0.06    0.44
   5  -1  15    5.95    0.99
   5  -1  16    0.45    0.46
   5  -1  17   -0.31    0.41
   5  -1  18   80.16    2.56
   5   0  17    0.32    0.62
   5   0  16   -0.46    0.40
   5   0  15    0.11    0.50
   5   0  14  223.32    3.82
   5   0  13    0.15    0.36
   5   0  12    0.06    0.34
   5   0  11    0.44    0.50
   5   0  10   -0.36    0.34
   5   0   9   -0.39    0.31
   5   0   8   44.79    1.52
   5   0   7    0.31    0.26
   5   0   6   -0.27    0.25
   5   0   5    3.29    0.38
   5   0   4    0.44    0.27
   5   0   3   -0.11    0.23
   5   0   2    7.32    0.49
   5   0   1   -0.25    0.22
   5   1   1    5.59    0.63
   5   1   2    0.03    0.29
   5   1   3    0.19    0.32
   5   1   4  234.55    3.17
   5   1   5   -0.23    0.26
   5   1   6   -0.11    0.28
   5   1   7    4.64    0.69
   5   1   8    0.41    0.37
   5   1   9    0.01    0.32
   5   1  10  127.30    2.81
   5   1  11    0.04    0.45
   5   1  12   -0.18    0.37
   5   1  13    3.64    0.74
   5   1  14   -0.16    0.42
   5   1  15    0.55    0.50
   5   1  16   47.49    2.10
   5   2  13    0.19    0.51
   5   2  12    0.63    0.57
   5   2  11   -0.65    0.42
   5   2  10   -0.10    0.32
   5   2   9    5.28    0.94
   5   2   8    0.06    0.42
   5   2   7   -0.38    0.42
   5   2   6  109.57    2.47
   5   2   5   -0.07    0.44
   5   2   4   -0.18    0.33
   5   2   3    6.02    0.73
   5   2   2   -0.29    0.38
   5   2   1   -0.14    0.33
   5   3   1    0.58    0.43
   5   3   2    3.07    0.74
   5   3   3    0.33    0.41
   5   3   4    0.56    0.45
   5   3   5    0.02    0.41
   5   3   6   -0.11    0.45
   5   3   7    0.09    0.46
   5   3   8   25.02    1.53
   5   3  -8    0.40    0.46
   5   3  -7    1.29    0.49
   5   3  -6   -0.18    0.40
   5   3  -5   -0.13    0.42
   5   3  -4  141.06    2.92
   5   3  -3    0.25    0.50
   5   3  -2   -0.38    0.33
   5   3  -1    1.03    0.56
   5   3   0    0.40    0.38
   5   2   0  176.46    2.93
   5   2  -1   -0.19    0.33
   5   2  -2    0.07    0.33
   5   2  -3    4.36    0.77
   5   2  -4   -0.30    0.31
   5   2  -5    0.03    0.39
   5   2  -6  115.73    2.56
   5   2  -7    0.18    0.40
   5   2  -8   -0.03    0.36
   5   2  -9    0.81    0.82
   5   2 -10    0.44    0.50
   5   2 -11    0.21    0.42
   5   2 -12    3.02    0.67
   5   2 -13    0.25    0.46
   5   1 -16   -0.13    0.40
   5   1 -15   -0.39    0.37
   5   1 -14  166.10    3.38
   5   1 -13   -0.13    0.42
   5   1 -12   -0.45    0.29
   5   1 -11    7.56    0.94
   5   1 -10    0.08    0.35
   5   1  -9   -0.03    0.32
   5   1  -8   49.64    1.64
   5   1  -7   -0.35    0.32
   5   1  -6   -0.15    0.40
   5   1  -5    4.02    0.72
   5   1  -4   -0.21    0.26
   5   1  -3   -0.29    0.26
   5   1  -2    6.47    0.71
   5   1  -1    0.03    0.32
   5   1   0    0.24    0.30
   5   0   0    0.10    0.22
   5   0  -1    4.95    0.42
   5   0  -2    0.18    0.26
   5   0  -3    0.39    0.23
   5   0  -4  303.82    3.45
   5   0  -5    0.05    0.30
   5   0  -6    0.06    0.30
   5   0  -7    1.94    0.50
   5   0  -8    0.57    0.37
   5   0  -9   -0.23    0.38
   5   0 -10  182.73    2.99
   5   0 -11    0.69    0.52
   5   0 -12   -0.27    0.39
   5   0 -13    2.48    0.82
   5   0 -14   -0.37    0.41
   5   0 -15    0.49    0.58
   5   0 -16   51.00    2.08
   5   0 -17   -0.28    0.51
   5  -1 -18   46.28    2.07
   5  -1 -17   -0.07    0.39
   5  -1 -16    0.16    0.44
   5  -1 -15    5.43    1.06
   5  -1 -14    0.51    0.53
   5  -1 -13   -0.18    0.36
   5  -1 -12    7.69    0.88
   5  -1 -11    0.10    0.43
   5  -1 -10    0.03    0.38
   5  -1  -9   10.33    0.85
   5  -1  -8    0.03    0.30
   5  -1  -7    0.00    0.28
   5  -1  -6  237.22    3.43
   5  -1  -5   -0.04    0.33
   5  -1  -4   -0.28    0.28
   5  -1  -3   13.64    0.57
   5  -1  -2   -0.10    0.24
   5  -1  -1    0.41    0.21
   5  -1   0  319.43    3.93
   5  -2   0   -0.21    0.26
   5  -2  -1    0.00    0.32
   5  -2  -2   12.98    0.58
   5  -2  -3    0.03    0.30
   5  -2  -4    0.11    0.29
   5  -2  -5    0.30    0.30
   5  -2  -6    0.20    0.33
   5  -2  -7    0.04    0.32
   5  -2  -8   70.35    2.06
   5  -2  -9    0.08    0.35
   5  -2 -10    0.10    0.39
   5  -2 -11    1.76    0.49
   5  -2 -12   -0.01    0.35
   5  -2 -13   -0.27    0.57
   5  -2 -14  240.42    3.81
   5  -2 -15   -0.09    0.46
   5  -2 -16   -0.30    0.36
   5  -2 -17    1.82    0.58
   5  -2 -18   -0.05    0.42
   5  -2 -19   -0.24    0.57
   5  -3 -19    4.33    1.23
   5  -3 -18    0.73    0.55
   5  -3 -17    0.09    0.40
   5  -3 -16   52.43    2.06
   5  -3 -15   -0.11    0.42
   5  -3 -14    0.41    0.45
   5  -3 -13    5.50    0.89
   5  -3 -12    0.22    0.45
   5  -3 -11   -0.19    0.35
   5  -3 -10  259.53    3.63
   5  -3  -9    0.03    0.32
   5  -3  -8   -0.22    0.34
   5  -3  -7   13.58    0.74
   5  -3  -6    0.20    0.42
   5  -3  -5   -0.09    0.30
   5  -3  -4  384.74    5.24
   5  -3  -3    0.13    0.34
   5  -3  -2   -0.28    0.32
   5  -3  -1   16.73    0.78
   5  -3   0    0.27    0.36
   5  -4   0  307.78    4.11
   5  -4  -1    0.16    0.35
   5  -4  -2    0.15    0.32
   5  -4  -3   12.13    0.62
   5  -4  -4    0.64    0.31
   5  -4  -5   -0.02    0.34
   5  -4  -6  268.37    3.97
   5  -4  -7   -0.59    0.34
   5  -4  -8   -0.27    0.37
   5  -4  -9    9.06    0.84
   5  -4 -10    0.33    0.40
   5  -4 -11    0.02    0.47
   5  -4 -12   10.19    0.91
   5  -4 -13    0.52    0.55
   5  -4 -14   -0.54    0.46
   5  -4 -15    5.05    1.21
   5  -4 -16    0.47    0.48
   5  -4 -17   -0.34    0.37
   5  -4 -18   45.80    2.09
   5  -5 -17    0.07    0.59
   5  -5 -16   -0.88    0.43
   5  -5 -15   -0.49    0.32
   5  -5 -14  219.20    3.93
   5  -5 -13   -0.64    0.38
   5  -5 -12    0.04    0.44
   5  -5 -11    0.66    0.56
   5  -5 -10    0.07    0.41
   5  -5  -9    0.62    0.45
   5  -5  -8   45.00    1.70
   5  -5  -7    0.35    0.46
   5  -5  -6    0.50    0.39
   5  -5  -5    3.74    0.48
   5  -5  -4   -0.05    0.31
   5  -5  -3   -0.22    0.30
   5  -5  -2    7.52    0.48
   5  -5  -1    0.02    0.29
   5  -5   0    0.16    0.29
   5  -6   0    0.38    0.32
   5  -6  -1    6.00    0.67
   5  -6  -2   -0.25    0.25
   5  -6  -3   -0.38    0.35
   5  -6  -4  196.94    3.10
   5  -6  -5   -0.26    0.27
   5  -6  -6    0.29    0.38
   5  -6  -7    4.33    0.67
   5  -6  -8   -0.26    0.43
   5  -6  -9    0.28    0.46
   5  -6 -10  184.84    3.50
   5  -6 -11    0.58    0.55
   5  -6 -12    0.02    0.44
   5  -6 -13    2.29    0.79
   5  -6 -14   -0.69    0.35
   5  -6 -15    0.01    0.46
   5  -6 -16   25.90    1.74
   5  -7 -13    0.29    0.51
   5  -7 -12    2.29    1.06
   5  -7 -11   -0.57    0.50
   5  -7 -10   -0.36    0.46
   5  -7  -9    0.86    0.59
   5  -7  -8    0.25    0.42
   5  -7  -7    0.01    0.45
   5  -7  -6  129.24    2.82
   5  -7  -5    0.13    0.44
   5  -7  -4    0.04    0.39
   5  -7  -3    3.42    0.70
   5  -7  -2    0.25    0.42
   5  -7  -1    0.28    0.45
   5  -7   0  163.10    2.87
   5  -8   0    0.58    0.51
   5  -8  -1    0.19    0.42
   5  -8  -2    2.15    0.66
   5  -8  -3   -0.23    0.47
   5  -8  -4   -0.06    0.46
   5  -8  -5    5.10    0.88
   5  -8  -6    0.43    0.48
   5  -8  -7    0.59    0.57
   5  -8  -8   15.40    1.38
   6   2   6    0.47    0.50
   6   2   5   -0.45    0.42
   6   2   4  129.83    2.95
   6   2   3    0.01    0.39
   6   2   2   -0.25    0.41
   6   2   1    5.63    0.73
   6   1   1    0.32    0.43
   6   1   2    9.54    0.89
   6   1   3   -0.31    0.29
   6   1   4    0.22    0.46
   6   1   5    3.26    0.76
   6   1   6    0.07    0.37
   6   1   7   -0.17    0.39
   6   1   8   41.11    1.77
   6   1   9    0.01    0.35
   6   1  10   -0.03    0.33
   6   1  11    1.57    0.78
   6   0  14    0.79    0.49
   6   0  13    0.09    0.44
   6   0  12    3.80    0.85
   6   0  11    0.57    0.46
   6   0  10    0.24    0.32
   6   0   9   -0.06    0.42
   6   0   8   -0.13    0.33
   6   0   7    0.00    0.32
   6   0   6   57.58    1.80
   6   0   5    0.51    0.40
   6   0   4   -0.19    0.26
   6   0   3    0.23    0.36
   6   0   2    0.14    0.32
   6   0   1    0.22    0.40
   6  -1   1    6.42    0.62
   6  -1   2   -0.08    0.24
   6  -1   3   -0.12    0.23
   6  -1   4  200.00    2.94
   6  -1   5   -0.05    0.28
   6  -1   6   -0.05    0.26
   6  -1   7    4.46    0.66
   6  -1   8   -0.18    0.35
   6  -1   9   -0.45    0.30
   6  -1  10  181.70    3.27
   6  -1  11   -0.04    0.43
   6  -1  12    0.16    0.45
   6  -1  13    0.66    0.78
   6  -1  14    0.24    0.42
   6  -1  15    0.40    0.48
   6  -1  16   23.08    1.69
   6  -2  17    4.79    0.98
   6  -2  16    0.05    0.37
   6  -2  15    0.11    0.47
   6  -2  14  173.79    3.55
   6  -2  13    0.24    0.40
   6  -2  12    0.11    0.44
   6  -2  11    7.12    1.00
   6  -2  10   -0.04    0.40
   6  -2   9    0.01    0.31
   6  -2   8   53.12    1.78
   6  -2   7   -0.02    0.31
   6  -2   6    0.24    0.32
   6  -2   5    7.41    0.74
   6  -2   4   -0.19    0.23
   6  -2   3   -0.15    0.29
   6  -2   2   11.73    0.54
   6  -2   1    0.00    0.20
   6  -3   1    0.43    0.32
   6  -3   2   -0.30    0.26
   6  -3   3   -0.14    0.24
   6  -3   4   -0.08    0.23
   6  -3   5    0.13    0.28
   6  -3   6   72.65    1.96
   6  -3   7    0.25    0.33
   6  -3   8   -0.59    0.27
   6  -3   9    0.10    0.44
   6  -3  10   -0.09    0.35
   6  -3  11    0.20    0.41
   6  -3  12    7.77    1.12
   6  -3  13    0.56    0.47
   6  -3  14    0.00    0.51
   6  -3  15    0.74    0.65
   6  -3  16    0.62    0.53
   6  -3  17    0.81    0.65
   6  -4  17   -0.39    0.45
   6  -4  16   22.56    1.55
   6  -4  15    0.55    0.52
   6  -4  14    0.05    0.38
   6  -4  13    0.02    0.42
   6  -4  12   -0.27    0.35
   6  -4  11    0.22    0.44
   6  -4  10  247.16    3.89
   6  -4   9   -0.41    0.36
   6  -4   8    0.03    0.38
   6  -4   7    0.25    0.40
   6  -4   6   -0.04    0.28
   6  -4   5    0.01    0.29
   6  -4   4  169.34    2.59
   6  -4   3    0.20    0.32
   6  -4   2    0.01    0.30
   6  -4   1    3.09    0.41
   6  -5   1    0.06    0.34
   6  -5   2    6.93    0.71
   6  -5   3   -0.29    0.24
   6  -5   4   -0.03    0.23
   6  -5   5    5.13    0.70
   6  -5   6    0.08    0.31
   6  -5   7   -0.18    0.38
   6  -5   8   44.44    1.62
   6  -5   9    0.02    0.41
   6  -5  10    0.31    0.37
   6  -5  11    4.77    0.87
   6  -5  12   -0.73    0.35
   6  -5  13    0.46    0.50
   6  -5  14  165.24    3.67
   6  -5  15    0.05    0.43
   6  -5  16    0.08    0.47
   6  -6  14    0.34    0.65
   6  -6  13    0.33    0.45
   6  -6  12    5.85    0.90
   6  -6  11   -0.03    0.38
   6  -6  10    0.01    0.37
   6  -6   9    0.40    0.50
   6  -6   8   -0.01    0.37
   6  -6   7    0.31    0.43
   6  -6   6   55.17    1.77
   6  -6   5   -0.07    0.33
   6  -6   4    0.53    0.34
   6  -6   3   -0.13    0.32
   6  -6   2   -0.32    0.33
   6  -6   1    0.26    0.34
   6  -7   1    0.07    0.34
   6  -7   2   -0.06    0.31
   6  -7   3    0.27    0.40
   6  -7   4   83.62    2.22
   6  -7   5    0.41    0.36
   6  -7   6   -0.11    0.30
   6  -7   7   -0.21    0.38
   6  -7   8   -0.26    0.33
   6  -7   9    1.04    0.57
   6  -7  10  187.03    3.66
   6  -7  11    0.17    0.49
   6  -8   6   -0.02    0.37
   6  -8   5    0.76    0.72
   6  -8   4    0.31    0.44
   6  -8   3    0.25    0.46
   6  -8   2    4.26    0.74
   6  -8   1    0.31    0.50
   6  -8   0    0.40    0.48
   6  -8  -1    1.15    0.83
   6  -8  -2    0.33    0.51
   6  -8  -3    0.18    0.44
   6  -8  -4  134.59    3.19
   6  -8  -5    0.14    0.48
   6  -8  -6   -0.21    0.42
   6  -7 -11   -0.30    0.82
   6  -7 -10    0.31    0.51
   6  -7  -9   -0.43    0.42
   6  -7  -8   82.34    2.63
   6  -7  -7   -0.11    0.41
   6  -7  -6   -0.58    0.48
   6  -7  -5    0.87    0.54
   6  -7  -4    0.34    0.40
   6  -7  -3   -0.38    0.37
   6  -7  -2   33.30    1.64
   6  -7  -1    0.50    0.45
   6  -7   0    0.19    0.37
   6  -6   0  305.86    3.90
   6  -6  -1   -0.22    0.39
   6  -6  -2    0.11    0.37
   6  -6  -3    0.05    0.38
   6  -6  -4   -0.07    0.43
   6  -6  -5   -0.66    0.33
   6  -6  -6   58.16    2.06
   6  -6  -7   -0.28    0.33
   6  -6  -8    0.42    0.41
   6  -6  -9    0.59    0.58
   6  -6 -10   -0.27    0.44
   6  -6 -11    1.01    0.54
   6  -6 -12    3.61    1.08
   6  -6 -13   -0.02    0.44
   6  -6 -14   -0.05    0.54
   6  -5 -16   48.09    2.26
   6  -5 -15    0.71    0.66
   6  -5 -14    0.40    0.53
   6  -5 -13    4.17    0.84
   6  -5 -12   -0.18    0.46
   6  -5 -11    0.41    0.62
   6  -5 -10  152.92    3.35
   6  -5  -9   -0.13    0.48
   6  -5  -8    0.00    0.45
   6  -5  -7    5.80    0.87
   6  -5  -6   -0.17    0.34
   6  -5  -5   -0.28    0.38
   6  -5  -4  257.72    3.77
   6  -5  -3   -0.08    0.39
   6  -5  -2    0.08    0.32
   6  -5  -1    5.91    0.64
   6  -5   0   -0.37    0.27
   6  -4   0   -0.39    0.30
   6  -4  -1   -0.06    0.40
   6  -4  -2   38.71    1.62
   6  -4  -3    0.10    0.39
   6  -4  -4   -0.18    0.32
   6  -4  -5    4.40    0.85
   6  -4  -6    0.48    0.51
   6  -4  -7   -0.47    0.44
   6  -4  -8   85.99    2.37
   6  -4  -9   -0.34    0.43
   6  -4 -10   -0.75    0.28
   6  -4 -11    0.41    0.55
   6  -4 -12    0.43    0.61
   6  -4 -13    0.04    0.54
   6  -4 -14  151.50    3.44
   6  -4 -15    0.46    0.59
   6  -4 -16   -0.04    0.64
   6  -4 -17    0.06    0.64
   6  -3 -17    0.88    0.57
   6  -3 -16   -0.51    0.44
   6  -3 -15    0.11    0.56
   6  -3 -14    0.24    0.53
   6  -3 -13   -0.27    0.37
   6  -3 -12    6.97    1.02
   6  -3 -11    0.47    0.46
   6  -3 -10   -0.36    0.38
   6  -3  -9   -0.06    0.47
   6  -3  -8   -0.35    0.41
   6  -3  -7    0.15    0.40
   6  -3  -6   74.95    2.06
   6  -3  -5    0.14    0.41
   6  -3  -4   -0.32    0.36
   6  -3  -3   -0.16    0.36
   6  -3  -2   -0.18    0.31
   6  -3  -1   -0.08    0.32
   6  -3   0  478.70    4.89
   6  -2   0   -0.09    0.26
   6  -2  -1    8.05    0.54
   6  -2  -2    0.17    0.31
   6  -2  -3   -0.10    0.36
   6  -2  -4  272.72    3.44
   6  -2  -5   -0.23    0.35
   6  -2  -6    0.01    0.36
   6  -2  -7    7.53    0.85
   6  -2  -8    0.41    0.42
   6  -2  -9   -0.99    0.36
   6  -2 -10  170.62    3.20
   6  -2 -11    0.27    0.48
   6  -2 -12   -0.37    0.38
   6  -2 -13    5.54    0.83
   6  -2 -14    0.07    0.46
   6  -2 -15   -0.17    0.50
   6  -2 -16   54.13    2.25
   6  -2 -17   -0.28    0.43
   6  -1 -16   -0.41    0.37
   6  -1 -15   -0.11    0.47
   6  -1 -14  175.21    3.58
   6  -1 -13   -0.07    0.45
   6  -1 -12    0.10    0.38
   6  -1 -11    3.46    0.65
   6  -1 -10   -0.32    0.38
   6  -1  -9   -0.50    0.35
   6  -1  -8   50.80    1.78
   6  -1  -7   -0.64    0.30
   6  -1  -6   -0.44    0.34
   6  -1  -5    5.34    0.69
   6  -1  -4    0.54    0.43
   6  -1  -3   -0.13    0.31
   6  -1  -2   13.33    0.94
   6  -1  -1   -0.05    0.26
   6  -1   0   -0.02    0.27
   6   0   0  302.93    3.75
   6   0  -1    0.34    0.43
   6   0  -2    0.02    0.29
   6   0  -3    0.06    0.40
   6   0  -4    0.35    0.38
   6   0  -5   -0.28    0.39
   6   0  -6   58.16    1.78
   6   0  -7   -0.21    0.36
   6   0  -8    0.11    0.36
   6   0  -9    0.30    0.39
   6   0 -10   -0.19    0.38
   6   0 -11    0.21    0.33
   6   0 -12    4.85    0.75
   6   0 -13   -0.27    0.40
   6   0 -14    0.27    0.56
   6   1 -11    0.21    0.50
   6   1 -10  115.46    2.87
   6   1  -9   -0.08    0.47
   6   1  -8    0.26    0.41
   6   1  -7    1.48    0.80
   6   1  -6   -0.04    0.31
   6   1  -5   -0.63    0.33
   6   1  -4  142.49    2.87
   6   1  -3    0.27    0.42
   6   1  -2   -0.03    0.34
   6   1  -1    3.77    0.62
   6   1   0   -0.08    0.35
   6   2   0    0.04    0.44
   6   2  -1    0.24    0.35
   6   2  -2    1.73    0.91
   6   2  -3   -0.07    0.34
   6   2  -4   -0.14    0.45
   6   2  -5    4.63    0.78
   6   2  -6   -0.06    0.34
   7  -7   1    0.24    0.40
   7  -7   2   29.19    1.54
   7  -7   3    0.26    0.44
   7  -7   4   -0.22    0.33
   7  -7   5   -0.38    0.37
   7  -7   6    0.07    0.42
   7  -7   7    0.30    0.57
   7  -7   8   70.35    2.28
   7  -6  11   -0.24    0.47
   7  -6  10  125.71    3.14
   7  -6   9    0.07    0.41
   7  -6   8    0.25    0.45
   7  -6   7    3.13    0.88
   7  -6   6   -0.55    0.26
   7  -6   5   -0.09    0.32
   7  -6   4  140.93    2.90
   7  -6   3   -0.10    0.34
   7  -6   2    0.43    0.40
   7  -6   1    2.89    0.82
   7  -5   1    0.30    0.41
   7  -5   2   -0.16    0.30
   7  -5   3    4.07    0.70
   7  -5   4    0.24    0.37
   7  -5   5    0.04    0.34
   7  -5   6  121.66    2.61
   7  -5   7   -0.05    0.41
   7  -5   8    0.44    0.40
   7  -5   9    2.99    0.79
   7  -5  10   -0.11    0.47
   7  -5  11    0.15    0.50
   7  -5  12    3.05    0.82
   7  -5  13   -0.22    0.46
   7  -4  14   88.05    2.92
   7  -4  13    0.53    0.60
   7  -4  12    0.00    0.46
   7  -4  11    0.45    0.53
   7  -4  10    0.08    0.52
   7  -4   9   -0.37    0.48
   7  -4   8  110.47    3.03
   7  -4   7   -0.04    0.42
   7  -4   6   -0.01    0.53
   7  -4   5   -0.10    0.44
   7  -4   4   -0.09    0.41
   7  -4   3   -0.30    0.39
   7  -4   2   51.97    2.09
   7  -4   1   -0.02    0.48
   7  -3   1    0.63    0.41
   7  -3   2   -0.52    0.29
   7  -3   3   -0.07    0.40
   7  -3   4  133.52    2.61
   7  -3   5   -0.14    0.29
   7  -3   6   -0.11    0.32
   7  -3   7    1.62    0.56
   7  -3   8   -0.21    0.34
   7  -3   9    0.76    0.54
   7  -3  10  179.99    3.70
   7  -3  11    0.59    0.49
   7  -3  12    0.03    0.41
   7  -3  13    3.34    0.69
   7  -3  14    0.04    0.50
   7  -2  13    0.06    0.50
   7  -2  12    1.01    1.03
   7  -2  11    0.35    0.54
   7  -2  10    0.09    0.41
   7  -2   9    0.89    0.55
   7  -2   8   -0.17    0.40
   7  -2   7   -0.16    0.30
   7  -2   6  119.08    2.66
   7  -2   5    0.35    0.31
   7  -2   4   -0.02    0.32
   7  -2   3    3.24    0.67
   7  -2   2    0.04    0.41
   7  -2   1    0.19    0.35
   7  -1   1    0.28    0.37
   7  -1   2   35.10    1.51
   7  -1   3    0.01    0.35
   7  -1   4   -0.13    0.38
   7  -1   5    0.16    0.43
   7  -1   6   -0.14    0.30
   7  -1   7   -0.46    0.33
   7  -1   8   81.38    2.36
   7  -1   9    0.00    0.40
   7  -1  10   -0.24    0.38
   7  -1  11   -0.14    0.38
   7   0   8    0.15    0.39
   7   0   7    0.04    0.39
   7   0   6   -0.01    0.38
   7   0   5   -0.01    0.31
   7   0   4   69.57    2.17
   7   0   3    0.15    0.46
   7   0   2    0.08    0.47
   7   0   1   -0.07    0.40
   7   0   0    0.20    0.46
   7   0  -1    0.21    0.43
   7   0  -2   32.52    1.54
   7   0  -3    0.22    0.44
   7   0  -4   -0.18    0.42
   7   0  -5   -0.12    0.41
   7   0  -6   -0.10    0.40
   7   0  -7   -0.13    0.46
   7   0  -8   67.75    2.30
   7  -1 -11   -0.59    0.44
   7  -1 -10  191.13    3.81
   7  -1  -9    0.02    0.48
   7  -1  -8   -0.14    0.46
   7  -1  -7    0.13    0.42
   7  -1  -6    0.28    0.42
   7  -1  -5    0.34    0.40
   7  -1  -4   85.60    2.26
   7  -1  -3    0.04    0.41
   7  -1  -2   -0.04    0.35
   7  -1  -1    0.30    0.36
   7  -1   0    0.50    0.41
   7  -2   0  165.92    2.87
   7  -2  -1   -0.04    0.30
   7  -2  -2    0.30    0.35
   7  -2  -3    6.70    0.84
   7  -2  -4    0.22    0.43
   7  -2  -5    0.44    0.41
   7  -2  -6  125.09    2.78
   7  -2  -7   -0.38    0.45
   7  -2  -8    0.25    0.46
   7  -2  -9    4.87    0.90
   7  -2 -10    0.16    0.49
   7  -2 -11    0.25    0.48
   7  -2 -12    0.97    0.62
   7  -2 -13   -0.40    0.53
   7  -3 -14  115.34    3.15
   7  -3 -13    0.16    0.48
   7  -3 -12    0.22    0.53
   7  -3 -11   -0.14    0.54
   7  -3 -10    0.15    0.51
   7  -3  -9   -0.08    0.53
   7  -3  -8   73.13    2.41
   7  -3  -7    0.38    0.46
   7  -3  -6   -0.90    0.41
   7  -3  -5    0.05    0.49
   7  -3  -4    0.45    0.51
   7  -3  -3    0.28    0.44
   7  -3  -2   28.67    1.39
   7  -3  -1   -0.42    0.30
   7  -3   0    0.14    0.45
   7  -4   0   -0.77    0.42
   7  -4  -1    0.41    0.58
   7  -4  -2    0.04    0.57
   7  -4  -3   -0.16    0.44
   7  -4  -4  103.50    2.66
   7  -4  -5    0.60    0.50
   7  -4  -6   -0.20    0.48
   7  -4  -7   -0.06    0.47
   7  -4  -8   -0.73    0.47
   7  -4  -9    0.40    0.52
   7  -4 -10  238.06    4.30
   7  -4 -11   -0.55    0.61
   7  -4 -12   -0.45    0.45
   7  -4 -13    0.88    0.69
   7  -4 -14   -0.39    0.49
   7  -5 -13   -0.39    0.53
   7  -5 -12   -0.15    0.52
   7  -5 -11   -0.19    0.47
   7  -5 -10   -0.20    0.57
   7  -5  -9    7.63    1.10
   7  -5  -8   -0.02    0.55
   7  -5  -7    0.12    0.53
   7  -5  -6  117.00    3.06
   7  -5  -5   -0.56    0.40
   7  -5  -4   -0.21    0.49
   7  -5  -3    6.09    1.00
   7  -5  -2   -0.02    0.45
   7  -5  -1   -0.31    0.50
   7  -5   0  181.07    3.52
   7  -6   0   -0.28    0.40
   7  -6  -1   -0.13    0.38
   7  -6  -2   11.21    1.13
   7  -6  -3   -0.30    0.39
   7  -6  -4   -0.08    0.46
   7  -6  -5    2.04    0.96
   7  -6  -6    0.20    0.55
   7  -6  -7   -0.28    0.54
   7  -6  -8   42.74    2.04
   7  -6  -9   -0.10    0.50
   7  -6 -10    0.29    0.43
   7  -6 -11    1.75    0.99
   7  -7  -8   -0.53    0.42
   7  -7  -7    1.27    0.73
   7  -7  -6    0.41    0.52
   7  -7  -5   -0.22    0.35
   7  -7  -4   76.26    2.42
   7  -7  -3   -0.09    0.51
   7  -7  -2    0.29    0.49
   7  -7  -1    0.09    0.37
   7  -7   0    0.47    0.39
   8  -2   6    0.17    0.44
   8  -2   5   -0.08    0.38
   8  -2   4  128.02    2.95
   8  -2   3   -0.25    0.43
   8  -2   2   -0.27    0.39
   8  -2   1    0.89    0.63
   8  -3   1   -0.09    0.39
   8  -3   2    1.75    0.73
   8  -3   3   -0.31    0.37
   8  -3   4    0.29    0.42
   8  -3   5    6.80    0.94
   8  -3   6    0.02    0.38
   8  -3   7   -0.86    0.39
   8  -3   8   16.94    1.41
   8  -4   9    4.89    1.15
   8  -4   8   -0.34    0.41
   8  -4   7   -0.26    0.35
   8  -4   6   80.71    2.37
   8  -4   6   87.06    2.46
   8  -4   5    0.14    0.33
   8  -4   4   -0.37    0.35
   8  -4   3    2.89    0.74
   8  -4   2   -0.12    0.49
   8  -4   1    0.18    0.51
   8  -5   1   -0.04    0.49
   8  -5   2    0.25    0.55
   8  -5   3   -0.17    0.44
   8  -5   4  146.41    3.41
   8  -5   5    0.13    0.30
   8  -5   6    0.37    0.47
   8  -5   7    1.01    0.64
   8  -5   8    0.55    0.65
   8  -6   6   -0.64    0.40
   8  -6   5    5.61    1.02
   8  -6   4    0.26    0.45
   8  -6   3    0.48    0.54
   8  -6   2    0.68    0.81
   8  -6   1   -0.44    0.47
   8  -6   0   -0.54    0.49
   8  -6  -1    5.35    1.06
   8  -6  -2   -0.17    0.50
   8  -6  -3    0.05    0.59
   8  -6  -4  144.18    3.78
   8  -6  -5   -0.05    0.47
   8  -6  -6    0.45    0.67
   8  -5  -8   27.20    1.89
   8  -5  -7    0.07    0.69
   8  -5  -6   -0.73    0.52
   8  -5  -5   -0.02    0.50
   8  -5  -4    0.16    0.61
   8  -5  -3   -0.12    0.64
   8  -5  -2    5.46    0.99
   8  -5  -1    0.33    0.64
   8  -5   0    0.13    0.52
   8  -4   0  156.15    3.54
   8  -4  -1   -0.84    0.59
   8  -4  -2   -0.47    0.42
   8  -4  -3    3.15    1.07
   8  -4  -4   -0.40    0.47
   8  -4  -5    0.12    0.54
   8  -4  -6  104.52    3.14
   8  -4  -7    0.24    0.54
   8  -4  -8    0.20    0.73
   8  -4  -9    0.20    0.63
   8  -3  -8   -0.38    0.53
   8  -3  -7    6.63    1.04
   8  -3  -6   -0.40    0.52
   8  -3  -5   -0.48    0.42
   8  -3  -4  156.77    3.48
   8  -3  -3    0.07    0.46
   8  -3  -2   -0.23    0.49
   8  -3  -1    6.31    1.08
   8  -3   0    0.27    0.43
   8  -2   0   -0.18    0.45
   8  -2  -1   -0.21    0.38
   8  -2  -2    5.91    1.00
   8  -2  -3   -0.18    0.39
   8  -2  -4    0.51    0.48
   8  -2  -5    0.48    0.77
   8  -2  -6    0.19    0.49
   0   0   0    0.00    0.00
;
_shelx_hkl_checksum              23201
_shelx_res_file
;
    zeo.res created by SHELXL-2014/7
TITL zeo in R-3
CELL 0.71073   5.0770   5.0770  13.9621  90.000  90.000 120.000
ZERR    6.00   0.0004   0.0004   0.0014   0.000   0.000   0.000
LATT  3
SYMM -Y, X-Y, Z
SYMM -X+Y, -X, Z
SFAC O CR FE
UNIT 18 6 6
TEMP 25
L.S. 10
ACTA
BOND
FMAP 2
PLAN 10
WGHT    0.030100    1.156400
EXTI    0.025382
FVAR       0.18684
CR1   2    0.000000    0.000000    0.354117    10.33333    0.00548    0.00548 =
         0.00513    0.00000    0.00000    0.00274
FE2   3    0.000000    0.000000    0.145226    10.33333    0.00757    0.00757 =
         0.00626    0.00000    0.00000    0.00379
O1    1    0.298580   -0.015459    0.253025    11.00000    0.00748    0.00762 =
         0.00627    0.00100    0.00098    0.00444
HKLF 4
REM  zeo in R-3
REM R1 =  0.0202 for     324 Fo > 4sig(Fo)  and  0.0236 for all     373 data
REM     17 parameters refined using      0 restraints
END
WGHT      0.0304      1.1425
REM Highest difference peak  0.647,  deepest hole -1.185,  1-sigma level  0.171
Q1    1   0.0573  0.1621  0.1492  11.00000  0.05    0.52
Q2    1  -0.0575  0.0761  0.3326  11.00000  0.05    0.45
Q3    1   0.0184 -0.1028  0.3810  11.00000  0.05    0.45
Q4    1  -0.1420 -0.0018  0.1235  11.00000  0.05    0.43
Q5    1   0.0000  0.0000  0.5000  10.16667  0.05    0.33
Q6    1  -0.1136  0.1132  0.3660  11.00000  0.05    0.31
Q7    1   0.2285  0.0734  0.2967  11.00000  0.05    0.30
Q8    1   0.1068 -0.1250  0.2197  11.00000  0.05    0.29
Q9    1   0.0551 -0.1540  0.2736  11.00000  0.05    0.24
Q10   1   0.4517 -0.0256  0.2041  11.00000  0.05    0.21
;
_shelx_res_checksum              37508
loop_
_space_group_symop_operation_xyz
'x, y, z'
'-y, x-y, z'
'-x+y, -x, z'
'x+2/3, y+1/3, z+1/3'
'-y+2/3, x-y+1/3, z+1/3'
'-x+y+2/3, -x+1/3, z+1/3'
'x+1/3, y+2/3, z+2/3'
'-y+1/3, x-y+2/3, z+2/3'
'-x+y+1/3, -x+2/3, z+2/3'
'-x, -y, -z'
'y, -x+y, -z'
'x-y, x, -z'
'-x+2/3, -y+1/3, -z+1/3'
'y+2/3, -x+y+1/3, -z+1/3'
'x-y+2/3, x+1/3, -z+1/3'
'-x+1/3, -y+2/3, -z+2/3'
'y+1/3, -x+y+2/3, -z+2/3'
'x-y+1/3, x+2/3, -z+2/3'
loop_
_atom_site_type_symbol
_atom_site_label
_atom_site_fract_x
_atom_site_fract_y
_atom_site_fract_z
_atom_site_U_iso_or_equiv
_atom_site_adp_type
_atom_site_calc_flag
_atom_site_occupancy
Cr Cr1 0.0000 0.0000 0.35412(2) 0.00537(13) Uani d 1
Fe Fe2 0.0000 0.0000 0.14523(2) 0.00713(13) Uani d 1
O O1 0.2986(2) -0.0155(2) 0.25302(7) 0.00683(19) Uani d 1
loop_
_atom_site_aniso_label
_atom_site_aniso_U_11
_atom_site_aniso_U_22
_atom_site_aniso_U_33
_atom_site_aniso_U_12
_atom_site_aniso_U_13
_atom_site_aniso_U_23
Cr1 0.00548(15) 0.00548(15) 0.00513(18) 0.00274(7) 0.000 0.000
Fe2 0.00757(15) 0.00757(15) 0.00626(18) 0.00379(8) 0.000 0.000
O1 0.0075(4) 0.0076(4) 0.0063(4) 0.0044(3) 0.0010(3) 0.0010(3)
loop_
_atom_type_symbol
_atom_type_description
_atom_type_scat_dispersion_real
_atom_type_scat_dispersion_imag
_atom_type_scat_source
O O 0.0106 0.0060 'International Tables Vol C Tables 4.2.6.8 and 6.1.1.4'
Cr Cr 0.3209 0.6236 'International Tables Vol C Tables 4.2.6.8 and 6.1.1.4'
Fe Fe 0.3463 0.8444 'International Tables Vol C Tables 4.2.6.8 and 6.1.1.4'
loop_
_diffrn_standard_refln_index_h
_diffrn_standard_refln_index_k
_diffrn_standard_refln_index_l
-3 0 0
-1 1 4
0 1 -4
loop_
_geom_angle_atom_site_label_1
_geom_angle_atom_site_label_2
_geom_angle_atom_site_label_3
_geom_angle_site_symmetry_1
_geom_angle_site_symmetry_3
_geom_angle
O1 Cr1 O1 18_445 17 102.31(4)
O1 Cr1 O1 18_445 16_545 102.30(4)
O1 Cr1 O1 17 16_545 102.30(4)
O1 Cr1 O1 18_445 3 83.51(4)
O1 Cr1 O1 17 3 162.57(4)
O1 Cr1 O1 16_545 3 92.31(6)
O1 Cr1 O1 18_445 2 92.31(6)
O1 Cr1 O1 17 2 83.51(4)
O1 Cr1 O1 16_545 2 162.57(4)
O1 Cr1 O1 3 2 79.82(4)
O1 Cr1 O1 18_445 . 162.57(4)
O1 Cr1 O1 17 . 92.31(6)
O1 Cr1 O1 16_545 . 83.51(4)
O1 Cr1 O1 3 . 79.82(4)
O1 Cr1 O1 2 . 79.82(4)
O1 Cr1 Fe2 18_445 . 115.93(3)
O1 Cr1 Fe2 17 . 115.93(3)
O1 Cr1 Fe2 16_545 . 115.93(3)
O1 Cr1 Fe2 3 . 47.80(3)
O1 Cr1 Fe2 2 . 47.80(3)
O1 Cr1 Fe2 . . 47.80(3)
O1 Fe2 O1 15_445 13 101.68(3)
O1 Fe2 O1 15_445 14_455 101.68(3)
O1 Fe2 O1 13 14_455 101.68(3)
O1 Fe2 O1 15_445 2 162.41(3)
O1 Fe2 O1 13 2 89.39(5)
O1 Fe2 O1 14_455 2 89.21(4)
O1 Fe2 O1 15_445 3 89.21(4)
O1 Fe2 O1 13 3 162.41(3)
O1 Fe2 O1 14_455 3 89.39(5)
O1 Fe2 O1 2 3 77.01(4)
O1 Fe2 O1 15_445 . 89.39(5)
O1 Fe2 O1 13 . 89.21(4)
O1 Fe2 O1 14_455 . 162.41(3)
O1 Fe2 O1 2 . 77.01(4)
O1 Fe2 O1 3 . 77.01(4)
O1 Fe2 Cr1 15_445 . 116.45(3)
O1 Fe2 Cr1 13 . 116.45(3)
O1 Fe2 Cr1 14_455 . 116.45(3)
O1 Fe2 Cr1 2 . 45.96(3)
O1 Fe2 Cr1 3 . 45.96(3)
O1 Fe2 Cr1 . . 45.96(3)
Cr1 O1 Fe2 16_545 13 119.94(5)
Cr1 O1 Cr1 16_545 . 96.49(4)
Fe2 O1 Cr1 13 . 129.23(5)
Cr1 O1 Fe2 16_545 . 134.33(5)
Fe2 O1 Fe2 13 . 90.79(4)
Cr1 O1 Fe2 . . 86.24(4)
loop_
_geom_bond_atom_site_label_1
_geom_bond_atom_site_label_2
_geom_bond_site_symmetry_2
_geom_bond_distance
Cr1 O1 18_445 1.9003(10)
Cr1 O1 17 1.9003(10)
Cr1 O1 16_545 1.9003(10)
Cr1 O1 3 2.1013(10)
Cr1 O1 2 2.1013(10)
Cr1 O1 . 2.1013(10)
Cr1 Fe2 . 2.9166(6)
Fe2 O1 15_445 2.0348(10)
Fe2 O1 13 2.0348(10)
Fe2 O1 14_455 2.0348(10)
Fe2 O1 2 2.1653(10)
Fe2 O1 3 2.1653(10)
Fe2 O1 . 2.1653(10)
O1 Cr1 16_545 1.9003(10)
O1 Fe2 13 2.0348(10)

_cod_database_fobs_code 2107479
