#------------------------------------------------------------------------------
#$Date: 2017-02-04 05:54:59 +0200 (Sat, 04 Feb 2017) $
#$Revision: 191415 $
#$URL: file:///home/coder/svn-repositories/cod/cif/2/10/80/2108027.cif $
#------------------------------------------------------------------------------
#
# This file is available in the Crystallography Open Database (COD),
# http://www.crystallography.net/. The original data for this entry
# were provided by IUCr Journals, http://journals.iucr.org/.
#
# The file may be used within the scientific community so long as
# proper attribution is given to the journal article from which the
# data were obtained.
#
data_2108027
loop_
_publ_author_name
'Fabrykiewicz, P.'
'Stekiel, M.'
'Sosnowska, I.'
'Przenios\/lo, R.'
_publ_section_title
;
 Deformations of the \a-Fe~2~O~3~ rhombohedral lattice across the N\'eel
 temperature
;
_journal_coeditor_code           DQ5016
_journal_issue                   1
_journal_name_full               'Acta Crystallographica Section B'
_journal_page_first              27
_journal_page_last               32
_journal_paper_doi               10.1107/S2052520616017935
_journal_volume                  73
_journal_year                    2017
_chemical_formula_sum            'Fe2 O3'
_chemical_formula_weight         159.7
_chemical_name_common            hematite
_space_group_IT_number           15
_symmetry_cell_setting           monoclinic
_symmetry_Int_Tables_number      15
_symmetry_space_group_name_Hall  '-C 2yc'
_symmetry_space_group_name_H-M   'C 1 2/c 1'
_cell_angle_alpha                90
_cell_angle_beta                 162.4043(3)
_cell_angle_gamma                90
_cell_formula_units_Z            4
_cell_length_a                   9.61865(9)
_cell_length_b                   5.03554(3)
_cell_length_c                   13.75158(13)
_cell_measurement_reflns_used    935
_cell_measurement_temperature    293
_cell_measurement_theta_max      30.0
_cell_measurement_theta_min      5.0
_cell_volume                     201.349(4)
_diffrn_ambient_temperature      293
_diffrn_radiation_probe          x-ray
_diffrn_radiation_type           synchrotron
_diffrn_radiation_wavelength     0.40086
_exptl_crystal_density_diffrn    5.2679
_exptl_crystal_F_000             304
_pd_meas_2theta_range_inc        0.001
_pd_meas_2theta_range_max        48.004
_pd_meas_2theta_range_min        5.000
_pd_meas_number_of_points        43005
_pd_proc_2theta_range_inc        0.001
_pd_proc_2theta_range_max        29.999
_pd_proc_2theta_range_min        5
_pd_proc_ls_background_function  '5 Legendre polynoms'
_pd_proc_ls_pref_orient_corr     none
_pd_proc_ls_profile_function     Pseudo-Voigt
_pd_proc_ls_prof_R_factor        0.0969
_pd_proc_ls_prof_wR_expected     0.0942
_pd_proc_ls_prof_wR_factor       0.1294
_refine_ls_goodness_of_fit_all   1.37
_refine_ls_number_constraints    0
_refine_ls_number_parameters     21
_refine_ls_number_restraints     0
_refine_ls_R_factor_all          0.0317
_refine_ls_R_factor_gt           0.0210
_refine_ls_shift/su_max          0.0245
_refine_ls_shift/su_mean         0.0074
_refine_ls_weighting_scheme      sigma
_refine_ls_wR_factor_all         0.0316
_refine_ls_wR_factor_gt          0.0294
_cod_data_source_file            dq5016sup1.cif
_cod_data_source_block           I
_cod_depositor_comments
;
The following automatic conversions were performed:

'_diffrn_radiation_probe' value 'X-ray' changed to 'x-ray' according
to
/usr/data/users/saulius/crontab/automatic-downloads/rss-feeds/IUCr/lib/dictionaries/cif_core.dic
dictionary named 'cif_core.dic' version 2.4.2 from 2011-04-26.

Automatic conversion script
Id: cif_fix_values 4268 2015-11-12 08:31:59Z antanas 

 Adding full bibliography for 2108027--2108028.cif.
;
_cod_original_cell_volume        201.348(4)
_cod_database_code               2108027
_cod_database_fobs_code          2108027
loop_
_space_group_symop_id
_space_group_symop_operation_xyz
1 x,y,z
2 -x,y,-z+1/2
3 -x,-y,-z
4 x,-y,z+1/2
5 x+1/2,y+1/2,z
6 -x+1/2,y+1/2,-z+1/2
7 -x+1/2,-y+1/2,-z
8 x+1/2,-y+1/2,z+1/2
loop_
_atom_site_label
_atom_site_type_symbol
_atom_site_fract_x
_atom_site_fract_y
_atom_site_fract_z
_atom_site_adp_type
_atom_site_U_iso_or_equiv
_atom_site_site_symmetry_multiplicity
_atom_site_occupancy
_atom_site_calc_flag
Fe1 Fe 0 0 0.14473(3) Uiso 0.0033 8 1 d
O1 O 0 0.309(3) 0.25 Uiso 0.0005 4 1 d
O2 O -0.449(2) -0.156(2) -0.050(2) Uiso 0.0005 8 1 d
loop_
_atom_type_symbol
_atom_type_scat_dispersion_real
_atom_type_scat_dispersion_imag
_atom_type_scat_source
Fe 0.1893 0.2910 'International Tables Vol C tables 4.2.6.8 and 6.1.1.1'
O 0.0016 0.0017 'International Tables Vol C tables 4.2.6.8 and 6.1.1.1'
loop_
_pd_proc_point_id
_pd_proc_2theta_corrected
_pd_proc_intensity_net
_pd_calc_intensity_net
_pd_proc_ls_weight
1 4.9980 202.85 237.56 16.44
2 4.9990 231.01 237.50 15.17
3 5.0000 239.79 237.43 15.55
4 5.0010 199.46 237.37 14.16
5 5.0020 219.39 237.30 14.73
6 5.0030 215.26 237.24 14.56
7 5.0040 213.22 237.18 14.43
8 5.0050 211.71 237.11 14.39
9 5.0060 224.92 237.05 14.92
10 5.0070 192.31 236.98 13.74
11 5.0080 214.24 236.92 14.51
12 5.0090 208.31 236.85 14.32
13 5.0100 211.93 236.79 14.54
14 5.0110 241.18 236.73 15.58
15 5.0120 227.46 236.66 15.03
16 5.0130 215.83 236.60 14.56
17 5.0140 208.86 236.53 14.32
18 5.0150 212.35 236.47 14.46
19 5.0160 221.77 236.40 14.82
20 5.0170 229.26 236.34 15.01
21 5.0180 221.44 236.27 14.74
22 5.0190 202.83 236.21 14.19
23 5.0200 239.08 236.15 15.52
24 5.0210 232.63 236.08 15.29
25 5.0220 208.69 236.02 14.39
26 5.0230 206.93 235.95 14.28
27 5.0240 232.58 235.89 15.07
28 5.0250 233.04 235.82 15.08
29 5.0260 214.69 235.76 14.54
30 5.0270 211.37 235.70 14.36
31 5.0280 216.73 235.63 14.59
32 5.0290 217.12 235.57 14.60
33 5.0300 232.99 235.51 15.31
34 5.0310 218.43 235.44 14.85
35 5.0320 200.75 235.38 14.11
36 5.0330 206.53 235.31 14.21
37 5.0340 226.30 235.25 14.79
38 5.0350 207.03 235.18 14.23
39 5.0360 209.00 235.12 14.38
40 5.0370 234.39 235.06 15.16
41 5.0380 199.78 234.99 14.06
42 5.0390 226.49 234.93 15.01
43 5.0400 220.82 234.87 14.94
44 5.0410 232.80 234.80 15.32
45 5.0420 220.77 234.74 14.85
46 5.0430 243.64 234.67 15.43
47 5.0440 211.88 234.61 14.44
48 5.0450 236.33 234.54 15.25
49 5.0460 236.88 234.48 15.30
50 5.0470 229.76 234.42 15.00
51 5.0480 216.52 234.35 14.64
52 5.0490 219.58 234.29 14.70
53 5.0500 216.97 234.23 14.78
54 5.0510 211.96 234.16 14.62
55 5.0520 208.11 234.10 14.40
56 5.0530 226.87 234.04 14.83
57 5.0540 224.11 233.97 14.81
58 5.0550 222.66 233.91 14.71
59 5.0560 209.63 233.84 14.37
60 5.0570 226.99 233.78 14.83
61 5.0580 225.54 233.72 14.85
62 5.0590 211.28 233.65 14.35
63 5.0600 230.02 233.59 15.23
64 5.0610 208.56 233.53 14.44
65 5.0620 223.82 233.46 14.91
66 5.0630 215.35 233.40 14.57
67 5.0640 209.90 233.34 14.37
68 5.0650 221.62 233.27 14.69
69 5.0660 196.32 233.21 13.90
70 5.0670 241.25 233.15 15.39
71 5.0680 231.52 233.08 15.11
72 5.0690 217.59 233.02 14.65
73 5.0700 212.39 232.95 14.64
74 5.0710 235.88 232.89 15.44
75 5.0720 219.92 232.83 14.77
76 5.0730 232.61 232.76 15.08
77 5.0740 210.55 232.70 14.30
78 5.0750 252.98 232.64 15.68
79 5.0760 207.74 232.57 14.27
80 5.0770 214.66 232.51 14.51
81 5.0780 215.24 232.45 14.56
82 5.0790 226.90 232.38 14.96
83 5.0800 242.03 232.32 15.53
84 5.0810 221.37 232.26 14.86
85 5.0820 238.23 232.19 15.36
86 5.0830 201.88 232.13 13.96
87 5.0840 221.14 232.07 14.63
88 5.0850 215.50 232.00 14.51
89 5.0860 216.43 231.94 14.58
90 5.0870 225.57 231.88 14.90
91 5.0880 225.38 231.82 14.91
92 5.0890 218.82 231.75 14.71
93 5.0900 223.47 231.69 15.01
94 5.0910 230.53 231.63 15.21
95 5.0920 214.96 231.56 14.64
96 5.0930 227.35 231.50 14.88
97 5.0940 256.09 231.44 15.84
98 5.0950 220.15 231.37 14.68
99 5.0960 218.59 231.31 14.72
100 5.0970 212.97 231.25 14.44
101 5.0980 234.71 231.18 15.21
102 5.0990 221.27 231.12 14.73
103 5.1000 215.52 231.06 14.70
104 5.1010 205.99 230.99 14.36
105 5.1020 226.15 230.93 14.98
106 5.1030 220.87 230.87 14.74
107 5.1040 258.92 230.81 15.87
108 5.1050 226.11 230.74 14.85
109 5.1060 209.85 230.68 14.33
110 5.1070 222.79 230.62 14.72
111 5.1080 196.54 230.55 13.81
112 5.1090 232.21 230.49 15.06
113 5.1100 233.00 230.43 15.32
114 5.1110 232.04 230.37 15.29
115 5.1120 240.09 230.30 15.46
116 5.1130 235.53 230.24 15.20
117 5.1140 221.74 230.18 14.76
118 5.1150 227.77 230.12 14.99
119 5.1160 209.71 230.05 14.37
120 5.1170 226.34 229.99 14.89
121 5.1180 262.11 229.93 16.04
122 5.1190 231.63 229.87 15.15
123 5.1200 222.78 229.80 14.96
124 5.1210 226.63 229.74 15.16
125 5.1220 225.91 229.68 15.00
126 5.1230 232.16 229.61 15.09
127 5.1240 213.91 229.55 14.42
128 5.1250 236.47 229.49 15.24
129 5.1260 216.72 229.43 14.61
130 5.1270 201.25 229.36 14.04
131 5.1280 208.71 229.30 14.33
132 5.1290 221.68 229.24 14.75
133 5.1300 240.38 229.18 15.50
134 5.1310 226.73 229.11 15.09
135 5.1320 211.62 229.05 14.41
136 5.1330 214.18 228.99 14.44
137 5.1340 219.14 228.93 14.61
138 5.1350 226.97 228.86 14.92
139 5.1360 231.19 228.80 15.10
140 5.1370 255.11 228.74 15.86
141 5.1380 243.80 228.68 15.52
142 5.1390 231.20 228.62 15.15
143 5.1400 225.15 228.55 15.01
144 5.1410 223.74 228.49 15.01
145 5.1420 245.03 228.43 15.59
146 5.1430 254.34 228.37 15.81
147 5.1440 245.45 228.30 15.52
148 5.1450 223.20 228.24 14.81
149 5.1460 215.38 228.18 14.59
150 5.1470 216.04 228.12 14.56
151 5.1480 202.14 228.05 14.11
152 5.1490 244.19 227.99 15.51
153 5.1500 216.23 227.93 14.77
154 5.1510 224.01 227.87 15.05
155 5.1520 218.38 227.80 14.71
156 5.1530 218.64 227.74 14.67
157 5.1540 213.28 227.68 14.45
158 5.1550 233.79 227.62 15.12
159 5.1560 242.01 227.56 15.43
160 5.1570 244.96 227.49 15.43
161 5.1580 218.56 227.43 14.65
162 5.1590 220.82 227.37 14.77
163 5.1600 227.93 227.31 15.11
164 5.1610 238.70 227.25 15.46
165 5.1620 207.29 227.18 14.37
166 5.1630 227.91 227.12 14.97
167 5.1640 224.55 227.06 14.81
168 5.1650 206.52 227.00 14.24
169 5.1660 230.81 226.94 15.09
170 5.1670 221.47 226.88 14.75
171 5.1680 239.45 226.81 15.35
172 5.1690 243.19 226.75 15.50
173 5.1700 248.76 226.69 15.82
174 5.1710 228.29 226.63 15.18
175 5.1720 241.50 226.57 15.44
176 5.1730 207.31 226.50 14.24
177 5.1740 209.42 226.44 14.26
178 5.1750 219.04 226.38 14.62
179 5.1760 210.81 226.32 14.43
180 5.1770 232.16 226.26 15.09
181 5.1780 235.96 226.20 15.21
182 5.1790 244.91 226.13 15.57
183 5.1800 237.72 226.07 15.39
184 5.1810 211.53 226.01 14.54
185 5.1820 217.90 225.95 14.70
186 5.1830 226.41 225.89 14.88
187 5.1840 217.12 225.82 14.57
188 5.1850 236.71 225.76 15.18
189 5.1860 238.68 225.70 15.39
190 5.1870 220.48 225.64 14.72
191 5.1880 211.97 225.58 14.41
192 5.1890 214.65 225.52 14.57
193 5.1900 232.41 225.46 15.26
194 5.1910 254.85 225.39 16.01
195 5.1920 231.47 225.33 15.15
196 5.1930 229.42 225.27 15.00
197 5.1940 218.75 225.21 14.61
198 5.1950 241.06 225.15 15.41
199 5.1960 222.16 225.09 14.85
200 5.1970 250.73 225.02 15.67
201 5.1980 220.18 224.96 14.71
202 5.1990 221.85 224.90 14.74
203 5.2000 244.28 224.84 15.64
204 5.2010 227.16 224.78 15.13
205 5.2020 221.02 224.72 14.86
206 5.2030 247.25 224.66 15.57
207 5.2040 231.29 224.60 14.99
208 5.2050 203.94 224.53 14.14
209 5.2060 212.77 224.47 14.42
210 5.2070 217.16 224.41 14.53
211 5.2080 225.98 224.35 14.88
212 5.2090 232.74 224.29 15.18
213 5.2100 236.84 224.23 15.44
214 5.2110 248.05 224.17 15.89
215 5.2120 221.03 224.10 14.86
216 5.2130 248.86 224.04 15.69
217 5.2140 215.75 223.98 14.55
218 5.2150 246.18 223.92 15.54
219 5.2160 239.33 223.86 15.41
220 5.2170 246.65 223.80 15.62
221 5.2180 237.52 223.74 15.31
222 5.2190 206.29 223.68 14.25
223 5.2200 215.44 223.62 14.70
224 5.2210 214.68 223.55 14.72
225 5.2220 203.88 223.49 14.22
226 5.2230 232.60 223.43 15.06
227 5.2240 217.08 223.37 14.54
228 5.2250 243.39 223.31 15.44
229 5.2260 226.00 223.25 14.97
230 5.2270 216.52 223.19 14.53
231 5.2280 215.90 223.13 14.56
232 5.2290 226.31 223.07 14.93
233 5.2300 245.15 223.01 15.69
234 5.2310 219.09 222.95 14.75
235 5.2320 234.04 222.88 15.20
236 5.2330 219.32 222.82 14.72
237 5.2340 224.93 222.76 14.76
238 5.2350 231.78 222.70 15.10
239 5.2360 263.48 222.64 16.16
240 5.2370 251.03 222.58 15.72
241 5.2380 223.11 222.52 14.77
242 5.2390 231.52 222.46 15.09
243 5.2400 246.84 222.40 15.71
244 5.2410 205.41 222.34 14.38
245 5.2420 205.70 222.28 14.27
246 5.2430 210.57 222.21 14.37
247 5.2440 230.93 222.15 15.03
248 5.2450 237.23 222.09 15.23
249 5.2460 229.22 222.03 15.07
250 5.2470 229.15 221.97 14.95
251 5.2480 224.74 221.91 14.79
252 5.2490 229.36 221.85 15.04
253 5.2500 221.11 221.79 14.90
254 5.2510 216.46 221.73 14.77
255 5.2520 231.13 221.67 15.12
256 5.2530 212.99 221.61 14.46
257 5.2540 240.64 221.55 15.34
258 5.2550 219.69 221.49 14.67
259 5.2560 243.85 221.43 15.52
260 5.2570 242.65 221.37 15.42
261 5.2580 213.21 221.31 14.50
262 5.2590 223.60 221.24 14.89
263 5.2600 241.60 221.18 15.55
264 5.2610 242.05 221.12 15.76
265 5.2620 241.16 221.06 15.53
266 5.2630 219.86 221.00 14.72
267 5.2640 218.17 220.94 14.58
268 5.2650 228.52 220.88 15.05
269 5.2660 224.56 220.82 14.94
270 5.2670 211.27 220.76 14.40
271 5.2680 227.65 220.70 14.96
272 5.2690 200.61 220.64 14.13
273 5.2700 210.36 220.58 14.53
274 5.2710 244.63 220.52 15.75
275 5.2720 243.93 220.46 15.56
276 5.2730 220.19 220.40 14.72
277 5.2740 218.48 220.34 14.56
278 5.2750 219.66 220.28 14.67
279 5.2760 217.20 220.22 14.63
280 5.2770 235.16 220.16 15.16
281 5.2780 238.57 220.10 15.27
282 5.2790 237.36 220.04 15.24
283 5.2800 246.04 219.98 15.66
284 5.2810 229.58 219.92 15.20
285 5.2820 243.76 219.86 15.60
286 5.2830 248.88 219.80 15.67
287 5.2840 230.69 219.74 15.05
288 5.2850 228.69 219.68 15.02
289 5.2860 235.72 219.62 15.24
290 5.2870 250.19 219.56 15.73
291 5.2880 232.98 219.50 15.10
292 5.2890 240.46 219.44 15.44
293 5.2900 228.94 219.38 15.15
294 5.2910 215.52 219.32 14.74
295 5.2920 248.29 219.26 15.70
296 5.2930 241.65 219.20 15.44
297 5.2940 207.09 219.14 14.24
298 5.2950 250.59 219.08 15.66
299 5.2960 242.31 219.02 15.47
300 5.2970 211.59 218.96 14.47
301 5.2980 260.78 218.90 15.97
302 5.2990 224.74 218.84 14.89
303 5.3000 212.30 218.78 14.56
304 5.3010 230.91 218.72 15.28
305 5.3020 239.83 218.66 15.42
306 5.3030 243.32 218.60 15.46
307 5.3040 204.43 218.54 14.10
308 5.3050 247.67 218.48 15.60
309 5.3060 220.62 218.42 14.71
310 5.3070 256.24 218.36 15.88
311 5.3080 233.67 218.30 15.13
312 5.3090 211.43 218.24 14.49
313 5.3100 255.26 218.18 16.01
314 5.3110 228.46 218.12 15.20
315 5.3120 243.23 218.06 15.59
316 5.3130 249.33 218.00 15.64
317 5.3140 262.58 217.94 16.03
318 5.3150 247.43 217.88 15.63
319 5.3160 234.87 217.82 15.17
320 5.3170 232.86 217.76 15.18
321 5.3180 228.74 217.70 14.98
322 5.3190 235.90 217.64 15.34
323 5.3200 253.73 217.59 15.97
324 5.3210 243.53 217.52 15.63
325 5.3220 238.59 217.47 15.40
326 5.3230 239.00 217.41 15.34
327 5.3240 239.56 217.35 15.30
328 5.3250 244.46 217.29 15.45
329 5.3260 235.94 217.23 15.27
330 5.3270 231.81 217.17 15.08
331 5.3280 241.98 217.11 15.39
332 5.3290 255.58 217.05 15.91
333 5.3300 241.69 216.99 15.56
334 5.3310 234.33 216.93 15.37
335 5.3320 241.42 216.87 15.52
336 5.3330 259.27 216.81 16.00
337 5.3340 241.91 216.75 15.43
338 5.3350 235.11 216.69 15.21
339 5.3360 252.28 216.63 15.81
340 5.3370 221.91 216.57 14.81
341 5.3380 232.57 216.51 15.13
342 5.3390 225.36 216.46 14.96
343 5.3400 219.24 216.40 14.84
344 5.3410 258.42 216.34 16.21
345 5.3420 248.60 216.28 15.79
346 5.3430 232.53 216.22 15.16
347 5.3440 247.72 216.16 15.61
348 5.3450 237.29 216.10 15.28
349 5.3460 241.92 216.04 15.45
350 5.3470 228.88 215.98 15.03
351 5.3480 242.60 215.92 15.46
352 5.3490 253.68 215.86 15.88
353 5.3500 244.65 215.80 15.68
354 5.3510 216.02 215.75 14.81
355 5.3520 249.92 215.69 15.81
356 5.3530 243.52 215.63 15.48
357 5.3540 259.68 215.57 15.92
358 5.3550 258.95 215.51 15.92
359 5.3560 228.50 215.45 15.02
360 5.3570 227.43 215.39 14.97
361 5.3580 259.46 215.33 16.01
362 5.3590 239.57 215.27 15.47
363 5.3600 233.72 215.22 15.31
364 5.3610 228.78 215.16 15.24
365 5.3620 244.46 215.10 15.65
366 5.3630 246.54 215.04 15.63
367 5.3640 228.02 214.98 14.94
368 5.3650 229.62 214.92 15.06
369 5.3660 210.80 214.86 14.46
370 5.3670 229.05 214.80 15.05
371 5.3680 214.18 214.74 14.56
372 5.3690 242.52 214.69 15.57
373 5.3700 239.77 214.63 15.59
374 5.3710 230.28 214.57 15.22
375 5.3720 244.05 214.51 15.64
376 5.3730 209.82 214.45 14.36
377 5.3740 238.47 214.39 15.25
378 5.3750 234.95 214.33 15.29
379 5.3760 261.86 214.27 16.12
380 5.3770 243.02 214.22 15.49
381 5.3780 232.06 214.16 15.13
382 5.3790 225.23 214.10 14.92
383 5.3800 227.35 214.04 15.11
384 5.3810 258.76 213.98 16.16
385 5.3820 226.40 213.92 15.06
386 5.3830 228.79 213.87 15.03
387 5.3840 244.32 213.81 15.51
388 5.3850 229.95 213.75 15.12
389 5.3860 231.73 213.69 15.20
390 5.3870 224.44 213.63 14.92
391 5.3880 244.00 213.57 15.52
392 5.3890 262.99 213.51 16.18
393 5.3900 228.74 213.46 15.14
394 5.3910 236.51 213.40 15.45
395 5.3920 231.66 213.34 15.19
396 5.3930 224.77 213.28 14.94
397 5.3940 228.82 213.22 15.04
398 5.3950 264.74 213.16 16.18
399 5.3960 266.25 213.10 16.27
400 5.3970 240.66 213.05 15.37
401 5.3980 234.62 212.99 15.20
402 5.3990 229.78 212.93 15.08
403 5.4000 241.94 212.87 15.53
404 5.4010 238.64 212.81 15.55
405 5.4020 226.03 212.76 14.97
406 5.4030 229.51 212.70 15.02
407 5.4040 241.63 212.64 15.34
408 5.4050 250.71 212.58 15.71
409 5.4060 249.71 212.52 15.73
410 5.4070 265.96 212.46 16.24
411 5.4080 250.51 212.41 15.65
412 5.4090 240.81 212.35 15.56
413 5.4100 244.56 212.29 15.72
414 5.4110 243.71 212.23 15.78
415 5.4120 240.97 212.17 15.50
416 5.4130 260.79 212.12 16.03
417 5.4140 251.89 212.06 15.67
418 5.4150 235.10 212.00 15.24
419 5.4160 243.05 211.94 15.54
420 5.4170 245.34 211.88 15.57
421 5.4180 229.93 211.82 15.08
422 5.4190 258.34 211.77 16.07
423 5.4200 240.16 211.71 15.55
424 5.4210 238.91 211.65 15.54
425 5.4220 232.83 211.59 15.25
426 5.4230 231.93 211.54 15.11
427 5.4240 231.41 211.48 15.04
428 5.4250 236.16 211.42 15.28
429 5.4260 227.77 211.36 15.00
430 5.4270 233.32 211.30 15.16
431 5.4280 230.14 211.24 15.04
432 5.4290 225.57 211.19 14.95
433 5.4300 252.05 211.13 15.94
434 5.4310 227.41 211.07 15.21
435 5.4320 208.60 211.01 14.44
436 5.4330 206.66 210.96 14.30
437 5.4340 222.67 210.90 14.80
438 5.4350 224.15 210.84 14.89
439 5.4360 231.01 210.78 15.13
440 5.4370 252.44 210.73 15.77
441 5.4380 214.58 210.67 14.50
442 5.4390 254.71 210.61 15.89
443 5.4400 272.76 210.55 16.58
444 5.4410 253.60 210.49 16.07
445 5.4420 254.99 210.44 15.96
446 5.4430 232.82 210.38 15.18
447 5.4440 224.10 210.32 14.87
448 5.4450 217.51 210.26 14.60
449 5.4460 229.34 210.21 15.11
450 5.4470 228.72 210.15 14.98
451 5.4480 236.25 210.09 15.24
452 5.4490 226.92 210.03 14.99
453 5.4500 250.62 209.98 15.86
454 5.4510 233.71 209.92 15.43
455 5.4520 232.32 209.86 15.19
456 5.4530 225.37 209.80 14.91
457 5.4540 235.65 209.75 15.14
458 5.4550 254.81 209.69 15.84
459 5.4560 258.09 209.63 16.00
460 5.4570 250.65 209.57 15.66
461 5.4580 243.22 209.52 15.52
462 5.4590 224.77 209.46 14.86
463 5.4600 240.36 209.40 15.57
464 5.4610 249.54 209.35 15.85
465 5.4620 265.61 209.29 16.23
466 5.4630 233.20 209.23 15.13
467 5.4640 250.49 209.17 15.70
468 5.4650 215.40 209.12 14.56
469 5.4660 246.79 209.06 15.64
470 5.4670 258.74 209.00 16.02
471 5.4680 250.15 208.95 15.66
472 5.4690 251.64 208.89 15.74
473 5.4700 225.16 208.83 15.03
474 5.4710 231.81 208.77 15.26
475 5.4720 268.72 208.72 16.26
476 5.4730 254.63 208.66 15.76
477 5.4740 241.44 208.60 15.36
478 5.4750 217.53 208.55 14.63
479 5.4760 210.66 208.49 14.46
480 5.4770 215.62 208.43 14.50
481 5.4780 236.89 208.38 15.23
482 5.4790 210.04 208.32 14.39
483 5.4800 235.49 208.26 15.36
484 5.4810 239.96 208.21 15.52
485 5.4820 243.31 208.15 15.54
486 5.4830 217.26 208.09 14.61
487 5.4840 221.09 208.04 14.76
488 5.4850 244.92 207.98 15.56
489 5.4860 239.72 207.93 15.39
490 5.4870 238.73 207.87 15.30
491 5.4880 254.33 207.81 15.81
492 5.4890 223.98 207.76 14.90
493 5.4900 201.90 207.70 14.22
494 5.4910 240.67 207.65 15.65
495 5.4920 242.63 207.59 15.59
496 5.4930 244.52 207.53 15.49
497 5.4940 253.16 207.48 15.76
498 5.4950 255.46 207.42 15.83
499 5.4960 244.15 207.37 15.51
500 5.4970 258.39 207.31 15.94
501 5.4980 224.00 207.26 14.80
502 5.4990 239.24 207.20 15.38
503 5.5000 251.21 207.15 15.90
504 5.5010 242.96 207.10 15.64
505 5.5020 255.22 207.04 15.94
506 5.5030 257.08 206.99 15.91
507 5.5040 235.45 206.93 15.17
508 5.5050 200.83 206.88 14.06
509 5.5060 221.80 206.83 14.79
510 5.5070 216.28 206.78 14.62
511 5.5080 248.48 206.73 15.68
512 5.5090 237.46 206.68 15.36
513 5.5100 236.28 206.64 15.42
514 5.5110 240.64 206.59 15.57
515 5.5120 262.90 206.55 16.23
516 5.5130 235.27 206.51 15.23
517 5.5140 233.07 206.47 15.14
518 5.5150 249.23 206.44 15.61
519 5.5160 224.92 206.42 15.00
520 5.5170 253.25 206.40 15.92
521 5.5180 250.74 206.41 15.66
522 5.5190 221.02 206.43 14.81
523 5.5200 237.05 206.50 15.38
524 5.5210 225.18 206.64 15.07
525 5.5220 229.42 206.91 15.10
526 5.5230 229.16 207.38 15.01
527 5.5240 259.94 208.11 15.93
528 5.5250 240.79 209.06 15.44
529 5.5260 231.01 209.93 15.09
530 5.5270 233.56 210.09 15.10
531 5.5280 259.19 209.34 15.93
532 5.5290 227.74 208.25 14.99
533 5.5300 217.10 207.30 14.80
534 5.5310 215.88 206.61 14.73
535 5.5320 237.43 206.14 15.41
536 5.5330 222.34 205.84 14.81
537 5.5340 240.72 205.63 15.41
538 5.5350 242.59 205.48 15.44
539 5.5360 245.19 205.35 15.52
540 5.5370 209.07 205.25 14.34
541 5.5380 241.15 205.16 15.41
542 5.5390 243.68 205.07 15.55
543 5.5400 259.29 204.99 16.15
544 5.5410 247.12 204.92 15.85
545 5.5420 237.60 204.85 15.40
546 5.5430 251.91 204.78 15.75
547 5.5440 248.48 204.71 15.50
548 5.5450 258.69 204.65 15.95
549 5.5460 240.12 204.58 15.38
550 5.5470 243.36 204.52 15.45
551 5.5480 211.38 204.46 14.42
552 5.5490 252.51 204.40 15.84
553 5.5500 228.34 204.34 15.18
554 5.5510 234.60 204.28 15.41
555 5.5520 237.52 204.22 15.36
556 5.5530 233.04 204.16 15.15
557 5.5540 240.57 204.10 15.30
558 5.5550 215.63 204.04 14.55
559 5.5560 235.57 203.98 15.28
560 5.5570 242.34 203.93 15.48
561 5.5580 239.38 203.87 15.41
562 5.5590 245.70 203.81 15.63
563 5.5600 251.00 203.75 15.90
564 5.5610 224.98 203.70 15.08
565 5.5620 221.45 203.64 14.83
566 5.5630 232.75 203.58 15.13
567 5.5640 251.03 203.52 15.73
568 5.5650 234.38 203.47 15.21
569 5.5660 243.49 203.41 15.61
570 5.5670 242.33 203.35 15.49
571 5.5680 213.36 203.30 14.47
572 5.5690 211.22 203.24 14.50
573 5.5700 239.81 203.18 15.54
574 5.5710 246.50 203.13 15.79
575 5.5720 238.40 203.07 15.48
576 5.5730 262.44 203.01 16.21
577 5.5740 217.18 202.96 14.62
578 5.5750 211.61 202.90 14.47
579 5.5760 229.87 202.85 15.06
580 5.5770 222.99 202.79 14.75
581 5.5780 227.18 202.73 14.96
582 5.5790 216.33 202.68 14.61
583 5.5800 247.53 202.62 15.83
584 5.5810 248.80 202.57 15.91
585 5.5820 236.35 202.51 15.36
586 5.5830 231.88 202.46 15.18
587 5.5840 221.42 202.40 14.74
588 5.5850 233.25 202.34 15.15
589 5.5860 240.83 202.29 15.45
590 5.5870 243.34 202.23 15.46
591 5.5880 218.89 202.18 14.69
592 5.5890 228.60 202.12 15.09
593 5.5900 225.23 202.06 15.08
594 5.5910 223.02 202.01 15.07
595 5.5920 253.60 201.95 15.92
596 5.5930 239.25 201.90 15.33
597 5.5940 256.17 201.84 15.86
598 5.5950 231.20 201.79 15.09
599 5.5960 235.73 201.73 15.30
600 5.5970 227.97 201.68 15.04
601 5.5980 247.44 201.62 15.62
602 5.5990 251.12 201.56 15.82
603 5.6000 268.31 201.51 16.38
604 5.6010 227.02 201.45 15.07
605 5.6020 222.82 201.40 14.88
606 5.6030 231.99 201.34 15.10
607 5.6040 244.66 201.29 15.49
608 5.6050 234.60 201.23 15.22
609 5.6060 227.37 201.18 15.03
610 5.6070 234.58 201.12 15.20
611 5.6080 229.21 201.07 15.03
612 5.6090 230.16 201.01 15.13
613 5.6100 231.29 200.95 15.23
614 5.6110 230.50 200.90 15.22
615 5.6120 247.18 200.84 15.71
616 5.6130 226.74 200.79 14.99
617 5.6140 253.65 200.73 15.83
618 5.6150 237.76 200.68 15.32
619 5.6160 249.22 200.62 15.78
620 5.6170 212.35 200.57 14.49
621 5.6180 238.42 200.51 15.32
622 5.6190 245.33 200.46 15.57
623 5.6200 216.29 200.40 14.74
624 5.6210 234.82 200.35 15.43
625 5.6220 266.87 200.29 16.34
626 5.6230 213.85 200.24 14.52
627 5.6240 217.34 200.18 14.55
628 5.6250 227.60 200.13 14.97
629 5.6260 234.50 200.07 15.21
630 5.6270 249.26 200.02 15.63
631 5.6280 239.27 199.96 15.36
632 5.6290 249.24 199.91 15.70
633 5.6300 244.08 199.85 15.73
634 5.6310 239.96 199.80 15.62
635 5.6320 256.16 199.74 16.01
636 5.6330 239.58 199.69 15.38
637 5.6340 230.61 199.63 15.02
638 5.6350 246.18 199.58 15.56
639 5.6360 230.42 199.52 15.11
640 5.6370 230.12 199.47 15.00
641 5.6380 225.80 199.41 14.92
642 5.6390 230.17 199.36 15.15
643 5.6400 243.65 199.30 15.68
644 5.6410 221.89 199.25 15.03
645 5.6420 249.04 199.19 15.80
646 5.6430 226.65 199.14 14.92
647 5.6440 232.55 199.08 15.06
648 5.6450 211.07 199.03 14.41
649 5.6460 207.29 198.97 14.36
650 5.6470 244.21 198.92 15.52
651 5.6480 222.16 198.87 14.80
652 5.6490 249.00 198.81 15.68
653 5.6500 239.84 198.76 15.47
654 5.6510 233.76 198.70 15.37
655 5.6520 231.46 198.65 15.16
656 5.6530 265.05 198.59 16.20
657 5.6540 228.37 198.54 15.00
658 5.6550 232.87 198.48 15.23
659 5.6560 225.77 198.43 14.96
660 5.6570 254.17 198.37 15.83
661 5.6580 239.84 198.32 15.32
662 5.6590 236.11 198.26 15.30
663 5.6600 215.24 198.21 14.69
664 5.6610 227.69 198.15 15.20
665 5.6620 221.55 198.10 14.86
666 5.6630 240.47 198.05 15.43
667 5.6640 220.59 197.99 14.69
668 5.6650 230.44 197.94 15.08
669 5.6660 225.56 197.88 14.96
670 5.6670 228.09 197.83 14.98
671 5.6680 205.87 197.77 14.20
672 5.6690 207.62 197.72 14.31
673 5.6700 229.75 197.66 15.17
674 5.6710 239.11 197.61 15.57
675 5.6720 231.40 197.56 15.19
676 5.6730 262.53 197.50 16.10
677 5.6740 249.13 197.45 15.57
678 5.6750 224.87 197.39 14.83
679 5.6760 234.64 197.34 15.21
680 5.6770 245.14 197.29 15.50
681 5.6780 249.48 197.23 15.71
682 5.6790 238.09 197.18 15.40
683 5.6800 227.17 197.12 15.14
684 5.6810 216.68 197.07 14.81
685 5.6820 205.50 197.01 14.33
686 5.6830 255.51 196.96 15.90
687 5.6840 221.39 196.91 14.69
688 5.6850 217.79 196.85 14.60
689 5.6860 202.35 196.80 14.20
690 5.6870 205.81 196.74 14.23
691 5.6880 240.11 196.69 15.38
692 5.6890 226.43 196.63 15.01
693 5.6900 257.23 196.58 16.10
694 5.6910 212.77 196.53 14.63
695 5.6920 231.30 196.47 15.16
696 5.6930 249.01 196.42 15.66
697 5.6940 247.70 196.37 15.63
698 5.6950 205.93 196.31 14.21
699 5.6960 203.99 196.26 14.20
700 5.6970 230.92 196.20 15.08
701 5.6980 258.88 196.15 15.98
702 5.6990 224.01 196.09 14.91
703 5.7000 225.93 196.04 15.03
704 5.7010 241.56 195.99 15.60
705 5.7020 214.64 195.93 14.65
706 5.7030 221.55 195.88 14.80
707 5.7040 240.61 195.82 15.38
708 5.7050 213.96 195.77 14.55
709 5.7060 240.89 195.72 15.48
710 5.7070 274.15 195.66 16.46
711 5.7080 224.54 195.61 14.84
712 5.7090 245.18 195.56 15.55
713 5.7100 229.19 195.50 15.19
714 5.7110 231.04 195.45 15.29
715 5.7120 258.42 195.39 16.05
716 5.7130 241.30 195.34 15.48
717 5.7140 242.35 195.29 15.46
718 5.7150 222.56 195.23 14.79
719 5.7160 227.74 195.18 15.03
720 5.7170 224.51 195.13 14.87
721 5.7180 242.91 195.07 15.45
722 5.7190 242.10 195.02 15.50
723 5.7200 239.47 194.96 15.52
724 5.7210 257.29 194.91 16.12
725 5.7220 239.68 194.86 15.45
726 5.7230 253.04 194.80 15.77
727 5.7240 214.06 194.75 14.38
728 5.7250 240.76 194.70 15.35
729 5.7260 252.63 194.64 15.82
730 5.7270 232.09 194.59 15.09
731 5.7280 242.19 194.54 15.47
732 5.7290 230.51 194.48 15.11
733 5.7300 234.73 194.43 15.37
734 5.7310 223.26 194.38 15.03
735 5.7320 257.47 194.32 16.01
736 5.7330 254.38 194.27 15.84
737 5.7340 219.74 194.22 14.66
738 5.7350 224.60 194.16 14.88
739 5.7360 236.51 194.11 15.32
740 5.7370 235.80 194.06 15.21
741 5.7380 213.89 194.00 14.56
742 5.7390 241.71 193.95 15.42
743 5.7400 239.87 193.90 15.53
744 5.7410 222.36 193.84 14.93
745 5.7420 230.73 193.79 15.18
746 5.7430 245.51 193.74 15.55
747 5.7440 236.40 193.68 15.25
748 5.7450 226.89 193.63 14.91
749 5.7460 248.37 193.58 15.72
750 5.7470 225.95 193.52 14.87
751 5.7480 222.85 193.47 14.78
752 5.7490 231.52 193.42 15.06
753 5.7500 207.88 193.36 14.43
754 5.7510 219.66 193.31 14.86
755 5.7520 245.26 193.26 15.67
756 5.7530 245.88 193.20 15.52
757 5.7540 208.69 193.15 14.31
758 5.7550 211.11 193.10 14.44
759 5.7560 238.39 193.04 15.38
760 5.7570 240.58 192.99 15.35
761 5.7580 218.55 192.94 14.66
762 5.7590 210.69 192.88 14.39
763 5.7600 251.47 192.83 15.95
764 5.7610 247.49 192.78 15.84
765 5.7620 230.60 192.73 15.19
766 5.7630 253.88 192.67 15.82
767 5.7640 227.22 192.62 14.92
768 5.7650 227.25 192.57 14.93
769 5.7660 238.28 192.51 15.38
770 5.7670 211.10 192.46 14.46
771 5.7680 225.57 192.41 14.97
772 5.7690 224.06 192.35 14.92
773 5.7700 239.27 192.30 15.53
774 5.7710 249.56 192.25 15.90
775 5.7720 242.70 192.20 15.55
776 5.7730 226.38 192.14 14.94
777 5.7740 250.46 192.09 15.61
778 5.7750 223.41 192.04 14.86
779 5.7760 194.65 191.99 13.92
780 5.7770 214.84 191.93 14.58
781 5.7780 230.90 191.88 15.14
782 5.7790 241.21 191.83 15.45
783 5.7800 199.22 191.77 14.21
784 5.7810 215.18 191.72 14.77
785 5.7820 231.70 191.67 15.24
786 5.7830 237.78 191.62 15.37
787 5.7840 232.53 191.56 15.11
788 5.7850 237.01 191.51 15.35
789 5.7860 239.64 191.46 15.43
790 5.7870 231.40 191.40 15.12
791 5.7880 240.19 191.35 15.39
792 5.7890 231.53 191.30 15.18
793 5.7900 220.44 191.25 14.94
794 5.7910 243.85 191.19 15.77
795 5.7920 218.63 191.14 14.82
796 5.7930 210.35 191.09 14.48
797 5.7940 240.32 191.04 15.40
798 5.7950 221.18 190.98 14.74
799 5.7960 229.09 190.93 15.10
800 5.7970 246.85 190.88 15.61
801 5.7980 230.27 190.83 15.05
802 5.7990 246.41 190.77 15.64
803 5.8000 215.12 190.72 14.70
804 5.8010 216.87 190.67 14.83
805 5.8020 236.45 190.62 15.39
806 5.8030 219.93 190.56 14.74
807 5.8040 220.02 190.51 14.71
808 5.8050 217.03 190.46 14.60
809 5.8060 226.45 190.41 15.02
810 5.8070 210.87 190.35 14.41
811 5.8080 229.10 190.30 15.02
812 5.8090 213.54 190.25 14.58
813 5.8100 225.66 190.20 15.09
814 5.8110 214.17 190.15 14.71
815 5.8120 246.14 190.09 15.73
816 5.8130 225.57 190.04 14.95
817 5.8140 237.50 189.99 15.33
818 5.8150 227.83 189.94 15.03
819 5.8160 213.74 189.88 14.61
820 5.8170 230.62 189.83 15.11
821 5.8180 223.46 189.78 14.84
822 5.8190 240.01 189.73 15.50
823 5.8200 232.47 189.67 15.34
824 5.8210 216.27 189.62 14.73
825 5.8220 186.66 189.57 13.63
826 5.8230 191.67 189.52 13.75
827 5.8240 222.00 189.47 14.74
828 5.8250 238.76 189.41 15.33
829 5.8260 225.14 189.36 14.95
830 5.8270 235.23 189.31 15.31
831 5.8280 227.03 189.26 14.97
832 5.8290 231.26 189.21 15.15
833 5.8300 198.66 189.15 14.13
834 5.8310 207.90 189.10 14.54
835 5.8320 226.01 189.05 14.99
836 5.8330 184.60 189.00 13.52
837 5.8340 238.80 188.95 15.33
838 5.8350 233.61 188.89 15.24
839 5.8360 242.41 188.84 15.59
840 5.8370 209.01 188.79 14.39
841 5.8380 210.11 188.74 14.36
842 5.8390 231.03 188.68 15.20
843 5.8400 231.87 188.63 15.33
844 5.8410 231.35 188.58 15.37
845 5.8420 222.44 188.53 14.92
846 5.8430 220.11 188.48 14.81
847 5.8440 253.74 188.43 15.74
848 5.8450 222.66 188.37 14.81
849 5.8460 193.27 188.32 13.80
850 5.8470 223.44 188.27 14.82
851 5.8480 218.18 188.22 14.68
852 5.8490 226.63 188.17 14.98
853 5.8500 242.36 188.12 15.68
854 5.8510 228.82 188.06 15.26
855 5.8520 228.57 188.01 15.09
856 5.8530 225.69 187.96 14.96
857 5.8540 197.44 187.91 13.90
858 5.8550 219.20 187.86 14.71
859 5.8560 216.83 187.80 14.67
860 5.8570 233.25 187.75 15.14
861 5.8580 213.32 187.70 14.54
862 5.8590 191.58 187.65 13.78
863 5.8600 216.85 187.60 14.82
864 5.8610 231.75 187.55 15.28
865 5.8620 234.47 187.49 15.29
866 5.8630 227.02 187.44 15.01
867 5.8640 219.77 187.39 14.67
868 5.8650 210.97 187.34 14.50
869 5.8660 220.63 187.29 14.86
870 5.8670 191.15 187.24 13.75
871 5.8680 240.07 187.18 15.47
872 5.8690 231.37 187.13 15.19
873 5.8700 218.62 187.08 14.81
874 5.8710 238.55 187.03 15.48
875 5.8720 221.51 186.98 14.90
876 5.8730 240.50 186.93 15.47
877 5.8740 243.32 186.88 15.49
878 5.8750 224.64 186.82 14.89
879 5.8760 211.62 186.77 14.53
880 5.8770 222.35 186.72 14.83
881 5.8780 207.35 186.67 14.32
882 5.8790 232.97 186.62 15.24
883 5.8800 218.14 186.57 14.82
884 5.8810 213.04 186.52 14.66
885 5.8820 220.50 186.46 14.83
886 5.8830 230.74 186.41 15.12
887 5.8840 224.77 186.36 14.89
888 5.8850 225.56 186.31 14.93
889 5.8860 212.64 186.26 14.57
890 5.8870 215.57 186.21 14.59
891 5.8880 212.94 186.16 14.53
892 5.8890 214.02 186.11 14.59
893 5.8900 206.59 186.05 14.41
894 5.8910 233.02 186.00 15.39
895 5.8920 206.04 185.95 14.34
896 5.8930 229.64 185.90 15.06
897 5.8940 223.76 185.85 14.82
898 5.8950 198.66 185.80 13.97
899 5.8960 211.76 185.75 14.48
900 5.8970 208.54 185.70 14.28
901 5.8980 222.35 185.65 14.85
902 5.8990 211.54 185.60 14.52
903 5.9000 205.23 185.54 14.45
904 5.9010 222.82 185.49 15.08
905 5.9020 235.03 185.44 15.33
906 5.9030 222.86 185.39 14.86
907 5.9040 210.49 185.34 14.33
908 5.9050 215.32 185.29 14.54
909 5.9060 206.77 185.24 14.28
910 5.9070 220.45 185.19 14.74
911 5.9080 217.24 185.14 14.68
912 5.9090 193.52 185.09 13.81
913 5.9100 231.33 185.03 15.27
914 5.9110 214.70 184.98 14.76
915 5.9120 222.43 184.93 14.88
916 5.9130 216.75 184.88 14.61
917 5.9140 223.95 184.83 14.85
918 5.9150 230.34 184.78 15.09
919 5.9160 220.92 184.73 14.83
920 5.9170 230.05 184.68 15.08
921 5.9180 225.70 184.63 14.93
922 5.9190 230.68 184.58 15.14
923 5.9200 206.77 184.52 14.36
924 5.9210 193.25 184.47 13.89
925 5.9220 199.34 184.42 14.06
926 5.9230 218.31 184.37 14.71
927 5.9240 217.57 184.32 14.65
928 5.9250 201.26 184.27 14.09
929 5.9260 197.80 184.22 14.07
930 5.9270 214.14 184.17 14.54
931 5.9280 212.90 184.12 14.53
932 5.9290 215.32 184.07 14.60
933 5.9300 218.02 184.02 14.81
934 5.9310 206.63 183.97 14.49
935 5.9320 204.48 183.92 14.29
936 5.9330 202.15 183.87 14.15
937 5.9340 231.98 183.82 15.15
938 5.9350 205.50 183.76 14.29
939 5.9360 224.55 183.71 14.96
940 5.9370 200.51 183.66 14.05
941 5.9380 219.49 183.61 14.71
942 5.9390 241.44 183.56 15.51
943 5.9400 214.01 183.51 14.69
944 5.9410 225.95 183.46 15.15
945 5.9420 200.55 183.41 14.14
946 5.9430 213.16 183.36 14.56
947 5.9440 212.77 183.31 14.39
948 5.9450 248.45 183.26 15.61
949 5.9460 231.01 183.21 15.12
950 5.9470 214.88 183.16 14.57
951 5.9480 227.56 183.11 15.04
952 5.9490 218.04 183.06 14.69
953 5.9500 205.71 183.01 14.39
954 5.9510 208.85 182.96 14.56
955 5.9520 218.95 182.91 14.79
956 5.9530 214.51 182.86 14.53
957 5.9540 230.90 182.81 15.02
958 5.9550 212.20 182.76 14.47
959 5.9560 223.95 182.71 14.85
960 5.9570 242.31 182.65 15.45
961 5.9580 226.79 182.60 14.95
962 5.9590 209.22 182.55 14.48
963 5.9600 205.98 182.50 14.45
964 5.9610 224.42 182.45 15.15
965 5.9620 209.83 182.40 14.47
966 5.9630 218.42 182.35 14.72
967 5.9640 209.21 182.30 14.37
968 5.9650 219.79 182.25 14.75
969 5.9660 199.76 182.20 14.07
970 5.9670 219.73 182.15 14.71
971 5.9680 207.57 182.10 14.28
972 5.9690 194.54 182.05 13.89
973 5.9700 213.69 182.00 14.63
974 5.9710 215.85 181.95 14.75
975 5.9720 212.20 181.90 14.58
976 5.9730 193.84 181.85 13.86
977 5.9740 225.22 181.80 14.85
978 5.9750 201.12 181.75 14.10
979 5.9760 199.52 181.70 14.11
980 5.9770 221.79 181.65 14.80
981 5.9780 210.15 181.60 14.34
982 5.9790 212.53 181.55 14.50
983 5.9800 222.06 181.50 14.93
984 5.9810 207.25 181.45 14.50
985 5.9820 210.46 181.40 14.50
986 5.9830 198.99 181.35 14.06
987 5.9840 204.65 181.30 14.21
988 5.9850 217.24 181.25 14.65
989 5.9860 202.26 181.20 14.20
990 5.9870 199.79 181.15 14.09
991 5.9880 219.75 181.10 14.77
992 5.9890 215.16 181.05 14.66
993 5.9900 207.01 181.00 14.49
994 5.9910 200.73 180.95 14.30
995 5.9920 202.81 180.90 14.26
996 5.9930 219.00 180.85 14.68
997 5.9940 229.08 180.80 14.99
998 5.9950 215.43 180.75 14.57
999 5.9960 212.52 180.70 14.48
1000 5.9970 216.33 180.65 14.62
1001 5.9980 218.87 180.60 14.71
1002 5.9990 227.43 180.55 15.08
1003 6.0000 203.11 180.51 14.27
1004 6.0010 230.17 180.46 15.24
1005 6.0020 228.84 180.41 15.12
1006 6.0030 230.55 180.36 15.13
1007 6.0040 213.33 180.31 14.46
1008 6.0050 192.68 180.26 13.80
1009 6.0060 196.60 180.21 14.06
1010 6.0070 210.48 180.16 14.43
1011 6.0080 231.96 180.11 15.17
1012 6.0090 226.11 180.06 15.00
1013 6.0100 222.77 180.01 15.04
1014 6.0110 208.65 179.96 14.66
1015 6.0120 218.21 179.91 14.80
1016 6.0130 210.98 179.86 14.49
1017 6.0140 227.67 179.81 15.04
1018 6.0150 194.55 179.76 13.95
1019 6.0160 205.87 179.71 14.34
1020 6.0170 227.81 179.66 14.99
1021 6.0180 203.64 179.61 14.16
1022 6.0190 184.42 179.56 13.57
1023 6.0200 205.62 179.51 14.35
1024 6.0210 201.93 179.46 14.32
1025 6.0220 195.14 179.42 13.97
1026 6.0230 197.54 179.37 13.97
1027 6.0240 207.38 179.32 14.28
1028 6.0250 203.33 179.27 14.17
1029 6.0260 234.67 179.22 15.27
1030 6.0270 226.32 179.17 14.95
1031 6.0280 219.38 179.12 14.74
1032 6.0290 181.02 179.07 13.43
1033 6.0300 205.99 179.02 14.43
1034 6.0310 225.69 178.97 15.19
1035 6.0320 215.62 178.92 14.71
1036 6.0330 196.91 178.87 13.96
1037 6.0340 206.05 178.82 14.28
1038 6.0350 225.08 178.77 14.99
1039 6.0360 201.02 178.73 14.19
1040 6.0370 204.92 178.68 14.29
1041 6.0380 216.50 178.63 14.71
1042 6.0390 220.65 178.58 14.91
1043 6.0400 226.63 178.53 15.18
1044 6.0410 217.37 178.48 14.87
1045 6.0420 233.56 178.43 15.28
1046 6.0430 221.69 178.38 14.81
1047 6.0440 237.73 178.33 15.25
1048 6.0450 225.80 178.28 14.96
1049 6.0460 204.90 178.23 14.31
1050 6.0470 229.65 178.18 15.08
1051 6.0480 224.84 178.14 14.93
1052 6.0490 202.32 178.09 14.15
1053 6.0500 201.34 178.04 14.23
1054 6.0510 211.65 177.99 14.61
1055 6.0520 201.58 177.94 14.21
1056 6.0530 201.78 177.89 14.06
1057 6.0540 227.22 177.84 14.93
1058 6.0550 204.92 177.79 14.25
1059 6.0560 226.04 177.74 15.03
1060 6.0570 197.15 177.70 13.94
1061 6.0580 178.01 177.65 13.25
1062 6.0590 216.50 177.60 14.70
1063 6.0600 169.85 177.55 13.16
1064 6.0610 197.06 177.50 14.18
1065 6.0620 224.30 177.45 14.97
1066 6.0630 203.38 177.40 14.26
1067 6.0640 184.13 177.35 13.46
1068 6.0650 188.96 177.30 13.66
1069 6.0660 205.46 177.26 14.22
1070 6.0670 204.06 177.21 14.20
1071 6.0680 202.03 177.16 14.09
1072 6.0690 209.73 177.11 14.43
1073 6.0700 208.59 177.06 14.43
1074 6.0710 198.69 177.01 14.20
1075 6.0720 226.12 176.96 15.03
1076 6.0730 219.98 176.91 14.70
1077 6.0740 210.06 176.87 14.33
1078 6.0750 184.14 176.82 13.44
1079 6.0760 227.00 176.77 15.03
1080 6.0770 200.73 177.25 14.08
1081 6.0780 189.70 177.21 13.67
1082 6.0790 203.41 178.10 14.19
1083 6.0800 185.67 178.07 13.67
1084 6.0810 218.32 178.04 14.87
1085 6.0820 198.74 178.01 14.08
1086 6.0830 205.54 177.99 14.26
1087 6.0840 201.11 177.96 14.08
1088 6.0850 212.74 177.93 14.48
1089 6.0860 181.29 177.90 13.43
1090 6.0870 188.68 177.88 13.66
1091 6.0880 187.34 177.85 13.58
1092 6.0890 203.58 177.82 14.18
1093 6.0900 196.95 177.80 14.07
1094 6.0910 188.86 177.77 13.78
1095 6.0920 200.50 177.75 14.13
1096 6.0930 211.16 177.72 14.42
1097 6.0940 252.02 177.70 15.69
1098 6.0950 219.01 177.68 14.68
1099 6.0960 210.01 177.65 14.44
1100 6.0970 201.35 177.63 14.08
1101 6.0980 227.04 177.61 14.93
1102 6.0990 194.94 177.59 13.92
1103 6.1000 186.43 177.57 13.66
1104 6.1010 207.44 177.55 14.47
1105 6.1020 173.15 177.53 13.16
1106 6.1030 201.29 177.51 14.05
1107 6.1040 208.62 177.49 14.31
1108 6.1050 197.48 177.47 13.89
1109 6.1060 211.71 177.46 14.49
1110 6.1070 199.12 177.44 13.99
1111 6.1080 224.38 177.43 14.87
1112 6.1090 211.84 177.41 14.44
1113 6.1100 186.87 177.40 13.77
1114 6.1110 208.34 177.39 14.52
1115 6.1120 225.39 177.38 15.04
1116 6.1130 217.05 177.36 14.66
1117 6.1140 183.44 177.35 13.40
1118 6.1150 194.68 177.35 13.81
1119 6.1160 196.17 177.34 13.93
1120 6.1170 186.99 177.33 13.57
1121 6.1180 198.25 177.32 13.90
1122 6.1190 199.33 177.32 14.06
1123 6.1200 205.67 177.32 14.43
1124 6.1210 209.33 177.31 14.48
1125 6.1220 205.70 177.31 14.33
1126 6.1230 215.21 177.31 14.57
1127 6.1240 203.58 177.31 14.10
1128 6.1250 182.79 177.32 13.35
1129 6.1260 186.93 177.32 13.59
1130 6.1270 193.01 177.32 13.70
1131 6.1280 220.53 177.33 14.76
1132 6.1290 221.06 177.34 14.81
1133 6.1300 188.89 177.35 13.76
1134 6.1310 201.62 177.36 14.26
1135 6.1320 219.71 177.37 14.83
1136 6.1330 209.84 177.39 14.34
1137 6.1340 223.66 177.40 14.81
1138 6.1350 202.73 177.42 14.15
1139 6.1360 196.16 177.44 13.96
1140 6.1370 178.19 177.46 13.25
1141 6.1380 196.98 177.49 13.91
1142 6.1390 190.62 177.52 13.79
1143 6.1400 192.18 177.54 13.88
1144 6.1410 201.42 177.58 14.29
1145 6.1420 207.54 177.61 14.34
1146 6.1430 226.96 177.65 14.96
1147 6.1440 203.68 177.68 14.09
1148 6.1450 192.89 177.73 13.75
1149 6.1460 203.33 177.77 14.17
1150 6.1470 203.12 177.82 14.10
1151 6.1480 193.36 177.87 13.79
1152 6.1490 187.72 177.92 13.57
1153 6.1500 203.30 177.98 14.30
1154 6.1510 204.01 178.04 14.35
1155 6.1520 205.10 178.11 14.26
1156 6.1530 191.47 178.18 13.70
1157 6.1540 203.64 178.25 14.13
1158 6.1550 199.15 178.33 13.99
1159 6.1560 193.34 178.41 13.83
1160 6.1570 210.55 178.49 14.37
1161 6.1580 202.72 178.59 14.16
1162 6.1590 192.23 178.68 13.85
1163 6.1600 190.66 178.79 13.90
1164 6.1610 225.55 178.90 15.19
1165 6.1620 192.41 179.01 13.87
1166 6.1630 191.62 179.13 13.76
1167 6.1640 191.73 179.26 13.68
1168 6.1650 235.95 179.39 15.21
1169 6.1660 196.77 179.53 13.95
1170 6.1670 185.93 179.68 13.47
1171 6.1680 211.74 179.84 14.46
1172 6.1690 199.97 180.01 14.06
1173 6.1700 213.73 180.19 14.64
1174 6.1710 213.74 180.37 14.67
1175 6.1720 203.22 180.57 14.23
1176 6.1730 190.15 180.78 13.65
1177 6.1740 203.71 181.00 14.07
1178 6.1750 201.52 181.23 14.09
1179 6.1760 201.85 181.48 14.09
1180 6.1770 166.63 181.74 12.79
1181 6.1780 221.21 182.01 14.75
1182 6.1790 209.46 182.31 14.43
1183 6.1800 208.01 182.62 14.51
1184 6.1810 194.81 182.94 14.04
1185 6.1820 208.17 183.29 14.43
1186 6.1830 207.53 183.66 14.35
1187 6.1840 191.47 184.05 13.75
1188 6.1850 201.60 184.47 14.12
1189 6.1860 206.56 184.91 14.32
1190 6.1870 222.02 185.38 14.89
1191 6.1880 188.08 185.88 13.56
1192 6.1890 207.79 186.42 14.33
1193 6.1900 197.69 186.99 14.09
1194 6.1910 192.10 187.59 13.94
1195 6.1920 198.46 188.24 14.06
1196 6.1930 207.18 188.94 14.28
1197 6.1940 219.66 189.69 14.66
1198 6.1950 205.64 190.49 14.25
1199 6.1960 228.07 191.35 15.07
1200 6.1970 225.44 192.27 14.87
1201 6.1980 213.20 193.27 14.45
1202 6.1990 204.35 194.34 14.25
1203 6.2000 210.74 195.50 14.59
1204 6.2010 213.43 196.76 14.64
1205 6.2020 226.59 198.12 15.04
1206 6.2030 197.55 199.60 13.95
1207 6.2040 203.62 201.22 14.20
1208 6.2050 223.25 202.97 14.86
1209 6.2060 213.08 204.90 14.56
1210 6.2070 219.09 207.01 14.77
1211 6.2080 225.21 209.32 14.95
1212 6.2090 212.99 211.88 14.62
1213 6.2100 225.72 214.70 15.13
1214 6.2110 222.96 217.84 15.08
1215 6.2120 239.91 221.32 15.50
1216 6.2130 231.39 225.22 15.14
1217 6.2140 244.88 229.59 15.48
1218 6.2150 265.83 234.51 16.23
1219 6.2160 237.68 240.08 15.33
1220 6.2170 254.80 246.41 15.86
1221 6.2180 288.40 253.66 16.81
1222 6.2190 301.02 262.00 17.26
1223 6.2200 289.18 271.66 17.06
1224 6.2210 311.16 282.92 17.71
1225 6.2220 301.81 296.18 17.29
1226 6.2230 328.10 311.91 18.01
1227 6.2240 331.55 330.76 18.05
1228 6.2250 367.70 353.63 19.03
1229 6.2260 432.76 381.68 20.70
1230 6.2270 486.45 416.62 21.90
1231 6.2280 537.39 460.84 23.11
1232 6.2290 563.52 517.97 23.67
1233 6.2300 682.22 593.85 26.30
1234 6.2310 820.62 698.46 28.99
1235 6.2320 1024.54 850.59 32.17
1236 6.2330 1294.54 1084.23 35.89
1237 6.2340 1809.36 1457.26 42.71
1238 6.2350 2518.27 2053.00 50.33
1239 6.2360 3283.27 2956.07 57.76
1240 6.2370 4095.66 4155.25 64.45
1241 6.2380 5298.87 5351.67 73.38
1242 6.2390 5811.49 6047.70 77.29
1243 6.2400 5452.72 5859.48 75.23
1244 6.2410 4691.00 4767.15 69.70
1245 6.2420 3307.14 3434.59 57.90
1246 6.2430 2509.63 2371.22 49.88
1247 6.2440 1793.77 1654.91 42.13
1248 6.2450 1347.41 1204.68 36.52
1249 6.2460 1052.36 926.61 32.27
1250 6.2470 809.16 749.44 28.21
1251 6.2480 688.04 629.88 25.99
1252 6.2490 615.26 544.53 24.70
1253 6.2500 457.80 480.86 21.41
1254 6.2510 456.58 431.98 21.45
1255 6.2520 415.41 393.60 20.33
1256 6.2530 385.31 362.95 19.53
1257 6.2540 338.02 338.09 18.22
1258 6.2550 339.68 317.65 18.32
1259 6.2560 319.05 300.67 17.79
1260 6.2570 297.58 286.39 17.15
1261 6.2580 279.74 274.27 16.68
1262 6.2590 258.60 263.91 16.07
1263 6.2600 242.34 254.97 15.67
1264 6.2610 280.40 247.22 16.84
1265 6.2620 256.32 240.44 15.99
1266 6.2630 244.55 234.48 15.51
1267 6.2640 241.08 229.22 15.36
1268 6.2650 212.79 224.54 14.42
1269 6.2660 219.71 220.37 14.78
1270 6.2670 249.12 216.63 15.62
1271 6.2680 205.07 213.27 14.15
1272 6.2690 213.78 210.23 14.54
1273 6.2700 205.99 207.48 14.37
1274 6.2710 217.79 204.97 14.81
1275 6.2720 194.79 202.69 13.90
1276 6.2730 218.05 200.60 14.59
1277 6.2740 202.91 198.68 14.04
1278 6.2750 224.31 196.92 14.80
1279 6.2760 229.87 195.29 15.09
1280 6.2770 196.85 193.79 13.89
1281 6.2780 215.97 192.40 14.63
1282 6.2790 189.78 191.11 13.72
1283 6.2800 186.00 189.90 13.76
1284 6.2810 225.80 188.79 15.10
1285 6.2820 198.92 187.74 14.17
1286 6.2830 180.67 186.76 13.37
1287 6.2840 214.97 185.84 14.56
1288 6.2850 198.32 184.98 13.96
1289 6.2860 189.24 184.17 13.72
1290 6.2870 179.01 183.41 13.26
1291 6.2880 193.83 182.69 13.81
1292 6.2890 199.77 182.01 14.07
1293 6.2900 196.43 181.37 14.11
1294 6.2910 191.73 180.77 13.89
1295 6.2920 210.21 180.19 14.43
1296 6.2930 182.87 179.64 13.39
1297 6.2940 209.69 179.12 14.33
1298 6.2950 189.30 178.63 13.64
1299 6.2960 171.36 178.16 13.00
1300 6.2970 180.42 177.71 13.29
1301 6.2980 167.34 177.28 12.82
1302 6.2990 210.32 176.87 14.43
1303 6.3000 198.17 176.48 14.08
1304 6.3010 186.71 176.10 13.68
1305 6.3020 204.35 175.75 14.26
1306 6.3030 196.42 175.40 13.93
1307 6.3040 179.63 175.07 13.27
1308 6.3050 193.50 174.75 13.82
1309 6.3060 186.49 174.45 13.60
1310 6.3070 181.29 174.15 13.43
1311 6.3080 198.17 173.87 13.97
1312 6.3090 200.96 173.59 14.10
1313 6.3100 191.31 173.33 13.95
1314 6.3110 204.32 173.07 14.33
1315 6.3120 181.23 172.83 13.44
1316 6.3130 172.44 172.59 13.00
1317 6.3140 190.95 172.36 13.63
1318 6.3150 184.91 172.13 13.45
1319 6.3160 195.36 171.92 13.86
1320 6.3170 214.52 171.71 14.48
1321 6.3180 181.24 171.51 13.35
1322 6.3190 189.02 171.31 13.70
1323 6.3200 184.88 171.12 13.65
1324 6.3210 185.35 170.93 13.64
1325 6.3220 178.59 170.75 13.27
1326 6.3230 198.00 170.57 13.91
1327 6.3240 193.59 170.40 13.71
1328 6.3250 187.57 170.23 13.57
1329 6.3260 172.77 170.07 13.05
1330 6.3270 180.33 169.91 13.34
1331 6.3280 194.53 169.75 13.84
1332 6.3290 201.82 169.60 14.18
1333 6.3300 183.51 169.45 13.61
1334 6.3310 199.42 169.30 14.24
1335 6.3320 191.60 169.16 13.86
1336 6.3330 194.12 169.02 13.82
1337 6.3340 197.74 168.89 13.95
1338 6.3350 201.90 168.76 14.09
1339 6.3360 177.06 168.62 13.20
1340 6.3370 182.40 168.50 13.40
1341 6.3380 186.76 168.37 13.53
1342 6.3390 172.00 168.25 13.08
1343 6.3400 170.93 168.13 13.08
1344 6.3410 174.88 168.01 13.27
1345 6.3420 175.91 167.89 13.22
1346 6.3430 208.20 167.78 14.29
1347 6.3440 173.13 167.67 13.02
1348 6.3450 193.15 167.56 13.77
1349 6.3460 173.35 167.45 13.06
1350 6.3470 196.22 167.34 13.85
1351 6.3480 179.91 167.24 13.27
1352 6.3490 188.10 167.13 13.60
1353 6.3500 197.57 167.03 14.14
1354 6.3510 176.91 166.93 13.35
1355 6.3520 189.11 166.83 13.73
1356 6.3530 174.24 166.74 13.13
1357 6.3540 215.12 166.64 14.56
1358 6.3550 173.12 166.55 13.12
1359 6.3560 172.14 166.45 13.09
1360 6.3570 182.89 166.36 13.43
1361 6.3580 171.96 166.27 13.08
1362 6.3590 159.39 166.18 12.61
1363 6.3600 178.81 166.09 13.43
1364 6.3610 194.48 166.00 13.94
1365 6.3620 195.87 165.92 13.96
1366 6.3630 179.63 165.83 13.30
1367 6.3640 165.83 165.75 12.74
1368 6.3650 179.26 165.66 13.25
1369 6.3660 156.20 165.58 12.39
1370 6.3670 176.26 165.50 13.16
1371 6.3680 174.37 165.42 13.09
1372 6.3690 155.75 165.34 12.44
1373 6.3700 155.54 165.26 12.47
1374 6.3710 180.44 165.18 13.42
1375 6.3720 167.56 165.10 12.86
1376 6.3730 198.32 165.03 13.84
1377 6.3740 189.47 164.95 13.63
1378 6.3750 189.26 164.88 13.59
1379 6.3760 190.74 164.80 13.74
1380 6.3770 180.09 164.73 13.26
1381 6.3780 171.82 164.65 13.07
1382 6.3790 163.74 164.58 12.77
1383 6.3800 208.46 164.51 14.53
1384 6.3810 190.91 164.44 13.90
1385 6.3820 185.76 164.37 13.62
1386 6.3830 178.24 164.30 13.27
1387 6.3840 187.13 164.23 13.53
1388 6.3850 154.73 164.16 12.34
1389 6.3860 175.39 164.09 13.17
1390 6.3870 196.41 164.02 13.84
1391 6.3880 177.96 163.95 13.17
1392 6.3890 168.51 163.88 12.87
1393 6.3900 171.21 163.82 13.07
1394 6.3910 182.31 163.75 13.55
1395 6.3920 171.37 163.68 13.02
1396 6.3930 185.25 163.62 13.48
1397 6.3940 198.02 163.55 13.88
1398 6.3950 188.11 163.49 13.52
1399 6.3960 164.68 163.43 12.69
1400 6.3970 190.44 163.36 13.61
1401 6.3980 192.41 163.30 13.73
1402 6.3990 163.39 163.23 12.71
1403 6.4000 200.41 162.65 14.18
1404 6.4010 172.32 162.59 13.21
1405 6.4020 162.64 161.61 12.77
1406 6.4030 177.72 161.57 13.27
1407 6.4040 196.49 161.52 13.91
1408 6.4050 190.45 161.48 13.72
1409 6.4060 188.70 161.43 13.67
1410 6.4070 165.93 161.39 12.80
1411 6.4080 201.12 161.35 14.08
1412 6.4090 170.64 161.30 12.98
1413 6.4100 179.58 161.26 13.44
1414 6.4110 183.75 161.21 13.60
1415 6.4120 159.02 161.17 12.55
1416 6.4130 185.12 161.12 13.48
1417 6.4140 184.53 161.08 13.39
1418 6.4150 171.36 161.04 12.95
1419 6.4160 182.98 160.99 13.42
1420 6.4170 176.38 160.95 13.13
1421 6.4180 158.83 160.90 12.49
1422 6.4190 164.91 160.86 12.73
1423 6.4200 185.27 160.82 13.60
1424 6.4210 169.34 160.77 13.02
1425 6.4220 175.36 160.73 13.14
1426 6.4230 180.73 160.68 13.29
1427 6.4240 167.15 160.64 12.77
1428 6.4250 151.31 160.59 12.22
1429 6.4260 180.38 160.55 13.42
1430 6.4270 189.35 160.51 13.70
1431 6.4280 176.17 160.46 13.24
1432 6.4290 184.31 160.42 13.56
1433 6.4300 172.81 160.37 13.21
1434 6.4310 181.80 160.33 13.57
1435 6.4320 174.50 160.29 13.21
1436 6.4330 171.71 160.24 12.98
1437 6.4340 189.11 160.20 13.65
1438 6.4350 165.64 160.15 12.77
1439 6.4360 158.40 160.11 12.48
1440 6.4370 180.51 160.07 13.30
1441 6.4380 163.85 160.02 12.70
1442 6.4390 159.04 159.98 12.54
1443 6.4400 179.02 159.93 13.40
1444 6.4410 172.19 159.89 13.16
1445 6.4420 181.44 159.85 13.43
1446 6.4430 180.26 159.80 13.26
1447 6.4440 156.34 159.76 12.35
1448 6.4450 181.59 159.72 13.29
1449 6.4460 174.79 159.67 13.12
1450 6.4470 175.21 159.63 13.14
1451 6.4480 152.87 159.58 12.28
1452 6.4490 157.00 159.54 12.48
1453 6.4500 162.12 159.50 12.80
1454 6.4510 153.03 159.45 12.53
1455 6.4520 154.00 159.41 12.41
1456 6.4530 147.98 159.37 12.05
1457 6.4540 191.39 159.32 13.75
1458 6.4550 152.24 159.28 12.27
1459 6.4560 149.97 159.23 12.19
1460 6.4570 180.75 159.19 13.35
1461 6.4580 177.70 159.15 13.18
1462 6.4590 191.48 159.10 13.82
1463 6.4600 178.42 159.06 13.41
1464 6.4610 165.35 159.02 12.91
1465 6.4620 167.29 158.97 12.89
1466 6.4630 168.01 158.93 12.85
1467 6.4640 196.80 158.88 13.81
1468 6.4650 186.48 158.84 13.51
1469 6.4660 170.84 158.80 13.02
1470 6.4670 175.95 158.76 13.15
1471 6.4680 198.09 158.71 13.97
1472 6.4690 150.81 158.67 12.17
1473 6.4700 182.57 158.62 13.54
1474 6.4710 163.86 158.58 12.85
1475 6.4720 180.41 158.54 13.43
1476 6.4730 178.50 158.49 13.25
1477 6.4740 170.36 158.45 12.92
1478 6.4750 165.68 158.41 12.83
1479 6.4760 150.00 158.36 12.21
1480 6.4770 201.65 158.32 14.13
1481 6.4780 182.24 158.28 13.47
1482 6.4790 172.48 158.23 13.12
1483 6.4800 172.10 158.19 13.21
1484 6.4810 171.59 158.15 13.19
1485 6.4820 179.37 158.10 13.36
1486 6.4830 165.16 158.06 12.79
1487 6.4840 176.26 158.02 13.12
1488 6.4850 166.97 157.97 12.80
1489 6.4860 146.17 157.93 12.00
1490 6.4870 177.10 157.89 13.21
1491 6.4880 170.16 157.84 12.96
1492 6.4890 178.80 157.80 13.30
1493 6.4900 162.96 157.76 12.80
1494 6.4910 150.24 157.71 12.31
1495 6.4920 171.89 157.67 13.08
1496 6.4930 178.04 157.63 13.25
1497 6.4940 174.94 157.58 13.05
1498 6.4950 159.66 157.54 12.54
1499 6.4960 173.07 157.50 13.08
1500 6.4970 187.41 157.45 13.59
1501 6.4980 146.74 157.41 12.04
1502 6.4990 171.65 157.37 13.07
1503 6.5000 181.41 157.32 13.52
1504 6.5010 174.80 157.28 13.37
1505 6.5020 155.68 157.24 12.52
1506 6.5030 157.12 157.20 12.50
1507 6.5040 165.93 157.15 12.79
1508 6.5050 187.00 157.11 13.65
1509 6.5060 177.56 157.07 13.30
1510 6.5070 167.43 157.02 12.90
1511 6.5080 183.80 156.98 13.49
1512 6.5090 165.04 156.94 12.79
1513 6.5100 170.91 156.89 13.12
1514 6.5110 161.62 156.85 12.83
1515 6.5120 158.00 156.81 12.56
1516 6.5130 172.46 156.76 13.02
1517 6.5140 194.23 156.72 13.79
1518 6.5150 153.06 156.68 12.29
1519 6.5160 149.89 156.64 12.17
1520 6.5170 159.73 156.59 12.47
1521 6.5180 172.59 156.55 13.07
1522 6.5190 149.47 156.51 12.16
1523 6.5200 156.72 156.46 12.52
1524 6.5210 171.87 156.42 13.24
1525 6.5220 181.78 156.38 13.48
1526 6.5230 171.96 156.34 13.05
1527 6.5240 158.79 156.29 12.52
1528 6.5250 172.73 156.25 13.09
1529 6.5260 154.31 156.21 12.43
1530 6.5270 163.19 156.16 12.77
1531 6.5280 161.24 156.12 12.62
1532 6.5290 158.57 156.08 12.63
1533 6.5300 173.94 156.04 13.31
1534 6.5310 157.16 155.99 12.63
1535 6.5320 171.46 155.95 13.13
1536 6.5330 173.13 155.91 13.10
1537 6.5340 163.99 155.87 12.68
1538 6.5350 160.15 155.82 12.61
1539 6.5360 170.32 155.78 13.03
1540 6.5370 161.77 155.74 12.59
1541 6.5380 149.70 155.70 12.18
1542 6.5390 146.15 155.65 12.03
1543 6.5400 176.33 155.61 13.33
1544 6.5410 168.30 155.57 13.08
1545 6.5420 154.99 155.52 12.42
1546 6.5430 166.13 155.48 12.82
1547 6.5440 170.05 155.44 12.91
1548 6.5450 163.07 155.40 12.67
1549 6.5460 152.59 155.35 12.30
1550 6.5470 162.29 155.31 12.67
1551 6.5480 169.30 155.27 12.98
1552 6.5490 153.96 155.23 12.42
1553 6.5500 185.66 155.18 13.74
1554 6.5510 159.87 155.14 12.82
1555 6.5520 161.60 155.10 12.72
1556 6.5530 163.37 155.06 12.77
1557 6.5540 157.86 155.01 12.50
1558 6.5550 143.26 154.97 11.91
1559 6.5560 166.50 154.93 12.86
1560 6.5570 150.41 154.89 12.22
1561 6.5580 163.20 154.85 12.71
1562 6.5590 170.77 154.80 13.06
1563 6.5600 156.68 154.76 12.59
1564 6.5610 166.36 154.72 13.02
1565 6.5620 177.14 154.68 13.26
1566 6.5630 140.84 154.63 11.80
1567 6.5640 197.00 154.59 13.89
1568 6.5650 144.48 154.55 11.95
1569 6.5660 158.03 154.51 12.55
1570 6.5670 160.17 154.46 12.59
1571 6.5680 172.92 154.42 13.03
1572 6.5690 141.46 154.38 11.83
1573 6.5700 143.28 154.34 12.01
1574 6.5710 157.55 154.29 12.65
1575 6.5720 164.27 154.25 12.85
1576 6.5730 179.67 154.21 13.34
1577 6.5740 172.05 154.17 13.09
1578 6.5750 160.37 154.13 12.66
1579 6.5760 164.25 154.08 12.88
1580 6.5770 150.63 154.04 12.24
1581 6.5780 170.48 154.00 13.05
1582 6.5790 151.75 153.96 12.30
1583 6.5800 152.09 153.91 12.39
1584 6.5810 159.70 153.87 12.73
1585 6.5820 139.98 153.83 11.84
1586 6.5830 169.24 153.79 12.96
1587 6.5840 163.77 153.75 12.68
1588 6.5850 160.31 153.70 12.58
1589 6.5860 150.45 153.66 12.20
1590 6.5870 165.31 153.62 12.73
1591 6.5880 180.29 153.58 13.32
1592 6.5890 169.20 153.54 12.91
1593 6.5900 158.23 153.49 12.63
1594 6.5910 172.12 153.45 13.22
1595 6.5920 149.44 153.41 12.19
1596 6.5930 162.61 153.37 12.62
1597 6.5940 172.27 153.33 13.00
1598 6.5950 180.21 153.28 13.33
1599 6.5960 144.93 153.24 12.03
1600 6.5970 156.64 153.20 12.44
1601 6.5980 151.04 153.16 12.29
1602 6.5990 155.81 153.12 12.45
1603 6.6000 160.41 153.07 12.78
1604 6.6010 175.40 153.03 13.38
1605 6.6020 178.93 152.99 13.47
1606 6.6030 174.17 152.95 13.12
1607 6.6040 161.26 152.91 12.65
1608 6.6050 171.39 152.87 13.03
1609 6.6060 154.57 152.82 12.41
1610 6.6070 152.48 152.78 12.28
1611 6.6080 163.41 152.74 12.70
1612 6.6090 157.35 152.70 12.50
1613 6.6100 158.70 152.66 12.63
1614 6.6110 161.41 152.62 12.76
1615 6.6120 166.46 152.57 12.87
1616 6.6130 157.46 152.53 12.41
1617 6.6140 167.27 152.49 12.85
1618 6.6150 157.49 152.45 12.43
1619 6.6160 169.54 152.41 12.91
1620 6.6170 150.95 152.37 12.20
1621 6.6180 151.60 152.32 12.20
1622 6.6190 147.38 152.28 12.12
1623 6.6200 160.69 152.24 12.74
1624 6.6210 156.72 152.20 12.60
1625 6.6220 165.62 152.16 12.88
1626 6.6230 138.75 152.12 11.74
1627 6.6240 159.98 152.07 12.57
1628 6.6250 169.23 152.03 12.92
1629 6.6260 160.15 151.99 12.69
1630 6.6270 170.23 151.95 12.95
1631 6.6280 150.56 151.91 12.24
1632 6.6290 143.34 151.87 11.95
1633 6.6300 153.15 151.82 12.49
1634 6.6310 152.68 151.78 12.44
1635 6.6320 149.88 151.74 12.24
1636 6.6330 165.92 151.70 12.76
1637 6.6340 148.12 151.66 12.06
1638 6.6350 146.18 151.62 11.97
1639 6.6360 173.30 151.57 13.12
1640 6.6370 154.92 151.53 12.31
1641 6.6380 153.94 151.49 12.33
1642 6.6390 168.08 151.45 12.89
1643 6.6400 143.92 151.41 12.04
1644 6.6410 149.21 151.37 12.26
1645 6.6420 137.78 151.33 11.74
1646 6.6430 161.19 151.29 12.58
1647 6.6440 149.17 151.24 12.06
1648 6.6450 155.98 151.20 12.38
1649 6.6460 160.71 151.16 12.68
1650 6.6470 158.84 151.12 12.53
1651 6.6480 165.01 151.08 12.85
1652 6.6490 176.63 151.04 13.27
1653 6.6500 154.51 151.00 12.54
1654 6.6510 163.62 150.96 12.91
1655 6.6520 142.65 150.91 11.98
1656 6.6530 160.85 150.87 12.61
1657 6.6540 147.25 150.83 12.03
1658 6.6550 134.74 150.79 11.57
1659 6.6560 130.30 150.75 11.40
1660 6.6570 153.79 150.71 12.32
1661 6.6580 154.02 150.67 12.31
1662 6.6590 155.91 150.63 12.37
1663 6.6600 142.53 150.58 11.97
1664 6.6610 131.71 150.54 11.50
1665 6.6620 143.65 150.50 11.98
1666 6.6630 140.82 150.46 11.73
1667 6.6640 167.15 150.42 12.72
1668 6.6650 166.32 150.38 12.73
1669 6.6660 145.46 150.34 11.99
1670 6.6670 147.76 150.30 12.05
1671 6.6680 140.04 150.26 11.76
1672 6.6690 151.90 150.21 12.24
1673 6.6700 160.47 150.17 12.76
1674 6.6710 174.50 150.13 13.37
1675 6.6720 153.96 150.09 12.40
1676 6.6730 137.29 150.05 11.66
1677 6.6740 165.73 150.01 12.82
1678 6.6750 151.39 149.97 12.28
1679 6.6760 154.19 149.93 12.39
1680 6.6770 147.40 149.89 12.02
1681 6.6780 149.43 149.85 12.18
1682 6.6790 156.56 149.80 12.52
1683 6.6800 154.61 149.76 12.46
1684 6.6810 142.40 149.72 12.03
1685 6.6820 145.83 149.68 12.08
1686 6.6830 172.85 149.64 13.04
1687 6.6840 137.30 149.60 11.59
1688 6.6850 147.40 149.56 12.01
1689 6.6860 144.71 149.52 11.97
1690 6.6870 156.01 149.48 12.37
1691 6.6880 142.74 149.44 11.83
1692 6.6890 146.87 149.40 12.06
1693 6.6900 151.64 149.36 12.39
1694 6.6910 144.34 149.32 12.07
1695 6.6920 141.42 149.27 11.90
1696 6.6930 159.80 149.23 12.49
1697 6.6940 170.93 149.19 12.95
1698 6.6950 157.12 149.15 12.50
1699 6.6960 156.68 149.11 12.53
1700 6.6970 138.46 149.07 11.71
1701 6.6980 150.13 149.03 12.25
1702 6.6990 155.92 148.99 12.51
1703 6.7000 155.73 148.95 12.53
1704 6.7010 155.14 148.91 12.56
1705 6.7020 141.42 148.87 11.92
1706 6.7030 152.41 148.83 12.28
1707 6.7040 150.87 148.79 12.18
1708 6.7050 150.92 148.74 12.22
1709 6.7060 157.82 148.71 12.52
1710 6.7070 145.94 148.66 12.01
1711 6.7080 174.37 148.62 13.14
1712 6.7090 135.10 148.58 11.58
1713 6.7100 151.32 148.54 12.34
1714 6.7110 164.03 148.50 12.85
1715 6.7120 145.35 148.46 12.03
1716 6.7130 171.37 148.42 12.95
1717 6.7140 153.41 148.38 12.26
1718 6.7150 148.20 148.34 12.08
1719 6.7160 147.22 148.30 12.09
1720 6.7170 155.54 148.26 12.38
1721 6.7180 160.08 148.22 12.54
1722 6.7190 131.68 148.18 11.39
1723 6.7200 141.00 148.14 11.99
1724 6.7210 140.97 148.10 12.00
1725 6.7220 160.60 148.06 12.70
1726 6.7230 157.18 148.02 12.46
1727 6.7240 145.57 147.98 12.01
1728 6.7250 150.59 147.94 12.22
1729 6.7260 136.59 147.90 11.65
1730 6.7270 135.58 147.85 11.59
1731 6.7280 139.93 147.82 11.77
1732 6.7290 135.58 147.77 11.61
1733 6.7300 133.41 147.74 11.63
1734 6.7310 150.53 147.69 12.33
1735 6.7320 138.12 147.65 11.75
1736 6.7330 150.59 147.61 12.17
1737 6.7340 134.72 147.57 11.49
1738 6.7350 156.33 147.53 12.36
1739 6.7360 147.47 147.49 12.08
1740 6.7370 150.90 147.45 12.17
1741 6.7380 137.16 147.41 11.65
1742 6.7390 172.93 147.37 13.06
1743 6.7400 136.38 147.33 11.75
1744 6.7410 130.26 147.29 11.46
1745 6.7420 128.79 147.25 11.31
1746 6.7430 153.61 147.21 12.31
1747 6.7440 171.17 147.17 12.99
1748 6.7450 156.83 147.13 12.51
1749 6.7460 150.67 147.09 12.30
1750 6.7470 153.68 147.05 12.33
1751 6.7480 146.45 147.01 12.02
1752 6.7490 161.67 146.97 12.70
1753 6.7500 151.46 146.93 12.43
1754 6.7510 154.09 146.89 12.54
1755 6.7520 162.26 146.85 12.76
1756 6.7530 154.60 146.81 12.39
1757 6.7540 142.92 146.77 11.89
1758 6.7550 140.86 146.73 11.79
1759 6.7560 152.30 146.69 12.28
1760 6.7570 129.16 146.65 11.26
1761 6.7580 142.41 146.61 11.82
1762 6.7590 153.13 146.57 12.33
1763 6.7600 179.56 146.53 13.40
1764 6.7610 154.53 146.49 12.51
1765 6.7620 137.54 146.45 11.72
1766 6.7630 144.91 146.41 11.95
1767 6.7640 146.93 146.37 11.99
1768 6.7650 145.63 146.33 11.97
1769 6.7660 142.44 146.29 11.90
1770 6.7670 168.40 146.25 12.86
1771 6.7680 148.64 146.21 12.06
1772 6.7690 152.20 146.17 12.31
1773 6.7700 143.00 146.13 12.06
1774 6.7710 148.10 146.09 12.30
1775 6.7720 160.92 146.05 12.71
1776 6.7730 125.15 146.01 11.15
1777 6.7740 137.70 145.97 11.66
1778 6.7750 147.21 145.93 12.07
1779 6.7760 125.85 145.89 11.19
1780 6.7770 128.41 145.85 11.27
1781 6.7780 156.91 145.82 12.51
1782 6.7790 144.24 145.77 11.97
1783 6.7800 153.24 145.74 12.41
1784 6.7810 137.16 145.70 11.73
1785 6.7820 130.45 145.66 11.39
1786 6.7830 152.03 145.62 12.18
1787 6.7840 134.50 145.58 11.43
1788 6.7850 139.01 145.54 11.68
1789 6.7860 135.84 145.50 11.60
1790 6.7870 145.59 145.46 12.00
1791 6.7880 140.58 145.42 11.74
1792 6.7890 143.18 145.38 11.83
1793 6.7900 145.01 145.34 12.04
1794 6.7910 159.54 145.30 12.65
1795 6.7920 133.25 145.26 11.51
1796 6.7930 132.88 145.22 11.41
1797 6.7940 160.94 145.18 12.60
1798 6.7950 143.51 145.14 11.91
1799 6.7960 138.88 145.10 11.76
1800 6.7970 150.31 145.06 12.18
1801 6.7980 159.49 145.02 12.56
1802 6.7990 130.63 144.98 11.40
1803 6.8000 142.76 144.94 12.02
1804 6.8010 137.67 144.90 11.79
1805 6.8020 143.81 144.87 12.00
1806 6.8030 135.51 144.83 11.55
1807 6.8040 162.62 144.79 12.62
1808 6.8050 133.41 144.75 11.44
1809 6.8060 141.56 144.71 11.82
1810 6.8070 131.09 144.67 11.36
1811 6.8080 125.33 144.63 11.09
1812 6.8090 123.01 144.59 11.04
1813 6.8100 141.09 144.55 11.86
1814 6.8110 129.57 144.51 11.46
1815 6.8120 150.97 144.47 12.24
1816 6.8130 150.12 144.43 12.09
1817 6.8140 139.33 144.39 11.69
1818 6.8150 154.19 144.35 12.31
1819 6.8160 147.92 144.31 12.08
1820 6.8170 168.66 144.27 12.87
1821 6.8180 144.40 144.24 11.96
1822 6.8190 141.80 144.20 11.86
1823 6.8200 161.79 144.16 12.79
1824 6.8210 118.25 144.12 10.98
1825 6.8220 136.46 144.08 11.65
1826 6.8230 139.19 144.04 11.68
1827 6.8240 143.37 144.00 11.87
1828 6.8250 123.84 143.96 11.07
1829 6.8260 136.20 143.92 11.60
1830 6.8270 140.33 143.88 11.77
1831 6.8280 136.29 143.84 11.58
1832 6.8290 127.81 143.80 11.21
1833 6.8300 130.78 143.77 11.45
1834 6.8310 128.09 143.73 11.35
1835 6.8320 128.12 143.69 11.27
1836 6.8330 132.53 143.65 11.37
1837 6.8340 138.21 143.61 11.58
1838 6.8350 133.53 143.57 11.41
1839 6.8360 133.46 143.53 11.45
1840 6.8370 135.88 143.49 11.55
1841 6.8380 142.50 143.45 11.80
1842 6.8390 165.10 143.41 12.71
1843 6.8400 142.47 143.38 11.97
1844 6.8410 150.16 143.34 12.31
1845 6.8420 146.31 143.30 12.07
1846 6.8430 142.95 143.26 11.87
1847 6.8440 142.10 143.22 11.82
1848 6.8450 152.45 143.18 12.32
1849 6.8460 168.79 143.14 12.92
1850 6.8470 160.50 143.10 12.54
1851 6.8480 147.60 143.06 12.08
1852 6.8490 155.22 143.02 12.41
1853 6.8500 139.08 142.99 11.84
1854 6.8510 132.79 142.95 11.60
1855 6.8520 145.00 142.91 12.03
1856 6.8530 149.34 142.87 12.12
1857 6.8540 153.05 142.83 12.23
1858 6.8550 154.07 142.79 12.26
1859 6.8560 137.56 142.75 11.63
1860 6.8570 141.44 142.71 11.77
1861 6.8580 125.06 142.68 11.07
1862 6.8590 146.11 142.64 11.97
1863 6.8600 141.53 142.60 11.90
1864 6.8610 123.70 142.56 11.14
1865 6.8620 136.22 142.52 11.63
1866 6.8630 145.66 142.48 11.95
1867 6.8640 164.51 142.44 12.64
1868 6.8650 149.34 142.40 12.11
1869 6.8660 147.80 142.37 12.16
1870 6.8670 145.09 142.33 11.99
1871 6.8680 129.90 142.29 11.33
1872 6.8690 165.52 142.25 12.84
1873 6.8700 140.54 142.21 11.88
1874 6.8710 156.66 142.17 12.55
1875 6.8720 138.73 142.13 11.72
1876 6.8730 119.10 142.10 10.86
1877 6.8740 156.01 142.06 12.39
1878 6.8750 140.41 142.02 11.75
1879 6.8760 142.85 141.98 11.90
1880 6.8770 135.46 141.94 11.57
1881 6.8780 147.83 141.90 12.03
1882 6.8790 136.59 141.87 11.60
1883 6.8800 135.12 141.83 11.62
1884 6.8810 138.80 141.79 11.80
1885 6.8820 146.94 141.75 12.02
1886 6.8830 139.85 141.71 11.71
1887 6.8840 129.36 141.67 11.17
1888 6.8850 120.23 141.63 10.85
1889 6.8860 135.72 141.60 11.57
1890 6.8870 167.49 141.56 12.77
1891 6.8880 140.03 141.52 11.69
1892 6.8890 148.37 141.48 12.10
1893 6.8900 137.93 141.44 11.79
1894 6.8910 140.54 141.40 11.93
1895 6.8920 152.43 141.37 12.35
1896 6.8930 152.58 141.33 12.33
1897 6.8940 162.06 141.29 12.58
1898 6.8950 147.18 141.25 12.07
1899 6.8960 141.54 141.21 11.83
1900 6.8970 137.69 141.17 11.64
1901 6.8980 156.20 141.13 12.43
1902 6.8990 139.53 141.10 11.80
1903 6.9000 130.93 141.06 11.54
1904 6.9010 143.61 141.02 12.05
1905 6.9020 132.12 140.98 11.48
1906 6.9030 133.50 140.94 11.45
1907 6.9040 136.53 140.91 11.53
1908 6.9050 130.39 140.87 11.27
1909 6.9060 135.02 140.83 11.52
1910 6.9070 141.48 140.79 11.75
1911 6.9080 131.67 140.75 11.36
1912 6.9090 146.36 140.71 12.03
1913 6.9100 127.31 140.68 11.26
1914 6.9110 133.33 140.64 11.57
1915 6.9120 154.46 140.60 12.39
1916 6.9130 126.82 140.56 11.16
1917 6.9140 144.73 140.52 11.90
1918 6.9150 140.14 140.49 11.77
1919 6.9160 112.26 140.45 10.59
1920 6.9170 117.21 140.41 10.79
1921 6.9180 138.39 140.37 11.71
1922 6.9190 129.05 140.33 11.29
1923 6.9200 127.79 140.30 11.33
1924 6.9210 131.77 140.26 11.58
1925 6.9220 142.37 140.22 11.94
1926 6.9230 140.26 140.18 11.80
1927 6.9240 144.84 140.14 11.97
1928 6.9250 134.76 140.11 11.53
1929 6.9260 131.82 140.07 11.47
1930 6.9270 141.17 140.03 11.81
1931 6.9280 136.38 139.99 11.55
1932 6.9290 139.32 139.95 11.70
1933 6.9300 143.03 139.92 12.00
1934 6.9310 134.84 139.88 11.63
1935 6.9320 133.88 139.84 11.54
1936 6.9330 112.08 139.80 10.47
1937 6.9340 126.10 139.76 11.06
1938 6.9350 118.67 139.73 10.75
1939 6.9360 136.80 139.69 11.59
1940 6.9370 153.17 139.65 12.26
1941 6.9380 122.28 139.61 10.95
1942 6.9390 120.59 139.57 11.00
1943 6.9400 137.42 139.54 11.79
1944 6.9410 134.91 139.50 11.71
1945 6.9420 134.04 139.46 11.60
1946 6.9430 128.68 139.42 11.26
1947 6.9440 128.93 139.39 11.26
1948 6.9450 115.78 139.35 10.66
1949 6.9460 140.79 139.31 11.84
1950 6.9470 127.32 139.27 11.25
1951 6.9480 138.98 139.24 11.76
1952 6.9490 133.38 139.20 11.52
1953 6.9500 157.85 139.16 12.69
1954 6.9510 124.84 139.12 11.26
1955 6.9520 132.03 139.09 11.48
1956 6.9530 140.77 139.05 11.80
1957 6.9540 137.97 139.01 11.59
1958 6.9550 126.99 138.97 11.17
1959 6.9560 142.35 138.93 11.88
1960 6.9570 106.32 138.90 10.22
1961 6.9580 124.29 138.86 11.06
1962 6.9590 133.98 138.82 11.46
1963 6.9600 157.23 138.78 12.57
1964 6.9610 149.74 138.75 12.22
1965 6.9620 133.42 138.71 11.51
1966 6.9630 133.22 138.67 11.46
1967 6.9640 147.90 138.63 12.09
1968 6.9650 132.78 138.60 11.49
1969 6.9660 142.98 138.56 11.99
1970 6.9670 147.69 138.52 12.13
1971 6.9680 126.14 138.48 11.22
1972 6.9690 123.94 138.45 11.10
1973 6.9700 135.25 138.41 11.74
1974 6.9710 137.21 138.37 11.83
1975 6.9720 139.24 138.33 11.79
1976 6.9730 135.86 138.30 11.64
1977 6.9740 122.39 138.26 11.00
1978 6.9750 140.03 138.22 11.82
1979 6.9760 145.21 138.18 12.03
1980 6.9770 137.77 138.15 11.67
1981 6.9780 143.23 138.11 11.85
1982 6.9790 129.22 138.07 11.28
1983 6.9800 147.00 138.04 12.16
1984 6.9810 130.64 138.00 11.46
1985 6.9820 128.22 137.96 11.32
1986 6.9830 114.87 137.92 10.66
1987 6.9840 152.59 137.89 12.20
1988 6.9850 149.27 137.85 12.11
1989 6.9860 128.69 137.81 11.30
1990 6.9870 121.31 137.77 10.90
1991 6.9880 122.27 137.74 11.00
1992 6.9890 133.56 137.70 11.52
1993 6.9900 134.30 137.66 11.70
1994 6.9910 123.42 137.62 11.20
1995 6.9920 131.20 137.59 11.48
1996 6.9930 123.65 137.55 11.05
1997 6.9940 136.92 137.51 11.59
1998 6.9950 137.65 137.48 11.63
1999 6.9960 131.45 137.44 11.45
2000 6.9970 137.60 137.40 11.65
2001 6.9980 126.24 137.37 11.19
2002 6.9990 130.69 137.33 11.42
2003 7.0000 159.19 137.29 12.70
2004 7.0010 151.11 137.25 12.34
2005 7.0020 126.83 137.22 11.23
2006 7.0030 148.66 137.18 12.08
2007 7.0040 121.92 137.14 10.89
2008 7.0050 141.90 137.10 11.77
2009 7.0060 134.05 137.07 11.51
2010 7.0070 130.77 137.03 11.31
2011 7.0080 131.61 136.99 11.35
2012 7.0090 113.61 136.96 10.56
2013 7.0100 127.45 136.92 11.28
2014 7.0110 137.78 136.88 11.79
2015 7.0120 142.48 136.85 11.92
2016 7.0130 139.69 136.81 11.74
2017 7.0140 136.04 136.77 11.58
2018 7.0150 135.67 136.74 11.61
2019 7.0160 128.01 136.70 11.33
2020 7.0170 124.99 136.66 11.07
2021 7.0180 117.15 136.62 10.73
2022 7.0190 144.85 136.59 11.98
2023 7.0200 135.79 136.55 11.73
2024 7.0210 125.08 136.51 11.25
2025 7.0220 123.12 136.48 11.08
2026 7.0230 116.35 136.44 10.73
2027 7.0240 104.93 136.40 10.15
2028 7.0250 129.50 136.37 11.27
2029 7.0260 121.71 136.33 10.94
2030 7.0270 117.57 136.29 10.72
2031 7.0280 121.99 136.26 10.94
2032 7.0290 136.71 136.22 11.58
2033 7.0300 122.42 136.18 11.08
2034 7.0310 131.66 136.15 11.50
2035 7.0320 119.04 136.11 10.85
2036 7.0330 125.68 136.07 11.05
2037 7.0340 123.30 136.04 10.95
2038 7.0350 116.04 136.00 10.66
2039 7.0360 138.64 135.96 11.73
2040 7.0370 111.66 135.93 10.50
2041 7.0380 127.07 135.89 11.16
2042 7.0390 134.52 135.85 11.57
2043 7.0400 134.90 135.82 11.69
2044 7.0410 137.04 135.78 11.77
2045 7.0420 122.24 135.74 11.02
2046 7.0430 140.20 135.71 11.73
2047 7.0440 125.39 135.67 11.10
2048 7.0450 119.27 135.63 10.84
2049 7.0460 114.18 135.60 10.64
2050 7.0470 133.44 135.56 11.42
2051 7.0480 121.00 135.52 10.96
2052 7.0490 144.45 135.49 11.95
2053 7.0500 117.49 135.45 10.85
2054 7.0510 135.03 135.41 11.67
2055 7.0520 132.59 135.38 11.48
2056 7.0530 125.84 135.34 11.13
2057 7.0540 123.79 135.30 10.95
2058 7.0550 124.50 135.27 11.02
2059 7.0560 131.70 135.23 11.39
2060 7.0570 123.66 135.19 10.98
2061 7.0580 141.86 135.16 11.76
2062 7.0590 151.07 135.12 12.21
2063 7.0600 136.40 135.09 11.67
2064 7.0610 126.13 135.05 11.31
2065 7.0620 125.43 135.01 11.18
2066 7.0630 129.12 134.98 11.29
2067 7.0640 117.15 134.94 10.70
2068 7.0650 132.92 134.90 11.43
2069 7.0660 129.39 134.87 11.29
2070 7.0670 140.01 134.83 11.72
2071 7.0680 133.19 134.79 11.44
2072 7.0690 117.61 134.76 10.80
2073 7.0700 117.32 134.72 10.87
2074 7.0710 122.92 134.68 11.15
2075 7.0720 138.22 134.65 11.73
2076 7.0730 124.43 134.61 11.08
2077 7.0740 129.08 134.58 11.21
2078 7.0750 106.22 134.54 10.17
2079 7.0760 105.41 134.50 10.18
2080 7.0770 127.34 134.47 11.18
2081 7.0780 118.33 134.43 10.71
2082 7.0790 132.01 134.40 11.42
2083 7.0800 118.19 134.36 10.82
2084 7.0810 114.99 134.32 10.75
2085 7.0820 121.69 134.29 11.00
2086 7.0830 121.75 134.25 10.91
2087 7.0840 133.20 134.21 11.38
2088 7.0850 129.89 134.18 11.29
2089 7.0860 141.35 134.14 11.89
2090 7.0870 122.47 134.11 10.96
2091 7.0880 120.70 134.07 10.93
2092 7.0890 130.62 134.03 11.37
2093 7.0900 122.68 134.00 11.09
2094 7.0910 118.80 133.96 10.99
2095 7.0920 119.75 133.93 10.90
2096 7.0930 127.03 133.89 11.19
2097 7.0940 142.17 133.85 11.81
2098 7.0950 126.97 133.82 11.19
2099 7.0960 125.00 133.78 11.17
2100 7.0970 121.33 133.74 10.95
2101 7.0980 133.46 133.71 11.44
2102 7.0990 126.40 133.67 11.19
2103 7.1000 150.34 133.64 12.24
2104 7.1010 103.13 133.60 10.18
2105 7.1020 115.34 133.57 10.66
2106 7.1030 114.51 133.53 10.57
2107 7.1040 109.66 133.49 10.32
2108 7.1050 117.06 133.46 10.65
2109 7.1060 113.78 133.42 10.57
2110 7.1070 129.90 133.39 11.28
2111 7.1080 136.99 133.35 11.56
2112 7.1090 101.18 133.31 10.01
2113 7.1100 120.10 133.28 10.99
2114 7.1110 116.32 133.24 10.88
2115 7.1120 125.16 133.21 11.16
2116 7.1130 121.13 133.17 10.93
2117 7.1140 136.96 133.13 11.63
2118 7.1150 126.59 133.10 11.21
2119 7.1160 118.63 133.06 10.85
2120 7.1170 128.12 133.03 11.23
2121 7.1180 134.08 132.99 11.51
2122 7.1190 136.86 132.96 11.70
2123 7.1200 125.75 132.92 11.28
2124 7.1210 129.51 132.88 11.47
2125 7.1220 127.19 132.85 11.28
2126 7.1230 112.19 132.81 10.52
2127 7.1240 114.73 132.78 10.58
2128 7.1250 120.75 132.74 10.88
2129 7.1260 133.86 132.71 11.49
2130 7.1270 131.98 132.67 11.38
2131 7.1280 143.98 132.63 11.89
2132 7.1290 128.64 132.60 11.24
2133 7.1300 130.41 132.56 11.41
2134 7.1310 117.12 132.53 10.86
2135 7.1320 114.60 132.49 10.69
2136 7.1330 130.68 132.46 11.27
2137 7.1340 129.57 132.42 11.28
2138 7.1350 132.32 132.39 11.44
2139 7.1360 131.83 132.35 11.43
2140 7.1370 149.16 132.32 12.14
2141 7.1380 125.65 132.28 11.12
2142 7.1390 132.57 132.24 11.48
2143 7.1400 141.55 132.21 11.98
2144 7.1410 119.39 132.17 10.99
2145 7.1420 134.95 132.14 11.60
2146 7.1430 115.93 132.10 10.71
2147 7.1440 120.00 132.07 10.90
2148 7.1450 120.82 132.03 10.90
2149 7.1460 113.38 131.99 10.61
2150 7.1470 154.14 131.96 12.33
2151 7.1480 116.75 131.92 10.74
2152 7.1490 120.53 131.89 10.93
2153 7.1500 145.01 131.85 12.06
2154 7.1510 128.99 131.82 11.42
2155 7.1520 132.38 131.78 11.46
2156 7.1530 144.78 131.75 11.87
2157 7.1540 110.18 131.71 10.30
2158 7.1550 112.89 131.68 10.51
2159 7.1560 121.21 131.64 10.93
2160 7.1570 135.99 131.61 11.53
2161 7.1580 115.01 131.57 10.60
2162 7.1590 125.56 131.54 11.20
2163 7.1600 125.03 131.50 11.22
2164 7.1610 137.11 131.46 11.78
2165 7.1620 135.68 131.43 11.61
2166 7.1630 122.23 131.39 10.98
2167 7.1640 133.83 131.36 11.51
2168 7.1650 137.30 131.32 11.64
2169 7.1660 127.43 131.29 11.23
2170 7.1670 120.18 131.25 10.91
2171 7.1680 129.80 131.22 11.34
2172 7.1690 122.58 131.18 11.08
2173 7.1700 146.40 131.15 12.15
2174 7.1710 121.63 131.11 11.13
2175 7.1720 104.93 131.08 10.23
2176 7.1730 128.39 131.04 11.21
2177 7.1740 122.19 131.01 10.93
2178 7.1750 106.69 130.97 10.19
2179 7.1760 120.94 130.94 10.92
2180 7.1770 140.46 130.90 11.76
2181 7.1780 134.99 130.87 11.48
2182 7.1790 124.92 130.83 11.10
2183 7.1800 109.65 130.80 10.48
2184 7.1810 123.59 130.76 11.10
2185 7.1820 116.97 130.73 10.75
2186 7.1830 120.61 130.69 10.87
2187 7.1840 125.26 130.66 11.12
2188 7.1850 118.24 130.62 10.80
2189 7.1860 124.59 130.59 11.15
2190 7.1870 134.95 130.55 11.54
2191 7.1880 125.77 130.52 11.11
2192 7.1890 122.65 130.48 11.04
2193 7.1900 122.18 130.45 11.05
2194 7.1910 138.04 130.41 11.83
2195 7.1920 132.18 130.38 11.53
2196 7.1930 116.45 130.34 10.75
2197 7.1940 122.47 130.31 11.01
2198 7.1950 118.62 130.27 10.82
2199 7.1960 114.28 130.24 10.62
2200 7.1970 128.10 130.20 11.19
2201 7.1980 108.16 130.17 10.29
2202 7.1990 122.75 130.13 11.05
2203 7.2000 133.93 130.10 11.58
2204 7.2010 122.44 130.06 11.12
2205 7.2020 124.23 130.03 11.09
2206 7.2030 113.10 129.99 10.55
2207 7.2040 141.21 129.96 11.72
2208 7.2050 120.96 129.92 10.90
2209 7.2060 115.87 129.89 10.69
2210 7.2070 139.35 129.85 11.73
2211 7.2080 108.47 129.82 10.33
2212 7.2090 111.05 129.78 10.55
2213 7.2100 145.33 129.75 12.05
2214 7.2110 117.05 129.71 10.89
2215 7.2120 87.83 129.68 9.32
2216 7.2130 125.19 129.65 11.09
2217 7.2140 132.93 129.61 11.43
2218 7.2150 112.53 129.58 10.51
2219 7.2160 123.38 129.54 11.04
2220 7.2170 111.68 129.51 10.53
2221 7.2180 106.32 129.47 10.28
2222 7.2190 136.80 129.44 11.65
2223 7.2200 113.74 129.40 10.71
2224 7.2210 102.42 129.37 10.16
2225 7.2220 110.75 129.33 10.47
2226 7.2230 117.03 129.30 10.74
2227 7.2240 127.70 129.26 11.14
2228 7.2250 116.00 129.23 10.69
2229 7.2260 115.44 129.20 10.66
2230 7.2270 118.39 129.16 10.80
2231 7.2280 116.28 129.13 10.63
2232 7.2290 104.08 129.09 10.12
2233 7.2300 124.26 129.06 11.17
2234 7.2310 132.53 129.02 11.51
2235 7.2320 109.55 128.99 10.45
2236 7.2330 110.24 128.95 10.44
2237 7.2340 108.57 128.92 10.31
2238 7.2350 98.90 128.88 9.92
2239 7.2360 115.82 128.85 10.72
2240 7.2370 118.71 128.82 10.80
2241 7.2380 107.15 128.78 10.24
2242 7.2390 114.82 128.75 10.68
2243 7.2400 112.40 128.71 10.62
2244 7.2410 92.89 128.68 9.74
2245 7.2420 120.36 128.64 11.00
2246 7.2430 112.55 128.61 10.57
2247 7.2440 109.19 128.57 10.32
2248 7.2450 124.77 128.54 11.08
2249 7.2460 137.61 128.51 11.68
2250 7.2470 123.92 128.47 11.03
2251 7.2480 125.11 128.44 11.06
2252 7.2490 130.41 128.40 11.37
2253 7.2500 127.25 128.37 11.29
2254 7.2510 118.19 128.34 10.89
2255 7.2520 134.46 128.30 11.54
2256 7.2530 112.12 128.27 10.49
2257 7.2540 116.37 128.23 10.64
2258 7.2550 118.41 128.20 10.82
2259 7.2560 97.91 128.16 9.85
2260 7.2570 91.25 128.13 9.52
2261 7.2580 107.36 128.10 10.31
2262 7.2590 133.89 128.06 11.54
2263 7.2600 108.32 128.03 10.48
2264 7.2610 110.83 127.99 10.55
2265 7.2620 128.99 127.96 11.31
2266 7.2630 123.61 127.92 11.01
2267 7.2640 114.86 127.89 10.60
2268 7.2650 121.53 127.86 10.98
2269 7.2660 123.65 127.82 11.13
2270 7.2670 117.64 127.79 10.81
2271 7.2680 123.94 127.75 11.09
2272 7.2690 123.63 127.72 11.06
2273 7.2700 108.42 127.69 10.44
2274 7.2710 124.91 127.65 11.23
2275 7.2720 128.62 127.62 11.32
2276 7.2730 99.23 127.58 9.86
2277 7.2740 108.05 127.55 10.28
2278 7.2750 111.22 127.51 10.46
2279 7.2760 116.40 127.48 10.75
2280 7.2770 114.67 127.45 10.60
2281 7.2780 120.34 127.41 10.84
2282 7.2790 93.49 127.38 9.65
2283 7.2800 106.30 127.35 10.37
2284 7.2810 90.80 127.31 9.60
2285 7.2820 116.38 127.28 10.79
2286 7.2830 126.65 127.24 11.18
2287 7.2840 109.62 127.21 10.41
2288 7.2850 111.69 127.18 10.46
2289 7.2860 115.13 127.14 10.71
2290 7.2870 105.34 127.11 10.20
2291 7.2880 110.42 127.07 10.50
2292 7.2890 106.45 127.04 10.29
2293 7.2900 116.41 127.01 10.85
2294 7.2910 119.39 126.97 11.05
2295 7.2920 115.96 126.94 10.78
2296 7.2930 119.20 126.90 10.87
2297 7.2940 128.60 126.87 11.22
2298 7.2950 121.76 126.84 10.94
2299 7.2960 113.60 126.80 10.61
2300 7.2970 106.61 126.77 10.23
2301 7.2980 131.92 126.74 11.32
2302 7.2990 119.49 126.70 10.84
2303 7.3000 102.98 126.67 10.13
2304 7.3010 102.96 126.64 10.19
2305 7.3020 107.60 126.60 10.30
2306 7.3030 105.78 126.57 10.24
2307 7.3040 116.74 126.53 10.69
2308 7.3050 131.57 126.50 11.43
2309 7.3060 118.10 126.47 10.80
2310 7.3070 103.88 126.43 10.15
2311 7.3080 98.90 126.40 9.91
2312 7.3090 138.52 126.36 11.64
2313 7.3100 123.17 126.33 11.13
2314 7.3110 113.39 126.30 10.72
2315 7.3120 115.68 126.26 10.73
2316 7.3130 115.96 126.23 10.72
2317 7.3140 98.52 126.20 9.86
2318 7.3150 124.27 126.16 11.11
2319 7.3160 114.83 126.13 10.71
2320 7.3170 115.75 126.10 10.70
2321 7.3180 144.18 126.06 11.92
2322 7.3190 127.20 126.03 11.22
2323 7.3200 113.40 126.00 10.70
2324 7.3210 106.87 125.96 10.40
2325 7.3220 111.64 125.93 10.55
2326 7.3230 101.00 125.89 9.95
2327 7.3240 97.88 125.86 9.78
2328 7.3250 122.00 125.83 10.92
2329 7.3260 107.72 125.79 10.27
2330 7.3270 121.35 125.76 10.96
2331 7.3280 114.93 125.73 10.62
2332 7.3290 120.08 125.69 10.93
2333 7.3300 106.13 125.66 10.38
2334 7.3310 122.98 125.63 11.18
2335 7.3320 112.69 125.59 10.65
2336 7.3330 108.81 125.56 10.37
2337 7.3340 107.67 125.53 10.31
2338 7.3350 110.35 125.49 10.41
2339 7.3360 102.42 125.46 10.10
2340 7.3370 113.92 125.43 10.64
2341 7.3380 122.57 125.39 11.05
2342 7.3390 117.19 125.36 10.81
2343 7.3400 103.57 125.33 10.28
2344 7.3410 103.16 125.29 10.26
2345 7.3420 116.70 125.26 10.81
2346 7.3430 129.95 125.23 11.36
2347 7.3440 121.30 125.19 10.93
2348 7.3450 110.19 125.16 10.44
2349 7.3460 124.03 125.13 11.08
2350 7.3470 101.38 125.09 10.00
2351 7.3480 109.39 125.06 10.40
2352 7.3490 113.33 125.03 10.58
2353 7.3500 112.59 125.00 10.60
2354 7.3510 116.18 124.96 10.85
2355 7.3520 110.54 124.93 10.49
2356 7.3530 124.43 124.89 11.08
2357 7.3540 112.21 124.86 10.52
2358 7.3550 109.35 124.83 10.42
2359 7.3560 125.55 124.80 11.21
2360 7.3570 125.70 124.76 11.19
2361 7.3580 123.78 124.73 11.06
2362 7.3590 113.79 124.70 10.63
2363 7.3600 108.47 124.66 10.44
2364 7.3610 131.26 124.63 11.61
2365 7.3620 106.54 124.60 10.33
2366 7.3630 119.86 124.56 10.92
2367 7.3640 128.34 124.53 11.29
2368 7.3650 115.58 124.50 10.73
2369 7.3660 116.85 124.46 10.82
2370 7.3670 122.50 124.43 11.05
2371 7.3680 105.45 124.40 10.23
2372 7.3690 125.99 124.37 11.19
2373 7.3700 93.40 124.33 9.72
2374 7.3710 113.16 124.30 10.73
2375 7.3720 117.14 124.27 10.80
2376 7.3730 119.07 124.23 10.82
2377 7.3740 122.07 124.20 10.90
2378 7.3750 127.10 124.17 11.14
2379 7.3760 108.22 124.14 10.37
2380 7.3770 114.97 124.10 10.66
2381 7.3780 115.43 124.07 10.69
2382 7.3790 106.16 124.04 10.29
2383 7.3800 129.87 124.00 11.50
2384 7.3810 101.53 123.97 10.17
2385 7.3820 115.70 123.94 10.76
2386 7.3830 118.10 123.90 10.79
2387 7.3840 104.05 123.87 10.09
2388 7.3850 104.92 123.84 10.19
2389 7.3860 124.52 123.81 11.11
2390 7.3870 124.29 123.77 11.11
2391 7.3880 124.82 123.74 11.14
2392 7.3890 115.39 123.71 10.74
2393 7.3900 113.19 123.68 10.72
2394 7.3910 120.19 123.64 11.10
2395 7.3920 108.93 123.61 10.43
2396 7.3930 102.09 123.58 10.03
2397 7.3940 111.14 123.54 10.44
2398 7.3950 109.64 123.51 10.38
2399 7.3960 85.72 123.48 9.20
2400 7.3970 106.15 123.45 10.20
2401 7.3980 114.03 123.41 10.57
2402 7.3990 98.86 123.38 9.91
2403 7.4000 91.87 123.35 9.59
2404 7.4010 121.31 123.32 11.06
2405 7.4020 140.33 123.28 11.84
2406 7.4030 131.81 123.25 11.40
2407 7.4040 114.57 123.22 10.62
2408 7.4050 123.98 123.18 11.12
2409 7.4060 121.02 123.15 11.01
2410 7.4070 107.50 123.12 10.33
2411 7.4080 110.17 123.09 10.44
2412 7.4090 116.27 123.06 10.73
2413 7.4100 94.50 123.02 9.78
2414 7.4110 110.80 122.99 10.63
2415 7.4120 127.95 122.96 11.35
2416 7.4130 114.17 122.92 10.62
2417 7.4140 114.58 122.89 10.63
2418 7.4150 100.72 122.86 10.02
2419 7.4160 114.76 122.83 10.68
2420 7.4170 123.87 122.79 11.05
2421 7.4180 114.00 122.76 10.63
2422 7.4190 110.06 122.73 10.46
2423 7.4200 119.31 122.70 10.95
2424 7.4210 120.14 122.67 11.04
2425 7.4220 131.57 122.63 11.40
2426 7.4230 122.35 122.60 10.98
2427 7.4240 113.02 122.57 10.53
2428 7.4250 111.71 122.54 10.47
2429 7.4260 106.62 122.50 10.28
2430 7.4270 116.91 122.47 10.81
2431 7.4280 112.25 122.44 10.62
2432 7.4290 121.25 122.40 10.98
2433 7.4300 117.47 122.37 10.95
2434 7.4310 131.72 122.34 11.55
2435 7.4320 119.91 122.31 10.97
2436 7.4330 101.01 122.28 9.96
2437 7.4340 103.94 122.24 10.10
2438 7.4350 103.56 122.21 10.10
2439 7.4360 103.09 122.18 10.18
2440 7.4370 97.96 122.15 9.90
2441 7.4380 107.79 122.11 10.36
2442 7.4390 102.92 122.08 10.13
2443 7.4400 111.96 122.05 10.70
2444 7.4410 108.83 122.02 10.50
2445 7.4420 102.56 121.99 10.10
2446 7.4430 84.95 121.95 9.17
2447 7.4440 98.95 121.92 9.87
2448 7.4450 99.31 121.89 9.86
2449 7.4460 109.13 121.86 10.38
2450 7.4470 119.32 121.82 10.82
2451 7.4480 101.02 121.79 9.94
2452 7.4490 95.15 121.76 9.67
2453 7.4500 103.26 121.73 10.20
2454 7.4510 86.94 121.70 9.36
2455 7.4520 107.24 121.66 10.40
2456 7.4530 99.29 121.63 9.88
2457 7.4540 108.28 121.60 10.32
2458 7.4550 99.93 121.57 9.96
2459 7.4560 92.06 121.54 9.61
2460 7.4570 92.97 121.50 9.58
2461 7.4580 96.80 121.47 9.78
2462 7.4590 118.91 121.44 10.90
2463 7.4600 99.34 121.41 10.06
2464 7.4610 114.02 121.38 10.71
2465 7.4620 104.76 121.34 10.25
2466 7.4630 88.69 121.31 9.34
2467 7.4640 123.69 121.28 11.03
2468 7.4650 107.66 121.25 10.32
2469 7.4660 120.35 121.22 10.98
2470 7.4670 110.45 121.18 10.47
2471 7.4680 110.77 121.15 10.48
2472 7.4690 119.73 121.12 10.85
2473 7.4700 106.45 121.09 10.33
2474 7.4710 112.08 121.06 10.65
2475 7.4720 99.47 121.02 9.93
2476 7.4730 120.01 120.99 10.83
2477 7.4740 108.53 120.96 10.30
2478 7.4750 116.87 120.93 10.77
2479 7.4760 114.78 120.90 10.69
2480 7.4770 109.83 120.86 10.42
2481 7.4780 101.62 120.83 10.05
2482 7.4790 91.31 120.80 9.54
2483 7.4800 101.07 120.77 10.12
2484 7.4810 111.11 120.74 10.62
2485 7.4820 111.88 120.71 10.56
2486 7.4830 110.37 120.67 10.44
2487 7.4840 104.91 120.64 10.15
2488 7.4850 103.27 120.61 10.13
2489 7.4860 99.60 120.58 9.98
2490 7.4870 101.63 120.55 10.04
2491 7.4880 104.88 120.51 10.19
2492 7.4890 103.21 120.48 10.17
2493 7.4900 110.45 120.45 10.58
2494 7.4910 103.67 120.42 10.23
2495 7.4920 96.83 120.39 9.84
2496 7.4930 118.17 120.36 10.76
2497 7.4940 124.21 120.32 10.99
2498 7.4950 134.06 120.29 11.46
2499 7.4960 104.81 120.26 10.17
2500 7.4970 114.89 120.23 10.61
2501 7.4980 117.84 120.20 10.75
2502 7.4990 114.94 120.17 10.65
2503 7.5000 101.51 120.14 10.09
2504 7.5010 113.20 120.10 10.70
2505 7.5020 108.41 120.07 10.43
2506 7.5030 116.14 120.04 10.72
2507 7.5040 100.97 120.01 9.97
2508 7.5050 131.31 119.98 11.42
2509 7.5060 106.08 119.94 10.28
2510 7.5070 106.66 119.91 10.19
2511 7.5080 109.14 119.88 10.39
2512 7.5090 102.25 119.85 10.06
2513 7.5100 109.60 119.82 10.52
2514 7.5110 111.97 119.79 10.69
2515 7.5120 111.59 119.76 10.61
2516 7.5130 113.87 119.72 10.57
2517 7.5140 110.02 119.69 10.44
2518 7.5150 99.23 119.66 9.90
2519 7.5160 106.51 119.63 10.33
2520 7.5170 98.67 119.60 9.84
2521 7.5180 112.42 119.57 10.52
2522 7.5190 98.84 119.54 9.86
2523 7.5200 86.66 119.50 9.32
2524 7.5210 114.12 119.47 10.70
2525 7.5220 101.78 119.44 10.04
2526 7.5230 99.00 119.41 9.80
2527 7.5240 106.22 119.38 10.21
2528 7.5250 107.79 119.35 10.33
2529 7.5260 118.30 119.32 10.88
2530 7.5270 120.54 119.29 10.95
2531 7.5280 119.34 119.25 10.92
2532 7.5290 96.56 119.22 9.82
2533 7.5300 95.50 119.19 9.83
2534 7.5310 118.76 119.16 10.96
2535 7.5320 121.92 119.13 11.02
2536 7.5330 96.03 119.10 9.75
2537 7.5340 102.28 119.07 10.07
2538 7.5350 119.12 119.04 10.87
2539 7.5360 96.81 119.00 9.87
2540 7.5370 119.90 118.97 10.88
2541 7.5380 93.97 118.94 9.66
2542 7.5390 113.11 118.91 10.63
2543 7.5400 92.63 118.88 9.68
2544 7.5410 108.51 118.85 10.49
2545 7.5420 102.57 118.82 10.13
2546 7.5430 116.02 118.79 10.67
2547 7.5440 115.47 118.75 10.66
2548 7.5450 117.55 118.72 10.75
2549 7.5460 96.74 118.69 9.78
2550 7.5470 110.08 118.66 10.36
2551 7.5480 115.98 118.63 10.72
2552 7.5490 102.84 118.60 10.11
2553 7.5500 124.44 118.57 11.22
2554 7.5510 107.96 118.54 10.50
2555 7.5520 107.98 118.50 10.44
2556 7.5530 102.21 118.47 10.09
2557 7.5540 114.58 118.44 10.64
2558 7.5550 118.06 118.41 10.78
2559 7.5560 108.97 118.38 10.43
2560 7.5570 119.10 118.35 10.82
2561 7.5580 107.17 118.32 10.30
2562 7.5590 121.15 118.29 11.00
2563 7.5600 96.09 118.26 9.89
2564 7.5610 94.04 118.23 9.81
2565 7.5620 82.86 118.19 9.15
2566 7.5630 100.95 118.16 9.99
2567 7.5640 104.03 118.13 10.13
2568 7.5650 103.65 118.10 10.12
2569 7.5660 112.34 118.07 10.59
2570 7.5670 117.78 118.04 10.78
2571 7.5680 105.78 118.01 10.22
2572 7.5690 98.14 117.98 9.85
2573 7.5700 95.56 117.95 9.82
2574 7.5710 103.60 117.92 10.19
2575 7.5720 102.57 117.89 10.11
2576 7.5730 111.07 117.86 10.45
2577 7.5740 112.74 117.82 10.53
2578 7.5750 115.28 117.79 10.70
2579 7.5760 101.36 117.76 10.07
2580 7.5770 102.71 117.73 10.11
2581 7.5780 131.98 117.70 11.48
2582 7.5790 108.97 117.67 10.39
2583 7.5800 99.87 117.64 10.02
2584 7.5810 113.85 117.61 10.75
2585 7.5820 103.20 117.58 10.17
2586 7.5830 115.41 117.55 10.72
2587 7.5840 113.32 117.52 10.55
2588 7.5850 101.13 117.49 10.07
2589 7.5860 97.78 117.46 9.92
2590 7.5870 102.07 117.43 10.06
2591 7.5880 110.98 117.39 10.52
2592 7.5890 94.51 117.36 9.71
2593 7.5900 98.45 117.33 10.00
2594 7.5910 111.99 117.30 10.66
2595 7.5920 88.40 117.27 9.40
2596 7.5930 99.85 117.24 9.90
2597 7.5940 103.60 117.21 10.06
2598 7.5950 89.20 117.18 9.39
2599 7.5960 109.58 117.15 10.40
2600 7.5970 99.90 117.12 9.94
2601 7.5980 97.06 117.09 9.82
2602 7.5990 100.40 117.06 10.01
2603 7.6000 95.10 117.03 9.83
2604 7.6010 102.51 117.00 10.23
2605 7.6020 105.79 116.96 10.31
2606 7.6030 108.86 116.93 10.38
2607 7.6040 117.60 116.90 10.75
2608 7.6050 114.46 116.87 10.62
2609 7.6060 123.82 116.84 11.08
2610 7.6070 105.71 116.81 10.24
2611 7.6080 93.67 116.78 9.63
2612 7.6090 111.79 116.75 10.58
2613 7.6100 107.45 116.72 10.47
2614 7.6110 108.39 116.69 10.53
2615 7.6120 100.76 116.66 10.05
2616 7.6130 115.79 116.63 10.72
2617 7.6140 115.35 116.60 10.61
2618 7.6150 117.70 116.57 10.77
2619 7.6160 108.73 116.54 10.38
2620 7.6170 104.85 116.51 10.14
2621 7.6180 100.33 116.48 9.92
2622 7.6190 102.50 116.45 10.07
2623 7.6200 95.79 116.42 9.81
2624 7.6210 110.85 116.39 10.56
2625 7.6220 91.67 116.36 9.55
2626 7.6230 91.95 116.33 9.54
2627 7.6240 100.29 116.30 9.93
2628 7.6250 111.17 116.26 10.52
2629 7.6260 110.51 116.24 10.47
2630 7.6270 101.62 116.21 10.03
2631 7.6280 120.77 116.17 10.96
2632 7.6290 120.33 116.14 10.95
2633 7.6300 109.72 116.11 10.54
2634 7.6310 104.86 116.08 10.30
2635 7.6320 88.75 116.05 9.42
2636 7.6330 106.10 116.02 10.27
2637 7.6340 123.01 115.99 10.99
2638 7.6350 96.33 115.96 9.81
2639 7.6360 102.46 115.93 10.10
2640 7.6370 106.90 115.90 10.33
2641 7.6380 92.59 115.87 9.58
2642 7.6390 109.43 115.84 10.39
2643 7.6400 97.41 115.81 9.91
2644 7.6410 106.96 115.78 10.40
2645 7.6420 118.64 115.75 10.84
2646 7.6430 92.22 115.72 9.52
2647 7.6440 91.22 115.69 9.47
2648 7.6450 99.97 115.66 9.93
2649 7.6460 100.40 115.63 9.99
2650 7.6470 105.01 115.60 10.19
2651 7.6480 106.37 115.57 10.27
2652 7.6490 87.83 115.54 9.37
2653 7.6500 114.04 115.51 10.75
2654 7.6510 101.96 115.48 10.18
2655 7.6520 93.48 115.45 9.71
2656 7.6530 105.14 115.42 10.24
2657 7.6540 102.73 115.39 10.09
2658 7.6550 122.16 115.36 10.95
2659 7.6560 101.22 115.33 10.04
2660 7.6570 95.70 115.30 9.74
2661 7.6580 97.60 115.27 9.83
2662 7.6590 90.84 115.24 9.51
2663 7.6600 108.97 115.21 10.50
2664 7.6610 98.35 115.18 10.01
2665 7.6620 105.49 115.15 10.30
2666 7.6630 96.69 115.12 9.75
2667 7.6640 98.42 115.09 9.83
2668 7.6650 103.05 115.06 10.09
2669 7.6660 105.65 115.03 10.21
2670 7.6670 92.90 115.00 9.54
2671 7.6680 105.66 114.97 10.21
2672 7.6690 122.54 114.94 10.99
2673 7.6700 120.43 114.91 11.00
2674 7.6710 102.46 114.88 10.14
2675 7.6720 83.19 114.85 9.13
2676 7.6730 107.70 114.82 10.31
2677 7.6740 96.51 114.79 9.75
2678 7.6750 116.28 114.76 10.75
2679 7.6760 100.52 114.73 10.02
2680 7.6770 88.74 114.70 9.40
2681 7.6780 92.25 114.67 9.55
2682 7.6790 106.07 114.64 10.24
2683 7.6800 112.43 114.61 10.66
2684 7.6810 106.36 114.58 10.36
2685 7.6820 115.36 114.55 10.70
2686 7.6830 122.79 114.52 11.02
2687 7.6840 105.83 114.50 10.19
2688 7.6850 89.14 114.46 9.39
2689 7.6860 95.43 114.43 9.76
2690 7.6870 77.76 114.41 8.76
2691 7.6880 100.20 114.38 9.94
2692 7.6890 103.45 114.35 10.09
2693 7.6900 104.85 114.32 10.30
2694 7.6910 84.96 114.29 9.27
2695 7.6920 99.58 114.26 9.95
2696 7.6930 102.41 114.23 10.02
2697 7.6940 105.70 114.20 10.17
2698 7.6950 112.85 114.17 10.52
2699 7.6960 110.85 114.14 10.50
2700 7.6970 100.54 114.11 9.97
2701 7.6980 114.37 114.08 10.63
2702 7.6990 104.25 114.05 10.21
2703 7.7000 111.48 114.02 10.63
2704 7.7010 93.20 113.99 9.75
2705 7.7020 105.33 113.96 10.28
2706 7.7030 94.94 113.93 9.66
2707 7.7040 112.71 113.90 10.52
2708 7.7050 110.75 113.87 10.46
2709 7.7060 109.54 113.84 10.45
2710 7.7070 110.07 113.81 10.41
2711 7.7080 103.69 113.79 10.16
2712 7.7090 97.41 113.75 9.86
2713 7.7100 107.17 113.73 10.38
2714 7.7110 99.70 113.70 10.09
2715 7.7120 91.09 113.67 9.57
2716 7.7130 99.68 113.64 9.93
2717 7.7140 122.10 113.61 10.96
2718 7.7150 96.70 113.58 9.79
2719 7.7160 88.55 113.55 9.38
2720 7.7170 100.51 113.52 9.95
2721 7.7180 111.73 113.49 10.48
2722 7.7190 108.39 113.46 10.32
2723 7.7200 99.94 113.43 10.05
2724 7.7210 111.03 113.40 10.63
2725 7.7220 84.33 113.37 9.19
2726 7.7230 109.21 113.34 10.41
2727 7.7240 95.12 113.31 9.68
2728 7.7250 93.37 113.29 9.65
2729 7.7260 101.56 113.26 10.06
2730 7.7270 115.76 113.23 10.76
2731 7.7280 103.75 113.20 10.13
2732 7.7290 109.10 113.17 10.45
2733 7.7300 99.40 113.14 10.02
2734 7.7310 117.51 113.11 10.94
2735 7.7320 89.83 113.08 9.47
2736 7.7330 111.78 113.05 10.55
2737 7.7340 96.23 113.02 9.73
2738 7.7350 96.63 112.99 9.83
2739 7.7360 102.83 112.96 10.16
2740 7.7370 91.71 112.93 9.55
2741 7.7380 105.51 112.90 10.22
2742 7.7390 99.99 112.88 9.96
2743 7.7400 98.39 112.85 9.94
2744 7.7410 98.93 112.82 10.00
2745 7.7420 106.42 112.79 10.27
2746 7.7430 106.29 112.76 10.24
2747 7.7440 100.19 112.73 9.92
2748 7.7450 83.98 112.70 9.10
2749 7.7460 101.86 112.67 10.10
2750 7.7470 90.59 112.64 9.48
2751 7.7480 110.44 112.61 10.50
2752 7.7490 108.11 112.58 10.38
2753 7.7500 95.40 112.56 9.86
2754 7.7510 91.37 112.53 9.66
2755 7.7520 104.67 112.50 10.29
2756 7.7530 109.56 112.47 10.41
2757 7.7540 90.28 112.44 9.45
2758 7.7550 123.45 112.41 11.08
2759 7.7560 111.81 112.38 10.58
2760 7.7570 115.01 112.35 10.65
2761 7.7580 93.02 112.32 9.62
2762 7.7590 104.71 112.29 10.22
2763 7.7600 104.67 112.27 10.28
2764 7.7610 106.60 112.24 10.45
2765 7.7620 107.22 112.21 10.36
2766 7.7630 106.91 112.18 10.32
2767 7.7640 100.60 112.15 9.92
2768 7.7650 91.65 112.12 9.51
2769 7.7660 89.54 112.09 9.43
2770 7.7670 98.44 112.06 9.86
2771 7.7680 108.61 112.03 10.35
2772 7.7690 99.53 112.01 9.94
2773 7.7700 111.34 111.98 10.66
2774 7.7710 105.93 111.95 10.38
2775 7.7720 115.54 111.92 10.81
2776 7.7730 92.17 111.89 9.56
2777 7.7740 102.46 111.86 10.09
2778 7.7750 104.30 111.83 10.18
2779 7.7760 100.50 111.80 10.02
2780 7.7770 105.80 111.78 10.26
2781 7.7780 99.56 111.75 9.93
2782 7.7790 97.08 111.72 9.83
2783 7.7800 74.31 111.69 8.68
2784 7.7810 96.86 111.66 9.96
2785 7.7820 98.46 111.63 9.95
2786 7.7830 102.43 111.60 10.06
2787 7.7840 94.23 111.57 9.67
2788 7.7850 111.04 111.54 10.52
2789 7.7860 90.57 111.52 9.52
2790 7.7870 99.14 111.49 9.90
2791 7.7880 115.71 111.46 10.68
2792 7.7890 95.87 111.43 9.77
2793 7.7900 102.28 111.40 10.12
2794 7.7910 102.03 111.37 10.17
2795 7.7920 89.41 111.34 9.44
2796 7.7930 108.26 111.32 10.38
2797 7.7940 103.04 111.29 10.04
2798 7.7950 107.18 111.26 10.29
2799 7.7960 117.82 111.23 10.87
2800 7.7970 107.00 111.20 10.31
2801 7.7980 85.10 111.17 9.21
2802 7.7990 91.67 111.14 9.58
2803 7.8000 94.68 111.12 9.83
2804 7.8010 113.45 111.09 10.77
2805 7.8020 91.59 111.06 9.58
2806 7.8030 92.32 111.03 9.59
2807 7.8040 98.20 111.00 9.87
2808 7.8050 99.28 110.97 9.92
2809 7.8060 111.82 110.94 10.63
2810 7.8070 105.05 110.92 10.20
2811 7.8080 109.06 110.89 10.41
2812 7.8090 98.17 110.86 9.90
2813 7.8100 77.18 110.83 8.88
2814 7.8110 101.90 110.80 10.14
2815 7.8120 106.15 110.77 10.34
2816 7.8130 103.25 110.75 10.07
2817 7.8140 108.24 110.72 10.34
2818 7.8150 107.96 110.69 10.33
2819 7.8160 88.10 110.66 9.40
2820 7.8170 86.43 110.63 9.23
2821 7.8180 85.53 110.60 9.17
2822 7.8190 95.50 110.57 9.74
2823 7.8200 114.40 110.55 10.75
2824 7.8210 94.39 110.52 9.82
2825 7.8220 102.65 110.49 10.17
2826 7.8230 99.58 110.46 9.95
2827 7.8240 92.04 110.43 9.56
2828 7.8250 107.42 110.40 10.33
2829 7.8260 97.61 110.38 9.90
2830 7.8270 106.91 110.35 10.27
2831 7.8280 103.02 110.32 10.06
2832 7.8290 83.28 110.29 9.13
2833 7.8300 98.59 110.26 9.97
2834 7.8310 103.65 110.24 10.25
2835 7.8320 112.45 110.21 10.62
2836 7.8330 107.53 110.18 10.35
2837 7.8340 81.76 110.15 8.99
2838 7.8350 98.68 110.12 9.89
2839 7.8360 90.06 110.09 9.51
2840 7.8370 106.16 110.07 10.23
2841 7.8380 96.38 110.04 9.75
2842 7.8390 94.17 110.01 9.67
2843 7.8400 106.11 109.98 10.30
2844 7.8410 103.24 109.95 10.20
2845 7.8420 98.80 109.93 9.92
2846 7.8430 107.75 109.90 10.30
2847 7.8440 105.39 109.87 10.14
2848 7.8450 98.78 109.84 9.89
2849 7.8460 93.74 109.81 9.68
2850 7.8470 96.85 109.79 9.81
2851 7.8480 111.32 109.76 10.53
2852 7.8490 110.06 109.73 10.51
2853 7.8500 115.32 109.70 10.86
2854 7.8510 98.69 109.67 10.01
2855 7.8520 85.90 109.64 9.28
2856 7.8530 79.48 109.62 8.90
2857 7.8540 98.57 109.59 9.88
2858 7.8550 91.60 109.56 9.50
2859 7.8560 95.70 109.53 9.79
2860 7.8570 90.67 109.50 9.49
2861 7.8580 101.73 109.48 10.06
2862 7.8590 106.41 109.45 10.26
2863 7.8600 93.18 109.42 9.71
2864 7.8610 107.08 109.39 10.46
2865 7.8620 97.27 109.36 9.86
2866 7.8630 112.09 109.34 10.50
2867 7.8640 94.95 109.31 9.66
2868 7.8650 91.38 109.28 9.51
2869 7.8660 103.28 109.25 10.15
2870 7.8670 84.76 109.22 9.16
2871 7.8680 92.28 109.20 9.57
2872 7.8690 89.45 109.17 9.46
2873 7.8700 98.15 109.14 9.98
2874 7.8710 92.27 109.11 9.67
2875 7.8720 104.94 109.08 10.28
2876 7.8730 104.95 109.06 10.23
2877 7.8740 96.44 109.03 9.79
2878 7.8750 100.82 109.00 10.06
2879 7.8760 88.46 108.97 9.41
2880 7.8770 89.32 108.95 9.42
2881 7.8780 90.80 108.92 9.47
2882 7.8790 111.51 108.89 10.56
2883 7.8800 95.14 108.86 9.79
2884 7.8810 102.03 108.83 10.19
2885 7.8820 97.77 108.81 9.95
2886 7.8830 88.04 108.78 9.34
2887 7.8840 79.86 108.75 8.88
2888 7.8850 87.43 108.72 9.31
2889 7.8860 99.62 108.70 9.95
2890 7.8870 100.03 108.67 9.92
2891 7.8880 95.66 108.64 9.72
2892 7.8890 92.75 108.61 9.59
2893 7.8900 76.45 108.59 8.75
2894 7.8910 97.89 108.56 9.96
2895 7.8920 107.46 108.53 10.35
2896 7.8930 98.55 108.50 9.87
2897 7.8940 104.90 108.47 10.17
2898 7.8950 109.68 108.45 10.43
2899 7.8960 92.05 108.42 9.60
2900 7.8970 98.09 108.39 9.89
2901 7.8980 104.12 108.36 10.20
2902 7.8990 99.40 108.34 9.99
2903 7.9000 105.17 108.31 10.33
2904 7.9010 104.99 108.28 10.30
2905 7.9020 90.33 108.25 9.54
2906 7.9030 97.45 108.23 9.81
2907 7.9040 94.63 108.20 9.64
2908 7.9050 95.16 108.17 9.73
2909 7.9060 102.88 108.14 10.12
2910 7.9070 102.58 108.12 10.11
2911 7.9080 100.13 108.09 9.92
2912 7.9090 106.07 108.06 10.28
2913 7.9100 97.83 108.03 9.95
2914 7.9110 92.15 108.01 9.66
2915 7.9120 90.04 107.98 9.50
2916 7.9130 93.87 107.95 9.65
2917 7.9140 105.42 107.93 10.15
2918 7.9150 112.63 107.90 10.53
2919 7.9160 80.65 107.87 8.98
2920 7.9170 99.13 107.84 9.90
2921 7.9180 98.39 107.82 9.86
2922 7.9190 107.71 107.79 10.38
2923 7.9200 101.60 107.76 10.15
2924 7.9210 84.23 107.73 9.26
2925 7.9220 115.00 107.71 10.75
2926 7.9230 107.15 107.68 10.36
2927 7.9240 108.14 107.65 10.36
2928 7.9250 92.83 107.62 9.63
2929 7.9260 86.00 107.60 9.26
2930 7.9270 96.76 107.57 9.81
2931 7.9280 97.50 107.54 9.79
2932 7.9290 103.76 107.51 10.16
2933 7.9300 106.92 107.49 10.38
2934 7.9310 78.76 107.46 8.95
2935 7.9320 101.32 107.43 10.10
2936 7.9330 94.30 107.40 9.68
2937 7.9340 99.31 107.38 9.89
2938 7.9350 82.61 107.35 9.03
2939 7.9360 102.79 107.32 10.14
2940 7.9370 108.50 107.30 10.36
2941 7.9380 87.26 107.27 9.27
2942 7.9390 95.97 107.24 9.76
2943 7.9400 92.69 107.21 9.67
2944 7.9410 94.75 107.19 9.82
2945 7.9420 102.77 107.16 10.13
2946 7.9430 89.85 107.13 9.42
2947 7.9440 95.78 107.11 9.71
2948 7.9450 95.47 107.08 9.73
2949 7.9460 80.81 107.05 8.99
2950 7.9470 91.78 107.02 9.58
2951 7.9480 87.09 107.00 9.34
2952 7.9490 90.71 106.97 9.59
2953 7.9500 99.82 106.94 10.06
2954 7.9510 97.31 106.92 9.95
2955 7.9520 86.71 106.89 9.35
2956 7.9530 90.98 106.86 9.51
2957 7.9540 113.26 106.83 10.57
2958 7.9550 90.84 106.81 9.47
2959 7.9560 75.90 106.78 8.73
2960 7.9570 99.45 106.75 9.98
2961 7.9580 99.11 106.73 9.95
2962 7.9590 90.97 106.70 9.51
2963 7.9600 90.36 106.67 9.58
2964 7.9610 74.62 106.65 8.73
2965 7.9620 87.32 106.62 9.34
2966 7.9630 82.47 106.59 9.05
2967 7.9640 93.01 106.57 9.54
2968 7.9650 103.25 106.54 10.13
2969 7.9660 107.18 106.51 10.33
2970 7.9670 88.81 106.48 9.38
2971 7.9680 92.08 106.46 9.54
2972 7.9690 97.42 106.43 9.85
2973 7.9700 96.96 106.40 9.92
2974 7.9710 77.21 106.38 8.91
2975 7.9720 90.84 106.35 9.59
2976 7.9730 108.38 106.32 10.41
2977 7.9740 101.66 106.30 10.03
2978 7.9750 90.92 106.27 9.51
2979 7.9760 85.59 106.24 9.27
2980 7.9770 98.16 106.21 9.84
2981 7.9780 104.95 106.19 10.18
2982 7.9790 94.30 106.16 9.68
2983 7.9800 107.98 106.14 10.48
2984 7.9810 82.58 106.11 9.15
2985 7.9820 99.03 106.08 9.97
2986 7.9830 90.22 106.05 9.48
2987 7.9840 97.74 106.03 9.83
2988 7.9850 99.29 106.00 9.88
2989 7.9860 95.40 105.97 9.78
2990 7.9870 108.16 105.95 10.33
2991 7.9880 100.86 105.92 9.98
2992 7.9890 91.85 105.89 9.57
2993 7.9900 112.12 105.87 10.65
2994 7.9910 96.82 105.84 9.91
2995 7.9920 98.62 105.81 9.95
2996 7.9930 107.05 105.79 10.30
2997 7.9940 98.32 105.76 9.88
2998 7.9950 105.15 105.73 10.25
2999 7.9960 96.73 105.71 9.86
3000 7.9970 116.78 105.68 10.82
3001 7.9980 101.77 105.65 10.10
3002 7.9990 84.66 105.63 9.24
3003 8.0000 90.03 105.60 9.53
3004 8.0010 84.85 105.57 9.31
3005 8.0020 95.38 105.55 9.77
3006 8.0030 116.95 105.52 10.81
3007 8.0040 95.45 105.49 9.71
3008 8.0050 93.29 105.47 9.61
3009 8.0060 98.93 105.44 9.94
3010 8.0070 82.30 105.41 9.06
3011 8.0080 85.75 105.39 9.25
3012 8.0090 94.24 105.36 9.69
3013 8.0100 110.36 105.33 10.59
3014 8.0110 92.82 105.31 9.71
3015 8.0120 99.04 105.28 10.00
3016 8.0130 107.34 105.25 10.34
3017 8.0140 89.27 105.23 9.37
3018 8.0150 94.69 105.20 9.67
3019 8.0160 101.15 105.18 10.04
3020 8.0170 103.32 105.15 10.11
3021 8.0180 89.40 105.12 9.43
3022 8.0190 100.99 105.10 10.14
3023 8.0200 85.06 105.07 9.34
3024 8.0210 76.05 105.04 8.83
3025 8.0220 95.53 105.02 9.86
3026 8.0230 92.97 104.99 9.62
3027 8.0240 95.84 104.96 9.75
3028 8.0250 97.23 104.94 9.80
3029 8.0260 103.37 104.91 10.16
3030 8.0270 93.63 104.89 9.65
3031 8.0280 87.80 104.86 9.34
3032 8.0290 90.24 104.83 9.49
3033 8.0300 93.63 104.81 9.72
3034 8.0310 85.31 104.78 9.31
3035 8.0320 100.85 104.75 10.06
3036 8.0330 110.17 104.73 10.47
3037 8.0340 74.94 104.70 8.59
3038 8.0350 93.04 104.68 9.65
3039 8.0360 104.47 104.65 10.23
3040 8.0370 90.73 104.62 9.54
3041 8.0380 85.15 104.60 9.17
3042 8.0390 96.66 104.57 9.78
3043 8.0400 92.88 104.54 9.70
3044 8.0410 74.11 104.52 8.68
3045 8.0420 95.43 104.49 9.79
3046 8.0430 120.34 104.46 10.95
3047 8.0440 109.33 104.44 10.40
3048 8.0450 80.33 104.41 8.92
3049 8.0460 95.64 104.39 9.81
3050 8.0470 96.62 104.36 9.81
3051 8.0480 98.16 104.33 9.94
3052 8.0490 105.53 104.31 10.27
3053 8.0500 86.75 104.28 9.41
3054 8.0510 110.66 104.25 10.62
3055 8.0520 108.30 104.23 10.40
3056 8.0530 96.92 104.20 9.78
3057 8.0540 88.29 104.18 9.30
3058 8.0550 90.12 104.15 9.44
3059 8.0560 85.43 104.12 9.23
3060 8.0570 92.74 104.10 9.57
3061 8.0580 86.23 104.07 9.29
3062 8.0590 95.79 104.05 9.74
3063 8.0600 96.19 104.02 9.87
3064 8.0610 99.80 104.00 10.07
3065 8.0620 99.03 103.97 9.93
3066 8.0630 102.23 103.94 10.02
3067 8.0640 105.66 103.92 10.20
3068 8.0650 96.76 103.89 9.76
3069 8.0660 107.49 103.86 10.34
3070 8.0670 105.97 103.84 10.21
3071 8.0680 95.82 103.81 9.79
3072 8.0690 106.28 103.79 10.28
3073 8.0700 108.39 103.76 10.52
3074 8.0710 103.86 103.74 10.26
3075 8.0720 102.01 103.71 10.12
3076 8.0730 75.48 103.68 8.70
3077 8.0740 90.20 103.66 9.40
3078 8.0750 102.33 103.63 10.07
3079 8.0760 87.23 103.61 9.30
3080 8.0770 106.00 103.58 10.22
3081 8.0780 115.81 103.55 10.72
3082 8.0790 90.19 103.53 9.45
3083 8.0800 93.97 103.50 9.73
3084 8.0810 102.14 103.48 10.18
3085 8.0820 102.30 103.45 10.11
3086 8.0830 101.84 103.42 10.02
3087 8.0840 92.65 103.40 9.52
3088 8.0850 107.29 103.37 10.28
3089 8.0860 111.10 103.35 10.50
3090 8.0870 95.61 103.32 9.72
3091 8.0880 82.63 103.29 8.99
3092 8.0890 97.45 103.27 9.80
3093 8.0900 101.17 103.24 10.08
3094 8.0910 96.26 103.22 9.87
3095 8.0920 78.42 103.19 8.86
3096 8.0930 98.57 103.17 9.89
3097 8.0940 84.69 103.14 9.16
3098 8.0950 90.78 103.11 9.47
3099 8.0960 85.92 103.09 9.28
3100 8.0970 89.20 103.06 9.41
3101 8.0980 85.69 103.04 9.21
3102 8.0990 101.63 103.01 10.03
3103 8.1000 110.04 102.99 10.54
3104 8.1010 92.34 102.96 9.68
3105 8.1020 100.62 102.93 10.03
3106 8.1030 92.67 102.91 9.56
3107 8.1040 90.67 102.88 9.44
3108 8.1050 94.53 102.86 9.67
3109 8.1060 93.28 102.83 9.61
3110 8.1070 98.74 102.81 9.85
3111 8.1080 87.68 102.78 9.30
3112 8.1090 96.75 102.75 9.79
3113 8.1100 93.10 102.73 9.69
3114 8.1110 83.20 102.70 9.18
3115 8.1120 100.77 102.68 10.01
3116 8.1130 106.75 102.65 10.22
3117 8.1140 105.12 102.63 10.14
3118 8.1150 100.02 102.60 9.93
3119 8.1160 94.55 102.58 9.72
3120 8.1170 93.71 102.55 9.62
3121 8.1180 89.69 102.53 9.44
3122 8.1190 104.96 102.50 10.23
3123 8.1200 94.09 102.47 9.79
3124 8.1210 102.45 102.45 10.20
3125 8.1220 97.56 102.42 9.90
3126 8.1230 89.89 102.40 9.47
3127 8.1240 84.27 102.37 9.09
3128 8.1250 100.11 102.35 9.95
3129 8.1260 103.24 102.32 10.12
3130 8.1270 84.92 102.30 9.16
3131 8.1280 69.41 102.27 8.29
3132 8.1290 89.60 102.25 9.39
3133 8.1300 94.83 102.22 9.77
3134 8.1310 96.69 102.19 9.88
3135 8.1320 87.27 102.17 9.36
3136 8.1330 114.10 102.14 10.63
3137 8.1340 95.12 102.12 9.66
3138 8.1350 90.97 102.09 9.51
3139 8.1360 84.41 102.07 9.16
3140 8.1370 87.08 102.04 9.24
3141 8.1380 83.41 102.02 9.06
3142 8.1390 119.24 101.99 10.85
3143 8.1400 95.70 101.97 9.82
3144 8.1410 95.48 101.94 9.83
3145 8.1420 90.02 101.92 9.53
3146 8.1430 103.20 101.89 10.11
3147 8.1440 104.25 101.86 10.17
3148 8.1450 93.52 101.84 9.65
3149 8.1460 91.58 101.82 9.59
3150 8.1470 90.57 101.79 9.50
3151 8.1480 96.00 101.76 9.78
3152 8.1490 105.49 101.74 10.22
3153 8.1500 110.99 101.71 10.56
3154 8.1510 87.26 101.69 9.41
3155 8.1520 83.70 101.66 9.14
3156 8.1530 104.76 101.64 10.17
3157 8.1540 99.08 101.61 9.83
3158 8.1550 83.03 101.59 9.05
3159 8.1560 90.62 101.56 9.51
3160 8.1570 93.58 101.54 9.63
3161 8.1580 97.28 101.51 9.80
3162 8.1590 91.31 101.49 9.54
3163 8.1600 81.31 101.46 9.09
3164 8.1610 95.22 101.44 9.79
3165 8.1620 121.09 101.41 11.01
3166 8.1630 88.35 101.39 9.31
3167 8.1640 106.35 101.36 10.23
3168 8.1650 96.73 101.34 9.71
3169 8.1660 92.51 101.31 9.65
3170 8.1670 72.70 101.29 8.50
3171 8.1680 102.88 101.26 10.09
3172 8.1690 90.51 101.24 9.54
3173 8.1700 77.50 101.21 8.90
3174 8.1710 86.41 101.19 9.40
3175 8.1720 90.62 101.16 9.55
3176 8.1730 83.47 101.14 9.10
3177 8.1740 104.08 101.11 10.12
3178 8.1750 96.02 101.09 9.74
3179 8.1760 92.00 101.06 9.57
3180 8.1770 102.42 101.04 10.04
3181 8.1780 97.38 101.01 9.82
3182 8.1790 81.04 100.99 8.97
3183 8.1800 70.35 100.96 8.45
3184 8.1810 89.44 100.94 9.53
3185 8.1820 115.19 100.91 10.74
3186 8.1830 95.34 100.89 9.72
3187 8.1840 98.16 100.86 9.84
3188 8.1850 90.76 100.84 9.49
3189 8.1860 111.03 100.81 10.53
3190 8.1870 82.02 100.79 8.97
3191 8.1880 87.28 100.76 9.29
3192 8.1890 100.62 100.74 10.00
3193 8.1900 93.55 100.71 9.73
3194 8.1910 80.00 100.69 9.04
3195 8.1920 100.63 100.66 10.04
3196 8.1930 90.07 100.64 9.47
3197 8.1940 97.81 100.61 9.87
3198 8.1950 107.43 100.59 10.33
3199 8.1960 93.38 100.56 9.68
3200 8.1970 87.46 100.54 9.31
3201 8.1980 85.76 100.51 9.21
3202 8.1990 85.14 100.49 9.18
3203 8.2000 94.07 100.46 9.74
3204 8.2010 79.31 100.44 8.95
3205 8.2020 96.34 100.42 9.81
3206 8.2030 86.03 100.39 9.20
3207 8.2040 87.30 100.37 9.25
3208 8.2050 83.28 100.34 9.10
3209 8.2060 95.66 100.32 9.75
3210 8.2070 84.17 100.29 9.13
3211 8.2080 85.79 100.27 9.25
3212 8.2090 100.99 100.24 10.02
3213 8.2100 106.44 100.22 10.33
3214 8.2110 77.28 100.19 8.85
3215 8.2120 89.23 100.17 9.44
3216 8.2130 95.66 100.14 9.71
3217 8.2140 81.50 100.12 8.93
3218 8.2150 110.40 100.10 10.46
3219 8.2160 108.67 100.07 10.44
3220 8.2170 91.91 100.04 9.60
3221 8.2180 100.00 100.02 10.00
3222 8.2190 95.70 100.00 9.80
3223 8.2200 77.71 99.97 8.91
3224 8.2210 109.93 99.95 10.59
3225 8.2220 91.62 99.92 9.60
3226 8.2230 91.45 99.90 9.51
3227 8.2240 79.12 99.87 8.83
3228 8.2250 82.49 99.85 9.05
3229 8.2260 86.91 99.82 9.30
3230 8.2270 79.06 99.80 8.81
3231 8.2280 91.77 99.78 9.54
3232 8.2290 88.95 99.75 9.43
3233 8.2300 90.81 99.73 9.56
3234 8.2310 88.28 99.70 9.47
3235 8.2320 82.28 99.68 9.08
3236 8.2330 97.49 99.65 9.83
3237 8.2340 86.58 99.63 9.25
3238 8.2350 111.57 99.60 10.50
3239 8.2360 90.11 99.58 9.49
3240 8.2370 89.97 99.56 9.43
3241 8.2380 85.98 99.53 9.19
3242 8.2390 82.56 99.51 9.04
3243 8.2400 101.48 99.48 10.13
3244 8.2410 81.01 99.46 9.07
3245 8.2420 78.99 99.43 8.91
3246 8.2430 87.85 99.41 9.34
3247 8.2440 94.29 99.38 9.68
3248 8.2450 93.11 99.36 9.67
3249 8.2460 96.70 99.34 9.82
3250 8.2470 84.08 99.31 9.12
3251 8.2480 77.71 99.29 8.75
3252 8.2490 100.31 99.26 10.00
3253 8.2500 88.30 99.24 9.43
3254 8.2510 92.24 99.21 9.64
3255 8.2520 103.82 99.19 10.15
3256 8.2530 104.96 99.17 10.16
3257 8.2540 91.08 99.14 9.44
3258 8.2550 96.83 99.12 9.78
3259 8.2560 92.48 99.09 9.58
3260 8.2570 86.85 99.07 9.29
3261 8.2580 93.16 99.04 9.63
3262 8.2590 95.81 99.02 9.77
3263 8.2600 96.21 99.00 9.85
3264 8.2610 95.86 98.97 9.84
3265 8.2620 89.80 98.95 9.46
3266 8.2630 99.99 98.92 9.92
3267 8.2640 92.86 98.90 9.55
3268 8.2650 94.36 98.88 9.65
3269 8.2660 79.43 98.85 8.89
3270 8.2670 92.71 98.83 9.60
3271 8.2680 95.92 98.80 9.79
3272 8.2690 89.97 98.78 9.51
3273 8.2700 97.21 98.75 9.92
3274 8.2710 95.43 98.73 9.83
3275 8.2720 110.30 98.71 10.53
3276 8.2730 82.95 98.68 9.06
3277 8.2740 98.13 98.66 9.76
3278 8.2750 97.70 98.63 9.82
3279 8.2760 92.19 98.61 9.53
3280 8.2770 102.32 98.59 10.07
3281 8.2780 86.57 98.56 9.23
3282 8.2790 79.23 98.54 8.86
3283 8.2800 79.51 98.51 8.97
3284 8.2810 90.01 98.49 9.55
3285 8.2820 87.61 98.47 9.39
3286 8.2830 96.70 98.44 9.78
3287 8.2840 98.31 98.42 9.83
3288 8.2850 82.08 98.39 9.00
3289 8.2860 101.86 98.37 10.02
3290 8.2870 89.19 98.35 9.37
3291 8.2880 99.59 98.32 9.92
3292 8.2890 103.99 98.30 10.13
3293 8.2900 100.17 98.27 10.04
3294 8.2910 88.42 98.25 9.48
3295 8.2920 91.80 98.23 9.60
3296 8.2930 100.72 98.20 10.01
3297 8.2940 80.23 98.18 8.84
3298 8.2950 106.88 98.15 10.27
3299 8.2960 111.82 98.13 10.55
3300 8.2970 87.54 98.11 9.28
3301 8.2980 79.88 98.08 8.88
3302 8.2990 90.51 98.06 9.49
3303 8.3000 88.46 98.03 9.43
3304 8.3010 103.97 98.01 10.23
3305 8.3020 120.14 97.99 10.88
3306 8.3030 109.64 97.96 10.37
3307 8.3040 116.68 97.94 10.69
3308 8.3050 101.99 97.92 10.06
3309 8.3060 105.82 97.89 10.24
3310 8.3070 92.74 97.87 9.62
3311 8.3080 87.73 97.84 9.32
3312 8.3090 102.32 97.82 10.07
3313 8.3100 116.65 97.80 10.79
3314 8.3110 106.44 97.77 10.32
3315 8.3120 106.76 97.75 10.30
3316 8.3130 91.02 97.73 9.42
3317 8.3140 105.97 97.70 10.23
3318 8.3150 109.76 97.68 10.46
3319 8.3160 110.26 97.65 10.49
3320 8.3170 99.51 97.63 9.93
3321 8.3180 100.30 97.61 9.95
3322 8.3190 94.73 97.58 9.71
3323 8.3200 80.62 97.56 9.07
3324 8.3210 91.35 97.54 9.60
3325 8.3220 107.59 97.51 10.35
3326 8.3230 96.40 97.49 9.77
3327 8.3240 93.59 97.46 9.56
3328 8.3250 93.14 97.44 9.59
3329 8.3260 99.45 97.42 9.89
3330 8.3270 89.66 97.39 9.38
3331 8.3280 93.70 97.37 9.61
3332 8.3290 95.22 97.35 9.72
3333 8.3300 92.13 97.32 9.64
3334 8.3310 93.78 97.30 9.74
3335 8.3320 89.25 97.28 9.49
3336 8.3330 88.02 97.25 9.28
3337 8.3340 91.92 97.23 9.48
3338 8.3350 87.74 97.21 9.29
3339 8.3360 90.98 97.18 9.50
3340 8.3370 101.35 97.16 9.99
3341 8.3380 96.69 97.13 9.74
3342 8.3390 88.02 100.62 9.36
3343 8.3400 96.45 102.34 9.89
3344 8.3410 92.57 102.38 9.71
3345 8.3420 102.27 102.42 10.12
3346 8.3430 100.82 102.46 10.06
3347 8.3440 114.65 102.50 10.64
3348 8.3450 116.22 102.54 10.75
3349 8.3460 93.77 102.58 9.64
3350 8.3470 107.65 102.63 10.26
3351 8.3480 104.85 102.67 10.15
3352 8.3490 101.73 102.72 10.01
3353 8.3500 96.74 102.77 9.82
3354 8.3510 107.75 102.82 10.40
3355 8.3520 101.85 102.87 10.06
3356 8.3530 113.17 102.92 10.53
3357 8.3540 91.79 102.97 9.45
3358 8.3550 92.92 103.03 9.60
3359 8.3560 93.81 103.08 9.66
3360 8.3570 102.41 103.14 10.05
3361 8.3580 104.15 103.20 10.13
3362 8.3590 75.89 103.26 8.68
3363 8.3600 100.04 103.32 10.00
3364 8.3610 86.65 103.39 9.34
3365 8.3620 104.95 103.45 10.19
3366 8.3630 91.86 103.52 9.51
3367 8.3640 95.90 103.59 9.72
3368 8.3650 107.20 103.66 10.31
3369 8.3660 99.03 103.74 9.95
3370 8.3670 99.51 103.81 9.95
3371 8.3680 88.25 103.89 9.35
3372 8.3690 104.71 103.97 10.24
3373 8.3700 98.97 104.05 10.00
3374 8.3710 99.06 104.13 10.00
3375 8.3720 108.47 104.22 10.37
3376 8.3730 103.27 104.31 10.09
3377 8.3740 106.10 104.40 10.15
3378 8.3750 118.42 104.49 10.82
3379 8.3760 97.93 104.59 9.84
3380 8.3770 107.36 104.69 10.29
3381 8.3780 102.65 104.79 10.06
3382 8.3790 103.68 104.89 10.19
3383 8.3800 96.74 105.00 9.91
3384 8.3810 100.72 105.11 10.09
3385 8.3820 103.58 105.22 10.19
3386 8.3830 103.03 105.34 10.09
3387 8.3840 105.13 105.46 10.15
3388 8.3850 101.74 105.58 10.00
3389 8.3860 85.21 105.71 9.18
3390 8.3870 101.06 105.83 10.02
3391 8.3880 125.74 105.97 11.18
3392 8.3890 111.17 106.11 10.48
3393 8.3900 99.80 106.25 10.07
3394 8.3910 116.99 106.39 10.91
3395 8.3920 113.92 106.54 10.68
3396 8.3930 97.61 106.69 9.82
3397 8.3940 107.47 106.85 10.26
3398 8.3950 107.22 107.01 10.29
3399 8.3960 102.29 107.18 10.10
3400 8.3970 115.65 107.35 10.65
3401 8.3980 104.60 107.53 10.12
3402 8.3990 104.11 107.71 10.18
3403 8.4000 111.68 107.90 10.59
3404 8.4010 100.32 108.09 10.06
3405 8.4020 89.12 108.29 9.41
3406 8.4030 100.92 108.49 9.98
3407 8.4040 97.29 108.71 9.81
3408 8.4050 104.54 108.92 10.14
3409 8.4060 117.21 109.15 10.78
3410 8.4070 98.87 109.38 9.90
3411 8.4080 102.36 109.61 10.06
3412 8.4090 108.43 109.86 10.34
3413 8.4100 115.73 110.11 10.75
3414 8.4110 97.92 110.38 9.96
3415 8.4120 127.12 110.65 11.26
3416 8.4130 121.71 110.92 10.93
3417 8.4140 106.96 111.21 10.27
3418 8.4150 100.61 111.51 9.98
3419 8.4160 113.56 111.82 10.66
3420 8.4170 108.83 112.13 10.35
3421 8.4180 107.78 112.46 10.32
3422 8.4190 104.30 112.80 10.19
3423 8.4200 118.50 113.15 10.93
3424 8.4210 116.86 113.51 10.83
3425 8.4220 113.22 113.89 10.56
3426 8.4230 120.83 114.27 10.87
3427 8.4240 115.03 114.68 10.58
3428 8.4250 103.71 115.09 10.11
3429 8.4260 115.11 115.52 10.64
3430 8.4270 119.79 115.97 10.89
3431 8.4280 99.69 116.43 9.95
3432 8.4290 107.40 116.91 10.33
3433 8.4300 121.06 117.41 11.07
3434 8.4310 114.57 117.93 10.77
3435 8.4320 112.80 118.46 10.63
3436 8.4330 92.82 119.02 9.55
3437 8.4340 108.89 119.60 10.28
3438 8.4350 133.86 120.20 11.50
3439 8.4360 114.77 120.82 10.67
3440 8.4370 99.07 121.48 9.90
3441 8.4380 119.05 122.15 10.84
3442 8.4390 124.79 122.86 11.16
3443 8.4400 115.06 123.59 10.81
3444 8.4410 95.15 124.36 9.87
3445 8.4420 125.01 125.16 11.18
3446 8.4430 120.70 125.99 10.96
3447 8.4440 115.51 126.86 10.64
3448 8.4450 94.72 127.77 9.65
3449 8.4460 114.84 128.72 10.63
3450 8.4470 131.85 129.71 11.40
3451 8.4480 121.82 130.75 10.96
3452 8.4490 123.90 131.84 11.11
3453 8.4500 136.58 132.98 11.74
3454 8.4510 147.20 134.18 12.20
3455 8.4520 134.67 135.43 11.62
3456 8.4530 130.34 136.75 11.38
3457 8.4540 128.84 138.13 11.19
3458 8.4550 129.39 139.59 11.33
3459 8.4560 145.89 141.12 12.02
3460 8.4570 125.67 142.73 11.15
3461 8.4580 122.30 144.43 10.98
3462 8.4590 115.45 146.23 10.68
3463 8.4600 131.48 148.12 11.50
3464 8.4610 134.76 150.13 11.64
3465 8.4620 136.06 152.25 11.68
3466 8.4630 169.30 154.49 12.94
3467 8.4640 151.91 156.87 12.27
3468 8.4650 127.67 159.40 11.30
3469 8.4660 143.03 162.09 11.98
3470 8.4670 170.40 164.95 13.05
3471 8.4680 141.16 167.99 11.85
3472 8.4690 163.88 171.24 12.76
3473 8.4700 159.23 174.72 12.65
3474 8.4710 157.72 178.43 12.60
3475 8.4720 149.23 182.41 12.19
3476 8.4730 173.31 186.68 13.07
3477 8.4740 161.82 191.28 12.61
3478 8.4750 166.05 196.22 12.76
3479 8.4760 168.13 201.55 12.95
3480 8.4770 184.35 207.33 13.52
3481 8.4780 183.03 213.57 13.48
3482 8.4790 170.76 220.35 13.07
3483 8.4800 207.36 227.73 14.47
3484 8.4810 204.46 235.77 14.36
3485 8.4820 236.22 244.57 15.33
3486 8.4830 216.85 254.20 14.64
3487 8.4840 228.69 264.81 15.03
3488 8.4850 223.23 276.49 14.85
3489 8.4860 239.62 289.41 15.40
3490 8.4870 269.14 303.77 16.36
3491 8.4880 253.34 319.73 15.85
3492 8.4890 305.85 337.62 17.52
3493 8.4900 308.78 357.70 17.76
3494 8.4910 315.86 380.36 17.95
3495 8.4920 312.65 406.08 17.70
3496 8.4930 367.43 435.38 19.07
3497 8.4940 389.09 469.02 19.48
3498 8.4950 424.33 507.77 20.46
3499 8.4960 522.04 552.90 22.71
3500 8.4970 523.75 605.72 22.68
3501 8.4980 577.98 668.11 23.90
3502 8.4990 679.12 742.59 26.03
3503 8.5000 723.21 832.27 27.07
3504 8.5010 842.22 941.62 29.25
3505 8.5020 1034.00 1076.74 32.27
3506 8.5030 1274.67 1246.43 35.66
3507 8.5040 1524.62 1462.86 38.74
3508 8.5050 1854.97 1746.29 43.00
3509 8.5060 2305.89 2128.38 48.13
3510 8.5070 2961.70 2663.47 54.62
3511 8.5080 3793.29 3446.07 61.80
3512 8.5090 5274.37 4629.57 73.39
3513 8.5100 7104.52 6439.13 86.36
3514 8.5110 9306.98 9133.56 100.18
3515 8.5120 13172.00 12861.40 119.39
3516 8.5130 16237.80 17079.90 133.16
3517 8.5140 18824.90 19914.40 144.32
3518 8.5150 19578.20 19604.20 148.35
3519 8.5160 16725.00 16595.90 135.52
3520 8.5170 12982.20 12560.30 118.00
3521 8.5180 9433.51 8973.75 99.15
3522 8.5190 6702.73 6347.65 83.16
3523 8.5200 5083.92 4575.56 72.72
3524 8.5210 3735.81 3412.40 62.21
3525 8.5220 3003.68 2639.13 55.33
3526 8.5230 2331.22 2109.84 48.19
3527 8.5240 1798.91 1731.91 42.21
3528 8.5250 1508.53 1451.30 38.69
3529 8.5260 1265.65 1236.87 35.65
3530 8.5270 993.15 1069.00 31.45
3531 8.5280 837.06 935.15 28.79
3532 8.5290 777.70 826.69 27.87
3533 8.5300 630.90 737.85 25.31
3534 8.5310 615.64 663.97 24.95
3535 8.5320 534.39 602.00 23.13
3536 8.5330 502.12 549.56 22.32
3537 8.5340 437.07 504.77 20.77
3538 8.5350 395.26 466.22 19.78
3539 8.5360 353.66 432.78 18.79
3540 8.5370 311.99 403.66 17.62
3541 8.5380 311.24 378.06 17.59
3542 8.5390 307.06 355.48 17.54
3543 8.5400 267.43 335.50 16.50
3544 8.5410 268.18 317.67 16.52
3545 8.5420 251.08 301.74 15.87
3546 8.5430 241.62 287.42 15.49
3547 8.5440 216.13 274.54 14.56
3548 8.5450 219.68 262.86 14.74
3549 8.5460 204.96 252.27 14.29
3550 8.5470 189.74 242.64 13.69
3551 8.5480 178.46 233.84 13.28
3552 8.5490 193.04 225.79 13.85
3553 8.5500 173.69 218.41 13.27
3554 8.5510 165.05 211.61 12.92
3555 8.5520 175.21 205.35 13.28
3556 8.5530 154.97 199.55 12.44
3557 8.5540 167.71 194.20 12.89
3558 8.5550 165.91 189.23 12.81
3559 8.5560 145.32 184.61 12.04
3560 8.5570 172.04 180.32 13.05
3561 8.5580 149.99 176.30 12.15
3562 8.5590 136.74 172.56 11.66
3563 8.5600 138.63 169.06 11.81
3564 8.5610 134.06 165.77 11.68
3565 8.5620 137.36 162.69 11.73
3566 8.5630 129.18 159.80 11.36
3567 8.5640 136.21 157.08 11.62
3568 8.5650 136.15 154.51 11.63
3569 8.5660 125.29 152.10 11.20
3570 8.5670 129.00 149.82 11.33
3571 8.5680 137.89 147.66 11.66
3572 8.5690 140.32 145.62 11.79
3573 8.5700 146.37 143.68 12.17
3574 8.5710 115.22 141.85 10.78
3575 8.5720 102.53 140.11 10.10
3576 8.5730 114.01 138.46 10.61
3577 8.5740 118.45 136.89 10.74
3578 8.5750 118.43 135.39 10.85
3579 8.5760 122.64 133.97 11.10
3580 8.5770 130.14 132.61 11.34
3581 8.5780 122.05 131.32 11.05
3582 8.5790 130.38 130.08 11.41
3583 8.5800 102.07 128.90 10.17
3584 8.5810 90.46 127.77 9.58
3585 8.5820 108.14 126.69 10.40
3586 8.5830 115.36 125.65 10.67
3587 8.5840 127.34 124.66 11.16
3588 8.5850 108.35 123.71 10.34
3589 8.5860 116.37 122.80 10.79
3590 8.5870 96.33 121.92 9.82
3591 8.5880 104.12 121.08 10.23
3592 8.5890 117.34 120.27 10.84
3593 8.5900 104.17 119.50 10.30
3594 8.5910 98.55 118.75 10.03
3595 8.5920 94.46 118.03 9.73
3596 8.5930 106.09 117.33 10.23
3597 8.5940 104.08 116.67 10.10
3598 8.5950 116.05 116.02 10.69
3599 8.5960 101.38 115.40 10.04
3600 8.5970 96.36 114.80 9.78
3601 8.5980 120.69 114.22 10.92
3602 8.5990 99.12 113.66 9.93
3603 8.6000 111.45 113.12 10.65
3604 8.6010 116.11 112.60 10.83
3605 8.6020 113.61 112.09 10.67
3606 8.6030 88.70 111.60 9.36
3607 8.6040 107.06 111.13 10.26
3608 8.6050 106.15 110.67 10.23
3609 8.6060 112.78 110.23 10.60
3610 8.6070 99.81 109.79 9.94
3611 8.6080 75.29 109.38 8.63
3612 8.6090 99.85 108.97 9.97
3613 8.6100 108.81 108.58 10.51
3614 8.6110 94.85 108.19 9.80
3615 8.6120 107.78 107.82 10.41
3616 8.6130 113.44 107.46 10.61
3617 8.6140 101.90 107.11 10.06
3618 8.6150 112.30 106.77 10.59
3619 8.6160 102.22 106.44 10.12
3620 8.6170 113.19 106.12 10.60
3621 8.6180 93.73 105.81 9.61
3622 8.6190 100.73 105.50 10.06
3623 8.6200 91.87 105.21 9.64
3624 8.6210 95.40 104.92 9.83
3625 8.6220 113.47 104.63 10.66
3626 8.6230 95.46 104.36 9.72
3627 8.6240 83.04 104.09 9.03
3628 8.6250 105.84 103.83 10.25
3629 8.6260 85.63 103.58 9.27
3630 8.6270 102.86 103.33 10.11
3631 8.6280 95.18 103.09 9.75
3632 8.6290 97.05 102.85 9.85
3633 8.6300 98.59 102.62 9.99
3634 8.6310 92.81 102.39 9.67
3635 8.6320 98.68 102.17 9.96
3636 8.6330 113.04 101.96 10.56
3637 8.6340 100.77 101.75 9.95
3638 8.6350 91.63 101.54 9.55
3639 8.6360 92.66 101.34 9.61
3640 8.6370 88.49 101.14 9.42
3641 8.6380 101.71 100.95 10.03
3642 8.6390 91.64 100.76 9.58
3643 8.6400 85.83 100.58 9.32
3644 8.6410 88.98 100.40 9.51
3645 8.6420 91.72 100.22 9.56
3646 8.6430 97.98 100.05 9.83
3647 8.6440 107.99 99.88 10.28
3648 8.6450 104.53 99.71 10.19
3649 8.6460 97.98 99.55 9.87
3650 8.6470 85.31 99.39 9.20
3651 8.6480 106.57 99.23 10.24
3652 8.6490 93.84 99.08 9.69
3653 8.6500 81.73 98.93 9.15
3654 8.6510 108.08 98.78 10.49
3655 8.6520 101.53 98.63 10.08
3656 8.6530 99.31 98.49 9.92
3657 8.6540 89.59 98.35 9.40
3658 8.6550 96.91 98.21 9.78
3659 8.6560 78.02 98.08 8.79
3660 8.6570 103.99 97.95 10.12
3661 8.6580 101.67 97.82 10.04
3662 8.6590 93.29 97.69 9.64
3663 8.6600 102.69 97.56 10.21
3664 8.6610 102.93 97.44 10.22
3665 8.6620 96.20 97.32 9.85
3666 8.6630 93.03 97.20 9.61
3667 8.6640 96.57 97.08 9.77
3668 8.6650 91.42 96.97 9.53
3669 8.6660 78.71 96.85 8.85
3670 8.6670 95.30 96.74 9.72
3671 8.6680 86.77 96.63 9.25
3672 8.6690 100.20 96.52 9.97
3673 8.6700 105.53 96.42 10.33
3674 8.6710 98.66 96.31 10.02
3675 8.6720 96.09 96.21 9.81
3676 8.6730 88.05 96.11 9.32
3677 8.6740 93.12 96.01 9.58
3678 8.6750 81.18 95.91 9.00
3679 8.6760 90.31 95.81 9.47
3680 8.6770 91.20 95.71 9.53
3681 8.6780 91.21 95.62 9.52
3682 8.6790 86.49 95.53 9.30
3683 8.6800 104.10 95.43 10.29
3684 8.6810 102.82 95.34 10.23
3685 8.6820 95.24 95.26 9.75
3686 8.6830 93.41 95.17 9.61
3687 8.6840 94.80 95.08 9.62
3688 8.6850 86.29 94.99 9.26
3689 8.6860 81.42 94.91 9.03
3690 8.6870 90.75 94.83 9.53
3691 8.6880 103.32 94.74 10.16
3692 8.6890 116.01 94.66 10.77
3693 8.6900 95.29 91.12 9.84
3694 8.6910 107.78 91.08 10.44
3695 8.6920 98.23 89.35 9.90
3696 8.6930 97.35 89.33 9.81
3697 8.6940 77.73 89.31 8.73
3698 8.6950 96.14 89.29 9.79
3699 8.6960 100.96 89.27 10.03
3700 8.6970 90.25 89.25 9.47
3701 8.6980 106.14 89.23 10.23
3702 8.6990 91.85 89.21 9.58
3703 8.7000 88.37 89.19 9.46
3704 8.7010 83.30 89.17 9.23
3705 8.7020 89.74 89.15 9.49
3706 8.7030 76.21 89.13 8.68
3707 8.7040 69.14 89.11 8.27
3708 8.7050 97.63 89.09 9.86
3709 8.7060 96.03 89.07 9.75
3710 8.7070 94.41 89.04 9.66
3711 8.7080 100.30 89.02 9.94
3712 8.7090 91.20 89.00 9.54
3713 8.7100 104.25 88.98 10.28
3714 8.7110 83.75 88.96 9.27
3715 8.7120 82.07 88.94 9.09
3716 8.7130 87.98 88.92 9.36
3717 8.7140 102.87 88.90 10.07
3718 8.7150 83.00 88.88 9.07
3719 8.7160 81.22 88.86 8.98
3720 8.7170 91.46 88.84 9.53
3721 8.7180 81.47 88.82 8.99
3722 8.7190 89.71 88.80 9.46
3723 8.7200 92.26 88.78 9.69
3724 8.7210 87.18 88.76 9.41
3725 8.7220 110.35 88.74 10.52
3726 8.7230 89.94 88.72 9.42
3727 8.7240 87.00 88.70 9.25
3728 8.7250 102.19 88.68 10.03
3729 8.7260 93.13 88.66 9.63
3730 8.7270 94.47 88.64 9.70
3731 8.7280 102.38 88.62 10.08
3732 8.7290 91.74 88.60 9.55
3733 8.7300 91.76 88.58 9.66
3734 8.7310 96.40 88.56 9.88
3735 8.7320 73.55 88.54 8.56
3736 8.7330 94.83 88.52 9.71
3737 8.7340 79.84 88.50 8.87
3738 8.7350 81.40 88.48 9.00
3739 8.7360 81.77 88.46 9.03
3740 8.7370 79.22 88.44 8.88
3741 8.7380 92.45 88.42 9.58
3742 8.7390 72.56 88.40 8.52
3743 8.7400 68.42 88.38 8.35
3744 8.7410 88.14 88.36 9.47
3745 8.7420 90.48 88.34 9.49
3746 8.7430 90.50 88.32 9.45
3747 8.7440 80.34 88.30 8.89
3748 8.7450 81.78 88.28 8.99
3749 8.7460 82.52 88.26 9.06
3750 8.7470 98.46 88.24 9.83
3751 8.7480 102.06 88.22 10.04
3752 8.7490 83.82 88.20 9.15
3753 8.7500 94.94 88.18 9.83
3754 8.7510 100.32 88.16 10.09
3755 8.7520 94.27 88.14 9.72
3756 8.7530 84.23 88.12 9.13
3757 8.7540 89.03 88.10 9.35
3758 8.7550 93.00 88.08 9.58
3759 8.7560 88.47 88.06 9.35
3760 8.7570 76.48 88.04 8.73
3761 8.7580 100.75 88.02 10.01
3762 8.7590 94.41 88.00 9.71
3763 8.7600 91.98 87.98 9.67
3764 8.7610 92.72 87.96 9.74
3765 8.7620 87.92 87.94 9.42
3766 8.7630 74.58 87.92 8.61
3767 8.7640 78.08 87.90 8.76
3768 8.7650 96.31 87.88 9.75
3769 8.7660 85.04 87.86 9.23
3770 8.7670 91.00 87.84 9.48
3771 8.7680 80.64 87.82 8.87
3772 8.7690 81.53 87.80 9.04
3773 8.7700 81.44 87.78 9.05
3774 8.7710 74.84 87.76 8.71
3775 8.7720 99.19 87.74 9.93
3776 8.7730 78.24 87.72 8.79
3777 8.7740 82.29 87.70 8.99
3778 8.7750 87.32 87.68 9.31
3779 8.7760 82.91 87.66 9.08
3780 8.7770 93.20 87.64 9.62
3781 8.7780 96.57 87.62 9.74
3782 8.7790 101.74 87.60 10.07
3783 8.7800 86.26 87.58 9.28
3784 8.7810 86.67 87.56 9.36
3785 8.7820 80.00 87.54 8.91
3786 8.7830 73.01 87.52 8.46
3787 8.7840 83.01 87.50 9.04
3788 8.7850 76.91 87.48 8.74
3789 8.7860 83.25 87.46 9.14
3790 8.7870 88.24 87.44 9.39
3791 8.7880 89.54 87.42 9.45
3792 8.7890 95.45 87.40 9.77
3793 8.7900 90.93 87.38 9.58
3794 8.7910 74.14 87.36 8.65
3795 8.7920 75.03 87.34 8.64
3796 8.7930 85.66 87.32 9.18
3797 8.7940 75.85 87.30 8.62
3798 8.7950 88.20 87.28 9.35
3799 8.7960 83.13 87.26 9.08
3800 8.7970 86.82 87.24 9.29
3801 8.7980 86.82 87.22 9.27
3802 8.7990 80.90 87.20 8.99
3803 8.8000 66.54 87.19 8.21
3804 8.8010 76.50 87.17 8.81
3805 8.8020 85.00 87.15 9.22
3806 8.8030 74.09 87.13 8.55
3807 8.8040 79.30 87.11 8.81
3808 8.8050 78.29 87.09 8.78
3809 8.8060 82.39 87.07 9.01
3810 8.8070 92.55 87.05 9.53
3811 8.8080 74.01 87.03 8.56
3812 8.8090 90.66 87.01 9.52
3813 8.8100 82.09 86.99 9.12
3814 8.8110 86.81 86.97 9.42
3815 8.8120 76.55 86.95 8.76
3816 8.8130 80.06 86.93 8.89
3817 8.8140 76.33 86.91 8.62
3818 8.8150 94.25 86.89 9.66
3819 8.8160 88.77 86.87 9.36
3820 8.8170 81.59 86.85 8.98
3821 8.8180 92.97 86.83 9.56
3822 8.8190 77.95 86.81 8.84
3823 8.8200 86.39 86.79 9.30
3824 8.8210 80.14 86.77 8.98
3825 8.8220 98.83 86.76 9.93
3826 8.8230 95.51 86.74 9.69
3827 8.8240 82.72 86.72 9.01
3828 8.8250 89.12 86.70 9.39
3829 8.8260 90.32 86.68 9.46
3830 8.8270 74.94 86.66 8.65
3831 8.8280 86.50 86.64 9.24
3832 8.8290 76.34 86.62 8.71
3833 8.8300 78.67 86.60 8.84
3834 8.8310 76.74 86.58 8.79
3835 8.8320 86.17 86.56 9.23
3836 8.8330 81.93 86.54 9.00
3837 8.8340 83.91 86.52 9.11
3838 8.8350 86.91 86.50 9.27
3839 8.8360 75.40 86.48 8.70
3840 8.8370 88.14 86.46 9.36
3841 8.8380 82.20 86.45 8.99
3842 8.8390 82.92 86.43 9.08
3843 8.8400 76.27 86.41 8.78
3844 8.8410 80.05 86.39 9.01
3845 8.8420 73.51 86.37 8.54
3846 8.8430 92.40 86.35 9.54
3847 8.8440 94.91 86.33 9.61
3848 8.8450 78.57 86.31 8.81
3849 8.8460 80.42 86.29 8.91
3850 8.8470 75.20 86.27 8.61
3851 8.8480 82.94 86.25 9.04
3852 8.8490 88.94 86.23 9.45
3853 8.8500 101.15 86.21 10.12
3854 8.8510 83.91 86.19 9.23
3855 8.8520 92.17 86.18 9.59
3856 8.8530 84.54 86.16 9.10
3857 8.8540 87.82 86.14 9.20
3858 8.8550 76.04 86.12 8.65
3859 8.8560 90.39 86.10 9.41
3860 8.8570 72.16 86.08 8.46
3861 8.8580 85.82 86.06 9.22
3862 8.8590 76.19 86.04 8.76
3863 8.8600 69.45 86.02 8.39
3864 8.8610 75.17 86.00 8.73
3865 8.8620 73.73 85.98 8.56
3866 8.8630 84.02 85.96 9.09
3867 8.8640 90.43 85.95 9.37
3868 8.8650 75.32 85.93 8.61
3869 8.8660 84.92 85.91 9.18
3870 8.8670 87.64 85.89 9.31
3871 8.8680 85.68 85.87 9.22
3872 8.8690 74.19 85.85 8.57
3873 8.8700 79.64 85.83 8.91
3874 8.8710 91.68 85.81 9.61
3875 8.8720 78.83 85.79 8.86
3876 8.8730 87.98 85.77 9.28
3877 8.8740 81.24 85.75 8.96
3878 8.8750 95.70 85.74 9.77
3879 8.8760 91.58 85.72 9.53
3880 8.8770 78.91 85.70 8.84
3881 8.8780 84.27 85.68 9.09
3882 8.8790 90.46 85.66 9.46
3883 8.8800 86.60 85.64 9.32
3884 8.8810 85.25 85.62 9.29
3885 8.8820 80.05 85.60 8.96
3886 8.8830 87.66 85.58 9.31
3887 8.8840 74.86 85.56 8.57
3888 8.8850 86.13 85.55 9.25
3889 8.8860 83.40 85.53 9.12
3890 8.8870 79.39 85.51 8.87
3891 8.8880 87.59 85.49 9.31
3892 8.8890 77.50 85.47 8.81
3893 8.8900 85.06 85.45 9.25
3894 8.8910 80.65 85.43 9.06
3895 8.8920 80.80 85.41 8.99
3896 8.8930 69.55 85.39 8.29
3897 8.8940 89.55 85.38 9.38
3898 8.8950 86.73 85.36 9.22
3899 8.8960 72.47 85.34 8.49
3900 8.8970 73.95 85.32 8.56
3901 8.8980 78.29 85.30 8.81
3902 8.8990 78.70 85.28 8.89
3903 8.9000 98.42 85.26 10.00
3904 8.9010 95.07 85.24 9.83
3905 8.9020 80.55 85.22 8.95
3906 8.9030 78.85 85.21 8.83
3907 8.9040 84.47 85.19 9.10
3908 8.9050 87.30 85.17 9.29
3909 8.9060 91.50 85.15 9.55
3910 8.9070 78.77 85.13 8.85
3911 8.9080 89.60 85.11 9.49
3912 8.9090 84.68 85.09 9.18
3913 8.9100 82.13 85.07 9.12
3914 8.9110 76.38 85.06 8.80
3915 8.9120 81.13 85.04 9.01
3916 8.9130 68.10 85.02 8.20
3917 8.9140 83.78 85.00 9.08
3918 8.9150 86.85 84.98 9.27
3919 8.9160 80.96 84.96 8.98
3920 8.9170 88.74 84.94 9.39
3921 8.9180 88.65 84.92 9.33
3922 8.9190 90.01 84.91 9.49
3923 8.9200 73.80 84.89 8.63
3924 8.9210 83.10 84.87 9.18
3925 8.9220 74.51 84.85 8.62
3926 8.9230 87.27 84.83 9.32
3927 8.9240 79.27 84.81 8.83
3928 8.9250 91.13 84.79 9.53
3929 8.9260 80.10 84.78 8.91
3930 8.9270 80.49 84.76 8.91
3931 8.9280 79.54 84.74 8.86
3932 8.9290 102.49 84.72 10.12
3933 8.9300 84.36 84.70 9.23
3934 8.9310 81.57 84.68 9.08
3935 8.9320 85.55 84.66 9.30
3936 8.9330 90.95 84.65 9.50
3937 8.9340 80.00 84.63 8.89
3938 8.9350 94.90 84.61 9.74
3939 8.9360 83.97 84.59 9.16
3940 8.9370 89.29 84.57 9.42
3941 8.9380 104.07 84.55 10.14
3942 8.9390 74.38 84.53 8.63
3943 8.9400 85.39 86.87 9.32
3944 8.9410 81.11 88.02 9.09
3945 8.9420 84.79 88.04 9.22
3946 8.9430 97.77 88.06 9.79
3947 8.9440 98.49 88.08 9.80
3948 8.9450 90.05 88.10 9.43
3949 8.9460 88.20 88.12 9.36
3950 8.9470 91.79 88.15 9.55
3951 8.9480 90.94 88.17 9.56
3952 8.9490 91.51 88.19 9.61
3953 8.9500 85.83 88.22 9.33
3954 8.9510 79.85 88.24 9.02
3955 8.9520 82.81 88.27 9.06
3956 8.9530 82.44 88.29 9.03
3957 8.9540 73.32 88.32 8.50
3958 8.9550 83.49 88.35 9.06
3959 8.9560 84.61 88.38 9.22
3960 8.9570 82.41 88.41 9.11
3961 8.9580 85.08 88.44 9.21
3962 8.9590 83.26 88.47 9.13
3963 8.9600 85.96 88.50 9.37
3964 8.9610 82.60 88.53 9.15
3965 8.9620 84.17 88.57 9.15
3966 8.9630 88.83 88.60 9.39
3967 8.9640 80.87 88.64 8.92
3968 8.9650 81.05 88.67 8.96
3969 8.9660 93.86 88.71 9.69
3970 8.9670 79.08 88.75 8.88
3971 8.9680 73.16 88.79 8.51
3972 8.9690 82.17 88.83 9.03
3973 8.9700 64.58 88.87 8.10
3974 8.9710 86.08 88.92 9.35
3975 8.9720 90.26 88.96 9.52
3976 8.9730 91.25 89.01 9.52
3977 8.9740 92.50 89.05 9.55
3978 8.9750 83.47 89.10 9.11
3979 8.9760 84.27 89.15 9.16
3980 8.9770 90.63 89.20 9.45
3981 8.9780 72.71 89.25 8.49
3982 8.9790 83.61 89.31 9.11
3983 8.9800 85.78 89.36 9.31
3984 8.9810 80.16 89.42 9.07
3985 8.9820 100.48 89.48 10.04
3986 8.9830 86.78 89.54 9.28
3987 8.9840 81.49 89.60 8.96
3988 8.9850 82.82 89.66 9.04
3989 8.9860 76.49 89.72 8.71
3990 8.9870 73.84 89.79 8.57
3991 8.9880 86.18 89.86 9.23
3992 8.9890 102.13 89.93 10.07
3993 8.9900 78.07 90.00 8.88
3994 8.9910 85.71 90.07 9.31
3995 8.9920 85.79 90.15 9.26
3996 8.9930 97.72 90.23 9.81
3997 8.9940 86.78 90.31 9.20
3998 8.9950 92.09 90.39 9.55
3999 8.9960 92.72 90.47 9.58
4000 8.9970 105.28 90.56 10.26
4001 8.9980 82.18 90.65 9.05
4002 8.9990 86.73 90.74 9.32
4003 9.0000 75.13 90.83 8.75
4004 9.0010 71.66 90.93 8.50
4005 9.0020 95.94 91.03 9.74
4006 9.0030 93.07 91.13 9.50
4007 9.0040 85.78 91.23 9.15
4008 9.0050 94.77 91.34 9.69
4009 9.0060 88.14 91.45 9.41
4010 9.0070 84.86 91.57 9.23
4011 9.0080 89.82 91.68 9.46
4012 9.0090 109.99 91.80 10.47
4013 9.0100 78.90 91.93 8.93
4014 9.0110 82.26 92.05 9.10
4015 9.0120 87.45 92.18 9.32
4016 9.0130 92.15 92.32 9.52
4017 9.0140 94.38 92.46 9.60
4018 9.0150 94.07 92.60 9.66
4019 9.0160 97.23 92.75 9.78
4020 9.0170 91.43 92.90 9.52
4021 9.0180 96.09 93.06 9.67
4022 9.0190 90.70 93.22 9.47
4023 9.0200 87.10 93.38 9.38
4024 9.0210 84.04 93.55 9.23
4025 9.0220 98.25 93.73 9.93
4026 9.0230 84.11 93.91 9.13
4027 9.0240 91.20 94.10 9.48
4028 9.0250 89.32 94.29 9.38
4029 9.0260 90.26 94.49 9.44
4030 9.0270 79.71 94.69 8.84
4031 9.0280 81.94 94.90 8.96
4032 9.0290 96.33 95.12 9.79
4033 9.0300 74.54 95.35 8.71
4034 9.0310 98.97 95.58 10.04
4035 9.0320 85.84 95.82 9.31
4036 9.0330 95.88 96.07 9.73
4037 9.0340 85.49 96.32 9.17
4038 9.0350 87.82 96.59 9.28
4039 9.0360 98.80 96.86 9.89
4040 9.0370 92.25 97.15 9.56
4041 9.0380 79.10 97.44 8.82
4042 9.0390 91.50 97.74 9.50
4043 9.0400 95.61 98.06 9.80
4044 9.0410 83.04 98.38 9.11
4045 9.0420 77.37 98.72 8.73
4046 9.0430 90.66 99.07 9.40
4047 9.0440 95.45 99.43 9.64
4048 9.0450 78.53 99.80 8.80
4049 9.0460 86.69 100.19 9.29
4050 9.0470 94.90 100.59 9.69
4051 9.0480 100.66 101.01 9.97
4052 9.0490 94.21 101.45 9.65
4053 9.0500 86.91 101.90 9.33
4054 9.0510 81.25 102.37 9.03
4055 9.0520 109.26 102.85 10.38
4056 9.0530 99.05 103.36 9.83
4057 9.0540 102.07 103.89 9.98
4058 9.0550 92.49 104.44 9.56
4059 9.0560 103.61 105.01 10.16
4060 9.0570 96.90 105.61 9.76
4061 9.0580 98.26 106.23 9.87
4062 9.0590 99.81 106.88 9.93
4063 9.0600 107.18 107.55 10.42
4064 9.0610 115.63 108.26 10.81
4065 9.0620 102.07 109.00 10.07
4066 9.0630 93.53 109.77 9.58
4067 9.0640 101.33 110.57 9.96
4068 9.0650 95.79 111.42 9.71
4069 9.0660 104.82 112.30 10.16
4070 9.0670 93.74 113.23 9.59
4071 9.0680 112.32 114.20 10.46
4072 9.0690 97.87 115.22 9.84
4073 9.0700 100.86 116.29 10.11
4074 9.0710 96.50 117.42 9.90
4075 9.0720 113.79 118.61 10.65
4076 9.0730 91.53 119.85 9.50
4077 9.0740 100.80 121.17 9.91
4078 9.0750 120.90 122.55 10.90
4079 9.0760 114.01 124.01 10.58
4080 9.0770 107.18 125.56 10.29
4081 9.0780 116.49 127.19 10.70
4082 9.0790 107.27 128.93 10.37
4083 9.0800 102.08 130.76 10.18
4084 9.0810 103.95 132.70 10.26
4085 9.0820 112.96 134.77 10.61
4086 9.0830 125.47 136.96 11.10
4087 9.0840 115.82 139.30 10.65
4088 9.0850 126.25 141.80 11.16
4089 9.0860 121.21 144.46 10.97
4090 9.0870 133.15 147.30 11.49
4091 9.0880 108.11 150.35 10.34
4092 9.0890 130.56 153.61 11.36
4093 9.0900 134.25 157.12 11.60
4094 9.0910 116.29 160.89 10.80
4095 9.0920 130.55 164.96 11.35
4096 9.0930 127.80 169.35 11.18
4097 9.0940 133.83 174.09 11.44
4098 9.0950 138.32 179.24 11.71
4099 9.0960 138.68 184.83 11.77
4100 9.0970 135.76 190.91 11.60
4101 9.0980 162.96 197.56 12.65
4102 9.0990 160.29 204.83 12.58
4103 9.1000 165.76 212.81 12.87
4104 9.1010 167.62 221.58 12.95
4105 9.1020 162.47 231.28 12.72
4106 9.1030 190.61 242.01 13.72
4107 9.1040 178.76 253.94 13.25
4108 9.1050 211.67 267.26 14.45
4109 9.1060 201.03 282.16 14.16
4110 9.1070 237.96 298.93 15.32
4111 9.1080 234.06 317.88 15.23
4112 9.1090 258.80 339.43 16.05
4113 9.1100 274.94 364.03 16.63
4114 9.1110 302.54 392.29 17.45
4115 9.1120 335.69 425.02 18.26
4116 9.1130 427.82 463.07 20.44
4117 9.1140 428.82 507.83 20.46
4118 9.1150 450.38 560.79 21.00
4119 9.1160 504.79 624.18 22.35
4120 9.1170 621.54 700.74 24.73
4121 9.1180 717.43 794.38 26.55
4122 9.1190 874.30 910.64 29.43
4123 9.1200 993.97 1057.07 31.78
4124 9.1210 1286.42 1246.24 36.23
4125 9.1220 1598.00 1497.46 40.03
4126 9.1230 2060.50 1844.43 45.20
4127 9.1240 2530.47 2344.52 50.13
4128 9.1250 3401.32 3087.54 58.33
4129 9.1260 4477.82 4204.05 67.17
4130 9.1270 5832.21 5844.60 77.11
4131 9.1280 8194.79 8135.74 91.98
4132 9.1290 10741.30 10978.00 106.53
4133 9.1300 12945.70 13669.10 118.86
4134 9.1310 14269.60 14812.10 125.29
4135 9.1320 13614.40 13623.00 121.46
4136 9.1330 10734.60 10952.80 105.90
4137 9.1340 7940.88 8133.91 90.14
4138 9.1350 5706.63 5850.36 76.27
4139 9.1360 4309.12 4210.58 66.20
4140 9.1370 3209.22 3092.87 56.96
4141 9.1380 2361.16 2347.71 48.39
4142 9.1390 1913.86 1846.73 43.90
4143 9.1400 1531.36 1498.75 39.38
4144 9.1410 1248.61 1246.90 35.57
4145 9.1420 1034.04 1057.34 31.99
4146 9.1430 861.82 910.58 29.18
4147 9.1440 677.76 794.27 25.88
4148 9.1450 624.66 700.44 24.94
4149 9.1460 537.22 623.87 23.17
4150 9.1470 462.04 560.40 21.43
4151 9.1480 438.45 507.37 20.81
4152 9.1490 356.01 462.55 18.70
4153 9.1500 328.05 424.42 18.14
4154 9.1510 303.68 391.67 17.46
4155 9.1520 308.71 363.34 17.49
4156 9.1530 260.56 338.73 16.03
4157 9.1540 282.49 317.13 16.68
4158 9.1550 232.83 298.14 15.17
4159 9.1560 241.58 281.33 15.54
4160 9.1570 184.44 266.38 13.53
4161 9.1580 188.26 253.04 13.63
4162 9.1590 195.96 241.07 13.94
4163 9.1600 191.97 230.30 13.96
4164 9.1610 166.69 220.57 13.02
4165 9.1620 167.52 211.76 12.93
4166 9.1630 150.23 203.75 12.15
4167 9.1640 165.34 196.44 12.73
4168 9.1650 170.59 189.76 12.96
4169 9.1660 141.73 183.64 11.82
4170 9.1670 133.44 178.01 11.44
4171 9.1680 147.81 172.83 12.07
4172 9.1690 136.76 168.05 11.67
4173 9.1700 139.66 163.63 11.92
4174 9.1710 133.43 159.53 11.66
4175 9.1720 120.84 155.72 10.95
4176 9.1730 122.62 152.18 10.99
4177 9.1740 122.26 148.88 10.92
4178 9.1750 116.64 145.80 10.69
4179 9.1760 121.90 142.92 10.96
4180 9.1770 86.44 140.23 9.24
4181 9.1780 107.02 137.70 10.31
4182 9.1790 131.12 135.33 11.46
4183 9.1800 107.12 133.10 10.44
4184 9.1810 119.50 130.99 11.03
4185 9.1820 105.72 129.02 10.29
4186 9.1830 111.00 127.15 10.48
4187 9.1840 113.48 125.38 10.58
4188 9.1850 121.44 123.71 10.97
4189 9.1860 105.64 122.14 10.25
4190 9.1870 107.03 120.64 10.30
4191 9.1880 98.15 119.22 9.83
4192 9.1890 116.22 117.87 10.75
4193 9.1900 98.16 116.59 9.94
4194 9.1910 100.98 115.37 10.07
4195 9.1920 112.77 114.21 10.58
4196 9.1930 100.90 113.10 9.97
4197 9.1940 84.47 112.05 9.15
4198 9.1950 97.58 111.04 9.83
4199 9.1960 114.80 110.08 10.71
4200 9.1970 81.36 109.16 9.00
4201 9.1980 93.25 108.29 9.60
4202 9.1990 99.12 107.44 9.91
4203 9.2000 100.73 106.64 10.06
4204 9.2010 79.19 105.87 8.97
4205 9.2020 100.15 105.13 10.03
4206 9.2030 77.00 104.42 8.75
4207 9.2040 87.43 103.73 9.30
4208 9.2050 100.65 103.08 9.99
4209 9.2060 102.16 102.45 10.09
4210 9.2070 75.59 101.84 8.66
4211 9.2080 87.16 101.26 9.27
4212 9.2090 85.97 100.70 9.25
4213 9.2100 84.91 100.15 9.23
4214 9.2110 83.19 99.63 9.23
4215 9.2120 104.18 99.13 10.19
4216 9.2130 95.17 98.64 9.70
4217 9.2140 89.00 98.18 9.34
4218 9.2150 92.68 97.72 9.53
4219 9.2160 80.51 97.29 8.92
4220 9.2170 77.89 96.86 8.76
4221 9.2180 92.35 96.46 9.54
4222 9.2190 81.52 96.06 9.05
4223 9.2200 89.48 95.68 9.53
4224 9.2210 94.69 95.31 9.82
4225 9.2220 84.49 94.95 9.19
4226 9.2230 78.43 94.60 8.77
4227 9.2240 87.06 94.26 9.23
4228 9.2250 86.83 93.93 9.21
4229 9.2260 78.34 93.62 8.82
4230 9.2270 83.82 93.31 9.09
4231 9.2280 97.94 93.01 9.89
4232 9.2290 91.19 92.72 9.57
4233 9.2300 73.22 92.44 8.66
4234 9.2310 100.11 92.16 10.11
4235 9.2320 89.30 91.90 9.43
4236 9.2330 77.53 91.64 8.73
4237 9.2340 81.96 91.38 8.95
4238 9.2350 82.04 91.14 8.99
4239 9.2360 85.73 90.90 9.25
4240 9.2370 81.36 90.67 8.96
4241 9.2380 90.30 90.44 9.48
4242 9.2390 77.00 90.22 8.75
4243 9.2400 92.98 90.00 9.68
4244 9.2410 83.82 89.79 9.22
4245 9.2420 81.67 89.59 9.02
4246 9.2430 85.22 89.39 9.19
4247 9.2440 86.95 89.20 9.25
4248 9.2450 97.28 89.01 9.81
4249 9.2460 78.30 88.82 8.81
4250 9.2470 90.46 88.64 9.40
4251 9.2480 87.85 88.46 9.29
4252 9.2490 83.26 88.29 9.11
4253 9.2500 83.70 88.12 9.20
4254 9.2510 78.08 87.95 8.91
4255 9.2520 83.68 87.79 9.17
4256 9.2530 75.75 87.64 8.69
4257 9.2540 98.08 87.48 9.82
4258 9.2550 100.61 87.33 9.99
4259 9.2560 89.15 87.18 9.42
4260 9.2570 75.57 87.04 8.67
4261 9.2580 75.25 86.90 8.67
4262 9.2590 86.45 86.76 9.28
4263 9.2600 72.20 86.62 8.54
4264 9.2610 78.95 86.49 8.93
4265 9.2620 92.91 86.36 9.61
4266 9.2630 84.46 86.23 9.11
4267 9.2640 91.45 86.10 9.46
4268 9.2650 78.38 85.98 8.80
4269 9.2660 76.98 85.86 8.74
4270 9.2670 70.96 85.74 8.39
4271 9.2680 92.83 85.63 9.61
4272 9.2690 83.99 85.51 9.15
4273 9.2700 75.55 85.40 8.77
4274 9.2710 79.56 85.29 8.92
4275 9.2720 77.85 85.18 8.80
4276 9.2730 86.61 85.08 9.21
4277 9.2740 76.94 84.97 8.68
4278 9.2750 81.16 84.87 8.90
4279 9.2760 61.70 84.77 7.86
4280 9.2770 72.99 84.67 8.52
4281 9.2780 88.98 84.57 9.40
4282 9.2790 81.19 84.48 8.99
4283 9.2800 86.39 84.39 9.37
4284 9.2810 75.14 84.29 8.74
4285 9.2820 89.94 84.20 9.51
4286 9.2830 76.16 84.11 8.64
4287 9.2840 74.89 84.03 8.60
4288 9.2850 81.94 83.94 9.02
4289 9.2860 84.36 83.85 9.14
4290 9.2870 79.62 83.77 8.82
4291 9.2880 72.96 83.69 8.49
4292 9.2890 101.21 83.61 10.03
4293 9.2900 72.20 83.53 8.54
4294 9.2910 77.31 83.45 8.85
4295 9.2920 77.74 83.37 8.83
4296 9.2930 63.87 83.30 7.95
4297 9.2940 85.15 83.22 9.18
4298 9.2950 77.95 83.15 8.79
4299 9.2960 96.09 83.07 9.75
4300 9.2970 80.49 83.00 8.90
4301 9.2980 81.16 82.93 8.95
4302 9.2990 92.48 82.86 9.58
4303 9.3000 87.90 82.79 9.47
4304 9.3010 88.57 82.72 9.50
4305 9.3020 93.12 82.66 9.68
4306 9.3030 74.09 82.59 8.54
4307 9.3040 81.37 82.52 8.99
4308 9.3050 87.24 82.46 9.32
4309 9.3060 82.96 82.40 9.12
4310 9.3070 60.29 82.33 7.76
4311 9.3080 61.84 82.27 7.85
4312 9.3090 91.97 82.21 9.61
4313 9.3100 93.87 82.15 9.76
4314 9.3110 69.40 82.09 8.37
4315 9.3120 74.40 82.03 8.64
4316 9.3130 65.49 81.97 8.03
4317 9.3140 75.55 81.92 8.64
4318 9.3150 74.08 81.86 8.54
4319 9.3160 71.55 81.80 8.46
4320 9.3170 78.71 81.75 8.87
4321 9.3180 85.20 81.69 9.21
4322 9.3190 79.14 81.64 8.90
4323 9.3200 70.92 81.58 8.48
4324 9.3210 89.58 81.53 9.51
4325 9.3220 81.39 79.14 9.01
4326 9.3230 87.29 77.97 9.29
4327 9.3240 90.97 77.96 9.45
4328 9.3250 87.69 77.94 9.36
4329 9.3260 84.43 77.93 9.20
4330 9.3270 82.49 77.91 9.06
4331 9.3280 86.84 77.90 9.34
4332 9.3290 76.65 77.88 8.77
4333 9.3300 77.97 77.86 8.93
4334 9.3310 79.41 77.85 8.99
4335 9.3320 72.53 77.83 8.57
4336 9.3330 69.90 77.82 8.34
4337 9.3340 80.10 77.80 8.88
4338 9.3350 80.25 77.79 8.93
4339 9.3360 58.32 77.77 7.63
4340 9.3370 72.12 77.76 8.45
4341 9.3380 84.77 77.74 9.15
4342 9.3390 80.02 77.72 8.91
4343 9.3400 84.41 77.71 9.28
4344 9.3410 76.80 77.69 8.84
4345 9.3420 76.67 77.68 8.81
4346 9.3430 85.75 77.66 9.25
4347 9.3440 96.43 77.65 9.76
4348 9.3450 77.79 77.63 8.79
4349 9.3460 83.12 77.62 9.12
4350 9.3470 61.51 77.60 7.80
4351 9.3480 70.08 77.58 8.35
4352 9.3490 67.02 77.57 8.18
4353 9.3500 81.61 77.55 9.12
4354 9.3510 101.64 77.54 10.17
4355 9.3520 74.73 77.52 8.70
4356 9.3530 84.61 77.51 9.16
4357 9.3540 64.99 77.49 8.06
4358 9.3550 83.09 77.48 9.10
4359 9.3560 78.95 77.46 8.92
4360 9.3570 82.43 77.45 9.09
4361 9.3580 73.72 77.43 8.56
4362 9.3590 81.86 77.41 9.03
4363 9.3600 72.01 77.40 8.59
4364 9.3610 78.53 77.38 8.92
4365 9.3620 65.89 77.37 8.13
4366 9.3630 73.30 77.35 8.50
4367 9.3640 66.07 77.34 8.10
4368 9.3650 63.49 77.32 7.95
4369 9.3660 74.80 77.31 8.68
4370 9.3670 77.05 77.29 8.76
4371 9.3680 67.23 77.28 8.22
4372 9.3690 77.07 77.26 8.78
4373 9.3700 63.16 77.25 8.03
4374 9.3710 84.00 77.23 9.21
4375 9.3720 71.12 77.21 8.42
4376 9.3730 90.90 77.20 9.50
4377 9.3740 85.36 77.18 9.18
4378 9.3750 59.01 77.17 7.66
4379 9.3760 68.19 77.15 8.33
4380 9.3770 75.17 77.14 8.67
4381 9.3780 69.98 77.12 8.36
4382 9.3790 74.76 77.11 8.67
4383 9.3800 73.56 77.09 8.68
4384 9.3810 68.43 77.08 8.36
4385 9.3820 67.95 77.06 8.26
4386 9.3830 81.83 77.05 8.99
4387 9.3840 64.95 77.03 7.99
4388 9.3850 69.04 77.02 8.32
4389 9.3860 75.49 77.00 8.69
4390 9.3870 75.46 76.99 8.63
4391 9.3880 79.68 76.97 8.89
4392 9.3890 75.26 76.96 8.65
4393 9.3900 70.57 76.94 8.45
4394 9.3910 69.16 76.92 8.40
4395 9.3920 74.60 76.91 8.66
4396 9.3930 76.92 76.89 8.75
4397 9.3940 69.24 76.88 8.28
4398 9.3950 63.31 76.86 7.93
4399 9.3960 62.11 76.85 7.89
4400 9.3970 70.63 76.83 8.37
4401 9.3980 64.57 76.82 8.03
4402 9.3990 67.64 76.80 8.20
4403 9.4000 70.32 76.79 8.47
4404 9.4010 87.74 76.77 9.48
4405 9.4020 78.69 76.76 8.92
4406 9.4030 77.56 76.74 8.77
4407 9.4040 70.39 76.73 8.38
4408 9.4050 71.85 76.71 8.47
4409 9.4060 80.45 76.70 9.00
4410 9.4070 65.37 76.68 8.07
4411 9.4080 58.89 76.67 7.65
4412 9.4090 67.70 76.65 8.25
4413 9.4100 70.63 76.64 8.46
4414 9.4110 71.39 76.62 8.50
4415 9.4120 79.18 76.61 8.90
4416 9.4130 74.15 76.59 8.56
4417 9.4140 71.36 76.58 8.41
4418 9.4150 67.18 76.56 8.15
4419 9.4160 62.98 76.55 7.95
4420 9.4170 73.01 76.53 8.48
4421 9.4180 80.84 76.52 8.97
4422 9.4190 75.55 76.50 8.69
4423 9.4200 79.56 76.49 8.97
4424 9.4210 68.55 76.47 8.34
4425 9.4220 66.89 76.46 8.18
4426 9.4230 67.87 76.44 8.16
4427 9.4240 77.88 76.43 8.79
4428 9.4250 79.21 76.41 8.87
4429 9.4260 66.61 76.40 8.22
4430 9.4270 73.32 76.38 8.56
4431 9.4280 75.65 76.37 8.68
4432 9.4290 82.70 76.35 9.10
4433 9.4300 68.63 76.34 8.38
4434 9.4310 74.31 76.32 8.70
4435 9.4320 78.23 76.31 8.88
4436 9.4330 77.06 76.29 8.74
4437 9.4340 76.02 76.28 8.67
4438 9.4350 71.36 76.26 8.40
4439 9.4360 57.92 76.25 7.63
4440 9.4370 68.88 76.23 8.27
4441 9.4380 62.67 76.22 7.88
4442 9.4390 68.29 76.20 8.23
4443 9.4400 62.59 76.19 7.98
4444 9.4410 67.18 76.17 8.26
4445 9.4420 75.81 76.16 8.72
4446 9.4430 66.36 76.14 8.08
4447 9.4440 72.37 76.13 8.43
4448 9.4450 75.20 76.11 8.63
4449 9.4460 63.19 76.10 7.94
4450 9.4470 75.76 76.08 8.65
4451 9.4480 61.93 76.07 7.87
4452 9.4490 64.57 76.05 8.03
4453 9.4500 70.35 76.04 8.45
4454 9.4510 54.12 76.03 7.43
4455 9.4520 78.10 76.01 8.88
4456 9.4530 77.73 76.00 8.79
4457 9.4540 56.60 75.98 7.49
4458 9.4550 73.31 75.97 8.53
4459 9.4560 73.66 75.95 8.59
4460 9.4570 60.05 75.94 7.72
4461 9.4580 61.55 75.92 7.83
4462 9.4590 83.50 75.91 9.11
4463 9.4600 71.18 75.89 8.46
4464 9.4610 63.19 75.88 8.02
4465 9.4620 63.40 75.86 7.98
4466 9.4630 80.17 75.85 8.90
4467 9.4640 71.53 75.83 8.42
4468 9.4650 67.72 75.82 8.21
4469 9.4660 65.65 75.80 8.13
4470 9.4670 70.68 75.79 8.36
4471 9.4680 73.89 75.77 8.54
4472 9.4690 53.07 75.76 7.29
4473 9.4700 64.43 75.75 8.07
4474 9.4710 55.84 75.73 7.50
4475 9.4720 72.81 75.72 8.55
4476 9.4730 87.07 75.70 9.27
4477 9.4740 81.23 75.69 8.91
4478 9.4750 62.53 75.67 7.87
4479 9.4760 64.41 75.66 8.06
4480 9.4770 73.48 75.64 8.57
4481 9.4780 77.71 75.63 8.81
4482 9.4790 81.60 75.61 9.06
4483 9.4800 79.24 75.60 9.00
4484 9.4810 74.65 75.58 8.70
4485 9.4820 67.36 75.57 8.19
4486 9.4830 83.02 75.56 9.03
4487 9.4840 75.94 75.54 8.64
4488 9.4850 73.50 75.53 8.57
4489 9.4860 61.03 75.51 7.81
4490 9.4870 66.91 75.50 8.12
4491 9.4880 69.22 75.48 8.25
4492 9.4890 68.20 75.47 8.25
4493 9.4900 69.24 75.45 8.37
4494 9.4910 81.10 75.44 9.05
4495 9.4920 74.07 75.42 8.60
4496 9.4930 75.51 75.41 8.68
4497 9.4940 68.00 75.40 8.18
4498 9.4950 73.90 75.38 8.56
4499 9.4960 60.40 75.37 7.76
4500 9.4970 57.12 75.35 7.53
4501 9.4980 59.00 75.34 7.64
4502 9.4990 71.22 75.32 8.44
4503 9.5000 65.73 75.31 8.18
4504 9.5010 68.07 75.29 8.35
4505 9.5020 69.13 75.28 8.35
4506 9.5030 73.14 75.27 8.53
4507 9.5040 65.65 75.25 8.07
4508 9.5050 68.66 75.24 8.25
4509 9.5060 68.16 75.22 8.26
4510 9.5070 66.37 75.21 8.10
4511 9.5080 69.19 75.19 8.30
4512 9.5090 72.00 75.18 8.45
4513 9.5100 67.67 75.16 8.29
4514 9.5110 73.65 75.15 8.62
4515 9.5120 55.73 75.14 7.46
4516 9.5130 61.58 75.12 7.77
4517 9.5140 73.94 75.11 8.53
4518 9.5150 63.42 75.09 7.93
4519 9.5160 72.68 75.08 8.53
4520 9.5170 72.25 75.06 8.47
4521 9.5180 65.42 75.05 8.06
4522 9.5190 58.36 75.04 7.62
4523 9.5200 57.43 75.02 7.62
4524 9.5210 69.86 75.01 8.43
4525 9.5220 67.06 74.99 8.19
4526 9.5230 64.26 74.98 7.97
4527 9.5240 63.61 74.96 7.94
4528 9.5250 57.60 74.95 7.60
4529 9.5260 68.91 74.94 8.33
4530 9.5270 66.16 74.92 8.16
4531 9.5280 70.87 74.91 8.41
4532 9.5290 73.42 74.89 8.59
4533 9.5300 68.34 74.88 8.35
4534 9.5310 75.03 74.86 8.76
4535 9.5320 56.22 74.85 7.50
4536 9.5330 71.93 74.84 8.46
4537 9.5340 54.24 74.82 7.33
4538 9.5350 75.10 74.81 8.64
4539 9.5360 56.37 74.79 7.51
4540 9.5370 71.46 74.78 8.39
4541 9.5380 75.58 74.76 8.64
4542 9.5390 67.19 74.75 8.20
4543 9.5400 68.86 74.74 8.32
4544 9.5410 72.10 74.72 8.57
4545 9.5420 83.02 74.71 9.13
4546 9.5430 74.91 74.69 8.61
4547 9.5440 72.10 74.68 8.41
4548 9.5450 60.28 74.67 7.73
4549 9.5460 70.52 74.65 8.39
4550 9.5470 63.82 74.64 7.98
4551 9.5480 55.56 74.62 7.45
4552 9.5490 86.92 74.61 9.36
4553 9.5500 63.01 74.59 8.05
4554 9.5510 55.43 74.58 7.58
4555 9.5520 59.95 74.57 7.77
4556 9.5530 66.91 74.55 8.17
4557 9.5540 70.70 74.54 8.36
4558 9.5550 73.65 74.52 8.59
4559 9.5560 66.68 74.51 8.16
4560 9.5570 83.65 74.50 9.10
4561 9.5580 63.98 74.48 7.98
4562 9.5590 55.03 74.47 7.44
4563 9.5600 61.71 74.45 7.92
4564 9.5610 63.20 74.44 8.05
4565 9.5620 69.21 74.43 8.31
4566 9.5630 72.58 74.41 8.48
4567 9.5640 65.71 74.40 8.05
4568 9.5650 57.68 74.38 7.60
4569 9.5660 64.46 74.37 8.05
4570 9.5670 74.68 74.36 8.62
4571 9.5680 82.69 74.34 9.04
4572 9.5690 69.08 74.33 8.30
4573 9.5700 59.84 74.31 7.81
4574 9.5710 69.16 74.30 8.40
4575 9.5720 62.15 74.29 7.93
4576 9.5730 64.75 74.27 8.05
4577 9.5740 77.93 74.26 8.80
4578 9.5750 57.92 74.24 7.63
4579 9.5760 60.32 74.23 7.83
4580 9.5770 69.04 74.22 8.31
4581 9.5780 62.92 74.20 7.92
4582 9.5790 74.18 74.19 8.63
4583 9.5800 69.30 74.17 8.39
4584 9.5810 52.39 74.16 7.33
4585 9.5820 69.61 74.15 8.32
4586 9.5830 68.11 74.13 8.24
4587 9.5840 76.58 74.12 8.70
4588 9.5850 64.38 74.10 8.02
4589 9.5860 69.47 74.09 8.35
4590 9.5870 58.06 74.08 7.60
4591 9.5880 67.67 74.06 8.19
4592 9.5890 67.03 74.05 8.20
4593 9.5900 62.87 74.04 7.97
4594 9.5910 78.85 74.02 8.97
4595 9.5920 61.84 74.01 7.88
4596 9.5930 53.77 73.99 7.31
4597 9.5940 70.11 73.98 8.30
4598 9.5950 62.59 73.97 7.89
4599 9.5960 65.00 73.95 8.04
4600 9.5970 57.77 73.94 7.63
4601 9.5980 71.93 73.93 8.46
4602 9.5990 67.54 73.91 8.28
4603 9.6000 69.83 73.90 8.43
4604 9.6010 64.91 73.88 8.19
4605 9.6020 76.49 73.87 8.77
4606 9.6030 55.09 73.86 7.41
4607 9.6040 65.41 73.84 8.02
4608 9.6050 71.79 73.83 8.45
4609 9.6060 69.42 73.81 8.32
4610 9.6070 57.47 73.80 7.58
4611 9.6080 65.05 73.79 8.06
4612 9.6090 84.25 73.77 9.19
4613 9.6100 55.33 73.76 7.50
4614 9.6110 66.00 73.75 8.17
4615 9.6120 69.96 73.73 8.35
4616 9.6130 69.49 73.72 8.31
4617 9.6140 83.67 73.71 9.06
4618 9.6150 78.48 73.69 8.85
4619 9.6160 73.40 73.68 8.56
4620 9.6170 60.47 73.66 7.76
4621 9.6180 66.55 73.65 8.14
4622 9.6190 70.34 73.64 8.39
4623 9.6200 68.88 73.62 8.34
4624 9.6210 69.87 73.61 8.44
4625 9.6220 62.90 73.60 7.96
4626 9.6230 53.50 73.58 7.31
4627 9.6240 67.14 73.57 8.15
4628 9.6250 67.86 73.55 8.23
4629 9.6260 71.79 73.54 8.52
4630 9.6270 75.96 73.53 8.72
4631 9.6280 69.86 73.51 8.35
4632 9.6290 67.73 73.50 8.24
4633 9.6300 68.86 73.49 8.36
4634 9.6310 57.23 73.47 7.64
4635 9.6320 63.38 73.46 7.98
4636 9.6330 64.54 73.45 8.01
4637 9.6340 81.31 73.43 8.98
4638 9.6350 62.81 73.42 7.91
4639 9.6360 61.92 73.41 7.86
4640 9.6370 58.49 73.39 7.63
4641 9.6380 59.63 73.38 7.68
4642 9.6390 64.37 73.36 8.03
4643 9.6400 63.52 73.35 8.04
4644 9.6410 65.84 73.34 8.20
4645 9.6420 74.16 73.32 8.63
4646 9.6430 67.47 73.31 8.18
4647 9.6440 63.40 73.30 7.89
4648 9.6450 68.55 73.28 8.25
4649 9.6460 64.71 73.27 8.03
4650 9.6470 59.25 73.26 7.68
4651 9.6480 73.58 73.24 8.56
4652 9.6490 70.75 73.23 8.46
4653 9.6500 71.24 73.22 8.56
4654 9.6510 75.62 73.20 8.82
4655 9.6520 63.10 73.19 7.99
4656 9.6530 68.61 73.18 8.28
4657 9.6540 75.72 73.16 8.66
4658 9.6550 69.68 73.15 8.31
4659 9.6560 59.14 73.14 7.70
4660 9.6570 62.83 73.12 7.91
4661 9.6580 58.43 73.11 7.63
4662 9.6590 66.22 73.10 8.14
4663 9.6600 70.78 73.08 8.48
4664 9.6610 61.63 73.07 7.89
4665 9.6620 63.45 73.06 7.95
4666 9.6630 59.39 73.04 7.67
4667 9.6640 68.11 73.03 8.20
4668 9.6650 57.34 73.02 7.53
4669 9.6660 72.46 73.00 8.50
4670 9.6670 74.02 72.99 8.57
4671 9.6680 61.07 72.98 7.75
4672 9.6690 64.62 72.96 8.05
4673 9.6700 70.32 72.95 8.41
4674 9.6710 64.88 72.94 8.10
4675 9.6720 79.40 72.92 8.94
4676 9.6730 60.39 72.91 7.78
4677 9.6740 63.23 72.90 7.92
4678 9.6750 66.14 72.88 8.14
4679 9.6760 68.87 72.87 8.33
4680 9.6770 71.59 72.86 8.50
4681 9.6780 62.29 72.84 7.85
4682 9.6790 64.99 72.83 8.04
4683 9.6800 64.13 72.82 8.06
4684 9.6810 63.44 72.80 8.03
4685 9.6820 60.23 72.79 7.78
4686 9.6830 65.37 72.78 8.02
4687 9.6840 55.61 72.76 7.40
4688 9.6850 58.45 72.75 7.62
4689 9.6860 79.66 72.74 8.92
4690 9.6870 78.40 72.72 8.78
4691 9.6880 59.55 72.71 7.70
4692 9.6890 56.25 72.70 7.49
4693 9.6900 73.82 72.68 8.65
4694 9.6910 55.18 72.67 7.50
4695 9.6920 70.31 72.66 8.41
4696 9.6930 68.33 72.64 8.23
4697 9.6940 60.81 72.63 7.72
4698 9.6950 62.77 72.62 7.88
4699 9.6960 56.89 72.60 7.53
4700 9.6970 56.35 72.59 7.49
4701 9.6980 60.18 72.58 7.76
4702 9.6990 67.06 72.57 8.20
4703 9.7000 83.31 72.55 9.24
4704 9.7010 75.59 72.54 8.83
4705 9.7020 69.22 72.53 8.34
4706 9.7030 54.06 72.51 7.33
4707 9.7040 70.20 72.50 8.31
4708 9.7050 68.28 72.49 8.21
4709 9.7060 72.87 72.47 8.53
4710 9.7070 61.54 72.46 7.79
4711 9.7080 66.98 72.45 8.16
4712 9.7090 65.43 72.43 8.09
4713 9.7100 79.22 72.42 8.94
4714 9.7110 69.63 72.41 8.43
4715 9.7120 67.84 72.40 8.20
4716 9.7130 67.61 72.38 8.15
4717 9.7140 67.59 72.37 8.16
4718 9.7150 59.90 72.36 7.68
4719 9.7160 54.40 72.34 7.37
4720 9.7170 49.44 72.33 7.04
4721 9.7180 54.79 72.32 7.40
4722 9.7190 78.21 72.30 8.85
4723 9.7200 68.59 72.29 8.32
4724 9.7210 54.56 72.28 7.47
4725 9.7220 73.21 72.26 8.56
4726 9.7230 57.03 72.25 7.57
4727 9.7240 66.97 72.24 8.14
4728 9.7250 76.43 72.23 8.74
4729 9.7260 80.58 72.21 9.00
4730 9.7270 71.59 72.20 8.43
4731 9.7280 54.60 72.19 7.38
4732 9.7290 67.24 72.17 8.22
4733 9.7300 61.73 72.16 7.92
4734 9.7310 62.11 72.15 7.96
4735 9.7320 66.86 72.14 8.18
4736 9.7330 67.35 72.12 8.19
4737 9.7340 54.04 72.11 7.31
4738 9.7350 66.41 72.10 8.11
4739 9.7360 59.18 72.08 7.66
4740 9.7370 71.86 72.07 8.44
4741 9.7380 73.40 72.06 8.53
4742 9.7390 72.13 72.05 8.49
4743 9.7400 77.18 72.03 8.82
4744 9.7410 66.79 72.02 8.25
4745 9.7420 70.53 72.01 8.44
4746 9.7430 84.00 71.99 9.15
4747 9.7440 72.42 71.98 8.46
4748 9.7450 63.45 71.97 7.95
4749 9.7460 56.51 71.96 7.53
4750 9.7470 64.07 71.94 8.00
4751 9.7480 73.15 71.93 8.56
4752 9.7490 71.51 71.92 8.48
4753 9.7500 72.24 71.90 8.62
4754 9.7510 43.91 71.89 6.74
4755 9.7520 64.98 71.88 8.08
4756 9.7530 64.12 71.87 8.01
4757 9.7540 72.76 71.85 8.50
4758 9.7550 67.88 71.84 8.23
4759 9.7560 71.52 71.83 8.46
4760 9.7570 55.60 71.81 7.43
4761 9.7580 70.32 71.80 8.37
4762 9.7590 60.97 71.79 7.82
4763 9.7600 62.28 71.78 7.95
4764 9.7610 59.93 71.76 7.81
4765 9.7620 66.61 71.75 8.15
4766 9.7630 52.85 71.74 7.22
4767 9.7640 66.51 71.73 8.09
4768 9.7650 70.05 71.71 8.38
4769 9.7660 55.47 71.70 7.46
4770 9.7670 56.97 71.69 7.57
4771 9.7680 58.92 71.67 7.66
4772 9.7690 71.65 71.66 8.50
4773 9.7700 72.67 71.65 8.61
4774 9.7710 68.00 71.64 8.34
4775 9.7720 72.78 71.62 8.58
4776 9.7730 65.73 71.61 8.15
4777 9.7740 62.00 71.60 7.89
4778 9.7750 63.74 71.59 8.01
4779 9.7760 68.06 71.57 8.29
4780 9.7770 52.89 71.56 7.30
4781 9.7780 60.77 71.55 7.79
4782 9.7790 67.95 71.54 8.23
4783 9.7800 66.19 71.52 8.23
4784 9.7810 44.43 71.51 6.76
4785 9.7820 57.12 71.50 7.57
4786 9.7830 71.24 71.48 8.41
4787 9.7840 47.19 71.47 6.85
4788 9.7850 66.50 71.46 8.13
4789 9.7860 73.51 71.45 8.58
4790 9.7870 75.37 71.43 8.63
4791 9.7880 80.11 71.42 8.94
4792 9.7890 76.61 71.41 8.75
4793 9.7900 66.03 71.40 8.22
4794 9.7910 63.61 71.38 8.06
4795 9.7920 66.69 71.37 8.21
4796 9.7930 72.84 71.36 8.54
4797 9.7940 77.68 71.35 8.81
4798 9.7950 61.38 71.33 7.85
4799 9.7960 58.89 71.32 7.68
4800 9.7970 60.85 71.31 7.84
4801 9.7980 45.60 71.30 6.79
4802 9.7990 65.01 71.28 8.07
4803 9.8000 70.32 71.27 8.50
4804 9.8010 67.52 71.26 8.32
4805 9.8020 63.60 71.25 8.02
4806 9.8030 60.79 71.23 7.79
4807 9.8040 54.13 71.22 7.32
4808 9.8050 57.09 71.21 7.54
4809 9.8060 74.99 71.20 8.66
4810 9.8070 67.98 71.18 8.23
4811 9.8080 75.39 71.17 8.64
4812 9.8090 71.02 71.16 8.42
4813 9.8100 61.21 71.15 7.87
4814 9.8110 45.71 71.13 6.81
4815 9.8120 54.24 71.12 7.35
4816 9.8130 62.70 71.11 7.88
4817 9.8140 75.36 71.10 8.62
4818 9.8150 66.88 71.08 8.16
4819 9.8160 62.53 71.07 7.91
4820 9.8170 57.86 71.06 7.63
4821 9.8180 57.60 71.05 7.61
4822 9.8190 68.22 71.04 8.27
4823 9.8200 72.61 71.02 8.63
4824 9.8210 55.79 71.01 7.56
4825 9.8220 69.06 71.00 8.33
4826 9.8230 66.51 70.99 8.17
4827 9.8240 64.49 71.06 8.01
4828 9.8250 60.75 71.05 7.81
4829 9.8260 75.65 71.04 8.71
4830 9.8270 68.62 71.03 8.25
4831 9.8280 65.08 71.02 8.03
4832 9.8290 52.64 71.00 7.26
4833 9.8300 62.86 70.99 8.01
4834 9.8310 70.64 70.98 8.49
4835 9.8320 75.96 70.97 8.73
4836 9.8330 63.18 70.96 7.92
4837 9.8340 60.61 70.95 7.76
4838 9.8350 71.89 70.94 8.41
4839 9.8360 59.62 70.93 7.70
4840 9.8370 59.20 70.91 7.65
4841 9.8380 54.13 70.90 7.32
4842 9.8390 59.06 70.89 7.67
4843 9.8400 82.24 70.88 9.15
4844 9.8410 77.80 70.87 8.93
4845 9.8420 59.30 70.86 7.74
4846 9.8430 63.73 70.85 7.96
4847 9.8440 56.64 70.84 7.48
4848 9.8450 71.49 70.83 8.45
4849 9.8460 62.16 70.81 7.90
4850 9.8470 66.21 70.80 8.14
4851 9.8480 74.15 70.79 8.60
4852 9.8490 68.03 70.78 8.31
4853 9.8500 62.50 70.77 7.99
4854 9.8510 55.61 70.76 7.54
4855 9.8520 54.18 70.75 7.39
4856 9.8530 60.91 70.74 7.79
4857 9.8540 58.93 70.73 7.65
4858 9.8550 64.03 70.72 8.01
4859 9.8560 68.02 70.71 8.27
4860 9.8570 66.99 70.70 8.15
4861 9.8580 61.23 70.68 7.78
4862 9.8590 71.54 70.67 8.45
4863 9.8600 68.91 70.66 8.37
4864 9.8610 61.86 70.65 7.93
4865 9.8620 56.51 70.64 7.50
4866 9.8630 71.18 70.63 8.39
4867 9.8640 64.10 70.62 7.95
4868 9.8650 69.72 70.61 8.35
4869 9.8660 58.13 70.60 7.62
4870 9.8670 57.97 70.59 7.59
4871 9.8680 52.77 70.58 7.28
4872 9.8690 65.38 70.57 8.11
4873 9.8700 66.05 70.56 8.18
4874 9.8710 68.03 70.55 8.32
4875 9.8720 69.56 70.54 8.38
4876 9.8730 73.06 70.53 8.54
4877 9.8740 65.71 70.52 8.10
4878 9.8750 79.42 70.51 8.94
4879 9.8760 63.06 70.51 7.95
4880 9.8770 55.41 70.50 7.45
4881 9.8780 54.20 70.49 7.35
4882 9.8790 69.87 70.49 8.35
4883 9.8800 78.96 70.48 8.94
4884 9.8810 65.80 70.48 8.17
4885 9.8820 57.42 70.49 7.58
4886 9.8830 53.38 70.49 7.31
4887 9.8840 58.49 70.50 7.60
4888 9.8850 58.13 70.51 7.60
4889 9.8860 76.17 70.50 8.70
4890 9.8870 74.56 70.48 8.58
4891 9.8880 67.54 70.45 8.18
4892 9.8890 67.43 70.42 8.23
4893 9.8900 59.77 70.40 7.79
4894 9.8910 59.88 70.38 7.82
4895 9.8920 65.52 70.36 8.12
4896 9.8930 65.30 70.35 8.07
4897 9.8940 70.08 70.34 8.30
4898 9.8950 63.55 70.33 7.98
4899 9.8960 58.97 70.31 7.68
4900 9.8970 64.53 70.30 8.06
4901 9.8980 66.87 70.29 8.20
4902 9.8990 73.57 70.28 8.61
4903 9.9000 69.96 70.28 8.44
4904 9.9010 62.76 70.27 8.00
4905 9.9020 64.30 70.26 8.02
4906 9.9030 62.24 70.25 7.87
4907 9.9040 62.03 70.24 7.80
4908 9.9050 71.23 70.23 8.44
4909 9.9060 74.05 70.22 8.60
4910 9.9070 74.52 70.21 8.61
4911 9.9080 77.27 70.21 8.75
4912 9.9090 64.07 70.20 7.99
4913 9.9100 65.22 70.19 8.14
4914 9.9110 69.09 70.18 8.35
4915 9.9120 66.09 70.18 8.14
4916 9.9130 63.65 70.17 7.95
4917 9.9140 63.08 70.16 7.89
4918 9.9150 63.48 70.15 7.97
4919 9.9160 72.64 70.15 8.53
4920 9.9170 59.98 70.14 7.74
4921 9.9180 64.39 70.13 8.01
4922 9.9190 57.37 70.13 7.59
4923 9.9200 61.01 70.12 7.89
4924 9.9210 52.37 70.11 7.33
4925 9.9220 64.72 70.11 8.12
4926 9.9230 71.56 70.10 8.46
4927 9.9240 62.12 70.09 7.89
4928 9.9250 69.99 70.09 8.36
4929 9.9260 47.96 70.08 6.94
4930 9.9270 45.06 70.08 6.71
4931 9.9280 63.49 70.07 7.94
4932 9.9290 80.50 70.07 8.98
4933 9.9300 66.86 70.06 8.25
4934 9.9310 63.05 70.06 8.02
4935 9.9320 68.91 70.05 8.31
4936 9.9330 69.28 70.05 8.28
4937 9.9340 64.80 70.04 8.00
4938 9.9350 62.02 70.04 7.83
4939 9.9360 52.80 70.04 7.24
4940 9.9370 48.75 70.03 6.96
4941 9.9380 75.16 70.03 8.63
4942 9.9390 78.50 70.03 8.86
4943 9.9400 59.84 70.03 7.80
4944 9.9410 63.88 70.02 8.09
4945 9.9420 45.77 70.02 6.80
4946 9.9430 61.57 70.02 7.84
4947 9.9440 63.56 70.02 7.96
4948 9.9450 53.71 70.02 7.34
4949 9.9460 51.89 70.02 7.25
4950 9.9470 65.61 70.02 8.13
4951 9.9480 66.78 70.02 8.20
4952 9.9490 70.86 70.02 8.45
4953 9.9500 71.78 70.02 8.58
4954 9.9510 67.33 70.02 8.27
4955 9.9520 47.79 70.03 6.97
4956 9.9530 67.35 70.03 8.16
4957 9.9540 58.20 70.03 7.62
4958 9.9550 50.65 70.04 7.12
4959 9.9560 68.85 70.04 8.32
4960 9.9570 72.26 70.05 8.47
4961 9.9580 60.30 70.05 7.76
4962 9.9590 48.66 70.06 6.99
4963 9.9600 59.24 70.07 7.72
4964 9.9610 61.69 70.08 7.91
4965 9.9620 61.34 70.08 7.85
4966 9.9630 54.12 70.09 7.33
4967 9.9640 47.94 70.11 6.92
4968 9.9650 54.33 70.12 7.35
4969 9.9660 74.66 70.13 8.68
4970 9.9670 69.08 70.14 8.32
4971 9.9680 72.90 70.16 8.51
4972 9.9690 70.54 70.18 8.43
4973 9.9700 63.25 70.19 8.04
4974 9.9710 59.12 70.21 7.80
4975 9.9720 82.76 70.23 9.14
4976 9.9730 70.74 70.26 8.42
4977 9.9740 62.11 70.28 7.89
4978 9.9750 67.29 70.31 8.19
4979 9.9760 65.13 70.33 8.09
4980 9.9770 69.73 70.36 8.32
4981 9.9780 57.41 70.39 7.55
4982 9.9790 63.53 70.43 8.00
4983 9.9800 56.30 70.47 7.57
4984 9.9810 61.44 70.51 7.92
4985 9.9820 59.29 70.55 7.72
4986 9.9830 52.28 70.60 7.22
4987 9.9840 58.37 70.64 7.58
4988 9.9850 60.27 70.70 7.72
4989 9.9860 71.51 70.76 8.47
4990 9.9870 67.45 70.82 8.19
4991 9.9880 63.91 70.88 7.97
4992 9.9890 45.99 70.96 6.80
4993 9.9900 61.49 71.03 7.97
4994 9.9910 71.02 71.12 8.54
4995 9.9920 70.81 71.21 8.44
4996 9.9930 61.39 71.31 7.84
4997 9.9940 59.99 71.41 7.73
4998 9.9950 69.14 71.53 8.32
4999 9.9960 57.92 71.65 7.66
5000 9.9970 77.66 71.79 8.84
5001 9.9980 67.61 71.94 8.25
5002 9.9990 60.21 72.10 7.78
5003 10.0000 62.10 72.28 7.97
5004 10.0010 63.62 72.48 8.08
5005 10.0020 71.71 72.70 8.50
5006 10.0030 64.68 72.93 8.01
5007 10.0040 59.48 73.20 7.68
5008 10.0050 58.64 73.49 7.65
5009 10.0060 67.17 73.82 8.21
5010 10.0070 71.11 74.18 8.43
5011 10.0080 66.14 74.58 8.11
5012 10.0090 68.42 75.04 8.27
5013 10.0100 66.24 75.56 8.16
5014 10.0110 71.90 76.14 8.53
5015 10.0120 57.05 76.80 7.54
5016 10.0130 75.60 77.57 8.66
5017 10.0140 64.78 78.44 8.06
5018 10.0150 61.24 79.46 7.87
5019 10.0160 66.51 80.65 8.21
5020 10.0170 76.23 82.05 8.78
5021 10.0180 65.43 83.70 8.11
5022 10.0190 72.37 85.69 8.52
5023 10.0200 74.41 88.09 8.71
5024 10.0210 68.62 91.04 8.37
5025 10.0220 80.76 94.71 9.08
5026 10.0230 88.13 99.38 9.39
5027 10.0240 84.81 105.49 9.20
5028 10.0250 109.16 113.81 10.43
5029 10.0260 123.37 125.55 11.13
5030 10.0270 138.79 142.63 11.72
5031 10.0280 141.78 167.69 11.85
5032 10.0290 179.68 203.90 13.41
5033 10.0300 238.38 254.01 15.61
5034 10.0310 263.45 318.72 16.36
5035 10.0320 295.05 391.16 17.24
5036 10.0330 400.00 449.48 19.78
5037 10.0340 395.55 461.87 19.65
5038 10.0350 387.63 419.71 19.50
5039 10.0360 290.97 349.56 16.93
5040 10.0370 268.95 280.10 16.31
5041 10.0380 211.71 223.46 14.55
5042 10.0390 179.91 181.51 13.45
5043 10.0400 146.06 152.09 12.24
5044 10.0410 114.70 131.91 10.86
5045 10.0420 104.22 118.14 10.25
5046 10.0430 93.83 108.52 9.69
5047 10.0440 90.25 101.56 9.45
5048 10.0450 96.51 96.31 9.82
5049 10.0460 78.44 92.23 8.88
5050 10.0470 75.77 88.99 8.73
5051 10.0480 64.40 86.34 8.05
5052 10.0490 72.45 84.17 8.51
5053 10.0500 74.68 82.36 8.73
5054 10.0510 69.91 80.84 8.43
5055 10.0520 80.14 79.54 8.97
5056 10.0530 83.05 78.43 9.05
5057 10.0540 64.17 77.48 7.98
5058 10.0550 51.73 76.65 7.20
5059 10.0560 61.76 75.92 7.89
5060 10.0570 81.32 75.28 8.94
5061 10.0580 68.12 74.72 8.21
5062 10.0590 67.70 74.21 8.19
5063 10.0600 58.45 73.76 7.69
5064 10.0610 59.25 73.36 7.74
5065 10.0620 66.67 73.00 8.16
5066 10.0630 56.33 72.67 7.50
5067 10.0640 71.94 72.37 8.44
5068 10.0650 56.89 72.10 7.55
5069 10.0660 76.74 71.86 8.78
5070 10.0670 61.72 71.63 7.85
5071 10.0680 55.86 71.42 7.46
5072 10.0690 58.10 71.23 7.64
5073 10.0700 66.73 71.05 8.24
5074 10.0710 49.50 70.89 7.13
5075 10.0720 51.00 70.73 7.18
5076 10.0730 51.18 70.59 7.14
5077 10.0740 56.41 70.46 7.50
5078 10.0750 51.93 70.34 7.21
5079 10.0760 48.17 70.22 6.96
5080 10.0770 55.73 70.11 7.46
5081 10.0780 75.94 70.01 8.71
5082 10.0790 57.04 69.91 7.55
5083 10.0800 59.48 69.82 7.76
5084 10.0810 59.79 69.73 7.78
5085 10.0820 57.19 69.65 7.56
5086 10.0830 58.08 69.58 7.56
5087 10.0840 51.27 69.50 7.12
5088 10.0850 52.48 69.43 7.18
5089 10.0860 52.36 69.37 7.24
5090 10.0870 59.05 69.30 7.66
5091 10.0880 66.50 69.24 8.14
5092 10.0890 56.16 69.19 7.50
5093 10.0900 62.26 69.13 7.99
5094 10.0910 69.95 69.08 8.42
5095 10.0920 67.13 69.03 8.17
5096 10.0930 69.58 68.98 8.29
5097 10.0940 69.05 68.93 8.24
5098 10.0950 52.82 68.89 7.27
5099 10.0960 70.28 68.84 8.44
5100 10.0970 50.24 68.80 7.10
5101 10.0980 52.55 68.76 7.29
5102 10.0990 52.04 68.72 7.22
5103 10.1000 67.48 68.68 8.29
5104 10.1010 53.34 68.65 7.36
5105 10.1020 55.55 68.61 7.45
5106 10.1030 61.70 68.58 7.82
5107 10.1040 64.51 68.54 8.00
5108 10.1050 59.56 68.51 7.70
5109 10.1060 56.56 68.48 7.52
5110 10.1070 65.30 68.45 8.06
5111 10.1080 68.19 68.42 8.18
5112 10.1090 65.51 68.39 8.07
5113 10.1100 58.66 68.36 7.67
5114 10.1110 57.54 68.33 7.65
5115 10.1120 64.81 68.31 8.04
5116 10.1130 58.46 68.28 7.62
5117 10.1140 65.37 68.25 8.04
5118 10.1150 55.49 68.23 7.46
5119 10.1160 55.42 68.20 7.43
5120 10.1170 70.53 68.18 8.39
5121 10.1180 60.13 68.16 7.73
5122 10.1190 56.42 68.13 7.53
5123 10.1200 68.19 68.11 8.32
5124 10.1210 61.29 68.09 7.91
5125 10.1220 56.18 68.07 7.56
5126 10.1230 67.16 68.04 8.17
5127 10.1240 65.63 68.02 8.06
5128 10.1250 62.34 68.00 7.84
5129 10.1260 61.28 67.98 7.86
5130 10.1270 57.56 67.96 7.56
5131 10.1280 60.42 67.94 7.76
5132 10.1290 67.33 67.92 8.24
5133 10.1300 63.45 67.90 8.02
5134 10.1310 72.45 67.88 8.58
5135 10.1320 68.14 67.86 8.21
5136 10.1330 68.10 67.85 8.15
5137 10.1340 66.10 67.83 8.05
5138 10.1350 61.21 67.81 7.76
5139 10.1360 57.13 67.79 7.52
5140 10.1370 53.87 67.77 7.32
5141 10.1380 61.27 67.76 7.80
5142 10.1390 84.97 67.74 9.25
5143 10.1400 82.21 67.72 9.16
5144 10.1410 56.90 67.71 7.65
5145 10.1420 71.31 67.69 8.45
5146 10.1430 71.73 67.67 8.44
5147 10.1440 70.60 67.66 8.37
5148 10.1450 60.85 67.64 7.79
5149 10.1460 72.92 67.62 8.57
5150 10.1470 53.58 67.61 7.33
5151 10.1480 77.51 67.59 8.80
5152 10.1490 51.82 67.58 7.21
5153 10.1500 52.52 67.56 7.30
5154 10.1510 63.20 67.55 8.03
5155 10.1520 77.48 67.53 8.79
5156 10.1530 62.40 67.52 7.84
5157 10.1540 59.50 67.50 7.68
5158 10.1550 66.07 67.49 8.11
5159 10.1560 56.77 67.47 7.52
5160 10.1570 67.78 67.46 8.15
5161 10.1580 66.24 67.44 8.07
5162 10.1590 73.31 67.43 8.51
5163 10.1600 71.02 67.41 8.42
5164 10.1610 69.71 67.40 8.37
5165 10.1620 51.97 67.39 7.22
5166 10.1630 64.17 67.37 8.01
5167 10.1640 59.02 67.36 7.68
5168 10.1650 72.50 67.34 8.50
5169 10.1660 49.57 67.33 7.08
5170 10.1670 54.29 67.32 7.37
5171 10.1680 62.42 67.30 7.89
5172 10.1690 52.11 67.29 7.23
5173 10.1700 53.36 67.28 7.39
5174 10.1710 53.56 67.26 7.43
5175 10.1720 57.50 67.25 7.62
5176 10.1730 50.68 67.24 7.11
5177 10.1740 63.56 67.22 7.94
5178 10.1750 64.96 67.21 8.03
5179 10.1760 63.83 67.20 7.99
5180 10.1770 64.71 67.18 8.00
5181 10.1780 65.50 67.17 8.08
5182 10.1790 58.40 67.16 7.66
5183 10.1800 68.33 67.15 8.34
5184 10.1810 67.41 67.13 8.27
5185 10.1820 50.80 67.12 7.12
5186 10.1830 78.57 67.11 8.82
5187 10.1840 57.79 67.10 7.52
5188 10.1850 62.82 67.08 7.90
5189 10.1860 62.41 67.07 7.89
5190 10.1870 60.92 67.06 7.80
5191 10.1880 63.19 67.05 7.95
5192 10.1890 64.64 67.03 8.09
5193 10.1900 53.42 67.02 7.38
5194 10.1910 66.55 67.01 8.25
5195 10.1920 61.60 67.00 7.87
5196 10.1930 71.86 66.99 8.45
5197 10.1940 62.10 66.97 7.86
5198 10.1950 71.74 66.96 8.49
5199 10.1960 84.40 66.95 9.25
5200 10.1970 67.85 66.94 8.27
5201 10.1980 59.49 66.93 7.73
5202 10.1990 59.62 66.91 7.74
5203 10.2000 57.11 66.90 7.63
5204 10.2010 64.47 66.89 8.08
5205 10.2020 62.89 67.13 7.94
5206 10.2030 63.07 67.12 7.90
5207 10.2040 69.87 67.36 8.32
5208 10.2050 72.56 67.60 8.49
5209 10.2060 61.41 67.60 7.84
5210 10.2070 59.84 67.59 7.67
5211 10.2080 57.94 67.59 7.57
5212 10.2090 64.77 67.58 7.99
5213 10.2100 49.39 67.58 7.08
5214 10.2110 62.60 67.58 7.97
5215 10.2120 57.71 67.57 7.63
5216 10.2130 54.33 67.57 7.37
5217 10.2140 58.61 67.57 7.63
5218 10.2150 77.96 67.56 8.83
5219 10.2160 53.63 67.56 7.37
5220 10.2170 57.92 67.56 7.60
5221 10.2180 51.92 67.55 7.21
5222 10.2190 67.31 67.55 8.23
5223 10.2200 74.13 67.55 8.66
5224 10.2210 62.95 67.55 8.04
5225 10.2220 70.85 67.54 8.45
5226 10.2230 61.66 67.54 7.84
5227 10.2240 72.94 67.54 8.48
5228 10.2250 56.59 67.54 7.50
5229 10.2260 68.41 67.54 8.30
5230 10.2270 65.53 67.53 8.10
5231 10.2280 63.45 67.53 7.94
5232 10.2290 63.74 67.53 8.00
5233 10.2300 59.57 67.53 7.78
5234 10.2310 58.53 67.53 7.71
5235 10.2320 68.60 67.53 8.25
5236 10.2330 62.47 67.53 7.81
5237 10.2340 64.22 67.53 7.95
5238 10.2350 63.08 67.53 7.89
5239 10.2360 55.23 67.53 7.45
5240 10.2370 59.27 67.53 7.74
5241 10.2380 64.58 67.53 8.05
5242 10.2390 71.41 67.53 8.49
5243 10.2400 66.12 67.53 8.23
5244 10.2410 65.96 67.53 8.18
5245 10.2420 67.11 67.53 8.20
5246 10.2430 56.07 67.54 7.49
5247 10.2440 61.34 67.54 7.81
5248 10.2450 70.45 67.45 8.40
5249 10.2460 54.18 67.46 7.42
5250 10.2470 67.70 67.46 8.23
5251 10.2480 66.87 67.46 8.16
5252 10.2490 59.65 67.47 7.71
5253 10.2500 57.26 67.47 7.64
5254 10.2510 59.11 67.48 7.76
5255 10.2520 56.84 67.48 7.55
5256 10.2530 51.98 67.49 7.17
5257 10.2540 68.99 67.49 8.25
5258 10.2550 62.28 67.50 7.86
5259 10.2560 60.76 67.50 7.76
5260 10.2570 44.87 67.51 6.63
5261 10.2580 61.88 67.51 7.80
5262 10.2590 77.35 67.52 8.76
5263 10.2600 58.71 67.53 7.71
5264 10.2610 57.48 67.54 7.68
5265 10.2620 60.96 67.54 7.85
5266 10.2630 72.59 67.55 8.52
5267 10.2640 62.86 67.56 7.90
5268 10.2650 67.04 67.57 8.17
5269 10.2660 74.02 67.58 8.62
5270 10.2670 66.77 67.59 8.16
5271 10.2680 65.23 67.60 8.06
5272 10.2690 51.73 67.61 7.22
5273 10.2700 55.85 67.62 7.56
5274 10.2710 63.24 67.63 8.04
5275 10.2720 59.74 67.64 7.73
5276 10.2730 61.18 67.65 7.81
5277 10.2740 64.95 67.66 8.01
5278 10.2750 59.92 67.68 7.69
5279 10.2760 71.03 67.69 8.42
5280 10.2770 69.19 67.70 8.30
5281 10.2780 64.26 67.72 7.99
5282 10.2790 60.12 67.73 7.75
5283 10.2800 53.33 67.75 7.32
5284 10.2810 73.85 67.76 8.62
5285 10.2820 72.43 67.78 8.45
5286 10.2830 64.09 67.80 7.94
5287 10.2840 59.97 67.81 7.67
5288 10.2850 72.50 67.83 8.50
5289 10.2860 54.95 67.85 7.41
5290 10.2870 70.23 67.87 8.38
5291 10.2880 60.63 67.89 7.78
5292 10.2890 59.78 67.91 7.74
5293 10.2900 55.01 67.93 7.44
5294 10.2910 52.70 67.95 7.32
5295 10.2920 61.61 67.98 7.84
5296 10.2930 62.80 68.00 7.88
5297 10.2940 78.59 68.02 8.84
5298 10.2950 70.02 68.05 8.36
5299 10.2960 60.43 68.07 7.76
5300 10.2970 59.05 68.10 7.68
5301 10.2980 61.96 68.13 7.82
5302 10.2990 66.71 68.16 8.13
5303 10.3000 61.79 68.19 7.91
5304 10.3010 63.65 68.22 8.05
5305 10.3020 68.39 68.25 8.24
5306 10.3030 53.69 68.28 7.30
5307 10.3040 63.50 68.32 7.89
5308 10.3050 54.01 68.35 7.30
5309 10.3060 60.07 68.39 7.73
5310 10.3070 68.96 68.43 8.22
5311 10.3080 67.21 68.46 8.12
5312 10.3090 68.54 68.50 8.27
5313 10.3100 66.97 68.54 8.25
5314 10.3110 48.95 68.59 7.10
5315 10.3120 59.93 68.63 7.77
5316 10.3130 56.27 68.68 7.48
5317 10.3140 52.96 68.72 7.24
5318 10.3150 52.09 68.77 7.19
5319 10.3160 76.80 68.82 8.75
5320 10.3170 63.24 68.87 7.95
5321 10.3180 68.09 68.93 8.24
5322 10.3190 66.15 68.98 8.16
5323 10.3200 59.78 69.04 7.81
5324 10.3210 81.17 69.10 9.07
5325 10.3220 71.15 69.16 8.43
5326 10.3230 71.93 69.23 8.43
5327 10.3240 67.22 69.29 8.14
5328 10.3250 69.53 69.36 8.32
5329 10.3260 60.91 69.43 7.85
5330 10.3270 53.46 69.51 7.27
5331 10.3280 68.46 69.58 8.22
5332 10.3290 51.02 69.66 7.12
5333 10.3300 66.29 69.74 8.15
5334 10.3310 67.34 69.83 8.22
5335 10.3320 85.82 69.92 9.19
5336 10.3330 62.57 70.01 7.86
5337 10.3340 68.96 70.11 8.21
5338 10.3350 66.52 70.20 8.14
5339 10.3360 68.64 70.31 8.31
5340 10.3370 59.60 70.41 7.71
5341 10.3380 82.87 70.52 9.07
5342 10.3390 60.14 70.64 7.77
5343 10.3400 63.46 70.76 8.02
5344 10.3410 57.83 70.88 7.67
5345 10.3420 64.23 71.01 8.03
5346 10.3430 56.04 71.15 7.44
5347 10.3440 59.23 71.29 7.64
5348 10.3450 63.90 71.44 8.01
5349 10.3460 53.08 71.59 7.29
5350 10.3470 67.30 71.75 8.20
5351 10.3480 66.63 71.92 8.11
5352 10.3490 75.09 72.09 8.65
5353 10.3500 74.35 72.27 8.70
5354 10.3510 78.71 72.46 8.94
5355 10.3520 66.46 72.66 8.16
5356 10.3530 57.25 72.87 7.50
5357 10.3540 59.28 73.08 7.66
5358 10.3550 59.22 73.31 7.63
5359 10.3560 66.00 73.55 8.07
5360 10.3570 68.05 73.80 8.17
5361 10.3580 79.51 74.06 8.86
5362 10.3590 76.34 74.34 8.69
5363 10.3600 67.99 74.63 8.33
5364 10.3610 75.83 74.93 8.78
5365 10.3620 70.65 75.26 8.42
5366 10.3630 49.16 75.59 6.99
5367 10.3640 82.99 75.95 9.01
5368 10.3650 71.64 76.32 8.47
5369 10.3660 61.47 76.72 7.85
5370 10.3670 78.03 77.14 8.81
5371 10.3680 76.94 77.58 8.78
5372 10.3690 59.60 78.05 7.71
5373 10.3700 66.11 78.55 8.19
5374 10.3710 71.08 79.08 8.50
5375 10.3720 72.16 79.64 8.48
5376 10.3730 76.20 80.24 8.65
5377 10.3740 82.98 80.87 9.04
5378 10.3750 82.52 81.55 9.05
5379 10.3760 69.64 82.27 8.34
5380 10.3770 78.99 83.04 8.83
5381 10.3780 86.97 83.87 9.23
5382 10.3790 77.55 84.76 8.77
5383 10.3800 74.32 85.71 8.58
5384 10.3810 78.01 86.73 8.83
5385 10.3820 77.31 87.84 8.75
5386 10.3830 85.40 89.03 9.20
5387 10.3840 75.18 90.31 8.65
5388 10.3850 96.97 91.71 9.85
5389 10.3860 88.04 93.22 9.40
5390 10.3870 89.74 94.87 9.43
5391 10.3880 90.15 96.67 9.46
5392 10.3890 76.36 98.64 8.72
5393 10.3900 84.66 100.80 9.24
5394 10.3910 96.80 103.17 9.90
5395 10.3920 101.25 105.78 10.09
5396 10.3930 88.82 108.68 9.41
5397 10.3940 83.29 111.89 9.09
5398 10.3950 92.58 115.48 9.61
5399 10.3960 90.32 119.48 9.49
5400 10.3970 129.85 123.99 11.32
5401 10.3980 120.77 129.07 10.95
5402 10.3990 124.49 134.84 11.15
5403 10.4000 127.53 141.42 11.37
5404 10.4010 147.53 148.95 12.22
5405 10.4020 134.46 157.67 11.55
5406 10.4030 144.34 167.78 11.89
5407 10.4040 148.71 179.63 12.04
5408 10.4050 217.01 193.62 14.56
5409 10.4060 228.99 210.32 15.00
5410 10.4070 221.85 230.42 14.77
5411 10.4080 284.50 254.98 16.82
5412 10.4090 293.02 285.54 17.10
5413 10.4100 345.46 324.35 18.69
5414 10.4110 397.36 375.29 19.97
5415 10.4120 518.51 444.27 22.80
5416 10.4130 613.37 540.84 24.51
5417 10.4140 796.97 678.53 28.04
5418 10.4150 939.36 875.54 30.64
5419 10.4160 1211.05 1152.72 34.96
5420 10.4170 1583.14 1525.85 39.88
5421 10.4180 2129.44 1992.81 46.27
5422 10.4190 2644.34 2501.97 51.55
5423 10.4200 3317.32 2946.01 58.31
5424 10.4210 3576.34 3202.65 60.87
5425 10.4220 3508.54 3171.82 59.67
5426 10.4230 3097.08 2833.41 55.60
5427 10.4240 2457.26 2316.02 49.50
5428 10.4250 1943.43 1790.50 44.21
5429 10.4260 1482.03 1350.52 38.54
5430 10.4270 1154.94 1016.85 33.72
5431 10.4280 875.88 776.28 29.35
5432 10.4290 665.49 608.23 25.67
5433 10.4300 542.71 491.60 23.24
5434 10.4310 459.83 409.55 21.49
5435 10.4320 420.33 350.07 20.46
5436 10.4330 328.69 305.46 18.11
5437 10.4340 303.32 270.85 17.30
5438 10.4350 255.99 243.24 16.00
5439 10.4360 212.55 220.85 14.58
5440 10.4370 195.07 202.34 13.92
5441 10.4380 191.48 186.92 13.78
5442 10.4390 164.61 173.90 12.78
5443 10.4400 149.90 162.85 12.32
5444 10.4410 132.14 153.37 11.60
5445 10.4420 129.60 145.18 11.42
5446 10.4430 126.76 138.07 11.22
5447 10.4440 119.88 131.84 10.86
5448 10.4450 97.06 126.37 9.83
5449 10.4460 108.18 121.54 10.38
5450 10.4470 113.31 117.24 10.58
5451 10.4480 110.56 113.40 10.47
5452 10.4490 105.63 109.97 10.30
5453 10.4500 100.73 106.88 10.10
5454 10.4510 95.82 104.09 9.84
5455 10.4520 87.64 101.57 9.30
5456 10.4530 90.75 99.28 9.44
5457 10.4540 90.89 97.19 9.40
5458 10.4550 103.36 95.28 10.10
5459 10.4560 70.39 93.53 8.32
5460 10.4570 72.53 91.92 8.48
5461 10.4580 83.29 90.44 9.13
5462 10.4590 89.07 89.08 9.46
5463 10.4600 78.76 87.82 8.95
5464 10.4610 88.50 86.65 9.48
5465 10.4620 80.97 85.56 9.04
5466 10.4630 74.67 84.55 8.58
5467 10.4640 69.18 83.61 8.30
5468 10.4650 73.27 82.73 8.54
5469 10.4660 64.12 81.91 8.06
5470 10.4670 55.92 81.14 7.48
5471 10.4680 59.73 80.42 7.72
5472 10.4690 77.97 79.75 8.82
5473 10.4700 92.08 79.11 9.67
5474 10.4710 67.55 78.51 8.28
5475 10.4720 82.20 77.95 9.05
5476 10.4730 80.92 77.41 8.96
5477 10.4740 68.63 76.91 8.27
5478 10.4750 67.90 76.44 8.19
5479 10.4760 59.57 75.99 7.73
5480 10.4770 66.50 75.56 8.09
5481 10.4780 68.90 75.15 8.23
5482 10.4790 68.59 74.77 8.25
5483 10.4800 77.61 74.40 8.83
5484 10.4810 57.05 74.05 7.60
5485 10.4820 65.44 73.72 8.12
5486 10.4830 63.68 73.41 7.99
5487 10.4840 73.32 73.10 8.53
5488 10.4850 83.24 72.82 9.11
5489 10.4860 67.23 72.54 8.21
5490 10.4870 74.72 72.28 8.60
5491 10.4880 65.69 72.03 8.11
5492 10.4890 59.67 71.79 7.73
5493 10.4900 46.40 71.56 6.92
5494 10.4910 71.74 71.33 8.56
5495 10.4920 58.00 71.12 7.66
5496 10.4930 74.06 70.92 8.58
5497 10.4940 58.84 70.72 7.65
5498 10.4950 56.22 70.53 7.50
5499 10.4960 56.64 70.35 7.51
5500 10.4970 67.06 70.18 8.18
5501 10.4980 64.60 70.01 8.04
5502 10.4990 73.51 69.85 8.59
5503 10.5000 63.15 69.69 8.02
5504 10.5010 56.10 69.54 7.55
5505 10.5020 61.22 69.39 7.80
5506 10.5030 54.54 69.25 7.36
5507 10.5040 58.28 69.12 7.55
5508 10.5050 64.42 68.99 7.98
5509 10.5060 75.99 68.86 8.72
5510 10.5070 54.68 68.74 7.39
5511 10.5080 67.49 68.62 8.22
5512 10.5090 62.16 68.50 7.93
5513 10.5100 68.90 68.39 8.37
5514 10.5110 66.19 68.29 8.19
5515 10.5120 81.13 68.18 9.00
5516 10.5130 67.93 68.08 8.19
5517 10.5140 75.46 67.98 8.64
5518 10.5150 55.83 67.88 7.47
5519 10.5160 57.28 67.79 7.61
5520 10.5170 58.92 67.70 7.72
5521 10.5180 67.98 67.61 8.26
5522 10.5190 73.89 67.53 8.60
5523 10.5200 59.00 67.44 7.74
5524 10.5210 67.95 67.36 8.27
5525 10.5220 53.47 67.29 7.34
5526 10.5230 67.00 67.21 8.17
5527 10.5240 70.63 67.13 8.36
5528 10.5250 66.55 67.06 8.18
5529 10.5260 68.39 66.99 8.26
5530 10.5270 70.83 66.92 8.37
5531 10.5280 68.06 66.85 8.19
5532 10.5290 46.68 66.79 6.80
5533 10.5300 64.72 66.72 8.06
5534 10.5310 62.85 66.66 7.99
5535 10.5320 69.03 66.60 8.33
5536 10.5330 56.02 66.54 7.50
5537 10.5340 67.76 66.48 8.22
5538 10.5350 56.59 66.43 7.52
5539 10.5360 69.65 66.37 8.36
5540 10.5370 65.36 66.32 8.07
5541 10.5380 74.46 66.26 8.61
5542 10.5390 69.41 66.21 8.34
5543 10.5400 61.28 66.16 7.88
5544 10.5410 71.51 66.11 8.55
5545 10.5420 58.23 66.06 7.68
5546 10.5430 66.89 66.01 8.17
5547 10.5440 70.89 65.96 8.37
5548 10.5450 65.54 65.92 8.07
5549 10.5460 60.30 65.87 7.77
5550 10.5470 74.64 65.83 8.61
5551 10.5480 56.50 65.79 7.49
5552 10.5490 58.85 65.74 7.67
5553 10.5500 78.60 65.70 8.92
5554 10.5510 61.89 65.66 7.95
5555 10.5520 71.62 65.62 8.43
5556 10.5530 73.09 65.58 8.46
5557 10.5540 52.23 65.54 7.17
5558 10.5550 68.62 65.50 8.23
5559 10.5560 67.11 65.47 8.21
5560 10.5570 57.78 65.43 7.60
5561 10.5580 53.39 65.39 7.32
5562 10.5590 64.39 65.36 8.07
5563 10.5600 73.74 65.32 8.66
5564 10.5610 64.56 65.29 8.12
5565 10.5620 72.47 65.25 8.54
5566 10.5630 64.18 65.22 8.02
5567 10.5640 66.36 65.19 8.12
5568 10.5650 58.61 65.16 7.67
5569 10.5660 67.87 65.12 8.27
5570 10.5670 73.17 65.09 8.55
5571 10.5680 61.04 65.06 7.80
5572 10.5690 60.14 65.03 7.75
5573 10.5700 45.43 65.00 6.80
5574 10.5710 53.24 64.97 7.41
5575 10.5720 66.10 64.94 8.13
5576 10.5730 62.56 64.92 7.88
5577 10.5740 76.29 64.89 8.67
5578 10.5750 56.75 64.86 7.55
5579 10.5760 72.04 64.83 8.45
5580 10.5770 57.97 64.80 7.56
5581 10.5780 63.28 64.78 7.90
5582 10.5790 76.69 64.75 8.77
5583 10.5800 70.23 64.73 8.41
5584 10.5810 55.83 64.70 7.57
5585 10.5820 58.03 64.68 7.64
5586 10.5830 62.43 64.65 7.92
5587 10.5840 72.92 64.63 8.51
5588 10.5850 62.50 64.60 7.90
5589 10.5860 67.97 64.58 8.29
5590 10.5870 52.21 64.55 7.21
5591 10.5880 57.25 64.53 7.58
5592 10.5890 51.08 64.51 7.18
5593 10.5900 58.67 64.48 7.73
5594 10.5910 68.81 64.46 8.39
5595 10.5920 73.56 64.44 8.61
5596 10.5930 72.73 64.42 8.49
5597 10.5940 61.13 64.40 7.78
5598 10.5950 76.83 64.37 8.77
5599 10.5960 54.08 64.35 7.40
5600 10.5970 73.65 64.33 8.57
5601 10.5980 66.07 64.31 8.13
5602 10.5990 64.59 64.29 8.04
5603 10.6000 68.88 64.27 8.32
5604 10.6010 56.68 64.25 7.57
5605 10.6020 56.22 64.23 7.49
5606 10.6030 57.86 64.21 7.58
5607 10.6040 63.86 64.19 7.95
5608 10.6050 67.87 64.17 8.26
5609 10.6060 54.61 64.15 7.42
5610 10.6070 57.89 64.13 7.63
5611 10.6080 56.09 64.11 7.49
5612 10.6090 66.01 64.10 8.13
5613 10.6100 66.69 64.08 8.22
5614 10.6110 62.91 64.06 8.03
5615 10.6120 65.41 64.04 8.10
5616 10.6130 62.22 64.02 7.91
5617 10.6140 47.37 64.01 6.88
5618 10.6150 55.78 63.99 7.50
5619 10.6160 71.09 63.97 8.49
5620 10.6170 52.40 63.95 7.26
5621 10.6180 68.26 63.94 8.23
5622 10.6190 47.22 63.92 6.90
5623 10.6200 68.54 63.90 8.35
5624 10.6210 69.28 63.89 8.41
5625 10.6220 70.81 63.87 8.43
5626 10.6230 55.43 63.85 7.42
5627 10.6240 64.59 63.84 7.98
5628 10.6250 59.67 63.82 7.68
5629 10.6260 68.19 63.80 8.23
5630 10.6270 58.59 63.79 7.59
5631 10.6280 53.25 63.77 7.27
5632 10.6290 61.00 63.76 7.81
5633 10.6300 58.48 63.74 7.73
5634 10.6310 76.55 63.73 8.87
5635 10.6320 76.16 63.71 8.76
5636 10.6330 56.37 63.70 7.51
5637 10.6340 60.48 63.68 7.74
5638 10.6350 55.84 63.67 7.48
5639 10.6360 69.83 63.65 8.36
5640 10.6370 60.19 63.64 7.77
5641 10.6380 56.51 63.38 7.52
5642 10.6390 60.54 63.37 7.84
5643 10.6400 51.32 63.10 7.26
5644 10.6410 66.89 62.85 8.27
5645 10.6420 69.37 62.84 8.34
5646 10.6430 59.47 62.83 7.69
5647 10.6440 66.28 62.83 8.09
5648 10.6450 75.55 62.82 8.68
5649 10.6460 67.18 62.81 8.22
5650 10.6470 52.27 62.81 7.21
5651 10.6480 60.21 62.80 7.74
5652 10.6490 58.42 62.79 7.64
5653 10.6500 66.88 62.79 8.18
5654 10.6510 80.16 62.78 9.01
5655 10.6520 66.79 62.78 8.11
5656 10.6530 61.73 62.77 7.82
5657 10.6540 53.92 62.76 7.31
5658 10.6550 52.85 62.76 7.29
5659 10.6560 54.13 62.75 7.39
5660 10.6570 69.19 62.75 8.33
5661 10.6580 53.57 62.74 7.31
5662 10.6590 45.87 62.74 6.82
5663 10.6600 51.13 62.74 7.21
5664 10.6610 64.21 62.73 8.08
5665 10.6620 59.07 62.73 7.72
5666 10.6630 60.76 62.73 7.81
5667 10.6640 70.51 62.73 8.36
5668 10.6650 55.36 62.73 7.47
5669 10.6660 61.33 62.74 7.85
5670 10.6670 62.61 62.74 7.90
5671 10.6680 63.84 62.75 7.98
5672 10.6690 51.26 62.77 7.17
5673 10.6700 57.48 62.79 7.67
5674 10.6710 65.97 62.82 8.23
5675 10.6720 62.58 62.86 7.94
5676 10.6730 71.30 62.93 8.41
5677 10.6740 65.91 63.03 8.06
5678 10.6750 62.78 63.18 7.89
5679 10.6760 74.66 63.38 8.61
5680 10.6770 71.37 63.65 8.39
5681 10.6780 58.71 63.96 7.65
5682 10.6790 78.47 64.25 8.90
5683 10.6800 62.38 64.39 7.97
5684 10.6810 67.76 64.30 8.32
5685 10.6820 70.99 64.03 8.47
5686 10.6830 47.40 63.70 6.89
5687 10.6840 66.63 63.40 8.13
5688 10.6850 69.81 63.16 8.31
5689 10.6860 68.39 62.98 8.29
5690 10.6870 63.05 62.85 7.95
5691 10.6880 64.56 62.76 8.03
5692 10.6890 59.97 62.69 7.77
5693 10.6900 67.51 62.65 8.29
5694 10.6910 72.81 62.61 8.64
5695 10.6920 79.10 62.58 8.89
5696 10.6930 65.61 62.55 8.09
5697 10.6940 64.38 62.53 7.97
5698 10.6950 79.54 62.51 8.89
5699 10.6960 68.23 62.49 8.30
5700 10.6970 69.13 62.48 8.32
5701 10.6980 59.65 62.46 7.70
5702 10.6990 64.34 62.45 8.03
5703 10.7000 72.81 62.44 8.57
5704 10.7010 80.21 62.42 8.98
5705 10.7020 68.29 62.41 8.26
5706 10.7030 67.66 62.40 8.19
5707 10.7040 58.19 62.39 7.61
5708 10.7050 52.31 62.38 7.26
5709 10.7060 69.87 62.37 8.38
5710 10.7070 77.20 62.36 8.81
5711 10.7080 61.49 62.35 7.79
5712 10.7090 62.54 62.34 7.91
5713 10.7100 77.76 62.33 8.88
5714 10.7110 61.40 62.33 7.92
5715 10.7120 50.63 62.32 7.18
5716 10.7130 66.75 62.31 8.16
5717 10.7140 59.37 62.30 7.69
5718 10.7150 63.80 62.29 8.02
5719 10.7160 67.29 62.28 8.19
5720 10.7170 66.63 62.27 8.13
5721 10.7180 70.51 62.27 8.36
5722 10.7190 64.26 62.26 8.01
5723 10.7200 61.61 62.25 7.91
5724 10.7210 46.34 62.24 6.89
5725 10.7220 60.33 62.23 7.75
5726 10.7230 70.02 62.23 8.32
5727 10.7240 58.53 62.22 7.60
5728 10.7250 57.42 62.21 7.54
5729 10.7260 63.39 62.20 7.94
5730 10.7270 71.63 62.20 8.44
5731 10.7280 56.63 62.19 7.48
5732 10.7290 68.41 62.18 8.28
5733 10.7300 65.88 62.17 8.19
5734 10.7310 69.14 62.17 8.40
5735 10.7320 67.39 62.16 8.24
5736 10.7330 68.52 62.15 8.23
5737 10.7340 63.05 62.14 7.90
5738 10.7350 59.59 62.13 7.70
5739 10.7360 69.10 62.13 8.34
5740 10.7370 66.51 62.12 8.16
5741 10.7380 74.13 62.11 8.62
5742 10.7390 71.73 62.10 8.48
5743 10.7400 73.92 62.10 8.68
5744 10.7410 76.67 62.09 8.83
5745 10.7420 60.69 62.08 7.82
5746 10.7430 63.76 62.08 7.94
5747 10.7440 66.46 62.07 8.11
5748 10.7450 79.87 62.06 8.94
5749 10.7460 65.37 62.05 8.11
5750 10.7470 68.33 62.05 8.23
5751 10.7480 68.43 62.04 8.21
5752 10.7490 66.95 62.03 8.16
5753 10.7500 60.90 62.02 7.81
5754 10.7510 73.83 62.02 8.61
5755 10.7520 58.94 62.01 7.66
5756 10.7530 73.88 62.00 8.56
5757 10.7540 67.14 61.99 8.16
5758 10.7550 59.18 61.99 7.72
5759 10.7560 59.41 61.98 7.74
5760 10.7570 63.91 61.97 7.95
5761 10.7580 72.89 61.97 8.52
5762 10.7590 60.97 61.96 7.79
5763 10.7600 69.68 61.95 8.41
5764 10.7610 60.51 61.94 7.85
5765 10.7620 56.54 61.94 7.55
5766 10.7630 63.47 61.93 7.97
5767 10.7640 79.43 61.92 8.86
5768 10.7650 63.28 61.91 7.93
5769 10.7660 75.79 61.91 8.73
5770 10.7670 55.92 61.90 7.45
5771 10.7680 72.22 61.89 8.44
5772 10.7690 71.21 61.89 8.42
5773 10.7700 73.00 61.88 8.61
5774 10.7710 67.71 61.87 8.30
5775 10.7720 63.37 61.86 7.97
5776 10.7730 59.02 61.86 7.62
5777 10.7740 68.35 61.85 8.19
5778 10.7750 49.60 61.84 7.00
5779 10.7760 84.49 61.84 9.13
5780 10.7770 83.59 61.83 9.10
5781 10.7780 60.97 61.82 7.78
5782 10.7790 73.94 61.81 8.61
5783 10.7800 74.09 61.81 8.64
5784 10.7810 68.17 61.80 8.32
5785 10.7820 73.53 61.79 8.59
5786 10.7830 71.82 61.79 8.42
5787 10.7840 70.56 61.78 8.32
5788 10.7850 70.09 61.77 8.37
5789 10.7860 56.69 61.76 7.55
5790 10.7870 58.70 61.76 7.66
5791 10.7880 64.95 61.75 8.06
5792 10.7890 60.64 61.74 7.78
5793 10.7900 69.77 61.74 8.39
5794 10.7910 69.18 61.73 8.39
5795 10.7920 72.62 61.72 8.50
5796 10.7930 68.63 61.71 8.24
5797 10.7940 64.83 61.71 7.99
5798 10.7950 72.13 61.70 8.45
5799 10.7960 63.52 61.69 7.99
5800 10.7970 63.18 61.69 7.89
5801 10.7980 66.72 61.68 8.10
5802 10.7990 63.88 61.67 7.93
5803 10.8000 75.38 61.67 8.67
5804 10.8010 60.22 61.66 7.77
5805 10.8020 78.08 61.65 8.84
5806 10.8030 73.45 61.64 8.57
5807 10.8040 67.38 61.64 8.20
5808 10.8050 66.05 61.63 8.09
5809 10.8060 63.84 61.62 7.98
5810 10.8070 62.96 61.62 7.92
5811 10.8080 59.05 61.61 7.65
5812 10.8090 59.55 61.60 7.69
5813 10.8100 60.95 61.60 7.87
5814 10.8110 68.21 61.59 8.34
5815 10.8120 66.63 61.58 8.18
5816 10.8130 63.46 61.58 7.94
5817 10.8140 70.02 61.57 8.30
5818 10.8150 50.64 61.56 7.10
5819 10.8160 57.86 61.55 7.60
5820 10.8170 76.98 61.55 8.73
5821 10.8180 77.43 61.54 8.77
5822 10.8190 64.87 61.53 8.06
5823 10.8200 67.77 61.53 8.27
5824 10.8210 56.90 61.52 7.60
5825 10.8220 63.50 61.51 7.94
5826 10.8230 63.85 61.51 7.94
5827 10.8240 51.41 61.50 7.10
5828 10.8250 63.88 61.49 7.92
5829 10.8260 67.74 61.49 8.26
5830 10.8270 61.88 61.48 7.84
5831 10.8280 62.49 61.47 7.89
5832 10.8290 77.05 61.46 8.79
5833 10.8300 59.16 61.46 7.74
5834 10.8310 56.91 61.45 7.60
5835 10.8320 50.81 61.44 7.10
5836 10.8330 61.46 61.44 7.81
5837 10.8340 50.04 61.43 7.05
5838 10.8350 67.42 61.42 8.18
5839 10.8360 71.02 61.42 8.46
5840 10.8370 68.69 61.49 8.28
5841 10.8380 64.95 61.48 8.03
5842 10.8390 63.99 61.47 8.01
5843 10.8400 59.90 61.47 7.78
5844 10.8410 64.46 61.46 8.09
5845 10.8420 67.67 61.46 8.24
5846 10.8430 69.50 61.45 8.30
5847 10.8440 64.06 61.44 7.93
5848 10.8450 51.50 61.44 7.14
5849 10.8460 85.39 61.43 9.24
5850 10.8470 57.78 61.43 7.55
5851 10.8480 65.13 61.42 8.00
5852 10.8490 58.60 61.41 7.63
5853 10.8500 57.88 61.41 7.64
5854 10.8510 63.46 61.40 7.98
5855 10.8520 46.92 61.40 6.87
5856 10.8530 68.32 61.39 8.24
5857 10.8540 73.90 61.38 8.59
5858 10.8550 58.50 61.38 7.63
5859 10.8560 65.44 61.37 8.07
5860 10.8570 53.44 61.37 7.28
5861 10.8580 70.55 61.36 8.39
5862 10.8590 50.26 61.35 7.09
5863 10.8600 63.32 61.35 8.00
5864 10.8610 55.29 61.34 7.51
5865 10.8620 63.08 61.34 7.97
5866 10.8630 56.79 61.33 7.51
5867 10.8640 60.01 61.33 7.70
5868 10.8650 57.34 61.32 7.56
5869 10.8660 52.39 61.31 7.27
5870 10.8670 62.74 61.31 7.88
5871 10.8680 63.63 61.30 7.94
5872 10.8690 49.75 61.30 7.05
5873 10.8700 61.73 61.29 7.91
5874 10.8710 58.21 61.29 7.68
5875 10.8720 63.47 61.28 7.93
5876 10.8730 53.10 61.27 7.24
5877 10.8740 50.87 61.27 7.07
5878 10.8750 55.87 61.26 7.42
5879 10.8760 56.87 61.26 7.54
5880 10.8770 63.09 61.25 7.92
5881 10.8780 66.73 61.25 8.18
5882 10.8790 66.80 61.24 8.16
5883 10.8800 63.88 61.24 8.04
5884 10.8810 62.56 61.23 7.96
5885 10.8820 71.19 61.23 8.45
5886 10.8830 59.54 61.22 7.67
5887 10.8840 65.82 61.22 8.08
5888 10.8850 57.50 61.21 7.58
5889 10.8860 60.89 61.20 7.85
5890 10.8870 55.56 61.20 7.44
5891 10.8880 67.50 61.19 8.21
5892 10.8890 53.63 61.19 7.31
5893 10.8900 55.64 61.18 7.50
5894 10.8910 58.88 61.18 7.71
5895 10.8920 51.78 61.17 7.21
5896 10.8930 63.17 61.17 7.93
5897 10.8940 52.12 61.16 7.20
5898 10.8950 54.22 61.16 7.36
5899 10.8960 54.76 61.15 7.41
5900 10.8970 54.68 61.15 7.33
5901 10.8980 64.01 61.14 7.94
5902 10.8990 66.38 61.14 8.10
5903 10.9000 60.28 61.13 7.81
5904 10.9010 62.87 61.13 7.99
5905 10.9020 64.05 61.13 8.02
5906 10.9030 58.60 61.12 7.64
5907 10.9040 57.69 61.12 7.56
5908 10.9050 61.65 61.11 7.84
5909 10.9060 61.64 61.11 7.86
5910 10.9070 58.12 61.10 7.59
5911 10.9080 53.46 61.10 7.31
5912 10.9090 67.22 61.09 8.20
5913 10.9100 53.83 61.09 7.41
5914 10.9110 67.70 61.08 8.34
5915 10.9120 54.84 61.08 7.42
5916 10.9130 72.53 61.08 8.50
5917 10.9140 63.10 61.07 7.91
5918 10.9150 41.20 61.07 6.41
5919 10.9160 70.09 61.06 8.36
5920 10.9170 69.10 61.06 8.32
5921 10.9180 57.81 61.05 7.60
5922 10.9190 51.78 61.05 7.21
5923 10.9200 57.75 61.05 7.65
5924 10.9210 68.10 61.04 8.30
5925 10.9220 65.64 61.04 8.06
5926 10.9230 73.13 61.04 8.50
5927 10.9240 55.93 61.03 7.43
5928 10.9250 57.20 61.03 7.55
5929 10.9260 68.34 61.02 8.29
5930 10.9270 62.36 61.02 7.88
5931 10.9280 58.61 61.02 7.64
5932 10.9290 68.34 61.01 8.26
5933 10.9300 67.57 61.01 8.29
5934 10.9310 62.16 61.01 7.94
5935 10.9320 62.06 61.01 7.87
5936 10.9330 59.47 61.00 7.70
5937 10.9340 60.90 61.00 7.83
5938 10.9350 80.01 61.00 8.96
5939 10.9360 67.13 60.99 8.22
5940 10.9370 58.22 60.99 7.65
5941 10.9380 73.18 60.99 8.56
5942 10.9390 55.14 60.99 7.41
5943 10.9400 43.37 60.98 6.63
5944 10.9410 70.98 60.98 8.49
5945 10.9420 51.79 60.98 7.25
5946 10.9430 61.77 60.98 7.82
5947 10.9440 68.86 60.97 8.28
5948 10.9450 72.30 60.97 8.46
5949 10.9460 66.60 60.97 8.13
5950 10.9470 58.62 60.97 7.59
5951 10.9480 68.53 60.97 8.24
5952 10.9490 54.99 60.97 7.38
5953 10.9500 45.83 60.96 6.84
5954 10.9510 49.61 60.96 7.11
5955 10.9520 64.60 60.96 8.08
5956 10.9530 62.43 60.96 7.89
5957 10.9540 47.61 60.96 6.88
5958 10.9550 61.03 60.96 7.81
5959 10.9560 60.23 60.96 7.76
5960 10.9570 64.93 60.96 8.05
5961 10.9580 66.05 60.96 8.14
5962 10.9590 73.80 60.96 8.60
5963 10.9600 56.57 60.96 7.60
5964 10.9610 68.19 60.96 8.34
5965 10.9620 49.56 60.96 7.10
5966 10.9630 58.36 60.96 7.59
5967 10.9640 64.91 60.96 8.04
5968 10.9650 62.49 60.96 7.90
5969 10.9660 54.97 60.97 7.44
5970 10.9670 62.44 60.97 7.86
5971 10.9680 55.38 60.97 7.42
5972 10.9690 58.51 60.97 7.63
5973 10.9700 60.33 60.97 7.80
5974 10.9710 66.15 60.98 8.17
5975 10.9720 78.59 60.98 8.86
5976 10.9730 57.93 60.98 7.56
5977 10.9740 58.04 60.99 7.59
5978 10.9750 64.17 60.99 7.96
5979 10.9760 54.78 61.00 7.41
5980 10.9770 61.15 61.00 7.80
5981 10.9780 47.77 61.01 6.92
5982 10.9790 71.53 61.01 8.43
5983 10.9800 63.49 61.02 8.04
5984 10.9810 65.33 61.02 8.15
5985 10.9820 58.20 61.03 7.68
5986 10.9830 62.57 61.04 7.89
5987 10.9840 60.97 61.05 7.79
5988 10.9850 70.90 61.05 8.41
5989 10.9860 65.48 61.06 8.11
5990 10.9870 60.24 61.07 7.72
5991 10.9880 59.05 61.08 7.65
5992 10.9890 65.85 61.09 8.12
5993 10.9900 68.27 61.10 8.33
5994 10.9910 63.71 61.12 8.06
5995 10.9920 69.34 61.13 8.36
5996 10.9930 72.53 61.14 8.49
5997 10.9940 58.43 61.16 7.57
5998 10.9950 75.69 61.17 8.63
5999 10.9960 73.18 61.19 8.54
6000 10.9970 60.50 61.21 7.73
6001 10.9980 68.39 61.22 8.25
6002 10.9990 64.48 61.24 8.02
6003 11.0000 87.54 61.26 9.43
6004 11.0010 47.11 61.28 6.95
6005 11.0020 52.09 61.31 7.22
6006 11.0030 60.48 61.33 7.73
6007 11.0040 71.78 61.36 8.42
6008 11.0050 57.30 61.38 7.57
6009 11.0060 72.11 61.41 8.51
6010 11.0070 58.86 61.44 7.65
6011 11.0080 62.58 61.48 7.91
6012 11.0090 64.09 61.51 8.03
6013 11.0100 73.63 61.55 8.65
6014 11.0110 63.30 61.59 7.98
6015 11.0120 52.77 61.63 7.31
6016 11.0130 67.94 61.67 8.19
6017 11.0140 57.15 61.72 7.54
6018 11.0150 63.90 61.77 7.99
6019 11.0160 62.34 61.82 7.89
6020 11.0170 69.82 61.88 8.34
6021 11.0180 67.14 61.94 8.16
6022 11.0190 76.57 62.01 8.70
6023 11.0200 61.83 62.08 7.87
6024 11.0210 64.07 62.15 8.05
6025 11.0220 72.85 62.23 8.50
6026 11.0230 73.17 62.32 8.50
6027 11.0240 57.63 62.41 7.54
6028 11.0250 56.70 62.51 7.50
6029 11.0260 66.07 62.62 8.12
6030 11.0270 61.75 62.73 7.81
6031 11.0280 73.69 62.86 8.53
6032 11.0290 68.73 63.00 8.28
6033 11.0300 65.15 63.14 8.11
6034 11.0310 54.83 63.30 7.46
6035 11.0320 72.28 63.48 8.51
6036 11.0330 63.22 63.67 7.93
6037 11.0340 66.90 63.88 8.11
6038 11.0350 69.17 64.11 8.28
6039 11.0360 56.46 64.36 7.48
6040 11.0370 65.20 64.64 8.07
6041 11.0380 69.07 64.95 8.28
6042 11.0390 62.89 65.29 7.90
6043 11.0400 56.08 65.67 7.54
6044 11.0410 59.43 66.10 7.78
6045 11.0420 65.47 66.58 8.09
6046 11.0430 90.35 67.12 9.39
6047 11.0440 72.87 67.73 8.44
6048 11.0450 61.35 68.42 7.83
6049 11.0460 74.35 69.21 8.58
6050 11.0470 81.43 70.13 8.96
6051 11.0480 65.03 71.18 8.03
6052 11.0490 72.06 72.41 8.46
6053 11.0500 63.97 73.86 8.05
6054 11.0510 80.57 75.57 8.98
6055 11.0520 90.11 77.62 9.46
6056 11.0530 89.56 80.10 9.44
6057 11.0540 68.40 83.15 8.21
6058 11.0550 108.63 86.97 10.36
6059 11.0560 97.49 91.89 9.83
6060 11.0570 122.84 98.45 11.06
6061 11.0580 99.62 107.49 9.95
6062 11.0590 124.87 120.28 11.11
6063 11.0600 143.70 138.60 12.02
6064 11.0610 168.61 164.54 13.07
6065 11.0620 191.32 200.21 13.81
6066 11.0630 251.01 246.87 15.67
6067 11.0640 289.19 303.16 16.85
6068 11.0650 352.01 361.24 18.66
6069 11.0660 433.08 403.43 20.75
6070 11.0670 422.57 409.03 20.23
6071 11.0680 401.43 374.79 19.96
6072 11.0690 312.40 318.73 17.55
6073 11.0700 263.89 260.89 16.20
6074 11.0710 218.88 211.34 14.82
6075 11.0720 184.17 172.83 13.51
6076 11.0730 156.61 144.51 12.45
6077 11.0740 142.97 124.39 11.84
6078 11.0750 118.22 110.33 10.83
6079 11.0760 99.31 100.43 9.90
6080 11.0770 82.12 93.31 9.01
6081 11.0780 94.14 88.01 9.66
6082 11.0790 85.68 83.93 9.23
6083 11.0800 74.12 80.69 8.66
6084 11.0810 74.58 78.06 8.69
6085 11.0820 76.78 75.90 8.77
6086 11.0830 63.19 74.09 7.93
6087 11.0840 84.10 72.57 9.12
6088 11.0850 74.86 71.28 8.61
6089 11.0860 83.08 70.16 9.10
6090 11.0870 58.64 69.21 7.64
6091 11.0880 52.01 68.37 7.17
6092 11.0890 61.14 67.64 7.85
6093 11.0900 71.07 67.00 8.47
6094 11.0910 52.88 66.43 7.31
6095 11.0920 50.83 65.93 7.12
6096 11.0930 69.30 65.48 8.26
6097 11.0940 55.47 65.07 7.38
6098 11.0950 43.15 64.71 6.54
6099 11.0960 80.19 64.38 8.94
6100 11.0970 60.00 64.08 7.71
6101 11.0980 59.78 63.81 7.70
6102 11.0990 59.58 63.56 7.68
6103 11.1000 52.53 63.34 7.30
6104 11.1010 57.27 63.13 7.63
6105 11.1020 61.11 62.94 7.82
6106 11.1030 54.97 62.76 7.38
6107 11.1040 62.59 62.60 7.87
6108 11.1050 53.33 62.45 7.31
6109 11.1060 58.65 62.31 7.65
6110 11.1070 52.76 62.18 7.25
6111 11.1080 57.66 62.06 7.55
6112 11.1090 52.68 61.95 7.25
6113 11.1100 53.74 61.84 7.35
6114 11.1110 68.48 61.74 8.34
6115 11.1120 76.05 61.65 8.73
6116 11.1130 69.59 61.56 8.32
6117 11.1140 49.77 61.48 7.03
6118 11.1150 54.71 61.40 7.36
6119 11.1160 65.90 61.33 8.11
6120 11.1170 63.37 61.26 7.93
6121 11.1180 57.31 61.19 7.54
6122 11.1190 72.53 61.13 8.49
6123 11.1200 65.80 61.07 8.15
6124 11.1210 53.70 61.01 7.40
6125 11.1220 56.79 60.96 7.54
6126 11.1230 56.13 60.91 7.43
6127 11.1240 64.55 60.86 8.00
6128 11.1250 59.69 60.81 7.71
6129 11.1260 64.61 60.77 8.04
6130 11.1270 58.70 60.73 7.65
6131 11.1280 50.74 60.68 7.13
6132 11.1290 60.25 60.65 7.76
6133 11.1300 68.52 60.61 8.35
6134 11.1310 57.45 60.57 7.64
6135 11.1320 56.04 60.54 7.54
6136 11.1330 60.55 60.50 7.77
6137 11.1340 56.76 60.47 7.53
6138 11.1350 64.90 60.44 8.04
6139 11.1360 78.21 60.41 8.86
6140 11.1370 58.93 60.38 7.66
6141 11.1380 61.03 60.35 7.81
6142 11.1390 54.90 60.33 7.43
6143 11.1400 59.13 60.30 7.75
6144 11.1410 58.37 60.28 7.71
6145 11.1420 54.26 60.25 7.37
6146 11.1430 47.50 60.23 6.87
6147 11.1440 61.43 60.20 7.77
6148 11.1450 52.53 60.18 7.24
6149 11.1460 61.23 60.16 7.80
6150 11.1470 55.57 60.14 7.41
6151 11.1480 41.76 60.12 6.45
6152 11.1490 62.04 60.10 7.91
6153 11.1500 65.26 60.08 8.12
6154 11.1510 66.46 60.06 8.19
6155 11.1520 73.98 60.04 8.61
6156 11.1530 64.43 60.02 8.02
6157 11.1540 63.57 60.01 7.96
6158 11.1550 41.50 59.99 6.47
6159 11.1560 61.68 59.97 7.85
6160 11.1570 53.14 59.96 7.31
6161 11.1580 67.04 59.94 8.16
6162 11.1590 58.81 59.92 7.66
6163 11.1600 49.05 59.91 7.05
6164 11.1610 47.00 59.89 6.92
6165 11.1620 58.34 59.88 7.66
6166 11.1630 51.10 59.86 7.12
6167 11.1640 48.90 59.85 6.97
6168 11.1650 61.37 59.84 7.84
6169 11.1660 60.88 59.82 7.82
6170 11.1670 61.19 59.81 7.78
6171 11.1680 63.62 59.80 7.93
6172 11.1690 62.72 59.78 7.91
6173 11.1700 59.61 59.77 7.76
6174 11.1710 59.50 59.76 7.79
6175 11.1720 63.94 59.75 8.03
6176 11.1730 51.68 59.73 7.18
6177 11.1740 66.18 59.72 8.12
6178 11.1750 63.43 59.71 7.91
6179 11.1760 68.04 59.70 8.26
6180 11.1770 66.06 59.69 8.10
6181 11.1780 65.71 59.68 8.12
6182 11.1790 58.54 59.66 7.67
6183 11.1800 63.53 59.65 8.06
6184 11.1810 51.68 59.64 7.27
6185 11.1820 53.70 59.63 7.35
6186 11.1830 63.79 59.62 7.94
6187 11.1840 54.94 59.61 7.38
6188 11.1850 58.28 59.60 7.64
6189 11.1860 68.93 59.59 8.30
6190 11.1870 64.46 59.58 8.02
6191 11.1880 54.35 59.57 7.39
6192 11.1890 56.01 59.56 7.49
6193 11.1900 55.37 59.55 7.48
6194 11.1910 50.78 59.54 7.16
6195 11.1920 62.66 59.53 7.89
6196 11.1930 59.21 59.52 7.63
6197 11.1940 66.97 59.52 8.14
6198 11.1950 52.61 59.51 7.25
6199 11.1960 68.40 59.50 8.28
6200 11.1970 54.40 59.49 7.36
6201 11.1980 37.95 59.48 6.13
6202 11.1990 68.51 59.47 8.25
6203 11.2000 63.70 59.46 8.01
6204 11.2010 62.00 59.45 7.91
6205 11.2020 60.65 59.45 7.80
6206 11.2030 56.74 59.44 7.52
6207 11.2040 67.96 59.43 8.22
6208 11.2050 67.68 59.42 8.24
6209 11.2060 46.89 59.41 6.88
6210 11.2070 57.36 59.40 7.56
6211 11.2080 62.97 59.40 7.92
6212 11.2090 72.07 59.39 8.45
6213 11.2100 57.43 59.38 7.62
6214 11.2110 60.81 59.37 7.83
6215 11.2120 58.54 59.36 7.66
6216 11.2130 64.45 59.36 8.01
6217 11.2140 53.61 59.35 7.29
6218 11.2150 65.97 59.34 8.10
6219 11.2160 68.64 59.33 8.24
6220 11.2170 60.38 59.33 7.73
6221 11.2180 56.18 59.32 7.45
6222 11.2190 66.45 59.31 8.12
6223 11.2200 52.45 59.30 7.32
6224 11.2210 57.62 59.30 7.65
6225 11.2220 57.18 59.29 7.60
6226 11.2230 59.08 59.28 7.65
6227 11.2240 58.50 59.28 7.60
6228 11.2250 56.32 59.27 7.45
6229 11.2260 62.11 59.26 7.87
6230 11.2270 55.63 59.25 7.42
6231 11.2280 55.42 59.25 7.42
6232 11.2290 56.79 59.24 7.54
6233 11.2300 59.71 59.23 7.78
6234 11.2310 59.12 59.23 7.77
6235 11.2320 68.94 59.22 8.31
6236 11.2330 75.58 59.21 8.65
6237 11.2340 56.15 59.21 7.45
6238 11.2350 61.39 59.20 7.81
6239 11.2360 60.90 59.19 7.82
6240 11.2370 61.28 59.19 7.80
6241 11.2380 75.44 59.18 8.69
6242 11.2390 77.04 59.17 8.75
6243 11.2400 58.10 59.17 7.68
6244 11.2410 59.75 59.16 7.77
6245 11.2420 62.78 59.15 7.93
6246 11.2430 53.10 59.15 7.25
6247 11.2440 68.87 59.14 8.25
6248 11.2450 61.49 59.13 7.85
6249 11.2460 63.32 59.13 7.99
6250 11.2470 59.34 59.12 7.67
6251 11.2480 61.69 59.11 7.82
6252 11.2490 71.13 59.11 8.39
6253 11.2500 67.98 59.10 8.29
6254 11.2510 73.75 59.10 8.63
6255 11.2520 62.90 59.09 7.93
6256 11.2530 60.95 59.08 7.81
6257 11.2540 51.48 59.08 7.14
6258 11.2550 61.51 59.07 7.84
6259 11.2560 59.52 59.06 7.71
6260 11.2570 79.03 59.06 8.83
6261 11.2580 58.30 59.05 7.60
6262 11.2590 69.47 59.05 8.32
6263 11.2600 64.44 59.04 8.09
6264 11.2610 57.13 59.03 7.64
6265 11.2620 71.82 59.03 8.51
6266 11.2630 60.91 59.02 7.80
6267 11.2640 65.15 59.02 8.01
6268 11.2650 62.11 59.01 7.83
6269 11.2660 65.67 59.00 8.12
6270 11.2670 62.31 59.00 7.87
6271 11.2680 67.34 58.99 8.20
6272 11.2690 55.89 58.99 7.47
6273 11.2700 58.20 58.98 7.69
6274 11.2710 75.27 58.97 8.75
6275 11.2720 62.30 58.97 7.89
6276 11.2730 68.30 58.96 8.19
6277 11.2740 70.29 58.96 8.30
6278 11.2750 61.18 58.95 7.80
6279 11.2760 60.41 58.95 7.78
6280 11.2770 53.50 58.94 7.30
6281 11.2780 60.40 58.93 7.78
6282 11.2790 64.75 58.93 8.05
6283 11.2800 56.27 58.92 7.57
6284 11.2810 60.55 58.92 7.86
6285 11.2820 60.54 58.91 7.79
6286 11.2830 62.18 58.91 7.87
6287 11.2840 53.70 58.90 7.33
6288 11.2850 58.07 58.89 7.60
6289 11.2860 74.80 58.89 8.67
6290 11.2870 69.19 58.88 8.31
6291 11.2880 76.47 58.88 8.72
6292 11.2890 63.19 58.87 7.95
6293 11.2900 68.42 58.87 8.31
6294 11.2910 63.04 58.86 7.99
6295 11.2920 62.69 58.86 7.92
6296 11.2930 76.31 58.85 8.68
6297 11.2940 67.37 58.84 8.17
6298 11.2950 63.89 58.84 7.98
6299 11.2960 66.30 58.83 8.15
6300 11.2970 68.14 58.77 8.22
6301 11.2980 65.50 58.75 8.08
6302 11.2990 69.96 58.74 8.35
6303 11.3000 62.20 58.74 7.93
6304 11.3010 73.99 58.73 8.69
6305 11.3020 62.06 58.73 7.92
6306 11.3030 74.52 58.72 8.64
6307 11.3040 58.21 58.72 7.64
6308 11.3050 75.70 58.71 8.71
6309 11.3060 72.79 58.71 8.56
6310 11.3070 77.66 58.70 8.79
6311 11.3080 70.70 58.70 8.37
6312 11.3090 75.22 58.69 8.69
6313 11.3100 70.15 58.69 8.43
6314 11.3110 51.68 58.69 7.25
6315 11.3120 71.16 58.68 8.44
6316 11.3130 66.90 58.68 8.15
6317 11.3140 63.62 58.67 7.93
6318 11.3150 58.74 58.67 7.64
6319 11.3160 55.07 58.66 7.44
6320 11.3170 47.16 58.66 6.85
6321 11.3180 62.46 58.65 7.87
6322 11.3190 57.90 58.65 7.63
6323 11.3200 65.80 58.64 8.14
6324 11.3210 72.55 58.64 8.59
6325 11.3220 65.19 58.63 8.07
6326 11.3230 66.79 58.63 8.14
6327 11.3240 64.48 58.62 7.97
6328 11.3250 66.60 58.62 8.16
6329 11.3260 69.37 58.61 8.37
6330 11.3270 76.20 58.61 8.76
6331 11.3280 95.92 58.61 9.77
6332 11.3290 67.16 58.60 8.24
6333 11.3300 66.55 58.60 8.22
6334 11.3310 67.58 58.59 8.30
6335 11.3320 61.34 58.59 7.87
6336 11.3330 67.01 58.58 8.15
6337 11.3340 67.25 58.58 8.19
6338 11.3350 69.13 58.57 8.33
6339 11.3360 44.72 58.57 6.72
6340 11.3370 68.91 58.56 8.31
6341 11.3380 58.08 58.56 7.62
6342 11.3390 77.45 58.55 8.77
6343 11.3400 75.16 58.55 8.72
6344 11.3410 55.73 58.55 7.55
6345 11.3420 69.17 58.54 8.32
6346 11.3430 61.88 58.54 7.87
6347 11.3440 51.96 58.53 7.23
6348 11.3450 71.48 58.53 8.45
6349 11.3460 71.91 58.52 8.50
6350 11.3470 65.83 58.52 8.11
6351 11.3480 68.48 58.51 8.24
6352 11.3490 62.58 58.51 7.91
6353 11.3500 66.06 58.50 8.21
6354 11.3510 61.65 58.50 7.99
6355 11.3520 65.12 58.49 8.14
6356 11.3530 65.09 58.49 8.07
6357 11.3540 80.32 58.49 8.98
6358 11.3550 62.93 58.48 7.95
6359 11.3560 52.78 58.48 7.31
6360 11.3570 58.98 58.47 7.65
6361 11.3580 61.42 58.47 7.83
6362 11.3590 73.23 58.46 8.56
6363 11.3600 69.40 58.46 8.42
6364 11.3610 70.31 58.45 8.45
6365 11.3620 70.85 58.45 8.44
6366 11.3630 52.82 58.44 7.27
6367 11.3640 65.14 58.44 8.00
6368 11.3650 56.07 58.44 7.47
6369 11.3660 67.39 58.43 8.21
6370 11.3670 70.95 58.43 8.42
6371 11.3680 59.57 58.42 7.71
6372 11.3690 71.63 58.42 8.45
6373 11.3700 67.96 58.41 8.32
6374 11.3710 66.21 58.41 8.21
6375 11.3720 67.80 58.40 8.25
6376 11.3730 66.66 58.40 8.13
6377 11.3740 72.00 58.39 8.46
6378 11.3750 70.59 58.39 8.42
6379 11.3760 67.06 58.39 8.21
6380 11.3770 49.89 58.38 7.07
6381 11.3780 62.56 58.38 7.95
6382 11.3790 73.34 58.37 8.61
6383 11.3800 66.35 58.37 8.21
6384 11.3810 63.83 58.36 8.07
6385 11.3820 71.87 58.36 8.49
6386 11.3830 57.89 58.35 7.61
6387 11.3840 53.92 58.35 7.34
6388 11.3850 65.87 58.35 8.13
6389 11.3860 44.20 58.34 6.69
6390 11.3870 67.70 58.34 8.22
6391 11.3880 65.54 58.33 8.07
6392 11.3890 64.21 58.33 8.01
6393 11.3900 78.62 58.32 8.89
6394 11.3910 76.96 58.32 8.86
6395 11.3920 50.55 58.31 7.14
6396 11.3930 56.95 58.31 7.57
6397 11.3940 75.43 58.31 8.69
6398 11.3950 69.60 58.30 8.33
6399 11.3960 71.00 58.30 8.42
6400 11.3970 68.01 58.29 8.20
6401 11.3980 59.31 58.29 7.67
6402 11.3990 52.07 58.28 7.23
6403 11.4000 63.48 58.28 8.03
6404 11.4010 46.02 58.28 6.89
6405 11.4020 56.88 58.27 7.60
6406 11.4030 54.86 58.27 7.41
6407 11.4040 54.75 58.26 7.38
6408 11.4050 68.93 58.26 8.31
6409 11.4060 60.13 58.25 7.75
6410 11.4070 63.45 58.25 7.98
6411 11.4080 61.56 58.24 7.83
6412 11.4090 61.66 58.24 7.85
6413 11.4100 59.36 58.24 7.78
6414 11.4110 61.82 58.23 7.95
6415 11.4120 65.07 58.23 8.04
6416 11.4130 65.73 58.22 8.07
6417 11.4140 69.16 58.22 8.25
6418 11.4150 54.01 58.21 7.37
6419 11.4160 58.15 58.21 7.63
6420 11.4170 56.45 58.21 7.52
6421 11.4180 52.45 58.20 7.23
6422 11.4190 61.37 58.20 7.86
6423 11.4200 72.58 58.19 8.57
6424 11.4210 56.77 58.19 7.59
6425 11.4220 54.56 58.18 7.40
6426 11.4230 54.90 58.18 7.41
6427 11.4240 62.63 58.18 7.85
6428 11.4250 66.06 58.17 8.16
6429 11.4260 65.47 58.17 8.12
6430 11.4270 58.53 58.16 7.67
6431 11.4280 60.51 58.16 7.75
6432 11.4290 76.83 58.15 8.78
6433 11.4300 63.41 58.15 8.02
6434 11.4310 54.45 58.15 7.48
6435 11.4320 61.49 58.14 7.83
6436 11.4330 68.57 58.14 8.29
6437 11.4340 65.90 58.13 8.08
6438 11.4350 63.49 58.13 7.99
6439 11.4360 63.15 58.12 7.95
6440 11.4370 62.22 58.12 7.87
6441 11.4380 66.45 58.12 8.11
6442 11.4390 71.28 58.11 8.47
6443 11.4400 55.61 58.11 7.49
6444 11.4410 55.53 58.10 7.47
6445 11.4420 68.15 58.10 8.27
6446 11.4430 47.33 58.09 6.89
6447 11.4440 53.76 58.09 7.30
6448 11.4450 61.38 58.09 7.81
6449 11.4460 61.95 58.08 7.89
6450 11.4470 69.20 58.08 8.31
6451 11.4480 49.58 58.07 6.99
6452 11.4490 53.77 58.07 7.31
6453 11.4500 66.01 58.07 8.17
6454 11.4510 54.87 58.06 7.51
6455 11.4520 65.29 58.06 8.08
6456 11.4530 55.48 58.05 7.42
6457 11.4540 61.76 58.05 7.82
6458 11.4550 65.23 58.04 8.07
6459 11.4560 79.21 58.04 8.91
6460 11.4570 60.09 58.04 7.72
6461 11.4580 50.41 58.03 7.11
6462 11.4590 62.00 58.03 7.88
6463 11.4600 57.76 58.02 7.63
6464 11.4610 73.41 58.02 8.62
6465 11.4620 65.90 58.02 8.13
6466 11.4630 68.18 58.01 8.24
6467 11.4640 60.75 58.01 7.74
6468 11.4650 68.85 58.00 8.29
6469 11.4660 58.29 58.00 7.67
6470 11.4670 73.17 57.99 8.55
6471 11.4680 63.14 57.99 7.92
6472 11.4690 69.55 57.99 8.32
6473 11.4700 64.37 57.98 8.07
6474 11.4710 51.01 57.98 7.18
6475 11.4720 73.07 57.97 8.52
6476 11.4730 59.35 57.97 7.69
6477 11.4740 63.07 57.97 7.87
6478 11.4750 63.31 57.96 7.99
6479 11.4760 72.71 57.96 8.55
6480 11.4770 54.11 57.95 7.37
6481 11.4780 75.35 57.95 8.65
6482 11.4790 64.20 57.95 8.02
6483 11.4800 66.15 57.94 8.18
6484 11.4810 83.10 57.94 9.17
6485 11.4820 67.42 57.93 8.21
6486 11.4830 72.17 57.93 8.49
6487 11.4840 62.95 57.92 7.90
6488 11.4850 60.91 57.92 7.82
6489 11.4860 66.47 57.92 8.14
6490 11.4870 48.09 57.91 6.93
6491 11.4880 60.74 57.91 7.73
6492 11.4890 54.89 57.90 7.41
6493 11.4900 58.17 57.90 7.65
6494 11.4910 55.72 57.90 7.57
6495 11.4920 59.20 57.89 7.68
6496 11.4930 51.44 57.89 7.16
6497 11.4940 59.15 57.88 7.62
6498 11.4950 59.64 57.88 7.72
6499 11.4960 62.94 57.88 7.90
6500 11.4970 70.93 57.87 8.40
6501 11.4980 60.94 57.87 7.78
6502 11.4990 52.55 57.86 7.28
6503 11.5000 59.65 57.86 7.78
6504 11.5010 66.82 57.86 8.30
6505 11.5020 50.72 57.85 7.13
6506 11.5030 65.33 57.85 8.08
6507 11.5040 56.73 57.84 7.50
6508 11.5050 56.44 57.84 7.51
6509 11.5060 52.59 57.84 7.27
6510 11.5070 58.39 57.83 7.65
6511 11.5080 63.54 57.83 7.93
6512 11.5090 66.81 57.82 8.18
6513 11.5100 53.30 57.82 7.34
6514 11.5110 70.69 57.82 8.48
6515 11.5120 72.09 57.81 8.48
6516 11.5130 55.90 57.81 7.46
6517 11.5140 67.58 57.80 8.18
6518 11.5150 65.77 57.80 8.14
6519 11.5160 58.83 57.80 7.69
6520 11.5170 62.66 57.79 7.91
6521 11.5180 71.48 57.79 8.41
6522 11.5190 70.22 57.78 8.37
6523 11.5200 68.10 57.78 8.29
6524 11.5210 58.47 57.78 7.72
6525 11.5220 54.20 57.77 7.36
6526 11.5230 58.61 57.77 7.68
6527 11.5240 50.06 57.77 7.05
6528 11.5250 61.38 57.76 7.88
6529 11.5260 61.06 57.76 7.84
6530 11.5270 58.77 57.75 7.71
6531 11.5280 60.31 57.75 7.76
6532 11.5290 58.88 57.75 7.68
6533 11.5300 70.23 57.74 8.44
6534 11.5310 59.73 57.74 7.84
6535 11.5320 54.51 57.73 7.39
6536 11.5330 53.68 57.73 7.33
6537 11.5340 64.13 57.73 7.99
6538 11.5350 59.46 57.72 7.74
6539 11.5360 57.91 57.72 7.63
6540 11.5370 68.09 57.71 8.21
6541 11.5380 54.54 57.71 7.37
6542 11.5390 67.21 57.71 8.22
6543 11.5400 59.95 57.70 7.80
6544 11.5410 61.72 57.70 7.93
6545 11.5420 55.31 57.70 7.48
6546 11.5430 63.00 57.69 7.96
6547 11.5440 51.29 57.69 7.13
6548 11.5450 57.22 57.68 7.54
6549 11.5460 62.73 57.68 7.95
6550 11.5470 59.21 57.68 7.71
6551 11.5480 55.31 57.67 7.42
6552 11.5490 64.55 57.67 8.06
6553 11.5500 60.87 57.67 7.89
6554 11.5510 76.40 57.66 8.89
6555 11.5520 65.69 57.66 8.14
6556 11.5530 64.32 57.65 8.03
6557 11.5540 58.48 57.65 7.63
6558 11.5550 42.01 57.65 6.52
6559 11.5560 46.26 57.64 6.85
6560 11.5570 67.78 57.64 8.25
6561 11.5580 73.88 57.63 8.58
6562 11.5590 73.51 57.63 8.63
6563 11.5600 51.51 57.63 7.27
6564 11.5610 54.37 57.62 7.42
6565 11.5620 60.14 57.62 7.75
6566 11.5630 65.96 57.62 8.14
6567 11.5640 58.80 57.61 7.67
6568 11.5650 58.69 57.61 7.66
6569 11.5660 52.55 57.60 7.30
6570 11.5670 61.34 57.60 7.86
6571 11.5680 65.40 57.60 8.09
6572 11.5690 68.07 57.59 8.24
6573 11.5700 68.99 57.59 8.35
6574 11.5710 55.61 57.59 7.54
6575 11.5720 63.16 57.58 7.98
6576 11.5730 45.41 57.58 6.73
6577 11.5740 46.84 57.57 6.86
6578 11.5750 65.24 57.57 8.10
6579 11.5760 53.09 57.57 7.34
6580 11.5770 64.87 57.56 8.09
6581 11.5780 62.55 57.56 7.88
6582 11.5790 62.22 57.56 7.90
6583 11.5800 74.68 57.55 8.73
6584 11.5810 62.50 57.55 7.98
6585 11.5820 68.84 57.54 8.34
6586 11.5830 55.09 57.54 7.42
6587 11.5840 56.33 57.54 7.50
6588 11.5850 70.34 57.53 8.38
6589 11.5860 63.74 57.53 7.99
6590 11.5870 52.43 57.53 7.22
6591 11.5880 59.50 57.52 7.68
6592 11.5890 60.99 57.52 7.82
6593 11.5900 51.97 57.52 7.29
6594 11.5910 64.75 57.51 8.15
6595 11.5920 50.03 57.51 7.10
6596 11.5930 55.13 57.50 7.40
6597 11.5940 64.91 57.50 8.01
6598 11.5950 58.88 57.50 7.66
6599 11.5960 73.50 57.49 8.60
6600 11.5970 70.23 57.49 8.33
6601 11.5980 68.29 57.49 8.26
6602 11.5990 66.60 57.48 8.21
6603 11.6000 63.02 57.48 8.03
6604 11.6010 68.91 57.48 8.39
6605 11.6020 53.03 57.47 7.32
6606 11.6030 55.13 57.47 7.41
6607 11.6040 56.21 57.46 7.46
6608 11.6050 47.37 57.46 6.88
6609 11.6060 59.45 57.46 7.72
6610 11.6070 63.32 57.45 7.94
6611 11.6080 62.65 57.45 7.94
6612 11.6090 55.17 57.45 7.43
6613 11.6100 46.50 57.44 6.88
6614 11.6110 69.06 57.44 8.39
6615 11.6120 62.42 57.44 7.91
6616 11.6130 56.30 57.43 7.46
6617 11.6140 68.70 57.43 8.29
6618 11.6150 64.48 57.42 8.06
6619 11.6160 48.43 57.42 6.99
6620 11.6170 51.99 57.42 7.20
6621 11.6180 55.94 57.41 7.46
6622 11.6190 62.86 57.41 7.96
6623 11.6200 67.57 57.41 8.25
6624 11.6210 61.45 57.40 7.89
6625 11.6220 57.32 57.40 7.60
6626 11.6230 57.04 57.40 7.55
6627 11.6240 60.00 57.39 7.75
6628 11.6250 61.92 57.39 7.83
6629 11.6260 50.10 57.39 7.13
6630 11.6270 59.14 57.38 7.70
6631 11.6280 53.49 57.38 7.29
6632 11.6290 53.43 57.38 7.32
6633 11.6300 58.79 57.37 7.74
6634 11.6310 64.73 57.37 8.14
6635 11.6320 68.36 57.36 8.31
6636 11.6330 60.87 57.36 7.80
6637 11.6340 64.83 57.36 8.02
6638 11.6350 58.36 57.35 7.62
6639 11.6360 59.72 57.35 7.77
6640 11.6370 67.03 57.35 8.18
6641 11.6380 56.58 57.34 7.50
6642 11.6390 54.83 57.34 7.44
6643 11.6400 58.35 57.34 7.74
6644 11.6410 66.60 57.33 8.25
6645 11.6420 65.12 57.33 8.07
6646 11.6430 63.51 57.33 7.95
6647 11.6440 59.94 57.32 7.69
6648 11.6450 58.78 57.32 7.61
6649 11.6460 56.85 57.32 7.57
6650 11.6470 54.80 57.31 7.39
6651 11.6480 52.41 57.31 7.26
6652 11.6490 53.52 57.31 7.30
6653 11.6500 56.96 57.30 7.62
6654 11.6510 57.24 57.30 7.65
6655 11.6520 60.31 57.29 7.80
6656 11.6530 62.31 57.29 7.87
6657 11.6540 52.05 57.29 7.21
6658 11.6550 64.74 57.28 8.05
6659 11.6560 67.07 57.28 8.25
6660 11.6570 57.94 57.28 7.61
6661 11.6580 67.50 57.27 8.20
6662 11.6590 67.53 57.27 8.24
6663 11.6600 62.65 57.27 7.98
6664 11.6610 52.11 57.26 7.30
6665 11.6620 76.88 57.26 8.77
6666 11.6630 62.25 57.26 7.85
6667 11.6640 62.38 57.25 7.87
6668 11.6650 69.63 57.25 8.35
6669 11.6660 54.49 57.25 7.42
6670 11.6670 52.31 57.24 7.24
6671 11.6680 47.07 57.24 6.84
6672 11.6690 65.69 57.24 8.08
6673 11.6700 56.00 57.23 7.53
6674 11.6710 62.22 57.23 7.96
6675 11.6720 67.72 57.23 8.27
6676 11.6730 52.71 57.22 7.24
6677 11.6740 58.28 57.22 7.60
6678 11.6750 55.32 57.22 7.44
6679 11.6760 67.01 57.21 8.22
6680 11.6770 74.06 57.21 8.58
6681 11.6780 50.63 57.21 7.11
6682 11.6790 56.85 57.20 7.56
6683 11.6800 64.11 57.20 8.08
6684 11.6810 53.92 57.20 7.44
6685 11.6820 61.71 57.19 7.89
6686 11.6830 64.93 57.19 8.05
6687 11.6840 67.12 57.19 8.15
6688 11.6850 45.20 57.18 6.70
6689 11.6860 52.89 57.18 7.30
6690 11.6870 61.56 57.18 7.84
6691 11.6880 63.13 57.17 7.91
6692 11.6890 60.78 57.17 7.82
6693 11.6900 76.17 57.17 8.78
6694 11.6910 58.30 57.16 7.72
6695 11.6920 59.63 57.16 7.74
6696 11.6930 67.86 57.16 8.20
6697 11.6940 54.13 57.15 7.33
6698 11.6950 64.21 57.15 7.97
6699 11.6960 63.31 57.15 7.97
6700 11.6970 48.31 57.14 6.94
6701 11.6980 54.65 57.14 7.37
6702 11.6990 43.22 57.14 6.58
6703 11.7000 66.80 57.13 8.23
6704 11.7010 61.13 57.13 7.94
6705 11.7020 64.27 57.13 8.05
6706 11.7030 58.67 57.12 7.67
6707 11.7040 62.18 57.12 7.85
6708 11.7050 68.04 57.12 8.24
6709 11.7060 56.89 57.11 7.57
6710 11.7070 61.00 57.11 7.80
6711 11.7080 55.40 57.11 7.39
6712 11.7090 56.25 57.10 7.50
6713 11.7100 59.30 57.10 7.76
6714 11.7110 60.77 57.10 7.87
6715 11.7120 54.89 57.09 7.42
6716 11.7130 48.65 57.09 6.98
6717 11.7140 51.30 57.09 7.15
6718 11.7150 56.74 57.09 7.53
6719 11.7160 70.02 57.08 8.40
6720 11.7170 50.38 57.08 7.10
6721 11.7180 54.83 57.08 7.36
6722 11.7190 56.86 57.07 7.51
6723 11.7200 59.82 57.07 7.77
6724 11.7210 62.77 57.07 7.98
6725 11.7220 62.37 57.06 7.93
6726 11.7230 71.02 57.06 8.39
6727 11.7240 46.63 57.06 6.82
6728 11.7250 69.40 57.05 8.34
6729 11.7260 54.92 57.05 7.44
6730 11.7270 53.41 57.05 7.30
6731 11.7280 66.86 57.04 8.17
6732 11.7290 49.74 57.04 7.07
6733 11.7300 46.10 57.04 6.84
6734 11.7310 53.76 57.03 7.44
6735 11.7320 51.77 57.03 7.21
6736 11.7330 55.48 57.03 7.44
6737 11.7340 58.34 57.02 7.60
6738 11.7350 66.97 57.02 8.20
6739 11.7360 62.09 57.02 7.92
6740 11.7370 55.68 57.02 7.48
6741 11.7380 56.64 57.01 7.54
6742 11.7390 63.15 57.01 7.96
6743 11.7400 61.34 57.01 7.91
6744 11.7410 65.34 57.00 8.15
6745 11.7420 41.91 57.00 6.51
6746 11.7430 60.28 57.00 7.74
6747 11.7440 66.09 56.99 8.06
6748 11.7450 56.30 56.99 7.48
6749 11.7460 53.36 56.99 7.34
6750 11.7470 64.96 56.98 8.06
6751 11.7480 45.18 56.98 6.73
6752 11.7490 69.06 56.98 8.32
6753 11.7500 69.32 56.97 8.41
6754 11.7510 54.97 56.97 7.54
6755 11.7520 57.27 56.97 7.62
6756 11.7530 58.59 56.97 7.68
6757 11.7540 59.39 56.96 7.70
6758 11.7550 65.16 56.96 8.08
6759 11.7560 64.91 56.96 8.10
6760 11.7570 53.78 56.95 7.36
6761 11.7580 65.07 56.95 8.08
6762 11.7590 66.11 56.95 8.13
6763 11.7600 67.47 56.94 8.31
6764 11.7610 55.46 56.94 7.53
6765 11.7620 50.78 56.94 7.19
6766 11.7630 62.30 56.93 7.91
6767 11.7640 71.61 56.93 8.45
6768 11.7650 53.49 56.93 7.33
6769 11.7660 61.99 56.93 7.90
6770 11.7670 54.33 56.92 7.36
6771 11.7680 69.12 56.92 8.32
6772 11.7690 65.82 56.92 8.12
6773 11.7700 52.59 56.91 7.32
6774 11.7710 52.23 56.91 7.32
6775 11.7720 62.78 56.91 7.96
6776 11.7730 49.96 56.90 7.10
6777 11.7740 59.07 56.90 7.69
6778 11.7750 68.55 56.90 8.32
6779 11.7760 59.33 56.90 7.75
6780 11.7770 63.52 56.89 7.99
6781 11.7780 52.22 56.89 7.25
6782 11.7790 75.96 56.89 8.74
6783 11.7800 68.57 56.88 8.35
6784 11.7810 61.37 56.88 7.94
6785 11.7820 69.63 56.88 8.39
6786 11.7830 59.08 56.87 7.69
6787 11.7840 59.88 56.87 7.73
6788 11.7850 57.56 56.87 7.61
6789 11.7860 51.11 56.87 7.19
6790 11.7870 52.62 56.86 7.30
6791 11.7880 44.41 56.86 6.67
6792 11.7890 52.80 56.86 7.28
6793 11.7900 53.01 56.85 7.36
6794 11.7910 51.58 56.85 7.27
6795 11.7920 56.54 56.85 7.55
6796 11.7930 64.61 56.84 8.01
6797 11.7940 63.63 56.84 7.96
6798 11.7950 62.38 56.84 7.90
6799 11.7960 65.00 56.84 8.07
6800 11.7970 61.11 56.83 7.83
6801 11.7980 64.12 56.83 8.01
6802 11.7990 74.13 56.83 8.63
6803 11.8000 67.66 56.82 8.33
6804 11.8010 67.17 56.82 8.33
6805 11.8020 55.74 56.82 7.52
6806 11.8030 45.18 56.82 6.73
6807 11.8040 49.64 56.81 7.04
6808 11.8050 71.85 56.81 8.47
6809 11.8060 65.80 56.81 8.13
6810 11.8070 63.15 56.80 7.92
6811 11.8080 71.76 56.80 8.44
6812 11.8090 55.17 56.80 7.45
6813 11.8100 54.10 56.79 7.45
6814 11.8110 52.19 56.79 7.32
6815 11.8120 61.65 56.79 7.87
6816 11.8130 66.34 56.79 8.16
6817 11.8140 58.47 56.78 7.63
6818 11.8150 57.21 56.78 7.61
6819 11.8160 64.86 56.78 8.06
6820 11.8170 52.86 56.77 7.28
6821 11.8180 59.40 56.77 7.67
6822 11.8190 57.25 56.77 7.57
6823 11.8200 51.74 56.77 7.26
6824 11.8210 62.69 56.76 7.99
6825 11.8220 69.09 56.76 8.37
6826 11.8230 53.55 56.76 7.32
6827 11.8240 53.24 56.75 7.29
6828 11.8250 61.79 56.75 7.86
6829 11.8260 60.23 56.75 7.79
6830 11.8270 59.55 56.75 7.73
6831 11.8280 52.88 56.74 7.25
6832 11.8290 56.10 56.74 7.51
6833 11.8300 62.38 56.74 7.99
6834 11.8310 66.67 56.73 8.25
6835 11.8320 75.37 56.73 8.69
6836 11.8330 54.63 56.73 7.38
6837 11.8340 66.99 56.73 8.17
6838 11.8350 54.40 56.72 7.39
6839 11.8360 68.10 56.72 8.28
6840 11.8370 66.31 56.72 8.14
6841 11.8380 60.24 56.72 7.75
6842 11.8390 48.90 56.71 6.98
6843 11.8400 60.52 56.71 7.85
6844 11.8410 52.10 56.71 7.28
6845 11.8420 59.94 56.70 7.76
6846 11.8430 52.50 56.70 7.25
6847 11.8440 56.71 56.70 7.51
6848 11.8450 60.80 56.70 7.79
6849 11.8460 57.63 56.69 7.60
6850 11.8470 65.50 56.69 8.08
6851 11.8480 65.16 56.69 8.02
6852 11.8490 58.10 56.68 7.64
6853 11.8500 58.58 56.68 7.74
6854 11.8510 72.58 56.68 8.62
6855 11.8520 59.10 56.68 7.74
6856 11.8530 61.39 56.67 7.85
6857 11.8540 52.74 56.67 7.26
6858 11.8550 65.54 56.67 8.11
6859 11.8560 67.03 56.67 8.20
6860 11.8570 67.38 56.66 8.18
6861 11.8580 71.71 56.66 8.43
6862 11.8590 56.49 56.66 7.53
6863 11.8600 61.59 56.65 7.90
6864 11.8610 69.08 56.65 8.41
6865 11.8620 68.02 56.65 8.29
6866 11.8630 63.70 56.65 7.96
6867 11.8640 64.94 56.64 8.04
6868 11.8650 77.27 56.64 8.80
6869 11.8660 54.13 56.64 7.39
6870 11.8670 50.18 56.64 7.08
6871 11.8680 64.52 56.63 7.97
6872 11.8690 46.28 56.63 6.80
6873 11.8700 52.66 56.63 7.30
6874 11.8710 55.31 56.62 7.50
6875 11.8720 67.93 56.62 8.27
6876 11.8730 48.51 56.62 6.98
6877 11.8740 54.83 56.62 7.41
6878 11.8750 55.93 56.61 7.53
6879 11.8760 56.93 56.61 7.57
6880 11.8770 60.74 56.61 7.80
6881 11.8780 48.27 56.61 6.94
6882 11.8790 54.34 56.60 7.40
6883 11.8800 59.21 56.60 7.77
6884 11.8810 55.65 56.60 7.54
6885 11.8820 59.03 56.60 7.72
6886 11.8830 52.60 56.59 7.25
6887 11.8840 64.57 56.59 8.02
6888 11.8850 74.38 56.59 8.63
6889 11.8860 68.94 56.58 8.37
6890 11.8870 48.61 56.58 6.98
6891 11.8880 72.56 56.58 8.52
6892 11.8890 65.01 56.58 8.07
6893 11.8900 64.58 56.57 8.11
6894 11.8910 56.04 56.57 7.56
6895 11.8920 55.53 56.57 7.45
6896 11.8930 56.31 56.57 7.51
6897 11.8940 51.80 56.56 7.19
6898 11.8950 51.91 56.56 7.19
6899 11.8960 76.97 56.56 8.79
6900 11.8970 60.38 56.56 7.77
6901 11.8980 62.25 56.55 7.88
6902 11.8990 56.92 56.55 7.60
6903 11.9000 53.59 56.55 7.38
6904 11.9010 59.54 56.55 7.82
6905 11.9020 55.52 56.54 7.49
6906 11.9030 56.91 56.54 7.55
6907 11.9040 56.66 56.54 7.50
6908 11.9050 63.91 56.54 8.01
6909 11.9060 61.74 56.53 7.89
6910 11.9070 62.83 56.53 7.93
6911 11.9080 57.68 56.53 7.59
6912 11.9090 63.61 56.52 8.00
6913 11.9100 63.18 56.52 8.05
6914 11.9110 58.00 56.52 7.70
6915 11.9120 55.18 56.52 7.46
6916 11.9130 67.95 56.51 8.24
6917 11.9140 60.50 56.51 7.74
6918 11.9150 56.74 56.51 7.55
6919 11.9160 50.47 56.51 7.12
6920 11.9170 60.18 56.50 7.79
6921 11.9180 59.34 56.50 7.64
6922 11.9190 58.97 56.50 7.69
6923 11.9200 65.70 56.50 8.15
6924 11.9210 63.11 56.49 8.03
6925 11.9220 69.00 56.49 8.33
6926 11.9230 55.51 56.49 7.44
6927 11.9240 66.85 56.49 8.15
6928 11.9250 55.55 56.48 7.47
6929 11.9260 55.78 56.48 7.52
6930 11.9270 40.35 56.48 6.39
6931 11.9280 55.49 56.48 7.47
6932 11.9290 52.48 56.47 7.25
6933 11.9300 51.74 56.47 7.27
6934 11.9310 68.79 56.47 8.36
6935 11.9320 48.86 56.47 7.00
6936 11.9330 56.39 56.46 7.50
6937 11.9340 49.77 56.46 7.07
6938 11.9350 72.01 56.46 8.49
6939 11.9360 62.49 56.46 7.94
6940 11.9370 61.98 56.45 7.89
6941 11.9380 52.31 56.45 7.23
6942 11.9390 64.59 56.45 8.06
6943 11.9400 64.79 56.45 8.12
6944 11.9410 65.45 56.44 8.16
6945 11.9420 47.43 56.44 6.90
6946 11.9430 52.91 56.44 7.26
6947 11.9440 60.50 56.44 7.72
6948 11.9450 53.49 56.43 7.31
6949 11.9460 45.10 56.43 6.73
6950 11.9470 53.73 56.43 7.34
6951 11.9480 45.43 56.43 6.75
6952 11.9490 56.64 56.42 7.56
6953 11.9500 61.42 56.42 7.92
6954 11.9510 67.59 56.42 8.32
6955 11.9520 58.11 56.42 7.66
6956 11.9530 58.31 56.42 7.64
6957 11.9540 53.49 56.41 7.33
6958 11.9550 65.86 56.41 8.14
6959 11.9560 66.22 56.41 8.17
6960 11.9570 60.65 56.41 7.79
6961 11.9580 60.73 56.40 7.81
6962 11.9590 63.14 56.40 7.98
6963 11.9600 64.50 56.40 8.12
6964 11.9610 61.70 56.40 7.95
6965 11.9620 60.13 56.39 7.80
6966 11.9630 61.36 56.39 7.83
6967 11.9640 53.77 56.39 7.33
6968 11.9650 65.21 56.39 8.08
6969 11.9660 55.83 56.38 7.48
6970 11.9670 56.47 56.38 7.50
6971 11.9680 58.06 56.38 7.61
6972 11.9690 62.09 56.38 7.85
6973 11.9700 62.76 56.37 8.00
6974 11.9710 61.70 56.37 7.94
6975 11.9720 67.66 56.37 8.27
6976 11.9730 55.14 56.37 7.40
6977 11.9740 54.43 56.36 7.39
6978 11.9750 49.37 56.36 7.06
6979 11.9760 65.56 56.36 8.14
6980 11.9770 54.06 56.36 7.38
6981 11.9780 59.34 56.36 7.72
6982 11.9790 62.08 56.35 7.91
6983 11.9800 62.47 56.35 7.99
6984 11.9810 61.70 56.35 7.95
6985 11.9820 69.93 56.35 8.39
6986 11.9830 61.01 56.34 7.81
6987 11.9840 55.16 56.34 7.41
6988 11.9850 62.39 56.34 7.92
6989 11.9860 49.74 56.34 7.12
6990 11.9870 54.55 56.33 7.37
6991 11.9880 76.84 56.33 8.78
6992 11.9890 62.35 56.33 7.91
6993 11.9900 51.49 56.33 7.24
6994 11.9910 46.95 56.33 6.92
6995 11.9920 58.35 56.32 7.64
6996 11.9930 67.96 56.32 8.20
6997 11.9940 55.73 56.32 7.42
6998 11.9950 57.22 56.32 7.57
6999 11.9960 60.41 56.31 7.81
7000 11.9970 53.54 56.31 7.31
7001 11.9980 66.80 56.31 8.18
7002 11.9990 55.66 56.31 7.48
7003 12.0000 54.63 56.30 7.46
7004 12.0010 50.45 56.30 7.22
7005 12.0020 52.72 56.30 7.31
7006 12.0030 58.93 56.30 7.66
7007 12.0040 56.05 56.30 7.49
7008 12.0050 53.28 56.29 7.34
7009 12.0060 52.03 56.29 7.25
7010 12.0070 46.45 56.29 6.83
7011 12.0080 69.96 56.29 8.36
7012 12.0090 79.93 56.28 8.96
7013 12.0100 73.76 56.28 8.71
7014 12.0110 66.31 56.28 8.27
7015 12.0120 64.94 56.28 8.11
7016 12.0130 55.37 56.28 7.46
7017 12.0140 61.36 56.27 7.80
7018 12.0150 62.56 56.27 7.93
7019 12.0160 64.86 56.27 8.09
7020 12.0170 62.27 56.27 7.84
7021 12.0180 64.76 56.26 8.03
7022 12.0190 74.64 56.26 8.64
7023 12.0200 67.67 56.26 8.29
7024 12.0210 52.04 56.26 7.31
7025 12.0220 48.96 56.26 7.05
7026 12.0230 48.49 56.25 6.98
7027 12.0240 64.14 56.25 8.02
7028 12.0250 57.46 56.25 7.60
7029 12.0260 51.99 56.25 7.26
7030 12.0270 49.80 56.24 7.07
7031 12.0280 70.74 56.24 8.40
7032 12.0290 64.54 56.24 8.03
7033 12.0300 60.80 56.24 7.86
7034 12.0310 63.46 56.24 8.06
7035 12.0320 62.45 56.23 7.95
7036 12.0330 61.66 56.23 7.86
7037 12.0340 60.93 56.23 7.83
7038 12.0350 58.95 56.23 7.73
7039 12.0360 57.44 56.22 7.64
7040 12.0370 57.60 56.22 7.59
7041 12.0380 56.05 56.22 7.50
7042 12.0390 59.45 56.22 7.72
7043 12.0400 63.68 56.22 8.06
7044 12.0410 67.80 56.21 8.32
7045 12.0420 54.38 56.21 7.40
7046 12.0430 48.55 56.21 6.96
7047 12.0440 45.87 56.21 6.76
7048 12.0450 57.26 56.21 7.58
7049 12.0460 73.21 56.20 8.56
7050 12.0470 50.18 56.20 7.11
7051 12.0480 53.01 56.20 7.27
7052 12.0490 50.89 56.20 7.14
7053 12.0500 65.46 56.19 8.16
7054 12.0510 66.83 56.19 8.30
7055 12.0520 73.01 56.19 8.56
7056 12.0530 48.70 56.19 6.97
7057 12.0540 50.37 56.19 7.08
7058 12.0550 57.34 56.18 7.60
7059 12.0560 49.68 56.18 7.08
7060 12.0570 50.42 56.18 7.12
7061 12.0580 48.96 56.18 7.01
7062 12.0590 68.68 56.18 8.28
7063 12.0600 60.43 56.17 7.86
7064 12.0610 57.68 56.17 7.68
7065 12.0620 65.33 56.17 8.13
7066 12.0630 55.43 56.17 7.46
7067 12.0640 56.90 56.17 7.52
7068 12.0650 64.84 56.16 8.07
7069 12.0660 58.83 56.16 7.68
7070 12.0670 48.44 56.16 6.94
7071 12.0680 51.52 56.16 7.13
7072 12.0690 59.98 56.15 7.73
7073 12.0700 64.86 56.15 8.12
7074 12.0710 59.36 56.15 7.78
7075 12.0720 69.68 56.15 8.38
7076 12.0730 65.67 56.15 8.08
7077 12.0740 72.02 56.14 8.43
7078 12.0750 59.96 56.14 7.78
7079 12.0760 50.06 56.14 7.09
7080 12.0770 63.30 56.14 7.98
7081 12.0780 49.02 56.14 6.99
7082 12.0790 68.58 56.13 8.31
7083 12.0800 53.79 56.13 7.39
7084 12.0810 57.89 56.13 7.69
7085 12.0820 69.76 56.13 8.35
7086 12.0830 53.77 56.13 7.33
7087 12.0840 59.06 56.12 7.65
7088 12.0850 59.62 56.12 7.74
7089 12.0860 58.85 56.12 7.71
7090 12.0870 57.37 56.12 7.58
7091 12.0880 55.64 56.12 7.44
7092 12.0890 58.29 56.11 7.61
7093 12.0900 46.39 56.11 6.86
7094 12.0910 55.46 56.11 7.49
7095 12.0920 61.95 56.11 7.87
7096 12.0930 53.11 56.11 7.27
7097 12.0940 54.88 56.10 7.36
7098 12.0950 57.92 56.10 7.62
7099 12.0960 59.91 56.10 7.75
7100 12.0970 51.38 56.10 7.16
7101 12.0980 48.31 56.10 6.93
7102 12.0990 58.00 56.09 7.63
7103 12.1000 54.93 56.09 7.48
7104 12.1010 45.76 56.09 6.86
7105 12.1020 52.29 56.09 7.26
7106 12.1030 52.22 56.09 7.23
7107 12.1040 59.49 56.08 7.68
7108 12.1050 56.17 56.08 7.48
7109 12.1060 54.02 56.08 7.37
7110 12.1070 53.38 56.08 7.36
7111 12.1080 60.52 56.08 7.75
7112 12.1090 52.64 56.07 7.32
7113 12.1100 45.89 56.07 6.84
7114 12.1110 50.03 56.07 7.14
7115 12.1120 59.12 56.07 7.71
7116 12.1130 59.83 56.07 7.73
7117 12.1140 60.77 56.07 7.74
7118 12.1150 62.87 56.06 7.92
7119 12.1160 55.39 56.06 7.44
7120 12.1170 47.06 56.06 6.83
7121 12.1180 48.72 56.06 6.94
7122 12.1190 64.19 56.06 8.00
7123 12.1200 63.80 56.05 8.03
7124 12.1210 50.54 56.05 7.18
7125 12.1220 52.47 56.05 7.26
7126 12.1230 65.22 56.05 8.06
7127 12.1240 64.69 56.05 8.02
7128 12.1250 58.39 56.04 7.64
7129 12.1260 73.71 56.04 8.59
7130 12.1270 55.31 56.04 7.47
7131 12.1280 57.83 56.04 7.60
7132 12.1290 53.68 56.04 7.33
7133 12.1300 58.63 56.03 7.71
7134 12.1310 40.95 56.03 6.47
7135 12.1320 49.09 56.03 7.02
7136 12.1330 64.88 56.03 8.04
7137 12.1340 51.85 56.03 7.20
7138 12.1350 53.34 56.03 7.31
7139 12.1360 56.51 56.02 7.56
7140 12.1370 62.65 56.02 7.90
7141 12.1380 70.94 56.02 8.38
7142 12.1390 61.20 56.02 7.82
7143 12.1400 60.90 56.02 7.83
7144 12.1410 64.85 56.01 8.10
7145 12.1420 72.49 56.01 8.49
7146 12.1430 56.42 56.01 7.47
7147 12.1440 60.20 56.01 7.72
7148 12.1450 55.14 56.01 7.42
7149 12.1460 48.96 56.01 7.04
7150 12.1470 61.72 56.00 7.85
7151 12.1480 71.93 56.00 8.44
7152 12.1490 57.09 56.00 7.58
7153 12.1500 58.58 56.00 7.71
7154 12.1510 58.22 56.00 7.74
7155 12.1520 65.00 55.99 8.07
7156 12.1530 67.75 55.99 8.23
7157 12.1540 55.24 55.99 7.42
7158 12.1550 61.69 55.99 7.85
7159 12.1560 66.22 55.99 8.14
7160 12.1570 53.42 55.99 7.29
7161 12.1580 60.94 55.98 7.79
7162 12.1590 64.38 55.98 8.03
7163 12.1600 57.98 55.98 7.69
7164 12.1610 71.08 55.98 8.49
7165 12.1620 66.98 55.98 8.24
7166 12.1630 53.69 55.97 7.31
7167 12.1640 57.94 55.97 7.57
7168 12.1650 62.61 55.97 7.88
7169 12.1660 65.31 55.97 8.05
7170 12.1670 47.77 55.97 6.89
7171 12.1680 56.58 55.97 7.47
7172 12.1690 66.57 55.96 8.15
7173 12.1700 65.05 55.96 8.13
7174 12.1710 69.40 55.96 8.41
7175 12.1720 71.92 55.96 8.49
7176 12.1730 56.36 55.96 7.50
7177 12.1740 66.18 55.95 8.08
7178 12.1750 54.58 55.95 7.42
7179 12.1760 50.17 55.95 7.13
7180 12.1770 55.72 55.95 7.48
7181 12.1780 46.43 55.95 6.82
7182 12.1790 53.77 55.95 7.36
7183 12.1800 51.07 55.94 7.22
7184 12.1810 59.70 55.94 7.80
7185 12.1820 60.57 55.94 7.81
7186 12.1830 59.93 55.94 7.74
7187 12.1840 59.20 55.94 7.66
7188 12.1850 62.32 55.94 7.92
7189 12.1860 66.01 55.93 8.17
7190 12.1870 50.51 55.93 7.12
7191 12.1880 55.71 55.93 7.44
7192 12.1890 59.67 55.93 7.72
7193 12.1900 44.78 55.93 6.72
7194 12.1910 52.72 55.93 7.32
7195 12.1920 59.60 55.92 7.73
7196 12.1930 72.74 55.92 8.50
7197 12.1940 71.34 55.92 8.42
7198 12.1950 51.69 55.92 7.21
7199 12.1960 48.20 55.92 6.97
7200 12.1970 56.19 55.92 7.51
7201 12.1980 62.86 55.91 7.89
7202 12.1990 69.16 55.91 8.37
7203 12.2000 60.09 55.91 7.83
7204 12.2010 62.84 55.91 8.02
7205 12.2020 68.09 55.91 8.27
7206 12.2030 49.59 55.91 7.06
7207 12.2040 47.96 55.90 6.91
7208 12.2050 70.04 55.90 8.39
7209 12.2060 69.20 55.90 8.34
7210 12.2070 57.13 55.90 7.58
7211 12.2080 56.84 55.90 7.57
7212 12.2090 51.49 55.90 7.19
7213 12.2100 61.12 55.89 7.89
7214 12.2110 57.60 55.89 7.71
7215 12.2120 73.24 55.89 8.58
7216 12.2130 70.76 55.89 8.38
7217 12.2140 69.09 55.89 8.22
7218 12.2150 54.21 55.89 7.34
7219 12.2160 65.63 55.88 8.11
7220 12.2170 70.20 55.88 8.37
7221 12.2180 55.00 55.88 7.39
7222 12.2190 64.29 55.88 8.01
7223 12.2200 63.99 55.88 8.05
7224 12.2210 73.10 55.88 8.64
7225 12.2220 72.14 55.87 8.53
7226 12.2230 62.99 55.87 7.94
7227 12.2240 60.76 55.87 7.79
7228 12.2250 60.59 55.87 7.80
7229 12.2260 57.43 55.87 7.62
7230 12.2270 59.80 55.87 7.72
7231 12.2280 64.89 55.86 8.04
7232 12.2290 56.28 55.86 7.50
7233 12.2300 56.07 55.86 7.55
7234 12.2310 62.86 55.86 8.02
7235 12.2320 63.95 55.86 8.02
7236 12.2330 73.29 55.86 8.58
7237 12.2340 61.94 55.86 7.87
7238 12.2350 56.19 55.85 7.50
7239 12.2360 63.67 55.85 8.01
7240 12.2370 73.76 55.85 8.60
7241 12.2380 68.73 55.85 8.26
7242 12.2390 54.77 55.85 7.38
7243 12.2400 62.55 55.85 7.95
7244 12.2410 58.56 56.33 7.71
7245 12.2420 57.04 56.33 7.57
7246 12.2430 52.84 56.33 7.26
7247 12.2440 62.49 56.34 7.85
7248 12.2450 74.18 57.27 8.60
7249 12.2460 48.69 57.28 7.02
7250 12.2470 51.63 57.29 7.18
7251 12.2480 61.81 57.30 7.86
7252 12.2490 75.28 57.31 8.69
7253 12.2500 58.89 57.32 7.76
7254 12.2510 59.27 57.33 7.76
7255 12.2520 64.15 57.34 8.01
7256 12.2530 49.40 57.35 7.01
7257 12.2540 56.63 57.36 7.50
7258 12.2550 57.41 57.37 7.60
7259 12.2560 55.93 57.38 7.50
7260 12.2570 70.65 57.40 8.40
7261 12.2580 52.06 57.41 7.21
7262 12.2590 72.97 57.42 8.58
7263 12.2600 62.69 57.43 7.95
7264 12.2610 72.89 57.44 8.62
7265 12.2620 64.96 57.46 8.08
7266 12.2630 55.10 57.47 7.37
7267 12.2640 45.45 57.48 6.71
7268 12.2650 53.20 57.49 7.27
7269 12.2660 66.01 57.51 8.11
7270 12.2670 77.78 57.52 8.77
7271 12.2680 63.82 57.53 7.94
7272 12.2690 66.57 57.55 8.11
7273 12.2700 65.30 57.56 8.11
7274 12.2710 57.37 57.58 7.64
7275 12.2720 57.74 57.59 7.60
7276 12.2730 54.69 57.60 7.39
7277 12.2740 76.20 57.62 8.69
7278 12.2750 60.00 57.63 7.75
7279 12.2760 64.73 57.65 8.05
7280 12.2770 56.36 57.67 7.49
7281 12.2780 55.57 57.68 7.44
7282 12.2790 60.98 57.70 7.77
7283 12.2800 73.15 57.71 8.61
7284 12.2810 61.97 57.73 7.90
7285 12.2820 73.03 57.75 8.57
7286 12.2830 71.18 57.76 8.47
7287 12.2840 52.72 57.78 7.23
7288 12.2850 66.34 57.80 8.14
7289 12.2860 49.84 57.82 7.11
7290 12.2870 64.65 57.83 8.02
7291 12.2880 56.66 57.85 7.48
7292 12.2890 64.97 57.87 8.02
7293 12.2900 58.29 57.89 7.65
7294 12.2910 61.76 57.91 7.90
7295 12.2920 66.23 57.93 8.14
7296 12.2930 59.35 57.95 7.65
7297 12.2940 61.30 57.97 7.80
7298 12.2950 65.64 57.99 8.08
7299 12.2960 84.30 58.01 9.22
7300 12.2970 64.34 58.03 7.99
7301 12.2980 64.60 58.05 8.00
7302 12.2990 64.09 58.07 8.02
7303 12.3000 77.24 58.10 8.83
7304 12.3010 82.03 58.12 9.13
7305 12.3020 65.93 58.14 8.12
7306 12.3030 52.04 58.16 7.20
7307 12.3040 66.89 58.19 8.15
7308 12.3050 57.04 58.21 7.54
7309 12.3060 78.96 58.24 8.91
7310 12.3070 69.05 58.26 8.32
7311 12.3080 55.45 58.29 7.44
7312 12.3090 52.48 58.31 7.25
7313 12.3100 46.08 58.34 6.86
7314 12.3110 60.68 58.36 7.85
7315 12.3120 65.79 58.39 8.11
7316 12.3130 61.95 58.42 7.81
7317 12.3140 61.36 58.45 7.77
7318 12.3150 63.24 58.47 7.93
7319 12.3160 62.40 58.50 7.90
7320 12.3170 70.27 58.53 8.35
7321 12.3180 65.46 58.56 8.05
7322 12.3190 77.33 58.59 8.79
7323 12.3200 71.78 58.62 8.51
7324 12.3210 70.57 58.66 8.49
7325 12.3220 68.81 58.69 8.32
7326 12.3230 73.66 58.72 8.55
7327 12.3240 52.87 58.75 7.24
7328 12.3250 66.01 58.79 8.13
7329 12.3260 64.29 58.82 8.05
7330 12.3270 58.20 58.86 7.59
7331 12.3280 70.91 58.89 8.40
7332 12.3290 65.82 58.93 8.06
7333 12.3300 64.16 58.97 8.09
7334 12.3310 63.72 59.01 8.07
7335 12.3320 56.36 59.04 7.57
7336 12.3330 62.81 59.08 7.88
7337 12.3340 67.84 59.12 8.21
7338 12.3350 65.33 59.17 8.09
7339 12.3360 59.34 59.21 7.71
7340 12.3370 62.92 59.25 7.88
7341 12.3380 69.65 59.29 8.26
7342 12.3390 66.83 59.34 8.12
7343 12.3400 69.04 59.38 8.31
7344 12.3410 60.25 59.43 7.79
7345 12.3420 64.71 59.47 8.06
7346 12.3430 67.35 59.52 8.18
7347 12.3440 74.80 59.57 8.62
7348 12.3450 60.14 59.62 7.75
7349 12.3460 52.44 59.67 7.28
7350 12.3470 58.00 59.72 7.58
7351 12.3480 54.34 59.78 7.36
7352 12.3490 71.38 59.83 8.44
7353 12.3500 62.94 59.89 8.01
7354 12.3510 57.69 59.94 7.67
7355 12.3520 63.38 60.00 7.97
7356 12.3530 57.88 60.06 7.57
7357 12.3540 64.01 60.12 7.97
7358 12.3550 68.79 60.18 8.28
7359 12.3560 63.23 60.24 7.99
7360 12.3570 73.74 60.31 8.56
7361 12.3580 59.87 60.37 7.77
7362 12.3590 56.06 60.44 7.46
7363 12.3600 55.09 60.51 7.46
7364 12.3610 55.95 60.58 7.54
7365 12.3620 66.12 60.65 8.10
7366 12.3630 62.32 60.72 7.84
7367 12.3640 76.14 60.80 8.65
7368 12.3650 71.70 60.87 8.42
7369 12.3660 70.74 60.95 8.44
7370 12.3670 56.50 61.03 7.50
7371 12.3680 54.11 61.11 7.32
7372 12.3690 67.05 61.20 8.18
7373 12.3700 67.94 61.28 8.29
7374 12.3710 71.79 61.37 8.54
7375 12.3720 67.40 61.46 8.23
7376 12.3730 63.13 61.55 7.92
7377 12.3740 66.28 61.65 8.11
7378 12.3750 71.94 61.74 8.50
7379 12.3760 56.30 61.84 7.52
7380 12.3770 68.86 61.95 8.28
7381 12.3780 52.36 62.05 7.21
7382 12.3790 70.54 62.16 8.40
7383 12.3800 83.70 62.27 9.21
7384 12.3810 65.01 62.38 8.13
7385 12.3820 73.11 62.50 8.60
7386 12.3830 74.14 62.62 8.60
7387 12.3840 58.18 62.74 7.56
7388 12.3850 73.76 62.86 8.56
7389 12.3860 59.28 62.99 7.73
7390 12.3870 73.82 63.13 8.53
7391 12.3880 73.47 63.26 8.51
7392 12.3890 65.78 63.40 8.05
7393 12.3900 75.11 63.55 8.71
7394 12.3910 72.27 63.69 8.57
7395 12.3920 59.93 63.85 7.73
7396 12.3930 73.61 64.00 8.54
7397 12.3940 61.37 64.17 7.80
7398 12.3950 70.86 64.33 8.39
7399 12.3960 77.17 64.50 8.82
7400 12.3970 70.09 64.68 8.35
7401 12.3980 58.38 64.86 7.64
7402 12.3990 87.69 65.05 9.36
7403 12.4000 65.59 65.24 8.17
7404 12.4010 67.27 65.44 8.28
7405 12.4020 83.24 65.65 9.14
7406 12.4030 57.53 65.86 7.55
7407 12.4040 62.33 66.08 7.84
7408 12.4050 67.11 66.31 8.19
7409 12.4060 70.96 66.54 8.46
7410 12.4070 64.82 66.78 8.06
7411 12.4080 71.46 67.03 8.46
7412 12.4090 65.89 67.29 8.09
7413 12.4100 58.96 67.56 7.75
7414 12.4110 65.59 67.83 8.13
7415 12.4120 51.53 68.12 7.16
7416 12.4130 62.62 68.42 7.86
7417 12.4140 70.68 68.73 8.34
7418 12.4150 72.68 69.05 8.51
7419 12.4160 83.93 69.38 9.16
7420 12.4170 65.47 69.72 8.08
7421 12.4180 74.12 70.08 8.57
7422 12.4190 70.66 70.45 8.39
7423 12.4200 75.74 70.83 8.77
7424 12.4210 58.35 71.23 7.68
7425 12.4220 44.28 71.65 6.69
7426 12.4230 82.76 72.08 9.07
7427 12.4240 66.92 72.53 8.18
7428 12.4250 57.01 73.00 7.56
7429 12.4260 80.96 73.49 9.02
7430 12.4270 77.31 74.00 8.78
7431 12.4280 78.38 74.54 8.80
7432 12.4290 66.14 75.09 8.12
7433 12.4300 76.20 75.68 8.82
7434 12.4310 79.41 76.28 8.98
7435 12.4320 74.67 76.92 8.68
7436 12.4330 75.38 77.59 8.65
7437 12.4340 88.90 78.29 9.42
7438 12.4350 74.55 79.02 8.61
7439 12.4360 78.96 79.79 8.89
7440 12.4370 66.02 80.59 8.10
7441 12.4380 75.62 81.44 8.65
7442 12.4390 82.65 82.33 9.05
7443 12.4400 71.21 83.27 8.49
7444 12.4410 75.86 84.26 8.77
7445 12.4420 71.68 85.31 8.48
7446 12.4430 69.92 86.41 8.34
7447 12.4440 93.97 87.57 9.62
7448 12.4450 93.38 88.80 9.66
7449 12.4460 81.67 90.11 9.06
7450 12.4470 70.15 91.49 8.38
7451 12.4480 94.81 92.95 9.69
7452 12.4490 98.12 94.51 9.88
7453 12.4500 84.30 96.17 9.25
7454 12.4510 91.03 97.94 9.59
7455 12.4520 88.07 99.82 9.37
7456 12.4530 106.68 101.83 10.31
7457 12.4540 98.60 103.99 9.93
7458 12.4550 98.76 106.29 9.96
7459 12.4560 99.92 108.77 10.05
7460 12.4570 123.68 111.43 11.15
7461 12.4580 99.36 114.29 9.96
7462 12.4590 108.60 117.39 10.40
7463 12.4600 130.77 120.72 11.47
7464 12.4610 124.29 124.35 11.21
7465 12.4620 120.66 128.27 10.96
7466 12.4630 127.49 132.55 11.21
7467 12.4640 126.84 137.21 11.15
7468 12.4650 126.42 142.31 11.23
7469 12.4660 129.85 147.90 11.43
7470 12.4670 138.90 154.04 11.76
7471 12.4680 145.82 160.83 11.98
7472 12.4690 149.66 168.33 12.17
7473 12.4700 160.45 176.65 12.77
7474 12.4710 170.64 185.93 13.18
7475 12.4720 190.72 196.32 13.82
7476 12.4730 207.29 207.99 14.38
7477 12.4740 220.06 221.16 14.80
7478 12.4750 265.79 236.12 16.31
7479 12.4760 253.35 253.15 15.92
7480 12.4770 271.48 272.72 16.40
7481 12.4780 335.95 295.30 18.25
7482 12.4790 351.11 321.60 18.71
7483 12.4800 344.13 352.42 18.70
7484 12.4810 417.59 388.97 20.62
7485 12.4820 468.86 432.92 21.68
7486 12.4830 526.64 486.55 22.94
7487 12.4840 642.45 553.67 25.15
7488 12.4850 658.12 639.67 25.56
7489 12.4860 868.83 752.47 29.39
7490 12.4870 973.13 904.02 31.23
7491 12.4880 1243.21 1109.51 35.14
7492 12.4890 1498.49 1388.68 38.79
7493 12.4900 1699.69 1762.41 41.68
7494 12.4910 2187.17 2251.99 47.28
7495 12.4920 2698.16 2865.57 52.24
7496 12.4930 3249.32 3580.60 56.88
7497 12.4940 3984.76 4328.37 63.69
7498 12.4950 4999.38 5000.90 71.75
7499 12.4960 5720.93 5521.40 77.14
7500 12.4970 6160.00 5849.82 79.84
7501 12.4980 6261.06 5902.31 80.48
7502 12.4990 5751.66 5573.78 77.30
7503 12.5000 4768.05 4897.16 70.12
7504 12.5010 3801.58 4053.94 62.54
7505 12.5020 3230.30 3230.04 57.38
7506 12.5030 2491.01 2522.18 50.08
7507 12.5040 2024.35 1957.05 45.12
7508 12.5050 1630.99 1525.66 40.50
7509 12.5060 1384.27 1206.49 37.43
7510 12.5070 1142.60 973.86 34.00
7511 12.5080 917.88 804.46 30.19
7512 12.5090 824.57 679.88 28.66
7513 12.5100 677.27 585.79 26.06
7514 12.5110 540.58 512.90 23.31
7515 12.5120 519.21 454.76 22.78
7516 12.5130 421.10 407.39 20.39
7517 12.5140 400.43 368.06 19.85
7518 12.5150 357.63 334.95 18.92
7519 12.5160 307.27 306.85 17.52
7520 12.5170 289.52 282.70 16.91
7521 12.5180 268.72 261.85 16.30
7522 12.5190 227.28 243.75 15.04
7523 12.5200 237.14 227.88 15.51
7524 12.5210 196.36 213.94 14.11
7525 12.5220 200.26 201.60 14.19
7526 12.5230 192.37 190.66 13.86
7527 12.5240 173.99 180.88 13.17
7528 12.5250 145.49 172.12 12.07
7529 12.5260 133.03 164.25 11.54
7530 12.5270 143.57 157.14 11.97
7531 12.5280 139.02 150.71 11.79
7532 12.5290 136.90 144.87 11.70
7533 12.5300 129.23 139.54 11.43
7534 12.5310 134.77 134.68 11.73
7535 12.5320 109.90 130.22 10.50
7536 12.5330 102.24 126.13 10.08
7537 12.5340 115.85 122.37 10.69
7538 12.5350 106.14 118.90 10.28
7539 12.5360 98.81 115.69 9.91
7540 12.5370 98.75 112.72 9.91
7541 12.5380 104.32 109.96 10.15
7542 12.5390 98.42 107.39 9.93
7543 12.5400 74.58 105.01 8.70
7544 12.5410 94.35 102.78 9.84
7545 12.5420 98.70 100.70 9.94
7546 12.5430 93.39 98.75 9.63
7547 12.5440 93.74 96.93 9.64
7548 12.5450 90.05 95.22 9.48
7549 12.5460 86.28 93.61 9.34
7550 12.5470 96.70 92.10 9.85
7551 12.5480 80.58 90.68 8.95
7552 12.5490 84.47 89.34 9.20
7553 12.5500 91.24 88.07 9.65
7554 12.5510 85.52 86.87 9.30
7555 12.5520 83.02 85.74 9.14
7556 12.5530 87.04 84.66 9.32
7557 12.5540 83.27 83.65 9.11
7558 12.5550 69.74 82.68 8.39
7559 12.5560 84.45 81.77 9.20
7560 12.5570 88.03 80.90 9.37
7561 12.5580 73.81 80.07 8.59
7562 12.5590 85.11 79.28 9.18
7563 12.5600 75.70 78.53 8.74
7564 12.5610 82.17 77.81 9.12
7565 12.5620 56.11 77.13 7.49
7566 12.5630 73.02 76.48 8.49
7567 12.5640 71.35 75.85 8.40
7568 12.5650 79.89 75.26 8.93
7569 12.5660 63.50 74.69 8.01
7570 12.5670 78.00 74.14 8.83
7571 12.5680 85.20 73.62 9.18
7572 12.5690 73.69 73.11 8.55
7573 12.5700 62.80 72.63 7.98
7574 12.5710 69.48 72.17 8.43
7575 12.5720 58.08 71.73 7.68
7576 12.5730 58.36 71.30 7.62
7577 12.5740 49.77 70.89 7.07
7578 12.5750 71.87 70.50 8.49
7579 12.5760 60.47 70.12 7.85
7580 12.5770 78.46 69.75 8.84
7581 12.5780 76.67 69.40 8.74
7582 12.5790 75.99 69.06 8.73
7583 12.5800 79.68 68.74 9.02
7584 12.5810 66.54 68.42 8.23
7585 12.5820 83.90 68.12 9.21
7586 12.5830 74.59 67.82 8.62
7587 12.5840 73.43 67.54 8.54
7588 12.5850 67.38 67.27 8.17
7589 12.5860 74.11 67.00 8.60
7590 12.5870 64.12 66.74 8.02
7591 12.5880 63.43 66.50 7.98
7592 12.5890 51.88 66.26 7.22
7593 12.5900 58.55 66.03 7.71
7594 12.5910 63.04 65.80 8.02
7595 12.5920 81.69 65.58 9.05
7596 12.5930 68.30 65.37 8.23
7597 12.5940 74.13 65.17 8.57
7598 12.5950 77.14 64.97 8.79
7599 12.5960 61.04 64.78 7.88
7600 12.5970 57.23 64.59 7.58
7601 12.5980 58.25 64.41 7.63
7602 12.5990 71.74 64.24 8.48
7603 12.6000 70.40 64.07 8.48
7604 12.6010 83.27 63.90 9.21
7605 12.6020 72.15 63.74 8.49
7606 12.6030 66.17 63.58 8.13
7607 12.6040 65.06 63.43 8.08
7608 12.6050 66.84 63.28 8.20
7609 12.6060 58.81 63.14 7.71
7610 12.6070 54.25 63.00 7.38
7611 12.6080 58.45 62.86 7.64
7612 12.6090 59.60 62.73 7.72
7613 12.6100 78.06 62.60 8.86
7614 12.6110 67.30 62.48 8.28
7615 12.6120 69.77 62.35 8.37
7616 12.6130 69.08 62.23 8.31
7617 12.6140 58.77 62.12 7.68
7618 12.6150 70.58 62.00 8.43
7619 12.6160 79.33 61.89 8.94
7620 12.6170 69.37 61.79 8.31
7621 12.6180 62.12 61.68 7.87
7622 12.6190 73.32 61.58 8.54
7623 12.6200 74.21 61.48 8.73
7624 12.6210 65.78 61.38 8.20
7625 12.6220 61.44 61.29 7.88
7626 12.6230 78.35 61.19 8.85
7627 12.6240 66.32 61.10 8.16
7628 12.6250 67.36 61.01 8.21
7629 12.6260 65.49 60.93 8.12
7630 12.6270 65.11 60.84 8.09
7631 12.6280 76.18 60.76 8.74
7632 12.6290 75.79 60.68 8.70
7633 12.6300 67.46 60.60 8.31
7634 12.6310 72.57 60.52 8.59
7635 12.6320 58.83 60.45 7.67
7636 12.6330 57.31 60.37 7.54
7637 12.6340 69.49 60.30 8.25
7638 12.6350 63.95 60.23 7.98
7639 12.6360 54.78 60.16 7.42
7640 12.6370 52.98 60.09 7.29
7641 12.6380 71.24 60.03 8.41
7642 12.6390 69.68 59.96 8.32
7643 12.6400 65.64 59.90 8.16
7644 12.6410 75.22 59.83 8.75
7645 12.6420 57.57 59.77 7.61
7646 12.6430 66.10 59.71 8.12
7647 12.6440 66.40 59.66 8.14
7648 12.6450 69.78 59.60 8.38
7649 12.6460 66.76 59.54 8.21
7650 12.6470 74.66 59.49 8.62
7651 12.6480 68.16 59.43 8.27
7652 12.6490 58.78 59.38 7.68
7653 12.6500 62.04 59.33 7.94
7654 12.6510 71.28 59.28 8.51
7655 12.6520 69.63 59.23 8.37
7656 12.6530 56.39 59.18 7.50
7657 12.6540 72.27 59.13 8.50
7658 12.6550 72.20 59.08 8.51
7659 12.6560 53.17 59.04 7.36
7660 12.6570 69.42 58.99 8.31
7661 12.6580 67.71 58.95 8.19
7662 12.6590 67.81 58.90 8.20
7663 12.6600 75.60 58.86 8.73
7664 12.6610 58.38 58.82 7.68
7665 12.6620 47.02 58.77 6.89
7666 12.6630 62.56 58.73 7.89
7667 12.6640 59.36 58.69 7.70
7668 12.6650 65.75 58.65 8.10
7669 12.6660 60.38 58.62 7.80
7670 12.6670 68.02 58.58 8.23
7671 12.6680 64.88 58.54 8.03
7672 12.6690 57.80 58.50 7.59
7673 12.6700 72.15 58.47 8.56
7674 12.6710 61.42 58.43 7.93
7675 12.6720 65.81 58.40 8.14
7676 12.6730 56.94 58.36 7.57
7677 12.6740 55.17 58.33 7.40
7678 12.6750 70.01 58.30 8.39
7679 12.6760 71.78 58.26 8.51
7680 12.6770 77.41 58.23 8.81
7681 12.6780 81.11 58.20 8.99
7682 12.6790 77.44 58.17 8.82
7683 12.6800 51.71 58.14 7.27
7684 12.6810 68.93 58.11 8.37
7685 12.6820 64.09 58.08 8.01
7686 12.6830 51.75 58.05 7.16
7687 12.6840 61.79 58.02 7.83
7688 12.6850 64.33 57.99 7.99
7689 12.6860 66.42 57.97 8.15
7690 12.6870 54.23 57.94 7.36
7691 12.6880 72.79 57.91 8.51
7692 12.6890 64.53 57.89 8.03
7693 12.6900 57.57 57.86 7.65
7694 12.6910 54.32 57.83 7.44
7695 12.6920 72.23 57.81 8.52
7696 12.6930 57.41 57.78 7.53
7697 12.6940 62.50 57.76 7.87
7698 12.6950 61.64 57.74 7.88
7699 12.6960 60.92 57.71 7.85
7700 12.6970 58.10 57.69 7.63
7701 12.6980 64.36 57.67 8.01
7702 12.6990 61.59 57.64 7.86
7703 12.7000 62.97 57.62 7.97
7704 12.7010 56.55 57.60 7.59
7705 12.7020 56.42 57.58 7.52
7706 12.7030 64.94 57.56 8.04
7707 12.7040 68.19 57.53 8.27
7708 12.7050 70.46 57.51 8.42
7709 12.7060 65.81 57.49 8.15
7710 12.7070 65.01 57.47 8.05
7711 12.7080 65.11 57.45 8.02
7712 12.7090 61.60 57.43 7.83
7713 12.7100 62.86 57.41 7.94
7714 12.7110 72.04 57.40 8.51
7715 12.7120 73.82 57.38 8.61
7716 12.7130 69.26 57.36 8.29
7717 12.7140 61.21 57.34 7.79
7718 12.7150 56.43 57.32 7.51
7719 12.7160 62.11 57.30 7.94
7720 12.7170 62.14 57.29 7.92
7721 12.7180 55.13 57.27 7.39
7722 12.7190 64.44 57.25 8.02
7723 12.7200 62.71 57.23 7.98
7724 12.7210 69.27 57.22 8.39
7725 12.7220 53.83 57.20 7.38
7726 12.7230 58.34 57.19 7.63
7727 12.7240 47.30 57.17 6.88
7728 12.7250 64.26 57.15 8.04
7729 12.7260 64.79 57.14 8.07
7730 12.7270 65.90 57.12 8.11
7731 12.7280 57.27 57.11 7.58
7732 12.7290 68.35 57.09 8.31
7733 12.7300 52.45 57.08 7.30
7734 12.7310 58.91 57.06 7.73
7735 12.7320 55.85 57.05 7.49
7736 12.7330 55.81 57.03 7.42
7737 12.7340 56.58 57.02 7.48
7738 12.7350 57.69 57.01 7.58
7739 12.7360 56.48 56.99 7.54
7740 12.7370 70.06 56.98 8.38
7741 12.7380 56.17 56.97 7.49
7742 12.7390 59.24 56.95 7.69
7743 12.7400 52.21 56.94 7.34
7744 12.7410 66.27 56.93 8.20
7745 12.7420 79.68 56.91 8.92
7746 12.7430 46.94 56.90 6.83
7747 12.7440 57.91 56.89 7.57
7748 12.7450 61.41 56.88 7.87
7749 12.7460 62.95 56.86 7.97
7750 12.7470 60.02 56.85 7.76
7751 12.7480 57.61 56.84 7.57
7752 12.7490 62.43 56.83 7.93
7753 12.7500 60.79 56.34 7.87
7754 12.7510 72.07 56.33 8.56
7755 12.7520 70.68 56.32 8.43
7756 12.7530 71.74 55.39 8.52
7757 12.7540 56.04 55.39 7.49
7758 12.7550 60.35 55.39 7.77
7759 12.7560 57.57 55.39 7.62
7760 12.7570 56.37 55.39 7.48
7761 12.7580 59.58 55.39 7.68
7762 12.7590 67.58 55.39 8.20
7763 12.7600 56.26 55.39 7.54
7764 12.7610 52.94 55.39 7.33
7765 12.7620 56.46 55.39 7.55
7766 12.7630 59.35 55.39 7.70
7767 12.7640 56.41 55.39 7.50
7768 12.7650 58.85 55.39 7.66
7769 12.7660 51.81 55.39 7.23
7770 12.7670 59.44 55.39 7.70
7771 12.7680 71.73 55.39 8.43
7772 12.7690 62.54 55.39 7.91
7773 12.7700 65.60 55.39 8.14
7774 12.7710 64.45 55.39 8.08
7775 12.7720 60.02 55.39 7.78
7776 12.7730 53.43 55.39 7.27
7777 12.7740 58.19 55.39 7.61
7778 12.7750 61.44 55.39 7.84
7779 12.7760 53.36 55.39 7.34
7780 12.7770 57.05 55.39 7.59
7781 12.7780 48.01 55.39 6.93
7782 12.7790 54.70 55.39 7.41
7783 12.7800 66.04 55.39 8.17
7784 12.7810 71.80 55.39 8.51
7785 12.7820 50.71 55.39 7.09
7786 12.7830 57.96 55.39 7.60
7787 12.7840 68.30 55.39 8.23
7788 12.7850 77.81 55.39 8.80
7789 12.7860 74.92 55.39 8.66
7790 12.7870 54.61 55.39 7.38
7791 12.7880 70.80 55.39 8.38
7792 12.7890 66.21 55.39 8.12
7793 12.7900 72.93 55.39 8.57
7794 12.7910 59.24 55.39 7.75
7795 12.7920 55.01 55.39 7.42
7796 12.7930 64.17 55.39 7.96
7797 12.7940 66.00 55.39 8.06
7798 12.7950 51.61 55.39 7.20
7799 12.7960 49.75 55.39 7.11
7800 12.7970 60.58 55.39 7.77
7801 12.7980 63.11 55.39 7.91
7802 12.7990 70.53 55.39 8.43
7803 12.8000 55.71 55.39 7.50
7804 12.8010 62.92 55.39 8.00
7805 12.8020 55.54 55.39 7.49
7806 12.8030 64.45 55.39 7.99
7807 12.8040 75.94 55.39 8.70
7808 12.8050 68.01 55.39 8.23
7809 12.8060 65.02 55.39 8.06
7810 12.8070 56.93 55.39 7.52
7811 12.8080 53.20 55.39 7.24
7812 12.8090 69.31 55.39 8.29
7813 12.8100 48.45 55.39 6.98
7814 12.8110 68.50 55.39 8.32
7815 12.8120 62.30 55.39 7.93
7816 12.8130 56.71 55.39 7.49
7817 12.8140 66.11 55.39 8.11
7818 12.8150 58.58 55.39 7.64
7819 12.8160 62.72 55.39 7.94
7820 12.8170 61.83 55.39 7.83
7821 12.8180 62.97 55.39 7.90
7822 12.8190 55.33 55.39 7.45
7823 12.8200 56.34 55.39 7.58
7824 12.8210 60.24 55.39 7.84
7825 12.8220 49.85 55.39 7.07
7826 12.8230 49.23 55.39 7.01
7827 12.8240 64.96 55.39 8.03
7828 12.8250 54.53 55.39 7.35
7829 12.8260 76.21 55.39 8.75
7830 12.8270 57.76 55.39 7.60
7831 12.8280 55.99 55.40 7.50
7832 12.8290 58.29 55.40 7.61
7833 12.8300 62.49 55.40 7.94
7834 12.8310 63.12 55.40 7.95
7835 12.8320 77.09 55.40 8.76
7836 12.8330 58.38 55.41 7.59
7837 12.8340 56.38 55.41 7.46
7838 12.8350 50.93 55.42 7.13
7839 12.8360 51.08 55.42 7.17
7840 12.8370 47.08 55.43 6.86
7841 12.8380 56.48 55.44 7.47
7842 12.8390 62.97 55.45 7.90
7843 12.8400 49.35 55.47 7.04
7844 12.8410 54.63 55.49 7.44
7845 12.8420 55.33 55.53 7.43
7846 12.8430 48.91 55.57 6.97
7847 12.8440 57.16 55.63 7.55
7848 12.8450 61.34 55.70 7.84
7849 12.8460 67.44 55.78 8.24
7850 12.8470 58.60 55.86 7.61
7851 12.8480 63.65 55.92 7.93
7852 12.8490 68.29 55.93 8.27
7853 12.8500 59.50 55.89 7.74
7854 12.8510 66.79 55.81 8.24
7855 12.8520 64.37 55.73 8.03
7856 12.8530 77.23 55.65 8.82
7857 12.8540 65.63 55.59 8.07
7858 12.8550 64.28 55.54 7.99
7859 12.8560 64.32 55.50 8.00
7860 12.8570 53.01 55.48 7.25
7861 12.8580 55.04 55.46 7.39
7862 12.8590 58.63 55.44 7.65
7863 12.8600 60.63 55.43 7.80
7864 12.8610 61.40 55.42 7.89
7865 12.8620 55.18 55.42 7.44
7866 12.8630 52.52 55.41 7.22
7867 12.8640 73.65 55.41 8.51
7868 12.8650 50.91 55.40 7.15
7869 12.8660 52.08 55.40 7.24
7870 12.8670 53.66 55.40 7.32
7871 12.8680 50.96 55.40 7.12
7872 12.8690 63.96 55.39 8.00
7873 12.8700 58.22 55.39 7.69
7874 12.8710 53.52 55.39 7.38
7875 12.8720 65.75 55.39 8.14
7876 12.8730 50.79 55.39 7.11
7877 12.8740 58.11 55.39 7.59
7878 12.8750 58.39 55.39 7.67
7879 12.8760 72.97 55.39 8.58
7880 12.8770 58.24 55.39 7.62
7881 12.8780 57.02 55.39 7.53
7882 12.8790 61.17 55.38 7.83
7883 12.8800 62.02 55.38 7.91
7884 12.8810 41.32 55.38 6.45
7885 12.8820 53.49 55.38 7.28
7886 12.8830 49.42 55.38 6.99
7887 12.8840 71.31 55.38 8.38
7888 12.8850 51.24 55.38 7.14
7889 12.8860 49.52 55.38 7.05
7890 12.8870 52.11 55.38 7.24
7891 12.8880 56.29 55.38 7.48
7892 12.8890 45.74 55.38 6.74
7893 12.8900 58.98 55.38 7.71
7894 12.8910 68.85 55.38 8.38
7895 12.8920 60.56 55.38 7.79
7896 12.8930 73.89 55.38 8.56
7897 12.8940 57.24 55.38 7.56
7898 12.8950 63.05 55.38 7.98
7899 12.8960 62.30 55.38 7.91
7900 12.8970 52.90 55.38 7.28
7901 12.8980 52.10 55.38 7.20
7902 12.8990 59.59 55.38 7.74
7903 12.9000 67.72 55.38 8.31
7904 12.9010 67.47 55.38 8.31
7905 12.9020 51.54 55.38 7.20
7906 12.9030 62.34 55.38 7.88
7907 12.9040 50.09 55.38 7.04
7908 12.9050 68.22 55.38 8.22
7909 12.9060 59.48 55.38 7.71
7910 12.9070 53.73 55.38 7.33
7911 12.9080 55.91 55.38 7.44
7912 12.9090 56.40 55.38 7.50
7913 12.9100 58.95 55.38 7.72
7914 12.9110 60.86 55.38 7.86
7915 12.9120 55.49 55.38 7.46
7916 12.9130 80.56 55.38 8.91
7917 12.9140 60.44 55.38 7.75
7918 12.9150 46.34 55.38 6.85
7919 12.9160 59.60 55.38 7.72
7920 12.9170 61.29 55.38 7.83
7921 12.9180 62.74 55.38 7.92
7922 12.9190 60.41 55.38 7.80
7923 12.9200 51.43 55.38 7.23
7924 12.9210 58.83 55.38 7.74
7925 12.9220 60.84 55.38 7.81
7926 12.9230 54.84 55.38 7.39
7927 12.9240 54.81 55.38 7.40
7928 12.9250 47.95 55.38 6.96
7929 12.9260 60.81 55.38 7.84
7930 12.9270 65.46 55.38 8.11
7931 12.9280 55.06 55.38 7.41
7932 12.9290 42.37 55.38 6.50
7933 12.9300 61.80 55.38 7.88
7934 12.9310 64.23 55.38 8.05
7935 12.9320 77.34 55.38 8.79
7936 12.9330 62.13 55.38 7.86
7937 12.9340 55.44 55.38 7.41
7938 12.9350 44.50 55.38 6.69
7939 12.9360 61.73 55.38 7.90
7940 12.9370 65.66 55.38 8.13
7941 12.9380 48.53 55.38 6.97
7942 12.9390 66.48 55.38 8.15
7943 12.9400 53.88 55.38 7.39
7944 12.9410 41.05 55.38 6.47
7945 12.9420 55.06 55.38 7.43
7946 12.9430 67.41 55.38 8.19
7947 12.9440 51.42 55.38 7.19
7948 12.9450 48.36 55.38 7.01
7949 12.9460 60.89 55.38 7.85
7950 12.9470 63.09 55.38 7.98
7951 12.9480 65.46 55.38 8.09
7952 12.9490 70.88 55.38 8.42
7953 12.9500 63.36 55.38 8.02
7954 12.9510 64.36 55.38 8.10
7955 12.9520 61.07 55.38 7.82
7956 12.9530 62.93 55.38 7.91
7957 12.9540 69.14 55.38 8.30
7958 12.9550 50.28 55.38 7.09
7959 12.9560 55.57 55.38 7.48
7960 12.9570 59.72 55.38 7.72
7961 12.9580 54.06 55.38 7.32
7962 12.9590 67.83 55.38 8.28
7963 12.9600 53.75 55.38 7.38
7964 12.9610 63.74 55.38 8.07
7965 12.9620 43.32 55.38 6.61
7966 12.9630 53.89 55.39 7.32
7967 12.9640 68.27 55.39 8.20
7968 12.9650 59.54 55.39 7.72
7969 12.9660 60.58 55.39 7.79
7970 12.9670 56.15 55.39 7.50
7971 12.9680 57.57 55.39 7.59
7972 12.9690 52.55 55.39 7.26
7973 12.9700 47.91 55.39 6.99
7974 12.9710 52.80 55.39 7.33
7975 12.9720 63.90 55.39 7.98
7976 12.9730 49.11 55.39 7.03
7977 12.9740 55.78 55.39 7.46
7978 12.9750 52.33 55.39 7.28
7979 12.9760 57.15 55.39 7.58
7980 12.9770 54.77 55.39 7.43
7981 12.9780 65.93 55.39 8.09
7982 12.9790 60.87 55.39 7.80
7983 12.9800 58.33 55.39 7.66
7984 12.9810 61.98 55.39 7.88
7985 12.9820 66.64 55.39 8.17
7986 12.9830 45.08 55.39 6.72
7987 12.9840 64.38 55.39 7.99
7988 12.9850 64.31 55.39 8.04
7989 12.9860 54.86 55.39 7.45
7990 12.9870 58.03 55.39 7.64
7991 12.9880 62.91 55.39 7.91
7992 12.9890 55.14 55.39 7.42
7993 12.9900 56.50 55.39 7.54
7994 12.9910 52.37 55.39 7.30
7995 12.9920 73.30 55.39 8.55
7996 12.9930 61.13 55.39 7.81
7997 12.9940 76.52 55.39 8.72
7998 12.9950 58.62 55.39 7.68
7999 12.9960 63.81 55.39 8.02
8000 12.9970 56.53 55.39 7.56
8001 12.9980 66.50 55.39 8.16
8002 12.9990 49.67 55.39 7.05
8003 13.0000 63.54 55.39 8.04
8004 13.0010 62.40 55.39 7.94
8005 13.0020 48.57 55.39 7.01
8006 13.0030 68.54 55.39 8.23
8007 13.0040 60.01 55.39 7.69
8008 13.0050 56.60 55.39 7.52
8009 13.0060 59.41 55.39 7.75
8010 13.0070 51.67 55.39 7.18
8011 13.0080 69.33 55.40 8.27
8012 13.0090 57.62 55.40 7.59
8013 13.0100 58.05 55.40 7.67
8014 13.0110 50.43 55.40 7.17
8015 13.0120 58.96 55.40 7.67
8016 13.0130 56.03 55.40 7.47
8017 13.0140 67.19 55.40 8.16
8018 13.0150 51.85 55.40 7.18
8019 13.0160 61.52 55.40 7.85
8020 13.0170 60.49 55.40 7.79
8021 13.0180 65.95 55.40 8.12
8022 13.0190 60.84 55.40 7.82
8023 13.0200 59.65 55.40 7.78
8024 13.0210 67.15 55.40 8.26
8025 13.0220 53.32 55.40 7.32
8026 13.0230 55.33 55.40 7.44
8027 13.0240 56.06 55.40 7.46
8028 13.0250 61.88 55.40 7.85
8029 13.0260 60.82 55.40 7.83
8030 13.0270 51.91 55.40 7.21
8031 13.0280 55.52 55.40 7.40
8032 13.0290 62.17 55.40 7.82
8033 13.0300 60.32 55.40 7.80
8034 13.0310 74.86 55.40 8.69
8035 13.0320 49.90 55.40 7.05
8036 13.0330 46.00 55.40 6.75
8037 13.0340 67.38 55.40 8.17
8038 13.0350 58.40 55.40 7.64
8039 13.0360 51.71 55.40 7.21
8040 13.0370 60.27 55.40 7.73
8041 13.0380 54.58 55.40 7.36
8042 13.0390 69.09 55.40 8.30
8043 13.0400 49.59 55.40 7.07
8044 13.0410 65.05 55.41 8.11
8045 13.0420 55.43 55.41 7.42
8046 13.0430 58.24 55.41 7.62
8047 13.0440 51.53 55.41 7.15
8048 13.0450 56.48 55.41 7.51
8049 13.0460 61.76 55.41 7.90
8050 13.0470 71.75 55.41 8.48
8051 13.0480 49.00 55.41 7.00
8052 13.0490 44.23 55.41 6.65
8053 13.0500 52.88 55.41 7.30
8054 13.0510 56.14 55.41 7.53
8055 13.0520 50.29 55.41 7.07
8056 13.0530 70.72 55.41 8.34
8057 13.0540 69.98 55.41 8.32
8058 13.0550 74.21 55.41 8.58
8059 13.0560 61.68 55.41 7.85
8060 13.0570 48.33 55.41 6.94
8061 13.0580 53.46 55.41 7.30
8062 13.0590 48.48 55.41 6.95
8063 13.0600 59.48 55.41 7.74
8064 13.0610 61.86 55.41 7.92
8065 13.0620 62.39 55.41 7.88
8066 13.0630 60.03 55.41 7.72
8067 13.0640 63.41 55.41 7.92
8068 13.0650 59.06 55.41 7.65
8069 13.0660 58.28 55.41 7.63
8070 13.0670 62.69 55.41 7.92
8071 13.0680 58.50 55.42 7.62
8072 13.0690 58.68 55.42 7.66
8073 13.0700 78.42 55.42 8.92
8074 13.0710 54.09 55.42 7.41
8075 13.0720 57.18 55.42 7.58
8076 13.0730 64.43 55.42 8.01
8077 13.0740 74.88 55.42 8.61
8078 13.0750 56.54 55.42 7.51
8079 13.0760 66.45 55.42 8.13
8080 13.0770 61.65 55.42 7.81
8081 13.0780 63.24 55.42 7.89
8082 13.0790 68.72 55.42 8.27
8083 13.0800 59.69 55.42 7.73
8084 13.0810 59.15 55.42 7.72
8085 13.0820 51.76 55.42 7.17
8086 13.0830 50.70 55.42 7.13
8087 13.0840 52.78 55.42 7.22
8088 13.0850 61.19 55.42 7.83
8089 13.0860 48.91 55.42 7.01
8090 13.0870 53.45 55.42 7.31
8091 13.0880 60.71 55.42 7.77
8092 13.0890 58.38 55.42 7.63
8093 13.0900 49.59 55.42 7.07
8094 13.0910 61.82 55.42 7.92
8095 13.0920 50.02 55.42 7.07
8096 13.0930 64.66 55.43 8.03
8097 13.0940 65.84 55.43 8.07
8098 13.0950 77.90 55.43 8.83
8099 13.0960 71.23 55.43 8.47
8100 13.0970 62.25 55.43 7.91
8101 13.0980 56.35 55.43 7.50
8102 13.0990 65.57 55.43 8.08
8103 13.1000 56.97 55.43 7.61
8104 13.1010 63.85 55.43 8.04
8105 13.1020 69.28 55.43 8.30
8106 13.1030 57.36 55.43 7.54
8107 13.1040 52.02 55.43 7.16
8108 13.1050 62.36 55.43 7.89
8109 13.1060 65.96 55.43 8.14
8110 13.1070 66.05 55.43 8.11
8111 13.1080 51.73 55.43 7.19
8112 13.1090 66.56 55.43 8.15
8113 13.1100 50.13 55.43 7.14
8114 13.1110 51.17 55.43 7.19
8115 13.1120 62.55 55.43 7.90
8116 13.1130 55.45 55.43 7.42
8117 13.1140 59.25 55.43 7.68
8118 13.1150 56.03 55.44 7.49
8119 13.1160 56.81 55.44 7.54
8120 13.1170 52.28 55.44 7.23
8121 13.1180 49.33 55.44 7.03
8122 13.1190 51.69 55.44 7.21
8123 13.1200 50.09 55.44 7.13
8124 13.1210 55.64 55.44 7.53
8125 13.1220 52.08 55.44 7.26
8126 13.1230 55.67 55.44 7.45
8127 13.1240 59.58 55.44 7.71
8128 13.1250 58.78 55.44 7.66
8129 13.1260 64.79 55.44 8.08
8130 13.1270 61.47 55.44 7.81
8131 13.1280 62.56 55.44 7.87
8132 13.1290 60.12 55.44 7.73
8133 13.1300 53.34 55.44 7.33
8134 13.1310 55.61 55.44 7.51
8135 13.1320 60.33 55.44 7.78
8136 13.1330 41.72 55.44 6.44
8137 13.1340 51.27 55.44 7.14
8138 13.1350 51.00 55.45 7.15
8139 13.1360 61.76 55.45 7.87
8140 13.1370 57.93 55.45 7.60
8141 13.1380 67.11 55.45 8.17
8142 13.1390 62.64 55.45 7.91
8143 13.1400 71.37 55.45 8.50
8144 13.1410 54.44 55.45 7.44
8145 13.1420 75.23 55.45 8.64
8146 13.1430 63.94 55.45 7.98
8147 13.1440 51.57 55.45 7.19
8148 13.1450 59.86 55.45 7.76
8149 13.1460 67.04 55.45 8.23
8150 13.1470 45.04 55.45 6.75
8151 13.1480 66.77 55.45 8.15
8152 13.1490 54.04 55.45 7.35
8153 13.1500 55.16 55.45 7.45
8154 13.1510 57.79 55.45 7.64
8155 13.1520 63.35 55.45 7.92
8156 13.1530 67.56 55.45 8.17
8157 13.1540 57.02 55.46 7.51
8158 13.1550 72.91 55.46 8.55
8159 13.1560 56.09 55.46 7.51
8160 13.1570 49.34 55.46 7.01
8161 13.1580 55.28 55.46 7.42
8162 13.1590 57.04 55.46 7.60
8163 13.1600 69.31 55.46 8.36
8164 13.1610 56.27 55.46 7.56
8165 13.1620 56.20 55.46 7.49
8166 13.1630 57.88 55.46 7.57
8167 13.1640 59.80 55.46 7.71
8168 13.1650 52.56 55.46 7.23
8169 13.1660 74.15 55.46 8.64
8170 13.1670 59.80 55.46 7.73
8171 13.1680 61.16 55.46 7.84
8172 13.1690 60.50 55.46 7.81
8173 13.1700 76.32 55.46 8.83
8174 13.1710 59.33 55.46 7.78
8175 13.1720 58.19 55.47 7.64
8176 13.1730 56.59 55.47 7.50
8177 13.1740 55.30 55.47 7.42
8178 13.1750 60.64 55.47 7.76
8179 13.1760 59.99 55.47 7.78
8180 13.1770 61.93 55.47 7.85
8181 13.1780 67.28 55.47 8.17
8182 13.1790 56.78 55.47 7.53
8183 13.1800 52.98 55.47 7.33
8184 13.1810 56.95 55.47 7.61
8185 13.1820 67.91 55.47 8.27
8186 13.1830 64.59 55.47 8.02
8187 13.1840 65.34 55.47 8.06
8188 13.1850 60.12 55.47 7.75
8189 13.1860 56.94 55.47 7.56
8190 13.1870 64.70 55.47 8.01
8191 13.1880 69.60 55.47 8.29
8192 13.1890 40.10 55.48 6.34
8193 13.1900 52.71 55.48 7.28
8194 13.1910 58.55 55.48 7.69
8195 13.1920 71.58 55.48 8.47
8196 13.1930 63.91 55.48 7.99
8197 13.1940 55.33 55.48 7.43
8198 13.1950 49.94 55.48 7.11
8199 13.1960 58.12 55.48 7.69
8200 13.1970 58.46 55.48 7.65
8201 13.1980 60.19 55.48 7.76
8202 13.1990 68.69 55.48 8.30
8203 13.2000 64.59 55.48 8.07
8204 13.2010 57.79 55.48 7.65
8205 13.2020 58.35 55.48 7.66
8206 13.2030 59.52 55.48 7.70
8207 13.2040 64.55 55.49 8.01
8208 13.2050 51.77 55.49 7.21
8209 13.2060 65.68 55.49 8.10
8210 13.2070 58.41 55.49 7.63
8211 13.2080 47.35 55.49 6.86
8212 13.2090 49.57 55.49 7.02
8213 13.2100 56.74 55.49 7.59
8214 13.2110 66.42 55.49 8.20
8215 13.2120 49.25 55.49 7.00
8216 13.2130 42.05 55.49 6.46
8217 13.2140 65.65 55.49 8.07
8218 13.2150 49.47 55.49 7.02
8219 13.2160 52.00 55.49 7.24
8220 13.2170 57.87 55.49 7.62
8221 13.2180 69.83 55.49 8.35
8222 13.2190 52.65 55.49 7.27
8223 13.2200 54.19 55.50 7.42
8224 13.2210 64.47 55.50 8.10
8225 13.2220 57.75 55.50 7.62
8226 13.2230 56.15 55.50 7.47
8227 13.2240 70.21 55.50 8.32
8228 13.2250 76.78 55.50 8.76
8229 13.2260 57.49 55.50 7.61
8230 13.2270 60.95 55.50 7.81
8231 13.2280 46.37 55.50 6.81
8232 13.2290 57.37 55.50 7.52
8233 13.2300 69.84 55.50 8.39
8234 13.2310 48.58 55.50 6.99
8235 13.2320 59.04 55.50 7.69
8236 13.2330 59.77 55.50 7.72
8237 13.2340 74.81 55.51 8.61
8238 13.2350 58.09 55.51 7.64
8239 13.2360 50.28 55.51 7.10
8240 13.2370 68.30 55.51 8.24
8241 13.2380 66.48 55.51 8.12
8242 13.2390 61.58 55.51 7.86
8243 13.2400 73.30 55.51 8.61
8244 13.2410 53.20 55.51 7.37
8245 13.2420 59.65 55.51 7.74
8246 13.2430 45.15 55.51 6.73
8247 13.2440 51.97 55.51 7.21
8248 13.2450 62.94 55.51 7.95
8249 13.2460 67.77 55.51 8.29
8250 13.2470 52.45 55.51 7.26
8251 13.2480 52.99 55.51 7.26
8252 13.2490 55.16 55.52 7.42
8253 13.2500 58.83 55.52 7.70
8254 13.2510 43.25 55.52 6.64
8255 13.2520 65.74 55.52 8.10
8256 13.2530 69.01 55.52 8.29
8257 13.2540 65.24 55.52 8.04
8258 13.2550 70.83 55.52 8.41
8259 13.2560 44.40 55.52 6.69
8260 13.2570 63.95 55.52 7.99
8261 13.2580 48.15 55.52 6.94
8262 13.2590 45.95 55.52 6.79
8263 13.2600 59.24 55.52 7.76
8264 13.2610 65.40 55.52 8.17
8265 13.2620 61.05 55.53 7.81
8266 13.2630 63.47 55.53 7.95
8267 13.2640 66.95 55.53 8.14
8268 13.2650 64.41 55.53 8.03
8269 13.2660 55.84 55.53 7.49
8270 13.2670 58.91 55.53 7.72
8271 13.2680 61.24 55.53 7.87
8272 13.2690 57.80 55.53 7.62
8273 13.2700 54.43 55.53 7.47
8274 13.2710 67.48 55.53 8.29
8275 13.2720 63.88 55.53 7.98
8276 13.2730 58.05 55.53 7.59
8277 13.2740 57.34 55.53 7.54
8278 13.2750 55.43 55.53 7.45
8279 13.2760 69.23 55.54 8.34
8280 13.2770 57.87 55.54 7.60
8281 13.2780 63.63 55.54 7.96
8282 13.2790 57.20 55.54 7.56
8283 13.2800 58.22 55.54 7.69
8284 13.2810 56.84 55.54 7.60
8285 13.2820 59.97 55.54 7.78
8286 13.2830 70.63 55.54 8.37
8287 13.2840 62.47 55.54 7.89
8288 13.2850 57.74 55.54 7.60
8289 13.2860 57.55 55.54 7.60
8290 13.2870 53.57 55.54 7.32
8291 13.2880 68.19 55.54 8.23
8292 13.2890 39.10 55.55 6.28
8293 13.2900 62.23 55.55 7.94
8294 13.2910 68.63 55.55 8.37
8295 13.2920 62.11 55.55 7.90
8296 13.2930 59.54 55.55 7.73
8297 13.2940 59.93 55.55 7.75
8298 13.2950 60.98 55.55 7.84
8299 13.2960 46.07 55.55 6.82
8300 13.2970 60.42 55.55 7.77
8301 13.2980 53.50 55.55 7.28
8302 13.2990 61.10 55.55 7.81
8303 13.3000 64.25 55.55 8.04
8304 13.3010 72.19 55.56 8.56
8305 13.3020 58.97 55.56 7.68
8306 13.3030 59.03 55.56 7.67
8307 13.3040 64.65 55.56 8.00
8308 13.3050 69.15 55.56 8.32
8309 13.3060 67.90 55.56 8.29
8310 13.3070 68.02 55.56 8.24
8311 13.3080 77.93 55.56 8.82
8312 13.3090 55.59 55.56 7.47
8313 13.3100 56.06 56.11 7.57
8314 13.3110 55.19 56.12 7.50
8315 13.3120 56.63 56.68 7.56
8316 13.3130 63.03 56.69 7.91
8317 13.3140 66.50 57.25 8.14
8318 13.3150 58.70 57.26 7.71
8319 13.3160 74.45 57.28 8.68
8320 13.3170 49.21 57.29 7.04
8321 13.3180 50.67 57.31 7.12
8322 13.3190 51.54 57.32 7.19
8323 13.3200 69.99 57.33 8.46
8324 13.3210 73.96 57.35 8.68
8325 13.3220 52.82 57.36 7.29
8326 13.3230 56.27 57.38 7.47
8327 13.3240 62.99 57.39 7.91
8328 13.3250 64.28 57.41 8.02
8329 13.3260 49.97 57.42 7.09
8330 13.3270 57.37 57.44 7.58
8331 13.3280 68.92 57.45 8.29
8332 13.3290 52.17 57.47 7.24
8333 13.3300 45.40 57.48 6.80
8334 13.3310 64.53 57.50 8.12
8335 13.3320 68.66 57.52 8.33
8336 13.3330 75.17 57.53 8.67
8337 13.3340 58.02 57.55 7.61
8338 13.3350 63.07 57.57 7.95
8339 13.3360 52.75 57.58 7.28
8340 13.3370 49.60 57.60 7.06
8341 13.3380 55.35 57.62 7.43
8342 13.3390 60.47 57.64 7.81
8343 13.3400 60.38 57.65 7.82
8344 13.3410 53.50 57.67 7.40
8345 13.3420 65.88 57.69 8.15
8346 13.3430 68.56 57.71 8.29
8347 13.3440 51.18 57.73 7.18
8348 13.3450 63.57 57.75 8.02
8349 13.3460 62.42 57.76 7.93
8350 13.3470 56.77 57.78 7.55
8351 13.3480 55.41 57.80 7.45
8352 13.3490 56.65 57.82 7.54
8353 13.3500 66.73 57.84 8.20
8354 13.3510 64.89 57.86 8.14
8355 13.3520 66.48 57.88 8.17
8356 13.3530 50.83 57.91 7.13
8357 13.3540 60.29 57.93 7.74
8358 13.3550 61.84 57.95 7.89
8359 13.3560 73.42 57.97 8.62
8360 13.3570 64.55 57.99 8.06
8361 13.3580 62.12 58.01 7.86
8362 13.3590 68.60 58.04 8.31
8363 13.3600 58.58 58.06 7.68
8364 13.3610 66.18 58.08 8.22
8365 13.3620 62.20 58.11 7.90
8366 13.3630 66.36 58.13 8.14
8367 13.3640 66.22 58.15 8.11
8368 13.3650 68.55 58.18 8.32
8369 13.3660 72.37 58.20 8.57
8370 13.3670 51.10 58.23 7.21
8371 13.3680 63.02 58.25 7.94
8372 13.3690 65.11 58.28 8.13
8373 13.3700 61.86 58.30 7.93
8374 13.3710 50.15 58.33 7.17
8375 13.3720 57.83 58.36 7.63
8376 13.3730 68.01 58.39 8.25
8377 13.3740 60.72 58.41 7.79
8378 13.3750 71.98 58.44 8.50
8379 13.3760 70.21 58.47 8.40
8380 13.3770 52.31 58.50 7.25
8381 13.3780 70.39 58.53 8.33
8382 13.3790 58.93 58.56 7.68
8383 13.3800 58.01 58.59 7.67
8384 13.3810 58.94 58.62 7.75
8385 13.3820 58.48 58.65 7.69
8386 13.3830 69.57 58.68 8.34
8387 13.3840 51.71 58.71 7.17
8388 13.3850 50.09 58.74 7.11
8389 13.3860 52.57 58.78 7.28
8390 13.3870 67.02 58.81 8.19
8391 13.3880 54.89 58.84 7.39
8392 13.3890 70.31 58.88 8.39
8393 13.3900 56.93 58.91 7.62
8394 13.3910 62.89 58.95 8.02
8395 13.3920 67.70 58.98 8.27
8396 13.3930 69.25 59.02 8.36
8397 13.3940 65.72 59.06 8.10
8398 13.3950 77.07 59.09 8.81
8399 13.3960 66.52 59.13 8.17
8400 13.3970 75.93 59.17 8.71
8401 13.3980 65.98 59.21 8.12
8402 13.3990 56.77 59.25 7.55
8403 13.4000 74.28 59.29 8.68
8404 13.4010 78.16 59.33 8.90
8405 13.4020 82.12 59.37 9.09
8406 13.4030 49.89 59.42 7.08
8407 13.4040 68.04 59.46 8.21
8408 13.4050 73.22 59.51 8.55
8409 13.4060 65.52 59.55 8.13
8410 13.4070 53.04 59.60 7.29
8411 13.4080 61.62 59.64 7.84
8412 13.4090 66.00 59.69 8.14
8413 13.4100 63.90 59.74 8.02
8414 13.4110 61.18 59.79 7.90
8415 13.4120 58.00 59.84 7.62
8416 13.4130 69.54 59.89 8.33
8417 13.4140 57.27 59.94 7.55
8418 13.4150 62.79 59.99 7.94
8419 13.4160 63.29 60.04 8.01
8420 13.4170 58.79 60.10 7.70
8421 13.4180 62.19 60.15 7.91
8422 13.4190 74.49 60.21 8.65
8423 13.4200 71.36 60.27 8.52
8424 13.4210 79.22 60.33 8.95
8425 13.4220 54.56 60.38 7.37
8426 13.4230 47.78 60.45 6.91
8427 13.4240 78.96 60.51 8.86
8428 13.4250 68.33 60.57 8.31
8429 13.4260 59.67 60.63 7.75
8430 13.4270 81.50 60.70 9.02
8431 13.4280 65.79 60.77 8.09
8432 13.4290 77.18 60.83 8.76
8433 13.4300 62.74 60.90 7.97
8434 13.4310 61.35 60.97 7.90
8435 13.4320 69.47 61.05 8.35
8436 13.4330 54.89 61.12 7.41
8437 13.4340 76.30 61.20 8.71
8438 13.4350 76.99 61.27 8.76
8439 13.4360 77.17 61.35 8.85
8440 13.4370 59.08 61.43 7.68
8441 13.4380 58.40 61.51 7.61
8442 13.4390 69.77 61.60 8.36
8443 13.4400 64.36 61.68 8.11
8444 13.4410 70.11 61.77 8.46
8445 13.4420 67.04 61.86 8.23
8446 13.4430 81.36 61.95 9.00
8447 13.4440 62.25 62.04 7.89
8448 13.4450 58.35 62.14 7.67
8449 13.4460 66.55 62.23 8.18
8450 13.4470 62.40 62.33 7.90
8451 13.4480 75.56 62.44 8.69
8452 13.4490 70.97 62.54 8.43
8453 13.4500 67.52 62.65 8.29
8454 13.4510 62.39 62.76 7.98
8455 13.4520 73.81 62.87 8.63
8456 13.4530 58.33 62.99 7.63
8457 13.4540 65.67 63.11 8.08
8458 13.4550 67.15 63.23 8.19
8459 13.4560 62.88 63.36 7.96
8460 13.4570 76.13 63.49 8.73
8461 13.4580 66.86 63.63 8.15
8462 13.4590 64.91 63.77 8.07
8463 13.4600 54.89 63.92 7.45
8464 13.4610 67.45 64.08 8.29
8465 13.4620 64.95 64.26 8.07
8466 13.4630 57.72 64.44 7.58
8467 13.4640 72.67 64.65 8.51
8468 13.4650 72.99 64.89 8.53
8469 13.4660 66.67 65.15 8.23
8470 13.4670 76.21 65.45 8.75
8471 13.4680 66.02 65.78 8.13
8472 13.4690 63.70 66.13 8.00
8473 13.4700 69.34 66.48 8.36
8474 13.4710 56.99 66.77 7.61
8475 13.4720 71.07 66.96 8.43
8476 13.4730 68.14 67.05 8.19
8477 13.4740 81.70 67.07 8.97
8478 13.4750 73.68 67.07 8.56
8479 13.4760 71.76 67.10 8.50
8480 13.4770 59.62 67.15 7.72
8481 13.4780 71.37 67.25 8.39
8482 13.4790 61.27 67.37 7.81
8483 13.4800 76.03 67.53 8.75
8484 13.4810 76.41 67.71 8.78
8485 13.4820 54.54 67.91 7.39
8486 13.4830 73.30 68.12 8.53
8487 13.4840 77.92 68.36 8.82
8488 13.4850 84.82 68.60 9.20
8489 13.4860 76.45 68.85 8.78
8490 13.4870 80.75 69.12 9.00
8491 13.4880 68.88 69.39 8.28
8492 13.4890 77.16 69.68 8.78
8493 13.4900 70.59 69.98 8.47
8494 13.4910 63.06 70.28 8.02
8495 13.4920 77.99 70.60 8.85
8496 13.4930 78.73 70.93 8.87
8497 13.4940 62.48 71.27 7.90
8498 13.4950 68.20 71.63 8.28
8499 13.4960 65.33 72.00 8.10
8500 13.4970 80.64 72.37 8.94
8501 13.4980 79.75 72.77 8.87
8502 13.4990 66.26 73.18 8.10
8503 13.5000 61.57 73.60 7.90
8504 13.5010 80.27 74.04 9.00
8505 13.5020 61.18 74.50 7.87
8506 13.5030 69.24 74.97 8.30
8507 13.5040 61.54 75.46 7.84
8508 13.5050 90.59 75.97 9.51
8509 13.5060 84.70 76.50 9.22
8510 13.5070 77.12 77.06 8.76
8511 13.5080 84.13 77.63 9.16
8512 13.5090 89.19 78.23 9.44
8513 13.5100 91.76 78.85 9.62
8514 13.5110 79.08 79.50 8.96
8515 13.5120 73.54 80.18 8.59
8516 13.5130 81.86 80.89 9.03
8517 13.5140 82.58 81.63 9.03
8518 13.5150 88.22 82.40 9.43
8519 13.5160 64.86 83.20 8.14
8520 13.5170 84.91 84.05 9.23
8521 13.5180 83.85 84.93 9.17
8522 13.5190 86.49 85.85 9.29
8523 13.5200 86.81 86.82 9.39
8524 13.5210 87.64 87.84 9.40
8525 13.5220 74.26 88.91 8.63
8526 13.5230 83.98 90.03 9.13
8527 13.5240 91.86 91.21 9.57
8528 13.5250 96.77 92.45 9.83
8529 13.5260 94.94 93.75 9.75
8530 13.5270 77.85 95.13 8.82
8531 13.5280 105.12 96.58 10.22
8532 13.5290 112.40 98.12 10.56
8533 13.5300 94.52 99.74 9.74
8534 13.5310 100.21 101.46 10.07
8535 13.5320 101.19 103.29 10.07
8536 13.5330 88.97 105.22 9.42
8537 13.5340 91.59 107.27 9.54
8538 13.5350 98.33 109.45 9.91
8539 13.5360 93.03 111.78 9.72
8540 13.5370 89.21 114.25 9.47
8541 13.5380 91.08 116.90 9.52
8542 13.5390 102.00 119.73 10.09
8543 13.5400 110.94 122.76 10.66
8544 13.5410 108.19 126.01 10.52
8545 13.5420 88.95 129.49 9.49
8546 13.5430 136.08 133.25 11.65
8547 13.5440 125.24 137.30 11.19
8548 13.5450 126.49 141.68 11.23
8549 13.5460 137.26 146.41 11.77
8550 13.5470 139.32 151.54 11.76
8551 13.5480 115.91 157.13 10.76
8552 13.5490 157.63 163.21 12.53
8553 13.5500 140.96 169.86 11.97
8554 13.5510 161.87 177.14 12.79
8555 13.5520 160.74 185.13 12.75
8556 13.5530 175.75 193.95 13.22
8557 13.5540 196.66 203.67 13.98
8558 13.5550 186.01 214.47 13.64
8559 13.5560 212.19 226.47 14.64
8560 13.5570 246.97 239.88 15.71
8561 13.5580 264.43 254.94 16.30
8562 13.5590 284.42 271.89 16.89
8563 13.5600 297.18 291.09 17.36
8564 13.5610 290.26 312.89 17.09
8565 13.5620 338.80 337.89 18.43
8566 13.5630 360.35 366.65 18.95
8567 13.5640 400.65 399.99 19.98
8568 13.5650 450.98 439.01 21.34
8569 13.5660 502.06 485.09 22.57
8570 13.5670 598.08 540.26 24.54
8571 13.5680 644.74 607.46 25.48
8572 13.5690 774.08 691.12 27.79
8573 13.5700 903.32 797.49 30.23
8574 13.5710 988.88 936.41 31.68
8575 13.5720 1233.58 1121.04 35.23
8576 13.5730 1483.57 1368.81 38.41
8577 13.5740 1739.19 1701.60 41.73
8578 13.5750 2102.89 2143.69 46.01
8579 13.5760 2680.87 2718.48 52.37
8580 13.5770 3355.31 3438.01 58.38
8581 13.5780 4156.17 4290.21 64.85
8582 13.5790 5105.55 5216.04 72.37
8583 13.5800 6122.86 6097.81 80.10
8584 13.5810 7046.72 6801.29 86.06
8585 13.5820 7787.06 7210.24 90.34
8586 13.5830 8006.12 7235.03 91.28
8587 13.5840 7070.20 6829.65 85.81
8588 13.5850 5824.67 6062.43 77.31
8589 13.5860 4790.81 5106.97 70.21
8590 13.5870 3971.31 4147.35 63.51
8591 13.5880 3136.85 3293.55 56.46
8592 13.5890 2705.56 2590.74 52.26
8593 13.5900 2195.43 2038.70 47.43
8594 13.5910 1670.42 1618.33 41.43
8595 13.5920 1350.31 1305.05 37.02
8596 13.5930 1187.27 1073.25 34.45
8597 13.5940 928.35 901.07 30.39
8598 13.5950 814.88 771.18 28.55
8599 13.5960 765.08 671.22 27.86
8600 13.5970 648.32 592.05 25.44
8601 13.5980 501.41 527.97 22.26
8602 13.5990 498.61 475.08 22.33
8603 13.6000 381.52 430.71 19.64
8604 13.6010 381.10 393.02 19.64
8605 13.6020 339.91 360.68 18.47
8606 13.6030 323.68 332.78 17.94
8607 13.6040 283.40 308.47 16.80
8608 13.6050 258.80 287.20 16.08
8609 13.6060 242.39 268.51 15.60
8610 13.6070 231.25 251.95 15.19
8611 13.6080 207.34 237.26 14.37
8612 13.6090 193.80 224.13 13.86
8613 13.6100 174.50 212.38 13.29
8614 13.6110 157.08 201.81 12.58
8615 13.6120 172.12 192.26 13.10
8616 13.6130 144.80 183.63 11.99
8617 13.6140 145.42 175.78 12.02
8618 13.6150 146.18 168.63 12.16
8619 13.6160 139.07 162.10 11.88
8620 13.6170 124.91 156.12 11.22
8621 13.6180 116.55 150.63 10.77
8622 13.6190 135.20 145.57 11.66
8623 13.6200 128.28 140.92 11.41
8624 13.6210 114.86 136.61 10.78
8625 13.6220 123.81 132.62 11.13
8626 13.6230 111.45 128.92 10.50
8627 13.6240 108.20 125.47 10.39
8628 13.6250 92.96 122.27 9.63
8629 13.6260 88.42 119.29 9.43
8630 13.6270 90.57 116.50 9.50
8631 13.6280 103.26 113.88 10.14
8632 13.6290 99.56 111.44 9.96
8633 13.6300 101.46 109.14 10.10
8634 13.6310 82.55 106.99 9.14
8635 13.6320 99.22 104.96 9.97
8636 13.6330 92.85 103.05 9.63
8637 13.6340 97.78 101.25 9.85
8638 13.6350 96.23 99.56 9.80
8639 13.6360 97.67 97.95 9.94
8640 13.6370 101.49 96.43 10.09
8641 13.6380 101.00 95.00 10.04
8642 13.6390 96.77 93.63 9.88
8643 13.6400 98.41 92.34 10.00
8644 13.6410 75.75 91.12 8.85
8645 13.6420 92.55 89.95 9.67
8646 13.6430 92.62 88.84 9.63
8647 13.6440 79.16 87.79 8.88
8648 13.6450 78.50 86.78 8.88
8649 13.6460 66.85 85.82 8.19
8650 13.6470 86.53 84.91 9.30
8651 13.6480 90.70 84.04 9.52
8652 13.6490 73.84 83.20 8.60
8653 13.6500 71.23 82.40 8.51
8654 13.6510 95.42 81.64 9.86
8655 13.6520 74.18 80.91 8.66
8656 13.6530 63.53 80.21 7.95
8657 13.6540 79.73 79.54 8.91
8658 13.6550 66.22 78.90 8.13
8659 13.6560 64.18 78.28 8.04
8660 13.6570 62.10 77.69 7.91
8661 13.6580 81.08 77.12 8.99
8662 13.6590 86.55 76.57 9.30
8663 13.6600 68.79 76.05 8.37
8664 13.6610 76.40 75.54 8.81
8665 13.6620 80.83 75.05 8.99
8666 13.6630 82.72 74.58 9.05
8667 13.6640 76.77 74.13 8.80
8668 13.6650 69.93 73.70 8.41
8669 13.6660 76.37 73.28 8.79
8670 13.6670 74.03 72.87 8.62
8671 13.6680 74.92 72.48 8.67
8672 13.6690 77.28 72.10 8.78
8673 13.6700 76.48 71.74 8.79
8674 13.6710 72.40 71.39 8.58
8675 13.6720 83.50 71.05 9.16
8676 13.6730 73.66 70.72 8.53
8677 13.6740 80.55 70.40 8.93
8678 13.6750 83.42 70.09 9.17
8679 13.6760 77.50 69.79 8.86
8680 13.6770 76.64 69.50 8.76
8681 13.6780 79.22 69.22 8.89
8682 13.6790 65.25 68.95 8.06
8683 13.6800 66.17 68.69 8.21
8684 13.6810 58.41 68.43 7.71
8685 13.6820 60.61 68.19 7.83
8686 13.6830 75.57 67.95 8.69
8687 13.6840 74.53 67.71 8.63
8688 13.6850 59.76 67.49 7.74
8689 13.6860 63.98 67.27 8.05
8690 13.6870 66.80 67.05 8.17
8691 13.6880 87.92 66.85 9.38
8692 13.6890 83.58 66.64 9.16
8693 13.6900 63.13 66.45 8.01
8694 13.6910 78.04 66.26 8.94
8695 13.6920 62.96 66.07 7.96
8696 13.6930 77.54 65.89 8.79
8697 13.6940 67.70 65.72 8.19
8698 13.6950 62.44 65.55 7.90
8699 13.6960 74.12 65.38 8.62
8700 13.6970 63.19 65.22 7.94
8701 13.6980 60.14 65.06 7.74
8702 13.6990 63.74 64.91 7.98
8703 13.7000 57.41 64.76 7.63
8704 13.7010 73.44 64.61 8.67
8705 13.7020 70.82 64.47 8.44
8706 13.7030 70.03 64.33 8.34
8707 13.7040 64.42 64.20 8.03
8708 13.7050 70.85 64.07 8.39
8709 13.7060 87.13 63.94 9.41
8710 13.7070 68.34 63.81 8.29
8711 13.7080 66.72 63.69 8.17
8712 13.7090 72.49 63.57 8.50
8713 13.7100 66.14 63.45 8.20
8714 13.7110 79.61 63.34 8.98
8715 13.7120 70.20 63.23 8.42
8716 13.7130 66.92 63.12 8.16
8717 13.7140 72.52 63.01 8.51
8718 13.7150 73.18 62.91 8.57
8719 13.7160 58.13 62.81 7.72
8720 13.7170 62.93 62.71 7.97
8721 13.7180 80.86 62.61 8.97
8722 13.7190 69.57 62.52 8.34
8723 13.7200 60.48 62.43 7.82
8724 13.7210 54.99 62.34 7.45
8725 13.7220 77.94 62.25 8.81
8726 13.7230 63.12 62.16 7.91
8727 13.7240 67.73 62.08 8.20
8728 13.7250 79.10 61.99 8.92
8729 13.7260 69.08 61.91 8.34
8730 13.7270 75.48 61.83 8.67
8731 13.7280 62.90 61.75 7.92
8732 13.7290 66.61 61.68 8.15
8733 13.7300 72.56 61.60 8.57
8734 13.7310 84.02 61.53 9.22
8735 13.7320 70.05 61.46 8.42
8736 13.7330 68.74 61.39 8.29
8737 13.7340 65.00 61.32 8.03
8738 13.7350 68.91 61.25 8.34
8739 13.7360 60.72 61.19 7.83
8740 13.7370 70.46 61.12 8.41
8741 13.7380 65.95 61.06 8.12
8742 13.7390 67.36 60.99 8.23
8743 13.7400 58.65 60.93 7.76
8744 13.7410 51.26 60.87 7.23
8745 13.7420 59.70 60.81 7.78
8746 13.7430 68.17 60.76 8.24
8747 13.7440 64.58 60.70 8.02
8748 13.7450 57.16 60.64 7.56
8749 13.7460 80.87 60.59 8.98
8750 13.7470 68.80 60.54 8.29
8751 13.7480 55.93 60.48 7.48
8752 13.7490 74.34 60.43 8.60
8753 13.7500 63.66 60.38 8.04
8754 13.7510 57.30 60.33 7.65
8755 13.7520 62.14 60.28 7.89
8756 13.7530 70.77 60.24 8.43
8757 13.7540 73.11 60.19 8.54
8758 13.7550 61.36 60.14 7.85
8759 13.7560 53.82 60.10 7.39
8760 13.7570 61.03 60.05 7.84
8761 13.7580 57.16 60.01 7.59
8762 13.7590 66.00 59.97 8.14
8763 13.7600 64.48 59.92 8.11
8764 13.7610 62.48 59.88 7.98
8765 13.7620 67.61 59.84 8.28
8766 13.7630 71.80 59.80 8.48
8767 13.7640 81.31 59.76 9.01
8768 13.7650 72.36 59.72 8.55
8769 13.7660 63.31 59.69 8.02
8770 13.7670 67.00 59.65 8.25
8771 13.7680 60.74 59.61 7.84
8772 13.7690 62.14 59.58 7.91
8773 13.7700 57.88 59.54 7.66
8774 13.7710 59.07 59.51 7.76
8775 13.7720 47.29 59.47 6.92
8776 13.7730 66.08 59.44 8.11
8777 13.7740 71.61 59.40 8.46
8778 13.7750 52.44 59.37 7.29
8779 13.7760 65.93 59.34 8.22
8780 13.7770 59.48 59.31 7.72
8781 13.7780 71.11 59.28 8.45
8782 13.7790 64.26 59.25 8.05
8783 13.7800 63.64 59.22 8.04
8784 13.7810 66.04 59.19 8.23
8785 13.7820 69.50 59.16 8.37
8786 13.7830 54.87 59.13 7.42
8787 13.7840 75.66 59.10 8.69
8788 13.7850 66.64 59.07 8.20
8789 13.7860 67.93 59.04 8.28
8790 13.7870 60.05 59.02 7.80
8791 13.7880 71.01 58.99 8.42
8792 13.7890 80.70 58.96 9.04
8793 13.7900 59.49 58.95 7.79
8794 13.7910 59.50 58.93 7.79
8795 13.7920 55.84 58.91 7.53
8796 13.7930 66.32 58.88 8.14
8797 13.7940 73.20 58.86 8.53
8798 13.7950 69.65 58.84 8.36
8799 13.7960 60.80 58.81 7.82
8800 13.7970 49.02 58.79 7.03
8801 13.7980 73.41 58.77 8.55
8802 13.7990 61.33 58.74 7.86
8803 13.8000 62.43 58.72 8.00
8804 13.8010 57.86 58.70 7.69
8805 13.8020 63.60 58.68 8.02
8806 13.8030 53.98 58.66 7.35
8807 13.8040 68.61 58.64 8.28
8808 13.8050 70.63 58.62 8.40
8809 13.8060 66.89 58.60 8.23
8810 13.8070 62.30 58.58 7.91
8811 13.8080 64.34 58.56 8.05
8812 13.8090 68.18 58.54 8.26
8813 13.8100 66.46 58.52 8.22
8814 13.8110 64.49 58.50 8.13
8815 13.8120 52.49 58.48 7.29
8816 13.8130 62.79 58.46 7.93
8817 13.8140 65.72 58.44 8.09
8818 13.8150 65.99 58.43 8.16
8819 13.8160 61.05 58.41 7.89
8820 13.8170 63.09 58.39 7.99
8821 13.8180 64.20 58.38 8.03
8822 13.8190 56.93 58.36 7.56
8823 13.8200 64.27 58.34 8.08
8824 13.8210 52.13 58.33 7.27
8825 13.8220 73.31 58.31 8.58
8826 13.8230 72.08 58.29 8.47
8827 13.8240 71.46 58.28 8.45
8828 13.8250 58.70 58.26 7.68
8829 13.8260 80.40 58.25 9.02
8830 13.8270 55.59 58.23 7.48
8831 13.8280 66.96 58.22 8.20
8832 13.8290 75.03 58.20 8.65
8833 13.8300 46.43 58.19 6.86
8834 13.8310 55.11 58.18 7.49
8835 13.8320 65.44 58.16 8.13
8836 13.8330 74.23 58.15 8.61
8837 13.8340 69.78 58.13 8.35
8838 13.8350 67.80 58.12 8.29
8839 13.8360 65.38 58.11 8.17
8840 13.8370 46.20 58.09 6.83
8841 13.8380 55.48 58.08 7.47
8842 13.8390 54.98 58.07 7.44
8843 13.8400 71.39 58.06 8.53
8844 13.8410 59.79 58.04 7.84
8845 13.8420 62.52 58.03 7.95
8846 13.8430 54.89 58.02 7.44
8847 13.8440 51.83 58.01 7.20
8848 13.8450 68.33 58.00 8.28
8849 13.8460 63.57 57.99 7.97
8850 13.8470 71.08 57.97 8.43
8851 13.8480 59.08 57.96 7.69
8852 13.8490 51.02 57.95 7.16
8853 13.8500 56.14 57.94 7.57
8854 13.8510 56.05 57.93 7.57
8855 13.8520 56.32 57.38 7.54
8856 13.8530 73.17 57.37 8.53
8857 13.8540 66.14 56.81 8.12
8858 13.8550 64.55 56.26 8.03
8859 13.8560 55.30 56.26 7.45
8860 13.8570 48.08 56.26 6.94
8861 13.8580 60.45 56.26 7.78
8862 13.8590 72.74 56.26 8.55
8863 13.8600 62.11 56.27 7.98
8864 13.8610 55.26 56.27 7.50
8865 13.8620 64.48 56.27 8.06
8866 13.8630 46.08 56.27 6.80
8867 13.8640 66.59 56.27 8.20
8868 13.8650 64.72 56.28 8.04
8869 13.8660 72.81 56.28 8.62
8870 13.8670 61.67 56.28 7.86
8871 13.8680 63.29 56.28 7.98
8872 13.8690 59.41 56.28 7.71
8873 13.8700 56.34 56.29 7.58
8874 13.8710 71.91 56.29 8.54
8875 13.8720 75.33 56.29 8.71
8876 13.8730 67.15 56.29 8.18
8877 13.8740 66.28 56.29 8.15
8878 13.8750 64.51 56.30 8.05
8879 13.8760 61.89 56.30 7.93
8880 13.8770 60.65 56.30 7.83
8881 13.8780 57.04 56.30 7.57
8882 13.8790 60.24 56.30 7.76
8883 13.8800 57.02 56.31 7.63
8884 13.8810 59.52 56.31 7.78
8885 13.8820 43.13 56.31 6.60
8886 13.8830 69.39 56.31 8.31
8887 13.8840 60.54 56.31 7.79
8888 13.8850 54.37 56.32 7.43
8889 13.8860 57.98 56.32 7.68
8890 13.8870 56.93 56.32 7.56
8891 13.8880 61.27 56.32 7.83
8892 13.8890 64.19 56.32 8.02
8893 13.8900 69.54 56.33 8.42
8894 13.8910 65.31 56.33 8.17
8895 13.8920 67.79 56.33 8.27
8896 13.8930 52.92 56.33 7.26
8897 13.8940 59.18 56.34 7.69
8898 13.8950 63.52 56.34 7.98
8899 13.8960 49.66 56.34 7.08
8900 13.8970 60.09 56.34 7.73
8901 13.8980 70.20 56.34 8.39
8902 13.8990 61.22 56.35 7.84
8903 13.9000 64.02 56.35 8.10
8904 13.9010 63.26 56.35 8.05
8905 13.9020 64.37 56.35 8.05
8906 13.9030 56.15 56.36 7.50
8907 13.9040 55.45 56.36 7.43
8908 13.9050 59.53 56.36 7.71
8909 13.9060 64.72 56.36 8.08
8910 13.9070 59.55 56.36 7.76
8911 13.9080 67.49 56.37 8.24
8912 13.9090 64.73 56.37 8.04
8913 13.9100 65.48 56.37 8.19
8914 13.9110 66.46 56.37 8.25
8915 13.9120 59.15 56.38 7.71
8916 13.9130 60.31 56.38 7.78
8917 13.9140 67.28 56.38 8.21
8918 13.9150 64.74 56.38 8.09
8919 13.9160 56.91 56.39 7.62
8920 13.9170 66.06 56.39 8.15
8921 13.9180 61.40 56.39 7.83
8922 13.9190 53.35 56.39 7.31
8923 13.9200 53.37 56.40 7.36
8924 13.9210 62.49 56.40 7.97
8925 13.9220 53.30 56.40 7.34
8926 13.9230 60.26 56.40 7.78
8927 13.9240 74.90 56.41 8.65
8928 13.9250 66.49 56.41 8.17
8929 13.9260 73.91 56.41 8.66
8930 13.9270 49.70 56.41 7.07
8931 13.9280 61.96 56.42 7.88
8932 13.9290 58.81 56.42 7.65
8933 13.9300 58.10 56.42 7.68
8934 13.9310 64.17 56.43 8.09
8935 13.9320 64.10 56.43 8.02
8936 13.9330 69.95 56.43 8.39
8937 13.9340 78.46 56.43 8.88
8938 13.9350 60.51 56.44 7.83
8939 13.9360 58.34 56.44 7.69
8940 13.9370 62.34 56.44 7.92
8941 13.9380 52.27 56.45 7.22
8942 13.9390 59.66 56.45 7.74
8943 13.9400 60.11 56.45 7.83
8944 13.9410 59.49 56.46 7.79
8945 13.9420 63.89 56.46 8.02
8946 13.9430 70.35 56.46 8.36
8947 13.9440 58.46 56.47 7.65
8948 13.9450 56.99 56.47 7.56
8949 13.9460 70.87 56.47 8.42
8950 13.9470 60.43 56.47 7.77
8951 13.9480 53.79 56.48 7.33
8952 13.9490 56.96 56.48 7.57
8953 13.9500 66.00 56.49 8.19
8954 13.9510 61.64 56.49 7.95
8955 13.9520 61.47 56.49 7.87
8956 13.9530 60.12 56.50 7.76
8957 13.9540 63.55 56.50 7.96
8958 13.9550 60.97 56.50 7.82
8959 13.9560 63.40 56.51 8.03
8960 13.9570 60.88 56.51 7.82
8961 13.9580 57.86 56.51 7.63
8962 13.9590 56.19 56.52 7.54
8963 13.9600 46.28 56.52 6.86
8964 13.9610 57.22 56.53 7.67
8965 13.9620 53.70 56.53 7.36
8966 13.9630 69.83 56.54 8.35
8967 13.9640 62.23 56.54 7.89
8968 13.9650 60.14 56.54 7.78
8969 13.9660 61.49 56.55 7.92
8970 13.9670 77.46 56.55 8.80
8971 13.9680 68.99 56.56 8.33
8972 13.9690 64.02 56.56 7.99
8973 13.9700 67.89 56.57 8.32
8974 13.9710 55.22 56.57 7.51
8975 13.9720 56.35 56.58 7.55
8976 13.9730 68.99 56.58 8.30
8977 13.9740 45.34 56.59 6.76
8978 13.9750 61.90 56.59 7.89
8979 13.9760 62.53 56.60 7.97
8980 13.9770 61.59 56.60 7.86
8981 13.9780 67.21 56.61 8.22
8982 13.9790 61.81 56.62 7.89
8983 13.9800 68.15 56.62 8.32
8984 13.9810 62.68 56.63 8.01
8985 13.9820 67.48 56.63 8.26
8986 13.9830 56.59 56.64 7.53
8987 13.9840 73.93 56.65 8.61
8988 13.9850 76.34 56.65 8.76
8989 13.9860 66.17 56.66 8.21
8990 13.9870 49.22 56.67 7.04
8991 13.9880 64.63 56.68 8.04
8992 13.9890 70.16 56.68 8.40
8993 13.9900 72.43 56.69 8.58
8994 13.9910 81.70 56.70 9.13
8995 13.9920 55.12 56.71 7.46
8996 13.9930 56.54 56.72 7.53
8997 13.9940 58.13 56.73 7.62
8998 13.9950 60.28 56.73 7.78
8999 13.9960 54.76 56.74 7.43
9000 13.9970 70.42 56.75 8.42
9001 13.9980 69.06 56.76 8.31
9002 13.9990 56.27 56.77 7.52
9003 14.0000 62.41 56.79 7.99
9004 14.0010 64.12 56.80 8.10
9005 14.0020 69.59 56.81 8.35
9006 14.0030 65.94 56.82 8.13
9007 14.0040 52.33 56.83 7.25
9008 14.0050 67.74 56.85 8.29
9009 14.0060 57.05 56.86 7.61
9010 14.0070 55.32 56.88 7.48
9011 14.0080 61.03 56.89 7.82
9012 14.0090 62.47 56.91 7.94
9013 14.0100 57.37 56.92 7.65
9014 14.0110 67.08 56.94 8.29
9015 14.0120 67.26 56.96 8.21
9016 14.0130 60.35 56.98 7.80
9017 14.0140 65.14 57.00 8.08
9018 14.0150 59.78 57.02 7.79
9019 14.0160 75.54 57.04 8.78
9020 14.0170 62.91 57.06 7.98
9021 14.0180 70.85 57.09 8.41
9022 14.0190 62.35 57.11 7.93
9023 14.0200 60.70 57.14 7.84
9024 14.0210 75.06 57.17 8.72
9025 14.0220 57.39 57.20 7.60
9026 14.0230 53.44 57.24 7.32
9027 14.0240 58.37 57.27 7.65
9028 14.0250 54.57 57.31 7.43
9029 14.0260 62.91 57.35 8.00
9030 14.0270 62.15 57.39 7.90
9031 14.0280 57.90 57.44 7.64
9032 14.0290 66.29 57.49 8.17
9033 14.0300 60.80 57.54 7.86
9034 14.0310 58.53 57.60 7.76
9035 14.0320 67.91 57.66 8.27
9036 14.0330 61.89 57.72 7.89
9037 14.0340 58.95 57.80 7.69
9038 14.0350 52.19 57.87 7.27
9039 14.0360 66.17 57.96 8.21
9040 14.0370 61.72 58.05 7.90
9041 14.0380 69.74 58.16 8.37
9042 14.0390 59.84 58.27 7.78
9043 14.0400 60.94 58.39 7.90
9044 14.0410 61.90 58.53 7.99
9045 14.0420 60.02 58.68 7.79
9046 14.0430 53.03 58.85 7.29
9047 14.0440 76.23 59.05 8.70
9048 14.0450 71.11 59.26 8.47
9049 14.0460 57.56 59.50 7.61
9050 14.0470 74.03 59.78 8.63
9051 14.0480 73.12 60.10 8.55
9052 14.0490 61.85 60.46 7.90
9053 14.0500 70.32 60.88 8.44
9054 14.0510 52.43 61.37 7.32
9055 14.0520 63.58 61.95 8.00
9056 14.0530 62.74 62.64 7.91
9057 14.0540 75.16 63.47 8.63
9058 14.0550 66.76 64.50 8.16
9059 14.0560 64.29 65.80 8.02
9060 14.0570 64.47 67.50 8.11
9061 14.0580 84.50 69.76 9.18
9062 14.0590 92.63 72.81 9.65
9063 14.0600 78.00 76.93 8.89
9064 14.0610 80.32 82.44 9.06
9065 14.0620 75.52 89.68 8.71
9066 14.0630 92.02 98.87 9.54
9067 14.0640 104.38 110.02 10.17
9068 14.0650 124.26 122.61 11.18
9069 14.0660 126.48 135.21 11.28
9070 14.0670 139.40 145.20 11.81
9071 14.0680 140.59 149.46 11.82
9072 14.0690 116.96 146.44 10.85
9073 14.0700 125.95 137.35 11.27
9074 14.0710 111.90 125.11 10.67
9075 14.0720 116.93 112.44 10.80
9076 14.0730 124.73 101.00 11.13
9077 14.0740 101.72 91.42 10.05
9078 14.0750 88.96 83.82 9.43
9079 14.0760 69.59 77.98 8.38
9080 14.0770 72.88 73.60 8.52
9081 14.0780 85.45 70.36 9.19
9082 14.0790 80.10 67.96 8.91
9083 14.0800 71.33 66.17 8.48
9084 14.0810 76.80 64.79 8.85
9085 14.0820 69.24 63.74 8.35
9086 14.0830 76.97 62.87 8.80
9087 14.0840 65.96 62.16 8.11
9088 14.0850 72.25 61.63 8.55
9089 14.0860 57.91 61.12 7.62
9090 14.0870 57.57 60.69 7.63
9091 14.0880 63.41 60.33 7.94
9092 14.0890 59.34 60.00 7.71
9093 14.0900 66.72 59.72 8.23
9094 14.0910 61.66 59.48 7.95
9095 14.0920 66.13 59.26 8.16
9096 14.0930 69.04 59.07 8.28
9097 14.0940 59.58 58.90 7.71
9098 14.0950 47.47 58.75 6.89
9099 14.0960 64.01 58.61 8.00
9100 14.0970 60.19 58.49 7.77
9101 14.0980 62.03 58.38 7.86
9102 14.0990 52.92 58.28 7.29
9103 14.1000 67.89 58.19 8.31
9104 14.1010 65.03 58.10 8.17
9105 14.1020 51.32 58.03 7.19
9106 14.1030 56.10 57.96 7.46
9107 14.1040 57.92 57.90 7.58
9108 14.1050 52.80 57.84 7.29
9109 14.1060 63.12 57.78 7.98
9110 14.1070 69.22 57.73 8.35
9111 14.1080 56.12 57.69 7.49
9112 14.1090 54.58 57.65 7.40
9113 14.1100 70.00 57.61 8.39
9114 14.1110 64.44 57.57 8.09
9115 14.1120 53.88 57.54 7.35
9116 14.1130 49.23 57.51 7.01
9117 14.1140 51.06 57.48 7.14
9118 14.1150 63.41 57.45 7.98
9119 14.1160 69.04 57.53 8.35
9120 14.1170 60.24 57.51 7.78
9121 14.1180 64.22 57.69 7.99
9122 14.1190 56.64 57.67 7.50
9123 14.1200 53.03 57.66 7.29
9124 14.1210 53.93 57.64 7.41
9125 14.1220 58.92 57.63 7.67
9126 14.1230 67.56 57.61 8.20
9127 14.1240 57.94 57.60 7.61
9128 14.1250 60.82 57.59 7.83
9129 14.1260 63.66 57.58 8.02
9130 14.1270 55.25 57.57 7.45
9131 14.1280 70.16 57.56 8.34
9132 14.1290 65.99 57.55 8.12
9133 14.1300 61.11 57.54 7.84
9134 14.1310 64.06 57.54 8.08
9135 14.1320 63.23 57.53 7.98
9136 14.1330 62.79 57.52 7.94
9137 14.1340 60.31 57.52 7.78
9138 14.1350 71.41 57.51 8.45
9139 14.1360 78.05 57.51 8.86
9140 14.1370 68.30 57.51 8.27
9141 14.1380 53.34 57.50 7.29
9142 14.1390 57.94 57.50 7.60
9143 14.1400 49.54 57.50 7.08
9144 14.1410 62.49 57.50 7.98
9145 14.1420 57.10 57.49 7.58
9146 14.1430 54.07 57.49 7.34
9147 14.1440 53.09 57.49 7.26
9148 14.1450 62.53 57.49 7.94
9149 14.1460 68.88 57.49 8.30
9150 14.1470 65.82 57.49 8.11
9151 14.1480 61.99 57.49 7.85
9152 14.1490 62.11 57.49 7.91
9153 14.1500 62.84 57.49 7.99
9154 14.1510 68.08 57.49 8.31
9155 14.1520 78.49 57.49 8.85
9156 14.1530 58.24 57.50 7.62
9157 14.1540 70.14 57.50 8.36
9158 14.1550 65.37 57.50 8.07
9159 14.1560 55.94 57.50 7.53
9160 14.1570 68.63 57.50 8.32
9161 14.1580 58.61 57.51 7.68
9162 14.1590 60.18 57.51 7.75
9163 14.1600 61.45 57.51 7.87
9164 14.1610 56.61 57.52 7.61
9165 14.1620 55.93 57.52 7.49
9166 14.1630 70.37 57.52 8.37
9167 14.1640 63.09 57.53 7.89
9168 14.1650 62.08 57.53 7.89
9169 14.1660 54.51 57.54 7.42
9170 14.1670 68.45 57.54 8.25
9171 14.1680 59.96 57.54 7.70
9172 14.1690 48.84 57.55 7.00
9173 14.1700 68.80 57.55 8.32
9174 14.1710 71.71 57.56 8.54
9175 14.1720 57.43 57.56 7.55
9176 14.1730 70.45 57.57 8.39
9177 14.1740 55.40 57.57 7.45
9178 14.1750 59.83 57.58 7.75
9179 14.1760 68.27 57.59 8.29
9180 14.1770 57.73 57.59 7.58
9181 14.1780 62.48 57.60 7.87
9182 14.1790 66.87 57.60 8.17
9183 14.1800 66.45 57.61 8.21
9184 14.1810 56.11 57.62 7.55
9185 14.1820 52.49 57.62 7.31
9186 14.1830 58.60 57.63 7.68
9187 14.1840 60.84 57.64 7.81
9188 14.1850 60.39 57.64 7.79
9189 14.1860 56.96 57.65 7.58
9190 14.1870 52.98 57.66 7.30
9191 14.1880 56.70 57.67 7.53
9192 14.1890 56.58 57.67 7.53
9193 14.1900 61.41 57.68 7.90
9194 14.1910 59.59 57.69 7.81
9195 14.1920 68.42 57.70 8.32
9196 14.1930 49.45 57.71 7.04
9197 14.1940 54.65 57.72 7.37
9198 14.1950 49.81 57.72 7.08
9199 14.1960 65.82 57.73 8.16
9200 14.1970 68.85 57.74 8.30
9201 14.1980 66.57 57.75 8.18
9202 14.1990 59.51 57.76 7.72
9203 14.2000 73.59 57.77 8.64
9204 14.2010 57.23 57.78 7.65
9205 14.2020 75.75 57.79 8.71
9206 14.2030 71.38 57.80 8.46
9207 14.2040 68.27 57.81 8.26
9208 14.2050 59.23 57.82 7.72
9209 14.2060 68.17 57.83 8.32
9210 14.2070 63.04 57.84 7.98
9211 14.2080 61.23 57.85 7.82
9212 14.2090 59.02 57.87 7.69
9213 14.2100 64.89 57.88 8.09
9214 14.2110 63.94 57.89 8.08
9215 14.2120 62.89 57.90 7.97
9216 14.2130 51.52 57.91 7.19
9217 14.2140 54.00 57.93 7.35
9218 14.2150 44.22 57.94 6.67
9219 14.2160 58.63 57.95 7.72
9220 14.2170 61.13 57.96 7.84
9221 14.2180 65.41 57.98 8.10
9222 14.2190 67.23 57.99 8.23
9223 14.2200 63.82 58.00 8.06
9224 14.2210 65.37 58.02 8.18
9225 14.2220 60.31 58.03 7.81
9226 14.2230 68.03 58.05 8.24
9227 14.2240 66.96 58.06 8.20
9228 14.2250 63.05 58.08 7.96
9229 14.2260 73.66 58.09 8.62
9230 14.2270 58.88 58.11 7.69
9231 14.2280 62.62 58.12 7.93
9232 14.2290 72.25 58.14 8.52
9233 14.2300 62.93 58.16 8.03
9234 14.2310 61.28 58.17 7.91
9235 14.2320 68.92 58.19 8.33
9236 14.2330 61.86 58.21 7.89
9237 14.2340 59.13 58.23 7.68
9238 14.2350 63.04 58.24 7.95
9239 14.2360 67.35 58.26 8.24
9240 14.2370 49.47 58.28 7.05
9241 14.2380 63.70 58.30 7.99
9242 14.2390 48.97 58.32 7.01
9243 14.2400 47.01 58.34 6.91
9244 14.2410 67.07 58.36 8.27
9245 14.2420 58.82 58.38 7.69
9246 14.2430 62.51 58.40 7.90
9247 14.2440 59.11 58.42 7.64
9248 14.2450 65.45 58.45 8.10
9249 14.2460 62.85 58.47 7.98
9250 14.2470 60.94 58.49 7.79
9251 14.2480 62.25 58.52 7.85
9252 14.2490 50.06 58.54 7.11
9253 14.2500 69.18 58.56 8.37
9254 14.2510 66.30 58.59 8.19
9255 14.2520 59.43 58.61 7.71
9256 14.2530 58.42 58.64 7.62
9257 14.2540 63.35 58.67 7.94
9258 14.2550 61.40 58.70 7.84
9259 14.2560 63.08 58.72 7.98
9260 14.2570 72.10 58.75 8.51
9261 14.2580 70.36 58.78 8.40
9262 14.2590 60.35 58.81 7.76
9263 14.2600 75.94 58.84 8.75
9264 14.2610 64.10 58.87 8.07
9265 14.2620 64.17 58.90 8.01
9266 14.2630 60.06 58.94 7.70
9267 14.2640 49.98 58.97 7.04
9268 14.2650 75.33 59.01 8.65
9269 14.2660 62.73 59.04 7.98
9270 14.2670 52.78 59.08 7.29
9271 14.2680 65.26 59.11 8.04
9272 14.2690 66.67 59.15 8.16
9273 14.2700 73.27 59.19 8.63
9274 14.2710 68.90 59.23 8.38
9275 14.2720 70.20 59.27 8.37
9276 14.2730 72.90 59.31 8.54
9277 14.2740 68.85 59.36 8.27
9278 14.2750 73.04 59.40 8.51
9279 14.2760 70.62 59.45 8.42
9280 14.2770 71.36 59.49 8.38
9281 14.2780 67.89 59.54 8.21
9282 14.2790 61.06 59.59 7.81
9283 14.2800 53.19 59.64 7.34
9284 14.2810 65.10 59.69 8.17
9285 14.2820 54.60 59.75 7.41
9286 14.2830 73.00 59.80 8.54
9287 14.2840 69.59 59.86 8.34
9288 14.2850 65.14 59.92 8.07
9289 14.2860 56.04 59.98 7.50
9290 14.2870 80.00 60.04 8.89
9291 14.2880 60.74 60.11 7.76
9292 14.2890 67.85 60.17 8.23
9293 14.2900 65.34 60.24 8.14
9294 14.2910 61.92 60.31 7.92
9295 14.2920 70.52 60.39 8.40
9296 14.2930 58.07 60.46 7.62
9297 14.2940 58.38 60.54 7.62
9298 14.2950 80.56 60.62 8.94
9299 14.2960 73.25 60.71 8.55
9300 14.2970 63.64 60.79 7.98
9301 14.2980 70.17 60.88 8.34
9302 14.2990 52.35 60.98 7.23
9303 14.3000 62.52 61.07 7.93
9304 14.3010 66.42 61.17 8.20
9305 14.3020 56.14 61.28 7.48
9306 14.3030 67.60 61.39 8.18
9307 14.3040 68.04 61.50 8.24
9308 14.3050 74.72 61.61 8.68
9309 14.3060 66.80 61.74 8.23
9310 14.3070 63.09 61.86 7.99
9311 14.3080 85.49 61.99 9.25
9312 14.3090 59.99 62.13 7.72
9313 14.3100 63.91 62.28 8.02
9314 14.3110 69.42 62.43 8.40
9315 14.3120 69.77 62.58 8.35
9316 14.3130 77.75 62.75 8.80
9317 14.3140 60.54 62.92 7.73
9318 14.3150 81.00 63.10 9.00
9319 14.3160 77.85 63.29 8.85
9320 14.3170 60.50 63.49 7.79
9321 14.3180 59.88 63.70 7.73
9322 14.3190 71.18 63.92 8.40
9323 14.3200 62.40 64.15 7.93
9324 14.3210 74.23 64.39 8.69
9325 14.3220 78.51 64.65 8.83
9326 14.3230 76.80 64.92 8.72
9327 14.3240 85.62 65.21 9.22
9328 14.3250 72.84 65.51 8.51
9329 14.3260 55.33 65.84 7.45
9330 14.3270 79.67 66.18 8.91
9331 14.3280 69.36 66.55 8.30
9332 14.3290 74.46 66.94 8.61
9333 14.3300 71.27 67.36 8.51
9334 14.3310 66.19 67.81 8.20
9335 14.3320 80.02 68.29 8.96
9336 14.3330 68.24 68.81 8.25
9337 14.3340 77.04 69.37 8.70
9338 14.3350 66.60 69.98 8.16
9339 14.3360 61.02 70.64 7.83
9340 14.3370 75.55 71.35 8.67
9341 14.3380 74.69 72.13 8.60
9342 14.3390 68.46 72.98 8.24
9343 14.3400 66.87 73.92 8.22
9344 14.3410 81.30 74.95 9.07
9345 14.3420 69.71 76.09 8.33
9346 14.3430 74.58 77.36 8.63
9347 14.3440 75.79 78.78 8.67
9348 14.3450 85.49 80.38 9.27
9349 14.3460 80.99 82.17 9.02
9350 14.3470 83.33 84.22 9.14
9351 14.3480 91.78 86.58 9.54
9352 14.3490 95.03 89.30 9.71
9353 14.3500 84.96 92.51 9.24
9354 14.3510 90.20 96.32 9.54
9355 14.3520 106.96 100.96 10.30
9356 14.3530 113.80 106.72 10.62
9357 14.3540 123.88 114.05 11.09
9358 14.3550 122.54 123.55 11.10
9359 14.3560 150.07 136.08 12.31
9360 14.3570 158.13 152.67 12.57
9361 14.3580 174.60 174.45 13.14
9362 14.3590 212.62 202.71 14.52
9363 14.3600 245.85 238.27 15.72
9364 14.3610 284.63 281.08 16.99
9365 14.3620 323.24 329.55 17.91
9366 14.3630 360.66 379.13 18.93
9367 14.3640 424.30 423.09 20.44
9368 14.3650 474.75 453.33 21.77
9369 14.3660 484.78 462.67 22.01
9370 14.3670 465.06 447.26 21.55
9371 14.3680 403.61 410.73 20.02
9372 14.3690 334.72 362.81 18.25
9373 14.3700 291.32 313.65 17.15
9374 14.3710 257.81 269.64 16.11
9375 14.3720 243.57 233.20 15.56
9376 14.3730 184.87 204.78 13.53
9377 14.3740 198.84 183.69 14.01
9378 14.3750 182.59 168.70 13.51
9379 14.3760 149.07 158.65 12.19
9380 14.3770 149.00 152.46 12.20
9381 14.3780 166.67 149.24 12.86
9382 14.3790 163.48 148.39 12.79
9383 14.3800 173.40 149.51 13.27
9384 14.3810 172.46 152.41 13.25
9385 14.3820 155.43 157.04 12.47
9386 14.3830 183.03 163.54 13.50
9387 14.3840 186.10 172.17 13.53
9388 14.3850 202.52 183.43 14.20
9389 14.3860 228.09 198.09 15.10
9390 14.3870 226.62 217.27 14.98
9391 14.3880 253.49 242.77 15.79
9392 14.3890 290.70 277.00 16.99
9393 14.3900 338.68 323.15 18.43
9394 14.3910 405.77 385.05 20.29
9395 14.3920 459.69 467.31 21.45
9396 14.3930 553.09 574.01 23.43
9397 14.3940 705.77 707.61 26.47
9398 14.3950 818.56 867.46 28.65
9399 14.3960 980.42 1044.44 31.38
9400 14.3970 1118.31 1219.86 33.38
9401 14.3980 1384.01 1364.86 37.11
9402 14.3990 1517.33 1450.85 38.95
9403 14.4000 1490.65 1455.58 38.74
9404 14.4010 1365.61 1372.87 37.12
9405 14.4020 1182.53 1221.22 34.34
9406 14.4030 1088.81 1037.36 33.02
9407 14.4040 869.91 855.17 29.54
9408 14.4050 664.64 693.38 25.85
9409 14.4060 579.65 559.38 24.14
9410 14.4070 472.63 453.35 21.78
9411 14.4080 389.23 371.69 19.59
9412 14.4090 339.41 310.15 18.38
9413 14.4100 290.68 264.28 17.06
9414 14.4110 261.84 229.89 16.21
9415 14.4120 217.80 203.89 14.75
9416 14.4130 202.35 183.76 14.11
9417 14.4140 178.51 167.82 13.27
9418 14.4150 172.27 154.93 13.13
9419 14.4160 141.71 144.25 11.92
9420 14.4170 137.15 135.29 11.69
9421 14.4180 132.47 127.65 11.43
9422 14.4190 136.69 121.09 11.66
9423 14.4200 106.56 115.41 10.34
9424 14.4210 121.43 110.46 11.08
9425 14.4220 87.10 106.11 9.30
9426 14.4230 109.29 102.28 10.41
9427 14.4240 115.21 98.88 10.67
9428 14.4250 97.06 95.86 9.85
9429 14.4260 92.65 93.15 9.61
9430 14.4270 86.42 90.72 9.30
9431 14.4280 83.65 88.54 9.15
9432 14.4290 87.25 86.56 9.34
9433 14.4300 84.78 84.77 9.28
9434 14.4310 89.51 83.13 9.51
9435 14.4320 71.92 81.64 8.47
9436 14.4330 78.22 80.28 8.81
9437 14.4340 76.79 79.03 8.69
9438 14.4350 83.46 77.88 9.16
9439 14.4360 82.41 76.82 9.10
9440 14.4370 77.72 75.84 8.81
9441 14.4380 84.13 74.93 9.14
9442 14.4390 66.95 74.09 8.19
9443 14.4400 77.59 73.31 8.87
9444 14.4410 67.01 72.59 8.25
9445 14.4420 70.75 71.91 8.42
9446 14.4430 74.18 71.28 8.59
9447 14.4440 56.00 70.68 7.45
9448 14.4450 86.67 70.13 9.34
9449 14.4460 70.72 69.61 8.43
9450 14.4470 67.03 69.12 8.18
9451 14.4480 66.16 68.66 8.09
9452 14.4490 73.66 68.23 8.59
9453 14.4500 75.86 67.82 8.74
9454 14.4510 67.33 67.44 8.29
9455 14.4520 68.80 67.07 8.31
9456 14.4530 59.16 66.73 7.70
9457 14.4540 71.16 66.40 8.43
9458 14.4550 76.99 66.09 8.78
9459 14.4560 82.35 65.80 9.09
9460 14.4570 76.68 65.52 8.76
9461 14.4580 67.94 65.26 8.20
9462 14.4590 77.96 65.01 8.83
9463 14.4600 77.42 64.77 8.86
9464 14.4610 75.77 64.54 8.82
9465 14.4620 77.75 64.32 8.81
9466 14.4630 71.24 64.12 8.43
9467 14.4640 64.55 63.92 8.01
9468 14.4650 65.52 63.73 8.13
9469 14.4660 69.57 63.55 8.36
9470 14.4670 68.41 63.38 8.29
9471 14.4680 67.85 63.21 8.22
9472 14.4690 71.99 63.05 8.50
9473 14.4700 72.87 62.90 8.60
9474 14.4710 61.41 62.75 7.92
9475 14.4720 63.09 62.61 7.95
9476 14.4730 66.75 62.48 8.17
9477 14.4740 57.43 62.35 7.54
9478 14.4750 61.84 62.23 7.87
9479 14.4760 67.74 62.11 8.24
9480 14.4770 57.60 61.99 7.60
9481 14.4780 68.74 61.88 8.30
9482 14.4790 69.82 61.78 8.39
9483 14.4800 61.21 61.67 7.90
9484 14.4810 69.06 61.58 8.40
9485 14.4820 70.78 61.48 8.45
9486 14.4830 74.99 61.39 8.65
9487 14.4840 76.00 61.30 8.67
9488 14.4850 72.77 61.21 8.53
9489 14.4860 64.69 61.13 8.06
9490 14.4870 50.88 61.05 7.16
9491 14.4880 74.71 60.97 8.62
9492 14.4890 58.75 60.90 7.69
9493 14.4900 76.24 60.83 8.81
9494 14.4910 62.71 60.76 8.00
9495 14.4920 68.90 60.69 8.31
9496 14.4930 59.22 60.63 7.68
9497 14.4940 61.43 60.56 7.82
9498 14.4950 49.44 60.50 7.05
9499 14.4960 54.41 60.44 7.41
9500 14.4970 60.75 60.38 7.79
9501 14.4980 63.39 60.33 7.93
9502 14.4990 55.85 60.27 7.46
9503 14.5000 63.69 60.22 8.01
9504 14.5010 75.97 60.17 8.76
9505 14.5020 53.66 60.12 7.37
9506 14.5030 60.84 60.07 7.83
9507 14.5040 75.85 60.03 8.75
9508 14.5050 74.56 59.98 8.67
9509 14.5060 69.64 59.94 8.39
9510 14.5070 79.06 59.90 8.90
9511 14.5080 59.90 59.85 7.71
9512 14.5090 68.94 59.81 8.27
9513 14.5100 55.24 59.77 7.48
9514 14.5110 51.68 59.74 7.24
9515 14.5120 70.60 59.70 8.46
9516 14.5130 73.66 59.66 8.57
9517 14.5140 64.97 59.63 8.08
9518 14.5150 57.48 59.59 7.62
9519 14.5160 69.39 59.56 8.35
9520 14.5170 81.24 59.53 9.00
9521 14.5180 61.96 59.50 7.85
9522 14.5190 64.94 59.47 8.07
9523 14.5200 56.23 59.44 7.57
9524 14.5210 52.46 59.41 7.34
9525 14.5220 52.60 59.38 7.28
9526 14.5230 71.64 59.35 8.46
9527 14.5240 59.11 59.32 7.68
9528 14.5250 72.87 59.30 8.54
9529 14.5260 63.26 59.27 7.99
9530 14.5270 59.80 59.25 7.76
9531 14.5280 55.92 59.22 7.51
9532 14.5290 61.19 59.20 7.86
9533 14.5300 69.00 59.17 8.37
9534 14.5310 65.75 59.15 8.19
9535 14.5320 62.62 59.13 7.95
9536 14.5330 67.03 59.11 8.13
9537 14.5340 74.53 59.09 8.61
9538 14.5350 74.07 59.07 8.61
9539 14.5360 71.79 59.05 8.53
9540 14.5370 67.25 59.03 8.21
9541 14.5380 63.49 59.01 7.97
9542 14.5390 64.81 58.99 8.06
9543 14.5400 60.21 58.97 7.82
9544 14.5410 62.33 58.95 7.97
9545 14.5420 64.60 58.93 8.04
9546 14.5430 69.35 58.92 8.33
9547 14.5440 53.10 58.90 7.30
9548 14.5450 64.73 58.88 8.07
9549 14.5460 70.93 58.87 8.47
9550 14.5470 59.13 58.85 7.68
9551 14.5480 63.44 58.84 7.96
9552 14.5490 51.17 58.82 7.14
9553 14.5500 71.59 58.81 8.50
9554 14.5510 61.79 58.79 7.90
9555 14.5520 82.62 58.78 9.15
9556 14.5530 72.55 58.77 8.55
9557 14.5540 80.79 58.75 8.98
9558 14.5550 56.05 58.74 7.55
9559 14.5560 70.09 58.73 8.41
9560 14.5570 61.74 58.71 7.89
9561 14.5580 50.04 58.70 7.07
9562 14.5590 59.82 58.69 7.72
9563 14.5600 70.87 58.68 8.48
9564 14.5610 67.74 58.67 8.30
9565 14.5620 47.24 58.66 6.90
9566 14.5630 66.00 58.65 8.13
9567 14.5640 71.14 58.63 8.42
9568 14.5650 67.26 58.62 8.23
9569 14.5660 71.64 58.61 8.51
9570 14.5670 52.46 58.60 7.25
9571 14.5680 58.28 58.59 7.63
9572 14.5690 72.04 58.58 8.49
9573 14.5700 63.33 58.57 7.99
9574 14.5710 55.93 58.57 7.54
9575 14.5720 49.79 58.56 7.08
9576 14.5730 63.40 58.55 7.92
9577 14.5740 64.72 58.54 8.02
9578 14.5750 52.18 58.53 7.23
9579 14.5760 50.58 58.52 7.15
9580 14.5770 63.87 58.51 8.02
9581 14.5780 58.87 58.51 7.70
9582 14.5790 73.66 58.50 8.62
9583 14.5800 46.99 58.49 6.94
9584 14.5810 67.09 58.48 8.26
9585 14.5820 55.08 58.48 7.43
9586 14.5830 66.53 58.47 8.13
9587 14.5840 61.57 58.46 7.83
9588 14.5850 68.36 58.45 8.26
9589 14.5860 72.10 58.45 8.54
9590 14.5870 68.89 58.44 8.29
9591 14.5880 69.28 58.43 8.33
9592 14.5890 65.83 58.43 8.15
9593 14.5900 68.37 58.42 8.35
9594 14.5910 53.87 58.42 7.41
9595 14.5920 59.25 58.41 7.74
9596 14.5930 74.72 58.40 8.65
9597 14.5940 62.18 58.40 7.89
9598 14.5950 66.66 58.39 8.18
9599 14.5960 66.75 58.39 8.20
9600 14.5970 63.44 58.38 7.99
9601 14.5980 68.74 58.38 8.25
9602 14.5990 66.69 58.37 8.20
9603 14.6000 64.93 58.37 8.13
9604 14.6010 57.41 58.36 7.67
9605 14.6020 70.44 58.36 8.44
9606 14.6030 74.25 58.35 8.65
9607 14.6040 72.45 58.35 8.54
9608 14.6050 69.50 58.34 8.37
9609 14.6060 72.18 58.34 8.53
9610 14.6070 66.62 58.33 8.15
9611 14.6080 59.68 58.33 7.71
9612 14.6090 70.42 58.33 8.41
9613 14.6100 74.15 58.32 8.66
9614 14.6110 60.27 58.32 7.81
9615 14.6120 55.73 58.31 7.48
9616 14.6130 70.04 58.31 8.38
9617 14.6140 54.48 58.31 7.38
9618 14.6150 54.05 58.30 7.37
9619 14.6160 59.72 58.30 7.80
9620 14.6170 63.32 58.30 8.00
9621 14.6180 61.21 58.29 7.85
9622 14.6190 83.99 58.29 9.17
9623 14.6200 63.75 58.29 8.02
9624 14.6210 69.47 58.28 8.41
9625 14.6220 63.96 58.28 7.99
9626 14.6230 68.79 58.28 8.27
9627 14.6240 61.23 58.27 7.82
9628 14.6250 61.25 58.27 7.87
9629 14.6260 73.18 58.27 8.62
9630 14.6270 58.96 58.26 7.71
9631 14.6280 65.81 58.26 8.15
9632 14.6290 55.34 58.26 7.45
9633 14.6300 55.78 58.26 7.54
9634 14.6310 69.95 58.25 8.43
9635 14.6320 66.67 58.25 8.20
9636 14.6330 68.20 58.25 8.24
9637 14.6340 53.14 58.25 7.28
9638 14.6350 74.71 58.24 8.64
9639 14.6360 81.17 58.24 9.04
9640 14.6370 64.11 58.24 8.05
9641 14.6380 69.06 58.24 8.31
9642 14.6390 72.11 58.24 8.48
9643 14.6400 64.58 58.23 8.10
9644 14.6410 70.19 58.23 8.47
9645 14.6420 61.13 58.23 7.84
9646 14.6430 60.56 58.23 7.77
9647 14.6440 68.71 58.23 8.26
9648 14.6450 54.50 58.22 7.42
9649 14.6460 64.00 58.20 8.01
9650 14.6470 65.94 58.20 8.08
9651 14.6480 68.92 58.19 8.26
9652 14.6490 60.83 58.13 7.79
9653 14.6500 68.28 58.13 8.32
9654 14.6510 70.90 58.13 8.47
9655 14.6520 56.31 58.13 7.56
9656 14.6530 54.99 58.13 7.45
9657 14.6540 68.26 58.13 8.27
9658 14.6550 55.54 58.13 7.47
9659 14.6560 62.64 58.13 7.93
9660 14.6570 73.87 58.13 8.58
9661 14.6580 84.50 58.13 9.15
9662 14.6590 63.36 58.13 7.95
9663 14.6600 67.73 58.12 8.29
9664 14.6610 61.36 58.12 7.92
9665 14.6620 55.15 58.12 7.49
9666 14.6630 61.45 58.12 7.82
9667 14.6640 62.33 58.12 7.89
9668 14.6650 64.32 58.12 8.04
9669 14.6660 65.66 58.12 8.15
9670 14.6670 72.91 58.12 8.56
9671 14.6680 77.33 58.12 8.77
9672 14.6690 57.15 58.12 7.55
9673 14.6700 79.17 58.12 8.97
9674 14.6710 63.89 58.12 8.05
9675 14.6720 64.01 58.12 8.00
9676 14.6730 67.52 58.12 8.21
9677 14.6740 52.60 58.12 7.23
9678 14.6750 59.41 58.12 7.73
9679 14.6760 56.93 58.12 7.59
9680 14.6770 83.91 58.12 9.19
9681 14.6780 78.96 58.12 8.88
9682 14.6790 69.19 58.12 8.33
9683 14.6800 50.75 58.12 7.17
9684 14.6810 63.90 58.01 8.04
9685 14.6820 60.31 58.01 7.78
9686 14.6830 67.30 57.81 8.17
9687 14.6840 75.28 57.81 8.63
9688 14.6850 56.56 57.82 7.54
9689 14.6860 53.50 57.82 7.35
9690 14.6870 58.14 57.82 7.64
9691 14.6880 65.41 57.82 8.08
9692 14.6890 76.65 57.83 8.76
9693 14.6900 57.20 57.83 7.63
9694 14.6910 59.58 57.83 7.81
9695 14.6920 72.26 57.83 8.54
9696 14.6930 77.27 57.83 8.80
9697 14.6940 74.21 57.84 8.60
9698 14.6950 61.92 57.84 7.89
9699 14.6960 56.65 57.84 7.53
9700 14.6970 74.11 57.84 8.60
9701 14.6980 68.51 57.84 8.25
9702 14.6990 67.07 57.85 8.17
9703 14.7000 64.19 57.85 8.06
9704 14.7010 51.77 57.85 7.30
9705 14.7020 62.43 57.85 7.94
9706 14.7030 56.39 57.86 7.51
9707 14.7040 67.25 57.86 8.20
9708 14.7050 63.85 57.86 8.02
9709 14.7060 73.77 57.86 8.60
9710 14.7070 69.62 57.86 8.32
9711 14.7080 60.98 57.87 7.80
9712 14.7090 65.65 57.87 8.10
9713 14.7100 68.97 57.87 8.35
9714 14.7110 65.41 57.87 8.16
9715 14.7120 62.72 57.88 7.95
9716 14.7130 84.43 57.88 9.19
9717 14.7140 67.75 57.88 8.24
9718 14.7150 59.63 57.88 7.73
9719 14.7160 70.12 57.88 8.42
9720 14.7170 75.82 57.89 8.75
9721 14.7180 70.97 57.89 8.40
9722 14.7190 68.67 57.89 8.27
9723 14.7200 70.26 57.89 8.42
9724 14.7210 72.53 57.90 8.56
9725 14.7220 75.19 57.90 8.69
9726 14.7230 70.77 57.90 8.37
9727 14.7240 80.05 57.90 8.93
9728 14.7250 57.05 57.90 7.61
9729 14.7260 68.27 57.91 8.33
9730 14.7270 57.01 57.91 7.58
9731 14.7280 68.10 57.91 8.24
9732 14.7290 55.10 57.91 7.43
9733 14.7300 54.32 57.91 7.44
9734 14.7310 62.95 57.92 7.98
9735 14.7320 74.00 57.92 8.60
9736 14.7330 65.86 57.92 8.13
9737 14.7340 64.00 57.92 7.95
9738 14.7350 58.41 57.93 7.66
9739 14.7360 71.13 57.93 8.48
9740 14.7370 56.07 57.93 7.53
9741 14.7380 53.79 57.93 7.36
9742 14.7390 47.56 57.93 6.90
9743 14.7400 63.61 57.94 8.02
9744 14.7410 64.97 57.94 8.14
9745 14.7420 51.84 57.94 7.24
9746 14.7430 64.23 57.94 8.00
9747 14.7440 69.74 57.95 8.32
9748 14.7450 68.33 57.95 8.26
9749 14.7460 84.70 57.95 9.22
9750 14.7470 56.14 57.95 7.49
9751 14.7480 66.55 57.95 8.11
9752 14.7490 65.21 57.96 8.06
9753 14.7500 57.93 57.96 7.69
9754 14.7510 63.38 57.96 8.04
9755 14.7520 64.71 57.96 8.07
9756 14.7530 68.05 57.97 8.24
9757 14.7540 74.30 57.97 8.65
9758 14.7550 66.53 57.97 8.14
9759 14.7560 61.44 57.97 7.85
9760 14.7570 67.60 57.97 8.21
9761 14.7580 65.34 57.98 8.08
9762 14.7590 75.53 57.98 8.67
9763 14.7600 81.05 57.98 9.04
9764 14.7610 70.73 57.98 8.48
9765 14.7620 58.29 57.99 7.66
9766 14.7630 66.71 57.99 8.18
9767 14.7640 70.36 57.99 8.37
9768 14.7650 59.74 57.99 7.75
9769 14.7660 73.43 57.99 8.62
9770 14.7670 64.89 58.00 8.05
9771 14.7680 62.49 58.00 7.88
9772 14.7690 72.29 58.00 8.50
9773 14.7700 58.19 58.00 7.68
9774 14.7710 53.48 58.01 7.38
9775 14.7720 68.08 58.01 8.25
9776 14.7730 63.99 58.01 7.95
9777 14.7740 64.88 58.01 8.03
9778 14.7750 70.09 58.01 8.37
9779 14.7760 46.19 58.02 6.84
9780 14.7770 61.32 58.02 7.86
9781 14.7780 75.38 58.02 8.70
9782 14.7790 63.66 58.02 7.97
9783 14.7800 59.55 58.03 7.75
9784 14.7810 76.23 58.03 8.75
9785 14.7820 66.31 58.03 8.17
9786 14.7830 56.77 58.03 7.49
9787 14.7840 67.08 58.03 8.16
9788 14.7850 67.51 58.04 8.22
9789 14.7860 58.96 58.04 7.71
9790 14.7870 48.33 58.04 6.98
9791 14.7880 54.35 58.04 7.37
9792 14.7890 68.38 58.04 8.28
9793 14.7900 76.05 58.05 8.80
9794 14.7910 76.27 58.05 8.83
9795 14.7920 58.78 58.05 7.66
9796 14.7930 57.01 58.05 7.53
9797 14.7940 72.13 58.06 8.46
9798 14.7950 74.83 58.06 8.62
9799 14.7960 71.47 58.06 8.43
9800 14.7970 73.75 58.06 8.55
9801 14.7980 81.82 58.06 9.03
9802 14.7990 55.90 58.07 7.47
9803 14.8000 62.52 58.07 7.98
9804 14.8010 52.79 58.07 7.36
9805 14.8020 56.35 58.07 7.58
9806 14.8030 68.42 58.08 8.23
9807 14.8040 61.55 58.08 7.81
9808 14.8050 57.89 58.08 7.60
9809 14.8060 58.72 58.08 7.68
9810 14.8070 66.29 58.08 8.07
9811 14.8080 62.54 58.09 7.89
9812 14.8090 69.65 58.09 8.33
9813 14.8100 75.75 58.09 8.76
9814 14.8110 59.39 58.09 7.76
9815 14.8120 57.76 58.10 7.62
9816 14.8130 57.19 58.10 7.56
9817 14.8140 64.01 58.10 7.98
9818 14.8150 75.77 58.10 8.71
9819 14.8160 72.63 58.10 8.56
9820 14.8170 59.52 58.11 7.68
9821 14.8180 62.61 58.11 7.88
9822 14.8190 62.86 58.11 7.87
9823 14.8200 69.39 58.11 8.30
9824 14.8210 64.45 58.12 8.07
9825 14.8220 62.48 58.12 7.89
9826 14.8230 76.64 58.12 8.70
9827 14.8240 64.98 58.12 8.03
9828 14.8250 66.97 58.12 8.22
9829 14.8260 72.83 58.13 8.57
9830 14.8270 77.81 58.13 8.83
9831 14.8280 55.10 58.13 7.39
9832 14.8290 61.69 58.13 7.84
9833 14.8300 56.96 58.14 7.58
9834 14.8310 67.35 58.14 8.21
9835 14.8320 65.19 58.14 8.06
9836 14.8330 81.23 58.14 8.97
9837 14.8340 69.75 58.14 8.32
9838 14.8350 53.03 58.15 7.29
9839 14.8360 60.41 58.15 7.78
9840 14.8370 60.07 58.15 7.78
9841 14.8380 72.69 58.15 8.52
9842 14.8390 68.39 58.16 8.25
9843 14.8400 67.18 58.16 8.24
9844 14.8410 68.16 58.16 8.32
9845 14.8420 68.26 58.16 8.29
9846 14.8430 54.32 58.16 7.35
9847 14.8440 64.25 58.17 7.95
9848 14.8450 55.54 58.17 7.46
9849 14.8460 68.65 58.17 8.30
9850 14.8470 63.80 58.17 7.94
9851 14.8480 61.40 58.18 7.81
9852 14.8490 72.30 58.18 8.51
9853 14.8500 67.04 58.18 8.23
9854 14.8510 66.39 58.18 8.22
9855 14.8520 76.06 58.18 8.70
9856 14.8530 68.67 58.19 8.25
9857 14.8540 71.54 58.19 8.38
9858 14.8550 55.68 58.19 7.45
9859 14.8560 62.24 58.19 7.88
9860 14.8570 60.60 58.20 7.77
9861 14.8580 57.02 58.20 7.49
9862 14.8590 76.30 58.20 8.70
9863 14.8600 65.21 58.20 8.15
9864 14.8610 66.66 58.21 8.24
9865 14.8620 66.34 58.21 8.17
9866 14.8630 63.26 58.21 7.96
9867 14.8640 53.05 58.21 7.27
9868 14.8650 66.29 58.21 8.16
9869 14.8660 61.14 58.22 7.86
9870 14.8670 60.96 58.22 7.81
9871 14.8680 68.34 58.22 8.23
9872 14.8690 63.29 58.22 7.91
9873 14.8700 63.87 58.23 8.01
9874 14.8710 64.56 58.23 8.08
9875 14.8720 68.93 58.23 8.30
9876 14.8730 71.50 58.23 8.46
9877 14.8740 67.70 58.23 8.25
9878 14.8750 65.39 58.24 8.12
9879 14.8760 51.98 58.24 7.26
9880 14.8770 50.19 58.24 7.09
9881 14.8780 58.24 58.24 7.61
9882 14.8790 71.96 58.25 8.47
9883 14.8800 60.11 58.25 7.77
9884 14.8810 65.00 58.25 8.09
9885 14.8820 77.86 58.25 8.84
9886 14.8830 65.87 58.25 8.09
9887 14.8840 61.26 58.26 7.79
9888 14.8850 65.72 58.26 8.14
9889 14.8860 69.39 58.26 8.37
9890 14.8870 78.41 58.26 8.87
9891 14.8880 67.14 58.27 8.20
9892 14.8890 50.85 58.27 7.14
9893 14.8900 61.62 58.27 7.90
9894 14.8910 63.24 58.27 8.02
9895 14.8920 63.34 58.27 7.94
9896 14.8930 56.61 58.28 7.52
9897 14.8940 64.80 58.28 8.01
9898 14.8950 69.84 58.28 8.35
9899 14.8960 66.97 58.28 8.18
9900 14.8970 55.15 58.29 7.42
9901 14.8980 55.50 58.29 7.46
9902 14.8990 60.35 58.29 7.77
9903 14.9000 74.85 58.29 8.73
9904 14.9010 68.89 58.29 8.37
9905 14.9020 75.85 58.30 8.74
9906 14.9030 63.68 58.30 7.98
9907 14.9040 74.77 58.30 8.60
9908 14.9050 70.12 58.30 8.37
9909 14.9060 51.16 58.31 7.16
9910 14.9070 70.08 58.31 8.33
9911 14.9080 61.53 58.31 7.80
9912 14.9090 69.71 58.31 8.35
9913 14.9100 59.23 58.31 7.74
9914 14.9110 57.18 58.32 7.64
9915 14.9120 67.47 58.32 8.23
9916 14.9130 60.00 58.32 7.76
9917 14.9140 54.04 58.32 7.35
9918 14.9150 61.66 58.33 7.87
9919 14.9160 74.84 58.33 8.70
9920 14.9170 71.25 58.33 8.41
9921 14.9180 70.91 58.33 8.40
9922 14.9190 70.37 58.33 8.35
9923 14.9200 61.07 58.34 7.82
9924 14.9210 65.82 58.34 8.17
9925 14.9220 73.95 58.34 8.62
9926 14.9230 63.12 58.34 7.95
9927 14.9240 70.35 58.35 8.41
9928 14.9250 44.90 58.35 6.75
9929 14.9260 59.19 58.35 7.77
9930 14.9270 60.79 58.35 7.82
9931 14.9280 53.64 58.36 7.29
9932 14.9290 73.45 58.36 8.54
9933 14.9300 61.23 58.36 7.85
9934 14.9310 55.95 58.36 7.52
9935 14.9320 67.63 58.36 8.24
9936 14.9330 73.30 58.37 8.57
9937 14.9340 65.12 58.37 8.04
9938 14.9350 78.69 58.37 8.90
9939 14.9360 61.24 58.37 7.88
9940 14.9370 74.98 58.38 8.69
9941 14.9380 70.91 58.38 8.43
9942 14.9390 74.15 58.38 8.63
9943 14.9400 61.58 58.38 7.92
9944 14.9410 62.03 58.38 7.96
9945 14.9420 58.78 58.39 7.68
9946 14.9430 56.14 58.39 7.48
9947 14.9440 65.75 58.39 8.08
9948 14.9450 61.64 58.39 7.85
9949 14.9460 67.52 58.40 8.23
9950 14.9470 74.89 58.40 8.65
9951 14.9480 64.21 58.40 8.01
9952 14.9490 57.32 58.40 7.62
9953 14.9500 46.27 58.40 6.87
9954 14.9510 81.00 58.41 9.07
9955 14.9520 69.70 58.41 8.38
9956 14.9530 57.37 58.41 7.56
9957 14.9540 57.60 58.41 7.55
9958 14.9550 70.59 58.42 8.37
9959 14.9560 65.46 58.42 8.11
9960 14.9570 66.20 58.42 8.14
9961 14.9580 60.95 58.42 7.80
9962 14.9590 55.43 58.42 7.44
9963 14.9600 60.34 58.43 7.81
9964 14.9610 70.30 58.43 8.50
9965 14.9620 65.16 58.43 8.10
9966 14.9630 65.40 58.43 8.10
9967 14.9640 68.89 58.44 8.32
9968 14.9650 71.93 58.44 8.50
9969 14.9660 51.93 58.44 7.26
9970 14.9670 63.08 58.44 7.89
9971 14.9680 60.94 58.45 7.76
9972 14.9690 65.70 58.45 8.09
9973 14.9700 56.25 58.45 7.54
9974 14.9710 63.00 58.45 7.99
9975 14.9720 52.63 58.45 7.26
9976 14.9730 69.59 58.46 8.36
9977 14.9740 55.04 58.46 7.45
9978 14.9750 57.12 58.46 7.59
9979 14.9760 58.79 58.46 7.73
9980 14.9770 63.35 58.47 7.94
9981 14.9780 61.91 58.47 7.84
9982 14.9790 71.47 58.47 8.41
9983 14.9800 62.02 58.47 7.88
9984 14.9810 61.50 58.47 7.90
9985 14.9820 67.01 58.48 8.19
9986 14.9830 66.87 58.48 8.15
9987 14.9840 56.07 58.48 7.48
9988 14.9850 73.56 58.48 8.60
9989 14.9860 54.96 58.49 7.46
9990 14.9870 52.93 58.49 7.26
9991 14.9880 51.36 58.49 7.16
9992 14.9890 57.18 58.49 7.56
9993 14.9900 60.81 58.49 7.83
9994 14.9910 55.68 58.50 7.51
9995 14.9920 44.15 58.50 6.67
9996 14.9930 64.13 58.50 7.98
9997 14.9940 70.27 58.50 8.35
9998 14.9950 67.09 58.51 8.17
9999 14.9960 63.56 58.51 7.99
10000 14.9970 67.40 58.51 8.24
10001 14.9980 75.79 58.51 8.69
10002 14.9990 76.90 58.52 8.78
10003 15.0000 65.86 58.52 8.16
10004 15.0010 55.34 58.52 7.53
10005 15.0020 56.48 58.52 7.51
10006 15.0030 74.77 58.52 8.61
10007 15.0040 73.28 58.53 8.50
10008 15.0050 71.83 58.53 8.46
10009 15.0060 58.81 58.53 7.68
10010 15.0070 67.50 58.53 8.19
10011 15.0080 60.74 58.54 7.79
10012 15.0090 72.71 58.54 8.54
10013 15.0100 60.03 58.54 7.80
10014 15.0110 74.53 58.54 8.73
10015 15.0120 64.69 58.54 8.06
10016 15.0130 72.13 58.55 8.48
10017 15.0140 54.71 58.55 7.38
10018 15.0150 40.70 58.55 6.39
10019 15.0160 67.33 58.55 8.23
10020 15.0170 61.05 58.56 7.81
10021 15.0180 68.86 58.56 8.20
10022 15.0190 72.63 58.56 8.52
10023 15.0200 62.11 58.56 7.90
10024 15.0210 61.13 58.56 7.87
10025 15.0220 69.34 58.57 8.37
10026 15.0230 65.04 58.57 8.05
10027 15.0240 54.02 58.57 7.36
10028 15.0250 58.48 58.57 7.66
10029 15.0260 67.29 58.58 8.20
10030 15.0270 62.14 58.58 7.87
10031 15.0280 67.55 58.58 8.16
10032 15.0290 71.41 58.58 8.42
10033 15.0300 63.29 58.59 7.98
10034 15.0310 61.19 58.59 7.89
10035 15.0320 73.69 58.59 8.60
10036 15.0330 63.70 58.59 7.97
10037 15.0340 75.31 58.59 8.66
10038 15.0350 73.77 58.60 8.63
10039 15.0360 80.35 58.60 9.01
10040 15.0370 70.56 58.60 8.39
10041 15.0380 67.84 58.60 8.20
10042 15.0390 60.85 58.61 7.81
10043 15.0400 66.91 58.61 8.20
10044 15.0410 74.62 58.61 8.68
10045 15.0420 77.05 58.61 8.77
10046 15.0430 55.50 58.61 7.42
10047 15.0440 57.47 58.62 7.55
10048 15.0450 67.80 58.62 8.25
10049 15.0460 60.32 58.62 7.81
10050 15.0470 64.48 58.62 8.00
10051 15.0480 70.72 58.63 8.41
10052 15.0490 57.21 58.63 7.56
10053 15.0500 64.80 58.63 8.10
10054 15.0510 56.60 58.63 7.57
10055 15.0520 68.20 58.64 8.26
10056 15.0530 56.21 58.64 7.46
10057 15.0540 64.86 58.64 7.99
10058 15.0550 70.82 58.64 8.43
10059 15.0560 57.03 58.64 7.57
10060 15.0570 61.50 58.65 7.84
10061 15.0580 77.86 58.65 8.80
10062 15.0590 63.44 58.65 7.95
10063 15.0600 60.70 58.65 7.83
10064 15.0610 72.28 58.66 8.57
10065 15.0620 76.60 58.66 8.75
10066 15.0630 74.54 58.66 8.63
10067 15.0640 62.67 58.66 7.90
10068 15.0650 68.28 58.66 8.24
10069 15.0660 67.82 58.67 8.24
10070 15.0670 78.20 58.67 8.79
10071 15.0680 64.89 58.67 8.03
10072 15.0690 65.12 58.67 8.04
10073 15.0700 72.81 58.68 8.55
10074 15.0710 71.50 58.68 8.51
10075 15.0720 47.95 58.68 6.96
10076 15.0730 56.69 58.68 7.54
10077 15.0740 72.56 58.69 8.49
10078 15.0750 79.00 58.69 8.87
10079 15.0760 74.11 58.69 8.64
10080 15.0770 62.72 58.69 7.90
10081 15.0780 67.19 58.69 8.11
10082 15.0790 78.08 58.70 8.80
10083 15.0800 60.25 58.70 7.79
10084 15.0810 69.74 58.70 8.40
10085 15.0820 75.04 58.70 8.63
10086 15.0830 70.98 58.71 8.43
10087 15.0840 60.22 58.71 7.76
10088 15.0850 61.84 58.71 7.89
10089 15.0860 58.17 58.71 7.65
10090 15.0870 69.15 58.71 8.30
10091 15.0880 59.02 58.72 7.67
10092 15.0890 73.20 58.72 8.53
10093 15.0900 60.87 58.72 7.81
10094 15.0910 54.95 58.72 7.46
10095 15.0920 66.96 58.73 8.20
10096 15.0930 58.89 58.73 7.65
10097 15.0940 68.35 58.73 8.23
10098 15.0950 78.97 58.73 8.87
10099 15.0960 71.59 58.74 8.49
10100 15.0970 58.05 58.74 7.61
10101 15.0980 80.51 58.74 8.96
10102 15.0990 69.46 58.74 8.31
10103 15.1000 68.18 58.74 8.33
10104 15.1010 59.85 58.75 7.76
10105 15.1020 57.86 58.75 7.61
10106 15.1030 62.05 58.75 7.84
10107 15.1040 69.24 58.75 8.30
10108 15.1050 66.43 58.76 8.14
10109 15.1060 65.14 58.76 8.08
10110 15.1070 59.69 58.76 7.73
10111 15.1080 51.48 58.76 7.19
10112 15.1090 67.44 58.76 8.22
10113 15.1100 70.56 58.77 8.46
10114 15.1110 103.54 58.77 10.23
10115 15.1120 76.77 58.77 8.77
10116 15.1130 52.90 58.77 7.28
10117 15.1140 55.58 58.78 7.45
10118 15.1150 78.22 58.78 8.85
10119 15.1160 66.08 58.78 8.14
10120 15.1170 71.59 58.78 8.47
10121 15.1180 60.74 58.79 7.75
10122 15.1190 77.34 58.79 8.78
10123 15.1200 64.25 58.79 8.05
10124 15.1210 56.30 58.79 7.59
10125 15.1220 59.43 58.79 7.72
10126 15.1230 57.39 58.80 7.60
10127 15.1240 70.88 58.80 8.42
10128 15.1250 88.44 58.80 9.42
10129 15.1260 67.81 58.80 8.23
10130 15.1270 59.46 58.81 7.68
10131 15.1280 61.23 58.81 7.78
10132 15.1290 61.59 58.81 7.81
10133 15.1300 79.23 58.81 8.91
10134 15.1310 57.16 58.81 7.62
10135 15.1320 78.58 58.82 8.89
10136 15.1330 61.24 58.82 7.84
10137 15.1340 71.76 58.82 8.47
10138 15.1350 70.79 58.82 8.44
10139 15.1360 55.65 58.83 7.50
10140 15.1370 46.66 58.83 6.84
10141 15.1380 66.22 58.83 8.09
10142 15.1390 70.33 58.83 8.37
10143 15.1400 68.63 58.84 8.34
10144 15.1410 67.70 58.84 8.28
10145 15.1420 53.87 58.84 7.35
10146 15.1430 66.51 58.84 8.12
10147 15.1440 72.81 58.84 8.52
10148 15.1450 72.07 58.85 8.49
10149 15.1460 70.57 58.85 8.43
10150 15.1470 55.89 58.85 7.48
10151 15.1480 70.86 58.85 8.42
10152 15.1490 60.74 58.86 7.81
10153 15.1500 80.47 58.86 9.00
10154 15.1510 68.20 58.86 8.31
10155 15.1520 67.55 58.86 8.21
10156 15.1530 58.40 58.86 7.61
10157 15.1540 62.82 58.87 7.87
10158 15.1550 61.10 58.87 7.82
10159 15.1560 83.28 58.87 9.18
10160 15.1570 59.51 58.87 7.75
10161 15.1580 56.78 58.88 7.54
10162 15.1590 59.41 58.88 7.71
10163 15.1600 59.67 58.88 7.79
10164 15.1610 64.42 58.88 8.11
10165 15.1620 62.17 58.89 7.92
10166 15.1630 73.60 58.89 8.58
10167 15.1640 55.79 58.89 7.49
10168 15.1650 69.53 58.89 8.35
10169 15.1660 69.32 58.89 8.33
10170 15.1670 64.48 58.90 8.00
10171 15.1680 65.10 58.90 8.04
10172 15.1690 62.58 58.90 7.90
10173 15.1700 59.59 58.90 7.76
10174 15.1710 70.98 58.91 8.52
10175 15.1720 71.14 58.91 8.47
10176 15.1730 71.61 58.91 8.48
10177 15.1740 61.13 58.91 7.81
10178 15.1750 59.90 58.91 7.77
10179 15.1760 82.57 58.92 9.13
10180 15.1770 66.71 58.92 8.14
10181 15.1780 79.91 58.92 8.89
10182 15.1790 65.52 58.92 8.07
10183 15.1800 67.25 58.93 8.26
10184 15.1810 56.46 58.93 7.58
10185 15.1820 66.32 58.93 8.18
10186 15.1830 55.23 58.93 7.41
10187 15.1840 59.29 58.94 7.72
10188 15.1850 67.42 58.94 8.22
10189 15.1860 75.19 58.94 8.69
10190 15.1870 69.86 58.94 8.35
10191 15.1880 67.59 58.94 8.20
10192 15.1890 66.38 58.95 8.16
10193 15.1900 63.65 58.95 7.98
10194 15.1910 70.67 58.95 8.44
10195 15.1920 64.02 58.95 8.01
10196 15.1930 72.00 58.96 8.48
10197 15.1940 77.59 58.96 8.76
10198 15.1950 79.22 58.96 8.90
10199 15.1960 70.28 58.96 8.44
10200 15.1970 67.03 58.96 8.18
10201 15.1980 60.24 58.97 7.73
10202 15.1990 57.41 58.97 7.57
10203 15.2000 63.88 58.97 8.00
10204 15.2010 60.76 59.33 7.84
10205 15.2020 63.13 59.33 7.94
10206 15.2030 58.47 60.09 7.63
10207 15.2040 78.00 60.10 8.81
10208 15.2050 57.88 60.11 7.61
10209 15.2060 56.68 60.12 7.57
10210 15.2070 62.04 60.13 7.88
10211 15.2080 69.94 60.14 8.34
10212 15.2090 59.25 60.15 7.69
10213 15.2100 58.88 60.16 7.71
10214 15.2110 64.67 60.17 8.10
10215 15.2120 82.62 60.18 9.09
10216 15.2130 63.39 60.19 7.94
10217 15.2140 77.14 60.20 8.73
10218 15.2150 71.52 60.21 8.43
10219 15.2160 69.69 60.22 8.35
10220 15.2170 78.52 60.23 8.87
10221 15.2180 64.35 60.25 8.01
10222 15.2190 66.90 60.26 8.16
10223 15.2200 69.47 60.27 8.41
10224 15.2210 76.56 60.28 8.81
10225 15.2220 60.08 60.29 7.76
10226 15.2230 66.82 60.30 8.18
10227 15.2240 65.32 60.31 8.09
10228 15.2250 77.03 60.33 8.79
10229 15.2260 71.41 60.34 8.47
10230 15.2270 64.92 60.35 8.06
10231 15.2280 78.29 60.36 8.84
10232 15.2290 69.99 60.37 8.38
10233 15.2300 68.83 60.39 8.33
10234 15.2310 71.53 60.40 8.53
10235 15.2320 68.61 60.41 8.34
10236 15.2330 62.60 60.42 7.93
10237 15.2340 68.07 60.44 8.23
10238 15.2350 71.56 60.45 8.49
10239 15.2360 62.39 60.46 7.92
10240 15.2370 55.40 60.47 7.44
10241 15.2380 65.45 60.49 8.01
10242 15.2390 63.65 60.50 7.95
10243 15.2400 67.39 60.51 8.20
10244 15.2410 70.12 60.53 8.43
10245 15.2420 64.40 60.54 8.04
10246 15.2430 64.12 60.55 8.00
10247 15.2440 60.51 60.57 7.78
10248 15.2450 60.14 60.58 7.78
10249 15.2460 70.43 60.60 8.42
10250 15.2470 68.46 60.61 8.28
10251 15.2480 66.06 60.63 8.10
10252 15.2490 71.20 60.64 8.41
10253 15.2500 63.38 60.66 8.02
10254 15.2510 76.79 60.67 8.80
10255 15.2520 60.63 60.69 7.80
10256 15.2530 64.80 60.70 8.07
10257 15.2540 75.46 60.72 8.63
10258 15.2550 69.80 60.73 8.36
10259 15.2560 66.43 60.75 8.19
10260 15.2570 51.72 60.76 7.23
10261 15.2580 74.50 60.78 8.61
10262 15.2590 62.73 60.80 7.94
10263 15.2600 71.29 60.81 8.51
10264 15.2610 72.33 60.83 8.56
10265 15.2620 76.03 60.85 8.73
10266 15.2630 73.80 60.86 8.56
10267 15.2640 65.71 60.88 8.11
10268 15.2650 77.39 60.90 8.78
10269 15.2660 72.67 60.91 8.54
10270 15.2670 73.58 60.93 8.59
10271 15.2680 64.29 60.95 8.03
10272 15.2690 59.78 60.97 7.74
10273 15.2700 53.70 60.99 7.36
10274 15.2710 55.60 61.00 7.52
10275 15.2720 81.79 61.02 9.07
10276 15.2730 66.85 61.04 8.18
10277 15.2740 71.66 61.06 8.44
10278 15.2750 70.28 61.08 8.39
10279 15.2760 70.63 61.10 8.44
10280 15.2770 67.67 61.12 8.24
10281 15.2780 66.47 61.14 8.10
10282 15.2790 65.26 61.16 8.09
10283 15.2800 71.19 61.18 8.49
10284 15.2810 63.41 61.20 8.04
10285 15.2820 65.93 61.22 8.15
10286 15.2830 59.60 61.25 7.73
10287 15.2840 68.72 61.27 8.33
10288 15.2850 72.17 61.29 8.52
10289 15.2860 63.71 61.31 8.01
10290 15.2870 66.49 61.33 8.15
10291 15.2880 74.88 61.36 8.64
10292 15.2890 77.53 61.38 8.80
10293 15.2900 66.28 61.40 8.17
10294 15.2910 75.26 61.43 8.78
10295 15.2920 79.23 61.45 8.94
10296 15.2930 71.52 61.48 8.48
10297 15.2940 66.40 61.50 8.11
10298 15.2950 66.62 61.52 8.23
10299 15.2960 72.12 61.55 8.53
10300 15.2970 79.41 61.58 8.92
10301 15.2980 80.43 61.60 8.94
10302 15.2990 90.80 61.63 9.53
10303 15.3000 68.01 61.65 8.28
10304 15.3010 74.26 61.68 8.71
10305 15.3020 63.44 61.71 7.96
10306 15.3030 74.38 61.74 8.63
10307 15.3040 54.16 61.77 7.36
10308 15.3050 73.20 61.79 8.59
10309 15.3060 69.51 61.82 8.38
10310 15.3070 66.43 61.85 8.18
10311 15.3080 75.64 61.88 8.71
10312 15.3090 77.70 61.91 8.84
10313 15.3100 80.53 61.94 9.04
10314 15.3110 75.85 61.97 8.78
10315 15.3120 75.02 62.01 8.68
10316 15.3130 74.25 62.04 8.63
10317 15.3140 59.59 62.07 7.70
10318 15.3150 73.34 62.10 8.58
10319 15.3160 70.39 62.14 8.42
10320 15.3170 71.00 62.17 8.45
10321 15.3180 66.92 62.21 8.17
10322 15.3190 59.86 62.24 7.73
10323 15.3200 74.25 62.28 8.66
10324 15.3210 56.29 62.31 7.57
10325 15.3220 68.77 62.35 8.31
10326 15.3230 83.20 62.39 9.14
10327 15.3240 71.42 62.43 8.44
10328 15.3250 86.79 62.47 9.34
10329 15.3260 76.10 62.51 8.75
10330 15.3270 70.94 62.55 8.44
10331 15.3280 68.67 62.59 8.28
10332 15.3290 70.03 62.63 8.39
10333 15.3300 64.20 62.67 8.06
10334 15.3310 64.51 62.71 8.13
10335 15.3320 77.43 62.76 8.82
10336 15.3330 71.96 62.80 8.50
10337 15.3340 66.43 62.85 8.15
10338 15.3350 66.40 62.89 8.18
10339 15.3360 69.31 62.94 8.37
10340 15.3370 68.29 62.99 8.26
10341 15.3380 62.16 63.03 7.88
10342 15.3390 64.37 63.08 8.03
10343 15.3400 58.46 63.13 7.71
10344 15.3410 70.38 63.18 8.48
10345 15.3420 72.05 63.24 8.51
10346 15.3430 64.92 63.29 8.08
10347 15.3440 72.13 63.34 8.50
10348 15.3450 64.17 63.40 8.04
10349 15.3460 82.46 63.45 9.12
10350 15.3470 67.07 63.51 8.23
10351 15.3480 77.40 63.57 8.76
10352 15.3490 67.93 63.63 8.25
10353 15.3500 75.05 63.69 8.72
10354 15.3510 64.83 63.75 8.10
10355 15.3520 76.20 63.81 8.75
10356 15.3530 74.77 63.87 8.66
10357 15.3540 75.92 63.94 8.74
10358 15.3550 76.57 64.01 8.79
10359 15.3560 70.28 64.07 8.42
10360 15.3570 71.64 64.14 8.49
10361 15.3580 68.34 64.21 8.24
10362 15.3590 75.11 64.29 8.67
10363 15.3600 63.38 64.36 8.01
10364 15.3610 72.86 64.43 8.63
10365 15.3620 56.94 64.51 7.58
10366 15.3630 60.62 64.59 7.81
10367 15.3640 72.52 64.67 8.50
10368 15.3650 94.15 64.75 9.73
10369 15.3660 70.45 64.84 8.44
10370 15.3670 60.30 64.92 7.78
10371 15.3680 74.02 65.01 8.59
10372 15.3690 78.05 65.10 8.83
10373 15.3700 74.98 65.19 8.70
10374 15.3710 72.09 65.28 8.59
10375 15.3720 70.57 65.38 8.43
10376 15.3730 78.68 65.48 8.87
10377 15.3740 75.52 65.58 8.72
10378 15.3750 86.97 65.68 9.31
10379 15.3760 67.80 65.78 8.28
10380 15.3770 82.86 65.89 9.08
10381 15.3780 82.76 66.00 9.05
10382 15.3790 76.07 66.11 8.68
10383 15.3800 60.75 66.23 7.88
10384 15.3810 89.60 66.35 9.55
10385 15.3820 67.00 66.47 8.26
10386 15.3830 84.83 66.59 9.19
10387 15.3840 72.61 66.72 8.54
10388 15.3850 80.96 66.85 9.00
10389 15.3860 75.76 66.99 8.73
10390 15.3870 74.80 67.12 8.64
10391 15.3880 82.54 67.26 9.08
10392 15.3890 74.06 67.41 8.60
10393 15.3900 72.72 67.56 8.60
10394 15.3910 69.37 67.71 8.40
10395 15.3920 63.89 67.87 8.03
10396 15.3930 81.75 68.03 9.05
10397 15.3940 84.69 68.20 9.20
10398 15.3950 92.79 68.37 9.65
10399 15.3960 78.98 68.55 8.94
10400 15.3970 68.81 68.73 8.33
10401 15.3980 73.18 68.91 8.56
10402 15.3990 61.51 69.11 7.83
10403 15.4000 81.14 69.30 9.06
10404 15.4010 71.90 69.51 8.55
10405 15.4020 71.01 69.72 8.44
10406 15.4030 87.41 69.93 9.35
10407 15.4040 66.73 70.16 8.18
10408 15.4050 69.62 70.39 8.41
10409 15.4060 72.01 70.63 8.54
10410 15.4070 73.28 70.87 8.60
10411 15.4080 73.45 71.13 8.53
10412 15.4090 72.82 71.39 8.54
10413 15.4100 79.11 71.66 8.98
10414 15.4110 69.16 71.94 8.38
10415 15.4120 76.94 72.23 8.79
10416 15.4130 77.91 72.53 8.81
10417 15.4140 79.47 72.84 8.91
10418 15.4150 72.85 73.16 8.53
10419 15.4160 70.43 73.49 8.43
10420 15.4170 80.23 73.83 8.94
10421 15.4180 53.70 74.19 7.33
10422 15.4190 94.37 74.56 9.69
10423 15.4200 96.47 74.94 9.90
10424 15.4210 91.06 75.34 9.59
10425 15.4220 88.45 75.76 9.44
10426 15.4230 87.09 76.19 9.36
10427 15.4240 89.44 76.64 9.46
10428 15.4250 83.66 77.10 9.17
10429 15.4260 83.98 77.59 9.22
10430 15.4270 85.98 78.09 9.29
10431 15.4280 68.43 78.62 8.25
10432 15.4290 62.22 79.16 7.89
10433 15.4300 72.24 79.74 8.56
10434 15.4310 94.40 80.33 9.83
10435 15.4320 74.59 80.96 8.69
10436 15.4330 72.97 81.61 8.56
10437 15.4340 83.37 82.29 9.15
10438 15.4350 72.54 83.00 8.53
10439 15.4360 86.80 83.75 9.36
10440 15.4370 76.00 84.53 8.69
10441 15.4380 87.48 85.35 9.33
10442 15.4390 89.58 86.22 9.44
10443 15.4400 70.29 87.12 8.41
10444 15.4410 82.88 88.07 9.18
10445 15.4420 95.01 89.08 9.75
10446 15.4430 72.68 90.13 8.55
10447 15.4440 91.71 91.24 9.56
10448 15.4450 82.14 92.42 9.07
10449 15.4460 94.11 93.66 9.73
10450 15.4470 98.19 94.97 9.93
10451 15.4480 115.21 96.35 10.67
10452 15.4490 87.57 97.82 9.34
10453 15.4500 104.91 99.38 10.34
10454 15.4510 101.02 101.04 10.11
10455 15.4520 79.62 102.80 8.95
10456 15.4530 100.46 104.67 10.02
10457 15.4540 93.68 106.67 9.68
10458 15.4550 109.93 108.80 10.49
10459 15.4560 71.59 111.08 8.52
10460 15.4570 100.57 113.52 10.02
10461 15.4580 109.80 116.14 10.45
10462 15.4590 119.87 118.96 10.93
10463 15.4600 118.32 121.98 10.95
10464 15.4610 110.36 125.24 10.58
10465 15.4620 89.18 128.76 9.46
10466 15.4630 124.32 132.57 11.12
10467 15.4640 134.30 136.71 11.61
10468 15.4650 129.22 141.19 11.32
10469 15.4660 123.00 146.08 11.11
10470 15.4670 148.29 151.43 12.14
10471 15.4680 128.33 157.27 11.25
10472 15.4690 149.55 163.69 12.15
10473 15.4700 156.68 170.76 12.56
10474 15.4710 142.02 178.55 11.97
10475 15.4720 179.86 187.21 13.45
10476 15.4730 168.64 196.82 12.98
10477 15.4740 195.60 207.54 13.93
10478 15.4750 191.85 219.57 13.84
10479 15.4760 264.23 233.07 16.31
10480 15.4770 224.08 248.37 14.92
10481 15.4780 240.46 265.72 15.45
10482 15.4790 250.92 285.57 15.76
10483 15.4800 287.94 308.40 17.09
10484 15.4810 307.04 334.80 17.69
10485 15.4820 317.90 365.73 17.88
10486 15.4830 406.73 402.32 20.10
10487 15.4840 470.26 446.18 21.65
10488 15.4850 534.71 499.91 23.10
10489 15.4860 601.27 566.99 24.58
10490 15.4870 650.83 652.52 25.43
10491 15.4880 749.99 763.38 27.25
10492 15.4890 916.28 909.34 30.23
10493 15.4900 1162.68 1101.62 34.30
10494 15.4910 1309.53 1354.42 36.43
10495 15.4920 1616.18 1681.46 40.32
10496 15.4930 2008.20 2093.78 44.76
10497 15.4940 2545.98 2597.62 50.58
10498 15.4950 3018.62 3181.02 55.32
10499 15.4960 3732.60 3809.17 61.91
10500 15.4970 4530.31 4408.19 67.96
10501 15.4980 5224.63 4880.58 72.75
10502 15.4990 5442.79 5124.62 74.60
10503 15.5000 5532.95 5073.02 75.72
10504 15.5010 5185.10 4728.84 73.34
10505 15.5020 4134.78 4174.82 65.14
10506 15.5030 3407.45 3533.70 58.96
10507 15.5040 2758.70 2907.61 53.01
10508 15.5050 2191.25 2351.07 47.00
10509 15.5060 1827.20 1886.17 43.07
10510 15.5070 1560.42 1513.78 39.49
10511 15.5080 1178.82 1222.88 34.19
10512 15.5090 1009.82 1000.74 31.60
10513 15.5100 851.83 832.27 29.30
10514 15.5110 732.02 705.02 27.29
10515 15.5120 621.16 607.71 24.90
10516 15.5130 570.63 532.20 23.91
10517 15.5140 485.00 472.47 22.04
10518 15.5150 403.74 424.00 20.11
10519 15.5160 387.83 383.97 19.65
10520 15.5170 334.48 350.40 18.24
10521 15.5180 289.08 321.79 16.99
10522 15.5190 278.13 297.19 16.61
10523 15.5200 279.46 275.87 16.83
10524 15.5210 243.13 257.30 15.65
10525 15.5220 205.85 240.96 14.45
10526 15.5230 210.31 226.57 14.49
10527 15.5240 191.52 213.79 13.77
10528 15.5250 179.48 202.41 13.43
10529 15.5260 189.63 192.26 13.77
10530 15.5270 158.04 183.12 12.60
10531 15.5280 172.50 174.90 13.10
10532 15.5290 137.90 167.46 11.74
10533 15.5300 146.89 160.72 12.22
10534 15.5310 155.99 154.59 12.59
10535 15.5320 142.15 148.99 11.95
10536 15.5330 127.87 143.88 11.28
10537 15.5340 135.07 139.18 11.63
10538 15.5350 113.77 134.87 10.73
10539 15.5360 132.40 130.90 11.57
10540 15.5370 116.03 127.23 10.76
10541 15.5380 103.77 123.84 10.18
10542 15.5390 114.32 120.70 10.66
10543 15.5400 97.31 117.78 9.93
10544 15.5410 129.23 115.07 11.40
10545 15.5420 105.59 112.54 10.25
10546 15.5430 96.59 110.18 9.81
10547 15.5440 104.83 107.98 10.26
10548 15.5450 99.98 105.92 10.01
10549 15.5460 92.94 103.98 9.68
10550 15.5470 94.90 102.52 9.79
10551 15.5480 104.80 100.81 10.21
10552 15.5490 87.58 99.93 9.33
10553 15.5500 95.30 98.43 9.80
10554 15.5510 89.95 97.01 9.61
10555 15.5520 88.21 95.67 9.45
10556 15.5530 94.29 94.40 9.73
10557 15.5540 100.61 93.21 10.04
10558 15.5550 94.55 92.07 9.82
10559 15.5560 90.23 91.00 9.54
10560 15.5570 98.29 89.99 9.93
10561 15.5580 95.54 89.02 9.77
10562 15.5590 95.90 88.10 9.81
10563 15.5600 87.90 87.23 9.46
10564 15.5610 80.89 86.40 9.08
10565 15.5620 90.70 85.61 9.58
10566 15.5630 80.32 84.86 8.98
10567 15.5640 95.53 84.14 9.78
10568 15.5650 86.44 83.45 9.31
10569 15.5660 96.20 82.80 9.87
10570 15.5670 91.77 82.17 9.59
10571 15.5680 89.52 81.58 9.46
10572 15.5690 84.17 81.00 9.16
10573 15.5700 83.78 80.46 9.19
10574 15.5710 93.10 79.93 9.76
10575 15.5720 72.96 79.43 8.60
10576 15.5730 74.53 78.95 8.64
10577 15.5740 84.91 78.49 9.24
10578 15.5750 70.69 78.04 8.43
10579 15.5760 90.79 77.62 9.60
10580 15.5770 81.18 77.21 9.03
10581 15.5780 76.94 76.82 8.76
10582 15.5790 71.85 76.44 8.50
10583 15.5800 77.12 76.08 8.87
10584 15.5810 76.66 75.73 8.86
10585 15.5820 85.09 75.39 9.28
10586 15.5830 80.70 75.07 8.98
10587 15.5840 93.13 74.76 9.67
10588 15.5850 83.27 74.45 9.16
10589 15.5860 75.46 74.17 8.75
10590 15.5870 86.44 73.89 9.32
10591 15.5880 76.05 73.62 8.74
10592 15.5890 75.52 73.36 8.65
10593 15.5900 91.01 73.11 9.59
10594 15.5910 76.62 72.86 8.80
10595 15.5920 89.68 72.63 9.48
10596 15.5930 87.08 72.40 9.32
10597 15.5940 89.28 72.18 9.43
10598 15.5950 83.61 71.97 9.18
10599 15.5960 90.40 71.77 9.57
10600 15.5970 82.72 71.57 9.10
10601 15.5980 88.07 71.38 9.37
10602 15.5990 80.26 71.20 8.94
10603 15.6000 89.46 71.02 9.51
10604 15.6010 79.66 70.85 9.01
10605 15.6020 73.39 70.68 8.61
10606 15.6030 67.49 70.52 8.21
10607 15.6040 79.63 70.36 8.94
10608 15.6050 82.17 70.21 9.09
10609 15.6060 83.71 70.06 9.23
10610 15.6070 66.46 69.92 8.18
10611 15.6080 73.00 69.79 8.55
10612 15.6090 90.55 69.65 9.52
10613 15.6100 83.96 69.52 9.21
10614 15.6110 88.55 69.40 9.46
10615 15.6120 84.80 69.28 9.25
10616 15.6130 91.15 69.16 9.52
10617 15.6140 86.68 69.05 9.30
10618 15.6150 93.33 68.94 9.73
10619 15.6160 82.48 68.83 9.12
10620 15.6170 79.16 68.73 8.87
10621 15.6180 87.40 68.63 9.35
10622 15.6190 80.49 68.53 8.98
10623 15.6200 74.65 68.44 8.74
10624 15.6210 61.35 68.35 7.96
10625 15.6220 71.01 68.26 8.48
10626 15.6230 87.14 68.17 9.36
10627 15.6240 98.81 68.09 9.94
10628 15.6250 90.02 68.01 9.49
10629 15.6260 81.59 67.93 9.07
10630 15.6270 77.62 67.86 8.81
10631 15.6280 71.47 67.79 8.47
10632 15.6290 77.40 67.72 8.81
10633 15.6300 82.44 67.65 9.17
10634 15.6310 78.49 67.58 8.96
10635 15.6320 80.69 67.52 9.04
10636 15.6330 85.58 67.46 9.28
10637 15.6340 85.85 67.40 9.24
10638 15.6350 90.70 67.34 9.57
10639 15.6360 92.27 67.29 9.65
10640 15.6370 88.12 67.23 9.39
10641 15.6380 72.74 67.18 8.50
10642 15.6390 71.26 67.13 8.46
10643 15.6400 87.15 67.09 9.38
10644 15.6410 75.52 67.04 8.76
10645 15.6420 83.06 67.00 9.12
10646 15.6430 83.21 66.96 9.13
10647 15.6440 73.22 66.91 8.59
10648 15.6450 65.68 66.88 8.15
10649 15.6460 66.31 66.84 8.18
10650 15.6470 71.23 66.80 8.47
10651 15.6480 81.54 66.77 9.04
10652 15.6490 74.93 66.74 8.63
10653 15.6500 74.60 66.71 8.70
10654 15.6510 88.36 66.68 9.49
10655 15.6520 91.24 66.65 9.62
10656 15.6530 60.25 66.62 7.79
10657 15.6540 78.16 66.60 8.89
10658 15.6550 73.36 66.57 8.60
10659 15.6560 81.36 66.55 9.08
10660 15.6570 77.92 66.53 8.84
10661 15.6580 84.11 66.51 9.17
10662 15.6590 78.64 66.49 8.86
10663 15.6600 76.52 66.47 8.83
10664 15.6610 60.32 66.46 7.85
10665 15.6620 74.34 66.44 8.63
10666 15.6630 74.77 66.43 8.67
10667 15.6640 76.59 66.42 8.73
10668 15.6650 88.26 66.41 9.43
10669 15.6660 72.23 66.40 8.51
10670 15.6670 72.12 66.39 8.51
10671 15.6680 76.15 66.39 8.68
10672 15.6690 71.13 66.38 8.44
10673 15.6700 83.68 66.38 9.21
10674 15.6710 83.78 66.37 9.26
10675 15.6720 73.19 66.37 8.58
10676 15.6730 98.21 66.37 9.92
10677 15.6740 67.40 66.37 8.23
10678 15.6750 64.01 66.38 8.04
10679 15.6760 74.71 66.38 8.68
10680 15.6770 64.99 66.38 8.08
10681 15.6780 84.85 66.39 9.22
10682 15.6790 75.49 66.40 8.70
10683 15.6800 72.52 66.40 8.59
10684 15.6810 77.00 66.41 8.88
10685 15.6820 72.79 66.42 8.56
10686 15.6830 68.19 66.44 8.27
10687 15.6840 71.21 66.45 8.43
10688 15.6850 71.75 66.47 8.50
10689 15.6860 80.87 66.48 9.05
10690 15.6870 83.32 66.50 9.13
10691 15.6880 72.07 66.52 8.46
10692 15.6890 68.99 66.54 8.30
10693 15.6900 87.22 66.56 9.38
10694 15.6910 79.40 66.58 8.98
10695 15.6920 81.98 66.60 9.08
10696 15.6930 74.32 66.63 8.61
10697 15.6940 89.71 66.66 9.45
10698 15.6950 90.27 66.68 9.54
10699 15.6960 82.42 66.71 9.15
10700 15.6970 65.72 66.74 8.11
10701 15.6980 65.28 66.78 8.08
10702 15.6990 75.24 66.81 8.67
10703 15.7000 73.48 66.85 8.65
10704 15.7010 65.68 66.88 8.15
10705 15.7020 75.87 66.92 8.78
10706 15.7030 76.91 66.96 8.78
10707 15.7040 69.02 67.00 8.34
10708 15.7050 79.35 67.05 8.96
10709 15.7060 78.94 67.09 8.94
10710 15.7070 84.29 67.14 9.22
10711 15.7080 80.98 67.19 8.99
10712 15.7090 73.22 67.24 8.52
10713 15.7100 60.32 67.29 7.84
10714 15.7110 75.73 67.34 8.78
10715 15.7120 94.89 67.40 9.76
10716 15.7130 85.86 67.45 9.27
10717 15.7140 73.12 67.51 8.55
10718 15.7150 83.93 67.57 9.14
10719 15.7160 57.42 67.64 7.60
10720 15.7170 80.70 67.70 8.95
10721 15.7180 69.22 67.77 8.26
10722 15.7190 75.21 67.84 8.65
10723 15.7200 103.33 67.91 10.21
10724 15.7210 94.47 67.99 9.82
10725 15.7220 83.57 68.06 9.15
10726 15.7230 67.65 68.14 8.25
10727 15.7240 68.35 68.23 8.28
10728 15.7250 64.04 68.31 8.04
10729 15.7260 85.23 68.40 9.24
10730 15.7270 77.69 68.49 8.82
10731 15.7280 73.20 68.58 8.54
10732 15.7290 86.42 68.67 9.26
10733 15.7300 60.23 68.77 7.81
10734 15.7310 65.61 68.87 8.19
10735 15.7320 91.41 68.98 9.59
10736 15.7330 71.49 69.09 8.47
10737 15.7340 85.78 69.20 9.24
10738 15.7350 70.47 69.31 8.45
10739 15.7360 73.71 69.43 8.65
10740 15.7370 80.62 69.55 8.96
10741 15.7380 72.41 69.68 8.48
10742 15.7390 73.02 69.81 8.52
10743 15.7400 84.93 69.94 9.27
10744 15.7410 74.16 70.08 8.69
10745 15.7420 89.84 70.22 9.51
10746 15.7430 77.30 70.37 8.79
10747 15.7440 78.17 70.52 8.86
10748 15.7450 70.61 70.68 8.43
10749 15.7460 73.83 70.84 8.63
10750 15.7470 73.91 71.00 8.58
10751 15.7480 79.43 71.18 8.94
10752 15.7490 100.58 71.35 10.03
10753 15.7500 79.96 71.54 9.04
10754 15.7510 91.37 71.73 9.65
10755 15.7520 81.90 71.92 9.11
10756 15.7530 98.66 72.12 9.97
10757 15.7540 87.58 72.33 9.36
10758 15.7550 81.91 72.55 9.12
10759 15.7560 93.40 72.77 9.72
10760 15.7570 97.15 73.01 9.87
10761 15.7580 74.01 73.25 8.61
10762 15.7590 68.61 73.49 8.27
10763 15.7600 88.55 73.75 9.48
10764 15.7610 98.68 74.02 10.05
10765 15.7620 90.94 74.29 9.58
10766 15.7630 81.30 74.58 9.01
10767 15.7640 91.46 74.87 9.57
10768 15.7650 88.22 75.18 9.43
10769 15.7660 73.48 75.50 8.59
10770 15.7670 89.70 75.83 9.47
10771 15.7680 65.87 76.17 8.09
10772 15.7690 83.56 76.53 9.14
10773 15.7700 80.30 76.90 9.04
10774 15.7710 91.77 77.29 9.69
10775 15.7720 78.85 77.69 8.92
10776 15.7730 81.50 78.11 9.05
10777 15.7740 83.39 78.54 9.17
10778 15.7750 87.45 78.99 9.38
10779 15.7760 87.02 79.47 9.40
10780 15.7770 85.18 79.96 9.24
10781 15.7780 70.16 80.47 8.39
10782 15.7790 81.97 81.01 9.08
10783 15.7800 72.56 81.58 8.58
10784 15.7810 86.51 82.17 9.44
10785 15.7820 101.72 82.79 10.17
10786 15.7830 85.06 83.43 9.25
10787 15.7840 103.75 84.12 10.18
10788 15.7850 73.67 84.83 8.63
10789 15.7860 78.95 85.57 8.94
10790 15.7870 95.22 86.34 9.79
10791 15.7880 112.61 87.14 10.61
10792 15.7890 98.63 87.98 9.93
10793 15.7900 88.77 88.85 9.48
10794 15.7910 80.74 89.77 9.08
10795 15.7920 86.22 90.74 9.31
10796 15.7930 84.88 91.76 9.19
10797 15.7940 102.14 92.85 10.10
10798 15.7950 86.52 93.64 9.34
10799 15.7960 96.78 94.85 9.91
10800 15.7970 108.70 96.14 10.46
10801 15.7980 98.93 96.76 9.94
10802 15.7990 106.96 98.21 10.35
10803 15.8000 104.74 99.75 10.30
10804 15.8010 111.00 101.38 10.64
10805 15.8020 90.10 103.12 9.56
10806 15.8030 105.97 104.97 10.31
10807 15.8040 121.30 106.94 11.07
10808 15.8050 97.83 109.05 9.94
10809 15.8060 103.87 111.30 10.25
10810 15.8070 107.65 113.71 10.39
10811 15.8080 111.19 116.30 10.54
10812 15.8090 136.19 119.07 11.64
10813 15.8100 112.82 122.06 10.69
10814 15.8110 112.41 125.28 10.72
10815 15.8120 119.12 128.76 10.97
10816 15.8130 121.28 132.51 11.00
10817 15.8140 123.81 136.59 11.15
10818 15.8150 133.42 141.03 11.56
10819 15.8160 141.02 145.85 11.91
10820 15.8170 147.60 151.12 12.13
10821 15.8180 143.75 156.87 11.92
10822 15.8190 156.65 163.20 12.50
10823 15.8200 166.21 170.17 13.04
10824 15.8210 174.49 177.86 13.33
10825 15.8220 162.43 186.37 12.78
10826 15.8230 171.08 195.83 13.10
10827 15.8240 196.67 206.39 14.02
10828 15.8250 206.88 218.20 14.41
10829 15.8260 210.52 231.50 14.56
10830 15.8270 241.43 246.52 15.53
10831 15.8280 274.44 263.55 16.48
10832 15.8290 238.32 283.02 15.47
10833 15.8300 296.31 305.35 17.32
10834 15.8310 353.35 331.23 18.94
10835 15.8320 421.83 361.41 20.61
10836 15.8330 388.35 397.12 19.70
10837 15.8340 400.23 439.93 19.98
10838 15.8350 532.71 492.08 23.09
10839 15.8360 632.11 557.17 25.27
10840 15.8370 670.44 639.99 25.90
10841 15.8380 847.26 747.14 29.12
10842 15.8390 984.25 888.04 31.30
10843 15.8400 1182.03 1073.81 34.61
10844 15.8410 1319.58 1317.04 36.71
10845 15.8420 1587.46 1632.10 39.95
10846 15.8430 1886.63 2030.30 43.34
10847 15.8440 2328.81 2516.49 48.39
10848 15.8450 2921.35 3085.11 54.67
10849 15.8460 3530.31 3702.97 60.38
10850 15.8470 4179.20 4304.53 65.64
10851 15.8480 4822.11 4783.96 70.45
10852 15.8490 5286.93 5026.20 73.75
10853 15.8500 5215.27 4959.27 73.63
10854 15.8510 4828.81 4598.51 70.91
10855 15.8520 3954.71 4041.68 63.81
10856 15.8530 3440.55 3413.25 59.18
10857 15.8540 2814.23 2807.88 53.42
10858 15.8550 2281.40 2273.05 48.16
10859 15.8560 1868.11 1827.16 43.81
10860 15.8570 1444.22 1469.38 38.17
10861 15.8580 1165.14 1190.49 34.18
10862 15.8590 977.77 976.41 31.30
10863 15.8600 806.12 814.00 28.57
10864 15.8610 663.29 691.03 25.97
10865 15.8620 581.11 596.76 24.22
10866 15.8630 547.99 523.56 23.38
10867 15.8640 468.24 465.34 21.53
10868 15.8650 427.00 418.19 20.65
10869 15.8660 392.29 379.12 19.82
10870 15.8670 343.53 346.27 18.44
10871 15.8680 290.18 318.33 16.88
10872 15.8690 287.94 294.25 16.94
10873 15.8700 256.49 273.36 16.08
10874 15.8710 242.55 255.15 15.73
10875 15.8720 225.32 239.12 15.08
10876 15.8730 185.06 224.98 13.60
10877 15.8740 197.30 212.44 14.06
10878 15.8750 192.34 201.26 13.93
10879 15.8760 161.15 191.25 12.72
10880 15.8770 157.82 182.27 12.60
10881 15.8780 149.87 174.17 12.20
10882 15.8790 147.67 166.86 12.16
10883 15.8800 132.33 160.21 11.62
10884 15.8810 146.19 154.17 12.19
10885 15.8820 141.91 148.66 11.97
10886 15.8830 112.18 143.62 10.61
10887 15.8840 127.61 138.99 11.30
10888 15.8850 116.36 134.74 10.84
10889 15.8860 105.06 130.82 10.31
10890 15.8870 117.36 127.21 10.81
10891 15.8880 126.25 123.86 11.20
10892 15.8890 126.04 120.76 11.21
10893 15.8900 117.02 117.88 10.85
10894 15.8910 95.66 115.20 9.85
10895 15.8920 106.79 112.71 10.41
10896 15.8930 108.01 110.38 10.37
10897 15.8940 102.06 108.20 10.10
10898 15.8950 117.76 106.16 10.92
10899 15.8960 105.40 104.26 10.33
10900 15.8970 104.53 102.46 10.27
10901 15.8980 98.77 100.78 9.92
10902 15.8990 100.14 99.19 10.01
10903 15.9000 105.50 97.70 10.34
10904 15.9010 102.57 96.29 10.22
10905 15.9020 109.46 94.96 10.52
10906 15.9030 91.86 93.70 9.57
10907 15.9040 88.42 92.51 9.42
10908 15.9050 94.28 91.39 9.73
10909 15.9060 103.32 90.32 10.22
10910 15.9070 79.87 89.31 8.96
10911 15.9080 92.25 88.34 9.59
10912 15.9090 81.70 87.43 9.03
10913 15.9100 74.15 86.56 8.68
10914 15.9110 80.55 85.73 9.04
10915 15.9120 85.58 84.94 9.30
10916 15.9130 83.56 84.19 9.14
10917 15.9140 83.86 83.47 9.14
10918 15.9150 82.25 82.78 9.08
10919 15.9160 72.28 82.13 8.53
10920 15.9170 76.68 81.50 8.76
10921 15.9180 104.01 80.90 10.17
10922 15.9190 82.96 80.33 9.11
10923 15.9200 81.78 79.78 9.14
10924 15.9210 70.07 79.25 8.46
10925 15.9220 97.00 78.74 9.92
10926 15.9230 90.15 78.26 9.50
10927 15.9240 80.55 77.79 8.99
10928 15.9250 90.05 77.35 9.55
10929 15.9260 74.78 76.91 8.70
10930 15.9270 68.81 76.50 8.31
10931 15.9280 71.32 76.10 8.46
10932 15.9290 87.73 75.72 9.38
10933 15.9300 78.26 75.35 8.90
10934 15.9310 78.95 75.00 8.96
10935 15.9320 85.17 74.65 9.27
10936 15.9330 87.12 74.32 9.36
10937 15.9340 79.14 74.00 8.91
10938 15.9350 91.69 73.70 9.62
10939 15.9360 79.79 73.40 8.99
10940 15.9370 83.43 73.11 9.15
10941 15.9380 80.70 72.83 8.93
10942 15.9390 90.38 72.57 9.43
10943 15.9400 74.63 72.31 8.68
10944 15.9410 71.69 72.06 8.54
10945 15.9420 87.33 71.81 9.36
10946 15.9430 70.83 71.58 8.44
10947 15.9440 77.35 71.35 8.82
10948 15.9450 74.81 71.13 8.70
10949 15.9460 66.43 70.92 8.21
10950 15.9470 78.22 70.71 8.88
10951 15.9480 75.59 70.51 8.71
10952 15.9490 69.87 70.31 8.40
10953 15.9500 86.24 70.13 9.32
10954 15.9510 77.77 69.94 8.90
10955 15.9520 69.16 69.76 8.36
10956 15.9530 79.62 69.59 8.94
10957 15.9540 88.05 69.42 9.37
10958 15.9550 62.31 69.26 7.93
10959 15.9560 77.90 69.10 8.90
10960 15.9570 81.31 68.95 9.06
10961 15.9580 75.93 68.80 8.69
10962 15.9590 95.89 68.65 9.79
10963 15.9600 75.82 68.51 8.78
10964 15.9610 74.91 68.38 8.72
10965 15.9620 81.94 68.24 9.09
10966 15.9630 91.04 68.11 9.52
10967 15.9640 86.99 67.98 9.30
10968 15.9650 68.52 67.86 8.30
10969 15.9660 69.78 67.74 8.39
10970 15.9670 87.04 67.62 9.36
10971 15.9680 78.64 67.51 8.84
10972 15.9690 73.69 67.40 8.59
10973 15.9700 81.49 67.29 9.10
10974 15.9710 85.09 67.18 9.35
10975 15.9720 77.91 67.08 8.88
10976 15.9730 73.42 66.98 8.61
10977 15.9740 67.24 66.88 8.23
10978 15.9750 75.50 66.78 8.74
10979 15.9760 78.87 66.69 8.96
10980 15.9770 74.89 66.60 8.69
10981 15.9780 63.63 66.51 7.97
10982 15.9790 75.39 66.42 8.69
10983 15.9800 71.64 66.34 8.52
10984 15.9810 67.28 66.25 8.32
10985 15.9820 75.53 66.17 8.73
10986 15.9830 71.91 66.09 8.49
10987 15.9840 83.74 66.02 9.15
10988 15.9850 78.59 65.94 8.92
10989 15.9860 86.81 65.87 9.37
10990 15.9870 68.54 65.79 8.29
10991 15.9880 61.70 65.72 7.84
10992 15.9890 77.13 65.66 8.76
10993 15.9900 82.13 65.59 9.11
10994 15.9910 77.52 65.52 8.92
10995 15.9920 70.10 65.46 8.40
10996 15.9930 65.49 65.40 8.13
10997 15.9940 69.50 65.34 8.35
10998 15.9950 66.96 65.28 8.27
10999 15.9960 74.63 65.22 8.72
11000 15.9970 79.46 65.16 8.97
11001 15.9980 77.69 65.10 8.82
11002 15.9990 70.16 65.05 8.41
11003 16.0000 81.80 64.99 9.12
11004 16.0010 99.69 64.94 10.10
11005 16.0020 89.79 64.89 9.50
11006 16.0030 73.79 64.84 8.64
11007 16.0040 62.31 64.79 7.92
11008 16.0050 65.27 64.74 8.16
11009 16.0060 66.62 64.69 8.25
11010 16.0070 83.80 64.64 9.22
11011 16.0080 66.83 64.59 8.21
11012 16.0090 80.14 64.55 8.99
11013 16.0100 69.38 64.50 8.40
11014 16.0110 75.59 64.46 8.77
11015 16.0120 70.84 64.42 8.49
11016 16.0130 70.63 64.37 8.40
11017 16.0140 75.05 64.33 8.66
11018 16.0150 75.47 64.29 8.71
11019 16.0160 72.04 64.25 8.52
11020 16.0170 73.61 64.21 8.60
11021 16.0180 63.51 64.17 7.97
11022 16.0190 72.59 64.14 8.55
11023 16.0200 77.21 64.10 8.86
11024 16.0210 76.58 64.06 8.87
11025 16.0220 87.63 64.03 9.41
11026 16.0230 68.03 63.99 8.27
11027 16.0240 85.34 63.96 9.26
11028 16.0250 66.46 63.93 8.20
11029 16.0260 74.58 63.89 8.66
11030 16.0270 73.63 63.86 8.61
11031 16.0280 56.19 63.83 7.50
11032 16.0290 69.19 63.80 8.34
11033 16.0300 74.40 63.77 8.68
11034 16.0310 59.70 63.74 7.84
11035 16.0320 77.79 63.71 8.86
11036 16.0330 71.60 63.68 8.51
11037 16.0340 74.32 63.65 8.64
11038 16.0350 74.06 63.62 8.67
11039 16.0360 76.10 63.59 8.74
11040 16.0370 71.86 63.56 8.51
11041 16.0380 68.80 63.54 8.28
11042 16.0390 70.41 63.51 8.35
11043 16.0400 77.36 63.49 8.84
11044 16.0410 87.26 63.46 9.40
11045 16.0420 72.58 63.44 8.53
11046 16.0430 68.22 63.41 8.29
11047 16.0440 88.47 63.39 9.45
11048 16.0450 60.52 63.36 7.84
11049 16.0460 73.39 63.34 8.62
11050 16.0470 71.53 63.32 8.48
11051 16.0480 70.90 63.29 8.41
11052 16.0490 68.46 63.27 8.27
11053 16.0500 77.14 63.25 8.84
11054 16.0510 69.57 63.23 8.44
11055 16.0520 88.06 63.21 9.43
11056 16.0530 78.42 63.19 8.89
11057 16.0540 58.47 63.17 7.66
11058 16.0550 81.43 63.15 9.09
11059 16.0560 79.19 63.13 8.95
11060 16.0570 67.13 63.11 8.22
11061 16.0580 75.89 63.09 8.69
11062 16.0590 73.57 63.07 8.59
11063 16.0600 72.81 63.05 8.61
11064 16.0610 63.76 63.03 8.04
11065 16.0620 56.16 63.01 7.54
11066 16.0630 90.34 63.00 9.49
11067 16.0640 74.72 62.98 8.63
11068 16.0650 72.98 62.96 8.56
11069 16.0660 71.88 62.94 8.50
11070 16.0670 79.16 62.93 8.88
11071 16.0680 82.03 62.91 9.04
11072 16.0690 69.57 62.90 8.35
11073 16.0700 68.92 62.88 8.36
11074 16.0710 72.70 62.86 8.66
11075 16.0720 78.28 62.85 8.90
11076 16.0730 79.24 62.83 8.91
11077 16.0740 62.82 62.82 7.94
11078 16.0750 79.22 62.80 8.92
11079 16.0760 77.53 62.79 8.81
11080 16.0770 78.67 62.78 8.87
11081 16.0780 58.25 62.76 7.59
11082 16.0790 75.85 62.75 8.73
11083 16.0800 77.95 62.73 8.91
11084 16.0810 69.25 62.72 8.40
11085 16.0820 75.51 62.71 8.74
11086 16.0830 77.53 62.69 8.81
11087 16.0840 72.87 62.68 8.54
11088 16.0850 71.42 62.67 8.48
11089 16.0860 68.35 62.66 8.27
11090 16.0870 72.10 62.64 8.46
11091 16.0880 79.22 62.63 8.84
11092 16.0890 77.48 62.62 8.78
11093 16.0900 77.17 62.61 8.80
11094 16.0910 68.41 62.60 8.32
11095 16.0920 64.14 62.59 8.07
11096 16.0930 65.82 62.57 8.12
11097 16.0940 67.25 62.56 8.21
11098 16.0950 66.60 62.55 8.18
11099 16.0960 91.30 62.54 9.62
11100 16.0970 78.91 62.53 8.92
11101 16.0980 68.13 62.52 8.23
11102 16.0990 78.61 62.51 8.86
11103 16.1000 72.17 62.50 8.56
11104 16.1010 59.49 62.49 7.78
11105 16.1020 68.29 62.48 8.28
11106 16.1030 57.88 62.47 7.62
11107 16.1040 84.42 62.46 9.20
11108 16.1050 77.73 62.45 8.84
11109 16.1060 66.34 62.44 8.18
11110 16.1070 76.55 62.43 8.79
11111 16.1080 72.47 62.43 8.52
11112 16.1090 75.88 62.42 8.66
11113 16.1100 76.43 62.41 8.77
11114 16.1110 68.28 62.40 8.30
11115 16.1120 76.21 62.39 8.74
11116 16.1130 71.74 62.38 8.44
11117 16.1140 58.44 62.37 7.64
11118 16.1150 55.02 62.37 7.44
11119 16.1160 56.09 62.36 7.52
11120 16.1170 71.85 62.35 8.47
11121 16.1180 62.06 62.34 7.87
11122 16.1190 61.29 62.34 7.83
11123 16.1200 62.10 62.33 7.93
11124 16.1210 76.42 62.32 8.83
11125 16.1220 69.04 62.31 8.36
11126 16.1230 73.54 62.31 8.55
11127 16.1240 75.55 62.30 8.69
11128 16.1250 59.96 62.29 7.75
11129 16.1260 64.40 62.29 8.06
11130 16.1270 55.51 62.28 7.46
11131 16.1280 72.99 62.27 8.47
11132 16.1290 72.08 62.27 8.48
11133 16.1300 75.94 62.26 8.78
11134 16.1310 83.36 62.25 9.19
11135 16.1320 64.71 62.25 8.08
11136 16.1330 75.67 62.24 8.68
11137 16.1340 78.61 62.24 8.88
11138 16.1350 76.46 62.23 8.77
11139 16.1360 70.13 62.22 8.38
11140 16.1370 65.89 62.22 8.11
11141 16.1380 74.38 62.21 8.56
11142 16.1390 68.75 62.21 8.26
11143 16.1400 77.51 62.20 8.84
11144 16.1410 70.19 62.20 8.45
11145 16.1420 75.21 62.19 8.71
11146 16.1430 85.29 62.19 9.26
11147 16.1440 78.41 62.18 8.83
11148 16.1450 76.68 62.18 8.78
11149 16.1460 78.44 62.17 8.91
11150 16.1470 87.06 62.17 9.33
11151 16.1480 59.28 62.16 7.69
11152 16.1490 54.80 62.16 7.40
11153 16.1500 68.66 61.81 8.33
11154 16.1510 70.29 61.80 8.46
11155 16.1520 62.24 61.09 7.91
11156 16.1530 75.88 61.09 8.70
11157 16.1540 67.78 61.09 8.25
11158 16.1550 70.84 61.10 8.46
11159 16.1560 61.27 61.10 7.89
11160 16.1570 67.77 61.10 8.27
11161 16.1580 75.07 61.11 8.67
11162 16.1590 69.42 61.11 8.30
11163 16.1600 78.05 61.11 8.91
11164 16.1610 81.88 61.11 9.11
11165 16.1620 77.77 61.12 8.81
11166 16.1630 86.79 61.12 9.27
11167 16.1640 63.54 61.12 7.94
11168 16.1650 55.02 61.12 7.41
11169 16.1660 82.89 61.13 9.17
11170 16.1670 60.95 61.13 7.83
11171 16.1680 82.89 61.13 9.13
11172 16.1690 65.00 61.14 8.07
11173 16.1700 81.87 61.14 9.12
11174 16.1710 66.94 61.14 8.26
11175 16.1720 53.26 61.14 7.35
11176 16.1730 71.28 61.15 8.45
11177 16.1740 63.06 61.15 7.94
11178 16.1750 71.32 61.15 8.47
11179 16.1760 73.40 61.16 8.59
11180 16.1770 65.50 61.16 8.10
11181 16.1780 68.71 61.16 8.27
11182 16.1790 72.26 61.17 8.50
11183 16.1800 74.37 61.17 8.69
11184 16.1810 87.42 61.17 9.42
11185 16.1820 70.08 61.17 8.41
11186 16.1830 73.85 61.18 8.60
11187 16.1840 77.56 61.18 8.81
11188 16.1850 64.14 61.18 8.03
11189 16.1860 75.95 61.19 8.72
11190 16.1870 72.48 61.19 8.48
11191 16.1880 67.85 61.19 8.20
11192 16.1890 73.83 61.20 8.58
11193 16.1900 74.74 61.20 8.68
11194 16.1910 82.20 61.20 9.13
11195 16.1920 71.94 61.21 8.54
11196 16.1930 65.06 61.21 8.09
11197 16.1940 84.99 61.21 9.25
11198 16.1950 56.29 61.22 7.53
11199 16.1960 73.28 61.22 8.62
11200 16.1970 65.39 61.23 8.10
11201 16.1980 79.63 61.23 8.89
11202 16.1990 63.99 61.23 8.01
11203 16.2000 71.89 61.24 8.53
11204 16.2010 56.27 61.24 7.56
11205 16.2020 64.98 61.24 8.13
11206 16.2030 73.51 61.25 8.61
11207 16.2040 79.78 61.25 8.92
11208 16.2050 74.07 61.26 8.68
11209 16.2060 84.68 61.26 9.27
11210 16.2070 70.85 61.27 8.43
11211 16.2080 72.01 61.27 8.49
11212 16.2090 73.78 61.27 8.60
11213 16.2100 69.90 61.28 8.40
11214 16.2110 83.80 61.28 9.22
11215 16.2120 66.76 61.29 8.16
11216 16.2130 72.23 61.29 8.48
11217 16.2140 72.54 61.30 8.50
11218 16.2150 66.49 61.30 8.16
11219 16.2160 70.72 61.31 8.46
11220 16.2170 59.79 61.31 7.76
11221 16.2180 67.60 61.32 8.18
11222 16.2190 63.38 61.33 7.99
11223 16.2200 74.21 61.33 8.67
11224 16.2210 71.64 61.34 8.55
11225 16.2220 71.38 61.34 8.49
11226 16.2230 61.11 61.35 7.84
11227 16.2240 64.06 61.36 8.02
11228 16.2250 63.03 61.36 7.96
11229 16.2260 71.21 61.37 8.48
11230 16.2270 73.01 61.38 8.55
11231 16.2280 69.33 61.38 8.33
11232 16.2290 65.32 61.39 8.09
11233 16.2300 68.00 61.40 8.31
11234 16.2310 54.27 61.41 7.46
11235 16.2320 72.71 61.41 8.58
11236 16.2330 67.86 61.42 8.23
11237 16.2340 63.85 61.43 8.00
11238 16.2350 74.21 61.44 8.63
11239 16.2360 63.22 61.45 8.00
11240 16.2370 69.66 61.46 8.32
11241 16.2380 55.52 61.47 7.41
11242 16.2390 65.70 61.48 8.08
11243 16.2400 82.93 61.49 9.17
11244 16.2410 69.05 61.50 8.40
11245 16.2420 64.92 61.51 8.11
11246 16.2430 59.65 61.53 7.76
11247 16.2440 63.33 61.54 7.96
11248 16.2450 57.44 61.55 7.62
11249 16.2460 65.23 61.57 8.10
11250 16.2470 80.87 61.58 8.97
11251 16.2480 73.08 61.60 8.53
11252 16.2490 63.69 61.62 7.98
11253 16.2500 62.55 61.63 7.97
11254 16.2510 85.45 61.65 9.35
11255 16.2520 73.02 61.67 8.57
11256 16.2530 77.66 61.69 8.81
11257 16.2540 74.45 61.72 8.59
11258 16.2550 80.29 61.74 8.98
11259 16.2560 73.75 61.76 8.61
11260 16.2570 64.62 61.79 8.03
11261 16.2580 74.81 61.82 8.60
11262 16.2590 89.10 61.85 9.41
11263 16.2600 50.09 61.88 7.11
11264 16.2610 57.93 61.92 7.67
11265 16.2620 57.14 61.96 7.54
11266 16.2630 62.59 62.00 7.89
11267 16.2640 72.60 62.04 8.47
11268 16.2650 81.91 62.09 9.09
11269 16.2660 67.55 62.15 8.27
11270 16.2670 75.84 62.20 8.71
11271 16.2680 69.22 62.27 8.29
11272 16.2690 72.46 62.34 8.49
11273 16.2700 62.77 62.41 7.96
11274 16.2710 75.06 62.50 8.74
11275 16.2720 67.46 62.59 8.23
11276 16.2730 70.81 62.70 8.45
11277 16.2740 74.36 62.81 8.63
11278 16.2750 78.75 62.95 8.89
11279 16.2760 80.68 63.10 9.02
11280 16.2770 66.58 63.27 8.17
11281 16.2780 56.10 63.46 7.45
11282 16.2790 65.84 63.68 8.10
11283 16.2800 85.61 63.94 9.25
11284 16.2810 76.25 64.25 8.84
11285 16.2820 70.63 64.62 8.44
11286 16.2830 68.87 65.06 8.33
11287 16.2840 76.44 65.62 8.70
11288 16.2850 68.34 66.32 8.28
11289 16.2860 79.93 67.21 8.97
11290 16.2870 78.18 68.37 8.79
11291 16.2880 80.10 69.87 8.90
11292 16.2890 67.99 71.80 8.22
11293 16.2900 71.22 74.26 8.48
11294 16.2910 83.51 77.34 9.21
11295 16.2920 71.84 81.05 8.52
11296 16.2930 98.30 85.34 9.89
11297 16.2940 86.76 89.97 9.31
11298 16.2950 92.89 94.46 9.63
11299 16.2960 93.85 98.19 9.70
11300 16.2970 102.65 100.72 10.12
11301 16.2980 106.26 101.97 10.28
11302 16.2990 106.99 101.98 10.34
11303 16.3000 109.16 100.65 10.49
11304 16.3010 95.71 97.87 9.88
11305 16.3020 101.49 93.84 10.05
11306 16.3030 85.55 89.17 9.24
11307 16.3040 95.13 84.52 9.71
11308 16.3050 89.67 80.29 9.51
11309 16.3060 77.33 76.68 8.84
11310 16.3070 76.07 73.73 8.71
11311 16.3080 82.00 71.38 9.04
11312 16.3090 82.66 69.55 9.04
11313 16.3100 67.97 68.13 8.30
11314 16.3110 77.20 67.04 8.81
11315 16.3120 82.60 66.20 9.05
11316 16.3130 78.78 65.54 8.86
11317 16.3140 81.89 65.02 9.02
11318 16.3150 83.08 64.60 9.14
11319 16.3160 80.87 64.25 9.05
11320 16.3170 78.36 63.96 8.86
11321 16.3180 60.72 63.71 7.76
11322 16.3190 76.85 63.50 8.78
11323 16.3200 73.23 63.31 8.57
11324 16.3210 68.89 63.15 8.36
11325 16.3220 80.19 63.01 8.99
11326 16.3230 71.16 62.88 8.42
11327 16.3240 73.24 62.77 8.54
11328 16.3250 83.23 62.67 9.14
11329 16.3260 75.24 62.58 8.69
11330 16.3270 65.84 62.51 8.10
11331 16.3280 77.77 62.43 8.79
11332 16.3290 76.04 62.37 8.72
11333 16.3300 72.33 62.31 8.56
11334 16.3310 83.71 62.26 9.21
11335 16.3320 61.40 62.21 7.86
11336 16.3330 85.59 62.17 9.26
11337 16.3340 75.56 62.13 8.67
11338 16.3350 58.14 62.09 7.61
11339 16.3360 59.66 62.05 7.70
11340 16.3370 75.00 62.02 8.62
11341 16.3380 74.42 61.99 8.56
11342 16.3390 64.42 61.97 7.99
11343 16.3400 67.31 61.94 8.26
11344 16.3410 70.64 61.92 8.49
11345 16.3420 70.78 61.90 8.44
11346 16.3430 66.05 61.88 8.15
11347 16.3440 66.60 61.86 8.13
11348 16.3450 75.11 61.84 8.67
11349 16.3460 71.86 61.83 8.49
11350 16.3470 68.97 61.81 8.28
11351 16.3480 63.79 61.80 7.96
11352 16.3490 65.58 61.79 8.06
11353 16.3500 79.99 61.78 8.97
11354 16.3510 65.05 61.76 8.12
11355 16.3520 60.05 61.75 7.76
11356 16.3530 68.94 61.74 8.28
11357 16.3540 77.52 61.74 8.80
11358 16.3550 68.52 61.73 8.25
11359 16.3560 70.79 61.72 8.45
11360 16.3570 65.95 61.71 8.10
11361 16.3580 65.79 61.70 8.05
11362 16.3590 60.99 61.70 7.76
11363 16.3600 70.97 61.69 8.39
11364 16.3610 81.29 61.69 9.04
11365 16.3620 52.63 61.68 7.24
11366 16.3630 53.09 61.67 7.26
11367 16.3640 68.71 61.67 8.28
11368 16.3650 74.88 61.67 8.68
11369 16.3660 64.77 61.66 8.10
11370 16.3670 85.69 61.66 9.26
11371 16.3680 68.67 61.65 8.25
11372 16.3690 75.61 61.65 8.67
11373 16.3700 72.96 61.65 8.57
11374 16.3710 82.26 61.64 9.13
11375 16.3720 67.53 61.64 8.23
11376 16.3730 81.49 61.64 9.05
11377 16.3740 72.13 61.63 8.48
11378 16.3750 77.45 61.63 8.82
11379 16.3760 75.60 61.63 8.73
11380 16.3770 69.89 61.63 8.35
11381 16.3780 65.57 61.63 8.07
11382 16.3790 73.67 61.62 8.55
11383 16.3800 68.48 61.62 8.32
11384 16.3810 75.74 61.62 8.78
11385 16.3820 68.59 61.62 8.30
11386 16.3830 73.24 61.62 8.53
11387 16.3840 68.08 61.62 8.21
11388 16.3850 55.91 61.62 7.49
11389 16.3860 71.03 61.62 8.40
11390 16.3870 66.66 61.61 8.14
11391 16.3880 82.25 61.61 9.02
11392 16.3890 63.52 61.61 8.00
11393 16.3900 65.11 61.61 8.13
11394 16.3910 74.32 61.61 8.71
11395 16.3920 65.58 61.61 8.11
11396 16.3930 72.89 61.61 8.54
11397 16.3940 66.04 61.61 8.09
11398 16.3950 82.92 61.61 9.12
11399 16.3960 69.07 61.61 8.32
11400 16.3970 64.42 61.61 8.03
11401 16.3980 64.35 61.61 7.98
11402 16.3990 58.49 61.61 7.66
11403 16.4000 69.43 61.61 8.36
11404 16.4010 75.72 61.61 8.75
11405 16.4020 82.69 61.61 9.11
11406 16.4030 72.47 61.61 8.51
11407 16.4040 62.44 61.61 7.88
11408 16.4050 69.59 61.61 8.42
11409 16.4060 74.03 61.61 8.65
11410 16.4070 62.15 61.61 7.88
11411 16.4080 85.81 61.61 9.21
11412 16.4090 70.68 61.61 8.37
11413 16.4100 74.74 61.61 8.67
11414 16.4110 61.81 61.61 7.90
11415 16.4120 77.43 61.61 8.78
11416 16.4130 65.14 61.61 8.06
11417 16.4140 76.08 61.62 8.73
11418 16.4150 86.89 61.62 9.34
11419 16.4160 60.88 61.62 7.83
11420 16.4170 60.20 61.62 7.75
11421 16.4180 61.10 61.62 7.82
11422 16.4190 86.02 61.62 9.20
11423 16.4200 71.30 61.62 8.47
11424 16.4210 63.82 61.62 8.06
11425 16.4220 71.33 61.62 8.45
11426 16.4230 73.97 61.62 8.65
11427 16.4240 73.59 61.62 8.56
11428 16.4250 79.92 61.62 8.95
11429 16.4260 66.00 61.62 8.15
11430 16.4270 71.58 61.63 8.49
11431 16.4280 81.73 61.63 9.01
11432 16.4290 63.16 61.63 7.95
11433 16.4300 67.66 61.63 8.28
11434 16.4310 60.37 61.63 7.84
11435 16.4320 78.55 61.63 8.87
11436 16.4330 75.89 61.63 8.68
11437 16.4340 66.03 61.63 8.10
11438 16.4350 76.63 61.63 8.72
11439 16.4360 88.38 61.63 9.38
11440 16.4370 63.18 61.64 7.91
11441 16.4380 63.14 61.64 7.95
11442 16.4390 71.18 61.64 8.41
11443 16.4400 57.26 61.64 7.64
11444 16.4410 81.01 61.64 9.09
11445 16.4420 75.58 61.64 8.74
11446 16.4430 52.42 61.64 7.21
11447 16.4440 70.56 61.64 8.40
11448 16.4450 78.16 61.64 8.83
11449 16.4460 70.60 61.65 8.42
11450 16.4470 70.90 61.65 8.43
11451 16.4480 88.46 61.65 9.40
11452 16.4490 61.25 61.65 7.84
11453 16.4500 61.91 61.65 7.93
11454 16.4510 68.79 61.65 8.36
11455 16.4520 69.75 61.65 8.38
11456 16.4530 63.61 61.65 8.00
11457 16.4540 71.36 61.66 8.47
11458 16.4550 64.99 61.66 8.08
11459 16.4560 80.66 61.66 9.02
11460 16.4570 67.49 61.66 8.24
11461 16.4580 66.99 61.66 8.17
11462 16.4590 83.39 61.66 9.05
11463 16.4600 77.69 61.66 8.80
11464 16.4610 58.24 61.67 7.70
11465 16.4620 79.16 61.67 8.91
11466 16.4630 68.45 61.67 8.28
11467 16.4640 73.87 61.67 8.61
11468 16.4650 80.19 61.67 9.04
11469 16.4660 72.14 61.67 8.54
11470 16.4670 72.40 61.67 8.52
11471 16.4680 71.81 61.67 8.46
11472 16.4690 71.85 61.68 8.45
11473 16.4700 70.71 61.68 8.44
11474 16.4710 72.52 61.68 8.58
11475 16.4720 81.24 61.68 9.08
11476 16.4730 66.46 61.68 8.17
11477 16.4740 61.98 61.68 7.89
11478 16.4750 72.99 61.68 8.56
11479 16.4760 75.45 61.69 8.72
11480 16.4770 65.69 61.69 8.13
11481 16.4780 65.12 61.69 8.05
11482 16.4790 75.18 61.69 8.68
11483 16.4800 81.89 61.69 9.08
11484 16.4810 76.32 61.69 8.83
11485 16.4820 69.44 61.69 8.36
11486 16.4830 80.74 61.70 8.94
11487 16.4840 70.00 61.70 8.33
11488 16.4850 58.16 61.70 7.63
11489 16.4860 72.05 61.70 8.53
11490 16.4870 66.03 61.70 8.12
11491 16.4880 75.53 61.70 8.69
11492 16.4890 58.41 61.71 7.66
11493 16.4900 71.45 61.71 8.54
11494 16.4910 68.61 61.71 8.37
11495 16.4920 73.15 61.71 8.56
11496 16.4930 70.06 61.71 8.37
11497 16.4940 76.79 61.71 8.76
11498 16.4950 59.02 61.71 7.70
11499 16.4960 55.79 61.72 7.51
11500 16.4970 63.89 61.72 8.01
11501 16.4980 53.47 61.72 7.32
11502 16.4990 65.35 61.72 8.09
11503 16.5000 67.25 61.72 8.25
11504 16.5010 54.75 61.72 7.49
11505 16.5020 76.73 61.72 8.82
11506 16.5030 81.78 61.73 9.04
11507 16.5040 67.27 61.73 8.22
11508 16.5050 79.78 61.73 8.98
11509 16.5060 66.05 61.73 8.17
11510 16.5070 70.80 61.73 8.40
11511 16.5080 73.53 61.73 8.52
11512 16.5090 66.12 61.74 8.09
11513 16.5100 61.65 61.74 7.88
11514 16.5110 86.72 61.74 9.40
11515 16.5120 70.76 61.74 8.44
11516 16.5130 69.05 61.74 8.31
11517 16.5140 82.29 61.74 9.10
11518 16.5150 82.61 61.75 9.16
11519 16.5160 62.99 61.75 7.96
11520 16.5170 65.45 61.75 8.11
11521 16.5180 66.40 61.75 8.14
11522 16.5190 68.41 61.75 8.27
11523 16.5200 83.63 61.75 9.16
11524 16.5210 71.64 61.75 8.56
11525 16.5220 76.88 61.76 8.82
11526 16.5230 75.11 61.76 8.65
11527 16.5240 72.92 61.76 8.52
11528 16.5250 66.43 61.76 8.16
11529 16.5260 73.33 61.76 8.63
11530 16.5270 71.99 61.76 8.50
11531 16.5280 69.58 61.77 8.37
11532 16.5290 59.79 61.77 7.76
11533 16.5300 64.01 61.77 8.08
11534 16.5310 73.39 61.77 8.64
11535 16.5320 62.20 61.77 7.90
11536 16.5330 68.41 61.77 8.25
11537 16.5340 78.30 61.78 8.80
11538 16.5350 70.11 61.78 8.39
11539 16.5360 63.50 61.78 8.00
11540 16.5370 70.43 61.78 8.42
11541 16.5380 81.82 61.78 9.07
11542 16.5390 70.40 61.78 8.39
11543 16.5400 73.50 61.78 8.65
11544 16.5410 68.54 61.79 8.36
11545 16.5420 68.99 61.79 8.33
11546 16.5430 74.46 61.79 8.61
11547 16.5440 69.91 61.79 8.33
11548 16.5450 65.44 61.79 8.13
11549 16.5460 86.62 61.79 9.36
11550 16.5470 78.92 61.80 8.91
11551 16.5480 66.16 61.80 8.09
11552 16.5490 81.30 61.80 9.01
11553 16.5500 70.47 61.80 8.47
11554 16.5510 68.96 61.80 8.38
11555 16.5520 65.35 61.80 8.13
11556 16.5530 71.17 61.81 8.45
11557 16.5540 74.12 61.81 8.62
11558 16.5550 64.43 61.81 8.05
11559 16.5560 72.43 61.81 8.54
11560 16.5570 65.16 61.81 8.07
11561 16.5580 80.59 61.81 8.91
11562 16.5590 75.94 61.82 8.68
11563 16.5600 65.62 61.82 8.15
11564 16.5610 76.40 61.82 8.84
11565 16.5620 77.61 61.82 8.87
11566 16.5630 66.87 61.82 8.21
11567 16.5640 78.14 61.82 8.86
11568 16.5650 76.52 61.83 8.80
11569 16.5660 77.11 61.83 8.85
11570 16.5670 77.55 61.83 8.78
11571 16.5680 70.34 61.83 8.35
11572 16.5690 65.14 61.83 8.07
11573 16.5700 75.64 61.83 8.76
11574 16.5710 67.99 61.83 8.34
11575 16.5720 63.97 61.84 8.06
11576 16.5730 58.39 61.84 7.67
11577 16.5740 60.21 61.84 7.77
11578 16.5750 62.62 61.84 7.97
11579 16.5760 70.75 61.84 8.45
11580 16.5770 73.98 61.84 8.59
11581 16.5780 69.40 61.85 8.33
11582 16.5790 71.70 61.85 8.47
11583 16.5800 69.71 61.85 8.42
11584 16.5810 62.92 61.85 8.00
11585 16.5820 69.39 61.85 8.36
11586 16.5830 72.42 61.85 8.47
11587 16.5840 54.44 61.86 7.37
11588 16.5850 56.74 61.86 7.57
11589 16.5860 73.74 61.86 8.61
11590 16.5870 68.89 61.86 8.31
11591 16.5880 59.17 61.86 7.69
11592 16.5890 72.02 61.86 8.48
11593 16.5900 65.42 61.87 8.17
11594 16.5910 62.48 61.87 7.98
11595 16.5920 69.55 61.87 8.38
11596 16.5930 70.30 61.87 8.36
11597 16.5940 65.70 61.87 8.11
11598 16.5950 62.08 61.88 7.92
11599 16.5960 75.97 61.88 8.76
11600 16.5970 78.21 61.88 8.88
11601 16.5980 70.84 61.88 8.40
11602 16.5990 78.38 61.88 8.86
11603 16.6000 64.30 61.88 8.07
11604 16.6010 77.13 61.89 8.86
11605 16.6020 84.50 61.89 9.27
11606 16.6030 75.31 61.89 8.67
11607 16.6040 73.09 61.89 8.56
11608 16.6050 58.36 61.89 7.68
11609 16.6060 66.01 61.89 8.16
11610 16.6070 72.03 61.89 8.45
11611 16.6080 66.04 61.89 8.08
11612 16.6090 69.37 61.89 8.32
11613 16.6100 63.90 61.89 8.03
11614 16.6110 73.63 61.90 8.68
11615 16.6120 75.92 61.90 8.76
11616 16.6130 83.44 61.90 9.16
11617 16.6140 64.27 61.90 8.05
11618 16.6150 62.41 61.91 7.93
11619 16.6160 72.16 61.91 8.51
11620 16.6170 73.21 61.91 8.55
11621 16.6180 67.87 61.92 8.22
11622 16.6190 71.74 61.92 8.46
11623 16.6200 68.29 61.93 8.31
11624 16.6210 87.06 61.93 9.45
11625 16.6220 73.02 61.94 8.57
11626 16.6230 75.58 61.95 8.72
11627 16.6240 73.27 61.96 8.58
11628 16.6250 67.08 61.97 8.23
11629 16.6260 66.39 61.99 8.21
11630 16.6270 77.47 62.01 8.83
11631 16.6280 65.40 62.03 8.09
11632 16.6290 66.16 62.05 8.15
11633 16.6300 77.14 62.08 8.82
11634 16.6310 79.11 62.11 8.94
11635 16.6320 69.15 62.13 8.31
11636 16.6330 69.68 62.14 8.31
11637 16.6340 68.46 62.14 8.27
11638 16.6350 63.94 62.12 8.02
11639 16.6360 60.83 62.10 7.88
11640 16.6370 72.18 62.07 8.49
11641 16.6380 70.73 62.05 8.43
11642 16.6390 65.37 62.03 8.07
11643 16.6400 83.73 62.01 9.20
11644 16.6410 79.28 62.00 8.97
11645 16.6420 76.27 61.99 8.78
11646 16.6430 75.75 61.98 8.71
11647 16.6440 57.24 61.98 7.58
11648 16.6450 73.42 61.97 8.62
11649 16.6460 68.35 61.97 8.32
11650 16.6470 72.08 61.97 8.51
11651 16.6480 69.27 61.97 8.30
11652 16.6490 76.00 61.97 8.72
11653 16.6500 67.77 61.97 8.30
11654 16.6510 48.06 61.97 7.03
11655 16.6520 56.65 61.97 7.56
11656 16.6530 63.10 61.97 7.97
11657 16.6540 57.17 61.97 7.60
11658 16.6550 82.05 61.97 9.06
11659 16.6560 63.94 61.97 8.02
11660 16.6570 71.08 61.97 8.41
11661 16.6580 71.71 61.97 8.42
11662 16.6590 80.05 61.97 8.91
11663 16.6600 73.20 61.97 8.60
11664 16.6610 72.55 61.98 8.60
11665 16.6620 70.24 61.98 8.44
11666 16.6630 77.13 61.98 8.80
11667 16.6640 83.56 61.98 9.15
11668 16.6650 77.70 61.98 8.82
11669 16.6660 69.07 61.98 8.37
11670 16.6670 69.82 61.98 8.35
11671 16.6680 80.56 61.99 8.95
11672 16.6690 82.23 61.99 9.05
11673 16.6700 76.69 61.99 8.84
11674 16.6710 64.20 61.99 8.11
11675 16.6720 68.41 61.99 8.32
11676 16.6730 70.92 61.99 8.46
11677 16.6740 71.69 61.99 8.48
11678 16.6750 57.27 62.00 7.59
11679 16.6760 49.31 62.00 7.08
11680 16.6770 87.41 62.00 9.39
11681 16.6780 70.84 62.00 8.42
11682 16.6790 70.93 62.00 8.43
11683 16.6800 70.62 62.00 8.43
11684 16.6810 59.95 62.00 7.81
11685 16.6820 61.09 62.01 7.83
11686 16.6830 54.96 62.01 7.40
11687 16.6840 73.78 62.01 8.54
11688 16.6850 65.77 62.01 8.15
11689 16.6860 78.85 62.01 8.94
11690 16.6870 75.63 62.01 8.71
11691 16.6880 84.52 62.02 9.15
11692 16.6890 81.02 62.02 8.96
11693 16.6900 75.39 62.02 8.72
11694 16.6910 66.66 62.02 8.19
11695 16.6920 63.10 62.02 7.99
11696 16.6930 81.45 62.02 9.01
11697 16.6940 62.54 62.02 7.90
11698 16.6950 70.29 62.03 8.40
11699 16.6960 70.55 62.03 8.45
11700 16.6970 66.54 62.03 8.18
11701 16.6980 71.25 62.03 8.42
11702 16.6990 73.92 62.03 8.61
11703 16.7000 72.29 62.03 8.53
11704 16.7010 90.91 62.04 9.63
11705 16.7020 64.12 62.04 8.05
11706 16.7030 50.75 62.04 7.14
11707 16.7040 66.09 62.04 8.12
11708 16.7050 67.07 62.04 8.20
11709 16.7060 68.56 62.04 8.30
11710 16.7070 75.58 62.05 8.69
11711 16.7080 57.04 62.05 7.51
11712 16.7090 59.13 62.05 7.66
11713 16.7100 64.22 62.05 8.06
11714 16.7110 62.49 62.05 7.99
11715 16.7120 65.93 62.05 8.13
11716 16.7130 77.24 62.05 8.77
11717 16.7140 69.75 62.06 8.37
11718 16.7150 67.78 62.06 8.24
11719 16.7160 65.55 62.06 8.16
11720 16.7170 50.81 62.06 7.13
11721 16.7180 90.58 62.06 9.53
11722 16.7190 80.40 62.06 8.97
11723 16.7200 73.75 62.07 8.65
11724 16.7210 69.64 62.07 8.42
11725 16.7220 64.50 62.07 8.07
11726 16.7230 68.00 62.07 8.25
11727 16.7240 62.66 62.07 7.93
11728 16.7250 62.84 62.07 7.95
11729 16.7260 62.63 62.07 7.98
11730 16.7270 65.57 62.08 8.14
11731 16.7280 51.85 62.08 7.18
11732 16.7290 66.89 62.08 8.16
11733 16.7300 62.13 62.08 7.95
11734 16.7310 75.01 62.08 8.71
11735 16.7320 63.64 62.08 7.95
11736 16.7330 76.16 62.09 8.72
11737 16.7340 79.71 62.09 8.94
11738 16.7350 74.99 62.09 8.72
11739 16.7360 62.26 62.09 7.94
11740 16.7370 61.04 62.09 7.84
11741 16.7380 71.32 62.09 8.41
11742 16.7390 64.91 62.10 8.05
11743 16.7400 66.44 62.10 8.21
11744 16.7410 73.17 62.10 8.57
11745 16.7420 79.11 62.10 8.95
11746 16.7430 66.58 62.10 8.15
11747 16.7440 49.46 62.10 7.06
11748 16.7450 72.52 62.10 8.53
11749 16.7460 67.22 62.11 8.23
11750 16.7470 65.83 62.11 8.12
11751 16.7480 57.52 62.11 7.53
11752 16.7490 77.98 62.11 8.82
11753 16.7500 85.40 62.11 9.32
11754 16.7510 64.43 62.11 8.11
11755 16.7520 79.27 62.12 8.94
11756 16.7530 81.46 62.12 9.03
11757 16.7540 82.54 62.12 9.07
11758 16.7550 71.26 62.12 8.44
11759 16.7560 66.64 62.12 8.15
11760 16.7570 60.93 62.12 7.80
11761 16.7580 70.67 62.12 8.37
11762 16.7590 64.72 62.20 8.03
11763 16.7600 73.13 62.20 8.60
11764 16.7610 83.84 62.20 9.26
11765 16.7620 72.35 62.24 8.53
11766 16.7630 67.38 62.24 8.23
11767 16.7640 79.73 62.24 8.93
11768 16.7650 68.51 62.25 8.28
11769 16.7660 67.72 62.25 8.26
11770 16.7670 76.75 62.25 8.73
11771 16.7680 73.21 62.25 8.53
11772 16.7690 65.24 62.25 8.04
11773 16.7700 65.53 62.26 8.15
11774 16.7710 68.92 62.26 8.37
11775 16.7720 67.81 62.26 8.23
11776 16.7730 66.87 62.26 8.17
11777 16.7740 74.86 62.27 8.64
11778 16.7750 75.54 62.27 8.72
11779 16.7760 79.37 62.27 8.95
11780 16.7770 71.46 62.27 8.43
11781 16.7780 65.69 62.27 8.08
11782 16.7790 81.09 62.28 8.98
11783 16.7800 68.50 62.28 8.30
11784 16.7810 69.14 62.28 8.35
11785 16.7820 67.28 62.28 8.21
11786 16.7830 82.22 62.29 9.05
11787 16.7840 67.34 62.29 8.19
11788 16.7850 86.46 62.29 9.34
11789 16.7860 80.63 62.29 9.05
11790 16.7870 64.23 62.30 8.01
11791 16.7880 75.22 62.30 8.64
11792 16.7890 72.81 62.30 8.51
11793 16.7900 72.22 62.30 8.50
11794 16.7910 68.39 62.31 8.32
11795 16.7920 72.67 62.31 8.53
11796 16.7930 68.79 62.31 8.30
11797 16.7940 65.30 62.31 8.08
11798 16.7950 74.74 62.32 8.68
11799 16.7960 60.32 62.32 7.82
11800 16.7970 70.76 62.32 8.45
11801 16.7980 58.78 62.32 7.64
11802 16.7990 74.31 62.33 8.58
11803 16.8000 71.58 62.33 8.51
11804 16.8010 73.58 62.33 8.62
11805 16.8020 73.67 62.33 8.61
11806 16.8030 60.77 62.34 7.81
11807 16.8040 73.06 62.34 8.49
11808 16.8050 72.00 62.34 8.49
11809 16.8060 60.45 62.34 7.77
11810 16.8070 73.50 62.35 8.54
11811 16.8080 68.03 62.35 8.20
11812 16.8090 70.64 62.35 8.38
11813 16.8100 65.71 62.35 8.17
11814 16.8110 68.82 62.36 8.38
11815 16.8120 67.57 62.36 8.24
11816 16.8130 64.91 62.36 8.04
11817 16.8140 66.66 62.36 8.15
11818 16.8150 61.45 62.37 7.86
11819 16.8160 71.87 62.37 8.49
11820 16.8170 70.88 62.37 8.37
11821 16.8180 79.83 62.38 8.90
11822 16.8190 71.13 62.38 8.39
11823 16.8200 76.69 62.38 8.80
11824 16.8210 60.50 62.38 7.85
11825 16.8220 80.29 62.39 8.99
11826 16.8230 65.76 62.39 8.12
11827 16.8240 79.59 62.39 8.90
11828 16.8250 65.05 62.39 8.09
11829 16.8260 71.52 62.40 8.50
11830 16.8270 52.48 62.40 7.24
11831 16.8280 69.40 62.40 8.28
11832 16.8290 72.61 62.41 8.43
11833 16.8300 69.95 62.41 8.38
11834 16.8310 70.04 62.41 8.41
11835 16.8320 77.16 62.41 8.75
11836 16.8330 59.91 62.42 7.75
11837 16.8340 73.06 62.42 8.54
11838 16.8350 76.88 62.42 8.78
11839 16.8360 76.94 62.43 8.79
11840 16.8370 58.71 62.43 7.67
11841 16.8380 72.10 62.43 8.46
11842 16.8390 54.81 62.44 7.38
11843 16.8400 71.23 62.44 8.47
11844 16.8410 61.97 62.44 7.93
11845 16.8420 62.76 62.44 7.93
11846 16.8430 56.99 62.45 7.54
11847 16.8440 63.80 62.45 7.98
11848 16.8450 70.64 62.45 8.43
11849 16.8460 62.91 62.46 7.97
11850 16.8470 65.56 62.46 8.11
11851 16.8480 75.68 62.46 8.65
11852 16.8490 63.99 62.47 7.97
11853 16.8500 76.92 62.47 8.81
11854 16.8510 76.16 62.47 8.81
11855 16.8520 56.52 62.48 7.52
11856 16.8530 65.16 62.48 8.04
11857 16.8540 72.91 62.48 8.50
11858 16.8550 90.80 62.49 9.51
11859 16.8560 71.27 62.49 8.42
11860 16.8570 78.37 62.49 8.82
11861 16.8580 56.49 62.50 7.50
11862 16.8590 68.54 62.50 8.29
11863 16.8600 72.08 62.50 8.54
11864 16.8610 76.05 62.51 8.79
11865 16.8620 81.43 62.51 9.05
11866 16.8630 84.42 62.52 9.16
11867 16.8640 77.84 62.52 8.78
11868 16.8650 79.60 62.52 8.93
11869 16.8660 70.69 62.53 8.44
11870 16.8670 62.97 62.53 7.94
11871 16.8680 61.70 62.53 7.84
11872 16.8690 60.12 62.54 7.73
11873 16.8700 79.40 62.54 8.92
11874 16.8710 68.19 62.55 8.31
11875 16.8720 73.50 62.55 8.57
11876 16.8730 59.11 62.55 7.69
11877 16.8740 72.55 62.56 8.54
11878 16.8750 62.25 62.56 7.90
11879 16.8760 75.66 62.57 8.74
11880 16.8770 65.93 62.57 8.10
11881 16.8780 63.73 62.57 7.95
11882 16.8790 60.95 62.58 7.78
11883 16.8800 70.49 62.58 8.40
11884 16.8810 69.62 62.59 8.38
11885 16.8820 79.04 62.59 8.94
11886 16.8830 60.55 62.60 7.77
11887 16.8840 65.94 62.60 8.11
11888 16.8850 62.92 62.60 7.96
11889 16.8860 70.39 62.61 8.41
11890 16.8870 59.75 62.61 7.73
11891 16.8880 76.84 62.62 8.71
11892 16.8890 73.33 62.62 8.56
11893 16.8900 68.37 62.63 8.30
11894 16.8910 75.12 62.63 8.75
11895 16.8920 70.43 62.64 8.43
11896 16.8930 69.45 62.64 8.33
11897 16.8940 75.96 62.65 8.72
11898 16.8950 72.30 62.65 8.53
11899 16.8960 65.38 62.66 8.09
11900 16.8970 68.06 62.66 8.26
11901 16.8980 77.07 62.67 8.74
11902 16.8990 81.75 62.67 9.06
11903 16.9000 75.67 62.68 8.73
11904 16.9010 76.48 62.68 8.82
11905 16.9020 64.51 62.69 8.05
11906 16.9030 58.60 62.69 7.63
11907 16.9040 74.83 62.70 8.62
11908 16.9050 66.76 62.70 8.19
11909 16.9060 71.65 62.71 8.52
11910 16.9070 82.36 62.72 9.03
11911 16.9080 72.10 62.72 8.49
11912 16.9090 73.18 62.73 8.54
11913 16.9100 75.27 62.73 8.72
11914 16.9110 65.15 62.74 8.13
11915 16.9120 65.45 62.75 8.13
11916 16.9130 52.32 62.75 7.21
11917 16.9140 76.11 62.76 8.70
11918 16.9150 78.63 62.76 8.91
11919 16.9160 62.15 62.77 7.90
11920 16.9170 73.78 62.78 8.56
11921 16.9180 72.65 62.78 8.47
11922 16.9190 58.11 62.79 7.63
11923 16.9200 64.69 62.80 8.08
11924 16.9210 77.98 62.80 8.91
11925 16.9220 73.52 62.81 8.63
11926 16.9230 70.55 62.82 8.42
11927 16.9240 68.30 62.83 8.24
11928 16.9250 64.05 62.83 8.06
11929 16.9260 73.60 62.84 8.58
11930 16.9270 71.97 62.85 8.46
11931 16.9280 71.69 62.86 8.43
11932 16.9290 60.71 62.86 7.76
11933 16.9300 65.49 62.87 8.11
11934 16.9310 72.08 62.88 8.56
11935 16.9320 53.50 62.89 7.35
11936 16.9330 67.24 62.90 8.21
11937 16.9340 75.61 62.91 8.72
11938 16.9350 79.79 62.92 8.96
11939 16.9360 75.80 62.92 8.73
11940 16.9370 72.74 62.93 8.50
11941 16.9380 65.46 62.94 8.03
11942 16.9390 75.17 62.95 8.63
11943 16.9400 72.35 62.96 8.58
11944 16.9410 62.36 62.97 7.94
11945 16.9420 75.20 62.98 8.72
11946 16.9430 70.46 62.99 8.38
11947 16.9440 60.04 63.00 7.75
11948 16.9450 80.63 63.01 9.00
11949 16.9460 66.18 63.02 8.20
11950 16.9470 74.65 63.04 8.65
11951 16.9480 63.25 63.05 7.94
11952 16.9490 62.99 63.06 7.97
11953 16.9500 93.20 63.07 9.72
11954 16.9510 82.30 63.08 9.11
11955 16.9520 73.01 63.09 8.56
11956 16.9530 65.79 63.11 8.11
11957 16.9540 63.00 63.12 7.94
11958 16.9550 68.82 63.13 8.30
11959 16.9560 55.04 63.15 7.45
11960 16.9570 73.57 63.16 8.58
11961 16.9580 51.19 63.17 7.17
11962 16.9590 61.97 63.19 7.86
11963 16.9600 67.82 63.20 8.31
11964 16.9610 68.31 63.22 8.31
11965 16.9620 69.66 63.23 8.38
11966 16.9630 67.68 63.25 8.22
11967 16.9640 64.77 63.26 8.03
11968 16.9650 76.59 63.28 8.78
11969 16.9660 69.18 63.30 8.39
11970 16.9670 77.25 63.32 8.77
11971 16.9680 69.40 63.33 8.26
11972 16.9690 67.07 63.35 8.15
11973 16.9700 66.80 63.37 8.24
11974 16.9710 66.49 63.39 8.21
11975 16.9720 71.37 63.41 8.52
11976 16.9730 70.81 63.43 8.43
11977 16.9740 77.22 63.45 8.81
11978 16.9750 71.13 63.47 8.46
11979 16.9760 68.78 63.49 8.32
11980 16.9770 69.07 63.52 8.28
11981 16.9780 67.64 63.54 8.17
11982 16.9790 71.09 63.56 8.42
11983 16.9800 58.22 63.59 7.65
11984 16.9810 73.03 63.61 8.63
11985 16.9820 69.33 63.64 8.38
11986 16.9830 79.62 63.67 8.92
11987 16.9840 89.61 63.69 9.44
11988 16.9850 74.47 63.72 8.64
11989 16.9860 64.30 63.75 8.06
11990 16.9870 62.79 63.78 7.88
11991 16.9880 87.54 63.81 9.29
11992 16.9890 68.85 63.85 8.27
11993 16.9900 66.62 63.88 8.20
11994 16.9910 66.14 63.91 8.19
11995 16.9920 66.85 63.95 8.21
11996 16.9930 71.19 63.99 8.45
11997 16.9940 69.45 64.03 8.34
11998 16.9950 72.24 64.07 8.53
11999 16.9960 59.19 64.11 7.76
12000 16.9970 64.99 64.15 8.08
12001 16.9980 70.21 64.19 8.37
12002 16.9990 84.43 64.24 9.20
12003 17.0000 65.78 64.29 8.17
12004 17.0010 74.18 64.34 8.67
12005 17.0020 77.31 64.39 8.79
12006 17.0030 62.93 64.44 7.89
12007 17.0040 78.58 64.50 8.83
12008 17.0050 71.12 64.56 8.48
12009 17.0060 68.37 64.62 8.34
12010 17.0070 74.13 64.68 8.62
12011 17.0080 69.36 64.74 8.30
12012 17.0090 58.46 64.81 7.62
12013 17.0100 68.54 64.88 8.35
12014 17.0110 69.51 64.96 8.37
12015 17.0120 73.83 65.04 8.60
12016 17.0130 51.97 65.12 7.20
12017 17.0140 83.01 65.21 9.13
12018 17.0150 67.20 65.29 8.22
12019 17.0160 67.72 65.39 8.26
12020 17.0170 70.68 65.49 8.39
12021 17.0180 79.25 65.59 8.85
12022 17.0190 59.74 65.70 7.73
12023 17.0200 71.39 65.82 8.50
12024 17.0210 66.93 65.94 8.27
12025 17.0220 66.20 66.06 8.21
12026 17.0230 70.37 66.20 8.39
12027 17.0240 77.60 66.34 8.81
12028 17.0250 80.51 66.49 8.97
12029 17.0260 79.55 66.65 8.92
12030 17.0270 76.78 66.82 8.72
12031 17.0280 82.50 67.00 9.01
12032 17.0290 77.61 67.19 8.76
12033 17.0300 68.40 67.39 8.34
12034 17.0310 92.52 67.61 9.68
12035 17.0320 71.48 67.84 8.49
12036 17.0330 70.03 68.08 8.35
12037 17.0340 72.88 68.35 8.52
12038 17.0350 58.98 68.63 7.68
12039 17.0360 65.80 68.93 8.11
12040 17.0370 61.01 69.25 7.80
12041 17.0380 57.41 69.60 7.54
12042 17.0390 81.63 69.98 9.02
12043 17.0400 59.56 70.39 7.75
12044 17.0410 78.78 70.83 8.93
12045 17.0420 76.40 71.31 8.76
12046 17.0430 77.91 71.83 8.78
12047 17.0440 87.23 72.40 9.31
12048 17.0450 72.48 73.03 8.54
12049 17.0460 67.04 73.71 8.22
12050 17.0470 91.84 74.46 9.60
12051 17.0480 91.46 75.29 9.51
12052 17.0490 75.87 76.20 8.66
12053 17.0500 76.26 77.22 8.77
12054 17.0510 80.70 78.35 8.98
12055 17.0520 98.81 79.62 9.90
12056 17.0530 91.46 81.04 9.52
12057 17.0540 96.05 82.65 9.77
12058 17.0550 83.03 84.47 9.14
12059 17.0560 87.17 86.55 9.38
12060 17.0570 96.51 88.93 9.81
12061 17.0580 109.65 91.69 10.42
12062 17.0590 101.04 94.92 10.00
12063 17.0600 105.92 98.73 10.31
12064 17.0610 106.36 103.32 10.31
12065 17.0620 121.50 108.93 11.04
12066 17.0630 118.01 115.95 10.80
12067 17.0640 144.85 124.84 12.00
12068 17.0650 145.39 136.29 12.05
12069 17.0660 154.82 151.15 12.46
12070 17.0670 181.54 170.36 13.39
12071 17.0680 217.96 195.11 14.65
12072 17.0690 264.43 226.36 16.16
12073 17.0700 277.25 265.08 16.70
12074 17.0710 307.38 311.48 17.64
12075 17.0720 357.61 364.46 18.93
12076 17.0730 441.15 421.00 20.91
12077 17.0740 511.08 474.60 22.46
12078 17.0750 581.05 516.16 24.08
12079 17.0760 589.84 537.55 24.16
12080 17.0770 649.78 535.55 25.33
12081 17.0780 592.25 512.48 24.14
12082 17.0790 460.73 473.30 21.40
12083 17.0800 480.56 423.65 22.01
12084 17.0810 420.55 370.25 20.62
12085 17.0820 318.08 318.55 17.87
12086 17.0830 256.48 272.17 15.97
12087 17.0840 239.03 232.81 15.37
12088 17.0850 206.32 200.62 14.34
12089 17.0860 189.15 174.98 13.74
12090 17.0870 169.43 154.86 12.99
12091 17.0880 160.90 139.23 12.62
12092 17.0890 131.23 127.15 11.41
12093 17.0900 141.31 117.75 11.90
12094 17.0910 109.85 110.33 10.51
12095 17.0920 108.88 104.43 10.45
12096 17.0930 109.70 99.63 10.41
12097 17.0940 117.02 95.64 10.79
12098 17.0950 100.84 92.31 10.05
12099 17.0960 94.11 89.46 9.75
12100 17.0970 95.17 87.01 9.77
12101 17.0980 87.82 84.88 9.33
12102 17.0990 81.46 83.02 8.97
12103 17.1000 88.48 81.37 9.43
12104 17.1010 93.41 79.92 9.69
12105 17.1020 90.77 78.63 9.52
12106 17.1030 85.84 77.47 9.23
12107 17.1040 85.02 76.44 9.19
12108 17.1050 79.90 75.51 8.98
12109 17.1060 65.64 74.67 8.15
12110 17.1070 76.94 73.91 8.75
12111 17.1080 90.44 73.21 9.43
12112 17.1090 62.92 72.58 7.90
12113 17.1100 74.08 72.01 8.64
12114 17.1110 83.90 71.48 9.18
12115 17.1120 78.40 71.00 8.90
12116 17.1130 77.66 70.55 8.80
12117 17.1140 73.78 70.14 8.59
12118 17.1150 97.43 69.76 9.89
12119 17.1160 80.21 69.41 8.98
12120 17.1170 80.89 69.08 8.97
12121 17.1180 81.88 68.78 9.00
12122 17.1190 80.51 68.50 8.94
12123 17.1200 65.75 68.23 8.16
12124 17.1210 66.31 67.99 8.21
12125 17.1220 75.06 67.76 8.71
12126 17.1230 81.26 67.54 9.00
12127 17.1240 81.38 67.34 9.00
12128 17.1250 80.89 67.15 9.02
12129 17.1260 77.93 66.97 8.83
12130 17.1270 78.24 66.80 8.81
12131 17.1280 70.12 66.64 8.31
12132 17.1290 80.86 66.49 9.00
12133 17.1300 70.50 66.35 8.45
12134 17.1310 68.99 66.22 8.38
12135 17.1320 69.62 66.09 8.36
12136 17.1330 66.11 65.97 8.11
12137 17.1340 68.07 65.86 8.19
12138 17.1350 60.82 65.75 7.81
12139 17.1360 53.89 65.65 7.34
12140 17.1370 67.15 65.55 8.17
12141 17.1380 75.43 65.46 8.68
12142 17.1390 62.49 65.37 7.88
12143 17.1400 76.11 65.29 8.77
12144 17.1410 81.59 65.21 9.06
12145 17.1420 72.73 65.13 8.55
12146 17.1430 74.30 65.06 8.61
12147 17.1440 81.36 64.99 9.00
12148 17.1450 73.35 64.92 8.62
12149 17.1460 59.53 64.86 7.78
12150 17.1470 71.05 64.80 8.43
12151 17.1480 68.44 64.74 8.24
12152 17.1490 64.64 64.69 8.02
12153 17.1500 72.74 64.63 8.54
12154 17.1510 79.63 64.58 8.98
12155 17.1520 67.57 64.53 8.21
12156 17.1530 70.04 64.48 8.38
12157 17.1540 70.82 64.44 8.42
12158 17.1550 73.38 64.39 8.61
12159 17.1560 62.96 64.35 7.98
12160 17.1570 77.57 64.31 8.76
12161 17.1580 72.41 64.27 8.45
12162 17.1590 74.69 64.24 8.61
12163 17.1600 84.92 64.20 9.23
12164 17.1610 83.33 64.16 9.18
12165 17.1620 76.83 64.13 8.80
12166 17.1630 71.96 64.10 8.50
12167 17.1640 76.92 64.07 8.78
12168 17.1650 71.05 64.04 8.47
12169 17.1660 71.06 64.01 8.45
12170 17.1670 77.30 63.98 8.78
12171 17.1680 84.74 63.95 9.15
12172 17.1690 58.64 63.93 7.64
12173 17.1700 63.64 63.90 8.05
12174 17.1710 65.92 63.88 8.22
12175 17.1720 72.14 63.85 8.57
12176 17.1730 70.95 63.83 8.43
12177 17.1740 77.25 63.81 8.76
12178 17.1750 79.48 63.79 8.93
12179 17.1760 91.61 63.77 9.57
12180 17.1770 75.70 63.74 8.67
12181 17.1780 74.02 63.73 8.58
12182 17.1790 72.12 63.71 8.51
12183 17.1800 65.86 63.69 8.19
12184 17.1810 67.30 63.67 8.26
12185 17.1820 76.71 63.65 8.79
12186 17.1830 66.02 63.64 8.12
12187 17.1840 77.13 63.62 8.70
12188 17.1850 55.06 63.60 7.45
12189 17.1860 70.47 63.59 8.43
12190 17.1870 72.86 63.57 8.53
12191 17.1880 64.82 63.56 8.04
12192 17.1890 63.85 63.54 8.00
12193 17.1900 76.81 63.53 8.81
12194 17.1910 76.88 63.52 8.84
12195 17.1920 76.45 63.51 8.74
12196 17.1930 72.49 63.49 8.48
12197 17.1940 70.48 63.48 8.41
12198 17.1950 81.21 63.47 9.08
12199 17.1960 64.24 63.46 8.07
12200 17.1970 61.78 63.45 7.88
12201 17.1980 64.75 63.43 8.01
12202 17.1990 70.44 63.42 8.36
12203 17.2000 66.70 63.41 8.20
12204 17.2010 71.19 63.40 8.49
12205 17.2020 78.22 63.39 8.87
12206 17.2030 64.35 63.38 8.05
12207 17.2040 78.89 63.37 8.86
12208 17.2050 84.76 63.37 9.27
12209 17.2060 73.17 63.36 8.56
12210 17.2070 66.17 63.35 8.10
12211 17.2080 67.28 63.34 8.13
12212 17.2090 72.98 63.33 8.49
12213 17.2100 78.87 63.32 8.91
12214 17.2110 53.83 63.32 7.40
12215 17.2120 74.00 63.31 8.63
12216 17.2130 73.45 63.30 8.60
12217 17.2140 75.13 63.29 8.67
12218 17.2150 74.32 63.29 8.65
12219 17.2160 72.01 63.28 8.48
12220 17.2170 72.79 63.27 8.53
12221 17.2180 83.81 63.27 9.09
12222 17.2190 68.36 63.26 8.27
12223 17.2200 82.38 63.25 9.12
12224 17.2210 80.30 63.25 9.07
12225 17.2220 59.91 63.24 7.80
12226 17.2230 71.09 63.24 8.41
12227 17.2240 80.08 63.23 8.91
12228 17.2250 83.44 63.22 9.12
12229 17.2260 87.17 63.22 9.39
12230 17.2270 74.14 63.21 8.61
12231 17.2280 66.68 63.21 8.18
12232 17.2290 57.69 63.20 7.62
12233 17.2300 57.39 63.20 7.64
12234 17.2310 65.92 63.19 8.21
12235 17.2320 63.43 63.19 7.93
12236 17.2330 75.04 63.19 8.64
12237 17.2340 72.80 63.18 8.51
12238 17.2350 58.10 63.18 7.67
12239 17.2360 71.13 63.17 8.43
12240 17.2370 73.28 63.17 8.58
12241 17.2380 64.56 63.16 8.00
12242 17.2390 64.24 63.16 8.01
12243 17.2400 76.20 63.16 8.78
12244 17.2410 68.88 63.15 8.41
12245 17.2420 72.30 63.15 8.54
12246 17.2430 72.73 63.14 8.57
12247 17.2440 73.39 63.14 8.55
12248 17.2450 76.45 63.14 8.84
12249 17.2460 70.07 63.13 8.38
12250 17.2470 76.16 63.13 8.72
12251 17.2480 70.56 63.13 8.36
12252 17.2490 67.12 63.12 8.18
12253 17.2500 70.60 63.12 8.42
12254 17.2510 86.52 63.12 9.39
12255 17.2520 80.47 63.12 9.00
12256 17.2530 71.56 63.11 8.49
12257 17.2540 61.07 63.11 7.85
12258 17.2550 57.58 63.11 7.63
12259 17.2560 63.34 63.10 7.97
12260 17.2570 69.56 63.10 8.30
12261 17.2580 78.28 63.36 8.79
12262 17.2590 64.94 63.36 8.05
12263 17.2600 68.23 63.49 8.28
12264 17.2610 74.45 63.49 8.71
12265 17.2620 95.03 63.49 9.77
12266 17.2630 61.28 63.49 7.85
12267 17.2640 74.69 63.49 8.64
12268 17.2650 62.33 63.49 7.92
12269 17.2660 65.25 63.49 8.12
12270 17.2670 72.67 63.49 8.54
12271 17.2680 66.83 63.49 8.16
12272 17.2690 63.36 63.49 7.95
12273 17.2700 77.86 63.49 8.87
12274 17.2710 74.55 63.49 8.70
12275 17.2720 72.87 63.49 8.57
12276 17.2730 73.00 63.49 8.51
12277 17.2740 74.13 63.49 8.57
12278 17.2750 64.02 63.49 8.03
12279 17.2760 65.07 63.50 8.09
12280 17.2770 58.78 63.50 7.67
12281 17.2780 70.24 63.50 8.39
12282 17.2790 66.42 63.50 8.16
12283 17.2800 69.46 63.50 8.42
12284 17.2810 71.78 63.50 8.54
12285 17.2820 60.75 63.50 7.83
12286 17.2830 77.06 63.51 8.76
12287 17.2840 66.83 63.51 8.16
12288 17.2850 60.92 63.51 7.85
12289 17.2860 74.95 63.51 8.68
12290 17.2870 68.85 63.51 8.34
12291 17.2880 71.02 63.51 8.39
12292 17.2890 74.77 63.52 8.65
12293 17.2900 67.00 63.52 8.22
12294 17.2910 72.19 63.52 8.55
12295 17.2920 74.69 63.52 8.67
12296 17.2930 73.78 63.52 8.61
12297 17.2940 74.12 63.53 8.60
12298 17.2950 71.97 63.53 8.52
12299 17.2960 76.88 63.53 8.80
12300 17.2970 68.26 63.53 8.28
12301 17.2980 83.60 63.54 9.07
12302 17.2990 66.67 63.54 8.15
12303 17.3000 69.05 63.54 8.35
12304 17.3010 65.29 63.54 8.19
12305 17.3020 76.98 63.55 8.82
12306 17.3030 67.52 63.55 8.23
12307 17.3040 70.38 63.55 8.42
12308 17.3050 68.11 63.56 8.28
12309 17.3060 52.72 63.56 7.28
12310 17.3070 62.93 63.56 7.94
12311 17.3080 71.67 63.57 8.41
12312 17.3090 65.30 63.57 8.08
12313 17.3100 67.73 63.57 8.31
12314 17.3110 59.59 63.58 7.80
12315 17.3120 68.31 63.58 8.33
12316 17.3130 58.30 63.58 7.64
12317 17.3140 66.92 63.59 8.16
12318 17.3150 57.59 63.59 7.59
12319 17.3160 58.13 63.59 7.64
12320 17.3170 60.92 63.60 7.80
12321 17.3180 64.35 63.60 8.01
12322 17.3190 69.21 63.61 8.32
12323 17.3200 66.91 63.61 8.28
12324 17.3210 67.10 63.61 8.27
12325 17.3220 71.88 63.62 8.51
12326 17.3230 59.23 63.62 7.70
12327 17.3240 77.23 63.63 8.77
12328 17.3250 68.91 63.63 8.34
12329 17.3260 62.92 63.63 7.98
12330 17.3270 75.36 63.66 8.71
12331 17.3280 67.83 63.66 8.28
12332 17.3290 71.75 63.67 8.50
12333 17.3300 58.61 63.70 7.71
12334 17.3310 79.25 63.72 8.97
12335 17.3320 71.68 63.73 8.47
12336 17.3330 68.55 63.73 8.28
12337 17.3340 69.82 63.74 8.35
12338 17.3350 79.92 63.74 8.97
12339 17.3360 66.42 63.75 8.23
12340 17.3370 65.36 63.75 8.08
12341 17.3380 82.86 63.76 9.09
12342 17.3390 91.08 63.77 9.51
12343 17.3400 70.37 63.77 8.44
12344 17.3410 67.86 63.78 8.30
12345 17.3420 71.58 63.78 8.52
12346 17.3430 72.87 63.79 8.58
12347 17.3440 81.41 63.80 9.05
12348 17.3450 67.58 63.80 8.26
12349 17.3460 69.07 63.81 8.35
12350 17.3470 64.60 63.82 8.06
12351 17.3480 63.67 63.82 7.97
12352 17.3490 69.56 63.83 8.34
12353 17.3500 69.61 63.84 8.40
12354 17.3510 66.39 63.84 8.26
12355 17.3520 70.55 63.85 8.48
12356 17.3530 75.90 63.86 8.74
12357 17.3540 66.67 63.87 8.20
12358 17.3550 68.75 63.87 8.30
12359 17.3560 78.58 63.88 8.87
12360 17.3570 71.59 63.89 8.42
12361 17.3580 69.68 63.90 8.32
12362 17.3590 73.83 63.90 8.59
12363 17.3600 67.62 63.91 8.28
12364 17.3610 72.67 63.92 8.64
12365 17.3620 69.76 63.93 8.41
12366 17.3630 76.87 63.94 8.79
12367 17.3640 58.47 63.94 7.65
12368 17.3650 63.37 63.95 7.98
12369 17.3660 67.65 63.96 8.26
12370 17.3670 77.56 63.97 8.84
12371 17.3680 64.68 63.98 8.05
12372 17.3690 75.97 63.99 8.73
12373 17.3700 79.77 64.00 9.05
12374 17.3710 78.48 64.01 8.95
12375 17.3720 75.39 64.02 8.74
12376 17.3730 75.60 64.03 8.68
12377 17.3740 80.21 64.03 8.93
12378 17.3750 70.24 64.04 8.40
12379 17.3760 63.16 64.05 7.99
12380 17.3770 64.08 64.06 8.05
12381 17.3780 66.42 64.07 8.16
12382 17.3790 89.97 64.09 9.48
12383 17.3800 65.22 64.10 8.12
12384 17.3810 64.99 64.11 8.13
12385 17.3820 72.70 64.12 8.53
12386 17.3830 73.38 64.13 8.54
12387 17.3840 62.93 64.14 7.93
12388 17.3850 54.90 64.15 7.48
12389 17.3860 61.44 64.16 7.90
12390 17.3870 62.28 64.18 7.93
12391 17.3880 76.75 64.19 8.75
12392 17.3890 81.04 64.20 9.01
12393 17.3900 58.09 64.21 7.69
12394 17.3910 60.58 64.22 7.86
12395 17.3920 62.55 64.24 7.96
12396 17.3930 70.19 64.18 8.41
12397 17.3940 77.48 64.19 8.82
12398 17.3950 79.82 64.21 8.97
12399 17.3960 74.24 64.19 8.66
12400 17.3970 67.95 64.20 8.26
12401 17.3980 62.31 64.21 7.86
12402 17.3990 56.37 64.23 7.50
12403 17.4000 58.37 64.24 7.72
12404 17.4010 75.58 64.26 8.84
12405 17.4020 71.70 64.28 8.55
12406 17.4030 67.54 64.29 8.26
12407 17.4040 74.15 64.31 8.60
12408 17.4050 84.74 64.32 9.24
12409 17.4060 58.35 64.34 7.65
12410 17.4070 59.98 64.36 7.72
12411 17.4080 59.24 64.37 7.67
12412 17.4090 64.61 64.39 8.06
12413 17.4100 81.01 64.41 9.10
12414 17.4110 65.35 64.43 8.17
12415 17.4120 69.21 64.45 8.38
12416 17.4130 71.05 64.46 8.44
12417 17.4140 70.30 64.48 8.40
12418 17.4150 67.84 64.50 8.25
12419 17.4160 59.77 64.52 7.75
12420 17.4170 64.30 64.54 8.06
12421 17.4180 69.75 64.56 8.37
12422 17.4190 78.12 64.58 8.83
12423 17.4200 71.11 64.60 8.51
12424 17.4210 50.05 64.63 7.15
12425 17.4220 78.60 64.65 8.89
12426 17.4230 70.68 64.67 8.42
12427 17.4240 87.03 64.69 9.28
12428 17.4250 67.06 64.72 8.22
12429 17.4260 73.26 64.74 8.64
12430 17.4270 91.24 64.76 9.60
12431 17.4280 72.64 64.79 8.53
12432 17.4290 63.05 64.81 7.95
12433 17.4300 80.00 64.84 8.98
12434 17.4310 74.49 64.86 8.70
12435 17.4320 72.26 64.89 8.50
12436 17.4330 77.35 64.91 8.79
12437 17.4340 70.85 64.94 8.41
12438 17.4350 70.65 64.97 8.47
12439 17.4360 73.85 65.00 8.63
12440 17.4370 72.89 65.03 8.56
12441 17.4380 68.19 65.06 8.24
12442 17.4390 75.04 65.09 8.64
12443 17.4400 66.20 65.12 8.18
12444 17.4410 77.72 65.15 8.90
12445 17.4420 73.28 65.18 8.59
12446 17.4430 77.23 65.21 8.77
12447 17.4440 70.80 65.24 8.39
12448 17.4450 70.23 65.28 8.41
12449 17.4460 75.43 65.31 8.71
12450 17.4470 68.36 65.35 8.24
12451 17.4480 64.29 65.38 7.98
12452 17.4490 76.50 65.42 8.72
12453 17.4500 83.88 65.46 9.24
12454 17.4510 82.61 65.50 9.21
12455 17.4520 70.33 65.54 8.42
12456 17.4530 78.94 65.58 8.90
12457 17.4540 65.32 65.62 8.08
12458 17.4550 69.74 65.66 8.35
12459 17.4560 69.51 65.70 8.36
12460 17.4570 71.82 65.75 8.44
12461 17.4580 79.43 65.79 8.88
12462 17.4590 62.09 65.84 7.90
12463 17.4600 87.54 65.89 9.41
12464 17.4610 69.38 65.93 8.40
12465 17.4620 80.28 65.98 8.96
12466 17.4630 69.13 66.04 8.34
12467 17.4640 80.92 66.09 8.95
12468 17.4650 66.58 66.14 8.20
12469 17.4660 64.50 66.20 8.07
12470 17.4670 75.11 66.25 8.67
12471 17.4680 72.35 66.31 8.46
12472 17.4690 55.37 66.37 7.42
12473 17.4700 69.17 66.43 8.38
12474 17.4710 74.75 66.49 8.73
12475 17.4720 79.47 66.56 8.97
12476 17.4730 72.09 66.62 8.51
12477 17.4740 82.46 66.69 9.09
12478 17.4750 73.09 66.76 8.60
12479 17.4760 71.85 66.83 8.54
12480 17.4770 68.71 66.90 8.32
12481 17.4780 70.34 66.98 8.38
12482 17.4790 65.69 67.06 8.09
12483 17.4800 78.72 67.14 8.88
12484 17.4810 62.45 67.22 8.00
12485 17.4820 77.41 67.30 8.81
12486 17.4830 63.98 67.39 8.02
12487 17.4840 76.34 67.48 8.76
12488 17.4850 77.80 67.57 8.88
12489 17.4860 78.66 67.67 8.91
12490 17.4870 75.53 67.77 8.69
12491 17.4880 79.83 67.87 8.92
12492 17.4890 91.46 67.97 9.56
12493 17.4900 82.24 68.08 9.10
12494 17.4910 77.84 68.19 8.88
12495 17.4920 65.35 68.31 8.10
12496 17.4930 67.03 68.43 8.22
12497 17.4940 78.21 68.55 8.82
12498 17.4950 82.81 68.68 9.15
12499 17.4960 80.19 68.81 8.97
12500 17.4970 60.98 68.95 7.78
12501 17.4980 81.04 69.09 8.97
12502 17.4990 88.68 69.23 9.43
12503 17.5000 70.27 69.38 8.47
12504 17.5010 74.72 69.54 8.77
12505 17.5020 76.02 69.70 8.79
12506 17.5030 68.85 69.87 8.34
12507 17.5040 66.91 70.05 8.16
12508 17.5050 60.09 70.23 7.79
12509 17.5060 79.25 70.42 8.90
12510 17.5070 70.05 70.62 8.35
12511 17.5080 75.21 70.83 8.63
12512 17.5090 62.49 71.04 7.93
12513 17.5100 74.69 71.26 8.69
12514 17.5110 67.90 71.49 8.34
12515 17.5120 72.19 71.74 8.53
12516 17.5130 59.43 71.99 7.70
12517 17.5140 70.81 72.25 8.40
12518 17.5150 75.61 72.53 8.70
12519 17.5160 83.40 72.82 9.15
12520 17.5170 81.06 73.12 9.02
12521 17.5180 82.31 73.43 9.05
12522 17.5190 64.27 73.76 8.03
12523 17.5200 81.39 74.11 9.10
12524 17.5210 82.42 74.47 9.15
12525 17.5220 82.70 74.86 9.13
12526 17.5230 77.98 75.26 8.82
12527 17.5240 80.87 75.68 9.03
12528 17.5250 79.69 76.12 8.98
12529 17.5260 76.92 76.59 8.84
12530 17.5270 76.22 77.09 8.76
12531 17.5280 74.93 77.61 8.66
12532 17.5290 79.35 78.16 8.86
12533 17.5300 89.26 78.74 9.50
12534 17.5310 84.30 79.36 9.23
12535 17.5320 96.40 80.02 9.83
12536 17.5330 81.33 80.71 9.03
12537 17.5340 85.00 81.45 9.22
12538 17.5350 68.65 82.24 8.31
12539 17.5360 89.99 83.07 9.52
12540 17.5370 89.41 83.97 9.45
12541 17.5380 84.27 84.93 9.15
12542 17.5390 93.17 85.95 9.64
12543 17.5400 81.40 87.04 9.08
12544 17.5410 90.38 88.22 9.59
12545 17.5420 84.47 89.49 9.25
12546 17.5430 93.60 90.85 9.66
12547 17.5440 105.64 92.33 10.29
12548 17.5450 108.51 93.92 10.44
12549 17.5460 103.34 95.65 10.16
12550 17.5470 113.71 97.52 10.65
12551 17.5480 78.39 99.56 8.83
12552 17.5490 97.35 101.80 9.85
12553 17.5500 107.91 104.23 10.49
12554 17.5510 112.88 106.91 10.76
12555 17.5520 97.82 109.86 9.95
12556 17.5530 107.00 113.11 10.34
12557 17.5540 133.68 116.70 11.52
12558 17.5550 107.55 120.70 10.37
12559 17.5560 131.71 125.16 11.50
12560 17.5570 155.61 130.15 12.46
12561 17.5580 140.63 135.76 11.85
12562 17.5590 138.49 142.11 11.79
12563 17.5600 149.09 149.31 12.32
12564 17.5610 167.24 157.53 13.08
12565 17.5620 174.87 166.97 13.28
12566 17.5630 183.56 177.97 13.51
12567 17.5640 215.57 190.83 14.66
12568 17.5650 242.57 206.12 15.60
12569 17.5660 242.20 224.67 15.66
12570 17.5670 254.79 247.42 16.00
12571 17.5680 298.61 275.93 17.22
12572 17.5690 338.12 312.30 18.42
12573 17.5700 390.57 359.16 19.94
12574 17.5710 503.29 419.67 22.66
12575 17.5720 528.59 497.82 23.08
12576 17.5730 635.56 597.55 25.14
12577 17.5740 771.99 722.32 27.86
12578 17.5750 866.20 875.10 29.64
12579 17.5760 1096.27 1055.24 33.46
12580 17.5770 1249.94 1257.94 35.56
12581 17.5780 1472.63 1468.52 38.36
12582 17.5790 1681.08 1660.30 41.08
12583 17.5800 1833.13 1798.65 43.07
12584 17.5810 1917.79 1852.16 44.22
12585 17.5820 1851.26 1809.72 43.32
12586 17.5830 1719.31 1683.90 41.60
12587 17.5840 1432.83 1501.89 37.96
12588 17.5850 1245.46 1296.86 35.36
12589 17.5860 1077.43 1094.43 33.08
12590 17.5870 958.41 910.26 31.09
12591 17.5880 825.01 752.89 28.66
12592 17.5890 685.01 622.81 26.19
12593 17.5900 586.25 518.54 24.38
12594 17.5910 483.10 436.29 22.14
12595 17.5920 407.05 372.32 20.21
12596 17.5930 388.08 322.89 19.76
12597 17.5940 327.62 284.47 18.13
12598 17.5950 297.43 254.40 17.23
12599 17.5960 270.54 230.55 16.53
12600 17.5970 240.67 211.24 15.56
12601 17.5980 225.48 195.36 14.98
12602 17.5990 204.38 182.10 14.31
12603 17.6000 173.34 170.85 13.27
12604 17.6010 178.31 161.17 13.52
12605 17.6020 157.19 152.82 12.60
12606 17.6030 149.57 145.55 12.25
12607 17.6040 132.03 139.15 11.50
12608 17.6050 148.09 133.53 12.17
12609 17.6060 128.02 128.56 11.33
12610 17.6070 110.37 124.14 10.47
12611 17.6080 126.08 120.21 11.21
12612 17.6090 109.86 116.70 10.50
12613 17.6100 99.32 113.56 10.03
12614 17.6110 108.76 110.75 10.57
12615 17.6120 108.51 108.22 10.46
12616 17.6130 93.50 105.95 9.70
12617 17.6140 111.28 103.92 10.52
12618 17.6150 86.10 102.08 9.30
12619 17.6160 94.96 100.45 9.79
12620 17.6170 93.95 98.99 9.68
12621 17.6180 81.20 97.68 9.00
12622 17.6190 91.57 96.53 9.57
12623 17.6200 87.35 95.52 9.43
12624 17.6210 108.80 94.64 10.53
12625 17.6220 86.45 93.89 9.34
12626 17.6230 93.17 93.27 9.64
12627 17.6240 101.16 92.77 10.08
12628 17.6250 94.69 92.40 9.80
12629 17.6260 82.22 92.15 9.17
12630 17.6270 87.61 92.04 9.36
12631 17.6280 100.53 92.07 10.02
12632 17.6290 84.44 92.25 9.17
12633 17.6300 95.65 92.60 9.84
12634 17.6310 97.68 93.13 9.97
12635 17.6320 112.61 93.86 10.64
12636 17.6330 90.81 94.84 9.52
12637 17.6340 93.14 96.11 9.67
12638 17.6350 89.16 97.74 9.48
12639 17.6360 92.27 99.82 9.70
12640 17.6370 95.34 102.48 9.77
12641 17.6380 134.29 105.90 11.56
12642 17.6390 119.04 110.34 10.95
12643 17.6400 112.72 116.11 10.69
12644 17.6410 123.00 123.65 11.22
12645 17.6420 132.97 133.42 11.62
12646 17.6430 160.75 146.01 12.70
12647 17.6440 176.50 161.96 13.25
12648 17.6450 196.35 181.69 14.07
12649 17.6460 194.35 205.46 13.99
12650 17.6470 229.74 232.86 15.11
12651 17.6480 248.70 262.52 15.78
12652 17.6490 283.07 291.97 16.87
12653 17.6500 309.52 317.99 17.72
12654 17.6510 376.49 337.13 19.68
12655 17.6520 346.15 346.89 18.70
12656 17.6530 326.79 345.47 18.06
12657 17.6540 325.24 332.40 17.93
12658 17.6550 300.28 309.35 17.26
12659 17.6560 281.35 279.85 16.78
12660 17.6570 235.23 248.40 15.31
12661 17.6580 211.64 218.27 14.52
12662 17.6590 188.47 191.52 13.73
12663 17.6600 143.89 168.82 12.10
12664 17.6610 132.44 150.20 11.61
12665 17.6620 134.71 135.31 11.67
12666 17.6630 140.26 123.55 11.81
12667 17.6640 126.18 114.35 11.19
12668 17.6650 115.94 107.18 10.74
12669 17.6660 106.84 101.56 10.35
12670 17.6670 101.19 97.08 10.03
12671 17.6680 111.48 93.49 10.51
12672 17.6690 101.08 90.53 10.06
12673 17.6700 111.85 88.06 10.62
12674 17.6710 95.33 85.97 9.87
12675 17.6720 92.24 84.17 9.62
12676 17.6730 97.77 82.61 9.89
12677 17.6740 99.66 81.23 9.99
12678 17.6750 71.47 80.02 8.53
12679 17.6760 87.21 78.95 9.41
12680 17.6770 79.68 77.98 8.96
12681 17.6780 80.10 77.12 8.94
12682 17.6790 87.24 76.34 9.32
12683 17.6800 84.34 75.63 9.22
12684 17.6810 63.09 74.99 8.01
12685 17.6820 88.48 74.40 9.42
12686 17.6830 91.47 73.87 9.56
12687 17.6840 71.28 73.38 8.45
12688 17.6850 78.47 72.92 8.91
12689 17.6860 73.95 72.50 8.64
12690 17.6870 57.67 72.12 7.60
12691 17.6880 81.23 71.76 8.98
12692 17.6890 76.61 71.42 8.74
12693 17.6900 76.37 71.11 8.77
12694 17.6910 87.73 70.82 9.45
12695 17.6920 82.30 70.54 9.11
12696 17.6930 67.47 70.29 8.21
12697 17.6940 70.82 70.05 8.42
12698 17.6950 79.61 69.82 8.92
12699 17.6960 76.45 69.60 8.81
12700 17.6970 67.24 69.40 8.22
12701 17.6980 90.98 69.21 9.52
12702 17.6990 88.13 69.03 9.42
12703 17.7000 72.33 68.86 8.62
12704 17.7010 68.80 68.70 8.41
12705 17.7020 77.39 68.54 8.84
12706 17.7030 76.31 68.39 8.75
12707 17.7040 68.76 68.25 8.30
12708 17.7050 88.67 68.12 9.47
12709 17.7060 66.60 67.99 8.20
12710 17.7070 77.33 67.87 8.80
12711 17.7080 77.94 67.75 8.83
12712 17.7090 74.12 67.64 8.64
12713 17.7100 81.07 67.53 9.02
12714 17.7110 75.88 67.43 8.78
12715 17.7120 73.41 67.33 8.61
12716 17.7130 73.99 67.24 8.61
12717 17.7140 61.64 67.14 7.86
12718 17.7150 75.56 67.06 8.69
12719 17.7160 80.31 66.97 8.97
12720 17.7170 68.14 66.89 8.29
12721 17.7180 79.33 66.81 8.87
12722 17.7190 71.59 66.74 8.47
12723 17.7200 80.28 66.66 9.04
12724 17.7210 74.94 66.59 8.76
12725 17.7220 79.81 66.52 9.00
12726 17.7230 82.62 66.46 9.11
12727 17.7240 71.81 66.39 8.48
12728 17.7250 83.62 66.33 9.21
12729 17.7260 87.14 66.27 9.39
12730 17.7270 80.76 66.22 9.04
12731 17.7280 80.01 66.16 8.91
12732 17.7290 78.23 66.11 8.86
12733 17.7300 80.78 66.05 9.04
12734 17.7310 75.83 66.00 8.80
12735 17.7320 71.54 65.95 8.48
12736 17.7330 84.56 65.90 9.22
12737 17.7340 84.84 65.86 9.22
12738 17.7350 72.50 65.81 8.55
12739 17.7360 67.06 65.77 8.26
12740 17.7370 62.73 65.72 7.95
12741 17.7380 83.29 65.68 9.10
12742 17.7390 76.10 65.64 8.72
12743 17.7400 83.95 65.60 9.20
12744 17.7410 75.16 65.56 8.76
12745 17.7420 69.99 65.53 8.41
12746 17.7430 67.86 65.49 8.26
12747 17.7440 77.74 65.45 8.81
12748 17.7450 75.38 65.42 8.71
12749 17.7460 77.06 65.38 8.84
12750 17.7470 78.15 65.35 8.83
12751 17.7480 78.00 65.32 8.84
12752 17.7490 61.85 65.29 7.89
12753 17.7500 68.32 65.26 8.37
12754 17.7510 52.85 65.23 7.36
12755 17.7520 77.66 65.20 8.85
12756 17.7530 69.20 65.17 8.34
12757 17.7540 61.80 65.14 7.87
12758 17.7550 78.25 65.11 8.85
12759 17.7560 61.37 65.09 7.86
12760 17.7570 79.81 65.06 8.95
12761 17.7580 75.98 65.04 8.71
12762 17.7590 83.23 65.01 9.16
12763 17.7600 72.90 64.99 8.61
12764 17.7610 76.53 64.96 8.86
12765 17.7620 78.28 64.94 8.89
12766 17.7630 81.01 64.92 9.02
12767 17.7640 67.35 64.89 8.21
12768 17.7650 79.87 64.87 8.96
12769 17.7660 84.31 64.85 9.21
12770 17.7670 61.86 64.83 7.90
12771 17.7680 70.99 64.81 8.45
12772 17.7690 61.64 64.79 7.89
12773 17.7700 70.58 64.77 8.44
12774 17.7710 63.44 64.75 8.05
12775 17.7720 70.25 64.73 8.41
12776 17.7730 79.58 64.71 8.98
12777 17.7740 62.87 64.69 7.96
12778 17.7750 88.52 64.67 9.45
12779 17.7760 77.01 64.66 8.89
12780 17.7770 75.55 64.64 8.71
12781 17.7780 75.04 64.62 8.61
12782 17.7790 61.04 64.61 7.81
12783 17.7800 73.34 64.59 8.61
12784 17.7810 69.51 64.57 8.42
12785 17.7820 89.08 64.56 9.49
12786 17.7830 72.56 64.54 8.53
12787 17.7840 72.39 64.53 8.55
12788 17.7850 71.95 64.51 8.55
12789 17.7860 69.45 64.50 8.37
12790 17.7870 85.34 64.48 9.26
12791 17.7880 74.29 64.47 8.61
12792 17.7890 81.11 64.46 9.00
12793 17.7900 76.08 64.44 8.77
12794 17.7910 92.01 64.43 9.69
12795 17.7920 75.50 64.42 8.77
12796 17.7930 70.11 64.40 8.43
12797 17.7940 77.03 64.39 8.79
12798 17.7950 65.55 64.38 8.13
12799 17.7960 69.20 64.37 8.38
12800 17.7970 77.54 64.35 8.85
12801 17.7980 74.13 64.34 8.60
12802 17.7990 65.00 64.33 8.10
12803 17.8000 80.73 64.32 9.08
12804 17.8010 82.60 64.31 9.21
12805 17.8020 74.14 64.30 8.67
12806 17.8030 73.58 64.29 8.58
12807 17.8040 68.01 64.27 8.24
12808 17.8050 70.34 64.26 8.40
12809 17.8060 74.36 64.25 8.64
12810 17.8070 83.76 64.24 9.17
12811 17.8080 65.01 64.23 8.05
12812 17.8090 78.00 64.22 8.84
12813 17.8100 75.53 64.21 8.80
12814 17.8110 72.02 64.20 8.60
12815 17.8120 84.38 64.19 9.22
12816 17.8130 82.82 64.19 9.13
12817 17.8140 86.40 64.18 9.29
12818 17.8150 75.32 64.17 8.68
12819 17.8160 74.96 64.16 8.70
12820 17.8170 74.29 64.15 8.62
12821 17.8180 71.20 64.14 8.45
12822 17.8190 80.08 64.13 8.98
12823 17.8200 67.59 64.12 8.29
12824 17.8210 71.08 64.12 8.55
12825 17.8220 75.52 64.11 8.76
12826 17.8230 81.21 64.10 9.01
12827 17.8240 77.19 64.09 8.78
12828 17.8250 83.15 64.08 9.21
12829 17.8260 78.10 64.08 8.88
12830 17.8270 70.90 64.07 8.45
12831 17.8280 66.22 64.06 8.16
12832 17.8290 65.81 64.05 8.09
12833 17.8300 71.95 64.05 8.55
12834 17.8310 59.23 64.04 7.79
12835 17.8320 72.15 64.03 8.55
12836 17.8330 81.90 64.03 9.05
12837 17.8340 63.74 64.02 8.00
12838 17.8350 69.77 64.01 8.39
12839 17.8360 67.73 64.01 8.28
12840 17.8370 84.92 64.00 9.25
12841 17.8380 69.54 63.99 8.35
12842 17.8390 79.19 63.99 8.90
12843 17.8400 79.93 63.98 9.03
12844 17.8410 54.83 63.97 7.49
12845 17.8420 74.39 63.97 8.69
12846 17.8430 74.32 63.96 8.65
12847 17.8440 58.89 63.95 7.70
12848 17.8450 70.17 63.95 8.41
12849 17.8460 66.42 63.94 8.20
12850 17.8470 84.39 63.94 9.22
12851 17.8480 59.68 63.93 7.71
12852 17.8490 77.87 63.93 8.84
12853 17.8500 65.30 63.92 8.16
12854 17.8510 67.17 63.92 8.31
12855 17.8520 69.64 63.91 8.37
12856 17.8530 74.14 63.90 8.61
12857 17.8540 67.57 63.90 8.20
12858 17.8550 83.89 63.89 9.20
12859 17.8560 61.53 63.89 7.88
12860 17.8570 82.20 63.88 9.04
12861 17.8580 87.08 63.88 9.32
12862 17.8590 78.76 63.87 8.88
12863 17.8600 66.35 63.87 8.22
12864 17.8610 75.08 63.86 8.80
12865 17.8620 74.30 63.86 8.68
12866 17.8630 67.66 63.85 8.25
12867 17.8640 68.38 63.85 8.28
12868 17.8650 80.19 63.85 9.01
12869 17.8660 75.63 63.84 8.73
12870 17.8670 82.07 63.84 9.08
12871 17.8680 72.69 63.83 8.50
12872 17.8690 81.54 63.83 9.04
12873 17.8700 70.21 63.82 8.41
12874 17.8710 80.89 63.82 9.09
12875 17.8720 68.37 63.81 8.33
12876 17.8730 64.56 63.81 8.11
12877 17.8740 75.58 63.81 8.74
12878 17.8750 82.63 63.80 9.16
12879 17.8760 62.65 63.80 7.98
12880 17.8770 68.24 63.79 8.28
12881 17.8780 76.39 63.79 8.74
12882 17.8790 74.41 63.79 8.61
12883 17.8800 87.55 63.78 9.41
12884 17.8810 74.73 63.78 8.76
12885 17.8820 51.98 63.78 7.25
12886 17.8830 68.42 63.77 8.29
12887 17.8840 75.44 63.77 8.67
12888 17.8850 83.27 63.76 9.18
12889 17.8860 68.31 63.76 8.30
12890 17.8870 53.38 63.76 7.35
12891 17.8880 64.96 63.75 8.06
12892 17.8890 74.87 63.75 8.66
12893 17.8900 77.52 63.75 8.85
12894 17.8910 63.52 63.74 8.04
12895 17.8920 62.95 63.74 7.95
12896 17.8930 62.47 63.74 7.91
12897 17.8940 68.56 63.73 8.30
12898 17.8950 62.72 63.73 7.97
12899 17.8960 79.93 63.73 8.99
12900 17.8970 69.60 63.72 8.41
12901 17.8980 74.03 63.72 8.60
12902 17.8990 80.99 63.72 9.02
12903 17.9000 77.94 63.71 8.89
12904 17.9010 68.83 63.71 8.40
12905 17.9020 64.67 63.71 8.08
12906 17.9030 65.70 63.71 8.11
12907 17.9040 65.17 63.45 8.05
12908 17.9050 82.21 63.44 9.07
12909 17.9060 78.02 63.31 8.86
12910 17.9070 64.18 63.31 8.00
12911 17.9080 75.59 63.31 8.66
12912 17.9090 75.00 63.31 8.68
12913 17.9100 71.17 63.31 8.53
12914 17.9110 76.84 63.31 8.89
12915 17.9120 77.68 63.31 8.85
12916 17.9130 75.31 63.31 8.66
12917 17.9140 79.72 63.31 8.90
12918 17.9150 52.23 63.31 7.25
12919 17.9160 59.39 63.31 7.75
12920 17.9170 66.34 63.31 8.15
12921 17.9180 75.06 63.31 8.67
12922 17.9190 71.42 63.31 8.51
12923 17.9200 58.44 63.31 7.72
12924 17.9210 67.86 63.31 8.32
12925 17.9220 67.26 63.31 8.29
12926 17.9230 83.04 63.31 9.15
12927 17.9240 69.08 63.31 8.36
12928 17.9250 69.57 63.31 8.38
12929 17.9260 72.60 63.31 8.57
12930 17.9270 80.51 63.31 9.01
12931 17.9280 66.39 63.30 8.14
12932 17.9290 67.13 63.30 8.20
12933 17.9300 76.07 63.30 8.76
12934 17.9310 82.28 63.30 9.17
12935 17.9320 58.50 63.30 7.69
12936 17.9330 66.46 63.30 8.17
12937 17.9340 86.14 63.30 9.27
12938 17.9350 68.18 63.30 8.31
12939 17.9360 72.94 63.31 8.59
12940 17.9370 58.69 63.31 7.68
12941 17.9380 77.23 63.31 8.76
12942 17.9390 61.47 63.31 7.85
12943 17.9400 50.46 63.31 7.16
12944 17.9410 64.89 63.31 8.15
12945 17.9420 65.12 63.31 8.11
12946 17.9430 58.10 63.31 7.67
12947 17.9440 51.71 63.31 7.21
12948 17.9450 64.12 63.31 8.10
12949 17.9460 72.86 63.30 8.61
12950 17.9470 69.42 63.30 8.38
12951 17.9480 77.62 63.30 8.84
12952 17.9490 76.39 63.30 8.73
12953 17.9500 69.57 63.30 8.43
12954 17.9510 77.06 63.30 8.86
12955 17.9520 71.03 63.30 8.50
12956 17.9530 74.03 63.30 8.59
12957 17.9540 77.98 63.30 8.82
12958 17.9550 65.42 63.30 8.13
12959 17.9560 64.51 63.30 8.04
12960 17.9570 66.08 63.30 8.15
12961 17.9580 78.84 63.30 8.87
12962 17.9590 69.83 63.30 8.38
12963 17.9600 66.11 63.30 8.22
12964 17.9610 66.52 63.30 8.28
12965 17.9620 59.85 63.30 7.79
12966 17.9630 66.39 63.30 8.15
12967 17.9640 79.66 63.30 8.90
12968 17.9650 55.11 63.30 7.46
12969 17.9660 73.18 63.30 8.59
12970 17.9670 77.28 63.30 8.80
12971 17.9680 69.22 63.30 8.33
12972 17.9690 65.15 63.30 8.09
12973 17.9700 69.11 63.30 8.41
12974 17.9710 56.33 63.30 7.64
12975 17.9720 63.04 63.30 7.99
12976 17.9730 77.44 63.30 8.84
12977 17.9740 79.53 63.28 8.92
12978 17.9750 71.71 63.28 8.50
12979 17.9760 67.67 63.28 8.28
12980 17.9770 65.85 63.26 8.13
12981 17.9780 62.59 63.24 7.90
12982 17.9790 57.35 63.24 7.55
12983 17.9800 65.82 63.24 8.16
12984 17.9810 68.20 63.24 8.32
12985 17.9820 65.89 63.24 8.15
12986 17.9830 68.16 63.24 8.28
12987 17.9840 69.74 63.24 8.36
12988 17.9850 62.97 63.24 7.99
12989 17.9860 81.07 63.24 9.05
12990 17.9870 84.68 63.24 9.22
12991 17.9880 73.05 63.24 8.54
12992 17.9890 79.58 63.24 8.93
12993 17.9900 72.48 63.40 8.60
12994 17.9910 67.81 63.40 8.32
12995 17.9920 78.58 63.49 8.92
12996 17.9930 70.91 63.49 8.46
12997 17.9940 70.46 63.49 8.44
12998 17.9950 81.76 63.49 9.09
12999 17.9960 83.83 63.50 9.23
13000 17.9970 57.15 63.50 7.62
13001 17.9980 73.37 63.50 8.60
13002 17.9990 70.11 63.50 8.39
13003 18.0000 79.26 63.50 8.98
13004 18.0010 79.62 63.50 9.02
13005 18.0020 64.10 63.51 8.04
13006 18.0030 79.30 63.51 8.89
13007 18.0040 60.52 63.51 7.76
13008 18.0050 81.54 63.51 9.04
13009 18.0060 63.45 63.51 8.00
13010 18.0070 53.08 63.52 7.31
13011 18.0080 73.94 63.52 8.58
13012 18.0090 84.04 63.52 9.18
13013 18.0100 65.57 63.52 8.17
13014 18.0110 64.19 63.52 8.12
13015 18.0120 74.60 63.53 8.68
13016 18.0130 85.46 63.53 9.27
13017 18.0140 77.79 63.53 8.83
13018 18.0150 74.37 63.53 8.68
13019 18.0160 56.80 63.53 7.60
13020 18.0170 76.12 63.54 8.74
13021 18.0180 73.88 63.54 8.64
13022 18.0190 88.29 63.54 9.44
13023 18.0200 66.44 63.54 8.27
13024 18.0210 84.84 63.54 9.33
13025 18.0220 77.28 63.55 8.85
13026 18.0230 68.30 63.55 8.29
13027 18.0240 88.69 63.55 9.45
13028 18.0250 64.91 63.55 8.09
13029 18.0260 66.49 63.56 8.21
13030 18.0270 70.13 63.56 8.37
13031 18.0280 67.68 63.56 8.24
13032 18.0290 74.53 63.56 8.63
13033 18.0300 77.10 63.57 8.82
13034 18.0310 60.47 63.57 7.84
13035 18.0320 76.36 63.57 8.80
13036 18.0330 75.12 63.57 8.67
13037 18.0340 66.19 63.58 8.17
13038 18.0350 74.40 63.58 8.64
13039 18.0360 55.14 63.58 7.52
13040 18.0370 61.43 63.58 7.84
13041 18.0380 69.78 63.59 8.34
13042 18.0390 81.70 63.59 9.05
13043 18.0400 62.03 63.59 7.93
13044 18.0410 68.33 63.59 8.35
13045 18.0420 71.60 63.60 8.51
13046 18.0430 72.89 63.60 8.59
13047 18.0440 66.96 63.60 8.22
13048 18.0450 66.70 63.60 8.23
13049 18.0460 67.34 63.61 8.30
13050 18.0470 75.30 63.61 8.66
13051 18.0480 70.93 63.61 8.43
13052 18.0490 65.09 63.62 8.08
13053 18.0500 80.43 63.62 9.03
13054 18.0510 86.01 63.62 9.33
13055 18.0520 69.84 63.62 8.42
13056 18.0530 74.73 63.63 8.64
13057 18.0540 93.25 63.63 9.71
13058 18.0550 73.62 63.63 8.59
13059 18.0560 72.80 63.64 8.56
13060 18.0570 66.95 63.64 8.19
13061 18.0580 71.87 63.64 8.51
13062 18.0590 65.34 63.65 8.09
13063 18.0600 68.22 63.65 8.34
13064 18.0610 76.34 63.65 8.84
13065 18.0620 66.24 63.66 8.22
13066 18.0630 99.07 63.66 9.92
13067 18.0640 74.24 63.66 8.62
13068 18.0650 62.94 63.67 7.96
13069 18.0660 74.83 63.67 8.70
13070 18.0670 72.87 63.67 8.55
13071 18.0680 78.31 63.68 8.86
13072 18.0690 63.60 63.68 7.97
13073 18.0700 73.05 63.68 8.64
13074 18.0710 72.70 63.69 8.59
13075 18.0720 71.05 63.69 8.47
13076 18.0730 70.99 63.69 8.46
13077 18.0740 66.60 63.70 8.19
13078 18.0750 63.56 63.70 8.01
13079 18.0760 69.11 63.71 8.35
13080 18.0770 76.54 63.71 8.73
13081 18.0780 63.05 63.71 7.92
13082 18.0790 63.79 63.72 7.95
13083 18.0800 64.04 63.72 8.02
13084 18.0810 79.01 63.73 8.97
13085 18.0820 61.81 63.73 7.88
13086 18.0830 76.47 63.73 8.75
13087 18.0840 68.27 63.74 8.29
13088 18.0850 72.41 63.74 8.55
13089 18.0860 53.98 63.75 7.39
13090 18.0870 73.19 63.75 8.56
13091 18.0880 80.86 63.76 8.97
13092 18.0890 79.21 63.76 8.87
13093 18.0900 69.79 63.77 8.40
13094 18.0910 70.02 63.77 8.43
13095 18.0920 70.17 63.78 8.40
13096 18.0930 85.74 63.78 9.28
13097 18.0940 83.99 63.78 9.20
13098 18.0950 78.38 63.79 8.90
13099 18.0960 65.20 63.79 8.15
13100 18.0970 88.48 63.80 9.41
13101 18.0980 78.28 63.80 8.84
13102 18.0990 59.13 63.81 7.71
13103 18.1000 62.32 63.82 7.96
13104 18.1010 73.60 63.82 8.64
13105 18.1020 64.32 63.83 8.05
13106 18.1030 74.22 63.83 8.57
13107 18.1040 66.31 63.84 8.11
13108 18.1050 61.84 63.84 7.86
13109 18.1060 65.89 63.85 8.16
13110 18.1070 79.13 63.85 8.87
13111 18.1080 63.64 63.86 7.98
13112 18.1090 86.95 63.87 9.31
13113 18.1100 70.43 63.87 8.47
13114 18.1110 78.36 63.88 8.93
13115 18.1120 72.06 63.88 8.53
13116 18.1130 84.85 63.89 9.16
13117 18.1140 73.50 63.90 8.56
13118 18.1150 83.22 63.90 9.10
13119 18.1160 73.14 63.91 8.56
13120 18.1170 66.19 63.92 8.18
13121 18.1180 69.13 63.92 8.32
13122 18.1190 71.91 63.93 8.48
13123 18.1200 67.30 63.94 8.30
13124 18.1210 88.34 63.94 9.50
13125 18.1220 84.20 63.95 9.24
13126 18.1230 81.03 63.96 9.00
13127 18.1240 68.46 63.97 8.29
13128 18.1250 81.49 63.97 9.06
13129 18.1260 54.96 63.98 7.45
13130 18.1270 68.50 63.99 8.29
13131 18.1280 65.04 64.00 8.02
13132 18.1290 77.16 64.01 8.77
13133 18.1300 65.48 64.01 8.13
13134 18.1310 76.45 64.02 8.80
13135 18.1320 74.19 64.03 8.66
13136 18.1330 62.86 64.04 7.96
13137 18.1340 73.75 64.05 8.57
13138 18.1350 71.34 64.06 8.46
13139 18.1360 64.69 64.07 8.06
13140 18.1370 81.58 64.07 9.02
13141 18.1380 75.00 64.08 8.60
13142 18.1390 71.14 64.09 8.41
13143 18.1400 79.14 64.10 8.94
13144 18.1410 66.91 64.11 8.28
13145 18.1420 70.32 64.12 8.44
13146 18.1430 69.90 64.13 8.39
13147 18.1440 70.45 64.14 8.42
13148 18.1450 64.74 64.15 8.09
13149 18.1460 78.86 64.16 8.94
13150 18.1470 75.38 64.17 8.69
13151 18.1480 76.26 64.19 8.71
13152 18.1490 66.87 64.20 8.22
13153 18.1500 76.03 64.21 8.79
13154 18.1510 64.29 64.22 8.07
13155 18.1520 67.13 64.23 8.23
13156 18.1530 70.76 64.24 8.38
13157 18.1540 68.31 64.26 8.26
13158 18.1550 77.45 64.27 8.77
13159 18.1560 74.05 64.28 8.59
13160 18.1570 83.37 64.29 9.14
13161 18.1580 76.29 64.31 8.71
13162 18.1590 63.63 64.32 7.98
13163 18.1600 63.33 64.33 8.02
13164 18.1610 72.34 64.35 8.58
13165 18.1620 62.87 64.36 7.95
13166 18.1630 76.65 64.38 8.74
13167 18.1640 60.85 64.39 7.78
13168 18.1650 73.38 64.41 8.58
13169 18.1660 75.70 64.42 8.77
13170 18.1670 77.27 64.44 8.82
13171 18.1680 78.51 64.45 8.87
13172 18.1690 81.72 64.47 9.06
13173 18.1700 82.15 64.49 9.17
13174 18.1710 72.32 64.51 8.57
13175 18.1720 54.81 64.52 7.43
13176 18.1730 59.81 64.54 7.76
13177 18.1740 66.29 64.56 8.16
13178 18.1750 71.22 64.58 8.45
13179 18.1760 65.19 64.60 8.10
13180 18.1770 60.69 64.62 7.80
13181 18.1780 69.83 64.64 8.34
13182 18.1790 74.16 64.66 8.57
13183 18.1800 75.73 64.68 8.72
13184 18.1810 65.74 64.70 8.19
13185 18.1820 79.00 64.72 8.92
13186 18.1830 66.57 64.74 8.17
13187 18.1840 74.74 64.77 8.62
13188 18.1850 73.63 64.79 8.61
13189 18.1860 66.59 64.81 8.22
13190 18.1870 66.41 64.84 8.15
13191 18.1880 74.21 64.86 8.57
13192 18.1890 69.98 64.89 8.34
13193 18.1900 70.04 64.91 8.39
13194 18.1910 71.17 64.94 8.54
13195 18.1920 74.20 64.97 8.66
13196 18.1930 77.17 65.00 8.81
13197 18.1940 63.86 65.03 8.00
13198 18.1950 57.38 65.06 7.64
13199 18.1960 67.22 65.09 8.28
13200 18.1970 73.68 65.12 8.63
13201 18.1980 64.53 65.15 8.01
13202 18.1990 70.00 65.18 8.35
13203 18.2000 69.25 65.22 8.37
13204 18.2010 63.17 65.25 8.02
13205 18.2020 62.94 65.29 7.93
13206 18.2030 75.15 65.33 8.66
13207 18.2040 65.10 65.36 8.06
13208 18.2050 76.02 65.40 8.72
13209 18.2060 60.40 65.44 7.81
13210 18.2070 72.25 65.48 8.48
13211 18.2080 66.91 65.53 8.18
13212 18.2090 72.62 65.57 8.53
13213 18.2100 69.90 65.62 8.42
13214 18.2110 66.13 65.66 8.18
13215 18.2120 79.59 65.71 8.96
13216 18.2130 74.31 65.76 8.62
13217 18.2140 60.67 65.81 7.80
13218 18.2150 70.98 65.87 8.42
13219 18.2160 87.90 65.92 9.41
13220 18.2170 62.96 65.98 7.96
13221 18.2180 63.64 66.04 8.00
13222 18.2190 64.32 66.10 8.08
13223 18.2200 64.88 66.16 8.14
13224 18.2210 56.77 66.23 7.64
13225 18.2220 70.97 66.30 8.49
13226 18.2230 77.47 66.37 8.81
13227 18.2240 66.97 66.44 8.20
13228 18.2250 77.52 66.52 8.85
13229 18.2260 67.43 66.60 8.27
13230 18.2270 71.74 66.68 8.43
13231 18.2280 61.59 66.77 7.86
13232 18.2290 73.85 66.86 8.59
13233 18.2300 80.04 66.96 8.99
13234 18.2310 79.20 67.06 8.96
13235 18.2320 68.44 67.16 8.31
13236 18.2330 90.98 67.27 9.53
13237 18.2340 71.37 67.38 8.45
13238 18.2350 66.31 67.51 8.19
13239 18.2360 89.38 67.63 9.49
13240 18.2370 59.26 67.77 7.69
13241 18.2380 65.53 67.91 8.05
13242 18.2390 60.80 68.07 7.77
13243 18.2400 65.79 68.23 8.18
13244 18.2410 80.99 68.40 9.10
13245 18.2420 77.54 68.59 8.84
13246 18.2430 72.83 68.79 8.55
13247 18.2440 74.46 69.01 8.61
13248 18.2450 81.33 69.25 9.07
13249 18.2460 72.57 69.51 8.59
13250 18.2470 82.50 69.80 9.07
13251 18.2480 84.80 70.12 9.17
13252 18.2490 58.67 70.48 7.63
13253 18.2500 85.49 70.90 9.27
13254 18.2510 82.72 71.38 9.17
13255 18.2520 74.07 71.95 8.62
13256 18.2530 98.27 72.64 9.86
13257 18.2540 80.01 73.48 8.92
13258 18.2550 64.34 74.50 8.02
13259 18.2560 76.31 75.76 8.72
13260 18.2570 91.04 77.31 9.58
13261 18.2580 77.26 79.17 8.75
13262 18.2590 83.03 81.38 9.10
13263 18.2600 89.98 83.92 9.55
13264 18.2610 75.81 86.69 8.78
13265 18.2620 84.58 89.50 9.23
13266 18.2630 91.96 92.10 9.56
13267 18.2640 95.77 94.20 9.74
13268 18.2650 90.53 95.58 9.54
13269 18.2660 116.63 96.14 10.87
13270 18.2670 101.61 95.81 10.09
13271 18.2680 96.51 94.63 9.84
13272 18.2690 94.14 92.78 9.71
13273 18.2700 89.85 90.59 9.55
13274 18.2710 108.03 88.38 10.49
13275 18.2720 104.41 86.38 10.25
13276 18.2730 82.35 84.71 9.07
13277 18.2740 78.01 83.42 8.84
13278 18.2750 93.12 82.48 9.65
13279 18.2760 79.35 81.88 8.95
13280 18.2770 74.86 81.56 8.62
13281 18.2780 86.63 81.48 9.25
13282 18.2790 75.94 81.60 8.69
13283 18.2800 84.86 81.89 9.24
13284 18.2810 96.33 82.33 9.91
13285 18.2820 94.58 82.89 9.78
13286 18.2830 89.52 83.58 9.45
13287 18.2840 86.08 84.37 9.28
13288 18.2850 93.08 85.28 9.69
13289 18.2860 89.03 86.31 9.46
13290 18.2870 77.18 87.45 8.76
13291 18.2880 96.04 88.73 9.77
13292 18.2890 84.23 90.14 9.11
13293 18.2900 99.49 91.71 10.07
13294 18.2910 95.37 93.45 9.86
13295 18.2920 97.70 95.39 9.94
13296 18.2930 110.23 97.54 10.52
13297 18.2940 98.76 99.93 9.95
13298 18.2950 101.36 102.61 10.09
13299 18.2960 95.70 105.61 9.80
13300 18.2970 122.88 108.97 11.08
13301 18.2980 99.65 112.78 9.95
13302 18.2990 121.65 117.09 11.00
13303 18.3000 116.09 121.99 10.81
13304 18.3010 146.10 127.61 12.11
13305 18.3020 169.76 134.10 13.02
13306 18.3030 158.96 141.67 12.52
13307 18.3040 163.96 150.58 12.69
13308 18.3050 168.93 161.24 12.97
13309 18.3060 203.16 174.25 14.28
13310 18.3070 213.89 190.30 14.64
13311 18.3080 218.29 210.50 14.69
13312 18.3090 273.33 236.32 16.47
13313 18.3100 319.82 269.36 18.01
13314 18.3110 337.85 311.78 18.48
13315 18.3120 370.36 366.00 19.30
13316 18.3130 444.40 434.29 21.01
13317 18.3140 511.86 518.47 22.55
13318 18.3150 579.86 619.82 24.11
13319 18.3160 756.59 737.18 27.67
13320 18.3170 862.22 865.52 29.44
13321 18.3180 980.73 994.50 31.34
13322 18.3190 1118.24 1105.88 33.36
13323 18.3200 1206.42 1178.49 34.97
13324 18.3210 1270.98 1195.60 36.07
13325 18.3220 1243.45 1154.11 35.37
13326 18.3230 1151.75 1064.41 33.93
13327 18.3240 952.87 945.83 30.85
13328 18.3250 783.65 817.32 28.00
13329 18.3260 654.75 693.35 25.64
13330 18.3270 603.35 581.89 24.44
13331 18.3280 526.56 487.10 22.76
13332 18.3290 457.46 408.79 21.17
13333 18.3300 371.86 345.77 19.31
13334 18.3310 311.67 296.01 17.78
13335 18.3320 268.73 257.01 16.39
13336 18.3330 261.49 226.67 16.14
13337 18.3340 239.02 202.93 15.41
13338 18.3350 192.51 184.21 13.84
13339 18.3360 161.67 169.26 12.68
13340 18.3370 162.76 157.09 12.70
13341 18.3380 159.64 147.02 12.56
13342 18.3390 142.80 138.58 11.88
13343 18.3400 136.07 131.39 11.72
13344 18.3410 137.23 125.17 11.83
13345 18.3420 118.95 119.78 10.97
13346 18.3430 114.56 115.07 10.71
13347 18.3440 110.06 110.90 10.46
13348 18.3450 117.46 107.22 10.87
13349 18.3460 73.21 103.94 8.61
13350 18.3470 104.49 101.00 10.21
13351 18.3480 96.72 98.38 9.79
13352 18.3490 113.92 96.01 10.63
13353 18.3500 91.83 93.88 9.64
13354 18.3510 77.29 91.94 8.80
13355 18.3520 87.01 90.18 9.32
13356 18.3530 85.52 88.58 9.21
13357 18.3540 80.56 87.11 8.92
13358 18.3550 85.63 85.76 9.24
13359 18.3560 82.51 84.53 9.11
13360 18.3570 91.81 83.39 9.56
13361 18.3580 83.78 82.34 9.10
13362 18.3590 74.58 81.38 8.59
13363 18.3600 81.86 80.48 9.06
13364 18.3610 81.46 79.64 9.09
13365 18.3620 89.87 78.87 9.46
13366 18.3630 80.42 78.15 8.95
13367 18.3640 83.39 77.48 9.09
13368 18.3650 65.74 76.85 8.17
13369 18.3660 88.18 76.26 9.46
13370 18.3670 87.10 75.71 9.33
13371 18.3680 81.69 75.19 9.00
13372 18.3690 74.57 74.70 8.64
13373 18.3700 71.65 74.25 8.52
13374 18.3710 73.20 73.82 8.61
13375 18.3720 74.95 73.41 8.67
13376 18.3730 84.45 73.03 9.15
13377 18.3740 69.98 72.67 8.35
13378 18.3750 78.95 72.32 8.84
13379 18.3760 74.40 72.00 8.60
13380 18.3770 70.71 71.69 8.36
13381 18.3780 78.39 71.40 8.81
13382 18.3790 68.54 71.12 8.23
13383 18.3800 76.86 70.86 8.77
13384 18.3810 89.94 70.61 9.58
13385 18.3820 81.07 70.37 9.03
13386 18.3830 82.33 70.14 9.04
13387 18.3840 86.77 69.93 9.29
13388 18.3850 84.39 69.72 9.17
13389 18.3860 71.48 69.52 8.46
13390 18.3870 73.85 69.34 8.55
13391 18.3880 78.62 69.16 8.82
13392 18.3890 67.25 68.98 8.20
13393 18.3900 80.11 68.82 9.05
13394 18.3910 69.16 68.66 8.41
13395 18.3920 61.57 68.51 7.90
13396 18.3930 72.92 68.36 8.56
13397 18.3940 82.88 68.22 9.14
13398 18.3950 67.22 68.09 8.21
13399 18.3960 99.41 67.96 10.00
13400 18.3970 76.81 67.84 8.77
13401 18.3980 84.15 67.72 9.14
13402 18.3990 65.28 67.60 8.06
13403 18.4000 68.75 67.49 8.31
13404 18.4010 67.23 67.39 8.22
13405 18.4020 64.13 67.28 7.99
13406 18.4030 74.59 67.19 8.62
13407 18.4040 76.32 67.09 8.70
13408 18.4050 74.10 67.00 8.61
13409 18.4060 71.16 66.91 8.47
13410 18.4070 63.87 66.82 8.00
13411 18.4080 68.84 66.74 8.26
13412 18.4090 76.53 66.66 8.71
13413 18.4100 87.44 66.58 9.39
13414 18.4110 67.26 66.51 8.21
13415 18.4120 64.65 66.44 8.05
13416 18.4130 75.32 66.37 8.64
13417 18.4140 79.92 66.30 8.96
13418 18.4150 71.61 66.23 8.50
13419 18.4160 66.87 66.17 8.22
13420 18.4170 70.79 66.11 8.44
13421 18.4180 74.64 66.05 8.65
13422 18.4190 73.44 65.99 8.55
13423 18.4200 73.86 65.93 8.64
13424 18.4210 80.94 65.88 9.05
13425 18.4220 69.47 65.83 8.36
13426 18.4230 81.91 65.77 9.02
13427 18.4240 65.98 65.72 8.11
13428 18.4250 61.71 65.68 7.87
13429 18.4260 71.48 65.63 8.47
13430 18.4270 59.66 65.58 7.71
13431 18.4280 75.90 65.54 8.65
13432 18.4290 73.15 65.49 8.53
13433 18.4300 74.83 65.45 8.70
13434 18.4310 83.47 65.41 9.22
13435 18.4320 53.64 65.37 7.35
13436 18.4330 69.74 65.33 8.36
13437 18.4340 68.26 65.29 8.26
13438 18.4350 73.37 65.26 8.54
13439 18.4360 70.36 65.22 8.41
13440 18.4370 70.38 65.18 8.38
13441 18.4380 87.61 65.15 9.34
13442 18.4390 68.24 65.12 8.30
13443 18.4400 80.28 65.08 9.04
13444 18.4410 83.08 65.05 9.21
13445 18.4420 66.87 65.02 8.23
13446 18.4430 52.22 64.99 7.25
13447 18.4440 64.65 64.96 8.05
13448 18.4450 69.53 64.93 8.38
13449 18.4460 68.97 64.90 8.35
13450 18.4470 68.56 64.88 8.27
13451 18.4480 56.30 64.85 7.50
13452 18.4490 70.30 64.82 8.38
13453 18.4500 67.47 64.80 8.24
13454 18.4510 66.47 64.77 8.19
13455 18.4520 75.69 64.75 8.70
13456 18.4530 78.60 64.72 8.83
13457 18.4540 69.61 64.71 8.35
13458 18.4550 68.67 64.69 8.31
13459 18.4560 76.73 64.67 8.82
13460 18.4570 84.13 64.68 9.21
13461 18.4580 76.35 64.65 8.71
13462 18.4590 67.67 64.68 8.22
13463 18.4600 61.89 64.66 7.89
13464 18.4610 73.75 64.64 8.61
13465 18.4620 78.59 64.62 8.90
13466 18.4630 66.95 64.60 8.21
13467 18.4640 58.71 64.58 7.68
13468 18.4650 75.13 64.56 8.72
13469 18.4660 72.30 64.54 8.59
13470 18.4670 77.33 64.53 8.82
13471 18.4680 80.52 64.51 8.97
13472 18.4690 75.46 64.49 8.69
13473 18.4700 89.16 64.48 9.52
13474 18.4710 70.55 64.46 8.46
13475 18.4720 67.72 64.44 8.25
13476 18.4730 69.45 64.43 8.36
13477 18.4740 76.98 64.41 8.77
13478 18.4750 71.49 64.40 8.47
13479 18.4760 82.05 64.39 9.07
13480 18.4770 67.73 64.37 8.21
13481 18.4780 67.48 64.36 8.20
13482 18.4790 57.72 64.34 7.59
13483 18.4800 74.23 64.33 8.65
13484 18.4810 72.37 64.32 8.60
13485 18.4820 69.42 64.30 8.38
13486 18.4830 85.95 64.29 9.29
13487 18.4840 59.82 64.28 7.70
13488 18.4850 62.66 64.27 7.91
13489 18.4860 90.00 64.25 9.47
13490 18.4870 73.18 64.24 8.59
13491 18.4880 66.83 64.23 8.16
13492 18.4890 76.44 64.22 8.77
13493 18.4900 72.02 64.21 8.61
13494 18.4910 71.07 64.20 8.56
13495 18.4920 82.83 64.19 9.14
13496 18.4930 73.16 64.18 8.60
13497 18.4940 80.31 64.17 8.95
13498 18.4950 70.09 64.16 8.39
13499 18.4960 80.81 64.15 9.03
13500 18.4970 84.09 64.14 9.16
13501 18.4980 76.76 64.13 8.71
13502 18.4990 70.31 64.12 8.40
13503 18.5000 61.38 64.11 7.89
13504 18.5010 61.37 64.10 7.88
13505 18.5020 66.90 64.09 8.23
13506 18.5030 71.31 64.08 8.44
13507 18.5040 81.34 64.07 9.01
13508 18.5050 85.99 64.07 9.28
13509 18.5060 80.63 64.06 9.02
13510 18.5070 56.56 64.05 7.55
13511 18.5080 68.91 64.04 8.28
13512 18.5090 65.63 64.03 8.11
13513 18.5100 69.30 64.03 8.37
13514 18.5110 65.47 64.02 8.16
13515 18.5120 70.26 64.01 8.38
13516 18.5130 56.73 64.00 7.56
13517 18.5140 64.70 64.00 8.06
13518 18.5150 73.77 63.99 8.63
13519 18.5160 67.86 63.98 8.32
13520 18.5170 65.02 63.97 8.10
13521 18.5180 69.22 63.97 8.32
13522 18.5190 80.22 63.96 8.94
13523 18.5200 72.12 63.95 8.57
13524 18.5210 70.78 63.95 8.49
13525 18.5220 70.59 63.94 8.45
13526 18.5230 69.48 63.94 8.33
13527 18.5240 67.15 63.93 8.18
13528 18.5250 74.10 63.92 8.63
13529 18.5260 82.53 63.92 9.10
13530 18.5270 70.29 63.91 8.38
13531 18.5280 83.25 63.91 9.08
13532 18.5290 77.13 63.90 8.75
13533 18.5300 70.05 63.90 8.43
13534 18.5310 68.87 63.89 8.36
13535 18.5320 61.65 63.88 7.89
13536 18.5330 75.63 63.88 8.70
13537 18.5340 63.09 63.87 7.91
13538 18.5350 56.48 63.87 7.54
13539 18.5360 70.98 63.86 8.46
13540 18.5370 73.30 63.86 8.56
13541 18.5380 65.85 63.86 8.10
13542 18.5390 72.55 63.85 8.55
13543 18.5400 56.47 63.85 7.61
13544 18.5410 75.82 63.84 8.81
13545 18.5420 69.24 63.84 8.41
13546 18.5430 70.45 63.83 8.38
13547 18.5440 55.81 63.83 7.50
13548 18.5450 68.54 63.82 8.30
13549 18.5460 61.64 63.82 7.89
13550 18.5470 69.34 63.82 8.32
13551 18.5480 66.99 63.81 8.17
13552 18.5490 80.22 63.81 8.92
13553 18.5500 73.44 63.81 8.62
13554 18.5510 76.02 63.80 8.78
13555 18.5520 66.74 63.80 8.18
13556 18.5530 61.72 63.79 7.87
13557 18.5540 80.78 63.79 8.98
13558 18.5550 80.06 63.79 8.99
13559 18.5560 75.09 63.78 8.71
13560 18.5570 64.83 63.78 8.05
13561 18.5580 60.40 63.78 7.73
13562 18.5590 69.08 63.77 8.30
13563 18.5600 81.46 63.77 9.06
13564 18.5610 69.16 63.77 8.41
13565 18.5620 68.52 63.77 8.32
13566 18.5630 80.97 63.76 9.03
13567 18.5640 75.42 63.76 8.70
13568 18.5650 63.96 63.76 8.07
13569 18.5660 65.62 63.75 8.15
13570 18.5670 78.32 63.75 8.88
13571 18.5680 75.44 63.75 8.66
13572 18.5690 73.19 63.75 8.58
13573 18.5700 67.72 63.74 8.30
13574 18.5710 73.70 63.74 8.67
13575 18.5720 87.54 63.74 9.42
13576 18.5730 88.67 63.74 9.39
13577 18.5740 69.10 63.74 8.30
13578 18.5750 70.12 63.73 8.36
13579 18.5760 78.54 63.73 8.89
13580 18.5770 81.39 63.73 9.01
13581 18.5780 75.41 63.73 8.70
13582 18.5790 85.92 63.73 9.26
13583 18.5800 82.30 63.72 9.15
13584 18.5810 54.20 63.72 7.49
13585 18.5820 66.75 63.72 8.20
13586 18.5830 70.71 63.72 8.40
13587 18.5840 86.74 63.72 9.29
13588 18.5850 76.38 63.72 8.76
13589 18.5860 76.38 63.72 8.80
13590 18.5870 80.91 63.71 9.03
13591 18.5880 64.27 63.71 8.02
13592 18.5890 76.82 63.71 8.79
13593 18.5900 79.34 63.71 9.01
13594 18.5910 61.70 63.71 7.97
13595 18.5920 68.43 63.71 8.33
13596 18.5930 70.39 63.71 8.40
13597 18.5940 60.68 63.70 7.80
13598 18.5950 81.39 63.70 9.06
13599 18.5960 75.09 63.70 8.70
13600 18.5970 61.98 63.70 7.89
13601 18.5980 83.18 63.70 9.07
13602 18.5990 53.74 63.70 7.34
13603 18.6000 76.50 63.70 8.76
13604 18.6010 63.95 63.70 8.05
13605 18.6020 81.50 63.70 9.06
13606 18.6030 76.70 63.70 8.77
13607 18.6040 76.78 63.70 8.77
13608 18.6050 55.23 63.70 7.48
13609 18.6060 61.01 63.70 7.87
13610 18.6070 70.42 63.70 8.40
13611 18.6080 87.18 63.70 9.29
13612 18.6090 72.42 63.70 8.47
13613 18.6100 48.58 63.70 7.03
13614 18.6110 70.08 63.70 8.44
13615 18.6120 64.01 63.70 8.04
13616 18.6130 75.68 63.70 8.74
13617 18.6140 70.64 63.70 8.42
13618 18.6150 63.49 63.70 8.01
13619 18.6160 73.29 63.70 8.63
13620 18.6170 85.56 63.70 9.28
13621 18.6180 72.84 63.70 8.52
13622 18.6190 64.76 63.70 8.06
13623 18.6200 67.58 63.70 8.30
13624 18.6210 52.60 63.71 7.34
13625 18.6220 61.58 63.71 7.84
13626 18.6230 73.57 63.71 8.57
13627 18.6240 92.02 63.71 9.54
13628 18.6250 77.65 63.71 8.84
13629 18.6260 82.48 63.71 9.09
13630 18.6270 75.43 63.71 8.71
13631 18.6280 81.34 63.72 9.01
13632 18.6290 80.48 63.72 9.00
13633 18.6300 60.45 63.72 7.85
13634 18.6310 60.88 63.72 7.88
13635 18.6320 70.11 63.72 8.39
13636 18.6330 71.35 63.73 8.43
13637 18.6340 82.78 63.73 9.10
13638 18.6350 90.18 63.73 9.51
13639 18.6360 73.65 63.73 8.62
13640 18.6370 61.94 63.74 7.91
13641 18.6380 76.94 63.74 8.74
13642 18.6390 71.42 63.74 8.47
13643 18.6400 68.48 63.75 8.40
13644 18.6410 63.22 63.75 8.08
13645 18.6420 79.15 63.75 8.92
13646 18.6430 73.85 63.76 8.62
13647 18.6440 71.10 63.76 8.42
13648 18.6450 80.32 63.76 8.99
13649 18.6460 69.32 63.77 8.36
13650 18.6470 73.88 63.77 8.56
13651 18.6480 70.58 63.78 8.37
13652 18.6490 60.13 63.78 7.76
13653 18.6500 77.39 63.78 8.82
13654 18.6510 67.66 63.79 8.28
13655 18.6520 83.98 63.63 9.19
13656 18.6530 60.14 63.64 7.77
13657 18.6540 70.50 63.56 8.43
13658 18.6550 77.54 63.57 8.83
13659 18.6560 81.15 63.57 9.02
13660 18.6570 70.95 63.58 8.47
13661 18.6580 59.79 63.59 7.70
13662 18.6590 73.73 63.60 8.56
13663 18.6600 65.40 63.60 8.14
13664 18.6610 73.39 63.61 8.65
13665 18.6620 70.44 63.62 8.46
13666 18.6630 66.35 63.63 8.19
13667 18.6640 68.96 63.64 8.32
13668 18.6650 65.71 63.64 8.17
13669 18.6660 75.39 63.66 8.75
13670 18.6670 76.04 63.67 8.73
13671 18.6680 75.90 63.69 8.68
13672 18.6690 76.37 63.72 8.73
13673 18.6700 69.03 63.73 8.37
13674 18.6710 64.37 63.74 8.13
13675 18.6720 76.53 63.75 8.79
13676 18.6730 87.95 63.76 9.37
13677 18.6740 61.39 63.77 7.82
13678 18.6750 83.81 63.78 9.15
13679 18.6760 77.57 63.79 8.85
13680 18.6770 70.13 63.80 8.35
13681 18.6780 77.08 63.82 8.79
13682 18.6790 63.49 63.83 7.98
13683 18.6800 79.74 63.84 8.99
13684 18.6810 62.72 63.86 8.01
13685 18.6820 61.91 63.87 7.90
13686 18.6830 69.64 63.88 8.36
13687 18.6840 59.56 63.90 7.67
13688 18.6850 79.95 63.91 8.96
13689 18.6860 73.43 63.93 8.61
13690 18.6870 77.19 63.94 8.81
13691 18.6880 81.15 63.96 9.01
13692 18.6890 72.73 63.98 8.54
13693 18.6900 73.44 63.99 8.65
13694 18.6910 52.65 64.01 7.36
13695 18.6920 68.73 64.03 8.35
13696 18.6930 70.66 64.05 8.42
13697 18.6940 64.47 64.07 8.02
13698 18.6950 71.10 64.09 8.48
13699 18.6960 71.56 64.11 8.52
13700 18.6970 64.22 64.13 8.02
13701 18.6980 65.44 64.15 8.06
13702 18.6990 67.99 64.18 8.22
13703 18.7000 69.51 64.20 8.37
13704 18.7010 65.53 64.22 8.16
13705 18.7020 72.27 64.25 8.52
13706 18.7030 79.61 64.27 8.95
13707 18.7040 82.13 64.30 9.05
13708 18.7050 64.07 64.33 8.04
13709 18.7060 81.02 64.36 9.05
13710 18.7070 61.73 64.39 7.85
13711 18.7080 70.88 64.42 8.38
13712 18.7090 78.06 64.45 8.79
13713 18.7100 89.35 64.48 9.49
13714 18.7110 85.35 64.52 9.33
13715 18.7120 70.64 64.55 8.45
13716 18.7130 78.41 64.59 8.90
13717 18.7140 52.82 64.63 7.28
13718 18.7150 56.64 64.67 7.57
13719 18.7160 74.57 64.71 8.68
13720 18.7170 61.30 64.76 7.82
13721 18.7180 76.25 64.80 8.71
13722 18.7190 56.92 64.85 7.54
13723 18.7200 85.70 64.90 9.33
13724 18.7210 56.44 64.95 7.59
13725 18.7220 68.77 65.00 8.33
13726 18.7230 78.60 65.06 8.86
13727 18.7240 79.31 65.11 8.87
13728 18.7250 69.99 65.17 8.37
13729 18.7260 65.64 65.24 8.15
13730 18.7270 91.07 65.30 9.54
13731 18.7280 76.92 65.37 8.74
13732 18.7290 79.62 65.45 8.92
13733 18.7300 80.44 65.52 9.02
13734 18.7310 84.03 65.60 9.25
13735 18.7320 84.21 65.69 9.21
13736 18.7330 78.97 65.77 8.86
13737 18.7340 57.31 65.87 7.57
13738 18.7350 72.29 65.96 8.51
13739 18.7360 63.51 66.07 8.01
13740 18.7370 61.36 66.17 7.86
13741 18.7380 74.47 66.29 8.65
13742 18.7390 65.53 66.41 8.13
13743 18.7400 73.27 66.54 8.61
13744 18.7410 78.84 66.67 9.01
13745 18.7420 78.33 66.81 8.85
13746 18.7430 75.39 66.96 8.69
13747 18.7440 69.32 67.12 8.30
13748 18.7450 79.06 67.29 8.91
13749 18.7460 66.30 67.47 8.18
13750 18.7470 68.01 67.67 8.24
13751 18.7480 77.71 67.87 8.77
13752 18.7490 71.53 68.09 8.44
13753 18.7500 84.52 68.33 9.23
13754 18.7510 80.06 68.58 9.00
13755 18.7520 78.64 68.85 8.90
13756 18.7530 78.38 69.14 8.84
13757 18.7540 74.40 69.46 8.62
13758 18.7550 70.30 69.80 8.40
13759 18.7560 64.00 70.16 8.03
13760 18.7570 74.30 70.56 8.60
13761 18.7580 77.41 70.99 8.76
13762 18.7590 77.41 71.45 8.78
13763 18.7600 82.18 71.96 9.09
13764 18.7610 70.87 72.52 8.48
13765 18.7620 88.36 73.13 9.41
13766 18.7630 92.80 73.80 9.65
13767 18.7640 64.11 74.54 8.04
13768 18.7650 73.89 75.36 8.66
13769 18.7660 89.26 76.27 9.50
13770 18.7670 86.42 77.28 9.32
13771 18.7680 81.61 78.41 8.97
13772 18.7690 81.05 79.68 9.01
13773 18.7700 85.93 81.11 9.25
13774 18.7710 104.98 82.74 10.33
13775 18.7720 100.27 84.59 10.00
13776 18.7730 101.34 86.73 10.03
13777 18.7740 102.90 89.22 10.06
13778 18.7750 108.64 92.16 10.41
13779 18.7760 95.40 95.65 9.78
13780 18.7770 115.38 99.87 10.72
13781 18.7780 116.13 105.08 10.74
13782 18.7790 108.04 111.53 10.38
13783 18.7800 133.79 119.63 11.61
13784 18.7810 138.27 129.89 11.82
13785 18.7820 153.30 142.79 12.35
13786 18.7830 165.64 158.98 12.84
13787 18.7840 196.83 179.11 13.96
13788 18.7850 212.63 203.65 14.61
13789 18.7860 238.33 232.74 15.48
13790 18.7870 267.57 266.05 16.34
13791 18.7880 291.59 302.26 17.05
13792 18.7890 392.76 339.09 19.86
13793 18.7900 407.89 373.84 20.21
13794 18.7910 470.17 403.35 21.86
13795 18.7920 476.83 424.50 21.87
13796 18.7930 507.01 434.16 22.48
13797 18.7940 496.52 430.11 22.19
13798 18.7950 439.24 411.81 20.97
13799 18.7960 422.55 381.33 20.55
13800 18.7970 365.25 343.25 19.02
13801 18.7980 323.62 302.78 17.82
13802 18.7990 278.25 263.93 16.54
13803 18.8000 232.06 229.36 15.23
13804 18.8010 223.36 199.85 15.04
13805 18.8020 176.13 175.36 13.30
13806 18.8030 162.11 155.61 12.71
13807 18.8040 167.43 139.85 12.89
13808 18.8050 132.61 127.44 11.51
13809 18.8060 124.03 117.67 11.14
13810 18.8070 152.19 109.97 12.27
13811 18.8080 110.33 103.86 10.43
13812 18.8090 111.36 98.94 10.51
13813 18.8100 125.00 94.92 11.24
13814 18.8110 106.46 91.58 10.41
13815 18.8120 102.52 88.77 10.17
13816 18.8130 96.57 86.36 9.81
13817 18.8140 85.43 84.29 9.24
13818 18.8150 84.78 82.48 9.20
13819 18.8160 90.42 80.89 9.54
13820 18.8170 91.38 79.49 9.53
13821 18.8180 88.56 78.24 9.38
13822 18.8190 91.58 77.13 9.53
13823 18.8200 82.04 76.14 9.07
13824 18.8210 95.52 75.25 9.80
13825 18.8220 75.30 74.44 8.69
13826 18.8230 82.34 73.71 9.03
13827 18.8240 69.49 73.05 8.29
13828 18.8250 87.99 72.45 9.38
13829 18.8260 82.53 71.90 9.10
13830 18.8270 69.54 71.39 8.36
13831 18.8280 69.44 70.93 8.31
13832 18.8290 71.97 70.51 8.48
13833 18.8300 77.36 70.11 8.85
13834 18.8310 81.90 69.75 9.12
13835 18.8320 72.72 69.42 8.51
13836 18.8330 76.18 69.11 8.73
13837 18.8340 70.43 68.82 8.38
13838 18.8350 58.17 68.55 7.65
13839 18.8360 66.30 68.30 8.19
13840 18.8370 79.06 68.07 8.94
13841 18.8380 87.07 67.85 9.32
13842 18.8390 85.56 67.65 9.22
13843 18.8400 76.48 67.46 8.79
13844 18.8410 65.42 67.28 8.17
13845 18.8420 74.64 67.11 8.65
13846 18.8430 81.41 66.95 9.00
13847 18.8440 82.94 66.80 9.06
13848 18.8450 76.32 66.66 8.74
13849 18.8460 80.21 66.53 9.00
13850 18.8470 66.20 66.40 8.13
13851 18.8480 72.90 66.28 8.48
13852 18.8490 82.86 66.17 9.06
13853 18.8500 75.61 66.06 8.74
13854 18.8510 61.70 65.96 7.93
13855 18.8520 76.38 65.87 8.76
13856 18.8530 86.37 65.78 9.27
13857 18.8540 70.14 65.69 8.36
13858 18.8550 72.20 65.61 8.49
13859 18.8560 76.37 65.53 8.72
13860 18.8570 62.56 65.45 7.89
13861 18.8580 54.07 65.38 7.34
13862 18.8590 82.60 65.32 9.08
13863 18.8600 96.39 65.25 9.86
13864 18.8610 74.92 65.19 8.73
13865 18.8620 65.83 65.13 8.17
13866 18.8630 74.87 65.07 8.66
13867 18.8640 86.01 65.02 9.28
13868 18.8650 75.60 64.97 8.70
13869 18.8660 75.91 64.92 8.75
13870 18.8670 70.18 64.87 8.34
13871 18.8680 56.39 64.83 7.49
13872 18.8690 84.17 64.78 9.14
13873 18.8700 64.35 64.74 8.05
13874 18.8710 68.76 64.70 8.36
13875 18.8720 78.28 64.66 8.86
13876 18.8730 67.81 64.63 8.19
13877 18.8740 72.03 64.59 8.43
13878 18.8750 72.33 64.56 8.51
13879 18.8760 69.44 64.53 8.37
13880 18.8770 74.71 64.50 8.61
13881 18.8780 69.03 64.47 8.27
13882 18.8790 59.82 64.44 7.70
13883 18.8800 75.75 64.41 8.74
13884 18.8810 65.90 64.38 8.17
13885 18.8820 55.71 64.36 7.50
13886 18.8830 72.32 64.34 8.49
13887 18.8840 74.87 64.31 8.66
13888 18.8850 76.77 64.29 8.79
13889 18.8860 72.54 64.27 8.57
13890 18.8870 76.03 64.25 8.73
13891 18.8880 66.99 64.23 8.17
13892 18.8890 74.08 64.21 8.62
13893 18.8900 76.48 64.19 8.78
13894 18.8910 61.46 64.18 7.88
13895 18.8920 75.68 64.16 8.76
13896 18.8930 73.01 64.15 8.52
13897 18.8940 67.19 64.13 8.19
13898 18.8950 77.09 64.12 8.75
13899 18.8960 66.64 64.10 8.18
13900 18.8970 68.26 64.09 8.24
13901 18.8980 70.52 64.08 8.34
13902 18.8990 73.09 64.07 8.49
13903 18.9000 76.08 64.06 8.77
13904 18.9010 76.74 64.05 8.85
13905 18.9020 74.37 64.04 8.63
13906 18.9030 66.75 64.03 8.16
13907 18.9040 77.47 64.02 8.78
13908 18.9050 64.49 64.02 8.03
13909 18.9060 56.77 64.01 7.55
13910 18.9070 67.22 64.00 8.17
13911 18.9080 67.47 64.00 8.20
13912 18.9090 59.21 63.99 7.70
13913 18.9100 76.48 63.99 8.81
13914 18.9110 64.61 63.99 8.13
13915 18.9120 53.47 63.98 7.35
13916 18.9130 74.62 63.98 8.67
13917 18.9140 78.19 63.98 8.86
13918 18.9150 74.41 63.98 8.66
13919 18.9160 86.26 63.98 9.31
13920 18.9170 81.21 63.98 9.03
13921 18.9180 66.52 63.98 8.12
13922 18.9190 78.00 63.98 8.79
13923 18.9200 56.61 63.98 7.54
13924 18.9210 68.71 63.98 8.34
13925 18.9220 83.29 63.99 9.13
13926 18.9230 71.25 63.99 8.40
13927 18.9240 71.77 63.99 8.46
13928 18.9250 87.83 64.00 9.40
13929 18.9260 74.05 64.01 8.65
13930 18.9270 70.56 64.01 8.40
13931 18.9280 86.57 64.02 9.26
13932 18.9290 60.23 64.03 7.74
13933 18.9300 71.79 64.04 8.53
13934 18.9310 65.54 64.05 8.17
13935 18.9320 59.23 64.06 7.72
13936 18.9330 66.42 64.07 8.16
13937 18.9340 78.63 64.09 8.90
13938 18.9350 88.42 64.10 9.44
13939 18.9360 67.38 64.12 8.27
13940 18.9370 64.57 64.14 8.04
13941 18.9380 72.37 64.15 8.50
13942 18.9390 60.49 64.17 7.79
13943 18.9400 70.26 64.19 8.41
13944 18.9410 73.67 64.22 8.66
13945 18.9420 67.62 64.24 8.26
13946 18.9430 71.34 64.27 8.44
13947 18.9440 64.07 64.29 7.97
13948 18.9450 70.52 64.32 8.40
13949 18.9460 89.24 64.35 9.48
13950 18.9470 87.12 64.38 9.30
13951 18.9480 76.07 64.42 8.68
13952 18.9490 82.38 64.46 9.04
13953 18.9500 59.92 64.50 7.80
13954 18.9510 67.70 64.54 8.31
13955 18.9520 81.33 64.58 9.05
13956 18.9530 61.18 64.63 7.83
13957 18.9540 80.30 64.68 8.95
13958 18.9550 82.54 64.74 9.12
13959 18.9560 68.97 64.79 8.36
13960 18.9570 81.13 64.86 9.00
13961 18.9580 78.74 64.92 8.88
13962 18.9590 74.81 65.00 8.63
13963 18.9600 65.44 65.07 8.14
13964 18.9610 72.66 65.15 8.60
13965 18.9620 59.37 65.24 7.75
13966 18.9630 77.00 65.34 8.80
13967 18.9640 78.95 65.44 8.91
13968 18.9650 78.00 65.55 8.87
13969 18.9660 75.09 65.67 8.70
13970 18.9670 79.58 65.80 8.92
13971 18.9680 55.69 65.93 7.42
13972 18.9690 81.20 66.08 8.95
13973 18.9700 75.74 66.25 8.73
13974 18.9710 74.97 66.43 8.71
13975 18.9720 79.27 66.62 8.93
13976 18.9730 68.34 66.83 8.26
13977 18.9740 64.30 67.06 8.01
13978 18.9750 68.18 67.32 8.29
13979 18.9760 87.83 67.60 9.39
13980 18.9770 84.29 67.91 9.17
13981 18.9780 62.21 68.25 7.87
13982 18.9790 60.68 68.63 7.78
13983 18.9800 62.45 69.06 7.95
13984 18.9810 69.52 69.54 8.42
13985 18.9820 76.19 70.07 8.78
13986 18.9830 81.06 70.68 9.01
13987 18.9840 77.03 71.36 8.78
13988 18.9850 80.80 72.14 9.03
13989 18.9860 67.58 73.05 8.27
13990 18.9870 75.08 74.09 8.71
13991 18.9880 70.43 75.32 8.39
13992 18.9890 64.66 76.78 8.03
13993 18.9900 83.38 78.55 9.21
13994 18.9910 94.97 80.72 9.81
13995 18.9920 93.28 83.42 9.63
13996 18.9930 85.29 86.82 9.22
13997 18.9940 112.32 91.13 10.53
13998 18.9950 87.68 96.61 9.37
13999 18.9960 119.22 103.53 10.94
14000 18.9970 98.11 112.23 9.89
14001 18.9980 133.75 122.90 11.51
14002 18.9990 131.79 135.73 11.44
14003 19.0000 141.29 150.71 11.93
14004 19.0010 172.20 167.24 13.22
14005 19.0020 197.38 184.36 14.09
14006 19.0030 191.90 200.43 13.81
14007 19.0040 209.62 213.44 14.45
14008 19.0050 207.68 221.41 14.43
14009 19.0060 258.52 222.77 16.12
14010 19.0070 217.00 216.87 14.76
14011 19.0080 203.93 204.63 14.15
14012 19.0090 172.75 188.28 13.15
14013 19.0100 154.31 170.49 12.50
14014 19.0110 129.13 153.23 11.46
14015 19.0120 120.00 137.70 11.00
14016 19.0130 128.28 124.39 11.33
14017 19.0140 111.48 113.30 10.56
14018 19.0150 105.08 104.34 10.28
14019 19.0160 109.17 97.19 10.45
14020 19.0170 88.37 91.55 9.39
14021 19.0180 94.40 87.10 9.65
14022 19.0190 93.43 83.62 9.64
14023 19.0200 82.15 80.86 9.06
14024 19.0210 75.14 78.65 8.74
14025 19.0220 79.51 76.85 8.93
14026 19.0230 87.25 75.36 9.36
14027 19.0240 72.81 74.11 8.52
14028 19.0250 87.89 73.04 9.40
14029 19.0260 68.78 72.12 8.34
14030 19.0270 72.89 71.32 8.55
14031 19.0280 61.57 70.61 7.80
14032 19.0290 69.74 70.03 8.33
14033 19.0300 75.91 69.49 8.75
14034 19.0310 72.98 69.01 8.60
14035 19.0320 85.06 68.58 9.25
14036 19.0330 66.22 68.18 8.13
14037 19.0340 70.46 67.83 8.39
14038 19.0350 68.52 67.51 8.30
14039 19.0360 79.38 67.22 8.95
14040 19.0370 81.56 66.95 9.02
14041 19.0380 82.34 66.71 9.04
14042 19.0390 81.34 66.49 9.03
14043 19.0400 88.33 66.29 9.45
14044 19.0410 76.78 66.10 8.83
14045 19.0420 71.28 65.93 8.44
14046 19.0430 80.37 65.77 8.95
14047 19.0440 76.08 65.63 8.68
14048 19.0450 77.10 65.49 8.77
14049 19.0460 58.66 65.36 7.68
14050 19.0470 66.15 65.25 8.10
14051 19.0480 57.37 65.14 7.54
14052 19.0490 68.55 65.03 8.24
14053 19.0500 76.92 64.94 8.80
14054 19.0510 65.97 64.89 8.16
14055 19.0520 56.90 64.81 7.54
14056 19.0530 77.08 64.73 8.78
14057 19.0540 55.60 64.66 7.45
14058 19.0550 60.34 64.59 7.78
14059 19.0560 79.56 64.57 8.93
14060 19.0570 69.00 64.56 8.31
14061 19.0580 63.43 64.50 7.94
14062 19.0590 80.69 64.45 8.96
14063 19.0600 87.64 64.40 9.41
14064 19.0610 80.13 64.35 9.01
14065 19.0620 78.28 64.30 8.85
14066 19.0630 80.78 64.26 9.02
14067 19.0640 75.08 64.22 8.65
14068 19.0650 63.94 64.18 8.04
14069 19.0660 67.02 64.14 8.19
14070 19.0670 66.48 64.10 8.15
14071 19.0680 61.64 64.07 7.80
14072 19.0690 76.99 64.04 8.73
14073 19.0700 67.03 64.01 8.22
14074 19.0710 76.55 63.98 8.82
14075 19.0720 61.01 63.95 7.82
14076 19.0730 73.31 63.92 8.56
14077 19.0740 66.52 63.90 8.12
14078 19.0750 74.02 63.87 8.57
14079 19.0760 70.72 63.85 8.46
14080 19.0770 56.33 63.83 7.49
14081 19.0780 69.33 63.81 8.24
14082 19.0790 71.63 63.79 8.45
14083 19.0800 69.94 63.77 8.39
14084 19.0810 70.09 63.75 8.48
14085 19.0820 74.57 63.73 8.64
14086 19.0830 68.17 63.71 8.22
14087 19.0840 67.52 63.70 8.23
14088 19.0850 69.83 63.68 8.39
14089 19.0860 67.89 63.67 8.24
14090 19.0870 72.07 63.65 8.50
14091 19.0880 76.09 63.64 8.68
14092 19.0890 74.86 63.63 8.67
14093 19.0900 76.69 63.62 8.79
14094 19.0910 79.56 63.60 8.97
14095 19.0920 76.06 63.59 8.71
14096 19.0930 77.26 63.58 8.75
14097 19.0940 75.59 63.57 8.61
14098 19.0950 62.38 63.57 7.89
14099 19.0960 76.67 63.56 8.75
14100 19.0970 77.73 63.55 8.80
14101 19.0980 57.39 63.54 7.53
14102 19.0990 56.79 63.54 7.50
14103 19.1000 71.65 63.53 8.49
14104 19.1010 69.24 63.52 8.37
14105 19.1020 51.31 63.52 7.16
14106 19.1030 69.57 63.51 8.29
14107 19.1040 87.69 63.51 9.34
14108 19.1050 71.09 63.51 8.46
14109 19.1060 70.68 63.50 8.43
14110 19.1070 52.60 63.50 7.26
14111 19.1080 79.04 63.50 8.84
14112 19.1090 54.81 63.50 7.39
14113 19.1100 54.97 63.50 7.45
14114 19.1110 56.11 63.50 7.56
14115 19.1120 75.51 63.50 8.72
14116 19.1130 68.87 63.51 8.30
14117 19.1140 81.20 63.51 9.00
14118 19.1150 82.02 63.51 9.06
14119 19.1160 69.45 63.52 8.34
14120 19.1170 77.17 63.53 8.75
14121 19.1180 74.16 63.54 8.54
14122 19.1190 86.04 63.54 9.21
14123 19.1200 68.43 63.56 8.27
14124 19.1210 76.95 63.57 8.84
14125 19.1220 69.67 63.59 8.36
14126 19.1230 77.71 63.60 8.79
14127 19.1240 63.50 63.62 7.91
14128 19.1250 61.01 63.65 7.79
14129 19.1260 85.24 63.66 9.26
14130 19.1270 69.93 63.69 8.32
14131 19.1280 79.05 63.73 8.82
14132 19.1290 70.92 63.74 8.41
14133 19.1300 81.48 63.79 9.10
14134 19.1310 71.42 63.80 8.58
14135 19.1320 63.06 63.87 7.96
14136 19.1330 73.59 63.95 8.58
14137 19.1340 66.28 64.05 8.12
14138 19.1350 57.79 64.17 7.64
14139 19.1360 82.22 64.32 9.10
14140 19.1370 74.74 64.50 8.66
14141 19.1380 76.60 64.74 8.73
14142 19.1390 61.86 65.05 7.86
14143 19.1400 65.50 65.44 8.12
14144 19.1410 69.56 65.92 8.40
14145 19.1420 75.17 66.52 8.63
14146 19.1430 78.95 67.26 8.88
14147 19.1440 89.20 68.12 9.39
14148 19.1450 75.59 69.08 8.70
14149 19.1460 77.33 70.11 8.82
14150 19.1470 75.73 71.10 8.70
14151 19.1480 73.85 71.92 8.53
14152 19.1490 70.45 72.43 8.40
14153 19.1500 60.95 72.56 7.85
14154 19.1510 74.66 72.29 8.75
14155 19.1520 66.79 71.65 8.15
14156 19.1530 72.76 70.75 8.53
14157 19.1540 87.74 69.74 9.35
14158 19.1550 71.77 68.72 8.52
14159 19.1560 77.18 67.78 8.87
14160 19.1570 68.86 66.97 8.31
14161 19.1580 68.02 66.28 8.21
14162 19.1590 70.71 65.72 8.40
14163 19.1600 61.64 65.27 7.92
14164 19.1610 60.18 64.92 7.83
14165 19.1620 77.11 64.63 8.80
14166 19.1630 70.87 64.41 8.48
14167 19.1640 65.26 64.24 8.09
14168 19.1650 76.98 64.10 8.78
14169 19.1660 53.15 63.99 7.31
14170 19.1670 69.82 63.89 8.37
14171 19.1680 55.41 63.82 7.40
14172 19.1690 56.37 63.75 7.50
14173 19.1700 77.44 63.70 8.81
14174 19.1710 73.35 63.65 8.65
14175 19.1720 75.81 63.61 8.75
14176 19.1730 60.50 63.57 7.80
14177 19.1740 68.11 63.54 8.23
14178 19.1750 65.62 63.51 8.11
14179 19.1760 74.84 63.48 8.69
14180 19.1770 61.99 63.46 7.85
14181 19.1780 62.28 63.44 7.88
14182 19.1790 74.98 63.43 8.70
14183 19.1800 72.41 63.41 8.58
14184 19.1810 65.70 63.40 8.18
14185 19.1820 66.01 63.38 8.14
14186 19.1830 73.26 63.37 8.55
14187 19.1840 78.17 63.36 8.85
14188 19.1850 66.94 63.35 8.21
14189 19.1860 50.49 63.35 7.19
14190 19.1870 68.22 63.34 8.29
14191 19.1880 63.16 63.33 7.94
14192 19.1890 70.32 63.33 8.39
14193 19.1900 69.42 63.33 8.36
14194 19.1910 63.82 63.32 8.02
14195 19.1920 71.82 63.32 8.49
14196 19.1930 52.68 63.32 7.27
14197 19.1940 80.14 63.31 8.92
14198 19.1950 78.12 63.31 8.87
14199 19.1960 75.25 63.31 8.70
14200 19.1970 83.90 63.31 9.19
14201 19.1980 82.75 63.31 9.02
14202 19.1990 65.51 63.31 8.06
14203 19.2000 58.90 63.31 7.76
14204 19.2010 70.74 63.31 8.51
14205 19.2020 69.59 63.31 8.39
14206 19.2030 75.98 63.32 8.76
14207 19.2040 59.77 63.32 7.75
14208 19.2050 83.21 63.32 9.16
14209 19.2060 88.82 63.32 9.45
14210 19.2070 83.12 63.32 9.10
14211 19.2080 75.00 63.33 8.63
14212 19.2090 67.33 63.33 8.19
14213 19.2100 69.33 63.33 8.41
14214 19.2110 71.46 63.34 8.56
14215 19.2120 71.44 63.34 8.49
14216 19.2130 73.60 63.35 8.60
14217 19.2140 57.25 63.35 7.57
14218 19.2150 80.58 63.35 8.98
14219 19.2160 69.27 63.36 8.33
14220 19.2170 72.72 63.36 8.47
14221 19.2180 62.71 63.37 7.90
14222 19.2190 61.87 63.38 7.87
14223 19.2200 67.07 63.38 8.25
14224 19.2210 67.51 63.39 8.32
14225 19.2220 57.95 63.39 7.63
14226 19.2230 70.26 63.40 8.37
14227 19.2240 63.96 63.41 7.94
14228 19.2250 97.81 63.42 9.91
14229 19.2260 93.16 63.42 9.67
14230 19.2270 90.16 63.43 9.51
14231 19.2280 83.36 63.44 9.12
14232 19.2290 70.69 63.45 8.40
14233 19.2300 65.77 63.46 8.15
14234 19.2310 61.43 63.47 7.92
14235 19.2320 72.51 63.47 8.50
14236 19.2330 64.89 63.48 8.05
14237 19.2340 67.02 63.49 8.18
14238 19.2350 80.98 63.50 9.03
14239 19.2360 78.39 63.51 8.90
14240 19.2370 70.69 63.52 8.44
14241 19.2380 75.79 63.54 8.68
14242 19.2390 65.31 63.55 8.06
14243 19.2400 62.61 63.56 7.96
14244 19.2410 77.12 63.57 8.82
14245 19.2420 76.42 63.58 8.75
14246 19.2430 76.03 63.59 8.70
14247 19.2440 67.51 63.61 8.20
14248 19.2450 82.90 63.62 9.13
14249 19.2460 71.98 63.63 8.52
14250 19.2470 63.52 63.65 7.97
14251 19.2480 75.74 63.66 8.68
14252 19.2490 80.99 63.68 8.99
14253 19.2500 83.10 63.69 9.16
14254 19.2510 76.99 63.71 8.84
14255 19.2520 78.01 63.72 8.84
14256 19.2530 80.34 63.74 8.96
14257 19.2540 87.44 63.76 9.32
14258 19.2550 64.82 63.78 8.07
14259 19.2560 48.88 63.79 7.05
14260 19.2570 60.66 63.81 7.78
14261 19.2580 61.30 63.83 7.81
14262 19.2590 60.52 63.85 7.78
14263 19.2600 65.18 63.87 8.17
14264 19.2610 67.49 63.89 8.29
14265 19.2620 72.04 63.91 8.55
14266 19.2630 56.63 63.93 7.55
14267 19.2640 78.13 63.96 8.83
14268 19.2650 81.40 63.98 9.04
14269 19.2660 76.98 64.00 8.81
14270 19.2670 65.23 64.03 8.09
14271 19.2680 55.11 64.05 7.41
14272 19.2690 80.38 64.08 8.95
14273 19.2700 57.14 64.10 7.63
14274 19.2710 74.71 64.13 8.70
14275 19.2720 70.67 64.16 8.45
14276 19.2730 76.24 64.19 8.72
14277 19.2740 81.59 64.22 8.99
14278 19.2750 71.05 64.25 8.42
14279 19.2760 59.84 64.28 7.79
14280 19.2770 64.54 64.31 8.02
14281 19.2780 79.19 64.35 8.91
14282 19.2790 74.29 64.38 8.65
14283 19.2800 74.98 64.42 8.72
14284 19.2810 56.92 64.45 7.60
14285 19.2820 55.81 64.49 7.54
14286 19.2830 58.21 64.53 7.65
14287 19.2840 59.79 64.57 7.77
14288 19.2850 77.31 64.61 8.85
14289 19.2860 76.34 64.66 8.81
14290 19.2870 76.57 64.70 8.76
14291 19.2880 63.37 64.75 7.96
14292 19.2890 68.56 64.79 8.25
14293 19.2900 56.86 64.84 7.60
14294 19.2910 66.14 64.89 8.19
14295 19.2920 60.50 64.94 7.83
14296 19.2930 70.74 65.00 8.41
14297 19.2940 63.85 65.06 8.01
14298 19.2950 93.46 65.11 9.65
14299 19.2960 79.78 65.17 8.96
14300 19.2970 74.52 65.24 8.59
14301 19.2980 46.97 65.30 6.82
14302 19.2990 66.72 65.37 8.14
14303 19.3000 64.67 65.44 8.10
14304 19.3010 66.77 65.51 8.24
14305 19.3020 69.40 65.58 8.38
14306 19.3030 75.38 65.66 8.72
14307 19.3040 83.72 65.74 9.17
14308 19.3050 80.05 65.83 8.96
14309 19.3060 78.16 65.92 8.90
14310 19.3070 78.86 66.01 8.88
14311 19.3080 85.02 66.10 9.19
14312 19.3090 72.10 66.20 8.51
14313 19.3100 74.47 66.30 8.71
14314 19.3110 60.54 66.41 7.89
14315 19.3120 73.94 66.52 8.68
14316 19.3130 64.36 66.64 8.02
14317 19.3140 64.48 66.76 8.03
14318 19.3150 73.55 66.89 8.57
14319 19.3160 71.59 67.03 8.49
14320 19.3170 65.27 67.17 8.06
14321 19.3180 73.72 67.32 8.54
14322 19.3190 78.98 67.47 8.89
14323 19.3200 74.77 67.64 8.72
14324 19.3210 71.70 67.81 8.56
14325 19.3220 63.04 67.99 7.97
14326 19.3230 63.18 68.18 7.93
14327 19.3240 69.29 68.38 8.31
14328 19.3250 71.95 68.59 8.52
14329 19.3260 80.95 68.81 9.03
14330 19.3270 83.11 69.05 9.14
14331 19.3280 63.74 69.30 8.01
14332 19.3290 70.28 69.56 8.38
14333 19.3300 82.12 69.84 9.12
14334 19.3310 79.68 70.14 9.02
14335 19.3320 75.48 70.46 8.75
14336 19.3330 73.48 70.80 8.59
14337 19.3340 74.42 71.16 8.64
14338 19.3350 69.46 71.55 8.38
14339 19.3360 73.52 71.96 8.65
14340 19.3370 82.28 72.41 9.09
14341 19.3380 64.43 72.89 7.97
14342 19.3390 67.72 73.40 8.20
14343 19.3400 68.38 73.96 8.33
14344 19.3410 69.84 74.56 8.43
14345 19.3420 60.55 75.21 7.81
14346 19.3430 66.06 75.92 8.15
14347 19.3440 66.43 76.70 8.17
14348 19.3450 66.49 77.54 8.19
14349 19.3460 78.21 78.46 8.89
14350 19.3470 78.62 79.50 8.85
14351 19.3480 87.77 80.64 9.33
14352 19.3490 90.40 81.91 9.51
14353 19.3500 88.74 83.33 9.50
14354 19.3510 83.54 84.92 9.28
14355 19.3520 90.39 86.72 9.61
14356 19.3530 92.86 88.77 9.68
14357 19.3540 89.79 91.14 9.48
14358 19.3550 114.97 93.89 10.76
14359 19.3560 97.84 97.15 9.94
14360 19.3570 79.99 101.07 8.95
14361 19.3580 125.13 105.86 11.15
14362 19.3590 125.47 111.78 11.18
14363 19.3600 131.38 119.20 11.57
14364 19.3610 119.02 128.55 11.06
14365 19.3620 140.72 140.27 11.90
14366 19.3630 156.47 154.91 12.50
14367 19.3640 177.66 172.90 13.30
14368 19.3650 179.65 194.65 13.38
14369 19.3660 224.59 220.19 15.04
14370 19.3670 235.72 248.98 15.36
14371 19.3680 276.48 279.68 16.58
14372 19.3690 285.55 309.35 16.81
14373 19.3700 328.74 333.60 18.27
14374 19.3710 355.45 347.66 19.02
14375 19.3720 307.02 348.43 17.55
14376 19.3730 354.04 336.33 18.76
14377 19.3740 346.77 315.01 18.65
14378 19.3750 262.33 289.23 16.22
14379 19.3760 258.42 263.34 16.20
14380 19.3770 258.30 239.93 16.12
14381 19.3780 225.05 220.47 15.00
14382 19.3790 217.92 205.49 14.76
14383 19.3800 203.02 195.14 14.31
14384 19.3810 205.39 189.39 14.40
14385 19.3820 195.59 188.15 14.00
14386 19.3830 190.33 191.46 13.80
14387 19.3840 233.77 199.46 15.32
14388 19.3850 197.46 212.50 14.12
14389 19.3860 224.60 231.16 15.06
14390 19.3870 290.88 255.93 17.07
14391 19.3880 283.01 287.47 16.75
14392 19.3890 333.21 326.26 18.17
14393 19.3900 402.26 371.73 20.09
14394 19.3910 369.90 422.53 19.44
14395 19.3920 452.90 475.75 21.36
14396 19.3930 533.42 527.27 23.11
14397 19.3940 590.01 573.47 24.37
14398 19.3950 658.71 612.69 25.74
14399 19.3960 703.29 643.64 26.60
14400 19.3970 726.97 663.20 27.00
14401 19.3980 717.21 665.75 26.64
14402 19.3990 649.29 646.41 25.54
14403 19.4000 612.07 605.01 24.95
14404 19.4010 474.22 547.84 22.02
14405 19.4020 445.57 483.58 21.21
14406 19.4030 416.91 419.65 20.53
14407 19.4040 383.15 361.31 19.54
14408 19.4050 296.79 310.53 17.19
14409 19.4060 284.84 267.68 16.91
14410 19.4070 244.21 232.62 15.68
14411 19.4080 202.15 204.33 14.22
14412 19.4090 220.60 181.73 14.85
14413 19.4100 165.84 163.82 13.04
14414 19.4110 167.68 149.65 13.11
14415 19.4120 137.48 138.35 11.76
14416 19.4130 136.75 129.25 11.71
14417 19.4140 121.95 121.84 11.01
14418 19.4150 123.99 115.69 11.10
14419 19.4160 123.79 110.52 11.18
14420 19.4170 107.88 106.10 10.39
14421 19.4180 105.56 102.29 10.28
14422 19.4190 109.67 98.98 10.47
14423 19.4200 105.37 96.05 10.38
14424 19.4210 92.80 93.48 9.76
14425 19.4220 96.91 91.19 9.89
14426 19.4230 88.24 89.14 9.43
14427 19.4240 80.45 87.30 8.97
14428 19.4250 99.09 85.64 9.99
14429 19.4260 93.91 84.15 9.76
14430 19.4270 86.95 82.79 9.36
14431 19.4280 72.73 81.55 8.53
14432 19.4290 67.82 80.43 8.22
14433 19.4300 76.63 79.40 8.82
14434 19.4310 79.45 78.45 9.01
14435 19.4320 87.43 77.58 9.36
14436 19.4330 80.91 76.78 9.01
14437 19.4340 64.50 76.04 8.05
14438 19.4350 87.47 75.35 9.38
14439 19.4360 82.10 74.72 9.16
14440 19.4370 81.46 74.13 9.03
14441 19.4380 73.73 73.57 8.54
14442 19.4390 64.65 73.06 8.02
14443 19.4400 66.79 72.58 8.20
14444 19.4410 80.66 72.13 9.05
14445 19.4420 75.47 71.71 8.75
14446 19.4430 58.77 71.32 7.69
14447 19.4440 65.75 70.95 8.10
14448 19.4450 71.22 70.60 8.51
14449 19.4460 66.76 70.27 8.20
14450 19.4470 57.32 69.96 7.56
14451 19.4480 72.04 69.66 8.44
14452 19.4490 66.89 69.39 8.12
14453 19.4500 69.16 69.12 8.40
14454 19.4510 66.82 68.88 8.28
14455 19.4520 62.76 68.64 7.97
14456 19.4530 58.24 68.42 7.67
14457 19.4540 64.15 68.20 8.03
14458 19.4550 67.57 68.00 8.23
14459 19.4560 68.15 67.81 8.29
14460 19.4570 71.12 67.62 8.42
14461 19.4580 61.09 67.45 7.79
14462 19.4590 67.33 67.28 8.20
14463 19.4600 63.34 67.12 8.03
14464 19.4610 63.34 66.97 8.05
14465 19.4620 63.23 66.82 8.01
14466 19.4630 64.79 66.68 8.05
14467 19.4640 62.22 66.55 7.86
14468 19.4650 64.07 66.42 7.98
14469 19.4660 57.44 66.30 7.59
14470 19.4670 62.95 66.18 7.95
14471 19.4680 62.01 66.07 7.84
14472 19.4690 72.57 65.96 8.52
14473 19.4700 74.28 65.85 8.66
14474 19.4710 63.17 65.75 8.01
14475 19.4720 66.53 65.65 8.19
14476 19.4730 58.38 65.56 7.60
14477 19.4740 60.02 65.47 7.76
14478 19.4750 78.66 65.38 8.91
14479 19.4760 90.04 65.30 9.58
14480 19.4770 58.59 65.22 7.68
14481 19.4780 73.02 65.14 8.55
14482 19.4790 60.80 65.07 7.80
14483 19.4800 53.71 64.99 7.35
14484 19.4810 65.88 64.92 8.17
14485 19.4820 75.31 64.86 8.71
14486 19.4830 75.91 64.79 8.73
14487 19.4840 63.86 64.73 8.04
14488 19.4850 55.24 64.66 7.46
14489 19.4860 60.56 64.60 7.85
14490 19.4870 67.68 64.55 8.23
14491 19.4880 53.93 64.49 7.33
14492 19.4890 68.95 64.43 8.26
14493 19.4900 59.83 64.38 7.79
14494 19.4910 57.74 64.33 7.69
14495 19.4920 74.36 64.28 8.69
14496 19.4930 61.35 64.23 7.84
14497 19.4940 60.41 64.18 7.77
14498 19.4950 58.19 64.20 7.63
14499 19.4960 61.86 64.16 7.87
14500 19.4970 67.72 64.11 8.21
14501 19.4980 68.18 64.07 8.23
14502 19.4990 68.26 64.16 8.27
14503 19.5000 66.79 64.12 8.28
14504 19.5010 68.21 64.09 8.37
14505 19.5020 82.07 64.05 9.12
14506 19.5030 72.41 64.01 8.53
14507 19.5040 73.04 63.98 8.52
14508 19.5050 71.39 63.95 8.47
14509 19.5060 63.20 63.91 7.99
14510 19.5070 58.93 63.88 7.71
14511 19.5080 71.81 63.85 8.51
14512 19.5090 63.43 63.82 7.97
14513 19.5100 59.63 63.79 7.78
14514 19.5110 74.07 63.76 8.72
14515 19.5120 67.15 63.73 8.25
14516 19.5130 79.61 63.70 8.91
14517 19.5140 63.49 63.68 7.94
14518 19.5150 60.13 63.65 7.74
14519 19.5160 70.84 63.63 8.46
14520 19.5170 60.12 63.60 7.76
14521 19.5180 69.10 63.58 8.31
14522 19.5190 73.37 63.55 8.55
14523 19.5200 79.25 63.53 8.99
14524 19.5210 74.93 63.51 8.71
14525 19.5220 60.80 63.49 7.85
14526 19.5230 58.43 63.46 7.67
14527 19.5240 70.22 63.44 8.42
14528 19.5250 57.23 63.42 7.63
14529 19.5260 69.64 63.40 8.43
14530 19.5270 70.80 63.38 8.46
14531 19.5280 69.07 63.36 8.30
14532 19.5290 77.91 63.34 8.79
14533 19.5300 60.51 63.33 7.83
14534 19.5310 70.90 63.31 8.52
14535 19.5320 77.21 63.29 8.83
14536 19.5330 61.16 63.27 7.87
14537 19.5340 52.11 63.26 7.27
14538 19.5350 73.66 63.24 8.63
14539 19.5360 71.27 63.22 8.48
14540 19.5370 56.98 63.21 7.56
14541 19.5380 63.05 63.19 7.91
14542 19.5390 62.85 63.18 7.92
14543 19.5400 65.95 63.16 8.18
14544 19.5410 63.54 63.15 8.07
14545 19.5420 65.80 63.13 8.16
14546 19.5430 52.33 63.12 7.26
14547 19.5440 62.66 63.10 7.92
14548 19.5450 68.03 63.09 8.29
14549 19.5460 50.66 63.08 7.15
14550 19.5470 70.35 63.06 8.39
14551 19.5480 61.74 63.05 7.86
14552 19.5490 60.87 63.04 7.83
14553 19.5500 69.75 63.03 8.42
14554 19.5510 77.58 63.02 8.93
14555 19.5520 54.34 63.00 7.42
14556 19.5530 65.84 62.99 8.10
14557 19.5540 55.78 62.98 7.47
14558 19.5550 67.17 62.97 8.23
14559 19.5560 58.09 62.96 7.67
14560 19.5570 74.81 62.95 8.67
14561 19.5580 57.06 62.94 7.57
14562 19.5590 69.39 62.93 8.38
14563 19.5600 53.41 62.92 7.37
14564 19.5610 55.56 62.91 7.54
14565 19.5620 71.05 62.90 8.46
14566 19.5630 63.91 62.89 8.00
14567 19.5640 61.83 62.88 7.84
14568 19.5650 62.89 62.87 7.96
14569 19.5660 65.83 62.86 8.15
14570 19.5670 65.10 62.85 8.10
14571 19.5680 65.51 62.85 8.09
14572 19.5690 57.06 62.84 7.57
14573 19.5700 73.13 62.83 8.63
14574 19.5710 60.69 62.82 7.89
14575 19.5720 57.94 62.81 7.68
14576 19.5730 69.28 62.81 8.34
14577 19.5740 61.54 62.80 7.90
14578 19.5750 56.86 62.79 7.62
14579 19.5760 69.85 62.78 8.48
14580 19.5770 52.10 62.78 7.27
14581 19.5780 63.96 62.77 7.95
14582 19.5790 68.97 62.76 8.30
14583 19.5800 62.21 62.76 7.96
14584 19.5810 60.73 62.75 7.89
14585 19.5820 60.28 62.74 7.82
14586 19.5830 69.36 62.74 8.38
14587 19.5840 76.07 62.73 8.75
14588 19.5850 63.47 62.73 8.02
14589 19.5860 57.37 62.72 7.63
14590 19.5870 54.96 62.71 7.40
14591 19.5880 60.60 62.71 7.74
14592 19.5890 58.37 62.70 7.64
14593 19.5900 62.45 62.70 7.95
14594 19.5910 63.43 62.69 8.08
14595 19.5920 64.92 62.69 8.13
14596 19.5930 65.84 62.68 8.14
14597 19.5940 68.89 62.68 8.29
14598 19.5950 56.38 62.67 7.56
14599 19.5960 62.41 62.67 7.94
14600 19.5970 55.89 62.66 7.48
14601 19.5980 54.32 62.66 7.37
14602 19.5990 73.59 62.66 8.62
14603 19.6000 74.82 62.65 8.74
14604 19.6010 63.70 62.65 8.08
14605 19.6020 71.15 62.64 8.48
14606 19.6030 59.11 62.64 7.71
14607 19.6040 69.01 62.64 8.31
14608 19.6050 60.69 62.63 7.84
14609 19.6060 63.68 62.63 8.05
14610 19.6070 67.11 62.63 8.24
14611 19.6080 69.07 62.62 8.33
14612 19.6090 48.96 62.62 7.02
14613 19.6100 69.35 62.62 8.39
14614 19.6110 69.38 62.61 8.42
14615 19.6120 56.28 62.61 7.52
14616 19.6130 77.15 62.61 8.79
14617 19.6140 64.34 62.60 7.99
14618 19.6150 60.72 62.60 7.86
14619 19.6160 59.01 62.60 7.73
14620 19.6170 66.70 62.60 8.20
14621 19.6180 59.46 62.59 7.71
14622 19.6190 61.01 62.59 7.83
14623 19.6200 71.05 62.59 8.50
14624 19.6210 74.08 62.59 8.72
14625 19.6220 62.59 62.59 7.93
14626 19.6230 65.32 62.59 8.12
14627 19.6240 56.85 62.58 7.58
14628 19.6250 67.20 62.58 8.28
14629 19.6260 71.63 62.58 8.53
14630 19.6270 54.98 62.58 7.43
14631 19.6280 64.81 62.58 8.03
14632 19.6290 65.66 62.58 8.10
14633 19.6300 70.95 62.58 8.47
14634 19.6310 60.18 62.58 7.84
14635 19.6320 78.05 62.57 8.89
14636 19.6330 71.06 62.57 8.47
14637 19.6340 65.83 62.57 8.15
14638 19.6350 56.41 62.57 7.56
14639 19.6360 56.34 62.57 7.57
14640 19.6370 66.23 62.57 8.15
14641 19.6380 79.72 62.57 8.90
14642 19.6390 82.21 62.57 9.11
14643 19.6400 68.44 62.57 8.35
14644 19.6410 59.53 62.57 7.84
14645 19.6420 59.68 62.57 7.77
14646 19.6430 56.38 62.57 7.56
14647 19.6440 49.90 62.57 7.08
14648 19.6450 73.63 62.58 8.65
14649 19.6460 60.31 62.58 7.79
14650 19.6470 73.85 62.58 8.63
14651 19.6480 62.97 62.58 7.95
14652 19.6490 60.76 62.58 7.83
14653 19.6500 65.83 62.58 8.20
14654 19.6510 71.29 62.58 8.56
14655 19.6520 59.23 62.58 7.75
14656 19.6530 62.77 62.59 7.95
14657 19.6540 59.63 62.59 7.72
14658 19.6550 59.09 62.59 7.71
14659 19.6560 68.91 62.59 8.39
14660 19.6570 68.27 62.59 8.31
14661 19.6580 61.19 62.60 7.82
14662 19.6590 55.35 62.60 7.46
14663 19.6600 60.36 62.60 7.83
14664 19.6610 66.63 62.60 8.26
14665 19.6620 65.79 62.61 8.11
14666 19.6630 56.12 62.61 7.50
14667 19.6640 70.79 62.61 8.42
14668 19.6650 61.33 62.62 7.87
14669 19.6660 66.62 62.62 8.22
14670 19.6670 60.23 62.63 7.78
14671 19.6680 75.23 62.63 8.67
14672 19.6690 69.10 62.63 8.31
14673 19.6700 49.27 62.64 7.05
14674 19.6710 60.70 62.64 7.86
14675 19.6720 79.44 62.65 8.97
14676 19.6730 70.77 62.65 8.46
14677 19.6740 69.12 62.66 8.34
14678 19.6750 58.38 62.66 7.72
14679 19.6760 59.47 62.67 7.77
14680 19.6770 68.38 62.67 8.30
14681 19.6780 67.78 62.68 8.19
14682 19.6790 59.67 62.68 7.71
14683 19.6800 59.16 62.69 7.75
14684 19.6810 51.87 62.70 7.28
14685 19.6820 46.44 62.70 6.87
14686 19.6830 49.11 62.71 7.03
14687 19.6840 57.59 62.72 7.61
14688 19.6850 61.94 62.72 7.90
14689 19.6860 61.61 62.73 7.89
14690 19.6870 62.92 62.74 7.93
14691 19.6880 54.47 62.75 7.36
14692 19.6890 60.07 62.76 7.75
14693 19.6900 52.28 62.76 7.28
14694 19.6910 56.57 62.77 7.60
14695 19.6920 57.63 62.78 7.65
14696 19.6930 67.95 62.79 8.25
14697 19.6940 72.86 62.80 8.51
14698 19.6950 61.27 62.81 7.83
14699 19.6960 53.13 62.82 7.31
14700 19.6970 52.80 62.83 7.28
14701 19.6980 63.80 62.84 8.00
14702 19.6990 60.94 62.85 7.84
14703 19.7000 52.30 62.86 7.35
14704 19.7010 50.77 62.88 7.26
14705 19.7020 62.92 62.89 7.97
14706 19.7030 60.46 62.90 7.79
14707 19.7040 69.51 62.91 8.32
14708 19.7050 53.85 62.93 7.34
14709 19.7060 65.34 62.94 8.14
14710 19.7070 72.92 62.95 8.56
14711 19.7080 62.16 62.97 7.87
14712 19.7090 59.34 62.98 7.74
14713 19.7100 66.27 63.00 8.21
14714 19.7110 48.73 63.01 7.07
14715 19.7120 66.45 63.03 8.18
14716 19.7130 55.88 63.04 7.47
14717 19.7140 53.72 63.02 7.33
14718 19.7150 63.28 63.02 7.99
14719 19.7160 69.28 63.04 8.38
14720 19.7170 52.62 63.06 7.26
14721 19.7180 60.95 63.08 7.79
14722 19.7190 73.30 63.10 8.54
14723 19.7200 65.38 63.12 8.13
14724 19.7210 53.61 63.14 7.40
14725 19.7220 57.15 63.16 7.61
14726 19.7230 69.50 63.18 8.37
14727 19.7240 51.34 63.21 7.22
14728 19.7250 50.77 63.23 7.19
14729 19.7260 51.09 63.25 7.21
14730 19.7270 68.02 63.28 8.25
14731 19.7280 53.01 63.31 7.28
14732 19.7290 55.72 63.33 7.46
14733 19.7300 73.14 63.36 8.60
14734 19.7310 60.40 63.39 7.86
14735 19.7320 74.41 63.42 8.66
14736 19.7330 62.09 63.45 7.89
14737 19.7340 62.72 63.48 7.95
14738 19.7350 67.90 63.51 8.28
14739 19.7360 61.09 63.50 7.88
14740 19.7370 61.81 63.53 7.89
14741 19.7380 69.31 63.56 8.30
14742 19.7390 65.70 63.60 8.11
14743 19.7400 61.23 63.64 7.88
14744 19.7410 47.01 63.63 6.94
14745 19.7420 59.58 63.61 7.77
14746 19.7430 72.39 63.66 8.53
14747 19.7440 62.09 63.70 7.87
14748 19.7450 61.42 63.74 7.88
14749 19.7460 52.11 63.79 7.25
14750 19.7470 65.63 63.83 8.15
14751 19.7480 70.97 63.88 8.45
14752 19.7490 62.24 63.93 7.92
14753 19.7500 63.18 63.98 8.04
14754 19.7510 67.12 64.04 8.30
14755 19.7520 54.66 64.09 7.44
14756 19.7530 69.59 64.15 8.35
14757 19.7540 62.62 64.21 7.92
14758 19.7550 60.25 64.27 7.79
14759 19.7560 66.19 64.33 8.19
14760 19.7570 64.50 64.40 8.07
14761 19.7580 57.08 64.47 7.58
14762 19.7590 54.08 64.54 7.37
14763 19.7600 58.67 64.61 7.74
14764 19.7610 51.70 64.68 7.28
14765 19.7620 57.47 64.76 7.61
14766 19.7630 67.26 64.84 8.21
14767 19.7640 68.00 64.93 8.25
14768 19.7650 62.37 65.02 7.93
14769 19.7660 54.13 65.11 7.41
14770 19.7670 76.22 65.20 8.77
14771 19.7680 67.35 65.30 8.22
14772 19.7690 79.25 65.40 8.91
14773 19.7700 59.21 65.51 7.75
14774 19.7710 58.20 65.62 7.73
14775 19.7720 60.10 65.74 7.81
14776 19.7730 65.29 65.86 8.15
14777 19.7740 67.19 65.99 8.25
14778 19.7750 67.89 66.12 8.33
14779 19.7760 55.57 66.26 7.52
14780 19.7770 62.69 66.40 7.97
14781 19.7780 80.36 66.55 8.95
14782 19.7790 77.44 66.71 8.80
14783 19.7800 55.38 66.87 7.50
14784 19.7810 58.14 67.05 7.74
14785 19.7820 63.49 67.23 8.03
14786 19.7830 64.54 67.42 8.06
14787 19.7840 66.49 67.62 8.17
14788 19.7850 54.67 67.83 7.44
14789 19.7860 63.55 68.05 8.01
14790 19.7870 64.03 68.28 7.96
14791 19.7880 54.95 68.53 7.38
14792 19.7890 65.06 68.79 8.06
14793 19.7900 60.48 69.06 7.80
14794 19.7910 72.03 69.35 8.57
14795 19.7920 70.69 69.66 8.47
14796 19.7930 70.11 69.98 8.38
14797 19.7940 66.22 70.32 8.17
14798 19.7950 67.18 70.69 8.20
14799 19.7960 70.62 71.08 8.48
14800 19.7970 79.12 71.49 8.91
14801 19.7980 67.31 71.93 8.22
14802 19.7990 63.12 72.39 8.02
14803 19.8000 75.67 72.89 8.82
14804 19.8010 51.08 73.42 7.26
14805 19.8020 72.23 74.00 8.56
14806 19.8030 65.47 74.61 8.09
14807 19.8040 77.29 75.27 8.78
14808 19.8050 79.54 75.97 8.97
14809 19.8060 64.14 76.74 8.05
14810 19.8070 75.86 77.56 8.74
14811 19.8080 76.44 78.45 8.73
14812 19.8090 77.28 79.42 8.81
14813 19.8100 63.48 80.47 8.05
14814 19.8110 71.02 81.62 8.51
14815 19.8120 62.22 82.87 7.92
14816 19.8130 65.76 84.24 8.13
14817 19.8140 77.38 85.74 8.81
14818 19.8150 94.59 87.40 9.74
14819 19.8160 89.53 89.22 9.53
14820 19.8170 99.53 91.25 10.01
14821 19.8180 109.87 93.50 10.45
14822 19.8190 114.79 96.01 10.69
14823 19.8200 108.28 98.83 10.46
14824 19.8210 103.94 102.00 10.33
14825 19.8220 120.47 105.59 11.07
14826 19.8230 102.00 109.70 10.09
14827 19.8240 104.66 114.41 10.27
14828 19.8250 142.23 119.87 11.98
14829 19.8260 122.89 126.29 11.18
14830 19.8270 146.73 133.96 12.07
14831 19.8280 160.93 143.17 12.62
14832 19.8290 151.15 154.44 12.30
14833 19.8300 193.98 168.36 13.99
14834 19.8310 200.37 185.66 14.27
14835 19.8320 220.23 207.32 14.90
14836 19.8330 244.00 234.33 15.66
14837 19.8340 311.45 267.94 17.65
14838 19.8350 320.13 309.29 17.94
14839 19.8360 358.86 359.24 19.03
14840 19.8370 408.10 418.36 20.09
14841 19.8380 478.25 485.82 21.81
14842 19.8390 535.94 558.92 23.10
14843 19.8400 609.99 633.15 24.89
14844 19.8410 724.42 703.08 27.19
14845 19.8420 845.44 763.58 29.25
14846 19.8430 830.53 812.12 28.96
14847 19.8440 914.82 845.73 30.36
14848 19.8450 899.39 858.43 30.10
14849 19.8460 848.50 843.50 29.45
14850 19.8470 776.41 798.30 27.93
14851 19.8480 712.18 728.74 26.62
14852 19.8490 606.92 645.83 24.76
14853 19.8500 514.53 560.48 22.95
14854 19.8510 432.98 480.48 21.04
14855 19.8520 447.44 409.75 21.27
14856 19.8530 356.55 349.65 18.89
14857 19.8540 302.04 299.77 17.35
14858 19.8550 254.12 259.23 16.02
14859 19.8560 247.59 226.79 15.86
14860 19.8570 221.25 201.00 14.89
14861 19.8580 205.19 180.49 14.33
14862 19.8590 166.23 164.25 12.87
14863 19.8600 166.44 151.25 13.00
14864 19.8610 148.65 140.67 12.33
14865 19.8620 128.40 132.01 11.39
14866 19.8630 148.35 124.77 12.16
14867 19.8640 106.97 118.63 10.32
14868 19.8650 137.39 113.37 11.77
14869 19.8660 114.55 108.82 10.77
14870 19.8670 107.38 104.84 10.36
14871 19.8680 117.89 101.33 10.83
14872 19.8690 95.84 98.24 9.77
14873 19.8700 109.94 95.48 10.56
14874 19.8710 95.77 93.01 9.86
14875 19.8720 88.42 90.79 9.45
14876 19.8730 79.32 88.80 8.93
14877 19.8740 78.76 87.00 8.94
14878 19.8750 85.84 85.37 9.33
14879 19.8760 72.74 83.88 8.59
14880 19.8770 72.63 82.53 8.57
14881 19.8780 80.87 81.29 8.98
14882 19.8790 82.12 80.16 9.04
14883 19.8800 70.34 79.21 8.46
14884 19.8810 63.82 78.25 8.11
14885 19.8820 72.70 77.36 8.57
14886 19.8830 69.98 76.55 8.39
14887 19.8840 65.98 75.79 8.16
14888 19.8850 80.18 75.28 9.00
14889 19.8860 85.78 74.62 9.32
14890 19.8870 75.28 74.01 8.66
14891 19.8880 67.64 73.45 8.23
14892 19.8890 76.90 72.91 8.76
14893 19.8900 62.33 72.42 7.96
14894 19.8910 57.95 71.95 7.71
14895 19.8920 66.84 71.51 8.19
14896 19.8930 57.86 71.10 7.63
14897 19.8940 65.80 70.72 8.12
14898 19.8950 61.22 70.35 7.88
14899 19.8960 64.63 70.01 8.10
14900 19.8970 75.84 69.68 8.74
14901 19.8980 74.81 69.38 8.68
14902 19.8990 60.46 69.09 7.82
14903 19.9000 61.04 68.81 7.91
14904 19.9010 57.99 68.55 7.74
14905 19.9020 62.10 68.31 7.93
14906 19.9030 67.18 68.07 8.18
14907 19.9040 56.21 67.85 7.52
14908 19.9050 65.96 67.64 8.16
14909 19.9060 67.48 67.44 8.29
14910 19.9070 56.53 67.25 7.54
14911 19.9080 69.10 67.06 8.29
14912 19.9090 61.81 66.89 7.89
14913 19.9100 55.23 66.72 7.51
14914 19.9110 51.31 66.56 7.24
14915 19.9120 66.04 66.41 8.15
14916 19.9130 65.49 66.26 8.12
14917 19.9140 59.43 66.12 7.73
14918 19.9150 63.88 65.99 8.02
14919 19.9160 62.06 65.86 7.94
14920 19.9170 58.84 65.74 7.68
14921 19.9180 70.71 65.62 8.39
14922 19.9190 60.25 65.51 7.77
14923 19.9200 75.35 65.40 8.72
14924 19.9210 64.55 65.29 8.13
14925 19.9220 80.75 65.19 9.06
14926 19.9230 65.76 65.10 8.17
14927 19.9240 57.81 65.00 7.64
14928 19.9250 56.40 64.91 7.60
14929 19.9260 57.38 64.83 7.64
14930 19.9270 47.79 64.74 6.92
14931 19.9280 61.42 64.66 7.80
14932 19.9290 63.91 64.59 7.99
14933 19.9300 58.95 64.51 7.75
14934 19.9310 56.25 64.44 7.61
14935 19.9320 60.08 64.37 7.79
14936 19.9330 52.87 64.30 7.30
14937 19.9340 52.39 64.24 7.26
14938 19.9350 61.44 64.17 7.89
14939 19.9360 53.24 64.11 7.34
14940 19.9370 70.39 64.05 8.41
14941 19.9380 57.33 64.00 7.54
14942 19.9390 63.33 63.94 7.93
14943 19.9400 55.53 63.89 7.50
14944 19.9410 68.04 63.84 8.31
14945 19.9420 67.94 63.79 8.29
14946 19.9430 63.60 63.74 7.98
14947 19.9440 77.53 63.69 8.78
14948 19.9450 48.56 63.65 7.02
14949 19.9460 64.44 63.60 8.11
14950 19.9470 55.60 63.56 7.51
14951 19.9480 60.83 63.52 7.82
14952 19.9490 58.98 63.48 7.72
14953 19.9500 56.32 63.44 7.60
14954 19.9510 52.21 63.40 7.34
14955 19.9520 54.93 63.36 7.45
14956 19.9530 69.68 63.33 8.38
14957 19.9540 61.93 63.29 7.91
14958 19.9550 61.01 63.26 7.86
14959 19.9560 73.79 63.23 8.64
14960 19.9570 49.12 63.19 7.03
14961 19.9580 51.23 63.16 7.16
14962 19.9590 54.08 63.13 7.34
14963 19.9600 61.09 63.10 7.88
14964 19.9610 50.18 63.08 7.17
14965 19.9620 56.81 63.05 7.58
14966 19.9630 62.05 63.02 7.87
14967 19.9640 69.07 63.00 8.31
14968 19.9650 68.21 62.97 8.28
14969 19.9660 61.13 62.95 7.86
14970 19.9670 48.62 62.92 7.00
14971 19.9680 48.66 62.90 7.01
14972 19.9690 63.49 62.88 7.99
14973 19.9700 46.86 62.85 6.93
14974 19.9710 70.04 62.83 8.48
14975 19.9720 60.34 62.81 7.83
14976 19.9730 44.09 62.79 6.69
14977 19.9740 58.66 62.77 7.70
14978 19.9750 55.73 62.75 7.56
14979 19.9760 60.72 62.73 7.83
14980 19.9770 63.88 62.71 8.01
14981 19.9780 67.01 62.70 8.20
14982 19.9790 63.18 62.68 7.96
14983 19.9800 59.34 62.66 7.78
14984 19.9810 44.77 62.65 6.79
14985 19.9820 55.82 62.63 7.54
14986 19.9830 45.63 62.61 6.78
14987 19.9840 55.38 62.60 7.45
14988 19.9850 56.29 62.59 7.55
14989 19.9860 65.06 62.57 8.14
14990 19.9870 47.32 62.56 6.88
14991 19.9880 61.43 62.54 7.80
14992 19.9890 63.40 62.53 7.92
14993 19.9900 70.00 62.52 8.46
14994 19.9910 60.54 62.51 7.85
14995 19.9920 58.08 62.49 7.69
14996 19.9930 66.46 62.48 8.19
14997 19.9940 53.68 62.47 7.35
14998 19.9950 61.77 62.46 7.94
14999 19.9960 55.91 62.45 7.55
15000 19.9970 52.59 62.44 7.30
15001 19.9980 61.52 62.43 7.88
15002 19.9990 54.63 62.42 7.43
15003 20.0000 66.15 62.41 8.22
15004 20.0010 59.22 62.40 7.82
15005 20.0020 49.99 62.39 7.14
15006 20.0030 62.09 62.39 7.93
15007 20.0040 64.58 62.38 8.03
15008 20.0050 55.09 62.37 7.48
15009 20.0060 55.71 62.36 7.53
15010 20.0070 70.13 62.36 8.41
15011 20.0080 66.60 62.35 8.17
15012 20.0090 60.59 62.34 7.80
15013 20.0100 54.68 62.34 7.48
15014 20.0110 51.30 62.33 7.27
15015 20.0120 53.76 62.33 7.39
15016 20.0130 61.92 62.32 7.87
15017 20.0140 67.88 62.32 8.25
15018 20.0150 57.65 62.31 7.65
15019 20.0160 60.87 62.31 7.85
15020 20.0170 67.05 62.30 8.21
15021 20.0180 66.75 62.30 8.15
15022 20.0190 62.39 62.29 7.89
15023 20.0200 59.35 62.29 7.78
15024 20.0210 61.08 62.29 7.94
15025 20.0220 52.53 62.28 7.33
15026 20.0230 48.24 62.28 7.01
15027 20.0240 50.50 62.28 7.16
15028 20.0250 60.75 62.28 7.82
15029 20.0260 54.72 62.28 7.46
15030 20.0270 52.49 62.27 7.27
15031 20.0280 63.47 62.27 7.95
15032 20.0290 58.27 62.27 7.60
15033 20.0300 74.55 62.27 8.70
15034 20.0310 55.38 62.27 7.54
15035 20.0320 67.51 62.27 8.26
15036 20.0330 46.97 62.27 6.86
15037 20.0340 53.67 62.27 7.34
15038 20.0350 52.03 62.27 7.26
15039 20.0360 60.49 62.27 7.85
15040 20.0370 53.91 62.27 7.34
15041 20.0380 50.71 62.27 7.14
15042 20.0390 58.49 62.27 7.62
15043 20.0400 59.18 62.28 7.76
15044 20.0410 66.11 62.28 8.22
15045 20.0420 60.85 62.28 7.84
15046 20.0430 62.25 62.28 7.91
15047 20.0440 56.51 62.29 7.53
15048 20.0450 58.44 62.29 7.73
15049 20.0460 60.53 62.29 7.86
15050 20.0470 64.18 62.30 8.07
15051 20.0480 46.06 62.30 6.82
15052 20.0490 62.15 62.30 7.89
15053 20.0500 55.60 62.31 7.54
15054 20.0510 54.75 62.31 7.49
15055 20.0520 67.99 62.32 8.28
15056 20.0530 58.31 62.32 7.66
15057 20.0540 70.60 62.33 8.42
15058 20.0550 61.08 62.34 7.87
15059 20.0560 52.19 62.34 7.26
15060 20.0570 55.91 62.35 7.49
15061 20.0580 47.46 62.36 6.89
15062 20.0590 61.85 62.36 7.86
15063 20.0600 61.79 62.37 7.92
15064 20.0610 54.19 62.38 7.47
15065 20.0620 65.65 62.39 8.18
15066 20.0630 53.49 62.40 7.34
15067 20.0640 64.64 62.41 8.06
15068 20.0650 63.95 62.42 8.01
15069 20.0660 54.77 62.43 7.48
15070 20.0670 58.37 62.44 7.65
15071 20.0680 43.88 62.45 6.64
15072 20.0690 42.01 62.46 6.51
15073 20.0700 43.28 62.47 6.66
15074 20.0710 53.32 62.48 7.41
15075 20.0720 52.02 62.50 7.27
15076 20.0730 68.42 62.51 8.32
15077 20.0740 54.11 62.52 7.38
15078 20.0750 55.66 62.54 7.50
15079 20.0760 52.27 62.55 7.27
15080 20.0770 64.84 62.57 8.06
15081 20.0780 52.81 62.58 7.26
15082 20.0790 59.35 62.60 7.70
15083 20.0800 52.60 62.62 7.32
15084 20.0810 49.45 62.63 7.10
15085 20.0820 53.49 62.65 7.36
15086 20.0830 55.68 62.67 7.47
15087 20.0840 49.51 62.69 7.07
15088 20.0850 58.35 62.71 7.69
15089 20.0860 55.79 62.73 7.52
15090 20.0870 54.57 62.75 7.40
15091 20.0880 54.19 62.77 7.35
15092 20.0890 53.07 62.80 7.26
15093 20.0900 62.05 62.82 7.94
15094 20.0910 58.13 62.85 7.69
15095 20.0920 56.49 62.87 7.54
15096 20.0930 58.03 62.90 7.61
15097 20.0940 51.05 62.93 7.16
15098 20.0950 50.48 62.95 7.17
15099 20.0960 57.74 62.98 7.68
15100 20.0970 59.27 63.01 7.72
15101 20.0980 53.36 63.05 7.31
15102 20.0990 50.02 63.08 7.11
15103 20.1000 57.20 63.11 7.61
15104 20.1010 52.35 63.15 7.31
15105 20.1020 64.44 63.19 8.07
15106 20.1030 56.10 63.23 7.49
15107 20.1040 65.17 63.27 8.07
15108 20.1050 66.34 63.31 8.16
15109 20.1060 64.19 63.36 8.08
15110 20.1070 54.56 63.40 7.38
15111 20.1080 59.03 63.45 7.66
15112 20.1090 50.15 63.50 7.08
15113 20.1100 65.88 63.56 8.16
15114 20.1110 54.08 63.61 7.42
15115 20.1120 59.28 63.67 7.70
15116 20.1130 54.02 63.74 7.36
15117 20.1140 58.51 63.80 7.64
15118 20.1150 62.40 63.88 7.94
15119 20.1160 58.76 63.95 7.69
15120 20.1170 67.55 64.03 8.21
15121 20.1180 55.50 64.12 7.42
15122 20.1190 62.78 64.21 7.92
15123 20.1200 73.76 64.31 8.62
15124 20.1210 50.78 64.41 7.24
15125 20.1220 56.27 64.53 7.56
15126 20.1230 56.23 64.65 7.53
15127 20.1240 54.42 64.79 7.41
15128 20.1250 56.44 64.94 7.56
15129 20.1260 63.45 65.11 7.96
15130 20.1270 62.63 65.29 7.92
15131 20.1280 47.50 65.50 6.87
15132 20.1290 60.74 65.75 7.76
15133 20.1300 51.13 66.03 7.19
15134 20.1310 57.85 66.35 7.66
15135 20.1320 67.79 66.75 8.23
15136 20.1330 53.08 67.23 7.31
15137 20.1340 73.39 67.83 8.54
15138 20.1350 57.73 68.56 7.64
15139 20.1360 51.28 69.48 7.22
15140 20.1370 51.74 70.61 7.19
15141 20.1380 54.86 72.00 7.36
15142 20.1390 64.21 73.66 8.00
15143 20.1400 63.08 75.61 7.96
15144 20.1410 70.38 77.82 8.46
15145 20.1420 55.92 80.19 7.49
15146 20.1430 77.68 82.54 8.77
15147 20.1440 62.14 84.52 7.90
15148 20.1450 81.48 85.76 9.07
15149 20.1460 66.07 85.95 8.18
15150 20.1470 70.31 85.07 8.42
15151 20.1480 73.75 83.38 8.59
15152 20.1490 71.80 81.28 8.49
15153 20.1500 67.90 79.09 8.30
15154 20.1510 68.66 77.05 8.35
15155 20.1520 69.23 75.26 8.34
15156 20.1530 64.36 73.75 8.04
15157 20.1540 63.03 72.53 7.94
15158 20.1550 52.44 71.57 7.28
15159 20.1560 71.72 70.83 8.50
15160 20.1570 68.33 70.29 8.28
15161 20.1580 60.61 69.90 7.77
15162 20.1590 60.67 69.62 7.77
15163 20.1600 64.19 69.45 8.05
15164 20.1610 49.41 69.34 7.12
15165 20.1620 67.92 69.30 8.23
15166 20.1630 79.94 69.30 8.93
15167 20.1640 55.43 69.34 7.44
15168 20.1650 60.97 69.41 7.81
15169 20.1660 52.72 69.51 7.30
15170 20.1670 56.63 69.64 7.53
15171 20.1680 62.48 69.79 7.86
15172 20.1690 72.09 69.96 8.51
15173 20.1700 68.42 70.15 8.36
15174 20.1710 70.14 70.36 8.52
15175 20.1720 67.51 70.60 8.30
15176 20.1730 63.04 70.85 7.97
15177 20.1740 66.49 71.12 8.18
15178 20.1750 72.86 71.42 8.59
15179 20.1760 58.75 71.73 7.71
15180 20.1770 65.63 72.07 8.10
15181 20.1780 66.99 72.44 8.17
15182 20.1790 57.33 72.82 7.59
15183 20.1800 69.50 73.23 8.38
15184 20.1810 61.51 73.67 7.91
15185 20.1820 59.28 74.14 7.73
15186 20.1830 65.81 74.64 8.10
15187 20.1840 58.82 75.17 7.66
15188 20.1850 69.99 75.74 8.35
15189 20.1860 62.18 76.35 7.93
15190 20.1870 77.81 76.99 8.84
15191 20.1880 71.75 77.69 8.43
15192 20.1890 63.78 78.37 7.98
15193 20.1900 77.48 79.16 8.85
15194 20.1910 80.38 80.01 9.07
15195 20.1920 70.82 80.93 8.45
15196 20.1930 76.95 81.91 8.78
15197 20.1940 82.62 82.84 9.12
15198 20.1950 99.03 83.98 10.03
15199 20.1960 70.84 85.21 8.52
15200 20.1970 83.35 86.55 9.16
15201 20.1980 67.56 88.00 8.21
15202 20.1990 78.47 89.57 8.88
15203 20.2000 71.20 91.28 8.51
15204 20.2010 79.68 93.16 9.04
15205 20.2020 85.01 95.20 9.23
15206 20.2030 82.29 97.45 9.11
15207 20.2040 95.49 99.92 9.77
15208 20.2050 81.01 102.65 8.99
15209 20.2060 96.18 105.66 9.88
15210 20.2070 110.92 109.01 10.54
15211 20.2080 120.33 112.74 10.90
15212 20.2090 120.77 116.93 10.94
15213 20.2100 128.40 121.62 11.42
15214 20.2110 124.62 126.93 11.29
15215 20.2120 124.39 132.98 11.23
15216 20.2130 134.40 139.90 11.53
15217 20.2140 143.13 147.90 11.94
15218 20.2150 160.70 157.28 12.66
15219 20.2160 175.42 168.38 13.26
15220 20.2170 188.33 181.67 13.71
15221 20.2180 222.51 197.84 14.83
15222 20.2190 264.13 217.73 16.30
15223 20.2200 263.39 242.35 16.38
15224 20.2210 290.46 273.11 17.28
15225 20.2220 305.90 311.49 17.65
15226 20.2230 364.47 359.13 19.09
15227 20.2240 396.92 417.96 19.87
15228 20.2250 460.02 489.38 21.41
15229 20.2260 525.89 574.60 22.95
15230 20.2270 679.26 673.17 26.07
15231 20.2280 734.56 782.14 27.02
15232 20.2290 837.62 896.21 28.93
15233 20.2300 1014.41 1006.11 32.07
15234 20.2310 1078.77 1103.72 33.20
15235 20.2320 1160.07 1183.04 34.10
15236 20.2330 1232.58 1239.76 35.18
15237 20.2340 1324.08 1266.80 36.43
15238 20.2350 1292.31 1255.20 36.12
15239 20.2360 1179.34 1199.36 34.50
15240 20.2370 1115.27 1104.36 33.46
15241 20.2380 930.31 984.38 30.38
15242 20.2390 846.55 856.60 28.97
15243 20.2400 750.27 733.52 27.50
15244 20.2410 588.68 622.74 24.41
15245 20.2420 471.62 527.37 21.72
15246 20.2430 435.99 447.38 20.94
15247 20.2440 391.67 381.82 19.81
15248 20.2450 362.36 328.97 19.22
15249 20.2460 317.38 286.71 17.96
15250 20.2470 277.53 252.99 16.67
15251 20.2480 215.52 226.26 14.66
15252 20.2490 189.32 204.85 13.71
15253 20.2500 172.50 187.49 13.18
15254 20.2510 197.82 173.32 14.21
15255 20.2520 164.04 161.55 12.84
15256 20.2530 154.03 151.60 12.39
15257 20.2540 151.16 143.11 12.25
15258 20.2550 155.46 135.77 12.42
15259 20.2560 139.08 129.39 11.77
15260 20.2570 121.10 123.77 10.96
15261 20.2580 112.53 118.81 10.54
15262 20.2590 112.23 114.41 10.55
15263 20.2600 98.17 110.48 9.93
15264 20.2610 88.58 106.94 9.50
15265 20.2620 84.43 103.77 9.23
15266 20.2630 94.31 100.91 9.69
15267 20.2640 82.47 98.30 9.07
15268 20.2650 86.97 95.95 9.34
15269 20.2660 84.73 93.80 9.21
15270 20.2670 84.27 91.83 9.18
15271 20.2680 85.44 90.03 9.23
15272 20.2690 73.90 88.38 8.60
15273 20.2700 60.45 86.86 7.87
15274 20.2710 62.74 85.46 8.04
15275 20.2720 60.22 84.16 7.85
15276 20.2730 67.41 82.96 8.20
15277 20.2740 76.02 81.85 8.71
15278 20.2750 82.64 80.81 9.10
15279 20.2760 60.29 79.85 7.80
15280 20.2770 62.50 78.95 7.90
15281 20.2780 68.98 78.11 8.30
15282 20.2790 83.27 77.32 9.08
15283 20.2800 72.47 76.59 8.51
15284 20.2810 60.02 75.89 7.80
15285 20.2820 66.30 75.24 8.15
15286 20.2830 65.54 74.63 8.10
15287 20.2840 45.05 74.06 6.73
15288 20.2850 72.71 73.51 8.57
15289 20.2860 60.22 73.00 7.83
15290 20.2870 60.04 72.52 7.78
15291 20.2880 49.79 72.06 7.04
15292 20.2890 50.93 71.63 7.10
15293 20.2900 66.29 71.21 8.17
15294 20.2910 65.24 70.83 8.15
15295 20.2920 80.82 70.45 9.02
15296 20.2930 56.56 70.10 7.55
15297 20.2940 49.49 69.77 7.07
15298 20.2950 65.50 69.45 8.17
15299 20.2960 70.00 69.14 8.40
15300 20.2970 52.91 68.85 7.31
15301 20.2980 56.65 68.58 7.49
15302 20.2990 64.44 68.31 7.98
15303 20.3000 46.74 68.06 6.87
15304 20.3010 57.46 67.82 7.64
15305 20.3020 63.38 67.58 7.98
15306 20.3030 50.92 67.36 7.14
15307 20.3040 59.28 67.15 7.67
15308 20.3050 64.27 66.95 8.01
15309 20.3060 67.19 66.75 8.22
15310 20.3070 52.19 66.56 7.21
15311 20.3080 68.30 66.38 8.23
15312 20.3090 51.21 66.21 7.14
15313 20.3100 50.91 66.04 7.17
15314 20.3110 60.49 65.88 7.86
15315 20.3120 53.89 65.73 7.39
15316 20.3130 48.47 65.58 6.95
15317 20.3140 56.92 65.43 7.50
15318 20.3150 53.21 65.30 7.33
15319 20.3160 52.66 65.16 7.28
15320 20.3170 60.95 65.03 7.80
15321 20.3180 57.88 64.91 7.61
15322 20.3190 65.43 64.79 8.10
15323 20.3200 58.42 64.67 7.72
15324 20.3210 61.54 64.56 7.95
15325 20.3220 52.21 64.45 7.26
15326 20.3230 66.47 64.35 8.14
15327 20.3240 48.53 64.24 6.97
15328 20.3250 52.33 64.15 7.25
15329 20.3260 65.40 64.05 8.10
15330 20.3270 43.64 63.96 6.61
15331 20.3280 50.75 63.87 7.11
15332 20.3290 50.72 63.78 7.09
15333 20.3300 59.42 63.70 7.73
15334 20.3310 54.64 63.61 7.45
15335 20.3320 54.16 63.53 7.37
15336 20.3330 49.37 63.46 7.03
15337 20.3340 53.28 63.38 7.31
15338 20.3350 50.07 63.31 7.10
15339 20.3360 39.83 63.24 6.34
15340 20.3370 61.68 63.17 7.84
15341 20.3380 51.64 63.10 7.16
15342 20.3390 49.41 63.04 7.01
15343 20.3400 65.04 62.97 8.09
15344 20.3410 51.13 62.91 7.22
15345 20.3420 52.79 62.85 7.32
15346 20.3430 49.69 62.79 7.10
15347 20.3440 51.41 62.73 7.19
15348 20.3450 56.28 62.68 7.56
15349 20.3460 32.99 62.62 5.81
15350 20.3470 48.46 62.57 6.97
15351 20.3480 45.16 62.52 6.70
15352 20.3490 48.26 62.47 6.93
15353 20.3500 54.23 62.42 7.41
15354 20.3510 56.07 62.37 7.56
15355 20.3520 57.55 62.32 7.62
15356 20.3530 57.83 62.28 7.58
15357 20.3540 56.21 62.23 7.47
15358 20.3550 52.26 62.19 7.23
15359 20.3560 48.18 62.15 6.97
15360 20.3570 53.97 62.11 7.33
15361 20.3580 55.22 62.06 7.41
15362 20.3590 55.55 62.02 7.45
15363 20.3600 56.54 61.99 7.55
15364 20.3610 51.87 61.95 7.28
15365 20.3620 49.69 61.91 7.06
15366 20.3630 55.78 61.87 7.43
15367 20.3640 61.79 61.84 7.82
15368 20.3650 55.30 61.80 7.45
15369 20.3660 56.18 61.77 7.53
15370 20.3670 57.36 61.73 7.59
15371 20.3680 61.40 61.70 7.82
15372 20.3690 57.55 61.67 7.61
15373 20.3700 53.45 61.64 7.39
15374 20.3710 45.36 61.60 6.82
15375 20.3720 63.50 61.57 8.01
15376 20.3730 75.41 61.54 8.66
15377 20.3740 70.92 61.51 8.41
15378 20.3750 35.81 61.49 6.03
15379 20.3760 52.27 61.46 7.26
15380 20.3770 50.65 61.43 7.11
15381 20.3780 49.40 61.40 7.00
15382 20.3790 54.36 61.38 7.35
15383 20.3800 57.12 61.35 7.57
15384 20.3810 56.61 61.32 7.57
15385 20.3820 41.67 61.30 6.49
15386 20.3830 41.65 61.27 6.43
15387 20.3840 52.62 61.25 7.25
15388 20.3850 50.99 61.22 7.15
15389 20.3860 54.27 61.20 7.41
15390 20.3870 54.54 61.18 7.37
15391 20.3880 63.98 61.15 7.94
15392 20.3890 61.04 61.13 7.78
15393 20.3900 64.23 61.11 8.07
15394 20.3910 46.01 61.09 6.87
15395 20.3920 69.51 61.07 8.39
15396 20.3930 60.38 61.05 7.81
15397 20.3940 51.76 61.02 7.24
15398 20.3950 50.58 61.00 7.17
15399 20.3960 48.09 60.98 6.98
15400 20.3970 46.15 60.96 6.78
15401 20.3980 33.31 60.94 5.77
15402 20.3990 61.24 60.93 7.81
15403 20.4000 67.58 60.91 8.27
15404 20.4010 54.80 60.89 7.48
15405 20.4020 41.70 60.87 6.48
15406 20.4030 51.06 60.85 7.14
15407 20.4040 43.59 60.83 6.57
15408 20.4050 51.10 60.82 7.13
15409 20.4060 48.88 60.80 7.02
15410 20.4070 52.22 60.78 7.23
15411 20.4080 44.71 60.76 6.66
15412 20.4090 57.45 60.75 7.58
15413 20.4100 55.67 60.73 7.49
15414 20.4110 59.16 60.71 7.77
15415 20.4120 34.00 60.70 5.86
15416 20.4130 49.84 60.68 7.03
15417 20.4140 51.93 60.67 7.22
15418 20.4150 46.67 60.65 6.85
15419 20.4160 57.47 60.64 7.65
15420 20.4170 49.14 60.62 7.04
15421 20.4180 51.78 60.61 7.20
15422 20.4190 50.56 60.59 7.13
15423 20.4200 57.83 60.58 7.67
15424 20.4210 53.29 60.56 7.40
15425 20.4220 44.75 60.55 6.72
15426 20.4230 54.13 60.54 7.38
15427 20.4240 49.04 60.52 7.00
15428 20.4250 48.44 60.51 6.96
15429 20.4260 52.44 60.50 7.29
15430 20.4270 53.99 60.48 7.33
15431 20.4280 39.21 60.47 6.24
15432 20.4290 43.27 60.46 6.56
15433 20.4300 40.19 60.44 6.37
15434 20.4310 69.55 60.43 8.43
15435 20.4320 55.22 60.42 7.46
15436 20.4330 49.47 60.41 7.05
15437 20.4340 60.85 60.39 7.79
15438 20.4350 49.31 60.38 7.08
15439 20.4360 56.30 60.37 7.53
15440 20.4370 52.04 60.36 7.20
15441 20.4380 52.45 60.35 7.19
15442 20.4390 45.03 60.33 6.69
15443 20.4400 60.33 60.32 7.81
15444 20.4410 49.73 60.31 7.15
15445 20.4420 44.59 60.30 6.72
15446 20.4430 67.64 60.29 8.27
15447 20.4440 60.31 60.28 7.82
15448 20.4450 59.50 60.27 7.76
15449 20.4460 55.75 60.26 7.50
15450 20.4470 52.34 60.24 7.25
15451 20.4480 40.63 60.23 6.36
15452 20.4490 38.63 60.22 6.24
15453 20.4500 42.50 60.21 6.56
15454 20.4510 53.81 60.20 7.41
15455 20.4520 58.15 60.19 7.66
15456 20.4530 53.41 60.18 7.28
15457 20.4540 50.48 60.17 7.08
15458 20.4550 42.85 60.16 6.57
15459 20.4560 67.83 60.15 8.26
15460 20.4570 46.01 60.14 6.79
15461 20.4580 55.20 60.13 7.42
15462 20.4590 67.07 60.12 8.18
15463 20.4600 44.42 60.11 6.71
15464 20.4610 52.55 60.10 7.33
15465 20.4620 52.54 60.10 7.27
15466 20.4630 47.84 60.09 6.92
15467 20.4640 60.36 60.08 7.79
15468 20.4650 47.39 60.07 6.93
15469 20.4660 51.13 60.06 7.22
15470 20.4670 64.99 60.05 8.13
15471 20.4680 55.55 60.04 7.48
15472 20.4690 51.02 60.03 7.17
15473 20.4700 58.89 60.02 7.74
15474 20.4710 50.23 60.01 7.16
15475 20.4720 52.31 60.01 7.26
15476 20.4730 52.79 60.00 7.30
15477 20.4740 58.97 59.99 7.68
15478 20.4750 50.53 59.98 7.15
15479 20.4760 42.26 59.97 6.54
15480 20.4770 41.51 59.96 6.43
15481 20.4780 44.98 59.95 6.69
15482 20.4790 53.12 59.95 7.24
15483 20.4800 65.48 59.94 8.12
15484 20.4810 55.18 59.93 7.48
15485 20.4820 49.56 59.92 7.11
15486 20.4830 49.48 59.91 7.06
15487 20.4840 50.66 59.91 7.14
15488 20.4850 52.74 59.90 7.30
15489 20.4860 54.24 59.89 7.40
15490 20.4870 44.35 59.88 6.65
15491 20.4880 54.38 59.88 7.37
15492 20.4890 54.09 59.87 7.34
15493 20.4900 49.04 59.86 7.07
15494 20.4910 47.94 59.85 7.04
15495 20.4920 46.49 59.84 6.90
15496 20.4930 59.69 59.84 7.77
15497 20.4940 53.17 59.83 7.34
15498 20.4950 58.36 59.82 7.67
15499 20.4960 50.45 59.81 7.14
15500 20.4970 45.51 59.80 6.73
15501 20.4980 48.41 59.80 6.95
15502 20.4990 42.81 59.79 6.56
15503 20.5000 40.75 59.78 6.43
15504 20.5010 61.48 59.78 7.93
15505 20.5020 52.93 59.77 7.29
15506 20.5030 47.09 59.76 6.86
15507 20.5040 41.23 59.76 6.41
15508 20.5050 59.08 59.75 7.72
15509 20.5060 53.15 59.74 7.34
15510 20.5070 50.32 59.73 7.11
15511 20.5080 49.21 59.73 7.01
15512 20.5090 38.76 59.72 6.23
15513 20.5100 43.18 59.71 6.62
15514 20.5110 59.51 59.71 7.79
15515 20.5120 46.13 59.70 6.80
15516 20.5130 56.77 59.69 7.49
15517 20.5140 49.23 59.69 7.02
15518 20.5150 63.68 59.68 8.04
15519 20.5160 46.59 59.67 6.91
15520 20.5170 52.51 59.67 7.29
15521 20.5180 52.05 59.66 7.27
15522 20.5190 43.26 59.65 6.62
15523 20.5200 54.30 59.65 7.44
15524 20.5210 56.76 59.64 7.60
15525 20.5220 51.13 59.64 7.17
15526 20.5230 49.55 59.63 7.06
15527 20.5240 43.94 59.62 6.66
15528 20.5250 45.40 59.62 6.78
15529 20.5260 44.59 59.61 6.72
15530 20.5270 59.74 59.60 7.72
15531 20.5280 43.62 59.60 6.58
15532 20.5290 42.84 59.59 6.51
15533 20.5300 45.97 59.59 6.83
15534 20.5310 51.27 59.58 7.22
15535 20.5320 52.05 59.57 7.26
15536 20.5330 46.93 59.57 6.89
15537 20.5340 68.28 59.56 8.27
15538 20.5350 49.52 59.56 7.05
15539 20.5360 41.83 59.55 6.49
15540 20.5370 44.00 59.54 6.63
15541 20.5380 57.06 59.54 7.50
15542 20.5390 53.84 59.53 7.34
15543 20.5400 42.23 59.53 6.58
15544 20.5410 49.13 59.52 7.14
15545 20.5420 55.30 59.51 7.54
15546 20.5430 46.30 59.51 6.86
15547 20.5440 37.88 59.50 6.18
15548 20.5450 51.38 59.50 7.22
15549 20.5460 49.45 59.49 7.05
15550 20.5470 46.46 59.49 6.83
15551 20.5480 47.66 59.48 6.91
15552 20.5490 42.37 59.47 6.53
15553 20.5500 49.13 59.47 7.07
15554 20.5510 52.66 59.46 7.32
15555 20.5520 42.68 59.46 6.57
15556 20.5530 50.22 59.45 7.07
15557 20.5540 55.20 59.45 7.40
15558 20.5550 47.50 59.44 6.89
15559 20.5560 52.26 59.43 7.27
15560 20.5570 48.43 59.43 6.99
15561 20.5580 38.50 59.42 6.23
15562 20.5590 39.98 59.42 6.34
15563 20.5600 54.07 59.41 7.42
15564 20.5610 50.64 59.41 7.17
15565 20.5620 50.37 59.40 7.12
15566 20.5630 37.49 59.40 6.12
15567 20.5640 38.61 59.39 6.23
15568 20.5650 57.53 59.39 7.67
15569 20.5660 38.31 59.38 6.29
15570 20.5670 60.89 59.37 7.87
15571 20.5680 50.87 59.37 7.13
15572 20.5690 46.44 59.36 6.85
15573 20.5700 47.26 59.45 6.94
15574 20.5710 46.00 59.44 6.87
15575 20.5720 46.95 59.44 6.90
15576 20.5730 41.52 59.43 6.48
15577 20.5740 53.51 59.52 7.33
15578 20.5750 46.11 59.60 6.84
15579 20.5760 51.54 59.60 7.21
15580 20.5770 37.19 59.59 6.11
15581 20.5780 44.55 59.59 6.65
15582 20.5790 44.41 59.59 6.66
15583 20.5800 43.27 59.58 6.60
15584 20.5810 51.73 59.58 7.30
15585 20.5820 51.76 59.48 7.25
15586 20.5830 48.08 59.48 6.97
15587 20.5840 47.12 59.47 6.90
15588 20.5850 41.56 59.47 6.48
15589 20.5860 46.36 59.47 6.87
15590 20.5870 41.21 59.27 6.43
15591 20.5880 43.25 59.27 6.55
15592 20.5890 69.10 59.27 8.34
15593 20.5900 60.66 59.27 7.87
15594 20.5910 48.96 59.26 7.13
15595 20.5920 43.62 59.26 6.70
15596 20.5930 45.73 59.26 6.81
15597 20.5940 47.14 59.26 6.89
15598 20.5950 55.21 59.26 7.48
15599 20.5960 45.13 59.26 6.75
15600 20.5970 51.00 59.25 7.17
15601 20.5980 51.04 59.25 7.13
15602 20.5990 57.41 59.25 7.58
15603 20.6000 59.03 59.25 7.73
15604 20.6010 44.94 59.25 6.76
15605 20.6020 49.04 59.25 7.05
15606 20.6030 39.90 59.24 6.31
15607 20.6040 47.32 59.24 6.87
15608 20.6050 49.42 59.24 7.05
15609 20.6060 50.19 59.24 7.13
15610 20.6070 47.38 59.24 6.90
15611 20.6080 64.02 59.24 8.01
15612 20.6090 48.17 59.24 6.95
15613 20.6100 56.29 59.23 7.56
15614 20.6110 43.60 59.23 6.68
15615 20.6120 42.14 59.23 6.54
15616 20.6130 40.02 59.23 6.36
15617 20.6140 40.78 59.23 6.42
15618 20.6150 56.70 59.23 7.63
15619 20.6160 40.93 59.23 6.47
15620 20.6170 44.94 59.22 6.77
15621 20.6180 52.15 59.22 7.24
15622 20.6190 45.52 59.22 6.77
15623 20.6200 60.94 59.22 7.85
15624 20.6210 59.54 59.22 7.81
15625 20.6220 46.53 59.22 6.87
15626 20.6230 51.05 59.22 7.17
15627 20.6240 43.90 59.22 6.64
15628 20.6250 47.11 59.22 6.92
15629 20.6260 57.09 59.21 7.57
15630 20.6270 50.52 59.21 7.10
15631 20.6280 56.75 59.21 7.49
15632 20.6290 49.82 59.21 7.04
15633 20.6300 45.25 59.21 6.79
15634 20.6310 42.75 59.21 6.61
15635 20.6320 43.62 59.21 6.65
15636 20.6330 40.73 59.21 6.42
15637 20.6340 51.90 59.21 7.22
15638 20.6350 44.91 59.21 6.74
15639 20.6360 46.70 59.20 6.88
15640 20.6370 49.15 59.20 7.02
15641 20.6380 42.52 59.20 6.53
15642 20.6390 50.37 59.20 7.11
15643 20.6400 47.97 59.20 7.02
15644 20.6410 51.92 59.20 7.34
15645 20.6420 62.93 59.20 8.00
15646 20.6430 59.94 59.20 7.78
15647 20.6440 54.91 59.20 7.42
15648 20.6450 57.43 59.20 7.62
15649 20.6460 32.23 59.20 5.74
15650 20.6470 51.74 59.20 7.19
15651 20.6480 60.78 59.20 7.77
15652 20.6490 46.13 59.20 6.81
15653 20.6500 50.78 59.20 7.15
15654 20.6510 56.74 59.20 7.59
15655 20.6520 39.40 59.19 6.29
15656 20.6530 37.65 59.19 6.14
15657 20.6540 55.95 59.19 7.50
15658 20.6550 50.75 59.19 7.16
15659 20.6560 40.86 59.19 6.46
15660 20.6570 50.44 59.19 7.11
15661 20.6580 42.73 59.19 6.52
15662 20.6590 49.61 59.19 7.06
15663 20.6600 51.26 59.19 7.19
15664 20.6610 51.98 59.19 7.24
15665 20.6620 61.27 59.19 7.86
15666 20.6630 49.45 59.19 7.05
15667 20.6640 57.86 59.19 7.62
15668 20.6650 64.83 59.19 8.15
15669 20.6660 47.95 59.19 7.01
15670 20.6670 44.56 59.19 6.71
15671 20.6680 57.53 59.19 7.60
15672 20.6690 45.29 59.19 6.76
15673 20.6700 51.09 59.19 7.21
15674 20.6710 40.15 59.19 6.42
15675 20.6720 40.65 59.20 6.41
15676 20.6730 52.17 59.20 7.23
15677 20.6740 50.46 59.20 7.13
15678 20.6750 47.90 59.20 6.95
15679 20.6760 40.70 59.20 6.41
15680 20.6770 41.52 59.20 6.43
15681 20.6780 40.62 59.20 6.34
15682 20.6790 47.09 59.20 6.86
15683 20.6800 58.05 59.20 7.65
15684 20.6810 46.37 59.20 6.91
15685 20.6820 47.96 59.20 6.97
15686 20.6830 48.67 59.20 7.01
15687 20.6840 46.71 59.20 6.84
15688 20.6850 56.39 59.20 7.53
15689 20.6860 48.95 59.21 7.03
15690 20.6870 41.36 59.21 6.46
15691 20.6880 55.09 59.21 7.43
15692 20.6890 44.27 59.21 6.68
15693 20.6900 59.60 59.21 7.80
15694 20.6910 72.91 59.21 8.66
15695 20.6920 36.08 59.21 6.08
15696 20.6930 47.82 59.21 6.92
15697 20.6940 54.64 59.22 7.41
15698 20.6950 56.11 59.22 7.52
15699 20.6960 56.11 59.22 7.54
15700 20.6970 47.16 59.22 6.88
15701 20.6980 48.81 59.22 6.96
15702 20.6990 38.54 59.23 6.21
15703 20.7000 42.05 59.23 6.52
15704 20.7010 36.07 59.23 6.06
15705 20.7020 43.29 59.23 6.58
15706 20.7030 47.69 59.23 6.91
15707 20.7040 52.05 59.24 7.22
15708 20.7050 50.17 59.24 7.12
15709 20.7060 52.53 59.24 7.31
15710 20.7070 55.61 59.24 7.49
15711 20.7080 59.28 59.25 7.67
15712 20.7090 38.21 59.25 6.19
15713 20.7100 54.62 59.25 7.41
15714 20.7110 52.33 59.25 7.29
15715 20.7120 51.96 59.26 7.23
15716 20.7130 59.72 59.26 7.76
15717 20.7140 49.87 59.26 7.10
15718 20.7150 50.77 59.27 7.19
15719 20.7160 44.21 59.27 6.73
15720 20.7170 42.47 59.27 6.56
15721 20.7180 57.27 59.28 7.54
15722 20.7190 50.53 59.28 7.11
15723 20.7200 59.15 59.28 7.75
15724 20.7210 59.67 59.29 7.81
15725 20.7220 45.18 59.29 6.77
15726 20.7230 44.70 59.30 6.71
15727 20.7240 42.81 59.30 6.53
15728 20.7250 53.73 59.30 7.36
15729 20.7260 50.47 59.31 7.12
15730 20.7270 55.15 59.31 7.42
15731 20.7280 48.48 59.32 6.92
15732 20.7290 55.02 59.32 7.41
15733 20.7300 41.42 59.33 6.48
15734 20.7310 40.98 59.33 6.49
15735 20.7320 44.97 59.34 6.74
15736 20.7330 44.38 59.34 6.66
15737 20.7340 42.75 59.35 6.53
15738 20.7350 40.40 59.35 6.36
15739 20.7360 40.03 59.36 6.34
15740 20.7370 49.28 59.37 7.03
15741 20.7380 45.91 59.37 6.78
15742 20.7390 56.99 59.38 7.60
15743 20.7400 52.83 59.38 7.36
15744 20.7410 49.72 59.39 7.20
15745 20.7420 41.98 59.40 6.53
15746 20.7430 52.21 59.40 7.25
15747 20.7440 64.39 59.41 8.02
15748 20.7450 56.65 59.42 7.56
15749 20.7460 42.65 59.42 6.57
15750 20.7470 50.76 59.43 7.16
15751 20.7480 47.78 59.44 6.91
15752 20.7490 48.31 59.45 6.95
15753 20.7500 43.57 59.46 6.63
15754 20.7510 38.86 59.46 6.27
15755 20.7520 46.21 59.47 6.81
15756 20.7530 55.15 59.48 7.40
15757 20.7540 44.64 59.49 6.70
15758 20.7550 55.36 59.50 7.49
15759 20.7560 47.75 59.51 6.99
15760 20.7570 51.49 59.52 7.18
15761 20.7580 51.92 59.53 7.19
15762 20.7590 46.22 59.54 6.77
15763 20.7600 53.47 59.55 7.34
15764 20.7610 53.25 59.56 7.38
15765 20.7620 47.25 59.57 6.92
15766 20.7630 52.00 59.58 7.24
15767 20.7640 53.45 59.59 7.38
15768 20.7650 43.18 59.60 6.65
15769 20.7660 56.38 59.62 7.60
15770 20.7670 45.08 59.63 6.73
15771 20.7680 48.21 59.64 6.91
15772 20.7690 52.00 59.65 7.21
15773 20.7700 43.57 59.67 6.65
15774 20.7710 42.69 59.68 6.59
15775 20.7720 42.88 59.69 6.62
15776 20.7730 43.37 59.71 6.60
15777 20.7740 47.52 59.72 6.89
15778 20.7750 60.60 59.74 7.79
15779 20.7760 52.60 59.75 7.26
15780 20.7770 53.45 59.77 7.27
15781 20.7780 40.48 59.78 6.32
15782 20.7790 41.78 59.80 6.47
15783 20.7800 48.44 59.82 7.01
15784 20.7810 42.58 59.83 6.61
15785 20.7820 50.00 59.85 7.12
15786 20.7830 40.69 59.87 6.42
15787 20.7840 45.53 59.89 6.76
15788 20.7850 57.51 59.91 7.56
15789 20.7860 53.26 59.92 7.33
15790 20.7870 44.26 59.94 6.66
15791 20.7880 43.24 59.97 6.59
15792 20.7890 40.14 59.99 6.37
15793 20.7900 34.70 60.01 5.99
15794 20.7910 60.42 60.03 7.89
15795 20.7920 58.39 60.05 7.68
15796 20.7930 40.26 60.08 6.35
15797 20.7940 50.37 60.10 7.12
15798 20.7950 56.71 60.12 7.55
15799 20.7960 50.67 60.15 7.15
15800 20.7970 59.36 60.18 7.75
15801 20.7980 53.59 60.20 7.26
15802 20.7990 47.85 60.23 6.90
15803 20.8000 49.72 60.26 7.07
15804 20.8010 45.95 60.29 6.82
15805 20.8020 53.88 60.32 7.34
15806 20.8030 44.73 60.35 6.66
15807 20.8040 42.35 60.38 6.52
15808 20.8050 37.32 60.41 6.16
15809 20.8060 43.02 60.45 6.60
15810 20.8070 52.23 60.48 7.25
15811 20.8080 59.46 60.51 7.69
15812 20.8090 62.07 60.55 7.86
15813 20.8100 42.05 60.59 6.51
15814 20.8110 46.17 60.63 6.87
15815 20.8120 50.39 60.67 7.13
15816 20.8130 51.34 60.71 7.20
15817 20.8140 50.78 60.75 7.15
15818 20.8150 49.12 60.80 7.07
15819 20.8160 50.58 60.84 7.16
15820 20.8170 46.38 60.89 6.84
15821 20.8180 52.51 60.94 7.21
15822 20.8190 38.15 60.99 6.17
15823 20.8200 44.56 61.04 6.73
15824 20.8210 48.16 61.09 7.01
15825 20.8220 46.34 61.15 6.84
15826 20.8230 51.25 61.20 7.13
15827 20.8240 42.69 61.26 6.51
15828 20.8250 48.69 61.33 6.97
15829 20.8260 37.79 61.39 6.16
15830 20.8270 51.98 61.46 7.20
15831 20.8280 60.87 61.53 7.74
15832 20.8290 55.84 61.60 7.45
15833 20.8300 46.62 61.68 6.90
15834 20.8310 46.25 61.76 6.86
15835 20.8320 51.71 61.84 7.23
15836 20.8330 50.89 61.93 7.13
15837 20.8340 51.29 62.02 7.13
15838 20.8350 53.29 62.12 7.32
15839 20.8360 47.45 62.22 6.91
15840 20.8370 45.84 62.33 6.77
15841 20.8380 37.31 62.44 6.13
15842 20.8390 45.04 62.57 6.74
15843 20.8400 55.82 62.70 7.55
15844 20.8410 47.75 62.85 7.00
15845 20.8420 49.31 63.00 7.04
15846 20.8430 57.64 63.18 7.58
15847 20.8440 51.40 63.38 7.15
15848 20.8450 44.53 63.60 6.69
15849 20.8460 50.48 63.86 7.15
15850 20.8470 64.44 64.16 8.03
15851 20.8480 52.34 64.51 7.19
15852 20.8490 49.07 64.93 6.97
15853 20.8500 57.52 65.42 7.59
15854 20.8510 60.91 65.99 7.82
15855 20.8520 54.11 66.65 7.38
15856 20.8530 54.37 67.39 7.38
15857 20.8540 56.65 68.20 7.53
15858 20.8550 51.47 69.04 7.22
15859 20.8560 50.59 69.83 7.16
15860 20.8570 60.59 70.49 7.74
15861 20.8580 67.15 70.93 8.13
15862 20.8590 70.25 71.09 8.33
15863 20.8600 57.33 70.97 7.61
15864 20.8610 47.75 70.62 6.99
15865 20.8620 58.28 70.16 7.70
15866 20.8630 54.07 69.68 7.40
15867 20.8640 61.36 69.23 7.86
15868 20.8650 61.77 68.87 7.89
15869 20.8660 51.79 68.60 7.23
15870 20.8670 40.75 68.43 6.40
15871 20.8680 56.15 68.35 7.46
15872 20.8690 53.02 68.35 7.27
15873 20.8700 49.86 68.41 7.11
15874 20.8710 63.23 68.54 8.01
15875 20.8720 51.58 68.73 7.22
15876 20.8730 55.91 68.95 7.43
15877 20.8740 52.86 69.22 7.24
15878 20.8750 58.62 69.53 7.63
15879 20.8760 51.01 69.87 7.15
15880 20.8770 59.80 70.24 7.71
15881 20.8780 53.71 70.64 7.29
15882 20.8790 54.31 71.08 7.36
15883 20.8800 55.38 71.55 7.48
15884 20.8810 50.55 72.06 7.16
15885 20.8820 57.93 72.60 7.63
15886 20.8830 71.90 73.19 8.45
15887 20.8840 73.09 73.81 8.50
15888 20.8850 55.88 74.48 7.48
15889 20.8860 65.16 75.20 8.10
15890 20.8870 64.16 75.97 8.01
15891 20.8880 48.84 76.80 6.98
15892 20.8890 49.59 77.69 7.07
15893 20.8900 51.97 78.65 7.29
15894 20.8910 71.26 79.68 8.51
15895 20.8920 60.14 80.80 7.79
15896 20.8930 68.61 82.01 8.30
15897 20.8940 72.35 83.32 8.50
15898 20.8950 82.92 84.74 9.12
15899 20.8960 72.27 86.29 8.50
15900 20.8970 58.54 87.98 7.62
15901 20.8980 71.12 89.82 8.38
15902 20.8990 78.89 91.84 8.84
15903 20.9000 76.18 94.06 8.73
15904 20.9010 75.81 96.50 8.77
15905 20.9020 96.98 99.20 9.83
15906 20.9030 89.88 102.20 9.51
15907 20.9040 90.45 105.52 9.50
15908 20.9050 105.72 109.23 10.31
15909 20.9060 104.54 113.41 10.28
15910 20.9070 103.27 118.11 10.13
15911 20.9080 120.36 123.43 10.84
15912 20.9090 134.20 129.51 11.52
15913 20.9100 116.90 136.52 10.83
15914 20.9110 132.69 144.66 11.59
15915 20.9120 155.35 154.24 12.52
15916 20.9130 152.31 165.66 12.40
15917 20.9140 177.15 179.40 13.33
15918 20.9150 191.86 196.20 13.92
15919 20.9160 209.43 216.87 14.51
15920 20.9170 232.26 242.54 15.22
15921 20.9180 258.43 274.47 16.00
15922 20.9190 305.40 314.04 17.41
15923 20.9200 325.29 363.01 18.11
15924 20.9210 381.58 422.57 19.74
15925 20.9220 428.32 494.02 20.66
15926 20.9230 566.26 577.69 23.73
15927 20.9240 608.79 672.63 24.51
15928 20.9250 768.45 774.45 27.62
15929 20.9260 826.77 877.16 28.81
15930 20.9270 912.02 972.52 30.14
15931 20.9280 1069.93 1053.16 32.56
15932 20.9290 1161.25 1113.99 34.08
15933 20.9300 1171.77 1149.45 34.52
15934 20.9310 1239.18 1152.63 35.47
15935 20.9320 1127.18 1117.58 33.53
15936 20.9330 937.84 1045.48 30.56
15937 20.9340 886.26 945.91 29.67
15938 20.9350 798.53 833.32 28.23
15939 20.9360 638.99 720.79 25.40
15940 20.9370 535.94 616.54 23.23
15941 20.9380 485.07 524.45 22.01
15942 20.9390 410.50 446.33 20.24
15943 20.9400 379.82 381.39 19.64
15944 20.9410 314.63 328.17 17.89
15945 20.9420 273.66 285.38 16.55
15946 20.9430 233.07 251.09 15.30
15947 20.9440 214.18 223.64 14.63
15948 20.9450 222.77 201.65 14.95
15949 20.9460 196.60 183.93 14.07
15950 20.9470 154.69 169.44 12.39
15951 20.9480 144.57 157.48 11.92
15952 20.9490 136.57 147.45 11.59
15953 20.9500 134.69 138.94 11.63
15954 20.9510 93.86 131.63 9.74
15955 20.9520 107.09 125.26 10.37
15956 20.9530 93.29 119.71 9.68
15957 20.9540 93.54 114.81 9.68
15958 20.9550 104.94 110.45 10.26
15959 20.9560 97.76 106.58 9.92
15960 20.9570 79.75 103.11 8.90
15961 20.9580 74.89 99.99 8.59
15962 20.9590 78.05 97.18 8.83
15963 20.9600 73.99 94.63 8.66
15964 20.9610 75.61 92.32 8.86
15965 20.9620 73.47 90.22 8.64
15966 20.9630 68.15 88.30 8.31
15967 20.9640 66.52 86.54 8.18
15968 20.9650 50.60 84.93 7.17
15969 20.9660 67.03 83.45 8.22
15970 20.9670 79.88 82.08 8.93
15971 20.9680 69.24 80.82 8.34
15972 20.9690 59.00 79.65 7.68
15973 20.9700 66.68 78.57 8.21
15974 20.9710 56.44 77.56 7.60
15975 20.9720 75.92 76.63 8.72
15976 20.9730 65.10 75.75 8.06
15977 20.9740 70.45 74.94 8.36
15978 20.9750 58.57 74.18 7.64
15979 20.9760 57.51 73.46 7.62
15980 20.9770 50.69 72.79 7.15
15981 20.9780 73.39 72.16 8.54
15982 20.9790 57.09 71.57 7.58
15983 20.9800 52.33 71.02 7.28
15984 20.9810 61.67 70.49 7.93
15985 20.9820 52.53 70.00 7.27
15986 20.9830 48.59 69.53 6.97
15987 20.9840 45.09 69.08 6.72
15988 20.9850 56.52 68.67 7.55
15989 20.9860 58.05 68.27 7.70
15990 20.9870 52.83 67.89 7.30
15991 20.9880 51.70 67.53 7.21
15992 20.9890 61.63 67.19 7.87
15993 20.9900 42.20 66.87 6.56
15994 20.9910 51.86 66.56 7.29
15995 20.9920 49.12 66.27 7.03
15996 20.9930 41.77 65.99 6.50
15997 20.9940 49.69 65.72 7.03
15998 20.9950 55.68 65.47 7.49
15999 20.9960 58.95 65.22 7.69
16000 20.9970 49.16 64.99 7.00
16001 20.9980 53.41 64.77 7.26
16002 20.9990 46.70 64.55 6.81
16003 21.0000 56.97 64.35 7.58
16004 21.0010 51.68 64.15 7.24
16005 21.0020 43.12 63.96 6.60
16006 21.0030 54.47 63.78 7.43
16007 21.0040 64.68 63.61 8.05
16008 21.0050 42.21 63.44 6.54
16009 21.0060 44.54 63.28 6.70
16010 21.0070 45.54 63.12 6.75
16011 21.0080 46.03 62.98 6.73
16012 21.0090 53.47 62.83 7.31
16013 21.0100 54.06 62.69 7.42
16014 21.0110 51.25 62.56 7.26
16015 21.0120 46.19 62.43 6.89
16016 21.0130 51.45 62.31 7.21
16017 21.0140 45.82 62.19 6.79
16018 21.0150 49.87 62.07 7.10
16019 21.0160 47.91 61.96 6.95
16020 21.0170 41.89 61.85 6.48
16021 21.0180 49.41 61.75 7.01
16022 21.0190 48.96 61.64 7.01
16023 21.0200 52.80 61.55 7.35
16024 21.0210 41.60 61.45 6.51
16025 21.0220 40.01 61.36 6.35
16026 21.0230 42.93 61.27 6.56
16027 21.0240 42.54 61.18 6.50
16028 21.0250 41.74 61.10 6.46
16029 21.0260 47.76 61.02 6.94
16030 21.0270 45.63 60.94 6.77
16031 21.0280 52.89 60.86 7.26
16032 21.0290 49.71 60.79 7.07
16033 21.0300 46.72 60.71 6.89
16034 21.0310 51.44 60.64 7.23
16035 21.0320 61.36 60.57 7.85
16036 21.0330 56.12 60.51 7.45
16037 21.0340 49.57 60.44 7.03
16038 21.0350 47.61 60.38 6.96
16039 21.0360 43.22 60.32 6.63
16040 21.0370 42.32 60.26 6.55
16041 21.0380 42.46 60.20 6.52
16042 21.0390 48.10 60.14 6.95
16043 21.0400 50.10 60.09 7.13
16044 21.0410 46.56 60.03 6.86
16045 21.0420 53.82 59.98 7.36
16046 21.0430 37.04 59.93 6.09
16047 21.0440 46.90 59.88 6.87
16048 21.0450 49.28 59.83 7.04
16049 21.0460 41.96 59.78 6.51
16050 21.0470 48.46 59.73 6.92
16051 21.0480 53.24 59.69 7.26
16052 21.0490 42.09 59.64 6.47
16053 21.0500 47.10 59.60 6.89
16054 21.0510 57.72 59.56 7.68
16055 21.0520 47.90 59.51 6.98
16056 21.0530 36.45 59.47 6.06
16057 21.0540 43.42 59.43 6.58
16058 21.0550 46.55 59.39 6.82
16059 21.0560 55.43 59.36 7.48
16060 21.0570 41.39 59.32 6.39
16061 21.0580 55.06 59.28 7.38
16062 21.0590 44.19 59.25 6.66
16063 21.0600 44.86 59.21 6.75
16064 21.0610 48.59 59.18 7.07
16065 21.0620 47.34 59.14 6.91
16066 21.0630 38.67 59.11 6.25
16067 21.0640 51.21 59.08 7.16
16068 21.0650 58.04 59.05 7.63
16069 21.0660 56.83 59.01 7.56
16070 21.0670 46.26 58.98 6.80
16071 21.0680 45.95 58.95 6.77
16072 21.0690 52.11 58.92 7.21
16073 21.0700 54.30 58.89 7.39
16074 21.0710 39.68 58.87 6.36
16075 21.0720 44.27 58.84 6.66
16076 21.0730 36.93 58.81 6.05
16077 21.0740 43.04 58.78 6.54
16078 21.0750 44.08 58.76 6.65
16079 21.0760 43.81 58.73 6.64
16080 21.0770 49.90 58.71 7.05
16081 21.0780 42.64 58.68 6.50
16082 21.0790 55.85 58.66 7.48
16083 21.0800 48.84 58.63 7.00
16084 21.0810 47.19 58.61 6.93
16085 21.0820 31.95 58.58 5.66
16086 21.0830 50.13 58.56 7.08
16087 21.0840 45.66 58.54 6.75
16088 21.0850 58.16 58.52 7.70
16089 21.0860 54.71 58.49 7.47
16090 21.0870 36.23 58.47 6.06
16091 21.0880 53.00 58.46 7.26
16092 21.0890 62.16 58.44 7.87
16093 21.0900 47.09 58.42 6.91
16094 21.0910 48.09 58.40 7.01
16095 21.0920 45.78 58.40 6.80
16096 21.0930 47.75 58.38 6.93
16097 21.0940 56.29 58.36 7.50
16098 21.0950 43.90 58.34 6.64
16099 21.0960 40.22 58.32 6.37
16100 21.0970 39.94 58.30 6.30
16101 21.0980 43.36 58.28 6.52
16102 21.0990 49.97 58.26 7.06
16103 21.1000 49.53 58.25 7.06
16104 21.1010 54.75 58.23 7.47
16105 21.1020 36.02 58.21 6.05
16106 21.1030 40.42 58.19 6.38
16107 21.1040 43.77 58.18 6.61
16108 21.1050 48.49 58.16 6.96
16109 21.1060 44.57 58.14 6.66
16110 21.1070 36.31 58.13 6.01
16111 21.1080 52.57 58.11 7.19
16112 21.1090 49.71 58.10 7.07
16113 21.1100 55.30 58.08 7.51
16114 21.1110 46.70 58.06 6.94
16115 21.1120 60.67 58.05 7.84
16116 21.1130 46.26 58.03 6.82
16117 21.1140 55.36 58.02 7.45
16118 21.1150 53.23 58.00 7.28
16119 21.1160 45.43 57.99 6.77
16120 21.1170 44.56 57.98 6.68
16121 21.1180 44.53 57.96 6.66
16122 21.1190 46.03 57.95 6.77
16123 21.1200 52.42 57.93 7.29
16124 21.1210 48.46 57.92 7.01
16125 21.1220 56.29 57.91 7.51
16126 21.1230 56.07 57.89 7.48
16127 21.1240 54.99 57.88 7.38
16128 21.1250 40.08 57.87 6.36
16129 21.1260 48.88 57.85 7.03
16130 21.1270 47.06 57.84 6.87
16131 21.1280 40.96 57.83 6.39
16132 21.1290 41.62 57.81 6.45
16133 21.1300 42.14 57.80 6.54
16134 21.1310 50.00 57.79 7.14
16135 21.1320 63.17 57.78 7.96
16136 21.1330 46.57 57.77 6.84
16137 21.1340 43.28 57.75 6.61
16138 21.1350 46.00 57.74 6.84
16139 21.1360 44.00 57.73 6.70
16140 21.1370 39.56 57.72 6.33
16141 21.1380 49.41 57.71 7.05
16142 21.1390 28.34 57.70 5.34
16143 21.1400 59.81 57.68 7.79
16144 21.1410 32.82 57.67 5.80
16145 21.1420 55.53 57.66 7.48
16146 21.1430 56.20 57.65 7.48
16147 21.1440 49.87 57.64 7.05
16148 21.1450 49.11 57.63 7.00
16149 21.1460 58.18 57.62 7.63
16150 21.1470 54.97 57.61 7.39
16151 21.1480 54.77 57.60 7.35
16152 21.1490 50.32 57.59 7.08
16153 21.1500 41.62 57.58 6.50
16154 21.1510 43.39 57.57 6.68
16155 21.1520 46.86 57.56 6.86
16156 21.1530 46.93 57.55 6.88
16157 21.1540 48.19 57.54 6.95
16158 21.1550 53.84 57.53 7.36
16159 21.1560 42.08 57.52 6.53
16160 21.1570 41.22 57.51 6.40
16161 21.1580 32.28 57.50 5.67
16162 21.1590 41.22 57.49 6.46
16163 21.1600 32.54 57.48 5.77
16164 21.1610 33.60 57.47 5.89
16165 21.1620 30.37 57.46 5.55
16166 21.1630 35.97 57.45 6.03
16167 21.1640 44.12 57.44 6.63
16168 21.1650 58.51 57.43 7.68
16169 21.1660 50.40 57.42 7.15
16170 21.1670 56.79 57.42 7.52
16171 21.1680 38.37 57.41 6.18
16172 21.1690 33.08 57.40 5.74
16173 21.1700 41.36 57.39 6.45
16174 21.1710 43.32 57.38 6.63
16175 21.1720 46.99 57.37 6.84
16176 21.1730 45.86 57.36 6.74
16177 21.1740 43.43 57.35 6.59
16178 21.1750 50.36 57.35 7.12
16179 21.1760 44.96 57.34 6.75
16180 21.1770 53.69 57.33 7.34
16181 21.1780 44.32 57.32 6.65
16182 21.1790 41.06 57.31 6.41
16183 21.1800 52.28 57.30 7.29
16184 21.1810 53.97 57.30 7.44
16185 21.1820 48.78 57.29 7.01
16186 21.1830 51.33 57.28 7.19
16187 21.1840 51.70 57.27 7.24
16188 21.1850 47.51 57.26 6.95
16189 21.1860 41.92 57.26 6.54
16190 21.1870 51.38 57.25 7.20
16191 21.1880 41.94 57.24 6.48
16192 21.1890 49.58 57.23 7.03
16193 21.1900 40.13 57.23 6.38
16194 21.1910 41.75 57.22 6.54
16195 21.1920 48.36 57.21 7.01
16196 21.1930 41.61 57.20 6.45
16197 21.1940 50.93 57.20 7.13
16198 21.1950 50.72 57.19 7.13
16199 21.1960 52.74 57.18 7.28
16200 21.1970 55.50 57.17 7.44
16201 21.1980 43.61 57.17 6.57
16202 21.1990 48.78 57.16 6.99
16203 21.2000 49.45 57.15 7.11
16204 21.2010 45.02 57.15 6.83
16205 21.2020 49.39 57.14 7.10
16206 21.2030 44.34 57.13 6.67
16207 21.2040 55.85 57.12 7.46
16208 21.2050 45.33 57.12 6.77
16209 21.2060 40.55 57.11 6.40
16210 21.2070 59.64 57.10 7.70
16211 21.2080 48.25 57.10 6.94
16212 21.2090 50.25 57.09 7.13
16213 21.2100 40.78 57.08 6.47
16214 21.2110 45.50 57.08 6.85
16215 21.2120 40.98 57.07 6.45
16216 21.2130 35.97 57.06 6.01
16217 21.2140 42.96 57.06 6.56
16218 21.2150 60.50 57.05 7.79
16219 21.2160 44.87 57.04 6.73
16220 21.2170 39.21 57.04 6.28
16221 21.2180 39.72 57.03 6.28
16222 21.2190 49.73 57.02 7.04
16223 21.2200 48.35 57.02 6.99
16224 21.2210 51.04 57.01 7.17
16225 21.2220 43.94 57.01 6.66
16226 21.2230 38.30 57.00 6.17
16227 21.2240 48.69 56.99 6.98
16228 21.2250 38.23 56.99 6.24
16229 21.2260 41.03 56.98 6.47
16230 21.2270 51.37 56.98 7.19
16231 21.2280 46.23 56.97 6.81
16232 21.2290 48.74 56.96 6.98
16233 21.2300 60.52 56.96 7.82
16234 21.2310 48.65 56.95 7.05
16235 21.2320 43.75 56.95 6.64
16236 21.2330 48.47 56.94 6.98
16237 21.2340 48.95 56.94 7.03
16238 21.2350 52.54 56.93 7.32
16239 21.2360 46.17 56.93 6.87
16240 21.2370 52.98 56.93 7.29
16241 21.2380 36.56 56.92 6.05
16242 21.2390 46.54 56.92 6.82
16243 21.2400 47.03 56.92 6.90
16244 21.2410 36.63 56.91 6.11
16245 21.2420 33.87 56.91 5.87
16246 21.2430 44.41 56.91 6.68
16247 21.2440 40.98 56.91 6.40
16248 21.2450 43.14 56.92 6.57
16249 21.2460 47.98 56.92 6.94
16250 21.2470 44.84 56.93 6.70
16251 21.2480 49.37 56.94 6.99
16252 21.2490 49.56 56.95 7.03
16253 21.2500 47.37 56.97 6.96
16254 21.2510 38.46 56.98 6.31
16255 21.2520 45.05 56.99 6.77
16256 21.2530 48.93 56.99 7.01
16257 21.2540 46.35 56.98 6.80
16258 21.2550 57.84 56.97 7.61
16259 21.2560 45.69 56.95 6.80
16260 21.2570 50.62 56.92 7.11
16261 21.2580 47.67 56.90 6.92
16262 21.2590 46.56 56.88 6.86
16263 21.2600 50.88 56.86 7.21
16264 21.2610 35.06 56.84 6.01
16265 21.2620 46.43 56.83 6.87
16266 21.2630 37.54 56.81 6.15
16267 21.2640 49.32 56.80 7.02
16268 21.2650 49.08 56.79 7.03
16269 21.2660 38.43 56.78 6.27
16270 21.2670 59.08 56.77 7.73
16271 21.2680 48.47 56.77 6.94
16272 21.2690 52.77 56.76 7.25
16273 21.2700 47.75 56.75 6.97
16274 21.2710 44.56 56.75 6.73
16275 21.2720 39.40 56.74 6.30
16276 21.2730 48.95 56.74 6.99
16277 21.2740 44.52 56.73 6.68
16278 21.2750 41.75 56.73 6.51
16279 21.2760 36.78 56.72 6.12
16280 21.2770 49.72 56.72 7.05
16281 21.2780 40.94 56.72 6.38
16282 21.2790 53.13 56.71 7.27
16283 21.2800 55.65 56.71 7.49
16284 21.2810 41.73 56.71 6.54
16285 21.2820 41.28 56.70 6.48
16286 21.2830 54.64 56.70 7.43
16287 21.2840 48.69 56.70 7.03
16288 21.2850 49.81 56.70 7.13
16289 21.2860 37.01 56.62 6.15
16290 21.2870 51.12 56.62 7.20
16291 21.2880 44.00 56.62 6.62
16292 21.2890 36.33 56.63 6.04
16293 21.2900 42.83 56.47 6.61
16294 21.2910 42.97 56.48 6.62
16295 21.2920 36.67 56.50 6.13
16296 21.2930 43.38 56.52 6.61
16297 21.2940 46.89 56.54 6.85
16298 21.2950 52.12 56.57 7.22
16299 21.2960 52.91 56.59 7.30
16300 21.2970 52.69 56.60 7.26
16301 21.2980 43.91 56.61 6.61
16302 21.2990 38.78 56.60 6.24
16303 21.3000 42.68 56.58 6.60
16304 21.3010 48.59 56.55 7.07
16305 21.3020 38.59 56.52 6.26
16306 21.3030 32.75 56.50 5.74
16307 21.3040 42.34 56.47 6.51
16308 21.3050 44.97 56.45 6.73
16309 21.3060 44.26 56.43 6.70
16310 21.3070 36.06 56.41 6.04
16311 21.3080 43.57 56.40 6.63
16312 21.3090 40.83 56.39 6.44
16313 21.3100 26.76 56.38 5.27
16314 21.3110 39.27 56.37 6.38
16315 21.3120 51.86 56.36 7.27
16316 21.3130 50.53 56.36 7.12
16317 21.3140 42.90 56.35 6.57
16318 21.3150 38.37 56.35 6.25
16319 21.3160 46.36 56.34 6.86
16320 21.3170 33.53 56.34 5.80
16321 21.3180 35.29 56.34 5.93
16322 21.3190 49.48 56.33 7.02
16323 21.3200 47.18 56.33 6.88
16324 21.3210 56.18 56.33 7.57
16325 21.3220 40.55 56.33 6.40
16326 21.3230 36.18 56.32 6.05
16327 21.3240 34.51 56.32 5.90
16328 21.3250 51.44 56.32 7.21
16329 21.3260 46.40 56.32 6.86
16330 21.3270 48.72 56.32 6.98
16331 21.3280 50.96 56.32 7.12
16332 21.3290 38.71 56.32 6.22
16333 21.3300 45.52 56.31 6.80
16334 21.3310 40.22 56.31 6.44
16335 21.3320 40.24 56.31 6.41
16336 21.3330 42.20 56.31 6.54
16337 21.3340 41.16 56.31 6.46
16338 21.3350 40.60 56.31 6.47
16339 21.3360 31.43 56.31 5.68
16340 21.3370 43.70 56.31 6.64
16341 21.3380 48.92 56.31 7.00
16342 21.3390 49.02 56.31 7.02
16343 21.3400 49.73 56.31 7.11
16344 21.3410 39.03 56.31 6.32
16345 21.3420 44.19 56.31 6.69
16346 21.3430 38.23 56.31 6.22
16347 21.3440 36.36 56.31 6.06
16348 21.3450 48.40 56.31 6.96
16349 21.3460 45.49 56.32 6.80
16350 21.3470 46.61 56.32 6.84
16351 21.3480 39.37 56.32 6.29
16352 21.3490 32.93 56.32 5.75
16353 21.3500 54.06 56.32 7.42
16354 21.3510 46.21 56.32 6.87
16355 21.3520 59.04 56.33 7.73
16356 21.3530 49.53 56.33 7.03
16357 21.3540 33.49 56.33 5.81
16358 21.3550 41.69 56.33 6.51
16359 21.3560 42.09 56.34 6.56
16360 21.3570 37.83 56.34 6.20
16361 21.3580 36.21 56.34 6.04
16362 21.3590 41.41 56.35 6.48
16363 21.3600 49.75 56.35 7.14
16364 21.3610 45.57 56.36 6.86
16365 21.3620 46.33 56.36 6.88
16366 21.3630 42.74 56.37 6.56
16367 21.3640 31.45 56.37 5.64
16368 21.3650 44.78 56.38 6.72
16369 21.3660 40.92 56.38 6.43
16370 21.3670 46.75 56.39 6.84
16371 21.3680 37.92 56.40 6.16
16372 21.3690 40.46 56.40 6.37
16373 21.3700 41.32 56.41 6.46
16374 21.3710 34.73 56.42 5.96
16375 21.3720 48.77 56.43 7.06
16376 21.3730 50.39 56.44 7.13
16377 21.3740 49.08 56.45 7.01
16378 21.3750 46.00 56.46 6.83
16379 21.3760 43.78 56.47 6.68
16380 21.3770 43.73 56.48 6.62
16381 21.3780 54.34 56.49 7.34
16382 21.3790 39.34 56.50 6.29
16383 21.3800 42.69 56.52 6.61
16384 21.3810 40.65 56.53 6.50
16385 21.3820 43.56 56.54 6.65
16386 21.3830 44.36 56.56 6.71
16387 21.3840 45.32 56.58 6.80
16388 21.3850 42.89 56.59 6.60
16389 21.3860 47.65 56.61 6.97
16390 21.3870 42.26 56.63 6.51
16391 21.3880 51.86 56.65 7.20
16392 21.3890 50.36 56.67 7.14
16393 21.3900 35.40 56.69 6.02
16394 21.3910 35.81 56.72 6.08
16395 21.3920 38.30 56.74 6.23
16396 21.3930 44.72 56.77 6.72
16397 21.3940 48.50 56.80 6.97
16398 21.3950 59.34 56.83 7.72
16399 21.3960 34.38 56.86 5.90
16400 21.3970 33.75 56.90 5.83
16401 21.3980 36.46 56.93 6.04
16402 21.3990 42.12 56.97 6.54
16403 21.4000 43.31 57.01 6.67
16404 21.4010 48.31 57.05 7.05
16405 21.4020 47.15 57.10 6.91
16406 21.4030 36.65 57.15 6.08
16407 21.4040 47.94 57.20 6.93
16408 21.4050 57.19 57.26 7.62
16409 21.4060 54.53 57.32 7.45
16410 21.4070 58.85 57.38 7.71
16411 21.4080 60.28 57.45 7.77
16412 21.4090 47.95 57.52 6.96
16413 21.4100 49.14 57.60 7.11
16414 21.4110 48.94 57.69 7.11
16415 21.4120 48.30 57.78 7.00
16416 21.4130 41.95 57.87 6.50
16417 21.4140 47.63 57.98 6.91
16418 21.4150 55.05 58.09 7.47
16419 21.4160 54.03 58.22 7.40
16420 21.4170 37.35 58.35 6.12
16421 21.4180 39.21 58.50 6.23
16422 21.4190 30.06 58.66 5.50
16423 21.4200 46.54 58.83 6.87
16424 21.4210 59.58 59.02 7.76
16425 21.4220 36.16 59.23 6.07
16426 21.4230 54.06 59.46 7.39
16427 21.4240 38.69 59.71 6.27
16428 21.4250 44.21 59.99 6.71
16429 21.4260 50.18 60.29 7.13
16430 21.4270 54.20 60.64 7.40
16431 21.4280 54.85 61.02 7.41
16432 21.4290 57.07 61.45 7.53
16433 21.4300 45.14 61.94 6.78
16434 21.4310 55.68 62.49 7.59
16435 21.4320 43.78 63.12 6.71
16436 21.4330 52.98 63.84 7.30
16437 21.4340 63.06 64.68 7.96
16438 21.4350 59.48 65.66 7.79
16439 21.4360 58.72 66.83 7.71
16440 21.4370 67.76 68.24 8.24
16441 21.4380 65.75 69.95 8.08
16442 21.4390 62.39 72.06 7.92
16443 21.4400 71.46 74.67 8.52
16444 21.4410 74.92 77.92 8.73
16445 21.4420 58.47 81.96 7.70
16446 21.4430 63.33 86.93 7.98
16447 21.4440 61.89 93.02 7.86
16448 21.4450 84.68 100.37 9.20
16449 21.4460 93.92 109.00 9.69
16450 21.4470 105.18 118.86 10.26
16451 21.4480 105.30 129.67 10.27
16452 21.4490 135.91 140.71 11.68
16453 21.4500 134.74 151.11 11.65
16454 21.4510 141.27 159.82 11.94
16455 21.4520 160.89 166.04 12.73
16456 21.4530 139.36 169.12 11.75
16457 21.4540 137.55 168.58 11.66
16458 21.4550 160.60 164.13 12.69
16459 21.4560 118.05 156.13 10.97
16460 21.4570 119.97 145.67 10.96
16461 21.4580 119.30 134.12 10.90
16462 21.4590 108.72 122.67 10.44
16463 21.4600 97.05 112.17 9.94
16464 21.4610 83.78 102.94 9.25
16465 21.4620 77.52 95.07 8.85
16466 21.4630 60.92 88.54 7.81
16467 21.4640 65.67 83.20 8.13
16468 21.4650 67.30 78.87 8.22
16469 21.4660 69.61 75.39 8.39
16470 21.4670 64.57 72.61 8.03
16471 21.4680 52.11 70.36 7.20
16472 21.4690 50.91 68.54 7.13
16473 21.4700 62.98 67.05 7.97
16474 21.4710 51.37 65.82 7.26
16475 21.4720 45.62 64.78 6.81
16476 21.4730 54.59 63.90 7.38
16477 21.4740 50.39 63.14 7.09
16478 21.4750 60.04 62.48 7.78
16479 21.4760 48.27 61.90 6.97
16480 21.4770 53.59 61.38 7.31
16481 21.4780 48.64 60.93 6.96
16482 21.4790 56.66 60.52 7.55
16483 21.4800 39.79 60.16 6.38
16484 21.4810 59.51 59.83 7.84
16485 21.4820 49.32 59.53 7.07
16486 21.4830 47.66 59.26 6.96
16487 21.4840 47.16 59.02 6.90
16488 21.4850 48.51 58.80 7.03
16489 21.4860 47.19 58.59 6.92
16490 21.4870 45.37 58.41 6.77
16491 21.4880 45.69 58.23 6.76
16492 21.4890 43.70 58.08 6.64
16493 21.4900 45.13 57.93 6.77
16494 21.4910 50.35 57.79 7.19
16495 21.4920 36.93 57.67 6.13
16496 21.4930 43.46 57.55 6.60
16497 21.4940 48.97 57.44 6.99
16498 21.4950 47.60 57.34 6.93
16499 21.4960 35.72 57.24 6.01
16500 21.4970 46.57 57.15 6.83
16501 21.4980 41.71 57.07 6.45
16502 21.4990 47.19 56.99 6.88
16503 21.5000 57.73 56.92 7.63
16504 21.5010 57.02 56.85 7.63
16505 21.5020 45.85 56.78 6.79
16506 21.5030 42.00 56.72 6.49
16507 21.5040 53.38 56.66 7.31
16508 21.5050 43.44 56.60 6.61
16509 21.5060 43.47 56.55 6.64
16510 21.5070 51.09 56.50 7.19
16511 21.5080 46.83 56.45 6.86
16512 21.5090 54.66 56.41 7.42
16513 21.5100 50.48 56.36 7.17
16514 21.5110 33.31 56.32 5.87
16515 21.5120 48.60 56.28 7.04
16516 21.5130 51.66 56.24 7.20
16517 21.5140 46.25 56.30 6.80
16518 21.5150 40.67 56.27 6.41
16519 21.5160 38.06 56.23 6.23
16520 21.5170 47.18 56.29 6.86
16521 21.5180 46.99 56.26 6.82
16522 21.5190 48.85 56.32 6.98
16523 21.5200 33.64 56.30 5.86
16524 21.5210 47.66 56.27 7.01
16525 21.5220 53.41 56.25 7.32
16526 21.5230 45.31 56.22 6.76
16527 21.5240 51.53 56.20 7.20
16528 21.5250 41.42 56.18 6.47
16529 21.5260 43.39 56.15 6.63
16530 21.5270 46.25 56.13 6.81
16531 21.5280 36.49 56.11 6.06
16532 21.5290 43.27 56.09 6.61
16533 21.5300 31.22 56.08 5.66
16534 21.5310 39.10 56.06 6.36
16535 21.5320 45.08 56.04 6.80
16536 21.5330 48.21 56.02 7.00
16537 21.5340 38.24 56.01 6.21
16538 21.5350 42.67 55.99 6.58
16539 21.5360 37.36 55.98 6.19
16540 21.5370 43.76 55.96 6.65
16541 21.5380 44.36 55.95 6.66
16542 21.5390 44.21 55.93 6.67
16543 21.5400 42.76 55.92 6.59
16544 21.5410 50.38 55.90 7.20
16545 21.5420 45.80 55.89 6.78
16546 21.5430 33.39 55.88 5.82
16547 21.5440 45.46 55.87 6.74
16548 21.5450 45.01 55.85 6.76
16549 21.5460 42.78 55.84 6.56
16550 21.5470 52.79 55.83 7.29
16551 21.5480 53.76 55.82 7.36
16552 21.5490 46.45 55.81 6.84
16553 21.5500 46.34 55.80 6.86
16554 21.5510 47.35 55.79 6.96
16555 21.5520 49.18 55.78 7.04
16556 21.5530 47.41 55.77 6.92
16557 21.5540 42.48 55.76 6.53
16558 21.5550 45.61 55.75 6.81
16559 21.5560 47.05 55.74 6.92
16560 21.5570 45.74 55.73 6.84
16561 21.5580 43.76 55.72 6.63
16562 21.5590 47.87 55.72 6.96
16563 21.5600 41.98 55.71 6.55
16564 21.5610 37.93 55.70 6.25
16565 21.5620 40.20 55.69 6.38
16566 21.5630 53.75 55.68 7.37
16567 21.5640 35.23 55.68 5.94
16568 21.5650 43.54 55.67 6.65
16569 21.5660 44.02 55.66 6.68
16570 21.5670 39.40 55.65 6.27
16571 21.5680 36.00 55.65 5.98
16572 21.5690 30.68 55.64 5.55
16573 21.5700 38.83 55.63 6.29
16574 21.5710 48.87 55.63 7.09
16575 21.5720 43.44 55.62 6.63
16576 21.5730 41.07 55.61 6.46
16577 21.5740 40.77 55.61 6.42
16578 21.5750 43.93 55.60 6.67
16579 21.5760 41.83 55.60 6.51
16580 21.5770 46.29 55.59 6.84
16581 21.5780 35.13 55.58 5.90
16582 21.5790 34.23 55.58 5.90
16583 21.5800 43.48 55.57 6.67
16584 21.5810 37.22 55.57 6.22
16585 21.5820 48.18 55.56 7.00
16586 21.5830 53.04 55.56 7.35
16587 21.5840 49.55 55.55 7.05
16588 21.5850 35.38 55.55 6.00
16589 21.5860 46.82 55.54 6.89
16590 21.5870 35.60 55.54 6.00
16591 21.5880 42.65 55.53 6.51
16592 21.5890 46.79 55.53 6.84
16593 21.5900 35.47 55.52 6.02
16594 21.5910 47.12 55.52 6.96
16595 21.5920 36.30 55.52 6.07
16596 21.5930 39.73 55.51 6.32
16597 21.5940 51.33 55.51 7.16
16598 21.5950 43.21 55.50 6.62
16599 21.5960 32.28 55.50 5.74
16600 21.5970 35.48 55.49 5.99
16601 21.5980 39.87 55.49 6.34
16602 21.5990 37.69 55.49 6.15
16603 21.6000 46.66 55.48 6.89
16604 21.6010 54.47 55.48 7.45
16605 21.6020 56.92 55.48 7.59
16606 21.6030 46.98 55.47 6.88
16607 21.6040 53.59 55.47 7.35
16608 21.6050 54.21 55.47 7.44
16609 21.6060 48.55 55.46 7.05
16610 21.6070 44.45 55.46 6.69
16611 21.6080 50.08 55.46 7.10
16612 21.6090 42.29 55.45 6.53
16613 21.6100 44.68 55.45 6.74
16614 21.6110 34.73 55.45 5.98
16615 21.6120 39.86 55.45 6.38
16616 21.6130 41.16 55.44 6.45
16617 21.6140 47.53 55.44 6.92
16618 21.6150 47.32 55.44 6.91
16619 21.6160 39.57 55.44 6.33
16620 21.6170 51.60 55.43 7.22
16621 21.6180 49.82 55.43 7.04
16622 21.6190 40.09 55.43 6.35
16623 21.6200 43.47 55.43 6.70
16624 21.6210 35.11 55.42 6.04
16625 21.6220 46.27 55.42 6.86
16626 21.6230 47.40 55.42 6.91
16627 21.6240 42.78 55.42 6.57
16628 21.6250 49.00 55.42 7.05
16629 21.6260 36.47 55.41 6.08
16630 21.6270 39.32 55.41 6.30
16631 21.6280 44.62 55.41 6.68
16632 21.6290 51.13 55.41 7.19
16633 21.6300 45.37 55.41 6.82
16634 21.6310 42.56 55.41 6.62
16635 21.6320 49.71 55.41 7.16
16636 21.6330 48.01 55.40 6.99
16637 21.6340 37.22 55.40 6.12
16638 21.6350 46.89 55.40 6.91
16639 21.6360 64.91 55.40 8.14
16640 21.6370 46.82 55.40 6.87
16641 21.6380 37.69 55.40 6.14
16642 21.6390 41.62 55.40 6.49
16643 21.6400 51.51 55.40 7.25
16644 21.6410 43.23 55.40 6.67
16645 21.6420 49.69 55.40 7.11
16646 21.6430 52.54 55.40 7.27
16647 21.6440 60.03 55.40 7.76
16648 21.6450 61.10 55.40 7.86
16649 21.6460 46.43 55.40 6.87
16650 21.6470 30.86 55.40 5.59
16651 21.6480 36.85 55.40 6.09
16652 21.6490 33.21 55.40 5.79
16653 21.6500 39.55 55.40 6.34
16654 21.6510 43.83 55.40 6.71
16655 21.6520 61.27 55.40 7.88
16656 21.6530 39.68 55.40 6.37
16657 21.6540 43.85 55.40 6.68
16658 21.6550 43.01 55.40 6.61
16659 21.6560 42.91 55.40 6.64
16660 21.6570 45.61 55.40 6.79
16661 21.6580 37.38 55.40 6.16
16662 21.6590 48.05 55.40 6.95
16663 21.6600 60.10 55.40 7.84
16664 21.6610 54.66 55.40 7.50
16665 21.6620 45.41 55.40 6.79
16666 21.6630 35.94 55.41 6.03
16667 21.6640 49.14 55.41 7.01
16668 21.6650 42.75 55.41 6.58
16669 21.6660 46.92 55.41 6.92
16670 21.6670 35.68 55.41 5.99
16671 21.6680 46.39 55.41 6.82
16672 21.6690 51.57 55.42 7.18
16673 21.6700 49.41 55.42 7.11
16674 21.6710 48.45 55.42 7.04
16675 21.6720 43.47 55.42 6.65
16676 21.6730 45.68 55.43 6.78
16677 21.6740 40.23 55.43 6.36
16678 21.6750 37.87 55.43 6.19
16679 21.6760 47.58 55.43 6.92
16680 21.6770 55.83 55.44 7.49
16681 21.6780 48.47 55.44 6.99
16682 21.6790 45.99 55.44 6.81
16683 21.6800 40.76 55.45 6.47
16684 21.6810 40.17 55.45 6.44
16685 21.6820 49.26 55.45 7.07
16686 21.6830 45.39 55.46 6.77
16687 21.6840 39.85 55.46 6.34
16688 21.6850 47.13 55.47 6.91
16689 21.6860 34.58 55.47 5.93
16690 21.6870 35.33 55.47 5.98
16691 21.6880 35.80 55.48 5.98
16692 21.6890 45.15 55.48 6.75
16693 21.6900 48.21 55.49 7.00
16694 21.6910 47.40 55.49 6.95
16695 21.6920 31.93 55.50 5.70
16696 21.6930 46.86 55.50 6.85
16697 21.6940 44.92 55.51 6.71
16698 21.6950 44.10 55.52 6.67
16699 21.6960 49.22 55.52 7.07
16700 21.6970 45.28 55.53 6.75
16701 21.6980 38.43 55.53 6.19
16702 21.6990 40.38 55.54 6.34
16703 21.7000 40.47 55.55 6.43
16704 21.7010 34.77 55.55 5.96
16705 21.7020 54.56 55.56 7.43
16706 21.7030 52.43 55.57 7.30
16707 21.7040 42.65 55.58 6.56
16708 21.7050 46.10 55.58 6.82
16709 21.7060 37.19 55.59 6.14
16710 21.7070 50.74 55.60 7.16
16711 21.7080 58.97 55.61 7.68
16712 21.7090 51.50 55.62 7.21
16713 21.7100 50.56 55.63 7.17
16714 21.7110 45.09 55.63 6.82
16715 21.7120 37.97 55.64 6.22
16716 21.7130 44.05 55.65 6.66
16717 21.7140 43.78 55.66 6.62
16718 21.7150 33.30 55.67 5.81
16719 21.7160 37.32 55.68 6.14
16720 21.7170 44.27 55.70 6.67
16721 21.7180 41.60 55.71 6.45
16722 21.7190 39.29 55.72 6.28
16723 21.7200 43.19 55.73 6.63
16724 21.7210 34.88 55.74 5.99
16725 21.7220 42.92 55.75 6.60
16726 21.7230 31.72 55.77 5.65
16727 21.7240 51.75 55.78 7.19
16728 21.7250 47.49 55.79 6.92
16729 21.7260 37.82 55.81 6.19
16730 21.7270 29.74 55.82 5.46
16731 21.7280 44.78 55.83 6.69
16732 21.7290 52.08 55.85 7.26
16733 21.7300 52.34 55.86 7.30
16734 21.7310 33.78 55.88 5.92
16735 21.7320 43.99 55.90 6.70
16736 21.7330 28.55 55.91 5.40
16737 21.7340 41.69 55.93 6.49
16738 21.7350 49.65 55.95 7.11
16739 21.7360 55.28 55.96 7.48
16740 21.7370 44.78 55.98 6.72
16741 21.7380 53.57 56.00 7.28
16742 21.7390 49.49 56.02 7.08
16743 21.7400 37.92 56.04 6.21
16744 21.7410 42.60 56.06 6.60
16745 21.7420 37.70 56.08 6.19
16746 21.7430 48.96 56.10 7.00
16747 21.7440 49.81 56.12 7.07
16748 21.7450 56.81 56.15 7.58
16749 21.7460 58.90 56.17 7.71
16750 21.7470 50.38 56.19 7.10
16751 21.7480 43.03 56.22 6.56
16752 21.7490 43.10 56.24 6.60
16753 21.7500 50.69 56.27 7.14
16754 21.7510 50.65 56.30 7.22
16755 21.7520 47.54 56.32 6.95
16756 21.7530 35.44 56.35 6.01
16757 21.7540 39.02 56.38 6.27
16758 21.7550 39.23 56.41 6.33
16759 21.7560 44.04 56.44 6.70
16760 21.7570 46.66 56.47 6.90
16761 21.7580 57.12 56.50 7.58
16762 21.7590 38.61 56.54 6.27
16763 21.7600 45.08 56.57 6.81
16764 21.7610 51.32 56.60 7.25
16765 21.7620 42.95 56.64 6.64
16766 21.7630 52.32 56.68 7.27
16767 21.7640 45.46 56.71 6.78
16768 21.7650 46.48 56.75 6.86
16769 21.7660 41.38 56.79 6.47
16770 21.7670 41.42 56.83 6.45
16771 21.7680 42.32 56.88 6.51
16772 21.7690 48.06 56.92 6.94
16773 21.7700 45.99 56.97 6.84
16774 21.7710 38.52 57.01 6.29
16775 21.7720 44.56 57.06 6.76
16776 21.7730 50.75 57.11 7.15
16777 21.7740 41.62 57.16 6.49
16778 21.7750 41.35 57.21 6.45
16779 21.7760 38.94 57.27 6.28
16780 21.7770 37.77 57.32 6.17
16781 21.7780 42.92 57.38 6.56
16782 21.7790 50.31 57.44 7.13
16783 21.7800 54.18 57.50 7.47
16784 21.7810 40.42 57.56 6.45
16785 21.7820 46.71 57.63 6.92
16786 21.7830 43.94 57.69 6.68
16787 21.7840 55.96 57.76 7.53
16788 21.7850 63.32 57.83 8.01
16789 21.7860 50.71 57.91 7.21
16790 21.7870 44.46 57.99 6.70
16791 21.7880 48.22 58.07 6.96
16792 21.7890 52.78 58.16 7.27
16793 21.7900 44.31 58.24 6.68
16794 21.7910 51.68 58.33 7.27
16795 21.7920 38.83 58.42 6.29
16796 21.7930 44.78 58.52 6.72
16797 21.7940 44.21 58.61 6.66
16798 21.7950 46.22 58.71 6.85
16799 21.7960 45.81 58.82 6.84
16800 21.7970 51.96 58.93 7.23
16801 21.7980 47.04 59.04 6.88
16802 21.7990 45.48 59.15 6.74
16803 21.8000 47.72 59.27 6.97
16804 21.8010 47.66 59.40 6.99
16805 21.8020 47.20 59.53 6.91
16806 21.8030 41.27 59.66 6.45
16807 21.8040 49.00 59.80 7.04
16808 21.8050 44.65 59.95 6.74
16809 21.8060 45.81 60.10 6.85
16810 21.8070 43.15 60.26 6.61
16811 21.8080 42.34 60.42 6.54
16812 21.8090 59.15 60.59 7.71
16813 21.8100 46.81 60.77 6.93
16814 21.8110 46.68 60.96 6.91
16815 21.8120 43.35 61.15 6.64
16816 21.8130 41.52 61.35 6.46
16817 21.8140 42.59 61.55 6.56
16818 21.8150 46.15 61.77 6.84
16819 21.8160 50.16 62.00 7.13
16820 21.8170 55.12 62.25 7.43
16821 21.8180 54.01 62.48 7.34
16822 21.8190 47.03 62.75 6.89
16823 21.8200 59.47 63.03 7.79
16824 21.8210 51.31 63.32 7.26
16825 21.8220 48.53 63.62 7.05
16826 21.8230 61.33 63.95 7.85
16827 21.8240 53.43 64.28 7.31
16828 21.8250 44.94 64.64 6.76
16829 21.8260 60.20 65.01 7.79
16830 21.8270 53.50 65.41 7.33
16831 21.8280 44.73 65.83 6.69
16832 21.8290 54.64 66.27 7.44
16833 21.8300 50.90 66.73 7.22
16834 21.8310 58.25 67.22 7.74
16835 21.8320 63.68 67.74 8.05
16836 21.8330 51.67 68.30 7.23
16837 21.8340 58.96 68.88 7.71
16838 21.8350 56.07 69.51 7.55
16839 21.8360 66.46 70.17 8.23
16840 21.8370 56.74 70.88 7.58
16841 21.8380 64.14 71.63 7.99
16842 21.8390 66.23 72.44 8.13
16843 21.8400 65.61 73.30 8.15
16844 21.8410 42.73 74.22 6.63
16845 21.8420 58.00 75.21 7.66
16846 21.8430 71.63 76.27 8.48
16847 21.8440 54.21 77.41 7.37
16848 21.8450 77.41 78.65 8.87
16849 21.8460 71.00 79.98 8.48
16850 21.8470 73.29 81.42 8.59
16851 21.8480 56.92 82.99 7.54
16852 21.8490 80.14 84.69 8.96
16853 21.8500 93.02 86.54 9.71
16854 21.8510 82.17 88.57 9.16
16855 21.8520 75.87 90.78 8.79
16856 21.8530 84.40 93.21 9.23
16857 21.8540 82.50 95.89 9.12
16858 21.8550 90.78 98.85 9.59
16859 21.8560 89.83 102.13 9.55
16860 21.8570 105.76 105.77 10.33
16861 21.8580 94.83 109.83 9.76
16862 21.8590 95.66 114.40 9.84
16863 21.8600 100.25 119.53 10.14
16864 21.8610 128.83 125.36 11.51
16865 21.8620 108.78 132.01 10.47
16866 21.8630 151.40 139.65 12.37
16867 21.8640 152.94 148.53 12.34
16868 21.8650 164.60 159.01 12.85
16869 21.8660 167.86 171.45 13.02
16870 21.8670 185.84 186.42 13.62
16871 21.8680 188.38 204.73 13.69
16872 21.8690 227.26 227.26 15.07
16873 21.8700 252.31 255.01 16.01
16874 21.8710 306.86 289.45 17.76
16875 21.8720 357.53 332.05 18.98
16876 21.8730 373.20 384.27 19.32
16877 21.8740 429.01 447.80 20.71
16878 21.8750 468.45 523.71 21.61
16879 21.8760 528.28 612.34 23.09
16880 21.8770 645.77 712.27 25.44
16881 21.8780 745.14 819.87 27.30
16882 21.8790 945.02 928.54 30.85
16883 21.8800 1121.18 1027.83 33.90
16884 21.8810 1112.01 1107.84 33.85
16885 21.8820 1171.99 1160.58 34.56
16886 21.8830 1256.14 1180.91 35.70
16887 21.8840 1288.27 1167.57 36.01
16888 21.8850 1183.96 1121.84 34.72
16889 21.8860 1033.86 1047.92 32.37
16890 21.8870 815.44 953.16 28.46
16891 21.8880 756.91 846.76 27.44
16892 21.8890 688.22 738.65 26.30
16893 21.8900 650.11 636.73 25.61
16894 21.8910 526.58 545.22 23.14
16895 21.8920 469.25 466.29 21.77
16896 21.8930 370.71 399.71 19.23
16897 21.8940 325.89 344.65 18.01
16898 21.8950 307.96 299.77 17.63
16899 21.8960 259.62 263.33 16.17
16900 21.8970 269.82 233.91 16.37
16901 21.8980 218.51 210.17 14.71
16902 21.8990 180.31 190.89 13.40
16903 21.9000 163.20 175.06 12.85
16904 21.9010 163.38 162.00 12.91
16905 21.9020 133.77 151.06 11.64
16906 21.9030 145.46 141.75 12.14
16907 21.9040 131.93 133.80 11.53
16908 21.9050 106.35 126.89 10.40
16909 21.9060 100.09 120.85 10.08
16910 21.9070 111.01 115.55 10.56
16911 21.9080 84.35 110.83 9.16
16912 21.9090 86.03 106.64 9.30
16913 21.9100 88.57 102.88 9.51
16914 21.9110 82.73 99.50 9.21
16915 21.9120 78.47 96.46 8.92
16916 21.9130 90.31 93.71 9.53
16917 21.9140 56.09 91.20 7.51
16918 21.9150 79.66 88.93 8.97
16919 21.9160 64.14 86.85 8.06
16920 21.9170 69.32 84.94 8.32
16921 21.9180 61.31 83.20 7.83
16922 21.9190 74.45 81.59 8.61
16923 21.9200 50.88 80.11 7.17
16924 21.9210 63.94 78.74 8.09
16925 21.9220 62.08 77.48 7.93
16926 21.9230 65.16 76.30 8.09
16927 21.9240 63.93 75.21 7.98
16928 21.9250 53.22 74.19 7.32
16929 21.9260 51.49 73.25 7.23
16930 21.9270 55.76 72.36 7.48
16931 21.9280 54.31 71.54 7.37
16932 21.9290 52.58 70.76 7.31
16933 21.9300 58.56 70.04 7.73
16934 21.9310 57.02 69.36 7.67
16935 21.9320 57.23 68.72 7.63
16936 21.9330 44.71 68.12 6.75
16937 21.9340 57.69 67.55 7.64
16938 21.9350 55.74 67.02 7.51
16939 21.9360 63.81 66.52 8.02
16940 21.9370 51.04 66.04 7.17
16941 21.9380 65.54 65.59 8.09
16942 21.9390 48.51 65.17 6.98
16943 21.9400 42.88 64.76 6.59
16944 21.9410 62.13 64.37 8.01
16945 21.9420 62.71 64.00 7.96
16946 21.9430 51.86 63.65 7.20
16947 21.9440 58.76 63.31 7.64
16948 21.9450 54.78 62.99 7.44
16949 21.9460 54.44 62.68 7.42
16950 21.9470 52.94 62.39 7.29
16951 21.9480 56.26 62.10 7.48
16952 21.9490 50.43 61.83 7.12
16953 21.9500 54.37 61.58 7.44
16954 21.9510 50.87 61.33 7.20
16955 21.9520 43.58 61.10 6.64
16956 21.9530 49.67 60.88 7.10
16957 21.9540 42.97 60.66 6.60
16958 21.9550 47.94 60.46 6.99
16959 21.9560 46.61 60.26 6.90
16960 21.9570 57.37 60.07 7.61
16961 21.9580 36.36 59.89 6.06
16962 21.9590 45.07 59.71 6.74
16963 21.9600 59.92 59.55 7.85
16964 21.9610 48.04 59.38 7.00
16965 21.9620 48.76 59.23 7.04
16966 21.9630 56.19 59.08 7.51
16967 21.9640 48.25 58.93 6.97
16968 21.9650 50.74 58.80 7.16
16969 21.9660 59.92 58.66 7.78
16970 21.9670 42.77 58.53 6.53
16971 21.9680 43.67 58.41 6.60
16972 21.9690 58.57 58.28 7.65
16973 21.9700 41.13 58.17 6.49
16974 21.9710 45.55 58.06 6.84
16975 21.9720 50.75 57.95 7.17
16976 21.9730 44.92 57.84 6.72
16977 21.9740 50.89 57.74 7.16
16978 21.9750 48.83 57.64 7.02
16979 21.9760 50.95 57.54 7.21
16980 21.9770 40.57 57.45 6.41
16981 21.9780 53.20 57.36 7.31
16982 21.9790 57.07 57.27 7.61
16983 21.9800 49.21 57.19 7.08
16984 21.9810 43.20 57.10 6.69
16985 21.9820 44.51 57.03 6.75
16986 21.9830 43.30 56.95 6.62
16987 21.9840 47.78 56.87 6.94
16988 21.9850 52.13 56.80 7.26
16989 21.9860 55.59 56.73 7.52
16990 21.9870 52.35 56.66 7.24
16991 21.9880 37.58 56.59 6.11
16992 21.9890 42.35 56.53 6.54
16993 21.9900 47.12 56.46 6.90
16994 21.9910 47.26 56.40 6.97
16995 21.9920 48.83 56.34 7.04
16996 21.9930 42.11 56.28 6.52
16997 21.9940 40.42 56.23 6.39
16998 21.9950 43.05 56.17 6.61
16999 21.9960 53.31 56.12 7.35
17000 21.9970 54.23 56.06 7.38
17001 21.9980 41.70 56.01 6.46
17002 21.9990 40.19 55.96 6.36
17003 22.0000 55.75 55.91 7.54
17004 22.0010 55.31 55.87 7.55
17005 22.0020 47.82 55.82 7.02
17006 22.0030 40.26 55.77 6.41
17007 22.0040 52.51 55.73 7.30
17008 22.0050 53.92 55.69 7.42
17009 22.0060 46.09 55.64 6.88
17010 22.0070 54.16 55.60 7.41
17011 22.0080 43.22 55.56 6.60
17012 22.0090 43.07 55.52 6.60
17013 22.0100 54.02 55.49 7.45
17014 22.0110 40.17 55.45 6.44
17015 22.0120 39.48 55.41 6.33
17016 22.0130 55.37 55.38 7.47
17017 22.0140 48.66 55.34 6.99
17018 22.0150 37.78 55.31 6.20
17019 22.0160 40.44 55.28 6.41
17020 22.0170 35.41 55.24 5.98
17021 22.0180 44.98 55.21 6.74
17022 22.0190 34.82 55.18 5.94
17023 22.0200 49.58 55.15 7.11
17024 22.0210 42.27 55.12 6.60
17025 22.0220 46.71 55.09 6.90
17026 22.0230 54.44 55.07 7.41
17027 22.0240 41.94 55.04 6.49
17028 22.0250 48.48 55.01 7.02
17029 22.0260 52.16 54.98 7.29
17030 22.0270 44.68 54.96 6.72
17031 22.0280 45.88 54.93 6.80
17032 22.0290 62.64 54.91 7.94
17033 22.0300 52.54 54.89 7.35
17034 22.0310 41.25 54.86 6.55
17035 22.0320 43.27 54.84 6.64
17036 22.0330 57.31 54.82 7.62
17037 22.0340 51.02 54.80 7.19
17038 22.0350 57.67 54.78 7.64
17039 22.0360 46.23 54.75 6.84
17040 22.0370 47.69 54.73 6.91
17041 22.0380 51.67 54.72 7.19
17042 22.0390 46.40 54.70 6.83
17043 22.0400 53.15 54.68 7.36
17044 22.0410 54.09 54.66 7.43
17045 22.0420 48.85 54.64 7.09
17046 22.0430 51.83 54.62 7.21
17047 22.0440 40.02 54.61 6.36
17048 22.0450 60.30 54.59 7.80
17049 22.0460 50.10 54.58 7.14
17050 22.0470 44.18 54.56 6.66
17051 22.0480 46.88 54.55 6.85
17052 22.0490 41.67 54.53 6.46
17053 22.0500 46.77 54.52 6.89
17054 22.0510 52.43 54.50 7.36
17055 22.0520 49.15 54.49 7.06
17056 22.0530 59.27 54.48 7.75
17057 22.0540 45.26 54.47 6.75
17058 22.0550 36.09 54.45 6.08
17059 22.0560 49.08 54.44 7.07
17060 22.0570 43.80 54.43 6.64
17061 22.0580 41.00 54.42 6.42
17062 22.0590 37.01 54.41 6.10
17063 22.0600 49.72 54.40 7.14
17064 22.0610 44.77 54.39 6.78
17065 22.0620 40.50 54.38 6.40
17066 22.0630 44.32 54.37 6.70
17067 22.0640 46.70 54.37 6.83
17068 22.0650 42.10 54.36 6.54
17069 22.0660 50.21 54.35 7.13
17070 22.0670 42.88 54.35 6.58
17071 22.0680 36.95 54.34 6.08
17072 22.0690 43.44 54.34 6.62
17073 22.0700 45.35 54.33 6.81
17074 22.0710 40.61 54.33 6.47
17075 22.0720 56.17 54.32 7.57
17076 22.0730 36.17 54.32 6.04
17077 22.0740 33.23 54.32 5.77
17078 22.0750 49.68 54.31 7.10
17079 22.0760 53.97 54.31 7.41
17080 22.0770 51.05 54.31 7.16
17081 22.0780 54.78 54.31 7.39
17082 22.0790 47.23 54.31 6.90
17083 22.0800 40.87 54.31 6.47
17084 22.0810 36.41 54.31 6.15
17085 22.0820 59.33 54.31 7.77
17086 22.0830 47.74 54.32 6.94
17087 22.0840 40.64 54.32 6.40
17088 22.0850 55.00 54.32 7.47
17089 22.0860 46.00 54.33 6.82
17090 22.0870 45.23 54.33 6.73
17091 22.0880 46.02 54.34 6.77
17092 22.0890 41.04 54.35 6.41
17093 22.0900 52.89 54.35 7.33
17094 22.0910 48.42 54.36 7.05
17095 22.0920 51.52 54.37 7.23
17096 22.0930 37.69 54.38 6.18
17097 22.0940 34.54 54.39 5.93
17098 22.0950 47.93 54.41 6.96
17099 22.0960 43.30 54.42 6.62
17100 22.0970 50.11 54.44 7.10
17101 22.0980 41.65 54.45 6.41
17102 22.0990 58.74 54.47 7.68
17103 22.1000 40.94 54.49 6.45
17104 22.1010 49.54 54.51 7.13
17105 22.1020 36.04 54.53 6.07
17106 22.1030 44.62 54.56 6.72
17107 22.1040 45.97 54.58 6.81
17108 22.1050 33.61 54.61 5.86
17109 22.1060 55.14 54.64 7.47
17110 22.1070 46.75 54.67 6.88
17111 22.1080 45.85 54.71 6.76
17112 22.1090 33.28 54.74 5.78
17113 22.1100 47.37 54.78 6.96
17114 22.1110 44.41 54.83 6.73
17115 22.1120 41.49 54.87 6.49
17116 22.1130 61.97 54.92 7.89
17117 22.1140 56.33 54.97 7.52
17118 22.1150 42.47 55.03 6.56
17119 22.1160 42.00 55.09 6.53
17120 22.1170 52.28 55.16 7.21
17121 22.1180 40.11 55.23 6.33
17122 22.1190 41.01 55.30 6.38
17123 22.1200 42.44 55.39 6.56
17124 22.1210 43.42 55.48 6.65
17125 22.1220 49.72 55.57 7.08
17126 22.1230 49.58 55.68 7.05
17127 22.1240 48.92 55.79 6.99
17128 22.1250 59.61 55.92 7.74
17129 22.1260 54.15 56.06 7.40
17130 22.1270 45.54 56.21 6.79
17131 22.1280 45.69 56.37 6.75
17132 22.1290 42.21 56.55 6.52
17133 22.1300 56.02 56.75 7.56
17134 22.1310 44.70 56.97 6.79
17135 22.1320 43.14 57.21 6.62
17136 22.1330 55.05 57.49 7.44
17137 22.1340 46.81 57.79 6.85
17138 22.1350 49.85 58.14 7.09
17139 22.1360 59.80 58.53 7.77
17140 22.1370 51.26 58.97 7.16
17141 22.1380 44.76 59.48 6.67
17142 22.1390 56.12 60.07 7.51
17143 22.1400 62.96 60.77 7.97
17144 22.1410 44.63 61.59 6.75
17145 22.1420 54.57 62.58 7.42
17146 22.1430 62.86 63.78 7.93
17147 22.1440 61.81 65.26 7.85
17148 22.1450 62.73 67.08 7.91
17149 22.1460 62.91 69.34 7.94
17150 22.1470 62.23 72.12 7.89
17151 22.1480 71.91 75.52 8.44
17152 22.1490 76.01 79.65 8.69
17153 22.1500 73.47 84.60 8.62
17154 22.1510 58.88 90.34 7.76
17155 22.1520 89.32 96.83 9.51
17156 22.1530 115.01 103.84 10.75
17157 22.1540 92.22 110.89 9.63
17158 22.1550 99.99 117.39 10.07
17159 22.1560 100.93 122.69 10.10
17160 22.1570 113.35 126.15 10.66
17161 22.1580 113.29 127.35 10.60
17162 22.1590 114.83 126.06 10.69
17163 22.1600 106.79 122.39 10.37
17164 22.1610 80.52 116.79 9.05
17165 22.1620 98.63 110.00 9.92
17166 22.1630 90.93 102.80 9.48
17167 22.1640 88.95 95.82 9.43
17168 22.1650 71.85 89.48 8.47
17169 22.1660 70.11 83.95 8.40
17170 22.1670 69.68 79.24 8.32
17171 22.1680 47.90 75.35 6.90
17172 22.1690 60.13 72.17 7.77
17173 22.1700 66.84 69.59 8.23
17174 22.1710 76.46 67.53 8.86
17175 22.1720 54.81 65.89 7.43
17176 22.1730 57.51 64.57 7.59
17177 22.1740 60.02 63.52 7.74
17178 22.1750 44.65 62.67 6.72
17179 22.1760 58.73 61.97 7.71
17180 22.1770 49.16 61.41 7.03
17181 22.1780 48.09 60.94 6.92
17182 22.1790 55.04 60.55 7.45
17183 22.1800 54.00 60.24 7.45
17184 22.1810 57.42 59.97 7.69
17185 22.1820 48.46 59.76 7.04
17186 22.1830 51.13 59.59 7.17
17187 22.1840 41.91 59.46 6.48
17188 22.1850 51.27 59.36 7.19
17189 22.1860 61.01 59.29 7.86
17190 22.1870 47.15 59.25 6.87
17191 22.1880 46.27 59.24 6.76
17192 22.1890 46.21 59.25 6.82
17193 22.1900 44.99 59.29 6.78
17194 22.1910 33.34 59.35 5.86
17195 22.1920 48.88 59.44 7.04
17196 22.1930 47.63 59.54 6.92
17197 22.1940 53.87 59.68 7.36
17198 22.1950 51.30 59.83 7.19
17199 22.1960 50.44 60.01 7.13
17200 22.1970 49.35 60.22 7.01
17201 22.1980 47.90 60.45 6.90
17202 22.1990 48.62 60.71 7.00
17203 22.2000 49.86 61.00 7.11
17204 22.2010 45.64 61.33 6.86
17205 22.2020 46.98 61.69 6.94
17206 22.2030 52.79 62.09 7.33
17207 22.2040 45.99 62.53 6.79
17208 22.2050 51.93 63.02 7.28
17209 22.2060 56.45 63.56 7.57
17210 22.2070 52.06 64.15 7.23
17211 22.2080 57.02 64.81 7.54
17212 22.2090 61.62 65.54 7.84
17213 22.2100 64.97 66.35 8.10
17214 22.2110 53.59 67.25 7.40
17215 22.2120 69.33 68.26 8.36
17216 22.2130 69.72 69.38 8.37
17217 22.2140 64.70 70.64 8.04
17218 22.2150 56.19 72.06 7.54
17219 22.2160 64.26 73.66 8.07
17220 22.2170 77.67 75.48 8.79
17221 22.2180 58.00 77.56 7.61
17222 22.2190 73.87 79.96 8.59
17223 22.2200 75.36 82.74 8.73
17224 22.2210 82.26 86.00 9.17
17225 22.2220 75.60 89.90 8.74
17226 22.2230 81.70 94.58 9.04
17227 22.2240 103.76 100.29 10.17
17228 22.2250 99.16 107.34 10.00
17229 22.2260 118.98 116.11 11.00
17230 22.2270 125.18 127.04 11.24
17231 22.2280 133.79 140.67 11.52
17232 22.2290 149.34 157.56 12.23
17233 22.2300 163.36 178.21 12.92
17234 22.2310 214.32 203.18 14.83
17235 22.2320 213.59 232.65 14.69
17236 22.2330 250.87 266.65 15.87
17237 22.2340 291.27 304.11 17.03
17238 22.2350 352.44 343.04 18.82
17239 22.2360 395.14 379.78 19.88
17240 22.2370 422.43 408.61 20.38
17241 22.2380 451.38 423.83 21.13
17242 22.2390 439.02 421.76 20.90
17243 22.2400 409.40 402.88 20.35
17244 22.2410 395.76 371.69 20.03
17245 22.2420 348.62 334.04 18.78
17246 22.2430 293.97 295.10 17.14
17247 22.2440 285.67 258.31 16.94
17248 22.2450 239.04 225.31 15.51
17249 22.2460 193.87 196.86 13.97
17250 22.2470 167.86 172.87 12.88
17251 22.2480 132.01 152.97 11.44
17252 22.2490 119.68 136.88 10.94
17253 22.2500 122.05 123.87 11.12
17254 22.2510 115.05 113.34 10.84
17255 22.2520 102.11 104.98 10.18
17256 22.2530 95.48 98.15 9.82
17257 22.2540 95.73 92.64 9.79
17258 22.2550 69.72 88.13 8.40
17259 22.2560 66.31 84.36 8.21
17260 22.2570 68.57 81.17 8.25
17261 22.2580 66.15 78.45 8.10
17262 22.2590 73.70 76.10 8.56
17263 22.2600 73.18 74.04 8.60
17264 22.2610 70.26 72.24 8.44
17265 22.2620 66.34 70.64 8.16
17266 22.2630 66.74 69.22 8.18
17267 22.2640 58.37 67.95 7.61
17268 22.2650 58.03 66.81 7.66
17269 22.2660 60.01 65.78 7.78
17270 22.2670 55.07 64.85 7.42
17271 22.2680 60.95 64.01 7.80
17272 22.2690 50.47 63.24 7.09
17273 22.2700 48.95 62.55 7.05
17274 22.2710 61.26 61.91 7.88
17275 22.2720 44.65 61.32 6.73
17276 22.2730 41.33 60.78 6.46
17277 22.2740 50.38 60.29 7.12
17278 22.2750 52.38 59.83 7.26
17279 22.2760 45.43 59.41 6.80
17280 22.2770 53.02 59.01 7.30
17281 22.2780 54.49 58.65 7.38
17282 22.2790 63.43 58.31 7.97
17283 22.2800 49.96 57.99 7.13
17284 22.2810 52.73 57.70 7.35
17285 22.2820 49.04 57.42 7.07
17286 22.2830 44.73 57.16 6.71
17287 22.2840 47.52 56.92 6.92
17288 22.2850 51.81 56.69 7.23
17289 22.2860 56.82 56.48 7.55
17290 22.2870 36.16 56.28 6.00
17291 22.2880 38.74 56.08 6.23
17292 22.2890 48.65 55.90 6.97
17293 22.2900 46.63 55.73 6.88
17294 22.2910 41.32 55.57 6.51
17295 22.2920 56.39 55.42 7.58
17296 22.2930 53.15 55.28 7.33
17297 22.2940 40.93 55.14 6.41
17298 22.2950 44.25 55.01 6.69
17299 22.2960 45.49 54.88 6.77
17300 22.2970 52.27 54.76 7.22
17301 22.2980 48.26 54.65 6.90
17302 22.2990 40.32 54.54 6.34
17303 22.3000 40.71 54.44 6.45
17304 22.3010 48.87 54.34 7.07
17305 22.3020 42.95 54.25 6.60
17306 22.3030 42.85 54.16 6.60
17307 22.3040 47.73 54.07 6.94
17308 22.3050 35.49 53.99 6.00
17309 22.3060 48.74 53.91 7.03
17310 22.3070 48.06 53.83 6.92
17311 22.3080 56.48 53.76 7.52
17312 22.3090 37.00 53.69 6.07
17313 22.3100 50.40 53.62 7.16
17314 22.3110 40.79 53.55 6.45
17315 22.3120 40.09 53.49 6.36
17316 22.3130 40.70 53.43 6.38
17317 22.3140 41.55 53.37 6.45
17318 22.3150 39.01 53.32 6.28
17319 22.3160 44.34 53.26 6.68
17320 22.3170 40.52 53.21 6.39
17321 22.3180 45.50 53.16 6.72
17322 22.3190 55.89 53.11 7.43
17323 22.3200 42.72 53.06 6.54
17324 22.3210 49.04 53.01 7.06
17325 22.3220 43.90 52.97 6.66
17326 22.3230 45.38 52.93 6.73
17327 22.3240 48.39 52.88 6.97
17328 22.3250 52.50 52.84 7.30
17329 22.3260 44.38 52.80 6.71
17330 22.3270 36.18 52.77 6.04
17331 22.3280 52.15 52.73 7.22
17332 22.3290 48.09 52.69 6.93
17333 22.3300 44.43 52.66 6.73
17334 22.3310 49.48 52.62 7.12
17335 22.3320 33.19 52.59 5.81
17336 22.3330 50.95 52.56 7.13
17337 22.3340 43.99 52.52 6.63
17338 22.3350 43.69 52.49 6.60
17339 22.3360 43.65 52.46 6.64
17340 22.3370 40.82 52.43 6.38
17341 22.3380 42.02 52.40 6.45
17342 22.3390 58.05 52.38 7.59
17343 22.3400 47.21 52.35 6.93
17344 22.3410 49.51 52.32 7.12
17345 22.3420 53.95 52.30 7.37
17346 22.3430 48.21 52.27 6.95
17347 22.3440 44.58 52.25 6.67
17348 22.3450 49.46 52.22 7.04
17349 22.3460 40.31 52.20 6.38
17350 22.3470 36.65 52.18 6.04
17351 22.3480 52.45 52.15 7.21
17352 22.3490 42.58 52.13 6.53
17353 22.3500 44.72 52.11 6.76
17354 22.3510 53.26 52.09 7.38
17355 22.3520 38.90 52.07 6.31
17356 22.3530 35.49 52.05 5.98
17357 22.3540 37.99 52.03 6.19
17358 22.3550 50.36 52.01 7.15
17359 22.3560 51.68 51.99 7.22
17360 22.3570 51.59 51.97 7.19
17361 22.3580 56.84 51.95 7.49
17362 22.3590 46.00 51.93 6.77
17363 22.3600 40.03 51.91 6.35
17364 22.3610 42.71 51.90 6.60
17365 22.3620 38.83 51.88 6.23
17366 22.3630 52.77 51.86 7.28
17367 22.3640 44.19 51.85 6.66
17368 22.3650 49.10 51.83 7.01
17369 22.3660 43.94 51.81 6.63
17370 22.3670 39.64 51.80 6.29
17371 22.3680 42.24 51.78 6.48
17372 22.3690 40.20 51.77 6.34
17373 22.3700 52.71 51.75 7.27
17374 22.3710 52.02 51.74 7.27
17375 22.3720 42.98 51.72 6.58
17376 22.3730 38.04 51.71 6.20
17377 22.3740 47.06 51.69 6.88
17378 22.3750 42.54 51.68 6.54
17379 22.3760 48.87 51.67 7.04
17380 22.3770 48.28 51.65 6.96
17381 22.3780 47.30 51.64 6.83
17382 22.3790 45.91 51.63 6.77
17383 22.3800 35.01 51.62 5.98
17384 22.3810 33.16 51.60 5.86
17385 22.3820 37.57 51.59 6.18
17386 22.3830 49.55 51.58 7.03
17387 22.3840 50.52 51.57 7.12
17388 22.3850 47.67 51.56 6.92
17389 22.3860 43.06 51.55 6.58
17390 22.3870 43.01 51.54 6.53
17391 22.3880 42.81 51.53 6.52
17392 22.3890 43.63 51.51 6.61
17393 22.3900 50.51 51.50 7.14
17394 22.3910 50.92 51.49 7.22
17395 22.3920 46.57 51.49 6.87
17396 22.3930 37.58 51.48 6.15
17397 22.3940 45.67 51.47 6.76
17398 22.3950 48.83 51.46 7.01
17399 22.3960 42.90 51.45 6.55
17400 22.3970 38.18 51.44 6.20
17401 22.3980 37.95 51.43 6.14
17402 22.3990 40.87 51.43 6.42
17403 22.4000 42.05 51.42 6.55
17404 22.4010 41.91 51.41 6.58
17405 22.4020 40.60 51.41 6.45
17406 22.4030 46.64 51.40 6.85
17407 22.4040 33.77 51.40 5.85
17408 22.4050 34.36 51.39 5.91
17409 22.4060 44.88 51.39 6.75
17410 22.4070 42.18 51.38 6.50
17411 22.4080 57.95 51.38 7.57
17412 22.4090 54.34 51.38 7.35
17413 22.4100 50.92 51.38 7.17
17414 22.4110 46.14 51.38 6.86
17415 22.4120 48.78 51.38 7.00
17416 22.4130 41.92 51.38 6.50
17417 22.4140 41.02 51.38 6.41
17418 22.4150 41.79 51.39 6.51
17419 22.4160 56.34 51.40 7.55
17420 22.4170 43.01 51.41 6.55
17421 22.4180 48.93 51.42 6.97
17422 22.4190 42.20 51.43 6.47
17423 22.4200 30.67 51.45 5.58
17424 22.4210 44.46 51.48 6.73
17425 22.4220 41.39 51.51 6.48
17426 22.4230 58.00 51.55 7.64
17427 22.4240 43.30 51.59 6.61
17428 22.4250 40.60 51.65 6.40
17429 22.4260 54.69 51.73 7.46
17430 22.4270 49.35 51.82 7.02
17431 22.4280 47.70 51.94 6.90
17432 22.4290 46.32 52.09 6.78
17433 22.4300 57.48 52.27 7.63
17434 22.4310 55.61 52.49 7.53
17435 22.4320 44.81 52.75 6.72
17436 22.4330 54.15 53.04 7.34
17437 22.4340 45.24 53.37 6.73
17438 22.4350 46.80 53.71 6.86
17439 22.4360 35.82 54.03 6.02
17440 22.4370 46.58 54.29 6.80
17441 22.4380 52.08 54.49 7.18
17442 22.4390 55.49 54.60 7.44
17443 22.4400 40.34 54.65 6.42
17444 22.4410 36.72 54.66 6.13
17445 22.4420 46.24 54.61 6.85
17446 22.4430 51.98 54.50 7.22
17447 22.4440 58.41 54.31 7.63
17448 22.4450 52.40 54.04 7.27
17449 22.4460 53.17 53.71 7.29
17450 22.4470 46.85 53.35 6.82
17451 22.4480 35.42 53.00 5.94
17452 22.4490 43.51 52.68 6.61
17453 22.4500 42.65 52.40 6.59
17454 22.4510 44.63 52.15 6.77
17455 22.4520 41.53 51.95 6.51
17456 22.4530 49.10 51.77 7.04
17457 22.4540 35.61 51.63 5.99
17458 22.4550 45.73 51.51 6.80
17459 22.4560 47.19 51.42 6.88
17460 22.4570 49.84 51.34 7.07
17461 22.4580 53.85 51.27 7.27
17462 22.4590 49.28 51.21 6.99
17463 22.4600 46.51 51.17 6.88
17464 22.4610 38.64 51.12 6.30
17465 22.4620 45.97 51.09 6.82
17466 22.4630 52.66 51.05 7.27
17467 22.4640 53.85 51.03 7.36
17468 22.4650 45.84 51.00 6.81
17469 22.4660 42.13 50.97 6.54
17470 22.4670 47.81 50.95 6.90
17471 22.4680 46.24 50.93 6.79
17472 22.4690 38.79 50.91 6.23
17473 22.4700 47.13 50.90 6.91
17474 22.4710 49.87 50.88 7.14
17475 22.4720 38.85 50.86 6.31
17476 22.4730 42.50 50.85 6.55
17477 22.4740 47.11 50.84 6.91
17478 22.4750 47.59 50.83 6.94
17479 22.4760 38.97 50.82 6.29
17480 22.4770 41.53 50.81 6.47
17481 22.4780 40.40 50.80 6.35
17482 22.4790 37.54 50.79 6.14
17483 22.4800 57.15 50.79 7.62
17484 22.4810 40.78 50.78 6.46
17485 22.4820 38.33 50.78 6.23
17486 22.4830 47.63 50.78 6.90
17487 22.4840 42.04 50.77 6.50
17488 22.4850 48.26 50.76 6.97
17489 22.4860 42.35 50.75 6.56
17490 22.4870 41.89 50.74 6.48
17491 22.4880 50.60 50.72 7.10
17492 22.4890 46.01 50.70 6.80
17493 22.4900 43.10 50.69 6.61
17494 22.4910 46.05 50.67 6.87
17495 22.4920 41.70 50.66 6.48
17496 22.4930 51.09 50.64 7.17
17497 22.4940 48.00 50.63 6.96
17498 22.4950 45.01 50.62 6.74
17499 22.4960 49.52 50.61 7.09
17500 22.4970 43.78 50.59 6.63
17501 22.4980 55.16 50.58 7.42
17502 22.4990 37.81 50.58 6.14
17503 22.5000 46.38 50.57 6.88
17504 22.5010 41.70 50.56 6.55
17505 22.5020 48.86 50.55 7.05
17506 22.5030 38.36 50.54 6.23
17507 22.5040 38.91 50.53 6.26
17508 22.5050 46.74 50.52 6.88
17509 22.5060 45.98 50.51 6.82
17510 22.5070 46.12 50.51 6.78
17511 22.5080 41.48 50.50 6.42
17512 22.5090 43.41 50.49 6.58
17513 22.5100 39.97 50.48 6.39
17514 22.5110 43.68 50.48 6.68
17515 22.5120 39.59 50.47 6.35
17516 22.5130 41.59 50.46 6.50
17517 22.5140 31.72 50.45 5.66
17518 22.5150 43.35 50.45 6.62
17519 22.5160 37.22 50.44 6.15
17520 22.5170 52.07 50.43 7.20
17521 22.5180 40.38 50.42 6.33
17522 22.5190 39.94 50.42 6.31
17523 22.5200 35.63 50.41 6.01
17524 22.5210 41.75 50.40 6.56
17525 22.5220 41.52 50.40 6.51
17526 22.5230 39.71 50.39 6.34
17527 22.5240 46.47 50.38 6.83
17528 22.5250 47.06 50.37 6.89
17529 22.5260 47.38 50.36 6.96
17530 22.5270 36.39 50.36 6.07
17531 22.5280 40.47 50.34 6.37
17532 22.5290 43.07 50.34 6.59
17533 22.5300 51.80 50.32 7.28
17534 22.5310 42.94 50.32 6.65
17535 22.5320 38.59 50.31 6.26
17536 22.5330 45.84 50.30 6.78
17537 22.5340 53.35 50.30 7.29
17538 22.5350 54.70 50.29 7.43
17539 22.5360 52.99 50.28 7.32
17540 22.5370 41.44 50.28 6.45
17541 22.5380 43.94 50.27 6.63
17542 22.5390 38.14 50.26 6.19
17543 22.5400 41.30 50.26 6.49
17544 22.5410 42.27 50.25 6.57
17545 22.5420 52.75 50.24 7.31
17546 22.5430 50.21 50.24 7.12
17547 22.5440 41.18 50.23 6.43
17548 22.5450 39.17 50.23 6.31
17549 22.5460 49.16 50.22 7.06
17550 22.5470 50.27 50.21 7.15
17551 22.5480 42.68 50.21 6.55
17552 22.5490 42.34 50.20 6.54
17553 22.5500 48.80 50.19 7.05
17554 22.5510 45.78 50.19 6.87
17555 22.5520 54.05 50.18 7.41
17556 22.5530 34.89 50.17 5.96
17557 22.5540 37.44 50.17 6.14
17558 22.5550 48.75 50.16 7.01
17559 22.5560 47.55 50.16 6.94
17560 22.5570 46.76 50.15 6.86
17561 22.5580 41.58 50.14 6.45
17562 22.5590 41.59 50.14 6.46
17563 22.5600 48.85 50.13 7.03
17564 22.5610 53.66 50.12 7.41
17565 22.5620 51.71 50.12 7.26
17566 22.5630 42.90 50.11 6.58
17567 22.5640 40.43 50.11 6.39
17568 22.5650 49.69 50.10 7.08
17569 22.5660 43.00 50.09 6.61
17570 22.5670 36.36 50.09 6.05
17571 22.5680 41.74 50.08 6.45
17572 22.5690 49.13 50.07 7.02
17573 22.5700 54.43 50.07 7.45
17574 22.5710 44.90 50.06 6.78
17575 22.5720 44.46 50.06 6.75
17576 22.5730 40.16 50.05 6.38
17577 22.5740 49.81 50.04 7.12
17578 22.5750 44.99 50.04 6.76
17579 22.5760 49.84 50.03 7.12
17580 22.5770 38.02 50.03 6.20
17581 22.5780 41.46 50.02 6.47
17582 22.5790 40.56 50.01 6.40
17583 22.5800 42.84 50.01 6.60
17584 22.5810 31.30 50.00 5.67
17585 22.5820 45.50 50.00 6.81
17586 22.5830 46.99 49.99 6.86
17587 22.5840 42.23 49.98 6.50
17588 22.5850 43.34 49.98 6.62
17589 22.5860 42.61 49.97 6.59
17590 22.5870 37.98 49.97 6.16
17591 22.5880 36.09 49.96 6.00
17592 22.5890 42.11 49.95 6.50
17593 22.5900 38.68 49.95 6.33
17594 22.5910 45.16 49.94 6.78
17595 22.5920 44.04 49.94 6.72
17596 22.5930 48.60 49.93 7.00
17597 22.5940 34.19 49.92 5.88
17598 22.5950 48.82 49.92 7.02
17599 22.5960 52.00 49.91 7.28
17600 22.5970 45.48 49.90 6.75
17601 22.5980 37.20 49.90 6.11
17602 22.5990 51.14 49.89 7.15
17603 22.6000 38.49 49.89 6.28
17604 22.6010 35.58 49.88 6.08
17605 22.6020 49.05 49.88 7.08
17606 22.6030 32.30 49.87 5.75
17607 22.6040 44.14 49.86 6.66
17608 22.6050 55.21 49.86 7.46
17609 22.6060 40.55 49.85 6.42
17610 22.6070 44.58 49.85 6.70
17611 22.6080 42.69 49.84 6.49
17612 22.6090 40.91 49.75 6.38
17613 22.6100 38.65 49.75 6.30
17614 22.6110 42.48 49.74 6.59
17615 22.6120 44.32 49.74 6.72
17616 22.6130 43.41 49.73 6.63
17617 22.6140 46.49 49.72 6.86
17618 22.6150 41.69 49.72 6.51
17619 22.6160 45.41 49.71 6.79
17620 22.6170 44.46 49.71 6.67
17621 22.6180 46.11 49.70 6.78
17622 22.6190 46.76 49.70 6.83
17623 22.6200 39.59 49.69 6.34
17624 22.6210 37.48 49.69 6.21
17625 22.6220 39.39 49.68 6.34
17626 22.6230 37.24 49.68 6.16
17627 22.6240 42.51 49.67 6.59
17628 22.6250 40.92 49.66 6.44
17629 22.6260 38.41 49.66 6.28
17630 22.6270 39.62 49.65 6.31
17631 22.6280 36.73 49.65 6.06
17632 22.6290 35.15 49.64 5.95
17633 22.6300 40.41 49.64 6.41
17634 22.6310 44.88 49.63 6.77
17635 22.6320 40.19 49.63 6.38
17636 22.6330 50.21 49.62 7.10
17637 22.6340 51.51 49.62 7.20
17638 22.6350 42.19 49.61 6.54
17639 22.6360 37.56 49.60 6.18
17640 22.6370 44.16 49.60 6.67
17641 22.6380 35.52 49.59 5.96
17642 22.6390 45.64 49.59 6.77
17643 22.6400 49.07 49.58 7.05
17644 22.6410 36.89 49.58 6.16
17645 22.6420 43.68 49.57 6.67
17646 22.6430 48.26 49.57 6.94
17647 22.6440 46.75 49.56 6.87
17648 22.6450 52.10 49.56 7.24
17649 22.6460 48.35 49.55 6.99
17650 22.6470 41.02 49.54 6.43
17651 22.6480 53.15 49.54 7.27
17652 22.6490 48.26 49.53 6.95
17653 22.6500 33.59 49.53 5.88
17654 22.6510 32.73 49.52 5.82
17655 22.6520 42.23 49.52 6.57
17656 22.6530 26.65 49.51 5.20
17657 22.6540 40.92 49.51 6.43
17658 22.6550 41.73 49.50 6.51
17659 22.6560 44.98 49.49 6.72
17660 22.6570 52.82 49.49 7.26
17661 22.6580 42.24 49.48 6.49
17662 22.6590 44.47 49.48 6.66
17663 22.6600 44.81 49.47 6.76
17664 22.6610 37.64 49.47 6.22
17665 22.6620 40.12 49.46 6.39
17666 22.6630 45.01 49.46 6.72
17667 22.6640 53.15 49.45 7.30
17668 22.6650 42.92 49.45 6.58
17669 22.6660 41.76 49.44 6.50
17670 22.6670 38.19 49.43 6.19
17671 22.6680 45.87 49.43 6.75
17672 22.6690 41.73 49.42 6.45
17673 22.6700 38.44 49.42 6.24
17674 22.6710 42.60 49.41 6.59
17675 22.6720 50.99 49.41 7.20
17676 22.6730 42.95 49.40 6.59
17677 22.6740 44.06 49.40 6.67
17678 22.6750 31.77 49.39 5.70
17679 22.6760 51.07 49.39 7.20
17680 22.6770 47.13 49.38 6.87
17681 22.6780 36.38 49.37 6.04
17682 22.6790 54.02 49.37 7.35
17683 22.6800 45.30 49.36 6.76
17684 22.6810 43.79 49.36 6.69
17685 22.6820 47.16 49.35 6.91
17686 22.6830 44.09 49.35 6.67
17687 22.6840 48.53 49.34 6.99
17688 22.6850 42.80 49.34 6.58
17689 22.6860 50.97 49.33 7.18
17690 22.6870 42.55 49.33 6.56
17691 22.6880 54.40 49.32 7.34
17692 22.6890 55.00 49.31 7.40
17693 22.6900 44.86 49.31 6.76
17694 22.6910 45.81 49.30 6.87
17695 22.6920 53.38 49.30 7.35
17696 22.6930 48.08 49.29 6.95
17697 22.6940 47.96 49.29 6.93
17698 22.6950 55.72 49.28 7.48
17699 22.6960 50.73 49.28 7.18
17700 22.6970 48.16 49.27 6.95
17701 22.6980 45.07 49.27 6.71
17702 22.6990 52.10 49.26 7.23
17703 22.7000 54.06 49.25 7.43
17704 22.7010 48.17 49.25 7.02
17705 22.7020 36.75 49.24 6.13
17706 22.7030 47.57 49.24 6.92
17707 22.7040 57.61 49.23 7.60
17708 22.7050 44.70 49.23 6.72
17709 22.7060 46.52 49.22 6.85
17710 22.7070 34.84 49.22 5.94
17711 22.7080 33.05 49.21 5.74
17712 22.7090 36.59 49.21 6.05
17713 22.7100 51.83 49.20 7.28
17714 22.7110 45.34 49.19 6.81
17715 22.7120 45.72 49.19 6.81
17716 22.7130 34.09 49.18 5.85
17717 22.7140 39.52 49.18 6.32
17718 22.7150 43.22 49.17 6.60
17719 22.7160 43.91 49.17 6.66
17720 22.7170 42.71 49.16 6.54
17721 22.7180 52.44 49.16 7.22
17722 22.7190 41.08 49.15 6.42
17723 22.7200 42.24 49.14 6.56
17724 22.7210 48.78 49.14 7.06
17725 22.7220 49.42 49.13 7.08
17726 22.7230 44.74 49.13 6.72
17727 22.7240 40.22 49.12 6.39
17728 22.7250 38.30 49.12 6.25
17729 22.7260 45.46 49.11 6.80
17730 22.7270 51.51 49.11 7.18
17731 22.7280 48.96 49.10 6.98
17732 22.7290 40.88 49.10 6.39
17733 22.7300 43.60 49.09 6.65
17734 22.7310 41.29 49.08 6.49
17735 22.7320 45.02 49.08 6.74
17736 22.7330 37.56 49.07 6.16
17737 22.7340 35.52 49.07 5.98
17738 22.7350 43.61 49.06 6.65
17739 22.7360 42.20 49.06 6.54
17740 22.7370 47.21 49.05 6.88
17741 22.7380 55.69 49.05 7.45
17742 22.7390 46.04 49.04 6.77
17743 22.7400 36.82 49.04 6.11
17744 22.7410 54.19 49.03 7.42
17745 22.7420 46.06 49.02 6.84
17746 22.7430 34.79 49.02 5.92
17747 22.7440 40.46 49.01 6.38
17748 22.7450 49.01 49.01 7.01
17749 22.7460 39.79 49.00 6.39
17750 22.7470 50.83 49.00 7.16
17751 22.7480 43.36 48.99 6.59
17752 22.7490 49.79 48.99 7.08
17753 22.7500 42.90 48.98 6.62
17754 22.7510 44.54 48.97 6.77
17755 22.7520 51.29 48.97 7.23
17756 22.7530 41.61 48.96 6.48
17757 22.7540 39.29 48.96 6.28
17758 22.7550 46.76 48.95 6.84
17759 22.7560 47.67 48.95 6.95
17760 22.7570 39.89 48.94 6.31
17761 22.7580 44.62 48.94 6.67
17762 22.7590 37.87 48.93 6.17
17763 22.7600 39.48 48.93 6.36
17764 22.7610 40.99 48.92 6.46
17765 22.7620 45.06 48.91 6.78
17766 22.7630 45.08 48.91 6.74
17767 22.7640 36.62 48.90 6.08
17768 22.7650 45.06 48.90 6.74
17769 22.7660 47.46 48.89 6.92
17770 22.7670 38.41 48.89 6.19
17771 22.7680 33.24 48.88 5.78
17772 22.7690 47.58 48.88 6.90
17773 22.7700 44.20 48.87 6.73
17774 22.7710 30.40 48.87 5.61
17775 22.7720 42.09 48.86 6.52
17776 22.7730 49.39 48.85 7.07
17777 22.7740 42.86 48.85 6.57
17778 22.7750 38.72 48.84 6.26
17779 22.7760 38.44 48.84 6.26
17780 22.7770 40.88 48.83 6.40
17781 22.7780 47.36 48.83 6.85
17782 22.7790 45.89 48.82 6.79
17783 22.7800 41.28 48.82 6.46
17784 22.7810 31.73 48.81 5.69
17785 22.7820 48.68 48.81 7.00
17786 22.7830 49.61 48.80 7.05
17787 22.7840 59.54 48.80 7.71
17788 22.7850 48.30 48.79 6.98
17789 22.7860 41.12 48.79 6.45
17790 22.7870 34.78 48.78 5.90
17791 22.7880 39.01 48.78 6.22
17792 22.7890 39.37 48.77 6.28
17793 22.7900 48.71 48.76 7.04
17794 22.7910 58.61 48.76 7.72
17795 22.7920 38.78 48.75 6.29
17796 22.7930 40.07 48.75 6.35
17797 22.7940 43.54 48.75 6.63
17798 22.7950 29.68 48.74 5.49
17799 22.7960 40.44 48.74 6.42
17800 22.7970 28.38 48.73 5.34
17801 22.7980 47.95 48.73 6.94
17802 22.7990 45.16 48.73 6.71
17803 22.8000 43.82 48.72 6.66
17804 22.8010 45.88 48.72 6.84
17805 22.8020 46.02 48.72 6.84
17806 22.8030 50.83 48.72 7.13
17807 22.8040 49.14 48.72 7.03
17808 22.8050 50.56 48.72 7.15
17809 22.8060 38.47 48.72 6.24
17810 22.8070 42.59 48.72 6.53
17811 22.8080 40.99 48.73 6.39
17812 22.8090 31.60 48.73 5.62
17813 22.8100 38.78 48.73 6.29
17814 22.8110 39.37 48.73 6.34
17815 22.8120 45.79 48.73 6.81
17816 22.8130 52.12 48.73 7.25
17817 22.8140 41.70 48.72 6.47
17818 22.8150 29.45 48.70 5.48
17819 22.8160 49.54 48.69 7.07
17820 22.8170 48.27 48.67 6.95
17821 22.8180 45.68 48.66 6.76
17822 22.8190 45.02 48.64 6.69
17823 22.8200 31.95 48.63 5.70
17824 22.8210 42.74 48.62 6.60
17825 22.8220 32.82 48.61 5.79
17826 22.8230 49.35 48.60 7.05
17827 22.8240 49.22 48.59 7.04
17828 22.8250 55.41 48.58 7.46
17829 22.8260 47.25 48.58 6.95
17830 22.8270 46.63 48.57 6.82
17831 22.8280 36.37 48.56 6.03
17832 22.8290 49.76 48.56 7.03
17833 22.8300 45.64 48.55 6.80
17834 22.8310 51.61 48.54 7.21
17835 22.8320 49.20 48.54 7.03
17836 22.8330 42.04 48.53 6.50
17837 22.8340 44.11 48.53 6.64
17838 22.8350 46.78 48.52 6.89
17839 22.8360 39.69 48.51 6.34
17840 22.8370 56.24 48.51 7.49
17841 22.8380 50.67 48.50 7.06
17842 22.8390 47.68 48.50 6.87
17843 22.8400 50.93 48.49 7.15
17844 22.8410 44.83 48.49 6.76
17845 22.8420 44.86 48.48 6.75
17846 22.8430 32.09 48.47 5.68
17847 22.8440 43.74 48.47 6.62
17848 22.8450 48.10 48.46 6.98
17849 22.8460 43.29 48.46 6.63
17850 22.8470 36.37 48.45 6.02
17851 22.8480 43.86 48.45 6.60
17852 22.8490 41.28 48.44 6.44
17853 22.8500 40.00 48.44 6.36
17854 22.8510 54.38 48.43 7.44
17855 22.8520 51.79 48.42 7.22
17856 22.8530 48.29 48.42 6.96
17857 22.8540 51.69 48.41 7.17
17858 22.8550 55.24 48.41 7.45
17859 22.8560 41.01 48.40 6.42
17860 22.8570 39.22 48.40 6.25
17861 22.8580 49.48 48.39 7.01
17862 22.8590 43.54 48.39 6.59
17863 22.8600 38.86 48.38 6.26
17864 22.8610 31.56 48.37 5.70
17865 22.8620 37.25 48.37 6.14
17866 22.8630 47.85 48.36 6.92
17867 22.8640 49.93 48.36 7.06
17868 22.8650 54.10 48.35 7.37
17869 22.8660 39.70 48.35 6.34
17870 22.8670 43.47 48.34 6.57
17871 22.8680 40.69 48.34 6.36
17872 22.8690 39.42 48.33 6.26
17873 22.8700 42.51 48.32 6.56
17874 22.8710 43.65 48.32 6.69
17875 22.8720 38.86 48.31 6.30
17876 22.8730 40.41 48.31 6.38
17877 22.8740 54.05 48.30 7.36
17878 22.8750 52.26 48.30 7.27
17879 22.8760 44.46 48.29 6.71
17880 22.8770 50.04 48.29 7.05
17881 22.8780 42.64 48.28 6.50
17882 22.8790 45.04 48.27 6.70
17883 22.8800 44.15 48.27 6.69
17884 22.8810 41.03 48.26 6.47
17885 22.8820 54.23 48.26 7.40
17886 22.8830 37.77 48.25 6.14
17887 22.8840 47.90 48.25 6.93
17888 22.8850 41.16 48.24 6.45
17889 22.8860 48.90 48.24 7.03
17890 22.8870 40.32 48.23 6.36
17891 22.8880 45.45 48.23 6.71
17892 22.8890 48.11 48.22 6.89
17893 22.8900 49.81 48.21 7.11
17894 22.8910 43.30 48.21 6.65
17895 22.8920 46.04 48.20 6.82
17896 22.8930 45.65 48.20 6.78
17897 22.8940 48.34 48.19 6.97
17898 22.8950 59.07 48.19 7.72
17899 22.8960 49.75 48.18 7.08
17900 22.8970 44.50 48.18 6.68
17901 22.8980 43.54 48.17 6.58
17902 22.8990 65.23 48.16 8.06
17903 22.9000 50.99 48.16 7.20
17904 22.9010 39.13 48.15 6.36
17905 22.9020 37.95 48.15 6.22
17906 22.9030 44.47 48.14 6.68
17907 22.9040 45.50 48.14 6.76
17908 22.9050 53.38 48.13 7.29
17909 22.9060 54.58 48.13 7.42
17910 22.9070 49.80 48.12 7.08
17911 22.9080 35.53 48.12 5.96
17912 22.9090 39.33 48.11 6.29
17913 22.9100 37.42 48.10 6.16
17914 22.9110 49.19 48.10 7.08
17915 22.9120 35.05 48.09 5.96
17916 22.9130 44.68 48.09 6.66
17917 22.9140 40.80 48.08 6.40
17918 22.9150 51.54 48.08 7.22
17919 22.9160 35.78 48.07 6.02
17920 22.9170 48.70 48.07 6.99
17921 22.9180 51.33 48.06 7.14
17922 22.9190 48.08 48.05 6.95
17923 22.9200 39.95 48.05 6.39
17924 22.9210 37.87 48.04 6.24
17925 22.9220 43.66 48.04 6.65
17926 22.9230 38.79 48.03 6.27
17927 22.9240 54.16 48.03 7.38
17928 22.9250 39.54 48.02 6.33
17929 22.9260 41.53 48.02 6.49
17930 22.9270 59.76 48.01 7.73
17931 22.9280 44.93 48.01 6.67
17932 22.9290 49.78 48.00 7.02
17933 22.9300 38.31 47.99 6.22
17934 22.9310 33.28 47.99 5.85
17935 22.9320 39.34 47.98 6.33
17936 22.9330 46.62 47.98 6.84
17937 22.9340 46.16 47.97 6.81
17938 22.9350 40.15 47.97 6.38
17939 22.9360 41.59 47.96 6.48
17940 22.9370 56.39 47.96 7.48
17941 22.9380 47.45 47.95 6.87
17942 22.9390 46.80 47.95 6.83
17943 22.9400 51.59 47.94 7.22
17944 22.9410 42.98 47.93 6.64
17945 22.9420 35.14 47.93 6.00
17946 22.9430 31.80 47.92 5.68
17947 22.9440 44.07 47.92 6.65
17948 22.9450 36.62 47.91 6.08
17949 22.9460 45.36 47.91 6.78
17950 22.9470 42.27 47.90 6.52
17951 22.9480 34.95 47.90 5.92
17952 22.9490 38.62 47.89 6.22
17953 22.9500 50.30 47.89 7.15
17954 22.9510 47.52 47.88 6.97
17955 22.9520 49.03 47.87 7.04
17956 22.9530 51.82 47.87 7.20
17957 22.9540 40.29 47.86 6.37
17958 22.9550 33.91 47.86 5.86
17959 22.9560 35.64 47.85 6.02
17960 22.9570 45.07 47.85 6.71
17961 22.9580 54.62 47.84 7.37
17962 22.9590 47.39 47.84 6.89
17963 22.9600 46.51 47.83 6.89
17964 22.9610 39.99 47.83 6.41
17965 22.9620 51.40 47.82 7.22
17966 22.9630 39.45 47.81 6.31
17967 22.9640 44.93 47.81 6.73
17968 22.9650 35.48 47.80 6.01
17969 22.9660 45.94 47.80 6.83
17970 22.9670 43.33 47.79 6.62
17971 22.9680 36.95 47.79 6.08
17972 22.9690 38.85 47.78 6.25
17973 22.9700 52.44 47.78 7.30
17974 22.9710 40.16 47.77 6.44
17975 22.9720 43.12 47.77 6.63
17976 22.9730 46.94 47.76 6.88
17977 22.9740 36.59 47.75 6.08
17978 22.9750 51.39 47.75 7.22
17979 22.9760 39.13 47.74 6.30
17980 22.9770 35.77 47.74 5.99
17981 22.9780 42.99 47.73 6.52
17982 22.9790 44.62 47.73 6.67
17983 22.9800 44.77 47.73 6.73
17984 22.9810 45.49 47.72 6.82
17985 22.9820 47.09 47.72 6.92
17986 22.9830 35.12 47.71 5.95
17987 22.9840 45.81 47.71 6.79
17988 22.9850 37.64 47.70 6.18
17989 22.9860 39.34 47.70 6.34
17990 22.9870 47.42 47.69 6.90
17991 22.9880 35.53 47.68 5.98
17992 22.9890 49.74 47.68 7.06
17993 22.9900 47.72 47.67 6.98
17994 22.9910 50.55 47.67 7.20
17995 22.9920 42.79 47.66 6.59
17996 22.9930 43.69 47.66 6.65
17997 22.9940 54.26 47.65 7.38
17998 22.9950 39.08 47.65 6.30
17999 22.9960 43.45 47.64 6.63
18000 22.9970 60.54 47.64 7.77
18001 22.9980 42.11 47.67 6.46
18002 22.9990 45.36 47.66 6.73
18003 23.0000 35.72 47.68 6.01
18004 23.0010 37.51 47.68 6.20
18005 23.0020 41.04 47.71 6.45
18006 23.0030 27.77 47.70 5.29
18007 23.0040 38.38 47.70 6.22
18008 23.0050 52.26 47.69 7.23
18009 23.0060 48.05 47.69 6.96
18010 23.0070 46.28 47.68 6.81
18011 23.0080 41.39 47.68 6.40
18012 23.0090 45.38 47.67 6.74
18013 23.0100 47.22 47.67 6.93
18014 23.0110 34.32 47.66 5.94
18015 23.0120 44.39 47.66 6.68
18016 23.0130 38.02 47.65 6.20
18017 23.0140 41.29 47.65 6.43
18018 23.0150 44.14 47.64 6.68
18019 23.0160 32.59 47.64 5.74
18020 23.0170 38.69 47.63 6.24
18021 23.0180 44.02 47.63 6.61
18022 23.0190 43.95 47.63 6.65
18023 23.0200 38.67 47.62 6.25
18024 23.0210 41.94 47.62 6.53
18025 23.0220 41.61 47.61 6.51
18026 23.0230 48.34 47.61 6.97
18027 23.0240 46.21 47.60 6.81
18028 23.0250 54.25 47.60 7.38
18029 23.0260 45.15 47.59 6.76
18030 23.0270 45.73 47.59 6.80
18031 23.0280 47.30 47.58 6.84
18032 23.0290 47.10 47.58 6.84
18033 23.0300 36.05 47.57 6.06
18034 23.0310 42.14 47.57 6.57
18035 23.0320 53.30 47.57 7.35
18036 23.0330 40.01 47.56 6.36
18037 23.0340 40.57 47.56 6.39
18038 23.0350 50.09 47.55 7.12
18039 23.0360 42.71 47.55 6.58
18040 23.0370 39.00 47.54 6.24
18041 23.0380 46.35 47.54 6.76
18042 23.0390 38.84 47.53 6.21
18043 23.0400 40.11 47.53 6.39
18044 23.0410 36.29 47.53 6.11
18045 23.0420 31.62 47.52 5.68
18046 23.0430 37.68 47.52 6.17
18047 23.0440 40.45 47.51 6.37
18048 23.0450 55.23 47.51 7.45
18049 23.0460 50.10 47.50 7.10
18050 23.0470 45.80 47.50 6.77
18051 23.0480 49.73 47.50 7.02
18052 23.0490 50.58 47.49 7.12
18053 23.0500 41.33 47.49 6.48
18054 23.0510 47.23 47.48 6.94
18055 23.0520 44.10 47.48 6.68
18056 23.0530 48.58 47.47 6.98
18057 23.0540 43.80 47.47 6.63
18058 23.0550 51.12 47.47 7.18
18059 23.0560 43.08 47.46 6.60
18060 23.0570 44.79 47.46 6.68
18061 23.0580 39.37 47.45 6.26
18062 23.0590 37.33 47.45 6.10
18063 23.0600 38.43 47.45 6.23
18064 23.0610 45.54 47.44 6.80
18065 23.0620 43.94 47.44 6.66
18066 23.0630 44.35 47.43 6.68
18067 23.0640 38.16 47.43 6.21
18068 23.0650 47.91 47.43 6.93
18069 23.0660 36.18 47.42 6.06
18070 23.0670 37.03 47.42 6.11
18071 23.0680 44.56 47.41 6.65
18072 23.0690 43.60 47.41 6.58
18073 23.0700 43.76 47.41 6.65
18074 23.0710 44.48 47.40 6.74
18075 23.0720 49.15 47.40 7.03
18076 23.0730 50.47 47.40 7.14
18077 23.0740 33.10 47.39 5.78
18078 23.0750 45.40 47.39 6.75
18079 23.0760 53.61 47.39 7.33
18080 23.0770 45.16 47.38 6.70
18081 23.0780 55.53 47.38 7.41
18082 23.0790 41.31 47.38 6.41
18083 23.0800 37.46 47.37 6.15
18084 23.0810 46.68 47.37 6.90
18085 23.0820 48.66 47.37 7.01
18086 23.0830 47.11 47.36 6.88
18087 23.0840 48.96 47.36 7.01
18088 23.0850 42.18 47.36 6.49
18089 23.0860 46.89 47.35 6.85
18090 23.0870 42.80 47.35 6.52
18091 23.0880 45.83 47.35 6.73
18092 23.0890 36.16 47.34 6.02
18093 23.0900 51.28 47.34 7.17
18094 23.0910 36.43 47.34 6.12
18095 23.0920 47.88 47.34 6.98
18096 23.0930 42.64 47.33 6.55
18097 23.0940 37.94 47.33 6.18
18098 23.0950 46.03 47.33 6.80
18099 23.0960 38.85 47.33 6.26
18100 23.0970 46.14 47.32 6.80
18101 23.0980 40.87 47.32 6.36
18102 23.0990 50.81 47.32 7.11
18103 23.1000 52.55 47.32 7.29
18104 23.1010 60.45 47.32 7.83
18105 23.1020 41.45 47.32 6.46
18106 23.1030 53.26 47.31 7.30
18107 23.1040 55.45 47.31 7.44
18108 23.1050 46.30 47.31 6.81
18109 23.1060 52.32 47.31 7.27
18110 23.1070 38.55 47.31 6.20
18111 23.1080 36.01 47.31 5.99
18112 23.1090 40.96 47.31 6.39
18113 23.1100 46.77 47.31 6.89
18114 23.1110 43.70 47.31 6.65
18115 23.1120 47.08 47.31 6.93
18116 23.1130 49.47 47.31 7.03
18117 23.1140 34.98 47.31 5.93
18118 23.1150 42.17 47.31 6.53
18119 23.1160 30.36 47.31 5.56
18120 23.1170 46.19 47.31 6.77
18121 23.1180 53.38 47.31 7.26
18122 23.1190 47.36 47.31 6.88
18123 23.1200 52.13 47.31 7.28
18124 23.1210 56.30 47.31 7.58
18125 23.1220 48.66 47.32 7.01
18126 23.1230 48.35 47.32 6.96
18127 23.1240 50.12 47.32 7.11
18128 23.1250 51.65 47.33 7.19
18129 23.1260 49.68 47.33 7.05
18130 23.1270 51.27 47.34 7.13
18131 23.1280 47.28 47.34 6.86
18132 23.1290 45.15 47.35 6.70
18133 23.1300 49.19 47.35 7.06
18134 23.1310 40.42 47.36 6.42
18135 23.1320 46.63 47.37 6.87
18136 23.1330 51.44 47.38 7.17
18137 23.1340 48.08 47.39 6.95
18138 23.1350 51.40 47.40 7.19
18139 23.1360 44.81 47.41 6.73
18140 23.1370 50.32 47.42 7.08
18141 23.1380 38.31 47.44 6.17
18142 23.1390 41.15 47.45 6.41
18143 23.1400 53.00 47.47 7.32
18144 23.1410 37.98 47.49 6.23
18145 23.1420 57.81 47.51 7.63
18146 23.1430 40.84 47.53 6.40
18147 23.1440 45.74 47.56 6.78
18148 23.1450 43.52 47.59 6.65
18149 23.1460 42.16 47.62 6.53
18150 23.1470 46.17 47.66 6.81
18151 23.1480 38.47 47.70 6.19
18152 23.1490 51.05 47.75 7.11
18153 23.1500 38.39 47.80 6.25
18154 23.1510 42.74 47.86 6.59
18155 23.1520 58.07 47.92 7.65
18156 23.1530 50.97 48.00 7.16
18157 23.1540 43.45 48.09 6.61
18158 23.1550 53.30 48.19 7.33
18159 23.1560 44.79 48.31 6.74
18160 23.1570 44.22 48.46 6.64
18161 23.1580 43.29 48.63 6.57
18162 23.1590 51.28 48.85 7.14
18163 23.1600 37.60 49.11 6.19
18164 23.1610 46.32 49.44 6.87
18165 23.1620 45.15 49.84 6.76
18166 23.1630 53.43 50.34 7.33
18167 23.1640 41.43 50.95 6.46
18168 23.1650 48.65 51.68 7.01
18169 23.1660 47.94 52.56 6.97
18170 23.1670 45.30 53.59 6.74
18171 23.1680 37.82 54.74 6.11
18172 23.1690 49.58 55.99 7.03
18173 23.1700 43.67 57.24 6.66
18174 23.1710 50.91 58.37 7.20
18175 23.1720 44.40 59.20 6.72
18176 23.1730 51.97 59.58 7.22
18177 23.1740 53.88 59.45 7.36
18178 23.1750 63.93 58.84 8.02
18179 23.1760 44.02 57.88 6.66
18180 23.1770 64.60 56.71 8.02
18181 23.1780 41.71 55.48 6.43
18182 23.1790 45.98 54.30 6.78
18183 23.1800 35.72 53.22 6.04
18184 23.1810 48.81 52.27 7.07
18185 23.1820 50.96 51.47 7.18
18186 23.1830 50.43 50.81 7.12
18187 23.1840 45.12 50.26 6.71
18188 23.1850 42.28 49.82 6.51
18189 23.1860 42.84 49.47 6.57
18190 23.1870 49.17 49.19 7.02
18191 23.1880 52.94 48.97 7.28
18192 23.1890 40.53 48.80 6.40
18193 23.1900 45.45 48.67 6.80
18194 23.1910 47.10 48.56 6.94
18195 23.1920 54.85 48.49 7.45
18196 23.1930 45.72 48.43 6.77
18197 23.1940 43.17 48.40 6.59
18198 23.1950 51.21 48.38 7.17
18199 23.1960 47.46 48.38 6.93
18200 23.1970 54.98 48.41 7.40
18201 23.1980 46.18 48.45 6.78
18202 23.1990 47.90 48.52 6.88
18203 23.2000 34.23 48.62 5.90
18204 23.2010 35.74 48.76 6.06
18205 23.2020 46.29 48.94 6.86
18206 23.2030 50.47 49.17 7.16
18207 23.2040 54.32 49.46 7.38
18208 23.2050 38.01 49.81 6.20
18209 23.2060 47.07 50.24 6.90
18210 23.2070 42.91 50.75 6.56
18211 23.2080 46.91 51.33 6.86
18212 23.2090 56.76 51.97 7.53
18213 23.2100 52.88 52.63 7.35
18214 23.2110 40.39 53.24 6.44
18215 23.2120 50.40 53.75 7.17
18216 23.2130 51.63 54.11 7.18
18217 23.2140 45.30 54.30 6.75
18218 23.2150 51.70 54.36 7.20
18219 23.2160 43.75 54.31 6.65
18220 23.2170 47.39 54.15 6.89
18221 23.2180 59.36 53.85 7.69
18222 23.2190 54.36 53.41 7.35
18223 23.2200 43.56 52.86 6.65
18224 23.2210 66.97 52.22 8.25
18225 23.2220 43.86 51.56 6.66
18226 23.2230 49.85 50.93 7.07
18227 23.2240 48.42 50.36 6.97
18228 23.2250 52.21 49.86 7.24
18229 23.2260 44.92 49.44 6.73
18230 23.2270 37.36 49.08 6.11
18231 23.2280 42.87 48.79 6.54
18232 23.2290 44.61 48.54 6.68
18233 23.2300 42.78 48.35 6.61
18234 23.2310 49.02 48.19 7.08
18235 23.2320 52.27 48.05 7.31
18236 23.2330 61.94 47.94 7.89
18237 23.2340 49.16 47.85 7.04
18238 23.2350 40.32 47.78 6.37
18239 23.2360 47.65 47.72 6.91
18240 23.2370 49.74 47.66 7.05
18241 23.2380 47.76 47.62 6.86
18242 23.2390 50.72 47.58 7.11
18243 23.2400 46.27 47.54 6.86
18244 23.2410 47.68 47.51 6.97
18245 23.2420 44.11 47.49 6.69
18246 23.2430 33.00 47.46 5.79
18247 23.2440 51.93 47.44 7.21
18248 23.2450 48.95 47.43 6.99
18249 23.2460 47.76 47.41 6.93
18250 23.2470 52.07 47.40 7.21
18251 23.2480 45.00 47.39 6.69
18252 23.2490 51.58 47.38 7.17
18253 23.2500 45.34 47.37 6.79
18254 23.2510 40.55 47.37 6.45
18255 23.2520 46.18 47.36 6.88
18256 23.2530 58.54 47.36 7.68
18257 23.2540 48.84 47.36 7.01
18258 23.2550 42.51 47.36 6.54
18259 23.2560 45.40 47.36 6.79
18260 23.2570 46.19 47.36 6.79
18261 23.2580 49.60 47.36 7.03
18262 23.2590 47.79 47.36 6.91
18263 23.2600 49.69 47.37 7.08
18264 23.2610 59.41 47.37 7.79
18265 23.2620 40.28 47.38 6.41
18266 23.2630 34.79 47.39 5.94
18267 23.2640 35.17 47.39 5.96
18268 23.2650 55.92 47.40 7.50
18269 23.2660 45.69 47.41 6.81
18270 23.2670 46.84 47.42 6.84
18271 23.2680 37.67 47.43 6.14
18272 23.2690 37.01 47.45 6.08
18273 23.2700 61.83 47.46 7.92
18274 23.2710 41.50 47.47 6.55
18275 23.2720 42.32 47.49 6.56
18276 23.2730 38.84 47.50 6.27
18277 23.2740 41.17 47.52 6.44
18278 23.2750 41.13 47.54 6.46
18279 23.2760 45.70 47.55 6.80
18280 23.2770 50.99 47.57 7.16
18281 23.2780 38.02 47.59 6.18
18282 23.2790 42.79 47.61 6.57
18283 23.2800 40.27 47.64 6.42
18284 23.2810 34.94 47.66 5.99
18285 23.2820 46.02 47.68 6.82
18286 23.2830 43.41 47.71 6.59
18287 23.2840 52.55 47.74 7.25
18288 23.2850 39.65 47.76 6.32
18289 23.2860 58.43 47.79 7.68
18290 23.2870 35.03 47.82 5.94
18291 23.2880 47.42 47.86 6.87
18292 23.2890 50.37 47.89 7.09
18293 23.2900 45.11 47.92 6.77
18294 23.2910 54.48 47.96 7.45
18295 23.2920 48.04 48.00 7.00
18296 23.2930 41.60 48.04 6.47
18297 23.2940 45.83 48.08 6.80
18298 23.2950 37.20 48.12 6.15
18299 23.2960 42.56 48.17 6.59
18300 23.2970 43.85 48.21 6.62
18301 23.2980 46.40 48.26 6.79
18302 23.2990 51.70 48.32 7.17
18303 23.3000 50.91 48.37 7.21
18304 23.3010 53.70 48.43 7.40
18305 23.3020 38.15 48.48 6.24
18306 23.3030 33.16 48.55 5.78
18307 23.3040 45.37 48.61 6.74
18308 23.3050 41.87 48.68 6.52
18309 23.3060 39.66 48.75 6.34
18310 23.3070 50.30 48.82 7.07
18311 23.3080 46.72 48.90 6.84
18312 23.3090 39.39 48.98 6.28
18313 23.3100 46.89 49.07 6.92
18314 23.3110 42.27 49.16 6.59
18315 23.3120 49.80 49.25 7.12
18316 23.3130 42.86 49.35 6.59
18317 23.3140 44.54 49.46 6.69
18318 23.3150 36.87 49.57 6.12
18319 23.3160 42.95 49.69 6.60
18320 23.3170 38.44 49.81 6.23
18321 23.3180 46.90 49.94 6.86
18322 23.3190 47.70 50.07 6.91
18323 23.3200 58.39 50.22 7.70
18324 23.3210 42.50 50.37 6.61
18325 23.3220 43.57 50.54 6.68
18326 23.3230 42.17 50.71 6.54
18327 23.3240 56.67 50.89 7.53
18328 23.3250 41.73 51.08 6.49
18329 23.3260 40.96 51.29 6.44
18330 23.3270 51.47 51.51 7.20
18331 23.3280 48.88 51.75 6.96
18332 23.3290 50.96 52.00 7.13
18333 23.3300 46.75 52.27 6.88
18334 23.3310 54.47 52.56 7.47
18335 23.3320 51.75 52.87 7.26
18336 23.3330 50.73 53.20 7.12
18337 23.3340 49.20 53.57 7.04
18338 23.3350 48.22 53.96 6.99
18339 23.3360 37.72 54.38 6.20
18340 23.3370 53.64 54.85 7.34
18341 23.3380 55.19 55.35 7.42
18342 23.3390 51.04 55.91 7.16
18343 23.3400 49.25 56.52 7.07
18344 23.3410 54.23 57.21 7.45
18345 23.3420 47.33 57.97 6.94
18346 23.3430 69.91 58.83 8.37
18347 23.3440 44.92 59.82 6.72
18348 23.3450 48.01 60.94 6.97
18349 23.3460 58.38 62.24 7.67
18350 23.3470 60.26 63.75 7.73
18351 23.3480 70.45 65.50 8.35
18352 23.3490 78.04 67.54 8.83
18353 23.3500 64.28 69.89 8.09
18354 23.3510 45.39 72.61 6.84
18355 23.3520 60.53 75.69 7.87
18356 23.3530 64.76 79.11 8.07
18357 23.3540 95.30 82.83 9.77
18358 23.3550 75.89 86.68 8.75
18359 23.3560 87.96 90.52 9.38
18360 23.3570 89.90 94.14 9.48
18361 23.3580 90.22 97.40 9.48
18362 23.3590 109.28 100.19 10.46
18363 23.3600 113.78 102.53 10.76
18364 23.3610 107.05 104.62 10.50
18365 23.3620 116.66 106.81 10.88
18366 23.3630 110.04 109.52 10.51
18367 23.3640 117.25 113.24 10.85
18368 23.3650 112.55 118.45 10.62
18369 23.3660 113.08 125.54 10.66
18370 23.3670 143.21 134.98 11.93
18371 23.3680 148.47 147.27 12.17
18372 23.3690 143.24 162.82 11.94
18373 23.3700 172.47 182.13 13.19
18374 23.3710 185.42 205.63 13.74
18375 23.3720 251.37 233.52 15.86
18376 23.3730 255.75 265.57 15.99
18377 23.3740 278.05 301.07 16.68
18378 23.3750 288.11 338.17 17.02
18379 23.3760 360.80 373.97 19.10
18380 23.3770 406.75 404.99 20.14
18381 23.3780 431.98 427.63 20.68
18382 23.3790 440.24 439.44 20.96
18383 23.3800 453.54 439.10 21.40
18384 23.3810 450.46 426.73 21.43
18385 23.3820 411.97 403.57 20.39
18386 23.3830 360.84 372.30 19.05
18387 23.3840 328.16 336.26 18.16
18388 23.3850 288.64 298.86 17.04
18389 23.3860 235.94 262.96 15.40
18390 23.3870 228.70 230.36 15.12
18391 23.3880 204.49 201.78 14.25
18392 23.3890 182.61 177.41 13.52
18393 23.3900 133.19 157.04 11.60
18394 23.3910 131.38 140.20 11.58
18395 23.3920 114.27 126.43 10.73
18396 23.3930 107.33 115.19 10.36
18397 23.3940 105.88 106.04 10.30
18398 23.3950 104.26 98.58 10.21
18399 23.3960 102.59 92.44 10.15
18400 23.3970 94.16 87.35 9.71
18401 23.3980 95.78 83.10 9.74
18402 23.3990 78.99 79.49 8.87
18403 23.4000 68.71 76.39 8.36
18404 23.4010 66.57 73.71 8.25
18405 23.4020 77.23 71.38 8.84
18406 23.4030 58.26 69.31 7.67
18407 23.4040 65.22 67.49 8.09
18408 23.4050 61.17 65.87 7.88
18409 23.4060 54.34 64.41 7.44
18410 23.4070 60.47 63.11 7.80
18411 23.4080 50.61 61.93 7.12
18412 23.4090 61.32 60.86 7.84
18413 23.4100 52.48 59.89 7.32
18414 23.4110 57.11 59.01 7.65
18415 23.4120 60.93 58.20 7.86
18416 23.4130 52.94 57.46 7.31
18417 23.4140 47.96 56.78 6.96
18418 23.4150 49.10 56.16 7.05
18419 23.4160 50.35 55.58 7.13
18420 23.4170 66.92 55.05 8.21
18421 23.4180 56.04 54.56 7.47
18422 23.4190 61.48 54.10 7.83
18423 23.4200 47.69 53.67 6.95
18424 23.4210 39.63 53.27 6.39
18425 23.4220 51.98 52.91 7.30
18426 23.4230 48.38 52.56 6.99
18427 23.4240 43.16 52.24 6.60
18428 23.4250 50.30 51.93 7.14
18429 23.4260 47.55 51.65 6.95
18430 23.4270 47.65 51.39 6.92
18431 23.4280 35.97 51.14 5.99
18432 23.4290 49.14 50.90 7.01
18433 23.4300 56.98 50.68 7.63
18434 23.4310 53.49 50.46 7.43
18435 23.4320 56.35 50.26 7.58
18436 23.4330 54.93 50.07 7.47
18437 23.4340 39.83 49.89 6.34
18438 23.4350 50.53 49.72 7.15
18439 23.4360 48.77 49.56 7.01
18440 23.4370 47.99 49.40 6.94
18441 23.4380 50.56 49.26 7.08
18442 23.4390 40.10 49.12 6.34
18443 23.4400 51.44 48.98 7.25
18444 23.4410 49.19 48.86 7.09
18445 23.4420 62.73 48.73 7.98
18446 23.4430 38.84 48.62 6.28
18447 23.4440 59.18 48.51 7.71
18448 23.4450 49.31 48.40 7.05
18449 23.4460 42.56 48.30 6.56
18450 23.4470 37.05 48.20 6.12
18451 23.4480 51.54 48.11 7.17
18452 23.4490 44.12 48.01 6.66
18453 23.4500 48.53 47.93 7.03
18454 23.4510 40.78 47.85 6.50
18455 23.4520 40.53 47.76 6.44
18456 23.4530 52.77 47.69 7.28
18457 23.4540 36.88 47.61 6.09
18458 23.4550 38.09 47.54 6.20
18459 23.4560 53.95 47.47 7.39
18460 23.4570 46.23 47.40 6.79
18461 23.4580 36.56 47.34 6.04
18462 23.4590 35.53 47.28 6.00
18463 23.4600 48.75 47.22 7.04
18464 23.4610 44.73 47.16 6.79
18465 23.4620 41.76 47.10 6.52
18466 23.4630 50.03 47.05 7.09
18467 23.4640 42.20 47.00 6.54
18468 23.4650 44.82 46.94 6.73
18469 23.4660 47.13 46.89 6.89
18470 23.4670 38.16 46.85 6.20
18471 23.4680 44.25 46.80 6.64
18472 23.4690 50.33 46.75 7.11
18473 23.4700 42.87 46.71 6.59
18474 23.4710 35.65 46.67 6.02
18475 23.4720 44.24 46.63 6.71
18476 23.4730 35.37 46.58 6.01
18477 23.4740 28.97 46.55 5.41
18478 23.4750 40.28 46.51 6.39
18479 23.4760 36.29 46.47 6.08
18480 23.4770 50.13 46.43 7.10
18481 23.4780 58.22 46.40 7.59
18482 23.4790 47.86 46.36 6.92
18483 23.4800 51.43 46.33 7.23
18484 23.4810 45.95 46.30 6.88
18485 23.4820 31.61 46.26 5.68
18486 23.4830 45.94 46.23 6.82
18487 23.4840 48.20 46.20 6.98
18488 23.4850 39.57 46.17 6.34
18489 23.4860 41.81 46.14 6.52
18490 23.4870 52.70 46.11 7.26
18491 23.4880 42.11 46.09 6.49
18492 23.4890 41.50 46.06 6.48
18493 23.4900 50.48 46.03 7.15
18494 23.4910 49.91 46.01 7.17
18495 23.4920 60.94 45.98 7.89
18496 23.4930 53.75 45.96 7.40
18497 23.4940 55.86 45.93 7.51
18498 23.4950 47.94 45.91 6.95
18499 23.4960 46.31 45.88 6.84
18500 23.4970 44.96 45.86 6.72
18501 23.4980 52.54 45.84 7.25
18502 23.4990 58.97 45.81 7.69
18503 23.5000 38.45 45.79 6.28
18504 23.5010 36.39 45.77 6.13
18505 23.5020 36.91 45.75 6.14
18506 23.5030 46.38 45.73 6.81
18507 23.5040 35.79 45.71 5.98
18508 23.5050 45.14 45.69 6.75
18509 23.5060 42.01 45.67 6.53
18510 23.5070 40.23 45.65 6.36
18511 23.5080 50.63 45.63 7.11
18512 23.5090 47.85 45.61 6.92
18513 23.5100 45.76 45.59 6.86
18514 23.5110 45.51 45.57 6.82
18515 23.5120 36.28 45.56 6.06
18516 23.5130 53.50 45.54 7.34
18517 23.5140 39.71 45.52 6.34
18518 23.5150 52.65 45.51 7.30
18519 23.5160 42.12 45.49 6.53
18520 23.5170 40.44 45.47 6.38
18521 23.5180 37.78 45.46 6.15
18522 23.5190 47.35 45.44 6.87
18523 23.5200 52.23 45.42 7.26
18524 23.5210 34.33 45.41 5.94
18525 23.5220 39.26 45.39 6.31
18526 23.5230 50.95 45.38 7.17
18527 23.5240 50.26 45.36 7.09
18528 23.5250 47.26 45.35 6.90
18529 23.5260 35.43 45.33 5.99
18530 23.5270 45.06 45.32 6.71
18531 23.5280 47.49 45.30 6.89
18532 23.5290 46.31 45.29 6.79
18533 23.5300 47.29 45.28 6.93
18534 23.5310 50.31 45.26 7.19
18535 23.5320 55.35 45.25 7.49
18536 23.5330 37.32 45.24 6.15
18537 23.5340 43.78 45.22 6.62
18538 23.5350 38.56 45.21 6.26
18539 23.5360 45.46 45.20 6.78
18540 23.5370 53.74 45.18 7.35
18541 23.5380 40.86 45.17 6.40
18542 23.5390 42.14 45.16 6.52
18543 23.5400 44.97 45.15 6.74
18544 23.5410 42.01 45.13 6.59
18545 23.5420 37.20 45.12 6.16
18546 23.5430 54.72 45.11 7.42
18547 23.5440 37.46 45.10 6.15
18548 23.5450 45.43 45.08 6.77
18549 23.5460 51.33 45.07 7.21
18550 23.5470 39.11 45.06 6.27
18551 23.5480 36.30 45.05 6.03
18552 23.5490 42.19 45.04 6.50
18553 23.5500 42.30 45.03 6.58
18554 23.5510 49.94 45.02 7.16
18555 23.5520 45.47 45.00 6.81
18556 23.5530 41.81 44.99 6.50
18557 23.5540 46.74 44.98 6.87
18558 23.5550 45.03 44.97 6.75
18559 23.5560 47.90 44.96 6.98
18560 23.5570 42.11 44.95 6.53
18561 23.5580 48.77 44.94 6.99
18562 23.5590 45.54 44.93 6.78
18563 23.5600 36.39 44.92 6.11
18564 23.5610 48.50 44.91 7.07
18565 23.5620 41.49 44.90 6.50
18566 23.5630 44.91 44.89 6.73
18567 23.5640 51.36 44.88 7.19
18568 23.5650 52.88 44.87 7.31
18569 23.5660 55.66 44.86 7.51
18570 23.5670 45.95 44.85 6.75
18571 23.5680 39.30 44.84 6.29
18572 23.5690 51.20 44.83 7.16
18573 23.5700 35.43 44.82 6.00
18574 23.5710 53.69 44.81 7.38
18575 23.5720 49.44 44.80 7.11
18576 23.5730 46.18 44.79 6.82
18577 23.5740 41.77 44.78 6.51
18578 23.5750 40.38 44.77 6.38
18579 23.5760 51.70 44.76 7.25
18580 23.5770 61.36 44.75 7.88
18581 23.5780 47.55 44.74 6.88
18582 23.5790 50.24 44.74 7.09
18583 23.5800 63.47 44.73 8.02
18584 23.5810 39.89 44.72 6.41
18585 23.5820 32.58 44.71 5.80
18586 23.5830 40.54 44.70 6.42
18587 23.5840 41.43 44.69 6.47
18588 23.5850 60.10 44.68 7.81
18589 23.5860 51.46 44.67 7.23
18590 23.5870 39.55 44.67 6.31
18591 23.5880 49.34 44.66 7.00
18592 23.5890 42.07 44.65 6.50
18593 23.5900 54.61 44.64 7.48
18594 23.5910 47.26 44.63 6.95
18595 23.5920 55.03 44.62 7.48
18596 23.5930 51.27 44.62 7.18
18597 23.5940 52.38 44.61 7.25
18598 23.5950 42.59 44.60 6.56
18599 23.5960 43.41 44.59 6.62
18600 23.5970 40.05 44.58 6.35
18601 23.5980 37.72 44.57 6.18
18602 23.5990 51.98 44.57 7.20
18603 23.6000 59.46 44.56 7.81
18604 23.6010 50.66 44.55 7.22
18605 23.6020 42.25 44.54 6.57
18606 23.6030 49.44 44.53 7.06
18607 23.6040 42.70 44.53 6.56
18608 23.6050 41.39 44.52 6.49
18609 23.6060 41.41 44.51 6.52
18610 23.6070 52.27 44.50 7.25
18611 23.6080 45.07 44.50 6.77
18612 23.6090 37.96 44.49 6.19
18613 23.6100 51.40 44.48 7.25
18614 23.6110 42.03 44.47 6.58
18615 23.6120 44.22 44.47 6.74
18616 23.6130 41.57 44.46 6.48
18617 23.6140 53.16 44.45 7.32
18618 23.6150 40.07 44.44 6.38
18619 23.6160 43.48 44.44 6.64
18620 23.6170 49.50 44.43 7.04
18621 23.6180 47.10 44.42 6.84
18622 23.6190 54.69 44.42 7.41
18623 23.6200 51.67 44.41 7.24
18624 23.6210 35.43 44.40 6.05
18625 23.6220 36.63 44.39 6.13
18626 23.6230 40.28 44.39 6.41
18627 23.6240 35.15 44.38 5.96
18628 23.6250 43.88 44.37 6.70
18629 23.6260 49.03 44.37 7.04
18630 23.6270 43.03 44.36 6.59
18631 23.6280 43.42 44.35 6.60
18632 23.6290 54.37 44.35 7.39
18633 23.6300 42.47 44.34 6.59
18634 23.6310 52.24 44.33 7.34
18635 23.6320 40.49 44.32 6.46
18636 23.6330 40.43 44.32 6.40
18637 23.6340 53.30 44.31 7.33
18638 23.6350 36.20 44.30 6.05
18639 23.6360 32.97 44.30 5.80
18640 23.6370 40.56 44.29 6.37
18641 23.6380 46.52 44.28 6.83
18642 23.6390 43.99 44.28 6.65
18643 23.6400 55.18 44.27 7.50
18644 23.6410 47.59 44.27 6.99
18645 23.6420 37.50 44.26 6.20
18646 23.6430 38.64 44.25 6.28
18647 23.6440 45.36 44.25 6.74
18648 23.6450 49.75 44.24 7.13
18649 23.6460 72.01 44.23 8.54
18650 23.6470 36.71 44.23 6.08
18651 23.6480 36.57 44.22 6.05
18652 23.6490 37.64 44.22 6.17
18653 23.6500 37.46 44.21 6.20
18654 23.6510 43.00 44.20 6.67
18655 23.6520 49.94 44.20 7.13
18656 23.6530 47.23 44.19 6.92
18657 23.6540 53.22 44.18 7.31
18658 23.6550 41.52 44.18 6.50
18659 23.6560 37.44 44.17 6.16
18660 23.6570 45.56 44.17 6.78
18661 23.6580 50.40 44.16 7.11
18662 23.6590 36.46 44.16 6.08
18663 23.6600 47.95 44.15 7.01
18664 23.6610 46.94 44.14 6.95
18665 23.6620 48.23 44.14 7.01
18666 23.6630 38.50 44.13 6.24
18667 23.6640 43.42 44.13 6.61
18668 23.6650 42.23 44.12 6.54
18669 23.6660 35.84 44.12 6.04
18670 23.6670 48.88 44.11 7.04
18671 23.6680 44.32 44.10 6.64
18672 23.6690 34.60 44.10 5.90
18673 23.6700 42.83 44.09 6.62
18674 23.6710 48.85 44.09 7.09
18675 23.6720 42.47 44.08 6.57
18676 23.6730 38.43 44.08 6.26
18677 23.6740 51.93 44.07 7.25
18678 23.6750 54.15 44.07 7.42
18679 23.6760 42.10 44.06 6.52
18680 23.6770 41.97 44.06 6.49
18681 23.6780 45.45 44.05 6.74
18682 23.6790 49.46 44.05 7.04
18683 23.6800 48.63 44.04 7.04
18684 23.6810 45.61 44.04 6.85
18685 23.6820 40.01 44.03 6.40
18686 23.6830 47.93 44.03 6.99
18687 23.6840 49.91 44.02 7.07
18688 23.6850 43.09 44.02 6.61
18689 23.6860 48.65 44.01 7.01
18690 23.6870 34.85 44.01 5.92
18691 23.6880 50.83 44.00 7.12
18692 23.6890 47.99 44.00 6.91
18693 23.6900 52.76 43.99 7.34
18694 23.6910 48.98 43.99 7.08
18695 23.6920 41.34 43.99 6.49
18696 23.6930 40.80 43.98 6.44
18697 23.6940 52.03 43.98 7.23
18698 23.6950 46.31 43.97 6.87
18699 23.6960 50.71 43.97 7.15
18700 23.6970 35.36 44.04 5.98
18701 23.6980 49.00 44.03 7.00
18702 23.6990 43.18 44.03 6.60
18703 23.7000 49.22 44.16 7.08
18704 23.7010 40.93 44.16 6.46
18705 23.7020 47.54 44.16 6.95
18706 23.7030 50.95 44.15 7.17
18707 23.7040 45.83 44.15 6.79
18708 23.7050 34.06 44.15 5.89
18709 23.7060 45.58 44.15 6.79
18710 23.7070 43.45 44.15 6.62
18711 23.7080 43.13 44.14 6.56
18712 23.7090 42.26 44.14 6.48
18713 23.7100 51.90 44.14 7.28
18714 23.7110 42.74 44.14 6.62
18715 23.7120 33.07 44.14 5.82
18716 23.7130 44.25 44.14 6.69
18717 23.7140 42.61 44.14 6.56
18718 23.7150 43.38 44.14 6.65
18719 23.7160 41.86 44.14 6.50
18720 23.7170 50.50 44.14 7.11
18721 23.7180 53.47 44.13 7.30
18722 23.7190 49.71 44.13 7.07
18723 23.7200 47.54 44.14 6.97
18724 23.7210 49.50 44.14 7.12
18725 23.7220 49.10 44.14 7.06
18726 23.7230 49.66 44.14 7.11
18727 23.7240 46.02 44.14 6.79
18728 23.7250 46.33 44.14 6.85
18729 23.7260 40.38 44.14 6.38
18730 23.7270 27.40 44.14 5.25
18731 23.7280 40.00 44.14 6.32
18732 23.7290 42.05 44.15 6.48
18733 23.7300 40.93 44.15 6.47
18734 23.7310 53.77 44.15 7.43
18735 23.7320 60.35 44.15 7.85
18736 23.7330 40.01 44.16 6.37
18737 23.7340 46.68 44.16 6.86
18738 23.7350 52.11 44.17 7.27
18739 23.7360 47.44 44.17 6.94
18740 23.7370 49.30 44.17 7.03
18741 23.7380 41.38 44.18 6.44
18742 23.7390 42.08 44.18 6.49
18743 23.7400 53.60 44.19 7.39
18744 23.7410 31.09 44.19 5.67
18745 23.7420 38.15 44.20 6.25
18746 23.7430 47.04 44.21 6.90
18747 23.7440 51.74 44.22 7.23
18748 23.7450 47.97 44.23 6.95
18749 23.7460 34.72 44.24 5.92
18750 23.7470 42.00 44.25 6.48
18751 23.7480 41.23 44.26 6.42
18752 23.7490 36.39 44.27 6.03
18753 23.7500 38.53 44.29 6.27
18754 23.7510 42.47 44.30 6.61
18755 23.7520 56.21 44.31 7.54
18756 23.7530 43.24 44.33 6.60
18757 23.7540 49.55 44.35 7.06
18758 23.7550 41.56 44.37 6.48
18759 23.7560 43.05 44.39 6.61
18760 23.7570 43.60 44.41 6.63
18761 23.7580 52.23 44.40 7.23
18762 23.7590 46.34 44.45 6.83
18763 23.7600 48.38 44.45 7.04
18764 23.7610 49.06 44.54 7.12
18765 23.7620 47.92 44.58 6.96
18766 23.7630 44.00 44.58 6.67
18767 23.7640 58.10 44.61 7.65
18768 23.7650 43.39 44.65 6.64
18769 23.7660 38.90 44.69 6.27
18770 23.7670 43.21 44.74 6.59
18771 23.7680 40.49 44.79 6.37
18772 23.7690 52.00 44.84 7.19
18773 23.7700 51.93 44.90 7.27
18774 23.7710 41.67 44.96 6.54
18775 23.7720 43.48 45.02 6.68
18776 23.7730 43.72 45.10 6.67
18777 23.7740 58.09 45.17 7.67
18778 23.7750 52.90 45.26 7.32
18779 23.7760 53.61 45.35 7.38
18780 23.7770 50.79 45.46 7.13
18781 23.7780 46.57 45.57 6.82
18782 23.7790 46.84 45.69 6.87
18783 23.7800 39.54 45.83 6.37
18784 23.7810 42.23 45.98 6.61
18785 23.7820 41.56 46.15 6.54
18786 23.7830 43.30 46.34 6.65
18787 23.7840 55.08 46.55 7.46
18788 23.7850 53.10 46.79 7.32
18789 23.7860 48.61 47.06 7.01
18790 23.7870 41.17 47.37 6.45
18791 23.7880 46.90 47.72 6.84
18792 23.7890 45.07 48.14 6.74
18793 23.7900 43.93 48.62 6.70
18794 23.7910 42.16 49.19 6.58
18795 23.7920 52.46 49.87 7.29
18796 23.7930 47.30 50.70 6.90
18797 23.7940 60.10 51.70 7.77
18798 23.7950 47.77 52.91 6.97
18799 23.7960 62.98 54.39 7.99
18800 23.7970 50.61 56.19 7.15
18801 23.7980 45.60 58.35 6.77
18802 23.7990 54.91 60.94 7.44
18803 23.8000 62.95 63.98 8.01
18804 23.8010 63.56 67.47 8.08
18805 23.8020 68.60 71.36 8.34
18806 23.8030 67.81 75.50 8.26
18807 23.8040 74.47 79.66 8.65
18808 23.8050 86.68 83.59 9.38
18809 23.8060 75.12 87.11 8.70
18810 23.8070 96.01 90.07 9.83
18811 23.8080 93.86 92.34 9.68
18812 23.8090 83.45 93.67 9.16
18813 23.8100 88.66 93.74 9.48
18814 23.8110 98.52 92.32 10.06
18815 23.8120 90.01 89.43 9.55
18816 23.8130 97.13 85.40 9.90
18817 23.8140 86.16 80.73 9.29
18818 23.8150 64.23 75.92 8.05
18819 23.8160 56.04 71.33 7.54
18820 23.8170 68.40 67.18 8.28
18821 23.8180 62.66 63.56 7.88
18822 23.8190 67.31 60.48 8.18
18823 23.8200 47.44 57.89 6.95
18824 23.8210 60.93 55.75 7.92
18825 23.8220 54.67 54.00 7.47
18826 23.8230 45.37 52.57 6.81
18827 23.8240 47.93 51.40 6.97
18828 23.8250 50.42 50.44 7.17
18829 23.8260 50.16 49.65 7.11
18830 23.8270 36.95 49.00 6.10
18831 23.8280 45.18 48.45 6.71
18832 23.8290 50.17 47.98 7.10
18833 23.8300 44.79 47.58 6.76
18834 23.8310 62.93 47.24 8.07
18835 23.8320 45.51 46.94 6.84
18836 23.8330 53.50 46.67 7.38
18837 23.8340 40.70 46.43 6.41
18838 23.8350 40.20 46.22 6.38
18839 23.8360 45.68 46.03 6.83
18840 23.8370 39.45 45.86 6.30
18841 23.8380 50.66 45.71 7.09
18842 23.8390 53.34 45.57 7.34
18843 23.8400 37.67 45.44 6.22
18844 23.8410 54.51 45.33 7.51
18845 23.8420 37.51 45.22 6.18
18846 23.8430 43.77 45.13 6.64
18847 23.8440 55.05 45.04 7.45
18848 23.8450 40.97 44.96 6.44
18849 23.8460 41.44 44.88 6.50
18850 23.8470 51.99 44.81 7.27
18851 23.8480 38.40 44.75 6.24
18852 23.8490 44.28 44.69 6.70
18853 23.8500 46.03 44.64 6.86
18854 23.8510 52.24 44.59 7.31
18855 23.8520 45.95 44.54 6.87
18856 23.8530 51.64 44.50 7.23
18857 23.8540 44.45 44.45 6.70
18858 23.8550 49.01 44.42 7.07
18859 23.8560 49.55 44.38 7.12
18860 23.8570 42.12 44.35 6.52
18861 23.8580 36.27 44.31 6.02
18862 23.8590 41.27 44.29 6.44
18863 23.8600 41.89 44.26 6.57
18864 23.8610 38.54 44.23 6.30
18865 23.8620 55.28 44.21 7.48
18866 23.8630 53.96 44.18 7.39
18867 23.8640 50.94 44.16 7.17
18868 23.8650 53.63 44.14 7.36
18869 23.8660 43.17 44.12 6.61
18870 23.8670 43.44 44.11 6.61
18871 23.8680 45.33 44.09 6.71
18872 23.8690 44.67 44.07 6.70
18873 23.8700 39.46 44.06 6.36
18874 23.8710 46.45 44.04 6.93
18875 23.8720 54.99 44.03 7.51
18876 23.8730 58.63 44.02 7.72
18877 23.8740 39.86 44.01 6.36
18878 23.8750 50.57 44.00 7.15
18879 23.8760 32.08 43.99 5.71
18880 23.8770 40.86 43.98 6.43
18881 23.8780 51.54 43.97 7.17
18882 23.8790 52.67 43.96 7.28
18883 23.8800 35.63 43.95 6.05
18884 23.8810 43.67 43.95 6.72
18885 23.8820 41.89 43.94 6.54
18886 23.8830 50.35 43.93 7.15
18887 23.8840 47.77 43.93 6.97
18888 23.8850 34.59 43.92 5.94
18889 23.8860 44.58 43.92 6.75
18890 23.8870 49.45 43.91 7.03
18891 23.8880 37.21 43.91 6.11
18892 23.8890 53.92 43.91 7.33
18893 23.8900 37.84 43.90 6.21
18894 23.8910 41.95 43.90 6.57
18895 23.8920 44.33 43.90 6.74
18896 23.8930 38.80 43.90 6.26
18897 23.8940 36.73 43.90 6.10
18898 23.8950 45.10 43.90 6.76
18899 23.8960 39.83 43.90 6.37
18900 23.8970 52.07 43.90 7.24
18901 23.8980 42.14 43.90 6.48
18902 23.8990 46.55 43.90 6.84
18903 23.9000 42.31 43.90 6.56
18904 23.9010 63.49 43.90 8.07
18905 23.9020 47.33 43.90 6.93
18906 23.9030 38.10 43.90 6.17
18907 23.9040 43.80 43.90 6.62
18908 23.9050 32.84 43.91 5.77
18909 23.9060 41.66 43.91 6.52
18910 23.9070 45.56 43.91 6.77
18911 23.9080 47.10 43.92 6.88
18912 23.9090 50.43 43.92 7.13
18913 23.9100 47.09 43.93 6.91
18914 23.9110 48.33 43.93 7.04
18915 23.9120 56.24 43.94 7.56
18916 23.9130 38.55 43.94 6.25
18917 23.9140 43.04 43.95 6.58
18918 23.9150 43.09 43.95 6.59
18919 23.9160 27.69 43.96 5.33
18920 23.9170 45.43 43.97 6.77
18921 23.9180 41.34 43.97 6.42
18922 23.9190 55.58 43.98 7.46
18923 23.9200 55.09 43.99 7.51
18924 23.9210 47.36 43.99 6.98
18925 23.9220 49.83 44.00 7.12
18926 23.9230 60.53 44.01 7.82
18927 23.9240 51.47 44.02 7.18
18928 23.9250 44.63 44.03 6.71
18929 23.9260 46.96 44.10 6.89
18930 23.9270 55.06 44.11 7.41
18931 23.9280 49.14 44.17 7.00
18932 23.9290 46.00 44.24 6.82
18933 23.9300 40.46 44.25 6.43
18934 23.9310 47.55 44.26 7.04
18935 23.9320 50.97 44.27 7.22
18936 23.9330 43.12 44.29 6.64
18937 23.9340 50.14 44.30 7.09
18938 23.9350 46.71 44.32 6.88
18939 23.9360 42.00 44.33 6.52
18940 23.9370 52.53 44.35 7.26
18941 23.9380 46.36 44.36 6.80
18942 23.9390 53.77 44.38 7.33
18943 23.9400 33.92 44.40 5.92
18944 23.9410 41.54 44.41 6.57
18945 23.9420 43.51 44.43 6.65
18946 23.9430 49.25 44.45 7.04
18947 23.9440 24.09 44.47 4.95
18948 23.9450 46.57 44.49 6.84
18949 23.9460 54.16 44.51 7.38
18950 23.9470 52.50 44.53 7.26
18951 23.9480 49.58 44.55 7.02
18952 23.9490 56.10 44.57 7.51
18953 23.9500 50.14 44.59 7.14
18954 23.9510 48.84 44.62 7.08
18955 23.9520 44.23 44.64 6.69
18956 23.9530 43.72 44.67 6.65
18957 23.9540 41.77 44.69 6.50
18958 23.9550 41.40 44.72 6.46
18959 23.9560 46.44 44.74 6.88
18960 23.9570 42.94 44.77 6.60
18961 23.9580 41.09 44.80 6.42
18962 23.9590 45.84 44.83 6.77
18963 23.9600 57.34 44.86 7.62
18964 23.9610 51.85 44.89 7.29
18965 23.9620 44.04 44.92 6.71
18966 23.9630 42.99 44.95 6.56
18967 23.9640 52.50 44.99 7.29
18968 23.9650 42.63 45.02 6.58
18969 23.9660 44.95 45.06 6.75
18970 23.9670 48.24 45.09 6.93
18971 23.9680 48.58 45.13 6.96
18972 23.9690 50.94 45.17 7.15
18973 23.9700 50.92 45.21 7.17
18974 23.9710 44.40 45.25 6.75
18975 23.9720 52.08 45.29 7.28
18976 23.9730 37.40 45.34 6.18
18977 23.9740 46.93 45.38 6.91
18978 23.9750 42.66 45.43 6.57
18979 23.9760 50.06 45.48 7.11
18980 23.9770 47.05 45.52 6.87
18981 23.9780 42.21 45.58 6.51
18982 23.9790 35.70 45.63 5.99
18983 23.9800 47.14 45.68 6.96
18984 23.9810 52.45 45.74 7.37
18985 23.9820 52.77 45.79 7.37
18986 23.9830 45.90 45.85 6.82
18987 23.9840 37.47 45.91 6.15
18988 23.9850 48.33 45.97 7.00
18989 23.9860 40.98 46.04 6.43
18990 23.9870 42.68 46.11 6.55
18991 23.9880 57.28 46.17 7.57
18992 23.9890 48.78 46.25 6.99
18993 23.9900 39.68 46.32 6.39
18994 23.9910 52.60 46.39 7.35
18995 23.9920 55.33 46.47 7.51
18996 23.9930 60.55 46.55 7.82
18997 23.9940 54.49 46.64 7.42
18998 23.9950 61.04 46.72 7.85
18999 23.9960 50.16 46.81 7.14
19000 23.9970 47.94 46.91 6.99
19001 23.9980 56.70 47.00 7.55
19002 23.9990 52.44 47.10 7.28
19003 24.0000 58.90 47.21 7.74
19004 24.0010 51.31 47.31 7.26
19005 24.0020 55.13 47.42 7.50
19006 24.0030 57.42 47.54 7.64
19007 24.0040 48.24 47.66 6.99
19008 24.0050 48.83 47.78 7.07
19009 24.0060 38.74 47.91 6.32
19010 24.0070 51.13 48.04 7.20
19011 24.0080 48.04 48.18 6.94
19012 24.0090 41.87 48.33 6.51
19013 24.0100 43.07 48.48 6.64
19014 24.0110 53.91 48.63 7.45
19015 24.0120 55.71 48.79 7.57
19016 24.0130 45.65 48.96 6.79
19017 24.0140 51.04 49.14 7.21
19018 24.0150 39.85 49.32 6.36
19019 24.0160 47.41 49.52 6.91
19020 24.0170 53.75 49.72 7.36
19021 24.0180 53.00 49.93 7.28
19022 24.0190 56.42 50.14 7.53
19023 24.0200 60.54 50.37 7.87
19024 24.0210 50.50 50.61 7.23
19025 24.0220 53.09 50.86 7.41
19026 24.0230 61.63 51.13 7.92
19027 24.0240 48.67 51.40 7.02
19028 24.0250 51.95 51.69 7.26
19029 24.0260 55.47 52.00 7.50
19030 24.0270 48.61 52.32 6.98
19031 24.0280 55.92 52.65 7.50
19032 24.0290 46.20 53.01 6.84
19033 24.0300 50.78 53.38 7.21
19034 24.0310 56.40 53.77 7.64
19035 24.0320 52.10 54.19 7.33
19036 24.0330 55.77 54.63 7.52
19037 24.0340 64.23 55.09 8.05
19038 24.0350 68.16 55.59 8.30
19039 24.0360 52.70 56.11 7.30
19040 24.0370 49.16 56.66 7.02
19041 24.0380 59.19 57.25 7.68
19042 24.0390 42.87 57.88 6.56
19043 24.0400 66.98 58.55 8.25
19044 24.0410 72.40 59.26 8.63
19045 24.0420 48.98 60.03 7.07
19046 24.0430 57.53 60.84 7.64
19047 24.0440 60.02 61.72 7.77
19048 24.0450 69.48 62.66 8.40
19049 24.0460 67.54 63.67 8.28
19050 24.0470 67.86 64.76 8.26
19051 24.0480 46.56 65.94 6.83
19052 24.0490 63.33 67.21 7.98
19053 24.0500 61.99 68.59 7.97
19054 24.0510 63.79 70.09 8.10
19055 24.0520 73.52 71.72 8.64
19056 24.0530 79.43 73.50 8.94
19057 24.0540 80.81 75.45 9.06
19058 24.0550 76.22 77.58 8.75
19059 24.0560 81.29 79.94 9.08
19060 24.0570 77.58 82.54 8.83
19061 24.0580 82.35 85.41 9.07
19062 24.0590 102.33 88.62 10.10
19063 24.0600 96.93 92.18 9.88
19064 24.0610 72.17 96.18 8.57
19065 24.0620 113.65 100.70 10.73
19066 24.0630 125.10 105.83 11.22
19067 24.0640 107.28 111.68 10.33
19068 24.0650 128.32 118.45 11.34
19069 24.0660 120.05 126.32 10.97
19070 24.0670 144.47 135.58 12.03
19071 24.0680 158.35 146.61 12.49
19072 24.0690 191.59 159.86 13.79
19073 24.0700 185.60 175.98 13.71
19074 24.0710 218.55 195.60 14.97
19075 24.0720 240.80 219.63 15.64
19076 24.0730 260.55 249.16 16.19
19077 24.0740 269.22 285.06 16.42
19078 24.0750 316.98 328.49 17.90
19079 24.0760 377.26 380.49 19.51
19080 24.0770 431.95 441.61 20.75
19081 24.0780 503.98 511.58 22.35
19082 24.0790 560.24 589.24 23.59
19083 24.0800 650.88 671.21 25.72
19084 24.0810 698.37 751.76 26.66
19085 24.0820 829.93 823.70 29.06
19086 24.0830 934.79 878.65 30.70
19087 24.0840 966.27 909.46 31.02
19088 24.0850 854.26 910.88 29.29
19089 24.0860 909.94 881.65 30.13
19090 24.0870 797.42 825.47 28.18
19091 24.0880 757.23 750.69 27.47
19092 24.0890 658.54 667.38 25.57
19093 24.0900 536.04 583.89 23.21
19094 24.0910 470.14 505.62 21.98
19095 24.0920 440.52 436.03 20.98
19096 24.0930 383.23 375.86 19.59
19097 24.0940 342.93 324.81 18.53
19098 24.0950 269.25 282.48 16.44
19099 24.0960 253.97 247.61 15.97
19100 24.0970 243.21 219.16 15.65
19101 24.0980 210.07 196.07 14.43
19102 24.0990 202.03 177.28 14.18
19103 24.1000 182.39 162.00 13.62
19104 24.1010 169.47 149.44 13.13
19105 24.1020 140.86 139.07 11.93
19106 24.1030 141.76 130.43 11.90
19107 24.1040 126.12 123.15 11.21
19108 24.1050 103.19 116.96 10.18
19109 24.1060 109.68 111.68 10.51
19110 24.1070 101.02 107.13 10.10
19111 24.1080 98.40 103.19 9.87
19112 24.1090 95.53 99.80 9.80
19113 24.1100 100.84 96.88 10.09
19114 24.1110 98.30 94.35 10.02
19115 24.1120 97.24 92.19 9.90
19116 24.1130 78.06 90.37 8.82
19117 24.1140 80.21 88.84 8.96
19118 24.1150 89.26 87.59 9.46
19119 24.1160 83.90 86.61 9.16
19120 24.1170 78.27 85.88 8.84
19121 24.1180 89.60 85.40 9.42
19122 24.1190 88.57 85.17 9.40
19123 24.1200 81.68 85.18 9.10
19124 24.1210 78.27 85.45 8.95
19125 24.1220 79.92 85.99 9.02
19126 24.1230 85.78 86.82 9.27
19127 24.1240 90.66 87.97 9.54
19128 24.1250 96.07 89.47 9.81
19129 24.1260 92.78 91.38 9.62
19130 24.1270 95.67 93.77 9.74
19131 24.1280 88.38 96.74 9.33
19132 24.1290 96.40 100.41 9.79
19133 24.1300 123.20 104.94 11.19
19134 24.1310 120.50 110.57 11.10
19135 24.1320 126.65 117.57 11.34
19136 24.1330 126.99 126.27 11.30
19137 24.1340 131.62 137.11 11.52
19138 24.1350 151.22 150.54 12.31
19139 24.1360 193.90 167.11 13.93
19140 24.1370 201.66 187.33 14.16
19141 24.1380 216.00 211.65 14.58
19142 24.1390 272.56 240.54 16.47
19143 24.1400 270.47 273.81 16.53
19144 24.1410 294.06 311.02 17.30
19145 24.1420 380.28 350.72 19.58
19146 24.1430 417.25 390.42 20.37
19147 24.1440 466.84 426.01 21.57
19148 24.1450 446.81 453.11 21.17
19149 24.1460 435.05 467.36 20.89
19150 24.1470 460.80 465.98 21.39
19151 24.1480 469.17 448.79 21.54
19152 24.1490 386.36 418.71 19.57
19153 24.1500 348.53 380.46 18.72
19154 24.1510 295.13 339.14 17.31
19155 24.1520 267.71 298.72 16.40
19156 24.1530 259.35 261.44 16.13
19157 24.1540 239.79 228.49 15.49
19158 24.1550 207.76 200.23 14.51
19159 24.1560 176.68 176.38 13.31
19160 24.1570 156.54 156.57 12.49
19161 24.1580 147.25 140.31 12.08
19162 24.1590 142.58 127.02 11.91
19163 24.1600 122.77 116.14 11.11
19164 24.1610 111.53 107.30 10.63
19165 24.1620 109.95 100.04 10.58
19166 24.1630 91.88 94.00 9.63
19167 24.1640 95.37 88.98 9.79
19168 24.1650 83.02 84.73 9.10
19169 24.1660 89.87 81.09 9.48
19170 24.1670 96.33 77.94 9.79
19171 24.1680 69.96 75.19 8.30
19172 24.1690 56.91 72.78 7.50
19173 24.1700 72.74 70.64 8.58
19174 24.1710 60.15 68.73 7.84
19175 24.1720 76.99 67.02 8.82
19176 24.1730 67.58 65.49 8.24
19177 24.1740 54.04 64.10 7.38
19178 24.1750 64.91 62.85 8.08
19179 24.1760 55.42 61.71 7.47
19180 24.1770 59.98 60.66 7.71
19181 24.1780 73.44 59.71 8.54
19182 24.1790 55.13 58.84 7.46
19183 24.1800 59.73 58.04 7.81
19184 24.1810 52.46 57.30 7.34
19185 24.1820 64.95 56.62 8.15
19186 24.1830 58.79 55.99 7.68
19187 24.1840 46.97 55.41 6.87
19188 24.1850 59.42 54.87 7.71
19189 24.1860 52.68 54.37 7.27
19190 24.1870 53.25 53.90 7.30
19191 24.1880 61.10 53.47 7.79
19192 24.1890 46.26 53.05 6.77
19193 24.1900 35.70 52.68 6.05
19194 24.1910 55.92 52.32 7.58
19195 24.1920 43.72 51.99 6.67
19196 24.1930 60.50 51.67 7.81
19197 24.1940 56.58 51.38 7.55
19198 24.1950 52.23 51.10 7.27
19199 24.1960 46.98 50.84 6.91
19200 24.1970 54.37 50.60 7.38
19201 24.1980 63.12 50.37 7.91
19202 24.1990 41.92 50.15 6.52
19203 24.2000 44.31 49.95 6.70
19204 24.2010 56.07 49.76 7.57
19205 24.2020 61.47 49.58 7.91
19206 24.2030 51.26 49.41 7.22
19207 24.2040 50.68 49.26 7.16
19208 24.2050 41.98 49.11 6.55
19209 24.2060 59.99 48.97 7.81
19210 24.2070 57.22 48.84 7.57
19211 24.2080 45.50 48.71 6.73
19212 24.2090 63.32 48.60 7.97
19213 24.2100 58.63 48.49 7.71
19214 24.2110 47.97 48.39 7.00
19215 24.2120 54.08 48.29 7.42
19216 24.2130 53.68 48.20 7.34
19217 24.2140 46.51 48.12 6.85
19218 24.2150 49.22 48.05 7.05
19219 24.2160 55.48 47.98 7.46
19220 24.2170 48.67 47.91 6.97
19221 24.2180 45.64 47.85 6.75
19222 24.2190 46.54 47.80 6.81
19223 24.2200 33.21 47.75 5.84
19224 24.2210 38.40 47.71 6.28
19225 24.2220 49.25 47.67 7.09
19226 24.2230 57.95 47.64 7.65
19227 24.2240 41.15 47.61 6.45
19228 24.2250 47.05 47.59 6.90
19229 24.2260 49.66 47.57 7.08
19230 24.2270 46.22 47.56 6.80
19231 24.2280 54.46 47.55 7.36
19232 24.2290 57.87 47.55 7.64
19233 24.2300 52.54 47.55 7.36
19234 24.2310 50.26 47.55 7.22
19235 24.2320 61.38 47.56 7.89
19236 24.2330 45.70 47.58 6.81
19237 24.2340 57.31 47.60 7.58
19238 24.2350 48.47 47.63 6.99
19239 24.2360 53.50 47.66 7.33
19240 24.2370 42.32 47.70 6.51
19241 24.2380 44.56 47.74 6.65
19242 24.2390 48.68 47.79 7.01
19243 24.2400 58.06 47.84 7.65
19244 24.2410 49.89 47.90 7.14
19245 24.2420 38.19 47.97 6.24
19246 24.2430 45.81 48.04 6.81
19247 24.2440 60.42 48.12 7.80
19248 24.2450 53.64 48.20 7.37
19249 24.2460 32.98 48.29 5.83
19250 24.2470 46.45 48.39 6.82
19251 24.2480 51.93 48.50 7.22
19252 24.2490 48.46 48.62 6.96
19253 24.2500 50.06 48.74 7.14
19254 24.2510 41.44 48.87 6.54
19255 24.2520 47.69 49.01 6.99
19256 24.2530 46.24 49.17 6.82
19257 24.2540 62.91 49.33 7.97
19258 24.2550 55.46 49.50 7.50
19259 24.2560 68.72 49.69 8.35
19260 24.2570 50.35 49.89 7.09
19261 24.2580 55.10 50.10 7.41
19262 24.2590 43.98 50.32 6.65
19263 24.2600 52.37 50.56 7.29
19264 24.2610 48.16 50.82 6.97
19265 24.2620 58.86 51.10 7.71
19266 24.2630 59.54 51.39 7.74
19267 24.2640 45.67 51.71 6.78
19268 24.2650 47.45 52.05 6.89
19269 24.2660 47.17 52.41 6.89
19270 24.2670 51.53 52.79 7.19
19271 24.2680 48.29 53.21 6.94
19272 24.2690 47.24 53.65 6.88
19273 24.2700 50.32 54.12 7.16
19274 24.2710 62.65 54.63 8.00
19275 24.2720 57.15 55.16 7.61
19276 24.2730 52.52 55.73 7.29
19277 24.2740 57.65 56.34 7.62
19278 24.2750 58.09 56.99 7.67
19279 24.2760 57.87 57.70 7.65
19280 24.2770 48.14 58.46 6.95
19281 24.2780 66.18 59.29 8.11
19282 24.2790 62.49 60.19 7.92
19283 24.2800 69.71 61.16 8.41
19284 24.2810 65.49 62.23 8.19
19285 24.2820 59.18 63.39 7.73
19286 24.2830 59.62 64.67 7.73
19287 24.2840 75.19 66.06 8.67
19288 24.2850 64.59 67.60 8.06
19289 24.2860 91.15 69.29 9.56
19290 24.2870 77.05 71.15 8.77
19291 24.2880 82.62 73.22 9.05
19292 24.2890 84.98 75.52 9.20
19293 24.2900 79.17 78.07 8.97
19294 24.2910 77.26 80.94 8.90
19295 24.2920 85.90 84.17 9.30
19296 24.2930 94.55 87.81 9.72
19297 24.2940 91.33 91.95 9.55
19298 24.2950 101.87 96.71 10.11
19299 24.2960 108.95 102.21 10.47
19300 24.2970 121.54 108.62 10.99
19301 24.2980 143.51 116.21 11.94
19302 24.2990 146.61 125.28 12.08
19303 24.3000 146.40 136.19 12.17
19304 24.3010 163.82 149.48 12.91
19305 24.3020 160.97 165.74 12.73
19306 24.3030 197.04 185.64 14.05
19307 24.3040 275.28 210.07 16.54
19308 24.3050 264.62 239.80 16.33
19309 24.3060 307.93 275.86 17.58
19310 24.3070 319.57 318.75 17.82
19311 24.3080 367.99 369.00 19.12
19312 24.3090 435.18 426.65 20.77
19313 24.3100 501.94 490.04 22.56
19314 24.3110 557.76 556.43 23.83
19315 24.3120 594.01 620.93 24.44
19316 24.3130 689.74 676.53 26.28
19317 24.3140 728.21 715.61 26.96
19318 24.3150 753.83 732.07 27.45
19319 24.3160 720.49 722.81 26.78
19320 24.3170 679.84 689.27 26.04
19321 24.3180 639.27 636.82 25.15
19322 24.3190 614.04 573.37 24.77
19323 24.3200 523.79 506.25 23.04
19324 24.3210 454.66 441.27 21.52
19325 24.3220 372.11 381.96 19.46
19326 24.3230 342.39 329.69 18.50
19327 24.3240 305.11 284.90 17.45
19328 24.3250 280.80 247.31 16.78
19329 24.3260 218.07 216.13 14.73
19330 24.3270 188.87 190.44 13.72
19331 24.3280 178.39 169.53 13.29
19332 24.3290 172.64 152.48 13.14
19333 24.3300 156.68 138.50 12.63
19334 24.3310 146.54 127.07 12.22
19335 24.3320 151.94 117.60 12.40
19336 24.3330 124.53 109.67 11.18
19337 24.3340 111.91 102.97 10.57
19338 24.3350 95.72 97.24 9.75
19339 24.3360 93.28 92.30 9.65
19340 24.3370 91.87 87.99 9.54
19341 24.3380 86.99 84.20 9.25
19342 24.3390 85.38 80.85 9.20
19343 24.3400 86.78 77.88 9.33
19344 24.3410 86.84 75.21 9.42
19345 24.3420 75.32 72.82 8.72
19346 24.3430 62.47 70.67 7.92
19347 24.3440 78.66 68.72 8.85
19348 24.3450 59.95 66.95 7.75
19349 24.3460 71.34 65.35 8.46
19350 24.3470 54.70 63.88 7.38
19351 24.3480 69.71 62.53 8.30
19352 24.3490 64.72 61.30 8.03
19353 24.3500 55.94 60.17 7.53
19354 24.3510 63.30 59.13 8.05
19355 24.3520 65.35 58.17 8.13
19356 24.3530 55.93 57.27 7.50
19357 24.3540 47.30 56.45 6.91
19358 24.3550 69.15 55.68 8.35
19359 24.3560 57.60 54.96 7.59
19360 24.3570 54.98 54.30 7.44
19361 24.3580 59.34 53.68 7.62
19362 24.3590 66.18 53.10 8.11
19363 24.3600 40.79 52.55 6.43
19364 24.3610 62.66 52.04 7.97
19365 24.3620 51.10 51.56 7.19
19366 24.3630 57.08 51.11 7.56
19367 24.3640 52.29 50.68 7.25
19368 24.3650 47.90 50.28 6.92
19369 24.3660 54.01 49.90 7.38
19370 24.3670 57.36 49.55 7.55
19371 24.3680 54.94 49.21 7.36
19372 24.3690 54.85 48.89 7.37
19373 24.3700 61.51 48.58 7.86
19374 24.3710 51.05 48.29 7.23
19375 24.3720 57.81 48.02 7.65
19376 24.3730 60.54 47.76 7.76
19377 24.3740 49.35 47.51 7.03
19378 24.3750 50.38 47.27 7.13
19379 24.3760 47.70 47.05 6.90
19380 24.3770 53.70 46.83 7.33
19381 24.3780 47.23 46.63 6.87
19382 24.3790 52.16 46.43 7.21
19383 24.3800 60.72 46.24 7.84
19384 24.3810 45.92 46.06 6.85
19385 24.3820 40.11 45.89 6.39
19386 24.3830 53.37 45.72 7.31
19387 24.3840 52.10 45.56 7.21
19388 24.3850 37.52 45.41 6.15
19389 24.3860 41.44 45.27 6.43
19390 24.3870 38.70 45.12 6.22
19391 24.3880 44.74 44.99 6.63
19392 24.3890 48.37 44.86 6.94
19393 24.3900 45.80 44.73 6.81
19394 24.3910 44.68 44.61 6.75
19395 24.3920 41.60 44.50 6.49
19396 24.3930 42.79 44.38 6.54
19397 24.3940 45.70 44.28 6.75
19398 24.3950 50.26 44.17 7.10
19399 24.3960 50.77 44.07 7.13
19400 24.3970 42.29 43.97 6.49
19401 24.3980 40.67 43.88 6.38
19402 24.3990 51.60 43.78 7.18
19403 24.4000 48.11 43.70 7.01
19404 24.4010 49.87 43.61 7.16
19405 24.4020 53.55 43.53 7.36
19406 24.4030 39.52 43.45 6.33
19407 24.4040 33.84 43.37 5.86
19408 24.4050 44.34 43.29 6.68
19409 24.4060 41.58 43.22 6.48
19410 24.4070 40.83 43.15 6.39
19411 24.4080 46.02 43.08 6.75
19412 24.4090 52.53 43.01 7.24
19413 24.4100 40.89 42.94 6.45
19414 24.4110 36.58 42.88 6.12
19415 24.4120 43.91 42.82 6.65
19416 24.4130 37.88 42.76 6.18
19417 24.4140 38.59 42.70 6.22
19418 24.4150 38.36 42.64 6.22
19419 24.4160 41.82 42.59 6.47
19420 24.4170 45.56 42.53 6.74
19421 24.4180 42.52 42.48 6.52
19422 24.4190 40.36 42.43 6.35
19423 24.4200 45.28 42.38 6.76
19424 24.4210 58.10 42.33 7.70
19425 24.4220 40.45 42.28 6.43
19426 24.4230 44.79 42.23 6.70
19427 24.4240 47.53 42.19 6.89
19428 24.4250 49.75 42.14 7.09
19429 24.4260 32.21 42.10 5.73
19430 24.4270 35.45 42.05 5.95
19431 24.4280 51.85 42.01 7.17
19432 24.4290 48.40 41.97 6.97
19433 24.4300 51.22 41.93 7.23
19434 24.4310 47.55 41.89 6.98
19435 24.4320 48.25 41.85 6.97
19436 24.4330 39.23 41.82 6.28
19437 24.4340 45.50 41.78 6.76
19438 24.4350 42.91 41.74 6.55
19439 24.4360 52.65 41.71 7.26
19440 24.4370 37.76 41.67 6.13
19441 24.4380 59.94 41.64 7.69
19442 24.4390 47.90 41.61 6.91
19443 24.4400 34.74 41.57 5.94
19444 24.4410 46.46 41.54 6.89
19445 24.4420 45.76 41.51 6.81
19446 24.4430 50.39 41.48 7.14
19447 24.4440 41.34 41.45 6.45
19448 24.4450 58.54 41.42 7.66
19449 24.4460 38.45 41.39 6.26
19450 24.4470 40.65 41.36 6.41
19451 24.4480 36.74 41.33 6.04
19452 24.4490 50.78 41.31 7.11
19453 24.4500 42.44 41.29 6.59
19454 24.4510 50.25 41.26 7.18
19455 24.4520 45.30 41.24 6.78
19456 24.4530 38.64 41.22 6.25
19457 24.4540 43.22 41.19 6.60
19458 24.4550 45.01 41.17 6.75
19459 24.4560 37.48 41.14 6.14
19460 24.4570 48.63 41.12 6.97
19461 24.4580 49.15 41.09 6.94
19462 24.4590 52.71 41.07 7.23
19463 24.4600 44.53 41.05 6.72
19464 24.4610 45.87 41.02 6.84
19465 24.4620 35.28 41.00 5.97
19466 24.4630 49.86 40.98 7.08
19467 24.4640 48.78 40.96 6.98
19468 24.4650 41.24 40.94 6.48
19469 24.4660 40.15 40.92 6.37
19470 24.4670 48.50 40.89 6.97
19471 24.4680 51.22 40.87 7.14
19472 24.4690 43.27 40.78 6.59
19473 24.4700 41.44 40.77 6.52
19474 24.4710 53.45 40.75 7.39
19475 24.4720 51.01 40.59 7.19
19476 24.4730 45.66 40.57 6.79
19477 24.4740 40.49 40.56 6.39
19478 24.4750 50.11 40.54 7.14
19479 24.4760 40.18 40.52 6.38
19480 24.4770 46.35 40.50 6.85
19481 24.4780 38.77 40.49 6.23
19482 24.4790 54.70 40.47 7.40
19483 24.4800 63.97 40.45 8.07
19484 24.4810 50.23 40.44 7.17
19485 24.4820 41.11 40.42 6.44
19486 24.4830 42.51 40.41 6.55
19487 24.4840 53.86 40.39 7.34
19488 24.4850 50.11 40.37 7.14
19489 24.4860 34.54 40.36 5.90
19490 24.4870 36.28 40.34 6.02
19491 24.4880 37.71 40.33 6.13
19492 24.4890 47.66 40.31 6.93
19493 24.4900 39.58 40.30 6.35
19494 24.4910 44.12 40.29 6.76
19495 24.4920 47.27 40.27 6.94
19496 24.4930 49.10 40.26 7.05
19497 24.4940 37.47 40.24 6.15
19498 24.4950 39.61 40.23 6.31
19499 24.4960 44.98 40.22 6.76
19500 24.4970 42.88 40.20 6.56
19501 24.4980 37.60 40.19 6.12
19502 24.4990 41.90 40.18 6.48
19503 24.5000 46.70 40.16 6.91
19504 24.5010 43.14 40.15 6.67
19505 24.5020 40.52 40.14 6.42
19506 24.5030 46.39 40.13 6.83
19507 24.5040 40.93 40.11 6.40
19508 24.5050 41.17 40.10 6.47
19509 24.5060 41.26 40.09 6.46
19510 24.5070 42.38 40.08 6.51
19511 24.5080 38.65 40.06 6.19
19512 24.5090 53.28 40.05 7.29
19513 24.5100 47.49 40.04 6.96
19514 24.5110 49.00 40.03 7.09
19515 24.5120 46.33 40.02 6.84
19516 24.5130 43.25 40.01 6.60
19517 24.5140 52.61 40.00 7.28
19518 24.5150 39.22 39.98 6.28
19519 24.5160 41.35 39.97 6.47
19520 24.5170 40.91 39.96 6.40
19521 24.5180 52.97 39.95 7.27
19522 24.5190 41.35 39.94 6.42
19523 24.5200 47.73 39.93 6.95
19524 24.5210 52.19 39.92 7.36
19525 24.5220 44.74 39.91 6.72
19526 24.5230 43.91 39.90 6.65
19527 24.5240 43.30 39.89 6.60
19528 24.5250 43.05 39.88 6.61
19529 24.5260 35.23 39.87 5.99
19530 24.5270 43.37 39.86 6.62
19531 24.5280 47.32 39.85 6.89
19532 24.5290 46.40 39.84 6.84
19533 24.5300 40.64 39.83 6.47
19534 24.5310 43.37 39.82 6.69
19535 24.5320 53.76 39.78 7.39
19536 24.5330 38.71 39.77 6.23
19537 24.5340 46.34 39.70 6.82
19538 24.5350 42.76 39.69 6.57
19539 24.5360 40.70 39.68 6.41
19540 24.5370 45.51 39.68 6.74
19541 24.5380 43.95 39.67 6.64
19542 24.5390 50.03 39.66 7.08
19543 24.5400 50.72 39.65 7.22
19544 24.5410 44.51 39.64 6.76
19545 24.5420 46.93 39.64 6.93
19546 24.5430 53.70 39.63 7.38
19547 24.5440 50.07 39.62 7.08
19548 24.5450 43.35 39.62 6.63
19549 24.5460 46.50 39.61 6.89
19550 24.5470 47.27 39.60 6.88
19551 24.5480 44.16 39.60 6.65
19552 24.5490 54.75 39.59 7.41
19553 24.5500 33.38 39.58 5.85
19554 24.5510 41.51 39.58 6.57
19555 24.5520 39.39 39.57 6.33
19556 24.5530 48.45 39.56 7.00
19557 24.5540 55.26 39.56 7.50
19558 24.5550 46.54 39.55 6.88
19559 24.5560 41.59 39.55 6.48
19560 24.5570 34.98 39.54 5.93
19561 24.5580 50.71 39.54 7.11
19562 24.5590 42.88 39.53 6.56
19563 24.5600 48.54 39.53 7.03
19564 24.5610 43.35 39.53 6.68
19565 24.5620 56.82 39.52 7.59
19566 24.5630 46.41 39.52 6.88
19567 24.5640 48.40 39.52 7.00
19568 24.5650 54.91 39.51 7.45
19569 24.5660 41.14 39.51 6.48
19570 24.5670 46.28 39.51 6.80
19571 24.5680 36.49 39.51 6.01
19572 24.5690 41.48 39.51 6.45
19573 24.5700 47.28 39.50 6.94
19574 24.5710 47.85 39.50 7.04
19575 24.5720 44.47 39.50 6.74
19576 24.5730 43.03 39.51 6.62
19577 24.5740 39.85 39.51 6.37
19578 24.5750 50.31 39.51 7.16
19579 24.5760 43.44 39.51 6.64
19580 24.5770 45.84 39.52 6.77
19581 24.5780 45.51 39.52 6.73
19582 24.5790 44.34 39.53 6.69
19583 24.5800 46.67 39.54 6.90
19584 24.5810 50.61 39.54 7.20
19585 24.5820 50.75 39.56 7.18
19586 24.5830 58.63 39.57 7.69
19587 24.5840 40.12 39.58 6.35
19588 24.5850 51.20 39.60 7.15
19589 24.5860 48.28 39.62 6.99
19590 24.5870 36.26 39.64 6.04
19591 24.5880 47.15 39.66 6.85
19592 24.5890 38.60 39.69 6.24
19593 24.5900 29.08 39.72 5.47
19594 24.5910 42.02 39.76 6.62
19595 24.5920 40.71 39.80 6.43
19596 24.5930 44.83 39.85 6.71
19597 24.5940 55.69 39.91 7.48
19598 24.5950 41.62 39.98 6.50
19599 24.5960 40.21 40.06 6.39
19600 24.5970 43.08 40.15 6.59
19601 24.5980 49.58 40.27 7.06
19602 24.5990 46.91 40.41 6.88
19603 24.6000 37.99 40.59 6.24
19604 24.6010 44.83 40.80 6.79
19605 24.6020 47.71 41.07 6.99
19606 24.6030 43.31 41.39 6.62
19607 24.6040 38.87 41.78 6.26
19608 24.6050 37.86 42.25 6.20
19609 24.6060 40.17 42.80 6.39
19610 24.6070 48.65 43.44 6.98
19611 24.6080 58.19 44.16 7.58
19612 24.6090 50.06 44.94 7.06
19613 24.6100 44.89 45.72 6.75
19614 24.6110 45.59 46.44 6.82
19615 24.6120 45.35 47.02 6.76
19616 24.6130 47.12 47.40 6.89
19617 24.6140 48.64 47.57 7.01
19618 24.6150 57.05 47.54 7.61
19619 24.6160 47.49 47.33 6.95
19620 24.6170 58.16 46.96 7.61
19621 24.6180 45.29 46.44 6.72
19622 24.6190 54.03 45.78 7.34
19623 24.6200 37.42 45.04 6.18
19624 24.6210 47.13 44.28 6.98
19625 24.6220 48.08 43.55 7.00
19626 24.6230 44.68 42.88 6.74
19627 24.6240 44.92 42.30 6.73
19628 24.6250 51.05 41.80 7.18
19629 24.6260 46.24 41.37 6.85
19630 24.6270 50.30 41.02 7.14
19631 24.6280 48.14 40.72 6.91
19632 24.6290 40.29 40.48 6.35
19633 24.6300 53.04 40.28 7.34
19634 24.6310 43.99 40.11 6.72
19635 24.6320 49.15 39.97 7.07
19636 24.6330 53.10 39.85 7.28
19637 24.6340 51.82 39.75 7.22
19638 24.6350 44.57 39.67 6.69
19639 24.6360 40.72 39.59 6.41
19640 24.6370 46.31 39.53 6.82
19641 24.6380 47.61 39.47 6.88
19642 24.6390 47.58 39.42 6.91
19643 24.6400 38.89 39.37 6.31
19644 24.6410 41.28 39.33 6.52
19645 24.6420 46.78 39.29 6.91
19646 24.6430 41.78 39.26 6.51
19647 24.6440 34.79 39.22 5.91
19648 24.6450 32.79 39.19 5.77
19649 24.6460 45.51 39.17 6.78
19650 24.6470 51.53 39.14 7.19
19651 24.6480 41.22 39.12 6.43
19652 24.6490 46.68 39.09 6.86
19653 24.6500 39.91 39.07 6.38
19654 24.6510 28.11 39.05 5.41
19655 24.6520 39.08 39.04 6.32
19656 24.6530 47.10 39.02 6.90
19657 24.6540 56.82 39.00 7.56
19658 24.6550 42.07 38.99 6.53
19659 24.6560 41.78 38.97 6.49
19660 24.6570 40.57 38.96 6.36
19661 24.6580 35.06 38.94 5.92
19662 24.6590 43.95 38.93 6.64
19663 24.6600 44.33 38.92 6.70
19664 24.6610 40.28 38.90 6.43
19665 24.6620 41.44 38.89 6.51
19666 24.6630 42.47 38.88 6.56
19667 24.6640 34.78 38.87 5.92
19668 24.6650 44.01 38.86 6.67
19669 24.6660 46.26 38.85 6.85
19670 24.6670 57.52 38.84 7.56
19671 24.6680 49.17 38.83 6.99
19672 24.6690 45.10 38.82 6.70
19673 24.6700 42.56 38.81 6.60
19674 24.6710 37.98 38.80 6.27
19675 24.6720 44.01 38.79 6.69
19676 24.6730 41.63 38.79 6.51
19677 24.6740 50.49 38.78 7.14
19678 24.6750 50.43 38.77 7.15
19679 24.6760 48.08 38.76 6.98
19680 24.6770 50.47 38.75 7.13
19681 24.6780 47.42 38.75 6.89
19682 24.6790 30.50 38.74 5.56
19683 24.6800 32.70 38.73 5.79
19684 24.6810 40.44 38.73 6.44
19685 24.6820 44.97 38.72 6.76
19686 24.6830 52.71 38.71 7.29
19687 24.6840 39.21 38.71 6.27
19688 24.6850 56.31 38.70 7.52
19689 24.6860 39.51 38.69 6.31
19690 24.6870 38.49 38.69 6.21
19691 24.6880 45.35 38.68 6.74
19692 24.6890 44.46 38.67 6.66
19693 24.6900 57.85 38.67 7.68
19694 24.6910 49.27 38.66 7.12
19695 24.6920 49.30 38.66 7.07
19696 24.6930 42.21 38.65 6.53
19697 24.6940 31.90 38.64 5.67
19698 24.6950 39.93 38.64 6.37
19699 24.6960 39.01 38.63 6.28
19700 24.6970 33.61 38.63 5.82
19701 24.6980 47.37 38.62 6.89
19702 24.6990 38.95 38.62 6.27
19703 24.7000 37.39 38.61 6.21
19704 24.7010 34.47 38.61 5.97
19705 24.7020 31.61 38.55 5.69
19706 24.7030 41.36 38.54 6.47
19707 24.7040 37.85 38.48 6.17
19708 24.7050 42.56 38.43 6.53
19709 24.7060 46.69 38.43 6.87
19710 24.7070 37.41 38.42 6.14
19711 24.7080 39.43 38.42 6.27
19712 24.7090 38.64 38.42 6.22
19713 24.7100 43.69 38.41 6.66
19714 24.7110 33.16 38.41 5.84
19715 24.7120 41.01 38.41 6.45
19716 24.7130 43.81 38.40 6.65
19717 24.7140 45.14 38.40 6.76
19718 24.7150 58.70 38.40 7.71
19719 24.7160 48.24 38.39 6.99
19720 24.7170 38.75 38.39 6.23
19721 24.7180 44.72 38.39 6.66
19722 24.7190 50.79 38.38 7.12
19723 24.7200 43.63 38.38 6.67
19724 24.7210 40.70 38.38 6.48
19725 24.7220 43.88 38.38 6.69
19726 24.7230 44.97 38.37 6.74
19727 24.7240 39.47 38.37 6.32
19728 24.7250 38.02 38.37 6.19
19729 24.7260 49.60 38.37 7.07
19730 24.7270 49.51 38.37 7.04
19731 24.7280 47.19 38.36 6.86
19732 24.7290 31.21 38.36 5.60
19733 24.7300 40.32 38.36 6.42
19734 24.7310 54.60 38.36 7.50
19735 24.7320 46.90 38.36 6.88
19736 24.7330 49.88 38.36 7.06
19737 24.7340 45.35 38.36 6.76
19738 24.7350 54.84 38.35 7.41
19739 24.7360 30.67 38.35 5.59
19740 24.7370 29.19 38.35 5.40
19741 24.7380 38.83 38.35 6.21
19742 24.7390 54.04 38.35 7.37
19743 24.7400 48.79 38.35 7.03
19744 24.7410 45.71 38.35 6.87
19745 24.7420 46.72 38.35 6.87
19746 24.7430 39.55 38.35 6.32
19747 24.7440 42.78 38.35 6.57
19748 24.7450 43.11 38.35 6.61
19749 24.7460 51.93 38.35 7.23
19750 24.7470 40.39 38.36 6.38
19751 24.7480 36.16 38.37 5.99
19752 24.7490 46.80 38.37 6.84
19753 24.7500 45.97 38.38 6.85
19754 24.7510 46.97 38.38 6.96
19755 24.7520 44.47 38.38 6.74
19756 24.7530 46.75 38.38 6.88
19757 24.7540 41.93 38.38 6.51
19758 24.7550 51.67 38.42 7.25
19759 24.7560 36.20 38.42 6.06
19760 24.7570 40.82 38.42 6.38
19761 24.7580 34.08 38.43 5.81
19762 24.7590 39.94 38.43 6.32
19763 24.7600 38.02 38.44 6.23
19764 24.7610 59.60 38.44 7.80
19765 24.7620 40.76 38.45 6.43
19766 24.7630 40.90 38.45 6.47
19767 24.7640 43.40 38.46 6.62
19768 24.7650 40.45 38.47 6.39
19769 24.7660 44.53 38.47 6.71
19770 24.7670 47.58 38.48 6.89
19771 24.7680 55.02 38.49 7.37
19772 24.7690 43.56 38.50 6.59
19773 24.7700 45.69 38.51 6.82
19774 24.7710 54.65 38.52 7.52
19775 24.7720 59.77 38.53 7.82
19776 24.7730 58.33 38.54 7.67
19777 24.7740 49.67 38.55 7.07
19778 24.7750 45.53 38.56 6.78
19779 24.7760 32.82 38.58 5.79
19780 24.7770 43.43 38.59 6.58
19781 24.7780 35.31 38.61 5.94
19782 24.7790 47.25 38.62 6.89
19783 24.7800 37.79 38.64 6.20
19784 24.7810 47.56 38.66 6.95
19785 24.7820 53.78 38.68 7.36
19786 24.7830 57.60 38.70 7.58
19787 24.7840 48.75 38.72 7.00
19788 24.7850 37.70 38.74 6.16
19789 24.7860 51.43 38.77 7.18
19790 24.7870 53.78 38.80 7.32
19791 24.7880 38.42 38.82 6.21
19792 24.7890 31.98 38.85 5.65
19793 24.7900 41.49 38.89 6.49
19794 24.7910 40.38 38.92 6.41
19795 24.7920 37.76 38.96 6.16
19796 24.7930 37.46 39.00 6.14
19797 24.7940 37.16 39.04 6.12
19798 24.7950 39.64 39.08 6.34
19799 24.7960 53.50 39.13 7.39
19800 24.7970 45.88 39.18 6.79
19801 24.7980 47.27 39.24 6.86
19802 24.7990 50.43 39.30 7.08
19803 24.8000 42.73 39.36 6.61
19804 24.8010 53.20 39.43 7.37
19805 24.8020 52.47 39.51 7.28
19806 24.8030 40.65 39.59 6.40
19807 24.8040 33.35 39.67 5.80
19808 24.8050 46.92 39.77 6.88
19809 24.8060 43.85 39.87 6.64
19810 24.8070 45.12 39.98 6.70
19811 24.8080 42.26 40.10 6.48
19812 24.8090 47.55 40.24 6.87
19813 24.8100 41.41 40.38 6.50
19814 24.8110 45.92 40.54 6.84
19815 24.8120 45.02 40.72 6.78
19816 24.8130 59.75 40.91 7.73
19817 24.8140 47.31 41.12 6.88
19818 24.8150 38.79 41.36 6.24
19819 24.8160 41.25 41.62 6.43
19820 24.8170 41.59 41.92 6.44
19821 24.8180 55.82 42.24 7.45
19822 24.8190 54.67 42.62 7.42
19823 24.8200 55.06 43.04 7.49
19824 24.8210 36.61 43.52 6.15
19825 24.8220 48.15 44.07 7.03
19826 24.8230 46.17 44.71 6.84
19827 24.8240 49.40 45.47 7.03
19828 24.8250 43.67 46.36 6.63
19829 24.8260 62.35 47.42 7.91
19830 24.8270 66.17 48.71 8.13
19831 24.8280 50.28 50.27 7.09
19832 24.8290 56.49 52.16 7.48
19833 24.8300 48.77 54.48 7.01
19834 24.8310 66.22 57.30 8.23
19835 24.8320 61.14 60.70 7.84
19836 24.8330 56.21 64.76 7.47
19837 24.8340 66.64 69.57 8.15
19838 24.8350 80.32 75.11 8.97
19839 24.8360 87.48 81.32 9.38
19840 24.8370 94.23 88.03 9.65
19841 24.8380 99.69 94.89 9.93
19842 24.8390 88.74 101.43 9.43
19843 24.8400 97.52 107.04 9.92
19844 24.8410 108.96 111.04 10.49
19845 24.8420 116.02 112.79 10.77
19846 24.8430 110.81 111.92 10.53
19847 24.8440 117.15 108.47 10.82
19848 24.8450 97.57 102.97 9.90
19849 24.8460 105.94 96.22 10.30
19850 24.8470 91.45 89.02 9.59
19851 24.8480 73.31 81.98 8.50
19852 24.8490 67.18 75.53 8.17
19853 24.8500 79.87 69.82 8.97
19854 24.8510 69.24 64.89 8.39
19855 24.8520 69.73 60.73 8.36
19856 24.8530 63.91 57.28 7.99
19857 24.8540 62.84 54.41 7.93
19858 24.8550 49.07 52.07 7.02
19859 24.8560 35.93 50.16 6.02
19860 24.8570 39.20 48.58 6.22
19861 24.8580 50.10 47.29 7.00
19862 24.8590 60.06 46.22 7.72
19863 24.8600 59.78 45.32 7.77
19864 24.8610 47.87 44.56 6.99
19865 24.8620 45.71 43.91 6.81
19866 24.8630 43.94 43.35 6.67
19867 24.8640 54.24 42.86 7.37
19868 24.8650 40.50 42.43 6.35
19869 24.8660 41.68 42.05 6.46
19870 24.8670 61.48 41.71 7.82
19871 24.8680 52.40 41.40 7.21
19872 24.8690 48.27 41.13 6.94
19873 24.8700 43.82 40.88 6.67
19874 24.8710 43.72 40.66 6.70
19875 24.8720 42.98 40.46 6.61
19876 24.8730 33.98 40.27 5.86
19877 24.8740 37.10 40.11 6.12
19878 24.8750 49.15 39.95 7.02
19879 24.8760 57.22 39.81 7.58
19880 24.8770 37.48 39.68 6.11
19881 24.8780 46.54 39.56 6.80
19882 24.8790 52.02 39.45 7.21
19883 24.8800 43.49 39.34 6.65
19884 24.8810 47.44 39.25 6.95
19885 24.8820 36.29 39.16 6.06
19886 24.8830 42.92 39.07 6.54
19887 24.8840 35.10 38.99 5.96
19888 24.8850 40.83 38.92 6.41
19889 24.8860 37.78 38.85 6.18
19890 24.8870 61.20 38.79 7.83
19891 24.8880 47.04 38.73 6.84
19892 24.8890 42.13 38.67 6.49
19893 24.8900 47.29 38.62 6.92
19894 24.8910 39.82 38.57 6.41
19895 24.8920 50.79 38.52 7.16
19896 24.8930 50.17 38.47 7.11
19897 24.8940 40.62 38.43 6.41
19898 24.8950 44.77 38.39 6.71
19899 24.8960 40.41 38.35 6.39
19900 24.8970 38.57 38.31 6.22
19901 24.8980 39.69 38.28 6.28
19902 24.8990 37.05 38.24 6.08
19903 24.9000 50.10 38.21 7.14
19904 24.9010 56.03 38.18 7.60
19905 24.9020 46.81 38.15 6.91
19906 24.9030 47.06 38.12 6.87
19907 24.9040 47.82 38.09 6.94
19908 24.9050 48.09 38.07 6.95
19909 24.9060 49.77 38.04 7.07
19910 24.9070 55.63 38.02 7.43
19911 24.9080 39.69 37.99 6.26
19912 24.9090 37.55 37.97 6.10
19913 24.9100 42.96 37.95 6.62
19914 24.9110 57.78 37.93 7.70
19915 24.9120 36.94 37.91 6.13
19916 24.9130 43.35 37.89 6.61
19917 24.9140 43.90 37.87 6.62
19918 24.9150 33.30 37.85 5.80
19919 24.9160 37.89 37.84 6.17
19920 24.9170 35.39 37.82 5.96
19921 24.9180 46.69 37.80 6.83
19922 24.9190 38.89 37.79 6.26
19923 24.9200 37.31 37.77 6.18
19924 24.9210 38.27 37.76 6.27
19925 24.9220 37.88 37.74 6.20
19926 24.9230 45.77 37.73 6.79
19927 24.9240 38.64 37.72 6.24
19928 24.9250 28.80 37.70 5.42
19929 24.9260 39.07 37.69 6.29
19930 24.9270 38.91 37.68 6.24
19931 24.9280 41.25 37.66 6.42
19932 24.9290 46.53 37.65 6.81
19933 24.9300 38.21 37.64 6.22
19934 24.9310 43.48 37.63 6.67
19935 24.9320 36.03 37.62 6.04
19936 24.9330 55.55 37.61 7.46
19937 24.9340 41.52 37.60 6.45
19938 24.9350 46.55 37.59 6.85
19939 24.9360 34.66 37.58 5.91
19940 24.9370 38.50 37.57 6.21
19941 24.9380 36.69 37.56 6.05
19942 24.9390 39.53 37.55 6.29
19943 24.9400 49.26 37.54 7.08
19944 24.9410 47.29 37.53 6.95
19945 24.9420 35.62 37.52 6.03
19946 24.9430 26.50 37.51 5.19
19947 24.9440 31.43 37.50 5.63
19948 24.9450 36.55 37.50 6.07
19949 24.9460 29.32 37.49 5.47
19950 24.9470 34.87 37.48 5.93
19951 24.9480 50.48 37.47 7.09
19952 24.9490 44.54 37.47 6.68
19953 24.9500 35.94 37.46 6.06
19954 24.9510 52.20 37.45 7.35
19955 24.9520 44.32 37.44 6.70
19956 24.9530 42.34 37.44 6.52
19957 24.9540 49.05 37.43 7.00
19958 24.9550 37.01 37.42 6.12
19959 24.9560 42.01 37.42 6.51
19960 24.9570 24.39 37.41 4.93
19961 24.9580 33.83 37.40 5.82
19962 24.9590 46.48 37.40 6.81
19963 24.9600 39.95 37.39 6.40
19964 24.9610 47.11 37.39 6.93
19965 24.9620 40.05 37.38 6.37
19966 24.9630 39.13 37.37 6.29
19967 24.9640 54.16 37.37 7.40
19968 24.9650 41.82 37.36 6.50
19969 24.9660 35.47 37.36 5.98
19970 24.9670 44.38 37.35 6.67
19971 24.9680 41.51 37.35 6.44
19972 24.9690 35.91 37.34 6.01
19973 24.9700 44.26 37.34 6.74
19974 24.9710 50.05 37.33 7.16
19975 24.9720 41.08 37.33 6.50
19976 24.9730 42.89 37.32 6.58
19977 24.9740 39.42 37.32 6.31
19978 24.9750 36.72 37.31 6.11
19979 24.9760 38.40 37.31 6.25
19980 24.9770 44.67 37.31 6.67
19981 24.9780 38.34 37.30 6.18
19982 24.9790 48.60 37.30 6.95
19983 24.9800 49.20 37.29 7.06
19984 24.9810 46.55 37.29 6.89
19985 24.9820 51.63 37.29 7.24
19986 24.9830 51.75 37.28 7.22
19987 24.9840 47.86 37.28 6.95
19988 24.9850 39.37 37.28 6.31
19989 24.9860 41.91 37.27 6.52
19990 24.9870 48.78 37.27 7.00
19991 24.9880 39.28 37.27 6.27
19992 24.9890 44.97 37.26 6.71
19993 24.9900 48.25 37.26 7.00
19994 24.9910 42.86 37.26 6.63
19995 24.9920 49.89 37.25 7.12
19996 24.9930 49.43 37.25 7.06
19997 24.9940 41.30 37.25 6.47
19998 24.9950 37.16 37.25 6.14
19999 24.9960 38.17 37.24 6.25
20000 24.9970 40.66 37.24 6.38
20001 24.9980 40.23 37.24 6.34
20002 24.9990 43.56 37.24 6.60
20003 25.0000 44.66 37.24 6.75
20004 25.0010 46.59 37.23 6.92
20005 25.0020 51.66 37.23 7.23
20006 25.0030 34.29 37.23 5.89
20007 25.0040 43.04 37.23 6.57
20008 25.0050 35.16 37.23 5.95
20009 25.0060 37.90 37.23 6.18
20010 25.0070 45.74 37.22 6.74
20011 25.0080 38.26 37.22 6.15
20012 25.0090 45.26 37.22 6.73
20013 25.0100 38.39 37.22 6.27
20014 25.0110 43.36 37.22 6.68
20015 25.0120 35.83 37.22 6.05
20016 25.0130 38.55 37.22 6.23
20017 25.0140 46.92 37.22 6.86
20018 25.0150 35.96 37.22 6.02
20019 25.0160 38.48 37.22 6.25
20020 25.0170 35.53 37.22 5.97
20021 25.0180 47.94 37.22 6.92
20022 25.0190 41.42 37.22 6.43
20023 25.0200 36.85 37.22 6.15
20024 25.0210 40.06 37.22 6.43
20025 25.0220 36.53 37.23 6.09
20026 25.0230 32.58 37.23 5.72
20027 25.0240 51.13 37.23 7.15
20028 25.0250 40.57 37.23 6.42
20029 25.0260 36.83 37.23 6.09
20030 25.0270 49.91 37.24 7.05
20031 25.0280 59.42 37.24 7.66
20032 25.0290 43.50 37.24 6.58
20033 25.0300 43.42 37.24 6.64
20034 25.0310 46.50 37.25 6.87
20035 25.0320 42.18 37.25 6.54
20036 25.0330 38.74 37.25 6.23
20037 25.0340 45.82 37.26 6.78
20038 25.0350 43.55 37.26 6.66
20039 25.0360 43.09 37.27 6.59
20040 25.0370 41.39 37.27 6.44
20041 25.0380 41.08 37.28 6.40
20042 25.0390 36.25 37.28 6.03
20043 25.0400 47.10 37.29 6.93
20044 25.0410 45.63 37.29 6.83
20045 25.0420 32.70 37.30 5.78
20046 25.0430 39.38 37.31 6.33
20047 25.0440 38.56 37.31 6.24
20048 25.0450 48.91 37.32 7.03
20049 25.0460 39.30 37.33 6.31
20050 25.0470 36.59 37.34 6.05
20051 25.0480 53.63 37.34 7.33
20052 25.0490 49.89 37.35 7.04
20053 25.0500 42.68 37.36 6.59
20054 25.0510 47.89 37.37 7.02
20055 25.0520 39.24 37.38 6.33
20056 25.0530 38.92 37.39 6.25
20057 25.0540 42.38 37.41 6.50
20058 25.0550 44.12 37.42 6.67
20059 25.0560 59.98 37.43 7.75
20060 25.0570 49.58 37.44 7.04
20061 25.0580 29.78 37.46 5.48
20062 25.0590 45.56 37.47 6.75
20063 25.0600 38.51 37.49 6.29
20064 25.0610 37.37 37.50 6.20
20065 25.0620 45.96 37.52 6.79
20066 25.0630 37.19 37.54 6.10
20067 25.0640 46.57 37.56 6.82
20068 25.0650 42.29 37.58 6.52
20069 25.0660 42.04 37.60 6.51
20070 25.0670 39.85 37.62 6.32
20071 25.0680 42.76 37.64 6.53
20072 25.0690 38.84 37.66 6.21
20073 25.0700 35.28 37.69 6.00
20074 25.0710 34.21 37.71 5.91
20075 25.0720 44.94 37.74 6.75
20076 25.0730 42.97 37.77 6.56
20077 25.0740 52.39 37.80 7.25
20078 25.0750 46.43 37.83 6.82
20079 25.0760 42.72 37.86 6.56
20080 25.0770 33.58 37.90 5.79
20081 25.0780 37.46 37.93 6.07
20082 25.0790 44.92 37.97 6.68
20083 25.0800 48.39 38.01 6.99
20084 25.0810 52.28 38.05 7.29
20085 25.0820 57.74 38.10 7.63
20086 25.0830 39.43 38.14 6.30
20087 25.0840 30.78 38.19 5.57
20088 25.0850 45.02 38.24 6.73
20089 25.0860 39.56 38.30 6.31
20090 25.0870 42.97 38.35 6.52
20091 25.0880 45.30 38.42 6.70
20092 25.0890 41.42 38.48 6.44
20093 25.0900 41.71 38.55 6.50
20094 25.0910 41.85 38.62 6.54
20095 25.0920 52.42 38.70 7.30
20096 25.0930 56.71 38.78 7.53
20097 25.0940 48.08 38.86 6.95
20098 25.0950 45.45 38.95 6.76
20099 25.0960 45.57 39.11 6.79
20100 25.0970 40.86 39.21 6.39
20101 25.0980 50.52 39.32 7.07
20102 25.0990 53.50 39.44 7.30
20103 25.1000 41.35 39.56 6.49
20104 25.1010 45.07 39.70 6.77
20105 25.1020 44.60 39.84 6.72
20106 25.1030 43.93 40.05 6.64
20107 25.1040 47.18 40.28 6.85
20108 25.1050 45.18 40.46 6.73
20109 25.1060 35.42 40.65 5.98
20110 25.1070 48.31 40.86 6.93
20111 25.1080 40.78 41.08 6.35
20112 25.1090 55.86 41.32 7.46
20113 25.1100 58.77 41.59 7.70
20114 25.1110 40.88 41.87 6.46
20115 25.1120 44.09 42.18 6.71
20116 25.1130 51.23 42.52 7.16
20117 25.1140 43.47 42.89 6.60
20118 25.1150 56.44 43.30 7.53
20119 25.1160 50.77 43.75 7.15
20120 25.1170 48.76 44.25 6.98
20121 25.1180 48.78 44.80 6.96
20122 25.1190 45.32 45.41 6.73
20123 25.1200 51.24 46.09 7.21
20124 25.1210 66.18 46.85 8.23
20125 25.1220 59.68 47.72 7.76
20126 25.1230 49.51 48.71 7.05
20127 25.1240 57.85 49.84 7.61
20128 25.1250 44.43 51.14 6.71
20129 25.1260 42.86 52.67 6.56
20130 25.1270 65.34 54.47 8.06
20131 25.1280 70.05 56.60 8.29
20132 25.1290 64.96 59.15 8.01
20133 25.1300 78.78 62.22 8.92
20134 25.1310 75.51 65.92 8.76
20135 25.1320 72.16 70.37 8.52
20136 25.1330 78.76 75.71 8.89
20137 25.1340 90.51 82.06 9.52
20138 25.1350 91.79 89.56 9.61
20139 25.1360 98.28 98.32 9.88
20140 25.1370 105.80 108.25 10.23
20141 25.1380 113.03 119.19 10.54
20142 25.1390 132.59 130.74 11.44
20143 25.1400 116.99 142.11 10.90
20144 25.1410 130.52 152.50 11.57
20145 25.1420 140.53 161.34 11.93
20146 25.1430 174.47 168.52 13.23
20147 25.1440 163.87 174.51 12.77
20148 25.1450 184.39 179.81 13.59
20149 25.1460 184.46 184.54 13.58
20150 25.1470 195.89 188.05 13.92
20151 25.1480 184.73 189.09 13.50
20152 25.1490 173.08 186.38 13.09
20153 25.1500 153.11 179.29 12.41
20154 25.1510 151.17 168.40 12.36
20155 25.1520 170.36 155.06 13.07
20156 25.1530 143.60 140.77 11.93
20157 25.1540 137.42 126.87 11.65
20158 25.1550 116.68 114.07 10.80
20159 25.1560 105.75 102.69 10.27
20160 25.1570 85.44 92.91 9.17
20161 25.1580 82.14 84.60 9.02
20162 25.1590 80.05 77.64 8.92
20163 25.1600 75.26 71.87 8.69
20164 25.1610 84.59 67.11 9.30
20165 25.1620 78.86 63.18 8.88
20166 25.1630 70.69 59.95 8.38
20167 25.1640 57.56 57.27 7.59
20168 25.1650 52.13 55.04 7.22
20169 25.1660 62.22 53.17 7.91
20170 25.1670 57.24 51.57 7.56
20171 25.1680 60.11 50.20 7.75
20172 25.1690 62.40 49.02 7.90
20173 25.1700 42.14 47.98 6.58
20174 25.1710 59.92 47.07 7.86
20175 25.1720 49.41 46.27 7.09
20176 25.1730 53.83 45.55 7.34
20177 25.1740 46.32 44.90 6.82
20178 25.1750 60.27 44.32 7.77
20179 25.1760 42.45 43.79 6.53
20180 25.1770 49.02 43.32 6.99
20181 25.1780 41.66 42.88 6.43
20182 25.1790 58.91 42.49 7.65
20183 25.1800 41.76 42.13 6.50
20184 25.1810 48.94 41.80 7.07
20185 25.1820 47.42 41.49 6.93
20186 25.1830 45.04 41.21 6.73
20187 25.1840 47.98 40.95 6.94
20188 25.1850 45.02 40.71 6.74
20189 25.1860 53.71 40.49 7.34
20190 25.1870 44.45 40.29 6.67
20191 25.1880 41.04 40.09 6.40
20192 25.1890 27.74 39.92 5.30
20193 25.1900 36.04 39.75 6.06
20194 25.1910 44.22 39.59 6.74
20195 25.1920 49.91 39.45 7.15
20196 25.1930 46.37 39.31 6.85
20197 25.1940 46.72 39.18 6.84
20198 25.1950 43.66 39.06 6.64
20199 25.1960 49.40 38.95 7.10
20200 25.1970 50.47 38.84 7.11
20201 25.1980 37.71 38.74 6.14
20202 25.1990 52.80 38.64 7.26
20203 25.2000 43.26 38.55 6.64
20204 25.2010 55.38 38.47 7.52
20205 25.2020 55.77 38.38 7.48
20206 25.2030 42.18 38.31 6.49
20207 25.2040 42.61 38.23 6.53
20208 25.2050 29.95 38.16 5.52
20209 25.2060 55.38 38.10 7.46
20210 25.2070 37.66 38.03 6.13
20211 25.2080 44.48 37.97 6.66
20212 25.2090 35.07 37.92 5.95
20213 25.2100 41.33 37.86 6.49
20214 25.2110 34.92 37.81 5.97
20215 25.2120 44.11 37.76 6.70
20216 25.2130 46.26 37.71 6.85
20217 25.2140 51.13 37.66 7.19
20218 25.2150 46.13 37.62 6.83
20219 25.2160 40.06 37.58 6.39
20220 25.2170 34.67 37.54 5.91
20221 25.2180 39.47 37.50 6.28
20222 25.2190 39.57 37.46 6.30
20223 25.2200 35.12 37.42 5.98
20224 25.2210 34.64 37.39 5.98
20225 25.2220 40.86 37.36 6.45
20226 25.2230 29.59 37.33 5.49
20227 25.2240 31.59 37.29 5.64
20228 25.2250 40.98 37.26 6.43
20229 25.2260 44.12 37.24 6.67
20230 25.2270 50.00 37.21 7.02
20231 25.2280 46.33 37.18 6.76
20232 25.2290 51.32 37.16 7.13
20233 25.2300 44.13 37.13 6.70
20234 25.2310 54.44 37.11 7.44
20235 25.2320 42.68 37.08 6.60
20236 25.2330 50.91 37.06 7.19
20237 25.2340 43.33 37.03 6.60
20238 25.2350 41.54 37.01 6.46
20239 25.2360 45.61 36.98 6.77
20240 25.2370 34.53 36.96 5.88
20241 25.2380 30.60 36.94 5.55
20242 25.2390 43.93 36.93 6.63
20243 25.2400 38.91 36.91 6.32
20244 25.2410 48.27 36.89 7.05
20245 25.2420 48.14 36.87 7.01
20246 25.2430 36.30 36.86 6.07
20247 25.2440 44.68 36.84 6.69
20248 25.2450 40.30 36.83 6.37
20249 25.2460 34.47 36.81 5.93
20250 25.2470 48.91 36.80 6.98
20251 25.2480 49.85 36.79 7.05
20252 25.2490 37.33 36.77 6.12
20253 25.2500 33.59 36.76 5.83
20254 25.2510 49.40 36.75 7.11
20255 25.2520 47.73 36.74 6.94
20256 25.2530 47.07 36.72 6.87
20257 25.2540 42.24 36.71 6.51
20258 25.2550 38.60 36.70 6.23
20259 25.2560 41.55 36.69 6.49
20260 25.2570 41.50 36.68 6.45
20261 25.2580 44.36 36.67 6.66
20262 25.2590 47.32 36.66 6.87
20263 25.2600 37.14 36.65 6.15
20264 25.2610 49.86 36.64 7.13
20265 25.2620 36.11 36.63 6.07
20266 25.2630 35.51 36.62 6.00
20267 25.2640 36.50 36.62 6.07
20268 25.2650 50.60 36.61 7.16
20269 25.2660 42.10 36.60 6.54
20270 25.2670 32.21 36.59 5.70
20271 25.2680 48.21 36.59 6.93
20272 25.2690 31.67 36.58 5.64
20273 25.2700 37.76 36.57 6.20
20274 25.2710 34.11 36.57 5.93
20275 25.2720 39.15 36.56 6.34
20276 25.2730 40.33 36.55 6.38
20277 25.2740 45.78 36.55 6.79
20278 25.2750 43.76 36.54 6.64
20279 25.2760 41.99 36.54 6.52
20280 25.2770 47.56 36.53 6.90
20281 25.2780 36.95 36.53 6.03
20282 25.2790 50.30 36.52 7.08
20283 25.2800 42.88 36.52 6.61
20284 25.2810 42.30 36.51 6.60
20285 25.2820 42.56 36.51 6.57
20286 25.2830 46.14 36.50 6.81
20287 25.2840 51.89 36.50 7.20
20288 25.2850 39.37 36.50 6.28
20289 25.2860 49.83 36.49 7.08
20290 25.2870 31.78 36.49 5.62
20291 25.2880 44.21 36.49 6.65
20292 25.2890 40.98 36.48 6.44
20293 25.2900 45.66 36.48 6.82
20294 25.2910 41.77 36.48 6.57
20295 25.2920 40.60 36.48 6.43
20296 25.2930 50.56 36.47 7.15
20297 25.2940 53.37 36.47 7.30
20298 25.2950 41.50 36.47 6.49
20299 25.2960 45.69 36.47 6.83
20300 25.2970 29.65 36.47 5.49
20301 25.2980 49.31 36.47 7.01
20302 25.2990 42.65 36.47 6.56
20303 25.3000 46.93 36.47 6.90
20304 25.3010 38.79 36.46 6.33
20305 25.3020 45.68 36.46 6.81
20306 25.3030 43.35 36.46 6.58
20307 25.3040 36.71 36.46 6.08
20308 25.3050 53.13 36.46 7.30
20309 25.3060 41.12 36.46 6.43
20310 25.3070 37.16 36.46 6.10
20311 25.3080 31.83 36.47 5.64
20312 25.3090 41.06 36.47 6.41
20313 25.3100 47.42 36.47 6.93
20314 25.3110 44.35 36.47 6.73
20315 25.3120 51.13 36.47 7.22
20316 25.3130 37.29 36.47 6.13
20317 25.3140 53.30 36.47 7.31
20318 25.3150 54.61 36.47 7.42
20319 25.3160 50.70 36.48 7.17
20320 25.3170 39.49 36.48 6.30
20321 25.3180 35.25 36.48 5.94
20322 25.3190 37.43 36.49 6.13
20323 25.3200 39.28 36.49 6.34
20324 25.3210 49.52 36.49 7.16
20325 25.3220 39.70 36.49 6.38
20326 25.3230 43.40 36.50 6.61
20327 25.3240 40.79 36.50 6.42
20328 25.3250 50.23 36.51 7.12
20329 25.3260 62.01 36.51 7.89
20330 25.3270 42.40 36.52 6.49
20331 25.3280 45.34 36.52 6.69
20332 25.3290 35.91 36.53 6.00
20333 25.3300 38.13 36.53 6.23
20334 25.3310 46.32 36.54 6.88
20335 25.3320 37.59 36.54 6.16
20336 25.3330 38.65 36.55 6.24
20337 25.3340 42.67 36.55 6.54
20338 25.3350 44.47 36.56 6.71
20339 25.3360 39.75 36.57 6.33
20340 25.3370 45.74 36.58 6.76
20341 25.3380 49.88 36.59 7.04
20342 25.3390 35.16 36.59 5.95
20343 25.3400 47.63 36.60 6.97
20344 25.3410 38.39 36.61 6.31
20345 25.3420 40.89 36.62 6.44
20346 25.3430 28.54 36.63 5.38
20347 25.3440 36.82 36.64 6.11
20348 25.3450 44.36 36.65 6.70
20349 25.3460 34.09 36.66 5.89
20350 25.3470 42.55 36.67 6.54
20351 25.3480 49.78 36.68 7.03
20352 25.3490 42.02 36.69 6.48
20353 25.3500 42.56 36.70 6.59
20354 25.3510 46.61 36.71 6.94
20355 25.3520 38.07 36.73 6.21
20356 25.3530 42.16 36.74 6.49
20357 25.3540 46.40 36.75 6.83
20358 25.3550 53.61 36.76 7.35
20359 25.3560 37.12 36.78 6.12
20360 25.3570 34.38 36.79 5.86
20361 25.3580 38.67 36.81 6.22
20362 25.3590 30.62 36.82 5.55
20363 25.3600 32.83 36.84 5.83
20364 25.3610 33.18 36.85 5.85
20365 25.3620 41.24 36.87 6.49
20366 25.3630 40.81 36.89 6.42
20367 25.3640 43.48 36.90 6.63
20368 25.3650 42.52 36.92 6.57
20369 25.3660 46.60 36.94 6.88
20370 25.3670 42.47 36.96 6.56
20371 25.3680 43.47 36.98 6.60
20372 25.3690 42.98 37.00 6.58
20373 25.3700 40.24 37.02 6.42
20374 25.3710 29.87 37.04 5.56
20375 25.3720 43.70 37.06 6.67
20376 25.3730 37.29 37.09 6.12
20377 25.3740 53.60 37.11 7.34
20378 25.3750 47.46 37.14 6.93
20379 25.3760 42.83 37.16 6.57
20380 25.3770 48.48 37.19 6.97
20381 25.3780 48.15 37.21 6.93
20382 25.3790 35.46 37.24 5.97
20383 25.3800 43.94 37.27 6.69
20384 25.3810 46.22 37.30 6.91
20385 25.3820 46.45 37.33 6.86
20386 25.3830 27.54 37.36 5.30
20387 25.3840 48.64 37.39 6.99
20388 25.3850 43.45 37.42 6.63
20389 25.3860 53.33 37.46 7.36
20390 25.3870 48.09 37.49 6.96
20391 25.3880 47.80 37.53 6.92
20392 25.3890 40.86 37.57 6.42
20393 25.3900 35.89 37.61 6.06
20394 25.3910 43.67 37.65 6.70
20395 25.3920 37.53 37.69 6.20
20396 25.3930 44.20 37.73 6.72
20397 25.3940 53.57 37.77 7.36
20398 25.3950 51.56 37.82 7.21
20399 25.3960 42.58 37.87 6.59
20400 25.3970 39.55 37.91 6.30
20401 25.3980 34.65 37.96 5.91
20402 25.3990 47.78 38.02 6.91
20403 25.4000 44.31 38.07 6.73
20404 25.4010 46.38 38.12 6.91
20405 25.4020 41.88 38.18 6.54
20406 25.4030 37.00 38.24 6.12
20407 25.4040 42.89 38.30 6.58
20408 25.4050 46.67 38.37 6.87
20409 25.4060 50.14 38.43 7.12
20410 25.4070 50.55 38.50 7.09
20411 25.4080 49.08 38.57 6.97
20412 25.4090 44.91 38.64 6.72
20413 25.4100 40.85 38.72 6.49
20414 25.4110 45.05 38.80 6.83
20415 25.4120 41.36 38.88 6.51
20416 25.4130 45.51 38.96 6.81
20417 25.4140 34.01 39.05 5.87
20418 25.4150 47.21 39.14 6.90
20419 25.4160 48.31 39.24 6.98
20420 25.4170 37.64 39.33 6.20
20421 25.4180 58.02 39.44 7.63
20422 25.4190 44.95 39.54 6.72
20423 25.4200 36.43 39.65 6.11
20424 25.4210 48.87 39.77 7.11
20425 25.4220 54.61 39.89 7.45
20426 25.4230 42.27 40.01 6.54
20427 25.4240 46.88 40.14 6.86
20428 25.4250 54.31 40.28 7.42
20429 25.4260 49.30 40.42 7.07
20430 25.4270 45.51 40.57 6.77
20431 25.4280 50.92 40.72 7.12
20432 25.4290 38.15 40.88 6.20
20433 25.4300 37.97 41.05 6.23
20434 25.4310 50.46 41.23 7.20
20435 25.4320 38.32 41.41 6.24
20436 25.4330 38.56 41.61 6.25
20437 25.4340 49.44 41.81 7.06
20438 25.4350 48.68 42.02 7.02
20439 25.4360 55.23 42.25 7.50
20440 25.4370 46.02 42.48 6.79
20441 25.4380 50.87 42.73 7.13
20442 25.4390 39.67 42.99 6.33
20443 25.4400 54.67 43.26 7.45
20444 25.4410 46.84 43.55 6.92
20445 25.4420 54.31 43.86 7.44
20446 25.4430 39.68 44.18 6.35
20447 25.4440 52.93 44.52 7.31
20448 25.4450 52.91 44.87 7.31
20449 25.4460 45.79 45.25 6.81
20450 25.4470 48.66 45.66 6.98
20451 25.4480 54.19 46.09 7.35
20452 25.4490 51.09 46.54 7.12
20453 25.4500 48.18 47.02 7.03
20454 25.4510 44.67 47.54 6.77
20455 25.4520 53.84 48.09 7.39
20456 25.4530 58.23 48.67 7.64
20457 25.4540 51.12 49.30 7.18
20458 25.4550 42.08 49.97 6.52
20459 25.4560 58.88 50.69 7.73
20460 25.4570 46.77 51.46 6.82
20461 25.4580 67.12 52.29 8.16
20462 25.4590 53.34 53.19 7.27
20463 25.4600 64.45 54.16 8.08
20464 25.4610 60.88 55.21 7.91
20465 25.4620 60.70 56.34 7.83
20466 25.4630 70.51 57.63 8.40
20467 25.4640 59.29 58.98 7.71
20468 25.4650 63.69 60.45 7.99
20469 25.4660 66.93 62.06 8.24
20470 25.4670 76.41 63.85 8.71
20471 25.4680 76.96 65.79 8.74
20472 25.4690 80.17 67.94 8.93
20473 25.4700 73.51 70.32 8.63
20474 25.4710 85.61 72.96 9.36
20475 25.4720 78.42 75.93 8.92
20476 25.4730 87.15 79.26 9.36
20477 25.4740 95.08 83.03 9.76
20478 25.4750 125.71 87.32 11.22
20479 25.4760 106.17 92.28 10.35
20480 25.4770 116.47 98.00 10.75
20481 25.4780 129.73 104.70 11.33
20482 25.4790 154.14 112.62 12.39
20483 25.4800 154.51 122.01 12.51
20484 25.4810 157.25 133.25 12.65
20485 25.4820 170.16 146.71 13.15
20486 25.4830 142.26 162.91 11.89
20487 25.4840 193.59 182.34 13.87
20488 25.4850 220.23 205.51 14.89
20489 25.4860 231.32 233.03 15.28
20490 25.4870 258.95 265.32 16.05
20491 25.4880 275.42 302.47 16.52
20492 25.4890 320.95 344.23 17.89
20493 25.4900 375.18 389.65 19.49
20494 25.4910 443.57 436.29 21.27
20495 25.4920 486.04 481.43 22.21
20496 25.4930 514.66 522.52 22.72
20497 25.4940 562.01 558.03 23.73
20498 25.4950 651.19 588.81 25.64
20499 25.4960 651.63 616.49 25.63
20500 25.4970 675.82 641.55 25.95
20501 25.4980 716.79 661.91 26.64
20502 25.4990 684.63 672.95 26.05
20503 25.5000 696.57 669.08 26.58
20504 25.5010 633.05 646.83 25.44
20505 25.5020 534.92 607.13 23.25
20506 25.5030 465.96 554.76 21.56
20507 25.5040 404.84 495.99 20.13
20508 25.5050 386.85 437.02 19.69
20509 25.5060 371.22 381.57 19.27
20510 25.5070 319.10 331.55 17.73
20511 25.5080 294.90 288.07 17.09
20512 25.5090 275.13 250.91 16.60
20513 25.5100 223.31 219.57 15.14
20514 25.5110 187.96 193.45 13.88
20515 25.5120 180.53 171.87 13.49
20516 25.5130 198.69 154.04 14.11
20517 25.5140 167.13 139.34 12.90
20518 25.5150 155.32 127.21 12.48
20519 25.5160 137.63 117.10 11.72
20520 25.5170 112.62 108.65 10.57
20521 25.5180 116.42 101.49 10.78
20522 25.5190 108.19 95.37 10.42
20523 25.5200 136.95 90.09 11.79
20524 25.5210 104.48 85.49 10.34
20525 25.5220 99.57 81.46 10.04
20526 25.5230 89.16 77.90 9.48
20527 25.5240 84.45 74.74 9.22
20528 25.5250 77.90 71.90 8.85
20529 25.5260 99.78 69.35 10.06
20530 25.5270 90.89 67.06 9.50
20531 25.5280 78.80 64.98 8.83
20532 25.5290 59.99 63.10 7.71
20533 25.5300 45.88 61.38 6.82
20534 25.5310 62.78 59.82 7.99
20535 25.5320 65.09 58.39 8.12
20536 25.5330 84.70 57.07 9.22
20537 25.5340 49.31 55.86 7.05
20538 25.5350 60.42 54.75 7.81
20539 25.5360 52.02 53.70 7.24
20540 25.5370 60.98 52.75 7.78
20541 25.5380 41.79 51.86 6.48
20542 25.5390 64.32 51.04 7.99
20543 25.5400 54.36 50.28 7.43
20544 25.5410 44.90 49.57 6.80
20545 25.5420 55.29 48.90 7.53
20546 25.5430 37.98 48.28 6.21
20547 25.5440 60.13 47.67 7.79
20548 25.5450 44.90 47.12 6.72
20549 25.5460 54.60 46.61 7.43
20550 25.5470 49.41 46.13 7.02
20551 25.5480 49.76 45.67 7.02
20552 25.5490 52.46 45.24 7.20
20553 25.5500 44.25 44.84 6.71
20554 25.5510 36.37 44.46 6.11
20555 25.5520 46.64 44.10 6.87
20556 25.5530 48.99 43.76 7.01
20557 25.5540 56.50 43.43 7.51
20558 25.5550 57.99 43.13 7.63
20559 25.5560 53.06 42.83 7.30
20560 25.5570 50.04 42.56 7.05
20561 25.5580 40.94 42.29 6.40
20562 25.5590 54.41 42.04 7.37
20563 25.5600 41.64 41.80 6.51
20564 25.5610 47.60 41.58 7.03
20565 25.5620 49.72 41.36 7.13
20566 25.5630 31.75 41.15 5.67
20567 25.5640 36.41 40.95 6.07
20568 25.5650 52.20 40.76 7.25
20569 25.5660 45.78 40.58 6.84
20570 25.5670 43.94 40.41 6.64
20571 25.5680 44.80 40.24 6.67
20572 25.5690 54.75 40.08 7.42
20573 25.5700 58.73 39.93 7.75
20574 25.5710 41.26 39.78 6.50
20575 25.5720 38.28 39.64 6.25
20576 25.5730 44.97 39.50 6.73
20577 25.5740 34.38 39.37 5.89
20578 25.5750 29.17 39.25 5.43
20579 25.5760 40.07 39.13 6.37
20580 25.5770 42.81 39.01 6.57
20581 25.5780 46.51 38.90 6.82
20582 25.5790 50.70 38.79 7.14
20583 25.5800 47.84 38.69 6.95
20584 25.5810 49.13 38.59 7.11
20585 25.5820 44.12 38.49 6.71
20586 25.5830 37.08 38.40 6.11
20587 25.5840 42.36 38.31 6.56
20588 25.5850 37.41 38.22 6.18
20589 25.5860 43.51 38.14 6.66
20590 25.5870 49.43 38.06 7.05
20591 25.5880 29.53 37.98 5.45
20592 25.5890 48.22 37.90 6.98
20593 25.5900 53.33 37.83 7.38
20594 25.5910 51.62 37.75 7.29
20595 25.5920 49.31 37.69 7.10
20596 25.5930 35.79 37.62 6.05
20597 25.5940 44.80 37.55 6.75
20598 25.5950 36.54 37.49 6.08
20599 25.5960 48.59 37.43 6.98
20600 25.5970 37.50 37.37 6.15
20601 25.5980 41.70 37.31 6.45
20602 25.5990 37.65 37.26 6.14
20603 25.6000 49.94 37.20 7.12
20604 25.6010 34.56 37.15 5.98
20605 25.6020 47.82 37.10 7.01
20606 25.6030 55.08 37.05 7.48
20607 25.6040 49.12 37.00 7.03
20608 25.6050 46.77 36.95 6.88
20609 25.6060 45.97 36.91 6.83
20610 25.6070 38.01 36.86 6.19
20611 25.6080 44.80 36.82 6.69
20612 25.6090 43.47 36.78 6.62
20613 25.6100 45.98 36.74 6.89
20614 25.6110 45.67 36.70 6.88
20615 25.6120 45.17 36.66 6.80
20616 25.6130 38.59 36.62 6.28
20617 25.6140 49.48 36.58 7.07
20618 25.6150 45.31 36.55 6.81
20619 25.6160 40.74 36.51 6.43
20620 25.6170 41.20 36.48 6.45
20621 25.6180 45.32 36.45 6.73
20622 25.6190 44.42 36.41 6.73
20623 25.6200 39.95 36.38 6.39
20624 25.6210 45.92 36.35 6.86
20625 25.6220 48.43 36.32 7.04
20626 25.6230 39.61 36.29 6.34
20627 25.6240 48.73 36.27 7.01
20628 25.6250 40.83 36.24 6.44
20629 25.6260 42.79 36.21 6.61
20630 25.6270 37.54 36.19 6.15
20631 25.6280 39.94 36.16 6.33
20632 25.6290 54.94 36.14 7.42
20633 25.6300 47.96 36.11 6.98
20634 25.6310 33.38 36.09 5.88
20635 25.6320 37.28 36.06 6.18
20636 25.6330 40.49 36.04 6.42
20637 25.6340 36.79 36.02 6.11
20638 25.6350 42.68 36.00 6.60
20639 25.6360 46.74 35.98 6.92
20640 25.6370 45.41 35.96 6.74
20641 25.6380 48.47 35.94 6.97
20642 25.6390 51.04 35.92 7.16
20643 25.6400 37.96 35.90 6.24
20644 25.6410 38.65 35.88 6.31
20645 25.6420 32.45 35.87 5.75
20646 25.6430 47.96 35.85 6.98
20647 25.6440 52.73 35.83 7.31
20648 25.6450 26.20 35.82 5.16
20649 25.6460 45.09 35.80 6.78
20650 25.6470 44.07 35.79 6.66
20651 25.6480 42.42 35.77 6.52
20652 25.6490 39.83 35.76 6.31
20653 25.6500 47.55 35.75 7.00
20654 25.6510 41.41 35.73 6.54
20655 25.6520 37.10 35.72 6.18
20656 25.6530 34.57 35.71 5.94
20657 25.6540 51.26 35.70 7.17
20658 25.6550 42.41 35.69 6.55
20659 25.6560 40.00 35.67 6.36
20660 25.6570 44.55 35.66 6.70
20661 25.6580 44.36 35.65 6.67
20662 25.6590 36.05 35.65 6.05
20663 25.6600 43.11 35.64 6.65
20664 25.6610 38.87 35.63 6.36
20665 25.6620 45.22 35.62 6.78
20666 25.6630 43.51 35.61 6.64
20667 25.6640 35.18 35.61 5.97
20668 25.6650 41.56 35.60 6.48
20669 25.6660 40.46 35.59 6.41
20670 25.6670 38.88 35.59 6.26
20671 25.6680 40.99 35.58 6.42
20672 25.6690 37.14 35.58 6.11
20673 25.6700 42.41 35.58 6.58
20674 25.6710 38.88 35.57 6.33
20675 25.6720 43.19 35.57 6.62
20676 25.6730 50.15 35.57 7.11
20677 25.6740 37.76 35.57 6.17
20678 25.6750 36.31 35.57 6.09
20679 25.6760 41.44 35.57 6.49
20680 25.6770 41.26 35.57 6.44
20681 25.6780 53.21 35.57 7.30
20682 25.6790 37.05 35.57 6.07
20683 25.6800 42.55 35.57 6.58
20684 25.6810 51.89 35.58 7.27
20685 25.6820 52.11 35.58 7.27
20686 25.6830 46.53 35.59 6.86
20687 25.6840 44.37 35.60 6.67
20688 25.6850 49.38 35.60 7.06
20689 25.6860 41.05 35.61 6.46
20690 25.6870 46.36 35.62 6.81
20691 25.6880 42.58 35.63 6.50
20692 25.6890 29.13 35.65 5.41
20693 25.6900 37.43 35.66 6.19
20694 25.6910 34.03 35.68 5.91
20695 25.6920 46.56 35.69 6.90
20696 25.6930 37.95 35.71 6.20
20697 25.6940 42.35 35.73 6.52
20698 25.6950 43.46 35.76 6.63
20699 25.6960 44.02 35.78 6.67
20700 25.6970 37.97 35.81 6.16
20701 25.6980 39.50 35.84 6.29
20702 25.6990 53.30 35.88 7.32
20703 25.7000 36.98 35.91 6.14
20704 25.7010 38.41 35.95 6.26
20705 25.7020 41.19 36.00 6.49
20706 25.7030 34.70 36.05 5.93
20707 25.7040 41.18 36.10 6.45
20708 25.7050 45.51 36.17 6.76
20709 25.7060 31.33 36.23 5.63
20710 25.7070 34.04 36.31 5.84
20711 25.7080 43.28 36.39 6.58
20712 25.7090 45.07 36.48 6.74
20713 25.7100 34.22 36.58 5.94
20714 25.7110 46.43 36.70 6.93
20715 25.7120 43.50 36.83 6.66
20716 25.7130 44.03 36.98 6.66
20717 25.7140 38.20 37.14 6.20
20718 25.7150 52.05 37.34 7.23
20719 25.7160 54.70 37.56 7.46
20720 25.7170 43.07 37.82 6.56
20721 25.7180 46.52 38.13 6.83
20722 25.7190 39.88 38.49 6.34
20723 25.7200 49.36 38.93 7.11
20724 25.7210 44.03 39.45 6.74
20725 25.7220 51.51 40.08 7.21
20726 25.7230 46.87 40.84 6.89
20727 25.7240 45.10 41.75 6.73
20728 25.7250 60.13 42.84 7.79
20729 25.7260 51.24 44.14 7.20
20730 25.7270 38.75 45.64 6.23
20731 25.7280 54.77 47.36 7.39
20732 25.7290 56.97 49.27 7.55
20733 25.7300 56.63 51.31 7.57
20734 25.7310 67.13 53.39 8.28
20735 25.7320 50.93 55.41 7.20
20736 25.7330 68.08 57.23 8.28
20737 25.7340 60.41 58.74 7.81
20738 25.7350 62.61 59.84 7.97
20739 25.7360 66.46 60.44 8.21
20740 25.7370 56.79 60.51 7.51
20741 25.7380 62.51 59.99 7.89
20742 25.7390 56.13 58.86 7.48
20743 25.7400 61.08 57.18 7.90
20744 25.7410 55.81 55.11 7.60
20745 25.7420 48.87 52.85 7.05
20746 25.7430 50.19 50.59 7.13
20747 25.7440 49.20 48.48 7.05
20748 25.7450 47.42 46.59 6.93
20749 25.7460 45.18 44.93 6.77
20750 25.7470 47.85 43.52 6.91
20751 25.7480 46.73 42.34 6.82
20752 25.7490 48.60 41.35 6.98
20753 25.7500 58.50 40.54 7.74
20754 25.7510 45.25 39.87 6.84
20755 25.7520 42.77 39.32 6.62
20756 25.7530 45.34 38.87 6.76
20757 25.7540 46.64 38.49 6.83
20758 25.7550 42.07 38.18 6.49
20759 25.7560 52.94 37.92 7.30
20760 25.7570 47.65 37.70 6.89
20761 25.7580 38.68 37.51 6.21
20762 25.7590 58.28 37.35 7.67
20763 25.7600 25.45 37.21 5.13
20764 25.7610 42.65 37.09 6.65
20765 25.7620 56.98 36.99 7.60
20766 25.7630 36.24 36.90 6.07
20767 25.7640 44.68 36.82 6.70
20768 25.7650 46.32 36.75 6.82
20769 25.7660 35.69 36.70 6.02
20770 25.7670 43.16 36.65 6.58
20771 25.7680 43.19 36.60 6.57
20772 25.7690 46.94 36.57 6.87
20773 25.7700 36.74 36.54 6.11
20774 25.7710 32.62 36.52 5.81
20775 25.7720 45.34 36.50 6.79
20776 25.7730 55.77 36.49 7.48
20777 25.7740 49.03 36.48 7.04
20778 25.7750 42.09 36.47 6.56
20779 25.7760 47.48 36.47 6.95
20780 25.7770 40.99 36.48 6.39
20781 25.7780 40.87 36.48 6.38
20782 25.7790 38.32 36.50 6.20
20783 25.7800 54.29 36.51 7.43
20784 25.7810 46.56 36.53 6.91
20785 25.7820 38.34 36.55 6.29
20786 25.7830 47.61 36.57 6.96
20787 25.7840 44.43 36.60 6.72
20788 25.7850 47.43 36.63 6.95
20789 25.7860 40.97 36.66 6.47
20790 25.7870 42.59 36.70 6.54
20791 25.7880 57.89 36.74 7.62
20792 25.7890 48.18 36.78 6.97
20793 25.7900 47.11 36.83 6.94
20794 25.7910 39.59 36.88 6.39
20795 25.7920 36.57 36.94 6.11
20796 25.7930 38.35 36.99 6.25
20797 25.7940 45.73 37.06 6.78
20798 25.7950 39.06 37.12 6.28
20799 25.7960 55.64 37.19 7.52
20800 25.7970 47.16 37.26 6.88
20801 25.7980 41.34 37.34 6.44
20802 25.7990 33.83 37.43 5.82
20803 25.8000 39.47 37.51 6.36
20804 25.8010 51.11 37.61 7.26
20805 25.8020 47.41 37.71 6.96
20806 25.8030 45.40 37.81 6.79
20807 25.8040 54.65 37.92 7.40
20808 25.8050 33.65 38.04 5.82
20809 25.8060 51.10 38.16 7.19
20810 25.8070 47.60 38.30 6.91
20811 25.8080 47.76 38.43 6.92
20812 25.8090 44.05 38.58 6.70
20813 25.8100 47.97 38.74 7.01
20814 25.8110 64.30 38.91 8.12
20815 25.8120 45.27 39.08 6.80
20816 25.8130 45.41 39.27 6.78
20817 25.8140 43.61 39.47 6.64
20818 25.8150 47.25 39.68 6.90
20819 25.8160 50.36 39.91 7.16
20820 25.8170 56.12 40.15 7.52
20821 25.8180 52.77 40.41 7.25
20822 25.8190 53.76 40.69 7.37
20823 25.8200 48.71 40.98 7.08
20824 25.8210 58.95 41.30 7.78
20825 25.8220 57.79 41.64 7.67
20826 25.8230 41.90 42.00 6.51
20827 25.8240 47.14 42.39 6.92
20828 25.8250 39.46 42.81 6.33
20829 25.8260 51.25 43.27 7.22
20830 25.8270 56.46 43.76 7.52
20831 25.8280 54.14 44.29 7.34
20832 25.8290 53.96 44.87 7.36
20833 25.8300 52.78 45.50 7.33
20834 25.8310 56.95 46.19 7.63
20835 25.8320 63.53 46.93 8.05
20836 25.8330 68.80 47.75 8.35
20837 25.8340 60.22 48.65 7.82
20838 25.8350 57.86 49.64 7.67
20839 25.8360 50.93 50.72 7.19
20840 25.8370 58.22 51.93 7.66
20841 25.8380 59.39 53.27 7.71
20842 25.8390 63.42 54.76 7.94
20843 25.8400 60.05 56.43 7.85
20844 25.8410 54.99 58.32 7.53
20845 25.8420 81.20 60.45 9.11
20846 25.8430 63.73 62.87 8.02
20847 25.8440 76.34 65.67 8.76
20848 25.8450 82.72 68.90 9.12
20849 25.8460 84.63 72.68 9.27
20850 25.8470 90.07 77.16 9.49
20851 25.8480 87.61 82.49 9.34
20852 25.8490 103.27 88.90 10.18
20853 25.8500 111.60 96.66 10.70
20854 25.8510 117.95 106.09 11.01
20855 25.8520 128.78 117.52 11.42
20856 25.8530 155.05 131.37 12.52
20857 25.8540 168.01 148.04 12.97
20858 25.8550 178.65 167.88 13.40
20859 25.8560 207.61 191.23 14.48
20860 25.8570 225.53 218.11 15.01
20861 25.8580 240.61 248.35 15.49
20862 25.8590 312.20 280.76 17.71
20863 25.8600 308.63 313.53 17.76
20864 25.8610 313.53 343.77 17.97
20865 25.8620 369.51 367.71 19.41
20866 25.8630 409.81 382.34 20.27
20867 25.8640 372.44 386.18 19.35
20868 25.8650 362.73 379.55 19.10
20869 25.8660 327.05 363.99 18.13
20870 25.8670 315.93 341.33 17.73
20871 25.8680 316.91 313.66 17.77
20872 25.8690 290.33 283.29 17.04
20873 25.8700 274.93 252.41 16.70
20874 25.8710 221.16 222.98 15.03
20875 25.8720 177.00 196.13 13.41
20876 25.8730 179.66 172.48 13.46
20877 25.8740 144.94 152.17 12.05
20878 25.8750 151.72 134.96 12.40
20879 25.8760 119.29 120.57 11.02
20880 25.8770 129.64 108.65 11.36
20881 25.8780 108.78 98.79 10.40
20882 25.8790 109.25 90.62 10.47
20883 25.8800 92.33 83.88 9.69
20884 25.8810 79.70 78.27 9.00
20885 25.8820 85.82 73.55 9.35
20886 25.8830 79.78 69.58 8.98
20887 25.8840 62.67 66.20 7.96
20888 25.8850 73.47 63.29 8.66
20889 25.8860 56.79 60.76 7.61
20890 25.8870 71.39 58.54 8.47
20891 25.8880 60.06 56.59 7.72
20892 25.8890 60.48 54.86 7.76
20893 25.8900 60.56 53.32 7.85
20894 25.8910 57.53 51.88 7.68
20895 25.8920 57.73 50.64 7.66
20896 25.8930 53.76 49.51 7.39
20897 25.8940 55.94 48.49 7.52
20898 25.8950 56.80 47.57 7.57
20899 25.8960 52.71 46.72 7.31
20900 25.8970 47.06 45.95 6.86
20901 25.8980 53.98 45.12 7.34
20902 25.8990 56.70 44.47 7.51
20903 25.9000 52.78 43.88 7.36
20904 25.9010 54.22 43.32 7.49
20905 25.9020 60.35 42.81 7.86
20906 25.9030 56.82 42.34 7.56
20907 25.9040 50.99 41.90 7.12
20908 25.9050 55.75 41.49 7.48
20909 25.9060 45.29 41.11 6.75
20910 25.9070 40.36 40.76 6.36
20911 25.9080 43.20 40.43 6.57
20912 25.9090 57.77 40.12 7.63
20913 25.9100 57.33 39.83 7.69
20914 25.9110 42.93 39.56 6.66
20915 25.9120 58.18 39.30 7.69
20916 25.9130 44.22 39.06 6.67
20917 25.9140 52.41 38.84 7.24
20918 25.9150 42.76 38.62 6.57
20919 25.9160 47.11 38.42 6.91
20920 25.9170 56.39 38.23 7.51
20921 25.9180 46.71 38.05 6.84
20922 25.9190 54.27 37.88 7.40
20923 25.9200 37.22 37.72 6.17
20924 25.9210 32.89 37.57 5.84
20925 25.9220 45.18 37.42 6.78
20926 25.9230 51.69 37.28 7.21
20927 25.9240 43.06 37.15 6.58
20928 25.9250 43.98 37.03 6.69
20929 25.9260 42.24 36.91 6.56
20930 25.9270 46.99 36.80 6.85
20931 25.9280 34.64 36.69 5.87
20932 25.9290 47.87 36.59 6.88
20933 25.9300 41.52 36.49 6.49
20934 25.9310 43.92 36.40 6.74
20935 25.9320 51.97 36.31 7.27
20936 25.9330 39.92 36.22 6.39
20937 25.9340 34.67 36.14 5.93
20938 25.9350 40.41 36.07 6.44
20939 25.9360 47.47 35.99 6.95
20940 25.9370 50.53 35.92 7.10
20941 25.9380 44.32 35.86 6.64
20942 25.9390 37.43 35.79 6.14
20943 25.9400 47.64 35.73 6.96
20944 25.9410 45.84 35.67 6.87
20945 25.9420 41.90 35.62 6.55
20946 25.9430 42.24 35.57 6.58
20947 25.9440 41.85 35.52 6.52
20948 25.9450 42.53 35.47 6.57
20949 25.9460 40.44 35.43 6.39
20950 25.9470 37.92 35.39 6.16
20951 25.9480 48.25 35.35 6.96
20952 25.9490 44.48 35.31 6.66
20953 25.9500 38.44 35.28 6.29
20954 25.9510 34.44 35.25 5.96
20955 25.9520 47.80 35.22 6.98
20956 25.9530 52.10 35.20 7.25
20957 25.9540 38.47 35.17 6.21
20958 25.9550 47.16 35.19 6.91
20959 25.9560 43.25 35.17 6.61
20960 25.9570 39.97 35.16 6.33
20961 25.9580 35.31 35.18 5.97
20962 25.9590 40.78 35.18 6.41
20963 25.9600 52.22 35.21 7.34
20964 25.9610 40.86 35.25 6.50
20965 25.9620 36.92 35.33 6.17
20966 25.9630 31.37 35.36 5.63
20967 25.9640 45.09 35.39 6.73
20968 25.9650 36.70 35.43 6.08
20969 25.9660 38.60 35.49 6.27
20970 25.9670 41.97 35.56 6.50
20971 25.9680 43.08 35.66 6.58
20972 25.9690 41.21 35.77 6.45
20973 25.9700 36.26 35.92 6.09
20974 25.9710 44.67 36.11 6.80
20975 25.9720 45.85 36.34 6.83
20976 25.9730 49.96 36.62 7.12
20977 25.9740 48.84 36.95 7.04
20978 25.9750 42.72 37.35 6.60
20979 25.9760 45.93 37.80 6.84
20980 25.9770 54.37 38.31 7.37
20981 25.9780 47.26 38.86 6.87
20982 25.9790 49.79 39.43 7.05
20983 25.9800 41.89 39.98 6.51
20984 25.9810 52.99 40.48 7.39
20985 25.9820 56.02 40.89 7.58
20986 25.9830 44.45 41.18 6.74
20987 25.9840 33.40 41.27 5.85
20988 25.9850 40.24 41.14 6.42
20989 25.9860 49.69 40.78 7.12
20990 25.9870 43.98 40.25 6.63
20991 25.9880 37.77 39.62 6.13
20992 25.9890 45.67 38.96 6.77
20993 25.9900 48.71 38.33 7.06
20994 25.9910 40.03 37.74 6.45
20995 25.9920 51.87 37.23 7.27
20996 25.9930 46.35 36.79 6.85
20997 25.9940 42.33 36.42 6.54
20998 25.9950 44.17 36.11 6.70
20999 25.9960 45.32 35.86 6.76
21000 25.9970 46.21 35.66 6.78
21001 25.9980 41.37 35.49 6.45
21002 25.9990 33.33 35.36 5.80
21003 26.0000 52.48 35.26 7.33
21004 26.0010 47.77 35.19 7.02
21005 26.0020 38.72 35.13 6.28
21006 26.0030 46.85 35.10 6.88
21007 26.0040 38.12 35.09 6.18
21008 26.0050 36.24 35.09 6.05
21009 26.0060 38.02 35.12 6.20
21010 26.0070 40.79 35.17 6.43
21011 26.0080 37.30 35.25 6.13
21012 26.0090 55.39 35.35 7.50
21013 26.0100 44.95 35.49 6.79
21014 26.0110 48.52 35.67 7.10
21015 26.0120 39.79 35.89 6.40
21016 26.0130 51.00 36.15 7.16
21017 26.0140 40.31 36.45 6.40
21018 26.0150 34.42 36.79 5.93
21019 26.0160 43.22 37.14 6.64
21020 26.0170 45.78 37.48 6.78
21021 26.0180 51.12 37.79 7.17
21022 26.0190 40.64 38.02 6.39
21023 26.0200 40.42 38.17 6.45
21024 26.0210 32.38 38.22 5.80
21025 26.0220 38.32 38.18 6.27
21026 26.0230 57.78 38.05 7.66
21027 26.0240 37.82 37.84 6.18
21028 26.0250 47.50 37.54 6.95
21029 26.0260 39.43 37.20 6.33
21030 26.0270 57.16 36.82 7.59
21031 26.0280 42.74 36.44 6.52
21032 26.0290 36.59 36.07 6.05
21033 26.0300 43.38 35.74 6.67
21034 26.0310 54.09 35.45 7.44
21035 26.0320 37.49 35.20 6.21
21036 26.0330 46.87 34.98 6.91
21037 26.0340 41.79 34.80 6.53
21038 26.0350 40.68 34.65 6.46
21039 26.0360 39.78 34.52 6.35
21040 26.0370 36.56 34.41 6.08
21041 26.0380 39.89 34.32 6.31
21042 26.0390 36.30 34.24 6.05
21043 26.0400 54.30 34.18 7.44
21044 26.0410 40.71 34.12 6.48
21045 26.0420 47.60 34.07 6.99
21046 26.0430 43.63 34.03 6.67
21047 26.0440 44.00 33.99 6.68
21048 26.0450 43.24 33.95 6.62
21049 26.0460 32.52 33.92 5.75
21050 26.0470 38.81 33.89 6.23
21051 26.0480 30.30 33.87 5.52
21052 26.0490 39.03 33.84 6.29
21053 26.0500 44.45 33.82 6.75
21054 26.0510 40.15 33.80 6.43
21055 26.0520 44.98 33.78 6.80
21056 26.0530 39.32 33.76 6.30
21057 26.0540 32.02 33.75 5.69
21058 26.0550 40.44 33.73 6.39
21059 26.0560 45.55 33.72 6.83
21060 26.0570 45.66 33.70 6.78
21061 26.0580 54.71 33.69 7.43
21062 26.0590 44.71 33.68 6.75
21063 26.0600 36.52 33.66 6.13
21064 26.0610 34.31 33.65 5.96
21065 26.0620 38.34 33.64 6.27
21066 26.0630 44.43 33.63 6.69
21067 26.0640 33.44 33.62 5.80
21068 26.0650 39.15 33.61 6.27
21069 26.0660 31.86 33.60 5.72
21070 26.0670 43.04 33.59 6.55
21071 26.0680 39.77 33.59 6.33
21072 26.0690 44.03 33.58 6.64
21073 26.0700 32.71 33.57 5.80
21074 26.0710 43.99 33.56 6.71
21075 26.0720 44.02 33.56 6.71
21076 26.0730 44.81 33.55 6.72
21077 26.0740 44.19 33.54 6.68
21078 26.0750 37.96 33.54 6.20
21079 26.0760 35.75 33.53 6.04
21080 26.0770 39.39 33.53 6.30
21081 26.0780 42.72 33.52 6.52
21082 26.0790 42.98 33.51 6.54
21083 26.0800 38.28 33.51 6.25
21084 26.0810 40.04 33.50 6.41
21085 26.0820 55.51 33.50 7.55
21086 26.0830 44.46 33.49 6.74
21087 26.0840 40.63 33.49 6.44
21088 26.0850 38.22 33.49 6.22
21089 26.0860 38.63 33.48 6.26
21090 26.0870 35.76 33.48 5.98
21091 26.0880 39.86 33.47 6.30
21092 26.0890 38.74 33.47 6.22
21093 26.0900 38.52 33.47 6.27
21094 26.0910 30.59 33.46 5.63
21095 26.0920 31.19 33.46 5.67
21096 26.0930 34.74 33.45 5.95
21097 26.0940 30.92 33.45 5.58
21098 26.0950 47.17 33.45 6.93
21099 26.0960 45.92 33.45 6.81
21100 26.0970 40.25 33.44 6.34
21101 26.0980 34.11 33.44 5.85
21102 26.0990 32.77 33.44 5.76
21103 26.1000 35.21 33.43 6.01
21104 26.1010 36.21 33.43 6.12
21105 26.1020 45.08 33.43 6.76
21106 26.1030 30.26 33.43 5.54
21107 26.1040 41.07 33.43 6.41
21108 26.1050 47.53 33.42 6.90
21109 26.1060 54.17 33.42 7.38
21110 26.1070 44.14 33.42 6.64
21111 26.1080 39.34 33.42 6.29
21112 26.1090 47.37 33.42 6.90
21113 26.1100 48.54 33.41 7.05
21114 26.1110 31.82 33.41 5.73
21115 26.1120 42.50 33.41 6.57
21116 26.1130 36.45 33.41 6.07
21117 26.1140 45.57 33.41 6.74
21118 26.1150 39.36 33.41 6.28
21119 26.1160 37.65 33.41 6.19
21120 26.1170 34.65 33.41 5.91
21121 26.1180 41.45 33.40 6.44
21122 26.1190 37.54 33.40 6.14
21123 26.1200 50.11 33.40 7.17
21124 26.1210 47.35 33.40 6.97
21125 26.1220 38.61 33.40 6.27
21126 26.1230 42.47 33.40 6.55
21127 26.1240 42.53 33.40 6.55
21128 26.1250 34.37 33.40 5.90
21129 26.1260 44.61 33.40 6.70
21130 26.1270 40.50 33.40 6.35
21131 26.1280 34.10 33.40 5.81
21132 26.1290 39.36 33.40 6.26
21133 26.1300 43.54 33.40 6.65
21134 26.1310 37.29 33.40 6.19
21135 26.1320 41.94 33.40 6.57
21136 26.1330 47.88 33.40 6.98
21137 26.1340 54.31 33.40 7.41
21138 26.1350 37.82 33.40 6.18
21139 26.1360 42.99 33.40 6.59
21140 26.1370 46.76 33.40 6.80
21141 26.1380 40.93 33.40 6.38
21142 26.1390 37.73 33.40 6.16
21143 26.1400 32.73 33.40 5.81
21144 26.1410 33.06 33.40 5.84
21145 26.1420 35.41 33.41 6.04
21146 26.1430 36.22 33.41 6.06
21147 26.1440 29.30 33.41 5.46
21148 26.1450 35.31 33.41 5.98
21149 26.1460 47.99 33.41 6.95
21150 26.1470 35.88 33.42 6.00
21151 26.1480 38.95 33.42 6.24
21152 26.1490 33.82 33.42 5.84
21153 26.1500 41.24 33.42 6.49
21154 26.1510 39.41 33.42 6.35
21155 26.1520 38.54 33.43 6.26
21156 26.1530 51.95 33.43 7.23
21157 26.1540 40.87 33.43 6.38
21158 26.1550 52.26 33.43 7.23
21159 26.1560 44.01 33.44 6.72
21160 26.1570 40.86 33.44 6.41
21161 26.1580 44.58 33.44 6.70
21162 26.1590 33.62 33.45 5.84
21163 26.1600 46.21 33.45 6.86
21164 26.1610 38.40 33.45 6.31
21165 26.1620 39.21 33.46 6.32
21166 26.1630 42.86 33.46 6.57
21167 26.1640 39.39 33.47 6.30
21168 26.1650 46.06 33.47 6.83
21169 26.1660 44.83 33.47 6.75
21170 26.1670 37.32 33.48 6.13
21171 26.1680 45.01 33.48 6.71
21172 26.1690 41.14 33.49 6.43
21173 26.1700 39.81 33.49 6.35
21174 26.1710 47.62 33.50 7.01
21175 26.1720 44.01 33.50 6.70
21176 26.1730 46.92 33.51 6.90
21177 26.1740 47.65 33.51 6.91
21178 26.1750 32.52 33.52 5.75
21179 26.1760 31.98 33.52 5.69
21180 26.1770 35.64 33.53 5.95
21181 26.1780 52.98 33.54 7.22
21182 26.1790 35.68 33.54 5.95
21183 26.1800 44.68 33.55 6.73
21184 26.1810 40.81 33.56 6.50
21185 26.1820 45.29 33.56 6.80
21186 26.1830 32.73 33.57 5.78
21187 26.1840 34.33 33.58 5.91
21188 26.1850 31.80 33.58 5.69
21189 26.1860 43.48 33.59 6.63
21190 26.1870 31.61 33.60 5.63
21191 26.1880 42.93 33.61 6.52
21192 26.1890 47.32 33.61 6.87
21193 26.1900 36.57 33.62 6.13
21194 26.1910 30.42 33.63 5.63
21195 26.1920 27.53 33.64 5.33
21196 26.1930 40.71 33.65 6.42
21197 26.1940 48.51 33.66 6.96
21198 26.1950 38.46 33.67 6.25
21199 26.1960 40.21 33.68 6.38
21200 26.1970 45.33 33.69 6.75
21201 26.1980 40.89 33.70 6.39
21202 26.1990 41.91 33.71 6.48
21203 26.2000 48.63 33.72 7.05
21204 26.2010 36.72 33.73 6.14
21205 26.2020 42.69 33.74 6.59
21206 26.2030 36.35 33.75 6.04
21207 26.2040 37.35 33.76 6.14
21208 26.2050 43.86 33.78 6.67
21209 26.2060 51.87 33.79 7.27
21210 26.2070 39.19 33.80 6.30
21211 26.2080 41.65 33.81 6.48
21212 26.2090 50.91 33.83 7.18
21213 26.2100 41.40 33.84 6.49
21214 26.2110 47.97 33.86 7.02
21215 26.2120 42.23 33.87 6.57
21216 26.2130 35.63 33.89 6.00
21217 26.2140 42.49 33.90 6.50
21218 26.2150 43.83 33.92 6.65
21219 26.2160 40.65 33.93 6.42
21220 26.2170 37.69 33.95 6.15
21221 26.2180 45.02 33.96 6.69
21222 26.2190 40.53 33.98 6.37
21223 26.2200 51.90 34.00 7.26
21224 26.2210 48.11 34.02 7.04
21225 26.2220 37.87 34.04 6.22
21226 26.2230 40.99 34.06 6.45
21227 26.2240 51.43 34.07 7.19
21228 26.2250 35.49 34.09 5.99
21229 26.2260 40.27 34.11 6.38
21230 26.2270 39.98 34.14 6.32
21231 26.2280 43.20 34.16 6.56
21232 26.2290 37.55 34.18 6.13
21233 26.2300 44.06 34.20 6.71
21234 26.2310 52.16 34.23 7.32
21235 26.2320 37.70 34.25 6.21
21236 26.2330 44.00 34.27 6.70
21237 26.2340 45.80 34.30 6.80
21238 26.2350 43.29 34.32 6.61
21239 26.2360 41.09 34.35 6.43
21240 26.2370 29.52 34.38 5.46
21241 26.2380 49.98 34.41 7.01
21242 26.2390 38.12 34.43 6.17
21243 26.2400 32.26 34.46 5.74
21244 26.2410 42.82 34.49 6.66
21245 26.2420 40.47 34.53 6.43
21246 26.2430 35.94 34.56 6.05
21247 26.2440 41.11 34.59 6.45
21248 26.2450 41.38 34.62 6.47
21249 26.2460 49.41 34.66 7.08
21250 26.2470 41.28 34.69 6.42
21251 26.2480 41.82 34.73 6.47
21252 26.2490 41.91 34.77 6.50
21253 26.2500 34.31 34.81 5.94
21254 26.2510 43.13 34.85 6.65
21255 26.2520 38.35 34.89 6.24
21256 26.2530 30.08 34.93 5.52
21257 26.2540 41.87 34.97 6.49
21258 26.2550 46.22 35.02 6.85
21259 26.2560 41.80 35.06 6.52
21260 26.2570 37.39 35.11 6.16
21261 26.2580 38.30 35.16 6.20
21262 26.2590 42.38 35.21 6.54
21263 26.2600 33.89 35.26 5.88
21264 26.2610 35.45 35.32 6.05
21265 26.2620 39.82 35.37 6.37
21266 26.2630 42.80 35.37 6.54
21267 26.2640 42.27 35.43 6.50
21268 26.2650 36.58 35.49 6.09
21269 26.2660 42.97 35.56 6.61
21270 26.2670 50.40 35.59 7.10
21271 26.2680 35.07 35.66 5.91
21272 26.2690 48.58 35.73 7.00
21273 26.2700 46.89 35.80 6.91
21274 26.2710 33.60 35.88 5.89
21275 26.2720 42.07 35.95 6.55
21276 26.2730 50.64 36.03 7.15
21277 26.2740 39.28 36.11 6.26
21278 26.2750 46.53 36.20 6.86
21279 26.2760 38.12 36.29 6.19
21280 26.2770 43.29 36.38 6.57
21281 26.2780 46.21 36.47 6.76
21282 26.2790 39.66 36.57 6.32
21283 26.2800 37.26 36.67 6.19
21284 26.2810 46.07 36.78 6.89
21285 26.2820 46.47 36.89 6.88
21286 26.2830 44.83 37.00 6.77
21287 26.2840 45.88 37.12 6.80
21288 26.2850 33.38 37.24 5.82
21289 26.2860 42.32 37.37 6.52
21290 26.2870 35.75 37.50 5.98
21291 26.2880 44.55 37.64 6.65
21292 26.2890 41.40 37.79 6.45
21293 26.2900 49.97 37.94 7.14
21294 26.2910 49.01 38.09 7.11
21295 26.2920 48.45 38.26 7.05
21296 26.2930 38.15 38.43 6.22
21297 26.2940 36.33 38.60 6.06
21298 26.2950 42.29 38.79 6.58
21299 26.2960 44.90 38.98 6.73
21300 26.2970 35.46 39.19 5.98
21301 26.2980 40.89 39.40 6.40
21302 26.2990 38.56 39.62 6.21
21303 26.3000 36.66 39.85 6.11
21304 26.3010 30.70 40.10 5.64
21305 26.3020 43.49 40.35 6.64
21306 26.3030 39.15 40.62 6.27
21307 26.3040 42.66 40.91 6.55
21308 26.3050 46.63 41.21 6.88
21309 26.3060 55.02 41.52 7.45
21310 26.3070 57.33 41.85 7.59
21311 26.3080 48.23 42.20 6.94
21312 26.3090 50.59 42.57 7.13
21313 26.3100 53.11 42.96 7.34
21314 26.3110 54.06 43.37 7.44
21315 26.3120 46.37 43.80 6.87
21316 26.3130 60.68 44.27 7.80
21317 26.3140 47.77 44.76 6.92
21318 26.3150 56.70 45.28 7.58
21319 26.3160 59.73 45.83 7.79
21320 26.3170 48.39 46.42 6.95
21321 26.3180 61.04 47.05 7.80
21322 26.3190 46.84 47.72 6.84
21323 26.3200 50.64 48.44 7.20
21324 26.3210 60.44 49.21 7.87
21325 26.3220 49.79 50.04 7.12
21326 26.3230 48.36 50.93 6.98
21327 26.3240 49.53 51.88 7.04
21328 26.3250 66.08 52.91 8.16
21329 26.3260 64.57 54.02 8.02
21330 26.3270 55.00 55.23 7.38
21331 26.3280 55.16 56.53 7.39
21332 26.3290 64.35 57.95 7.99
21333 26.3300 68.24 59.50 8.32
21334 26.3310 61.37 61.19 7.95
21335 26.3320 71.36 63.03 8.51
21336 26.3330 88.48 65.06 9.46
21337 26.3340 76.70 67.30 8.76
21338 26.3350 92.34 69.77 9.61
21339 26.3360 70.45 72.50 8.42
21340 26.3370 85.92 75.56 9.22
21341 26.3380 87.08 78.96 9.24
21342 26.3390 85.08 82.79 9.17
21343 26.3400 105.51 87.11 10.33
21344 26.3410 101.43 92.04 10.19
21345 26.3420 94.68 97.69 9.77
21346 26.3430 110.18 104.21 10.51
21347 26.3440 138.07 111.82 11.75
21348 26.3450 134.74 120.76 11.63
21349 26.3460 163.26 131.34 12.78
21350 26.3470 154.53 143.97 12.38
21351 26.3480 189.77 159.10 13.62
21352 26.3490 207.66 177.26 14.37
21353 26.3500 216.23 199.08 14.69
21354 26.3510 256.67 225.35 16.06
21355 26.3520 285.09 256.57 16.91
21356 26.3530 312.68 293.44 17.63
21357 26.3540 341.95 336.50 18.45
21358 26.3550 390.86 385.43 19.79
21359 26.3560 436.15 439.65 21.01
21360 26.3570 519.76 497.71 22.72
21361 26.3580 594.87 557.19 24.24
21362 26.3590 575.88 615.23 23.87
21363 26.3600 687.69 668.65 26.38
21364 26.3610 760.18 714.18 27.70
21365 26.3620 738.41 747.72 27.22
21366 26.3630 776.52 764.99 27.89
21367 26.3640 737.43 762.38 27.09
21368 26.3650 696.65 738.25 26.43
21369 26.3660 661.68 694.64 25.78
21370 26.3670 554.30 636.63 23.43
21371 26.3680 545.97 570.76 23.26
21372 26.3690 457.88 503.79 21.27
21373 26.3700 416.86 440.10 20.41
21374 26.3710 362.26 382.22 19.21
21375 26.3720 329.74 331.39 18.24
21376 26.3730 277.70 287.79 16.67
21377 26.3740 239.10 250.85 15.36
21378 26.3750 228.71 219.94 15.05
21379 26.3760 191.76 194.31 13.83
21380 26.3770 185.81 173.06 13.48
21381 26.3780 185.63 155.53 13.49
21382 26.3790 139.94 140.98 11.79
21383 26.3800 150.33 128.88 12.35
21384 26.3810 162.79 118.75 12.91
21385 26.3820 133.93 110.17 11.63
21386 26.3830 114.85 102.87 10.73
21387 26.3840 111.08 96.59 10.53
21388 26.3850 85.34 91.13 9.24
21389 26.3860 93.89 86.34 9.61
21390 26.3870 76.98 82.12 8.70
21391 26.3880 81.01 78.38 8.93
21392 26.3890 80.43 75.04 8.96
21393 26.3900 92.78 72.04 9.68
21394 26.3910 85.47 69.35 9.33
21395 26.3920 61.28 66.91 7.89
21396 26.3930 66.58 64.71 8.14
21397 26.3940 75.27 62.71 8.63
21398 26.3950 66.48 60.88 8.15
21399 26.3960 62.87 59.20 7.95
21400 26.3970 54.68 57.67 7.36
21401 26.3980 60.83 56.26 7.73
21402 26.3990 59.46 54.97 7.68
21403 26.4000 64.54 53.78 8.06
21404 26.4010 57.16 52.68 7.61
21405 26.4020 61.55 51.66 7.89
21406 26.4030 59.73 50.71 7.72
21407 26.4040 50.69 49.82 7.12
21408 26.4050 52.66 49.00 7.29
21409 26.4060 54.69 48.23 7.43
21410 26.4070 38.43 47.52 6.19
21411 26.4080 46.57 46.84 6.80
21412 26.4090 49.05 46.22 6.98
21413 26.4100 47.96 45.63 6.96
21414 26.4110 48.46 45.07 7.01
21415 26.4120 53.11 44.55 7.32
21416 26.4130 52.64 44.06 7.28
21417 26.4140 48.12 43.60 6.93
21418 26.4150 41.11 43.16 6.46
21419 26.4160 56.51 42.75 7.54
21420 26.4170 43.60 42.35 6.59
21421 26.4180 48.28 41.99 6.89
21422 26.4190 54.38 41.63 7.36
21423 26.4200 50.18 41.30 7.14
21424 26.4210 45.93 40.99 6.90
21425 26.4220 46.31 40.69 6.83
21426 26.4230 51.45 40.40 7.20
21427 26.4240 46.73 40.13 6.84
21428 26.4250 41.51 39.87 6.45
21429 26.4260 45.95 39.62 6.78
21430 26.4270 41.84 39.38 6.47
21431 26.4280 51.64 39.16 7.15
21432 26.4290 35.77 38.94 6.02
21433 26.4300 36.27 38.74 6.12
21434 26.4310 44.27 38.54 6.76
21435 26.4320 34.59 38.35 5.94
21436 26.4330 38.59 38.17 6.21
21437 26.4340 36.21 38.00 6.04
21438 26.4350 42.91 37.83 6.55
21439 26.4360 48.08 37.67 6.94
21440 26.4370 44.60 37.52 6.65
21441 26.4380 55.47 37.37 7.42
21442 26.4390 43.88 37.23 6.65
21443 26.4400 38.32 37.10 6.27
21444 26.4410 51.87 36.97 7.32
21445 26.4420 42.92 36.84 6.60
21446 26.4430 43.91 36.72 6.63
21447 26.4440 46.17 36.60 6.80
21448 26.4450 52.68 36.49 7.27
21449 26.4460 47.14 36.38 6.91
21450 26.4470 41.36 36.27 6.44
21451 26.4480 38.64 36.17 6.18
21452 26.4490 44.61 36.07 6.68
21453 26.4500 45.14 35.98 6.78
21454 26.4510 39.53 35.89 6.35
21455 26.4520 34.77 35.80 5.95
21456 26.4530 38.58 35.71 6.24
21457 26.4540 38.99 35.63 6.28
21458 26.4550 45.25 35.55 6.77
21459 26.4560 39.56 35.47 6.33
21460 26.4570 47.39 35.40 6.89
21461 26.4580 44.14 35.32 6.62
21462 26.4590 40.96 35.25 6.40
21463 26.4600 54.63 35.19 7.44
21464 26.4610 43.81 35.12 6.69
21465 26.4620 39.16 35.05 6.32
21466 26.4630 45.31 34.99 6.77
21467 26.4640 49.83 34.93 7.10
21468 26.4650 38.51 34.87 6.24
21469 26.4660 43.80 34.81 6.67
21470 26.4670 43.58 34.76 6.62
21471 26.4680 42.41 34.70 6.50
21472 26.4690 44.21 34.65 6.65
21473 26.4700 45.02 34.60 6.77
21474 26.4710 51.01 34.55 7.27
21475 26.4720 47.21 34.50 6.93
21476 26.4730 38.17 34.45 6.21
21477 26.4740 39.96 34.41 6.34
21478 26.4750 40.36 34.36 6.38
21479 26.4760 45.63 34.32 6.77
21480 26.4770 40.44 34.27 6.33
21481 26.4780 33.57 34.23 5.79
21482 26.4790 34.96 34.19 5.96
21483 26.4800 47.57 34.15 6.98
21484 26.4810 34.10 34.11 5.96
21485 26.4820 42.73 34.08 6.61
21486 26.4830 44.91 34.04 6.71
21487 26.4840 43.11 34.00 6.57
21488 26.4850 33.40 33.97 5.80
21489 26.4860 49.56 33.93 7.03
21490 26.4870 40.12 33.90 6.32
21491 26.4880 56.03 33.87 7.48
21492 26.4890 42.24 33.84 6.52
21493 26.4900 37.12 33.81 6.18
21494 26.4910 42.21 33.77 6.61
21495 26.4920 40.20 33.74 6.43
21496 26.4930 37.22 33.72 6.16
21497 26.4940 42.30 33.69 6.53
21498 26.4950 34.60 33.66 5.93
21499 26.4960 38.70 33.63 6.28
21500 26.4970 41.97 33.61 6.48
21501 26.4980 56.05 33.58 7.43
21502 26.4990 35.88 33.56 6.04
21503 26.5000 31.74 33.53 5.68
21504 26.5010 35.50 33.51 6.06
21505 26.5020 45.44 33.49 6.82
21506 26.5030 39.66 33.47 6.33
21507 26.5040 49.59 33.44 7.09
21508 26.5050 46.47 33.42 6.87
21509 26.5060 39.55 33.40 6.33
21510 26.5070 35.65 33.38 5.98
21511 26.5080 41.95 33.36 6.46
21512 26.5090 42.03 33.34 6.47
21513 26.5100 37.80 33.32 6.20
21514 26.5110 36.60 33.30 6.14
21515 26.5120 32.04 33.28 5.71
21516 26.5130 41.28 33.26 6.48
21517 26.5140 40.25 33.24 6.39
21518 26.5150 45.36 33.22 6.78
21519 26.5160 32.19 33.20 5.72
21520 26.5170 44.59 33.18 6.69
21521 26.5180 38.11 33.17 6.17
21522 26.5190 36.28 33.15 6.02
21523 26.5200 31.75 33.13 5.71
21524 26.5210 40.73 33.12 6.48
21525 26.5220 28.83 33.10 5.42
21526 26.5230 43.96 33.08 6.65
21527 26.5240 46.43 33.07 6.81
21528 26.5250 42.06 33.05 6.52
21529 26.5260 36.72 33.04 6.11
21530 26.5270 49.96 33.02 7.07
21531 26.5280 56.13 33.01 7.45
21532 26.5290 50.21 32.99 7.13
21533 26.5300 49.97 32.98 7.15
21534 26.5310 39.11 32.97 6.36
21535 26.5320 43.90 32.95 6.72
21536 26.5330 39.08 32.94 6.29
21537 26.5340 36.87 32.93 6.11
21538 26.5350 40.95 32.91 6.43
21539 26.5360 40.55 32.90 6.40
21540 26.5370 47.49 32.89 6.87
21541 26.5380 46.00 32.88 6.75
21542 26.5390 36.44 32.87 6.06
21543 26.5400 43.08 32.85 6.65
21544 26.5410 35.58 32.84 6.09
21545 26.5420 37.15 32.83 6.17
21546 26.5430 40.55 32.82 6.43
21547 26.5440 43.50 32.81 6.61
21548 26.5450 40.86 32.80 6.45
21549 26.5460 39.39 32.79 6.32
21550 26.5470 40.21 32.78 6.32
21551 26.5480 50.67 32.77 7.07
21552 26.5490 37.43 32.76 6.13
21553 26.5500 46.37 32.75 6.87
21554 26.5510 45.57 32.74 6.87
21555 26.5520 41.92 32.73 6.54
21556 26.5530 40.51 32.72 6.41
21557 26.5540 47.65 32.71 6.96
21558 26.5550 39.47 32.70 6.35
21559 26.5560 42.43 32.69 6.58
21560 26.5570 41.92 32.68 6.49
21561 26.5580 38.16 32.67 6.16
21562 26.5590 44.53 32.66 6.70
21563 26.5600 39.10 32.66 6.31
21564 26.5610 41.00 32.65 6.50
21565 26.5620 38.77 32.64 6.26
21566 26.5630 36.93 32.63 6.14
21567 26.5640 43.23 32.62 6.60
21568 26.5650 41.90 32.62 6.53
21569 26.5660 25.61 32.61 5.13
21570 26.5670 38.07 32.60 6.21
21571 26.5680 42.62 32.59 6.53
21572 26.5690 46.63 32.59 6.82
21573 26.5700 40.19 32.58 6.41
21574 26.5710 39.47 32.57 6.37
21575 26.5720 47.94 32.57 6.96
21576 26.5730 36.05 32.56 6.04
21577 26.5740 37.87 32.55 6.17
21578 26.5750 38.68 32.55 6.25
21579 26.5760 53.89 32.54 7.39
21580 26.5770 40.93 32.53 6.41
21581 26.5780 42.98 32.53 6.55
21582 26.5790 33.78 32.52 5.86
21583 26.5800 50.08 32.51 7.17
21584 26.5810 45.15 32.51 6.83
21585 26.5820 41.48 32.50 6.50
21586 26.5830 43.47 32.50 6.62
21587 26.5840 42.60 32.49 6.55
21588 26.5850 41.93 32.49 6.50
21589 26.5860 38.24 32.48 6.23
21590 26.5870 41.87 32.48 6.48
21591 26.5880 32.83 32.47 5.74
21592 26.5890 44.62 32.47 6.71
21593 26.5900 35.92 32.46 6.10
21594 26.5910 39.71 32.46 6.40
21595 26.5920 37.60 32.45 6.20
21596 26.5930 33.86 32.45 5.85
21597 26.5940 36.96 32.45 6.10
21598 26.5950 50.38 32.44 7.15
21599 26.5960 38.57 32.44 6.25
21600 26.5970 45.22 32.43 6.73
21601 26.5980 40.12 32.43 6.33
21602 26.5990 41.50 32.43 6.44
21603 26.6000 34.85 32.43 6.00
21604 26.6010 35.65 32.42 6.06
21605 26.6020 44.53 32.42 6.74
21606 26.6030 31.35 32.42 5.65
21607 26.6040 46.69 32.42 6.89
21608 26.6050 54.43 32.41 7.42
21609 26.6060 41.51 32.41 6.50
21610 26.6070 38.09 32.41 6.16
21611 26.6080 48.04 32.41 6.92
21612 26.6090 43.85 32.41 6.60
21613 26.6100 36.91 32.41 6.11
21614 26.6110 36.02 32.41 6.11
21615 26.6120 36.95 32.42 6.15
21616 26.6130 47.43 32.42 6.93
21617 26.6140 38.53 32.43 6.24
21618 26.6150 42.41 32.44 6.58
21619 26.6160 36.28 32.45 6.09
21620 26.6170 49.86 32.46 7.07
21621 26.6180 43.11 32.47 6.59
21622 26.6190 35.36 32.49 5.93
21623 26.6200 37.27 32.51 6.20
21624 26.6210 32.23 32.53 5.78
21625 26.6220 45.62 32.54 6.81
21626 26.6230 46.59 32.56 6.84
21627 26.6240 41.66 32.56 6.49
21628 26.6250 41.55 32.56 6.46
21629 26.6260 47.60 32.56 6.95
21630 26.6270 46.56 32.54 6.82
21631 26.6280 48.03 32.53 6.94
21632 26.6290 50.03 32.51 7.10
21633 26.6300 44.37 32.49 6.74
21634 26.6310 45.35 32.48 6.84
21635 26.6320 30.71 32.47 5.61
21636 26.6330 41.49 32.46 6.48
21637 26.6340 40.85 32.45 6.39
21638 26.6350 44.10 32.45 6.65
21639 26.6360 42.54 32.45 6.54
21640 26.6370 38.88 32.45 6.24
21641 26.6380 34.89 32.45 5.90
21642 26.6390 34.47 32.46 5.88
21643 26.6400 45.61 32.47 6.85
21644 26.6410 48.38 32.48 7.06
21645 26.6420 49.75 32.49 7.14
21646 26.6430 38.89 32.51 6.27
21647 26.6440 42.75 32.53 6.58
21648 26.6450 41.42 32.56 6.45
21649 26.6460 44.03 32.60 6.65
21650 26.6470 37.73 32.64 6.14
21651 26.6480 50.99 32.69 7.10
21652 26.6490 45.55 32.75 6.76
21653 26.6500 41.29 32.83 6.47
21654 26.6510 35.47 32.92 6.07
21655 26.6520 33.06 33.02 5.84
21656 26.6530 29.24 33.15 5.46
21657 26.6540 43.16 33.29 6.62
21658 26.6550 43.12 33.45 6.60
21659 26.6560 47.93 33.62 6.98
21660 26.6570 48.42 33.78 6.95
21661 26.6580 36.82 33.94 6.04
21662 26.6590 48.80 34.07 6.99
21663 26.6600 38.02 34.17 6.21
21664 26.6610 40.75 34.22 6.48
21665 26.6620 39.74 34.22 6.38
21666 26.6630 39.00 34.17 6.29
21667 26.6640 52.12 34.07 7.26
21668 26.6650 40.77 33.93 6.41
21669 26.6660 43.78 33.77 6.68
21670 26.6670 43.94 33.60 6.61
21671 26.6680 42.19 33.43 6.49
21672 26.6690 57.11 33.27 7.55
21673 26.6700 49.40 33.13 7.09
21674 26.6710 62.58 33.01 8.01
21675 26.6720 44.59 32.90 6.74
21676 26.6730 20.74 32.82 4.60
21677 26.6740 40.74 32.74 6.40
21678 26.6750 48.78 32.68 7.01
21679 26.6760 45.38 32.63 6.78
21680 26.6770 42.72 32.59 6.54
21681 26.6780 37.38 32.56 6.13
21682 26.6790 48.16 32.53 6.96
21683 26.6800 42.63 32.51 6.60
21684 26.6810 38.40 32.49 6.30
21685 26.6820 33.08 32.47 5.80
21686 26.6830 39.07 32.46 6.27
21687 26.6840 35.04 32.45 5.93
21688 26.6850 58.02 32.44 7.62
21689 26.6860 36.68 32.43 6.10
21690 26.6870 42.45 32.43 6.52
21691 26.6880 31.46 32.42 5.61
21692 26.6890 36.79 32.42 6.09
21693 26.6900 35.03 32.42 6.00
21694 26.6910 36.05 32.41 6.11
21695 26.6920 38.30 32.41 6.27
21696 26.6930 32.62 32.41 5.75
21697 26.6940 44.67 32.41 6.71
21698 26.6950 37.55 32.41 6.16
21699 26.6960 32.88 32.42 5.78
21700 26.6970 39.41 32.42 6.27
21701 26.6980 44.74 32.42 6.66
21702 26.6990 37.38 32.42 6.13
21703 26.7000 42.20 32.43 6.56
21704 26.7010 42.52 32.43 6.62
21705 26.7020 29.48 32.44 5.51
21706 26.7030 43.31 32.44 6.63
21707 26.7040 35.17 32.45 5.97
21708 26.7050 27.84 32.45 5.34
21709 26.7060 39.38 32.46 6.30
21710 26.7070 47.21 32.47 6.87
21711 26.7080 31.04 32.47 5.55
21712 26.7090 39.74 32.48 6.29
21713 26.7100 42.94 32.49 6.60
21714 26.7110 36.48 32.50 6.15
21715 26.7120 45.84 32.51 6.85
21716 26.7130 40.03 32.52 6.37
21717 26.7140 34.26 32.53 5.90
21718 26.7150 46.88 32.54 6.90
21719 26.7160 44.15 32.55 6.69
21720 26.7170 34.95 32.56 5.91
21721 26.7180 35.59 32.58 5.95
21722 26.7190 36.61 32.59 6.04
21723 26.7200 51.08 32.60 7.22
21724 26.7210 45.92 32.62 6.86
21725 26.7220 30.42 32.63 5.60
21726 26.7230 52.32 32.65 7.25
21727 26.7240 49.19 32.67 7.05
21728 26.7250 42.94 32.69 6.59
21729 26.7260 30.51 32.76 5.57
21730 26.7270 39.45 32.78 6.28
21731 26.7280 36.28 32.80 6.04
21732 26.7290 38.80 32.82 6.26
21733 26.7300 49.72 32.87 7.12
21734 26.7310 35.59 32.89 6.06
21735 26.7320 46.78 32.92 6.90
21736 26.7330 40.12 32.94 6.34
21737 26.7340 39.57 32.97 6.30
21738 26.7350 33.32 33.00 5.81
21739 26.7360 39.86 33.03 6.37
21740 26.7370 47.88 33.06 6.94
21741 26.7380 38.01 33.10 6.17
21742 26.7390 40.31 33.13 6.36
21743 26.7400 35.22 33.17 6.00
21744 26.7410 41.26 33.21 6.51
21745 26.7420 47.43 33.25 6.96
21746 26.7430 38.23 33.29 6.22
21747 26.7440 45.48 33.34 6.76
21748 26.7450 42.32 33.39 6.55
21749 26.7460 43.17 33.44 6.61
21750 26.7470 46.82 33.49 6.83
21751 26.7480 53.02 33.55 7.24
21752 26.7490 36.41 33.61 6.03
21753 26.7500 39.95 33.67 6.36
21754 26.7510 52.94 33.74 7.37
21755 26.7520 29.49 33.81 5.50
21756 26.7530 42.04 33.89 6.53
21757 26.7540 40.00 33.97 6.36
21758 26.7550 29.13 34.06 5.46
21759 26.7560 44.93 34.15 6.76
21760 26.7570 39.83 34.25 6.31
21761 26.7580 39.23 34.36 6.24
21762 26.7590 49.74 34.47 7.01
21763 26.7600 59.75 34.60 7.81
21764 26.7610 34.41 34.73 5.95
21765 26.7620 44.67 34.84 6.74
21766 26.7630 40.22 35.00 6.41
21767 26.7640 39.80 35.17 6.38
21768 26.7650 42.70 35.32 6.59
21769 26.7660 46.63 35.52 6.88
21770 26.7670 46.54 35.71 6.80
21771 26.7680 48.51 35.93 6.93
21772 26.7690 45.32 36.13 6.73
21773 26.7700 49.63 36.44 7.11
21774 26.7710 45.33 36.78 6.80
21775 26.7720 49.55 37.16 7.11
21776 26.7730 51.28 37.59 7.18
21777 26.7740 51.86 38.08 7.22
21778 26.7750 45.35 38.65 6.76
21779 26.7760 65.27 39.29 8.13
21780 26.7770 64.43 40.03 8.05
21781 26.7780 52.25 40.88 7.22
21782 26.7790 50.00 41.83 7.09
21783 26.7800 51.25 42.91 7.19
21784 26.7810 47.01 44.11 6.97
21785 26.7820 53.70 45.42 7.37
21786 26.7830 46.62 46.80 6.83
21787 26.7840 63.60 48.22 7.98
21788 26.7850 79.21 49.64 8.91
21789 26.7860 63.73 51.04 8.01
21790 26.7870 63.18 52.46 7.92
21791 26.7880 50.84 53.99 7.10
21792 26.7890 69.94 55.75 8.36
21793 26.7900 80.57 57.91 9.01
21794 26.7910 74.64 60.59 8.75
21795 26.7920 69.93 63.93 8.44
21796 26.7930 81.08 68.02 9.02
21797 26.7940 78.91 72.95 8.87
21798 26.7950 96.91 78.73 9.85
21799 26.7960 101.46 85.30 10.04
21800 26.7970 120.44 92.50 10.90
21801 26.7980 84.94 99.97 9.16
21802 26.7990 129.33 107.33 11.34
21803 26.8000 142.00 114.15 11.98
21804 26.8010 138.06 120.23 11.90
21805 26.8020 137.70 125.58 11.83
21806 26.8030 152.98 130.23 12.38
21807 26.8040 158.38 133.94 12.59
21808 26.8050 160.77 136.15 12.68
21809 26.8060 154.86 136.09 12.41
21810 26.8070 124.85 133.17 11.08
21811 26.8080 115.76 127.40 10.67
21812 26.8090 130.21 119.39 11.38
21813 26.8100 129.24 110.16 11.40
21814 26.8110 107.05 100.65 10.44
21815 26.8120 94.87 91.55 9.80
21816 26.8130 99.67 83.25 10.03
21817 26.8140 74.17 75.94 8.63
21818 26.8150 75.70 69.64 8.71
21819 26.8160 72.01 64.29 8.50
21820 26.8170 67.95 59.80 8.21
21821 26.8180 70.70 56.05 8.35
21822 26.8190 58.37 52.95 7.60
21823 26.8200 66.01 50.36 8.20
21824 26.8210 52.62 48.22 7.33
21825 26.8220 46.22 46.44 6.85
21826 26.8230 64.04 44.93 8.01
21827 26.8240 59.13 43.67 7.69
21828 26.8250 64.00 42.59 8.04
21829 26.8260 53.04 41.65 7.29
21830 26.8270 44.73 40.84 6.71
21831 26.8280 44.67 40.14 6.68
21832 26.8290 50.71 39.51 7.13
21833 26.8300 50.43 38.96 7.15
21834 26.8310 46.90 38.46 6.92
21835 26.8320 31.57 38.02 5.66
21836 26.8330 43.57 37.63 6.62
21837 26.8340 35.55 37.27 5.97
21838 26.8350 44.45 36.94 6.69
21839 26.8360 44.89 36.65 6.74
21840 26.8370 37.23 36.38 6.12
21841 26.8380 46.82 36.14 6.80
21842 26.8390 38.91 35.92 6.24
21843 26.8400 41.51 35.72 6.50
21844 26.8410 39.30 35.53 6.35
21845 26.8420 38.78 35.36 6.29
21846 26.8430 46.30 35.21 6.84
21847 26.8440 39.15 35.06 6.27
21848 26.8450 43.17 34.93 6.57
21849 26.8460 35.15 34.81 5.95
21850 26.8470 37.76 34.70 6.12
21851 26.8480 44.18 34.60 6.61
21852 26.8490 40.88 34.51 6.38
21853 26.8500 43.54 34.42 6.65
21854 26.8510 34.32 34.34 5.97
21855 26.8520 36.05 34.27 6.07
21856 26.8530 36.73 34.20 6.11
21857 26.8540 54.42 34.14 7.39
21858 26.8550 31.22 34.09 5.60
21859 26.8560 44.50 34.04 6.67
21860 26.8570 44.81 34.00 6.66
21861 26.8580 35.54 33.96 5.90
21862 26.8590 42.72 33.93 6.52
21863 26.8600 42.06 33.90 6.55
21864 26.8610 44.04 33.87 6.73
21865 26.8620 31.34 33.85 5.66
21866 26.8630 33.90 33.84 5.85
21867 26.8640 37.50 33.83 6.15
21868 26.8650 40.02 33.82 6.36
21869 26.8660 40.10 33.82 6.34
21870 26.8670 35.35 33.83 5.95
21871 26.8680 44.21 33.84 6.60
21872 26.8690 40.66 33.85 6.36
21873 26.8700 32.32 33.87 5.72
21874 26.8710 45.33 33.89 6.83
21875 26.8720 45.13 33.92 6.78
21876 26.8730 49.00 33.96 7.02
21877 26.8740 43.62 34.01 6.63
21878 26.8750 29.73 34.06 5.50
21879 26.8760 50.06 34.12 7.11
21880 26.8770 51.80 34.19 7.18
21881 26.8780 42.98 34.27 6.53
21882 26.8790 32.06 34.36 5.66
21883 26.8800 38.69 34.47 6.26
21884 26.8810 26.96 34.58 5.28
21885 26.8820 39.25 34.72 6.29
21886 26.8830 40.99 34.87 6.40
21887 26.8840 43.98 35.04 6.66
21888 26.8850 43.31 35.24 6.60
21889 26.8860 47.95 35.47 6.94
21890 26.8870 25.14 35.74 5.04
21891 26.8880 42.40 36.04 6.50
21892 26.8890 48.12 36.40 6.94
21893 26.8900 45.86 36.82 6.81
21894 26.8910 42.17 37.32 6.56
21895 26.8920 40.06 37.92 6.39
21896 26.8930 45.57 38.64 6.78
21897 26.8940 49.69 39.51 7.03
21898 26.8950 43.16 40.56 6.57
21899 26.8960 44.81 41.83 6.71
21900 26.8970 52.45 43.35 7.20
21901 26.8980 50.33 45.18 7.05
21902 26.8990 58.08 47.33 7.60
21903 26.9000 46.95 49.83 6.91
21904 26.9010 48.19 52.69 7.06
21905 26.9020 70.15 55.84 8.40
21906 26.9030 53.07 59.17 7.32
21907 26.9040 59.69 62.48 7.73
21908 26.9050 72.10 65.51 8.50
21909 26.9060 68.20 67.98 8.26
21910 26.9070 65.44 69.63 8.02
21911 26.9080 57.55 70.28 7.55
21912 26.9090 67.15 69.83 8.16
21913 26.9100 78.57 68.30 8.90
21914 26.9110 63.64 65.87 8.07
21915 26.9120 61.82 62.80 7.93
21916 26.9130 53.67 59.42 7.35
21917 26.9140 58.37 56.01 7.65
21918 26.9150 56.07 52.79 7.50
21919 26.9160 68.59 49.89 8.29
21920 26.9170 54.80 47.33 7.40
21921 26.9180 52.22 45.14 7.17
21922 26.9190 47.48 43.28 6.87
21923 26.9200 39.98 41.72 6.37
21924 26.9210 49.07 40.43 7.11
21925 26.9220 46.01 39.35 6.85
21926 26.9230 51.09 38.46 7.15
21927 26.9240 49.59 37.72 7.07
21928 26.9250 40.89 37.10 6.43
21929 26.9260 43.40 36.58 6.62
21930 26.9270 37.69 36.14 6.16
21931 26.9280 43.54 35.76 6.59
21932 26.9290 39.27 35.44 6.28
21933 26.9300 38.83 35.16 6.28
21934 26.9310 42.31 34.91 6.57
21935 26.9320 42.98 34.69 6.58
21936 26.9330 41.79 34.49 6.48
21937 26.9340 41.13 34.32 6.43
21938 26.9350 37.06 34.16 6.12
21939 26.9360 54.92 34.02 7.44
21940 26.9370 48.24 33.90 6.95
21941 26.9380 47.61 33.78 6.87
21942 26.9390 35.37 33.68 5.97
21943 26.9400 36.92 33.58 6.13
21944 26.9410 45.16 33.50 6.80
21945 26.9420 38.21 33.42 6.26
21946 26.9430 28.38 33.34 5.36
21947 26.9440 34.85 33.28 5.90
21948 26.9450 45.57 33.21 6.76
21949 26.9460 39.50 33.16 6.31
21950 26.9470 33.90 33.11 5.82
21951 26.9480 38.71 33.06 6.22
21952 26.9490 42.29 33.01 6.53
21953 26.9500 47.88 32.97 7.01
21954 26.9510 39.38 32.93 6.36
21955 26.9520 42.72 32.90 6.62
21956 26.9530 49.38 32.86 7.06
21957 26.9540 45.15 32.84 6.72
21958 26.9550 40.22 32.81 6.35
21959 26.9560 36.24 32.78 6.06
21960 26.9570 55.72 32.75 7.43
21961 26.9580 40.75 32.73 6.34
21962 26.9590 35.45 32.71 5.96
21963 26.9600 42.28 32.69 6.53
21964 26.9610 40.19 32.67 6.45
21965 26.9620 36.19 32.65 6.07
21966 26.9630 33.65 32.63 5.84
21967 26.9640 36.36 32.62 6.06
21968 26.9650 43.30 32.60 6.62
21969 26.9660 41.99 32.59 6.50
21970 26.9670 35.74 32.58 5.97
21971 26.9680 35.54 32.57 5.92
21972 26.9690 39.68 32.56 6.31
21973 26.9700 43.39 32.55 6.65
21974 26.9710 30.83 32.54 5.64
21975 26.9720 39.74 32.53 6.38
21976 26.9730 34.36 32.52 5.91
21977 26.9740 42.95 32.51 6.57
21978 26.9750 41.97 32.51 6.52
21979 26.9760 34.25 32.50 5.91
21980 26.9770 42.16 32.50 6.50
21981 26.9780 45.50 32.49 6.74
21982 26.9790 37.84 32.49 6.14
21983 26.9800 28.64 32.49 5.42
21984 26.9810 38.92 32.48 6.34
21985 26.9820 32.22 32.48 5.72
21986 26.9830 31.73 32.48 5.67
21987 26.9840 35.44 32.48 5.97
21988 26.9850 46.46 32.48 6.87
21989 26.9860 31.12 32.47 5.61
21990 26.9870 39.90 32.47 6.32
21991 26.9880 41.21 32.47 6.43
21992 26.9890 41.85 32.48 6.48
21993 26.9900 37.68 32.48 6.20
21994 26.9910 42.56 32.48 6.61
21995 26.9920 43.92 32.48 6.69
21996 26.9930 39.13 32.48 6.28
21997 26.9940 41.29 32.48 6.44
21998 26.9950 43.10 32.49 6.58
21999 26.9960 33.73 32.49 5.86
22000 26.9970 43.24 32.49 6.58
22001 26.9980 47.23 32.50 6.86
22002 26.9990 38.22 32.50 6.21
22003 27.0000 31.22 32.51 5.66
22004 27.0010 40.48 32.51 6.46
22005 27.0020 38.50 32.52 6.28
22006 27.0030 39.35 32.53 6.31
22007 27.0040 46.97 32.53 6.87
22008 27.0050 47.02 32.54 6.86
22009 27.0060 47.86 32.55 6.95
22010 27.0070 43.94 32.55 6.59
22011 27.0080 31.32 32.56 5.59
22012 27.0090 36.84 32.57 6.08
22013 27.0100 39.34 32.58 6.33
22014 27.0110 41.82 32.59 6.56
22015 27.0120 34.62 32.62 5.97
22016 27.0130 36.67 32.63 6.11
22017 27.0140 33.85 32.64 5.86
22018 27.0150 39.12 32.65 6.28
22019 27.0160 36.13 32.66 6.04
22020 27.0170 33.49 32.67 5.76
22021 27.0180 54.81 32.73 7.35
22022 27.0190 44.02 32.74 6.62
22023 27.0200 33.10 32.75 5.82
22024 27.0210 43.62 32.77 6.71
22025 27.0220 40.35 32.78 6.43
22026 27.0230 34.97 32.80 5.95
22027 27.0240 40.37 32.81 6.37
22028 27.0250 43.16 32.83 6.62
22029 27.0260 37.97 32.85 6.19
22030 27.0270 33.32 32.86 5.79
22031 27.0280 44.95 32.88 6.68
22032 27.0290 36.13 32.90 6.00
22033 27.0300 37.17 32.92 6.14
22034 27.0310 36.61 32.94 6.12
22035 27.0320 38.47 32.96 6.25
22036 27.0330 41.60 32.98 6.46
22037 27.0340 48.77 33.01 6.98
22038 27.0350 45.23 33.03 6.75
22039 27.0360 43.35 33.05 6.63
22040 27.0370 40.55 33.08 6.37
22041 27.0380 31.15 33.10 5.59
22042 27.0390 36.97 33.13 6.07
22043 27.0400 40.16 33.16 6.40
22044 27.0410 36.48 33.19 6.13
22045 27.0420 29.67 33.21 5.51
22046 27.0430 43.70 33.24 6.63
22047 27.0440 46.18 33.28 6.79
22048 27.0450 33.03 33.31 5.79
22049 27.0460 33.56 33.34 5.83
22050 27.0470 40.69 33.38 6.38
22051 27.0480 35.10 33.41 5.91
22052 27.0490 40.43 33.45 6.35
22053 27.0500 37.83 33.49 6.24
22054 27.0510 44.28 33.53 6.74
22055 27.0520 37.19 33.57 6.14
22056 27.0530 43.35 33.62 6.61
22057 27.0540 35.37 33.66 5.96
22058 27.0550 33.34 33.71 5.79
22059 27.0560 35.44 33.76 5.97
22060 27.0570 45.50 33.81 6.71
22061 27.0580 48.80 33.86 6.97
22062 27.0590 33.85 33.92 5.84
22063 27.0600 34.20 33.97 5.92
22064 27.0610 32.75 34.03 5.85
22065 27.0620 48.98 34.09 7.06
22066 27.0630 40.96 34.16 6.41
22067 27.0640 28.36 34.23 5.36
22068 27.0650 48.35 34.30 6.95
22069 27.0660 36.21 34.37 6.03
22070 27.0670 43.34 34.49 6.56
22071 27.0680 44.21 34.57 6.62
22072 27.0690 48.89 34.65 6.99
22073 27.0700 52.20 34.74 7.27
22074 27.0710 43.39 34.83 6.68
22075 27.0720 37.05 34.97 6.14
22076 27.0730 40.77 35.07 6.40
22077 27.0740 34.04 35.22 5.85
22078 27.0750 35.46 35.33 5.98
22079 27.0760 41.51 35.45 6.48
22080 27.0770 40.51 35.57 6.35
22081 27.0780 42.24 35.70 6.46
22082 27.0790 41.64 35.83 6.44
22083 27.0800 36.37 35.98 6.06
22084 27.0810 39.11 36.13 6.32
22085 27.0820 45.33 36.29 6.74
22086 27.0830 41.98 36.45 6.49
22087 27.0840 47.35 36.63 6.91
22088 27.0850 45.73 36.82 6.79
22089 27.0860 50.21 37.02 7.13
22090 27.0870 41.71 37.23 6.43
22091 27.0880 36.19 37.46 5.98
22092 27.0890 30.60 37.70 5.53
22093 27.0900 39.28 37.96 6.28
22094 27.0910 45.35 38.23 6.80
22095 27.0920 54.21 38.52 7.38
22096 27.0930 43.77 38.83 6.64
22097 27.0940 42.33 39.16 6.49
22098 27.0950 39.25 39.51 6.28
22099 27.0960 42.86 39.90 6.57
22100 27.0970 50.25 40.31 7.06
22101 27.0980 44.14 40.75 6.60
22102 27.0990 48.98 41.23 7.00
22103 27.1000 39.08 41.74 6.31
22104 27.1010 55.44 42.31 7.53
22105 27.1020 45.53 42.91 6.77
22106 27.1030 58.52 43.58 7.63
22107 27.1040 69.01 44.30 8.27
22108 27.1050 39.45 45.09 6.28
22109 27.1060 47.72 45.96 6.91
22110 27.1070 55.42 46.92 7.40
22111 27.1080 54.02 47.97 7.30
22112 27.1090 52.48 49.14 7.22
22113 27.1100 39.66 50.44 6.35
22114 27.1110 61.05 51.89 7.92
22115 27.1120 70.61 53.51 8.44
22116 27.1130 69.08 55.34 8.29
22117 27.1140 68.68 57.41 8.25
22118 27.1150 72.67 59.79 8.49
22119 27.1160 65.99 62.52 8.11
22120 27.1170 88.32 65.70 9.33
22121 27.1180 90.58 69.42 9.43
22122 27.1190 85.84 73.82 9.21
22123 27.1200 99.25 79.07 9.98
22124 27.1210 83.54 85.35 9.25
22125 27.1220 97.56 92.94 9.93
22126 27.1230 106.71 102.07 10.29
22127 27.1240 135.35 113.05 11.60
22128 27.1250 125.76 126.27 11.18
22129 27.1260 141.76 141.96 11.90
22130 27.1270 157.07 160.43 12.43
22131 27.1280 176.44 181.87 13.15
22132 27.1290 213.05 206.17 14.46
22133 27.1300 208.93 232.76 14.49
22134 27.1310 253.31 260.55 16.03
22135 27.1320 263.73 287.46 16.21
22136 27.1330 333.53 310.74 18.25
22137 27.1340 322.87 327.66 17.97
22138 27.1350 336.75 336.27 18.31
22139 27.1360 352.14 336.16 18.78
22140 27.1370 362.67 328.12 18.96
22141 27.1380 299.42 313.48 17.10
22142 27.1390 283.95 293.55 16.75
22143 27.1400 282.45 269.89 16.80
22144 27.1410 238.29 244.29 15.54
22145 27.1420 203.77 218.50 14.30
22146 27.1430 213.72 193.89 14.56
22147 27.1440 194.27 171.58 13.91
22148 27.1450 161.80 151.90 12.72
22149 27.1460 122.92 134.87 11.09
22150 27.1470 117.58 120.45 10.77
22151 27.1480 130.02 108.32 11.34
22152 27.1490 109.36 98.20 10.41
22153 27.1500 99.22 89.76 10.05
22154 27.1510 83.94 82.75 9.28
22155 27.1520 67.88 76.91 8.27
22156 27.1530 79.75 72.02 8.91
22157 27.1540 70.60 67.89 8.34
22158 27.1550 85.64 64.40 9.22
22159 27.1560 73.39 61.41 8.59
22160 27.1570 70.56 58.83 8.36
22161 27.1580 61.38 56.58 7.78
22162 27.1590 68.01 54.62 8.24
22163 27.1600 66.97 52.87 8.25
22164 27.1610 55.38 51.33 7.54
22165 27.1620 60.11 49.96 7.82
22166 27.1630 46.88 48.72 6.83
22167 27.1640 52.86 47.61 7.25
22168 27.1650 47.26 46.60 6.86
22169 27.1660 48.20 45.69 6.96
22170 27.1670 50.61 44.86 7.07
22171 27.1680 41.64 44.11 6.44
22172 27.1690 54.28 43.41 7.36
22173 27.1700 47.98 42.78 7.00
22174 27.1710 53.53 42.20 7.43
22175 27.1720 37.18 41.66 6.15
22176 27.1730 46.79 41.17 6.86
22177 27.1740 45.35 40.71 6.76
22178 27.1750 49.11 40.29 7.04
22179 27.1760 45.05 39.90 6.75
22180 27.1770 49.35 39.53 7.00
22181 27.1780 42.40 39.19 6.46
22182 27.1790 47.63 38.88 6.89
22183 27.1800 41.44 38.58 6.47
22184 27.1810 43.80 38.30 6.70
22185 27.1820 44.37 38.04 6.71
22186 27.1830 54.89 37.80 7.44
22187 27.1840 28.91 37.57 5.43
22188 27.1850 34.18 37.36 5.87
22189 27.1860 44.70 37.16 6.73
22190 27.1870 40.15 36.97 6.32
22191 27.1880 44.86 36.79 6.67
22192 27.1890 38.00 36.62 6.14
22193 27.1900 30.58 36.46 5.57
22194 27.1910 41.40 36.31 6.53
22195 27.1920 49.30 36.17 7.09
22196 27.1930 37.58 36.04 6.16
22197 27.1940 31.74 35.91 5.66
22198 27.1950 45.38 35.79 6.76
22199 27.1960 51.13 35.67 7.19
22200 27.1970 46.22 35.56 6.80
22201 27.1980 45.42 35.46 6.71
22202 27.1990 49.20 35.36 7.01
22203 27.2000 45.90 35.27 6.88
22204 27.2010 38.88 35.18 6.32
22205 27.2020 34.62 35.09 5.95
22206 27.2030 40.71 35.01 6.41
22207 27.2040 40.05 34.94 6.33
22208 27.2050 40.36 34.86 6.37
22209 27.2060 44.25 34.79 6.69
22210 27.2070 34.25 34.72 5.84
22211 27.2080 37.83 34.65 6.14
22212 27.2090 37.17 34.59 6.11
22213 27.2100 39.39 34.53 6.36
22214 27.2110 41.55 34.48 6.53
22215 27.2120 46.44 34.42 6.91
22216 27.2130 48.06 34.36 6.95
22217 27.2140 43.72 34.31 6.63
22218 27.2150 35.26 34.26 5.95
22219 27.2160 42.01 34.21 6.53
22220 27.2170 44.83 34.17 6.70
22221 27.2180 37.21 34.19 6.09
22222 27.2190 40.87 34.15 6.40
22223 27.2200 36.63 34.12 6.13
22224 27.2210 44.32 34.08 6.76
22225 27.2220 41.34 34.08 6.48
22226 27.2230 50.36 34.05 7.13
22227 27.2240 42.94 34.02 6.58
22228 27.2250 38.20 33.99 6.22
22229 27.2260 44.82 33.96 6.72
22230 27.2270 38.20 33.93 6.20
22231 27.2280 42.95 33.90 6.51
22232 27.2290 45.31 33.88 6.70
22233 27.2300 51.42 33.86 7.22
22234 27.2310 36.63 33.83 6.14
22235 27.2320 37.16 33.81 6.16
22236 27.2330 33.09 33.79 5.80
22237 27.2340 34.77 33.77 5.94
22238 27.2350 50.85 33.76 7.18
22239 27.2360 40.77 33.74 6.41
22240 27.2370 40.03 33.72 6.35
22241 27.2380 46.51 33.71 6.79
22242 27.2390 36.76 33.69 6.07
22243 27.2400 52.74 33.68 7.32
22244 27.2410 41.47 33.66 6.54
22245 27.2420 48.90 33.65 7.05
22246 27.2430 37.15 33.64 6.13
22247 27.2440 36.83 33.63 6.08
22248 27.2450 35.50 33.62 5.99
22249 27.2460 45.07 33.61 6.76
22250 27.2470 45.60 33.60 6.73
22251 27.2480 43.60 33.59 6.56
22252 27.2490 31.02 33.58 5.59
22253 27.2500 40.68 33.57 6.42
22254 27.2510 33.54 33.57 5.88
22255 27.2520 46.10 33.56 6.82
22256 27.2530 31.44 33.56 5.61
22257 27.2540 36.15 33.55 6.02
22258 27.2550 35.43 33.55 5.96
22259 27.2560 44.76 33.54 6.72
22260 27.2570 39.51 33.54 6.29
22261 27.2580 45.56 33.54 6.73
22262 27.2590 42.03 33.54 6.50
22263 27.2600 26.86 33.54 5.25
22264 27.2610 45.54 33.53 6.83
22265 27.2620 37.63 33.53 6.21
22266 27.2630 45.47 33.53 6.73
22267 27.2640 43.96 33.53 6.65
22268 27.2650 44.06 33.54 6.64
22269 27.2660 44.73 33.54 6.71
22270 27.2670 33.29 33.54 5.77
22271 27.2680 30.52 33.54 5.49
22272 27.2690 39.62 33.55 6.31
22273 27.2700 45.76 33.55 6.83
22274 27.2710 36.15 33.55 6.11
22275 27.2720 33.60 33.56 5.85
22276 27.2730 44.43 33.56 6.71
22277 27.2740 37.33 33.57 6.12
22278 27.2750 39.99 33.58 6.34
22279 27.2760 48.88 33.58 7.03
22280 27.2770 39.00 33.59 6.22
22281 27.2780 41.18 33.60 6.38
22282 27.2790 43.07 33.61 6.57
22283 27.2800 39.80 33.62 6.36
22284 27.2810 44.44 33.62 6.79
22285 27.2820 48.91 33.63 7.08
22286 27.2830 59.53 33.65 7.77
22287 27.2840 40.88 33.66 6.41
22288 27.2850 42.25 33.67 6.53
22289 27.2860 44.93 33.68 6.70
22290 27.2870 44.85 33.69 6.67
22291 27.2880 47.45 33.71 6.85
22292 27.2890 48.06 33.72 6.93
22293 27.2900 36.37 33.74 6.09
22294 27.2910 36.52 33.75 6.14
22295 27.2920 27.02 33.77 5.28
22296 27.2930 50.07 33.79 7.09
22297 27.2940 32.67 33.80 5.73
22298 27.2950 50.19 33.82 7.09
22299 27.2960 51.38 33.84 7.19
22300 27.2970 51.36 33.86 7.16
22301 27.2980 29.75 33.88 5.44
22302 27.2990 38.49 33.91 6.23
22303 27.3000 30.06 33.93 5.54
22304 27.3010 44.23 33.95 6.73
22305 27.3020 42.00 33.98 6.52
22306 27.3030 45.72 34.00 6.79
22307 27.3040 36.08 34.03 6.03
22308 27.3050 40.97 34.06 6.44
22309 27.3060 42.18 34.09 6.52
22310 27.3070 41.45 34.12 6.44
22311 27.3080 42.56 34.15 6.50
22312 27.3090 40.22 34.18 6.32
22313 27.3100 42.38 34.22 6.58
22314 27.3110 40.70 34.25 6.46
22315 27.3120 36.11 34.29 6.06
22316 27.3130 35.42 34.33 5.99
22317 27.3140 43.73 34.37 6.62
22318 27.3150 44.28 34.41 6.68
22319 27.3160 49.32 34.45 7.09
22320 27.3170 42.38 34.50 6.49
22321 27.3180 43.52 34.55 6.57
22322 27.3190 37.90 34.60 6.18
22323 27.3200 41.67 34.66 6.52
22324 27.3210 31.36 34.72 5.70
22325 27.3220 36.73 34.78 6.11
22326 27.3230 43.13 34.84 6.58
22327 27.3240 46.70 34.91 6.83
22328 27.3250 44.80 34.99 6.72
22329 27.3260 34.05 35.06 5.86
22330 27.3270 43.65 35.15 6.57
22331 27.3280 30.34 35.24 5.49
22332 27.3290 37.56 35.33 6.15
22333 27.3300 48.80 35.43 7.04
22334 27.3310 44.88 35.54 6.78
22335 27.3320 41.22 35.66 6.48
22336 27.3330 46.65 35.79 6.85
22337 27.3340 46.25 35.93 6.81
22338 27.3350 54.39 36.09 7.40
22339 27.3360 46.48 36.26 6.85
22340 27.3370 42.09 36.44 6.50
22341 27.3380 45.32 36.65 6.68
22342 27.3390 43.02 36.88 6.56
22343 27.3400 36.30 37.15 6.09
22344 27.3410 43.22 37.45 6.68
22345 27.3420 41.79 37.80 6.52
22346 27.3430 44.14 38.20 6.67
22347 27.3440 38.28 38.67 6.23
22348 27.3450 42.66 39.22 6.57
22349 27.3460 49.56 39.86 7.09
22350 27.3470 46.98 40.63 6.84
22351 27.3480 53.83 41.53 7.30
22352 27.3490 50.89 42.59 7.15
22353 27.3500 47.97 43.83 6.99
22354 27.3510 52.78 45.25 7.36
22355 27.3520 57.62 46.86 7.64
22356 27.3530 58.57 48.62 7.67
22357 27.3540 53.06 50.47 7.28
22358 27.3550 58.71 52.32 7.69
22359 27.3560 47.22 54.07 6.90
22360 27.3570 62.96 55.63 7.91
22361 27.3580 56.35 56.96 7.47
22362 27.3590 54.84 58.05 7.41
22363 27.3600 47.78 58.87 7.00
22364 27.3610 69.78 59.35 8.48
22365 27.3620 69.51 59.39 8.38
22366 27.3630 62.24 58.91 7.90
22367 27.3640 64.76 57.89 8.06
22368 27.3650 57.87 56.42 7.65
22369 27.3660 56.71 54.64 7.58
22370 27.3670 57.79 52.74 7.61
22371 27.3680 51.64 50.87 7.16
22372 27.3690 57.65 49.15 7.61
22373 27.3700 45.46 47.61 6.81
22374 27.3710 47.69 46.30 7.00
22375 27.3720 42.89 45.20 6.62
22376 27.3730 46.43 44.30 6.83
22377 27.3740 62.48 43.57 7.91
22378 27.3750 63.30 43.01 7.99
22379 27.3760 42.47 42.57 6.53
22380 27.3770 49.84 42.26 7.08
22381 27.3780 54.13 42.03 7.32
22382 27.3790 42.41 41.89 6.52
22383 27.3800 47.03 41.81 6.92
22384 27.3810 45.40 41.80 6.85
22385 27.3820 53.23 41.84 7.36
22386 27.3830 52.86 41.92 7.32
22387 27.3840 47.14 42.04 6.89
22388 27.3850 44.60 42.21 6.73
22389 27.3860 37.67 42.41 6.16
22390 27.3870 51.60 42.65 7.16
22391 27.3880 44.21 42.92 6.63
22392 27.3890 50.06 43.24 7.07
22393 27.3900 59.46 43.59 7.79
22394 27.3910 66.47 43.99 8.30
22395 27.3920 56.97 44.43 7.64
22396 27.3930 49.50 44.92 7.10
22397 27.3940 59.34 45.46 7.71
22398 27.3950 53.10 46.05 7.34
22399 27.3960 50.86 46.71 7.17
22400 27.3970 46.99 47.44 6.85
22401 27.3980 42.34 48.24 6.51
22402 27.3990 61.49 49.14 7.85
22403 27.4000 43.57 50.13 6.66
22404 27.4010 58.98 51.24 7.79
22405 27.4020 63.19 52.48 8.01
22406 27.4030 67.77 53.88 8.25
22407 27.4040 69.23 55.46 8.33
22408 27.4050 62.20 57.26 7.92
22409 27.4060 67.77 59.33 8.29
22410 27.4070 61.09 61.73 7.82
22411 27.4080 80.13 64.52 8.92
22412 27.4090 93.51 67.79 9.72
22413 27.4100 86.35 71.66 9.36
22414 27.4110 94.41 76.25 9.83
22415 27.4120 89.16 81.72 9.52
22416 27.4130 93.30 88.25 9.65
22417 27.4140 110.58 96.00 10.53
22418 27.4150 106.27 105.19 10.33
22419 27.4160 131.72 116.01 11.51
22420 27.4170 136.51 128.60 11.64
22421 27.4180 164.73 142.93 12.81
22422 27.4190 145.20 158.89 12.02
22423 27.4200 181.71 175.98 13.58
22424 27.4210 192.41 193.37 14.04
22425 27.4220 205.77 210.14 14.40
22426 27.4230 221.98 225.34 14.93
22427 27.4240 235.43 238.53 15.31
22428 27.4250 240.34 249.49 15.50
22429 27.4260 266.32 257.95 16.33
22430 27.4270 228.11 263.12 15.03
22431 27.4280 258.36 263.67 15.98
22432 27.4290 267.46 258.44 16.35
22433 27.4300 244.85 247.26 15.78
22434 27.4310 209.41 231.17 14.71
22435 27.4320 183.30 212.25 13.58
22436 27.4330 188.42 192.45 13.79
22437 27.4340 162.39 173.28 12.73
22438 27.4350 158.11 155.80 12.57
22439 27.4360 171.16 140.34 13.08
22440 27.4370 129.36 127.07 11.37
22441 27.4380 111.32 115.84 10.48
22442 27.4390 120.33 106.48 11.01
22443 27.4400 96.04 98.79 9.87
22444 27.4410 101.61 92.52 10.25
22445 27.4420 108.09 87.45 10.51
22446 27.4430 107.56 83.40 10.40
22447 27.4440 85.14 80.20 9.22
22448 27.4450 83.04 77.68 9.17
22449 27.4460 85.15 75.76 9.29
22450 27.4470 84.42 74.33 9.18
22451 27.4480 93.62 73.32 9.64
22452 27.4490 101.03 72.68 10.02
22453 27.4500 97.31 72.38 9.93
22454 27.4510 92.96 72.39 9.76
22455 27.4520 88.22 72.69 9.43
22456 27.4530 88.78 73.29 9.43
22457 27.4540 86.20 74.18 9.31
22458 27.4550 82.24 75.39 9.10
22459 27.4560 81.98 76.92 9.10
22460 27.4570 96.12 78.81 9.80
22461 27.4580 86.41 81.10 9.24
22462 27.4590 90.97 83.85 9.54
22463 27.4600 80.69 87.14 9.07
22464 27.4610 86.45 91.05 9.44
22465 27.4620 96.43 95.73 9.90
22466 27.4630 131.11 101.32 11.45
22467 27.4640 119.15 108.01 10.91
22468 27.4650 161.32 116.07 12.70
22469 27.4660 139.70 125.76 11.88
22470 27.4670 150.71 137.41 12.21
22471 27.4680 170.83 151.41 12.94
22472 27.4690 172.41 168.18 13.12
22473 27.4700 190.98 188.06 13.89
22474 27.4710 204.85 211.51 14.50
22475 27.4720 250.18 238.72 15.86
22476 27.4730 287.25 269.59 16.88
22477 27.4740 275.08 303.67 16.56
22478 27.4750 296.74 339.66 17.14
22479 27.4760 325.65 375.79 18.04
22480 27.4770 414.82 409.77 20.25
22481 27.4780 470.22 439.74 21.56
22482 27.4790 510.92 464.87 22.59
22483 27.4800 510.06 484.70 22.73
22484 27.4810 504.95 498.76 22.65
22485 27.4820 523.36 505.51 23.10
22486 27.4830 484.42 502.75 21.90
22487 27.4840 443.38 488.82 21.01
22488 27.4850 420.49 463.85 20.46
22489 27.4860 373.56 430.14 19.31
22490 27.4870 344.54 391.41 18.50
22491 27.4880 325.92 351.31 17.89
22492 27.4890 306.34 312.94 17.47
22493 27.4900 272.59 278.03 16.53
22494 27.4910 242.39 247.53 15.75
22495 27.4920 227.05 221.71 15.12
22496 27.4930 193.86 200.30 13.89
22497 27.4940 192.71 182.95 13.87
22498 27.4950 225.52 169.15 15.01
22499 27.4960 179.26 158.23 13.39
22500 27.4970 183.40 149.45 13.51
22501 27.4980 179.56 142.12 13.30
22502 27.4990 146.92 135.49 12.10
22503 27.5000 133.66 128.99 11.66
22504 27.5010 136.25 122.33 11.80
22505 27.5020 137.30 115.47 11.81
22506 27.5030 117.24 108.51 10.83
22507 27.5040 117.63 101.70 10.88
22508 27.5050 123.51 95.24 11.13
22509 27.5060 99.08 89.30 9.99
22510 27.5070 83.34 83.93 9.13
22511 27.5080 75.55 79.15 8.63
22512 27.5090 83.79 74.96 9.14
22513 27.5100 85.81 71.29 9.33
22514 27.5110 82.80 68.07 9.21
22515 27.5120 77.04 65.28 8.83
22516 27.5130 63.80 62.84 7.99
22517 27.5140 73.06 60.69 8.59
22518 27.5150 60.47 58.81 7.82
22519 27.5160 56.42 57.14 7.53
22520 27.5170 59.51 55.66 7.73
22521 27.5180 64.57 54.34 8.01
22522 27.5190 64.94 53.15 8.06
22523 27.5200 72.32 52.07 8.58
22524 27.5210 61.14 51.09 7.92
22525 27.5220 41.48 50.20 6.52
22526 27.5230 60.90 49.39 7.84
22527 27.5240 61.81 48.64 7.89
22528 27.5250 47.88 47.95 6.93
22529 27.5260 62.08 47.31 7.93
22530 27.5270 56.02 46.73 7.49
22531 27.5280 46.12 46.18 6.76
22532 27.5290 55.78 45.68 7.44
22533 27.5300 38.96 45.21 6.32
22534 27.5310 40.82 44.77 6.50
22535 27.5320 40.77 44.37 6.44
22536 27.5330 36.43 43.99 6.07
22537 27.5340 49.79 43.64 7.09
22538 27.5350 41.04 43.31 6.42
22539 27.5360 49.65 43.00 7.08
22540 27.5370 47.47 42.71 6.91
22541 27.5380 36.12 42.45 6.00
22542 27.5390 46.38 42.20 6.79
22543 27.5400 40.63 41.96 6.44
22544 27.5410 31.02 41.74 5.68
22545 27.5420 54.71 41.54 7.46
22546 27.5430 46.55 41.35 6.87
22547 27.5440 42.82 41.12 6.56
22548 27.5450 41.97 40.96 6.50
22549 27.5460 43.57 40.81 6.64
22550 27.5470 42.18 40.67 6.50
22551 27.5480 42.24 40.51 6.48
22552 27.5490 36.31 40.39 6.04
22553 27.5500 46.49 40.28 6.86
22554 27.5510 45.08 40.18 6.82
22555 27.5520 41.69 40.08 6.49
22556 27.5530 55.50 40.00 7.47
22557 27.5540 34.34 39.92 5.88
22558 27.5550 41.90 39.86 6.49
22559 27.5560 42.17 39.80 6.51
22560 27.5570 41.20 39.75 6.44
22561 27.5580 38.64 39.71 6.20
22562 27.5590 38.79 39.67 6.24
22563 27.5600 35.07 39.64 5.98
22564 27.5610 42.31 39.63 6.59
22565 27.5620 43.61 39.61 6.67
22566 27.5630 42.83 39.61 6.57
22567 27.5640 47.55 39.61 6.93
22568 27.5650 40.94 39.62 6.43
22569 27.5660 38.60 39.64 6.24
22570 27.5670 30.30 39.67 5.52
22571 27.5680 42.58 39.71 6.51
22572 27.5690 53.77 39.75 7.35
22573 27.5700 47.50 39.80 6.98
22574 27.5710 51.61 39.87 7.30
22575 27.5720 50.50 39.94 7.17
22576 27.5730 49.45 40.02 7.07
22577 27.5740 39.06 40.11 6.26
22578 27.5750 41.27 40.21 6.45
22579 27.5760 42.32 40.32 6.53
22580 27.5770 49.29 40.44 7.00
22581 27.5780 49.93 40.58 7.06
22582 27.5790 41.73 40.73 6.47
22583 27.5800 45.25 40.89 6.79
22584 27.5810 37.94 41.07 6.27
22585 27.5820 35.22 41.26 6.03
22586 27.5830 44.78 41.47 6.73
22587 27.5840 42.58 41.69 6.56
22588 27.5850 60.25 41.94 7.80
22589 27.5860 49.24 42.20 7.07
22590 27.5870 41.50 42.49 6.44
22591 27.5880 38.46 42.80 6.17
22592 27.5890 49.45 43.13 7.04
22593 27.5900 44.75 43.50 6.78
22594 27.5910 60.33 43.89 7.88
22595 27.5920 57.93 44.32 7.69
22596 27.5930 54.30 44.79 7.40
22597 27.5940 57.74 45.29 7.64
22598 27.5950 62.03 45.84 7.93
22599 27.5960 50.22 46.44 7.12
22600 27.5970 49.89 47.09 7.05
22601 27.5980 40.44 47.80 6.34
22602 27.5990 54.15 48.58 7.36
22603 27.6000 46.46 49.44 6.88
22604 27.6010 50.43 50.38 7.24
22605 27.6020 48.01 51.41 7.01
22606 27.6030 61.27 52.56 7.89
22607 27.6040 62.77 53.82 7.94
22608 27.6050 54.79 55.23 7.43
22609 27.6060 68.65 56.79 8.38
22610 27.6070 81.21 58.54 9.04
22611 27.6080 76.65 60.51 8.76
22612 27.6090 73.17 62.74 8.56
22613 27.6100 72.68 65.26 8.62
22614 27.6110 88.43 68.15 9.59
22615 27.6120 96.54 71.48 9.91
22616 27.6130 79.02 75.35 8.92
22617 27.6140 103.18 79.89 10.16
22618 27.6150 111.42 85.27 10.60
22619 27.6160 114.62 91.66 10.77
22620 27.6170 117.50 99.33 10.82
22621 27.6180 92.99 108.58 9.65
22622 27.6190 135.31 119.70 11.64
22623 27.6200 143.64 133.08 12.07
22624 27.6210 169.73 149.14 13.22
22625 27.6220 160.13 168.26 12.73
22626 27.6230 175.36 190.78 13.25
22627 27.6240 206.17 216.85 14.31
22628 27.6250 232.97 246.47 15.28
22629 27.6260 285.47 279.01 16.93
22630 27.6270 317.77 313.04 17.87
22631 27.6280 324.93 346.21 17.99
22632 27.6290 342.53 375.25 18.45
22633 27.6300 368.55 396.26 19.41
22634 27.6310 366.94 406.43 19.45
22635 27.6320 394.81 404.51 20.00
22636 27.6330 384.09 391.15 19.55
22637 27.6340 358.89 368.41 19.01
22638 27.6350 336.53 339.12 18.42
22639 27.6360 331.51 306.47 18.28
22640 27.6370 285.59 273.32 16.86
22641 27.6380 231.02 241.67 15.15
22642 27.6390 244.04 212.83 15.62
22643 27.6400 187.12 187.43 13.80
22644 27.6410 142.88 165.45 12.10
22645 27.6420 164.24 146.80 12.96
22646 27.6430 158.62 131.10 12.61
22647 27.6440 126.46 117.98 11.30
22648 27.6450 117.41 107.08 10.85
22649 27.6460 114.84 98.00 10.78
22650 27.6470 76.44 90.46 8.73
22651 27.6480 94.98 84.16 9.70
22652 27.6490 98.05 78.85 9.90
22653 27.6500 76.17 74.35 8.80
22654 27.6510 88.83 70.51 9.55
22655 27.6520 78.10 67.19 8.94
22656 27.6530 56.44 64.31 7.58
22657 27.6540 55.29 61.79 7.47
22658 27.6550 73.30 59.57 8.60
22659 27.6560 51.49 57.59 7.24
22660 27.6570 57.22 55.83 7.58
22661 27.6580 62.55 54.25 7.89
22662 27.6590 49.26 52.83 7.03
22663 27.6600 51.09 51.55 7.23
22664 27.6610 52.35 50.38 7.36
22665 27.6620 49.52 49.32 7.12
22666 27.6630 61.94 48.36 7.89
22667 27.6640 66.89 47.47 8.22
22668 27.6650 68.60 46.67 8.28
22669 27.6660 57.47 45.92 7.62
22670 27.6670 46.21 45.24 6.81
22671 27.6680 57.79 44.61 7.59
22672 27.6690 56.03 44.02 7.50
22673 27.6700 49.92 43.48 7.13
22674 27.6710 43.47 42.98 6.71
22675 27.6720 54.82 42.51 7.46
22676 27.6730 38.92 42.07 6.25
22677 27.6740 41.65 41.67 6.47
22678 27.6750 42.64 41.29 6.55
22679 27.6760 45.69 40.93 6.79
22680 27.6770 46.52 40.60 6.84
22681 27.6780 51.00 40.29 7.14
22682 27.6790 45.62 40.00 6.80
22683 27.6800 58.76 39.72 7.74
22684 27.6810 51.74 39.46 7.29
22685 27.6820 55.68 39.21 7.50
22686 27.6830 47.68 38.98 6.93
22687 27.6840 46.67 38.76 6.85
22688 27.6850 44.95 38.56 6.72
22689 27.6860 54.96 38.36 7.48
22690 27.6870 38.96 38.18 6.25
22691 27.6880 34.88 38.00 5.90
22692 27.6890 37.14 37.83 6.10
22693 27.6900 53.92 37.67 7.43
22694 27.6910 32.69 37.52 5.82
22695 27.6920 44.73 37.38 6.74
22696 27.6930 56.73 37.24 7.55
22697 27.6940 47.89 37.11 6.93
22698 27.6950 34.57 36.98 5.91
22699 27.6960 36.81 36.86 6.07
22700 27.6970 47.28 36.75 6.85
22701 27.6980 36.35 36.64 6.01
22702 27.6990 28.30 36.54 5.35
22703 27.7000 41.49 36.44 6.49
22704 27.7010 41.73 36.34 6.56
22705 27.7020 37.13 36.25 6.17
22706 27.7030 42.78 36.16 6.58
22707 27.7040 46.95 36.08 6.85
22708 27.7050 44.10 36.00 6.65
22709 27.7060 38.58 35.92 6.24
22710 27.7070 50.86 35.84 7.13
22711 27.7080 43.57 35.77 6.57
22712 27.7090 47.96 35.70 6.92
22713 27.7100 44.07 35.63 6.70
22714 27.7110 37.10 35.57 6.19
22715 27.7120 36.05 35.51 6.06
22716 27.7130 45.80 35.45 6.78
22717 27.7140 35.36 35.39 5.98
22718 27.7150 48.90 35.34 7.02
22719 27.7160 45.89 35.28 6.83
22720 27.7170 52.07 35.23 7.19
22721 27.7180 53.05 35.18 7.29
22722 27.7190 33.97 35.13 5.86
22723 27.7200 44.94 35.09 6.80
22724 27.7210 39.98 35.04 6.42
22725 27.7220 44.52 35.00 6.73
22726 27.7230 40.69 34.96 6.41
22727 27.7240 42.67 34.92 6.58
22728 27.7250 34.73 34.88 5.93
22729 27.7260 45.08 34.84 6.75
22730 27.7270 36.49 34.80 6.07
22731 27.7280 44.46 34.77 6.65
22732 27.7290 39.34 34.73 6.30
22733 27.7300 32.01 34.70 5.72
22734 27.7310 34.18 34.67 5.97
22735 27.7320 30.29 34.63 5.58
22736 27.7330 49.52 34.60 7.06
22737 27.7340 50.31 34.57 7.12
22738 27.7350 35.55 34.54 6.00
22739 27.7360 43.03 34.52 6.63
22740 27.7370 43.71 34.49 6.62
22741 27.7380 47.91 34.46 6.88
22742 27.7390 53.73 34.44 7.36
22743 27.7400 49.00 34.41 7.11
22744 27.7410 36.21 34.39 6.12
22745 27.7420 44.53 34.36 6.75
22746 27.7430 49.33 34.34 7.06
22747 27.7440 37.84 34.32 6.18
22748 27.7450 44.64 34.30 6.71
22749 27.7460 37.16 34.28 6.16
22750 27.7470 43.97 34.26 6.62
22751 27.7480 39.65 34.24 6.28
22752 27.7490 42.72 34.22 6.54
22753 27.7500 33.27 34.20 5.84
22754 27.7510 39.42 34.18 6.39
22755 27.7520 37.02 34.16 6.18
22756 27.7530 43.88 34.15 6.65
22757 27.7540 33.09 34.13 5.78
22758 27.7550 34.17 34.11 5.88
22759 27.7560 40.96 34.10 6.45
22760 27.7570 30.87 34.08 5.56
22761 27.7580 33.37 34.07 5.76
22762 27.7590 40.26 34.05 6.37
22763 27.7600 43.26 34.04 6.66
22764 27.7610 45.56 34.02 6.85
22765 27.7620 45.55 34.01 6.82
22766 27.7630 49.43 34.00 7.06
22767 27.7640 43.86 33.98 6.64
22768 27.7650 39.90 33.97 6.35
22769 27.7660 45.70 33.96 6.81
22770 27.7670 43.29 33.95 6.58
22771 27.7680 48.38 33.93 6.93
22772 27.7690 39.26 33.92 6.28
22773 27.7700 37.14 33.91 6.16
22774 27.7710 50.72 33.90 7.23
22775 27.7720 43.81 33.89 6.67
22776 27.7730 41.94 33.88 6.48
22777 27.7740 53.90 33.87 7.35
22778 27.7750 38.37 33.86 6.25
22779 27.7760 45.44 33.85 6.79
22780 27.7770 49.14 33.84 6.99
22781 27.7780 40.24 33.83 6.32
22782 27.7790 50.24 33.82 7.10
22783 27.7800 45.03 33.81 6.80
22784 27.7810 45.84 33.80 6.87
22785 27.7820 41.46 33.79 6.51
22786 27.7830 36.01 33.79 6.04
22787 27.7840 43.04 33.78 6.58
22788 27.7850 47.88 33.77 6.94
22789 27.7860 32.36 33.77 5.73
22790 27.7870 38.23 33.76 6.21
22791 27.7880 44.34 33.75 6.66
22792 27.7890 37.60 33.75 6.15
22793 27.7900 37.31 33.74 6.20
22794 27.7910 38.80 33.73 6.33
22795 27.7920 42.14 33.73 6.57
22796 27.7930 43.24 33.72 6.61
22797 27.7940 36.19 33.72 6.04
22798 27.7950 28.49 33.71 5.38
22799 27.7960 48.84 33.70 7.03
22800 27.7970 39.50 33.70 6.29
22801 27.7980 41.57 33.69 6.45
22802 27.7990 30.93 33.69 5.60
22803 27.8000 38.23 33.68 6.29
22804 27.8010 53.83 33.68 7.45
22805 27.8020 31.30 33.67 5.67
22806 27.8030 44.05 33.67 6.68
22807 27.8040 42.55 33.66 6.55
22808 27.8050 46.52 33.66 6.84
22809 27.8060 40.84 33.66 6.43
22810 27.8070 46.29 33.65 6.81
22811 27.8080 39.35 33.65 6.29
22812 27.8090 32.24 33.64 5.71
22813 27.8100 40.68 33.64 6.47
22814 27.8110 44.23 33.64 6.76
22815 27.8120 39.55 33.63 6.37
22816 27.8130 45.30 33.63 6.79
22817 27.8140 36.74 33.63 6.10
22818 27.8150 44.99 33.62 6.74
22819 27.8160 38.18 33.62 6.23
22820 27.8170 35.40 33.62 5.96
22821 27.8180 33.74 33.62 5.81
22822 27.8190 45.29 33.61 6.76
22823 27.8200 31.48 33.61 5.69
22824 27.8210 35.18 33.61 6.04
22825 27.8220 43.80 33.60 6.68
22826 27.8230 28.65 33.60 5.40
22827 27.8240 31.35 33.60 5.63
22828 27.8250 37.90 33.60 6.19
22829 27.8260 39.82 33.60 6.38
22830 27.8270 35.70 33.59 6.00
22831 27.8280 39.63 33.59 6.31
22832 27.8290 48.27 33.59 6.96
22833 27.8300 44.32 33.59 6.73
22834 27.8310 39.02 33.59 6.37
22835 27.8320 38.45 33.58 6.27
22836 27.8330 35.97 33.58 6.05
22837 27.8340 29.79 33.56 5.51
22838 27.8350 41.12 33.56 6.46
22839 27.8360 44.35 33.56 6.70
22840 27.8370 37.32 33.56 6.14
22841 27.8380 31.64 33.56 5.64
22842 27.8390 38.46 33.56 6.23
22843 27.8400 40.35 33.51 6.42
22844 27.8410 25.60 33.51 5.18
22845 27.8420 38.34 33.51 6.28
22846 27.8430 35.16 33.51 5.97
22847 27.8440 40.65 33.51 6.42
22848 27.8450 40.69 33.51 6.42
22849 27.8460 41.07 33.51 6.46
22850 27.8470 45.63 33.51 6.75
22851 27.8480 36.36 33.51 6.01
22852 27.8490 28.73 33.51 5.38
22853 27.8500 36.33 33.51 6.13
22854 27.8510 30.76 33.51 5.66
22855 27.8520 52.85 33.51 7.36
22856 27.8530 36.51 33.51 6.10
22857 27.8540 37.40 33.51 6.18
22858 27.8550 36.51 33.51 6.07
22859 27.8560 38.03 33.51 6.22
22860 27.8570 43.12 33.51 6.58
22861 27.8580 34.80 33.51 5.91
22862 27.8590 34.71 33.51 5.93
22863 27.8600 38.68 33.51 6.31
22864 27.8610 36.09 33.51 6.13
22865 27.8620 47.48 33.51 6.96
22866 27.8630 43.13 33.51 6.60
22867 27.8640 49.96 33.52 7.10
22868 27.8650 43.47 33.52 6.62
22869 27.8660 46.54 33.52 6.88
22870 27.8670 41.66 33.52 6.49
22871 27.8680 41.91 33.52 6.48
22872 27.8690 36.64 33.52 6.09
22873 27.8700 37.64 33.52 6.21
22874 27.8710 40.53 33.52 6.50
22875 27.8720 33.56 33.53 5.86
22876 27.8730 44.76 33.53 6.73
22877 27.8740 34.57 33.53 5.91
22878 27.8750 34.25 33.53 5.91
22879 27.8760 44.46 33.53 6.72
22880 27.8770 36.79 33.54 6.10
22881 27.8780 37.81 33.54 6.15
22882 27.8790 46.53 33.54 6.87
22883 27.8800 39.67 33.54 6.36
22884 27.8810 39.31 33.55 6.40
22885 27.8820 42.24 33.55 6.57
22886 27.8830 40.27 33.56 6.41
22887 27.8840 42.12 33.56 6.55
22888 27.8850 43.11 33.57 6.61
22889 27.8860 39.12 33.58 6.31
22890 27.8870 43.19 33.58 6.58
22891 27.8880 46.65 33.60 6.83
22892 27.8890 42.14 33.56 6.51
22893 27.8900 42.90 33.58 6.62
22894 27.8910 35.70 33.59 6.09
22895 27.8920 38.53 33.61 6.29
22896 27.8930 33.49 33.63 5.84
22897 27.8940 43.15 33.66 6.59
22898 27.8950 35.24 33.64 5.96
22899 27.8960 36.67 33.62 6.11
22900 27.8970 51.12 33.63 7.17
22901 27.8980 43.94 33.64 6.60
22902 27.8990 48.84 33.65 7.01
22903 27.9000 42.27 33.64 6.59
22904 27.9010 38.46 33.62 6.31
22905 27.9020 35.50 33.61 6.05
22906 27.9030 30.94 33.59 5.60
22907 27.9040 34.33 33.57 5.91
22908 27.9050 39.22 33.55 6.30
22909 27.9060 33.92 33.54 5.86
22910 27.9070 34.19 33.53 5.86
22911 27.9080 44.14 33.52 6.63
22912 27.9090 33.26 33.51 5.80
22913 27.9100 41.15 33.50 6.48
22914 27.9110 39.63 33.49 6.41
22915 27.9120 46.55 33.49 6.88
22916 27.9130 38.48 33.48 6.25
22917 27.9140 36.38 33.48 6.05
22918 27.9150 34.25 33.48 5.88
22919 27.9160 39.89 33.48 6.38
22920 27.9170 46.21 33.48 6.80
22921 27.9180 32.19 33.48 5.68
22922 27.9190 34.08 33.48 5.88
22923 27.9200 33.85 33.48 5.87
22924 27.9210 42.27 33.49 6.60
22925 27.9220 39.46 33.49 6.34
22926 27.9230 30.08 33.49 5.52
22927 27.9240 45.93 33.49 6.81
22928 27.9250 42.21 33.49 6.54
22929 27.9260 43.38 33.49 6.63
22930 27.9270 29.62 33.50 5.48
22931 27.9280 30.40 33.50 5.51
22932 27.9290 34.86 33.50 5.92
22933 27.9300 40.59 33.50 6.45
22934 27.9310 38.79 33.51 6.32
22935 27.9320 32.52 33.51 5.76
22936 27.9330 42.30 33.51 6.54
22937 27.9340 44.23 33.51 6.70
22938 27.9350 49.45 33.52 7.09
22939 27.9360 32.33 33.52 5.75
22940 27.9370 35.90 33.52 6.00
22941 27.9380 32.15 33.53 5.69
22942 27.9390 31.49 33.53 5.62
22943 27.9400 30.17 33.54 5.57
22944 27.9410 34.96 33.54 6.01
22945 27.9420 47.14 33.54 6.94
22946 27.9430 47.32 33.54 6.92
22947 27.9440 42.45 33.55 6.54
22948 27.9450 45.23 33.55 6.76
22949 27.9460 42.97 33.55 6.59
22950 27.9470 50.90 33.56 7.14
22951 27.9480 43.13 33.56 6.54
22952 27.9490 46.51 33.56 6.84
22953 27.9500 42.80 33.57 6.61
22954 27.9510 39.78 33.57 6.42
22955 27.9520 42.11 33.57 6.54
22956 27.9530 45.22 33.57 6.76
22957 27.9540 33.22 33.58 5.79
22958 27.9550 37.87 33.58 6.17
22959 27.9560 28.38 33.58 5.38
22960 27.9570 33.26 33.59 5.76
22961 27.9580 39.26 33.59 6.26
22962 27.9590 41.03 33.59 6.42
22963 27.9600 38.45 33.60 6.29
22964 27.9610 36.43 33.60 6.15
22965 27.9620 36.69 33.60 6.13
22966 27.9630 38.76 33.61 6.25
22967 27.9640 46.99 33.61 6.87
22968 27.9650 33.12 33.61 5.78
22969 27.9660 35.21 33.62 5.96
22970 27.9670 37.25 33.62 6.13
22971 27.9680 46.52 33.62 6.82
22972 27.9690 47.70 33.63 6.92
22973 27.9700 32.88 33.63 5.80
22974 27.9710 42.14 33.63 6.60
22975 27.9720 40.76 33.64 6.44
22976 27.9730 47.92 33.64 6.96
22977 27.9740 44.37 33.65 6.66
22978 27.9750 40.40 33.65 6.39
22979 27.9760 53.57 33.65 7.37
22980 27.9770 29.71 33.66 5.49
22981 27.9780 33.63 33.66 5.80
22982 27.9790 38.54 33.66 6.23
22983 27.9800 32.95 33.67 5.81
22984 27.9810 36.19 33.67 6.12
22985 27.9820 31.63 33.67 5.68
22986 27.9830 44.76 33.68 6.71
22987 27.9840 35.33 33.68 5.98
22988 27.9850 41.03 33.69 6.46
22989 27.9860 32.79 33.69 5.78
22990 27.9870 28.67 33.69 5.40
22991 27.9880 36.36 33.70 6.03
22992 27.9890 38.51 33.70 6.24
22993 27.9900 34.26 33.70 5.94
22994 27.9910 40.99 33.71 6.50
22995 27.9920 32.34 33.71 5.78
22996 27.9930 28.24 33.72 5.37
22997 27.9940 44.61 33.72 6.71
22998 27.9950 37.76 33.72 6.20
22999 27.9960 46.38 33.73 6.83
23000 27.9970 43.00 33.73 6.58
23001 27.9980 42.30 33.73 6.48
23002 27.9990 32.04 33.74 5.72
23003 28.0000 30.83 33.74 5.64
23004 28.0010 43.41 33.75 6.74
23005 28.0020 45.44 33.75 6.83
23006 28.0030 38.14 33.75 6.22
23007 28.0040 49.49 33.76 7.07
23008 28.0050 43.80 33.76 6.64
23009 28.0060 39.86 33.77 6.37
23010 28.0070 45.12 33.77 6.74
23011 28.0080 46.10 33.77 6.78
23012 28.0090 39.88 33.78 6.36
23013 28.0100 29.08 33.78 5.49
23014 28.0110 45.57 33.79 6.88
23015 28.0120 43.91 33.79 6.69
23016 28.0130 34.71 33.79 5.93
23017 28.0140 39.01 33.80 6.26
23018 28.0150 38.98 33.80 6.29
23019 28.0160 39.48 33.81 6.34
23020 28.0170 48.05 33.81 6.96
23021 28.0180 37.66 33.81 6.15
23022 28.0190 38.18 33.82 6.23
23023 28.0200 28.47 33.82 5.43
23024 28.0210 29.09 33.83 5.52
23025 28.0220 29.17 33.83 5.46
23026 28.0230 48.65 33.83 7.03
23027 28.0240 42.79 33.84 6.60
23028 28.0250 44.92 33.84 6.72
23029 28.0260 40.35 33.85 6.42
23030 28.0270 31.81 33.85 5.67
23031 28.0280 36.08 33.86 6.01
23032 28.0290 43.40 33.86 6.59
23033 28.0300 42.62 33.86 6.60
23034 28.0310 33.54 33.87 5.90
23035 28.0320 39.80 33.87 6.41
23036 28.0330 36.43 33.88 6.09
23037 28.0340 33.76 33.88 5.88
23038 28.0350 40.26 33.89 6.40
23039 28.0360 39.03 33.89 6.33
23040 28.0370 39.81 33.89 6.31
23041 28.0380 33.22 33.90 5.77
23042 28.0390 30.97 33.90 5.61
23043 28.0400 30.95 33.91 5.65
23044 28.0410 35.54 33.91 6.07
23045 28.0420 33.82 33.92 5.90
23046 28.0430 47.70 33.86 6.94
23047 28.0440 46.19 33.87 6.82
23048 28.0450 24.90 33.87 5.03
23049 28.0460 31.61 33.84 5.68
23050 28.0470 43.63 33.85 6.60
23051 28.0480 45.03 33.85 6.73
23052 28.0490 38.61 33.86 6.24
23053 28.0500 33.36 33.86 5.86
23054 28.0510 34.45 33.87 5.98
23055 28.0520 32.10 33.87 5.74
23056 28.0530 39.73 33.88 6.32
23057 28.0540 47.70 33.88 6.93
23058 28.0550 36.08 33.89 6.05
23059 28.0560 43.69 33.89 6.64
23060 28.0570 46.33 33.90 6.83
23061 28.0580 45.76 33.90 6.79
23062 28.0590 30.64 33.91 5.57
23063 28.0600 42.21 33.91 6.60
23064 28.0610 42.59 33.92 6.65
23065 28.0620 47.94 33.92 6.99
23066 28.0630 35.75 33.93 6.03
23067 28.0640 37.46 33.94 6.16
23068 28.0650 38.77 33.94 6.26
23069 28.0660 46.01 33.95 6.84
23070 28.0670 44.77 33.95 6.69
23071 28.0680 33.22 33.96 5.77
23072 28.0690 35.63 33.96 6.00
23073 28.0700 45.82 33.97 6.84
23074 28.0710 38.48 33.97 6.31
23075 28.0720 37.85 33.98 6.22
23076 28.0730 45.45 33.99 6.79
23077 28.0740 29.14 33.99 5.43
23078 28.0750 30.44 34.00 5.58
23079 28.0760 41.85 34.00 6.55
23080 28.0770 48.09 34.01 6.95
23081 28.0780 35.94 34.02 6.00
23082 28.0790 32.26 34.02 5.71
23083 28.0800 41.22 34.03 6.48
23084 28.0810 40.49 34.04 6.49
23085 28.0820 51.10 34.04 7.20
23086 28.0830 46.32 34.05 6.86
23087 28.0840 34.34 34.06 5.90
23088 28.0850 34.81 34.07 5.96
23089 28.0860 38.68 34.08 6.26
23090 28.0870 42.45 34.09 6.53
23091 28.0880 31.88 34.10 5.66
23092 28.0890 44.72 34.11 6.70
23093 28.0900 42.97 34.13 6.64
23094 28.0910 49.50 34.14 7.14
23095 28.0920 39.41 34.16 6.36
23096 28.0930 37.58 34.18 6.18
23097 28.0940 34.70 34.20 5.93
23098 28.0950 37.29 34.22 6.15
23099 28.0960 38.19 34.24 6.24
23100 28.0970 33.42 34.25 5.81
23101 28.0980 29.37 34.27 5.42
23102 28.0990 36.18 34.28 6.07
23103 28.1000 36.08 34.28 6.10
23104 28.1010 33.23 34.28 5.89
23105 28.1020 32.11 34.27 5.74
23106 28.1030 32.18 34.26 5.72
23107 28.1040 33.39 34.26 5.80
23108 28.1050 25.25 34.25 5.06
23109 28.1060 41.59 34.24 6.48
23110 28.1070 36.93 34.23 6.12
23111 28.1080 42.70 34.23 6.51
23112 28.1090 40.20 34.23 6.36
23113 28.1100 48.89 34.22 7.07
23114 28.1110 39.11 34.22 6.35
23115 28.1120 38.11 34.23 6.22
23116 28.1130 30.45 34.23 5.54
23117 28.1140 46.88 34.23 6.84
23118 28.1150 37.56 34.23 6.15
23119 28.1160 38.29 34.24 6.23
23120 28.1170 34.41 34.24 5.88
23121 28.1180 48.25 34.24 6.93
23122 28.1190 37.03 34.25 6.10
23123 28.1200 38.56 34.25 6.28
23124 28.1210 47.89 34.26 7.03
23125 28.1220 41.22 34.27 6.48
23126 28.1230 29.64 34.27 5.49
23127 28.1240 38.61 34.28 6.24
23128 28.1250 42.70 34.28 6.57
23129 28.1260 41.62 34.29 6.50
23130 28.1270 36.24 34.29 6.03
23131 28.1280 39.43 34.30 6.25
23132 28.1290 32.40 34.31 5.70
23133 28.1300 42.96 34.31 6.59
23134 28.1310 45.05 34.32 6.79
23135 28.1320 54.48 34.33 7.41
23136 28.1330 41.19 34.33 6.45
23137 28.1340 30.80 34.34 5.57
23138 28.1350 36.00 34.35 6.05
23139 28.1360 37.31 34.36 6.16
23140 28.1370 44.39 34.36 6.63
23141 28.1380 53.13 34.37 7.26
23142 28.1390 37.23 34.38 6.08
23143 28.1400 43.91 34.39 6.69
23144 28.1410 32.39 34.40 5.78
23145 28.1420 36.23 34.40 6.09
23146 28.1430 34.94 34.41 5.93
23147 28.1440 35.13 34.42 5.96
23148 28.1450 30.16 34.43 5.52
23149 28.1460 33.71 34.44 5.82
23150 28.1470 36.50 34.45 6.05
23151 28.1480 34.96 34.46 5.94
23152 28.1490 47.59 34.47 6.91
23153 28.1500 46.88 34.48 6.93
23154 28.1510 40.32 34.49 6.44
23155 28.1520 30.92 34.50 5.62
23156 28.1530 31.34 34.51 5.61
23157 28.1540 42.77 34.52 6.52
23158 28.1550 32.71 34.53 5.73
23159 28.1560 46.91 34.55 6.88
23160 28.1570 38.05 34.56 6.17
23161 28.1580 35.49 34.57 5.97
23162 28.1590 39.66 34.59 6.35
23163 28.1600 31.28 34.60 5.68
23164 28.1610 48.05 34.62 7.05
23165 28.1620 33.88 34.63 5.87
23166 28.1630 49.63 34.65 7.07
23167 28.1640 32.29 34.67 5.69
23168 28.1650 41.77 34.69 6.49
23169 28.1660 34.40 34.71 5.91
23170 28.1670 41.76 34.73 6.45
23171 28.1680 46.12 34.75 6.78
23172 28.1690 33.04 34.77 5.79
23173 28.1700 50.11 34.80 7.14
23174 28.1710 39.80 34.83 6.38
23175 28.1720 35.75 34.86 6.05
23176 28.1730 43.61 34.89 6.66
23177 28.1740 41.51 34.93 6.45
23178 28.1750 46.42 34.97 6.83
23179 28.1760 41.73 35.01 6.49
23180 28.1770 41.23 35.06 6.42
23181 28.1780 48.56 35.11 6.94
23182 28.1790 35.01 35.17 5.93
23183 28.1800 39.42 35.24 6.35
23184 28.1810 51.77 35.32 7.33
23185 28.1820 32.25 35.41 5.73
23186 28.1830 37.70 35.52 6.18
23187 28.1840 39.47 35.64 6.33
23188 28.1850 35.75 35.78 6.01
23189 28.1860 41.88 35.95 6.51
23190 28.1870 50.27 36.16 7.09
23191 28.1880 35.39 36.41 5.92
23192 28.1890 53.49 36.70 7.33
23193 28.1900 45.75 37.04 6.83
23194 28.1910 48.80 37.46 7.11
23195 28.1920 41.13 37.93 6.48
23196 28.1930 42.53 38.48 6.55
23197 28.1940 47.23 39.09 6.89
23198 28.1950 53.68 39.76 7.33
23199 28.1960 42.13 40.44 6.52
23200 28.1970 47.41 41.08 6.90
23201 28.1980 46.68 41.63 6.83
23202 28.1990 48.09 42.02 6.92
23203 28.2000 39.01 42.19 6.34
23204 28.2010 39.34 42.12 6.37
23205 28.2020 35.57 41.83 6.03
23206 28.2030 50.61 41.35 7.11
23207 28.2040 42.58 40.74 6.51
23208 28.2050 42.66 40.08 6.55
23209 28.2060 39.63 39.42 6.32
23210 28.2070 41.41 38.79 6.44
23211 28.2080 35.82 38.23 5.98
23212 28.2090 37.00 37.74 6.14
23213 28.2100 40.25 37.31 6.44
23214 28.2110 43.76 36.96 6.73
23215 28.2120 50.38 36.65 7.14
23216 28.2130 33.97 36.40 5.85
23217 28.2140 33.84 36.20 5.82
23218 28.2150 54.60 36.02 7.42
23219 28.2160 41.82 35.88 6.50
23220 28.2170 45.80 35.76 6.76
23221 28.2180 33.83 35.66 5.81
23222 28.2190 38.76 35.58 6.24
23223 28.2200 36.42 35.51 6.09
23224 28.2210 35.98 35.45 6.10
23225 28.2220 36.17 35.40 6.08
23226 28.2230 33.44 35.36 5.83
23227 28.2240 40.48 35.32 6.38
23228 28.2250 42.55 35.29 6.57
23229 28.2260 30.40 35.26 5.57
23230 28.2270 37.56 35.23 6.13
23231 28.2280 41.79 35.21 6.43
23232 28.2290 42.16 35.19 6.50
23233 28.2300 36.63 35.18 6.12
23234 28.2310 39.96 35.16 6.42
23235 28.2320 30.76 35.15 5.62
23236 28.2330 42.05 35.14 6.54
23237 28.2340 44.62 35.14 6.72
23238 28.2350 46.63 35.13 6.87
23239 28.2360 39.79 35.13 6.35
23240 28.2370 40.53 35.12 6.37
23241 28.2380 42.80 35.12 6.52
23242 28.2390 43.88 35.12 6.63
23243 28.2400 53.47 35.11 7.40
23244 28.2410 26.59 35.11 5.26
23245 28.2420 38.11 35.10 6.24
23246 28.2430 38.71 35.10 6.26
23247 28.2440 40.93 35.10 6.42
23248 28.2450 52.65 35.10 7.28
23249 28.2460 34.28 35.09 5.90
23250 28.2470 38.53 35.09 6.24
23251 28.2480 29.28 35.09 5.41
23252 28.2490 30.16 35.09 5.53
23253 28.2500 40.96 35.09 6.48
23254 28.2510 44.84 35.10 6.81
23255 28.2520 45.67 35.10 6.84
23256 28.2530 44.11 35.10 6.68
23257 28.2540 54.72 35.10 7.38
23258 28.2550 32.73 35.11 5.74
23259 28.2560 43.13 35.11 6.62
23260 28.2570 34.73 35.12 5.90
23261 28.2580 43.27 35.12 6.60
23262 28.2590 30.93 35.12 5.60
23263 28.2600 40.85 35.13 6.51
23264 28.2610 46.00 35.13 6.88
23265 28.2620 42.62 35.14 6.58
23266 28.2630 50.19 35.15 7.10
23267 28.2640 39.57 35.18 6.28
23268 28.2650 29.19 35.18 5.42
23269 28.2660 48.33 35.19 6.98
23270 28.2670 34.30 35.20 5.87
23271 28.2680 36.60 35.20 6.06
23272 28.2690 41.94 35.24 6.50
23273 28.2700 46.34 35.24 6.86
23274 28.2710 46.57 35.28 6.94
23275 28.2720 37.04 35.28 6.16
23276 28.2730 35.66 35.29 6.02
23277 28.2740 39.17 35.30 6.29
23278 28.2750 47.03 35.31 6.90
23279 28.2760 44.92 35.32 6.75
23280 28.2770 38.06 35.33 6.17
23281 28.2780 41.01 35.34 6.37
23282 28.2790 38.18 35.35 6.18
23283 28.2800 47.80 35.36 6.97
23284 28.2810 41.96 35.37 6.55
23285 28.2820 49.06 35.38 7.09
23286 28.2830 43.93 35.39 6.68
23287 28.2840 25.04 35.40 5.04
23288 28.2850 44.48 35.41 6.73
23289 28.2860 42.17 35.42 6.53
23290 28.2870 47.61 35.43 6.87
23291 28.2880 45.64 35.44 6.72
23292 28.2890 46.36 35.46 6.79
23293 28.2900 36.94 35.47 6.15
23294 28.2910 49.99 35.48 7.18
23295 28.2920 38.40 35.50 6.27
23296 28.2930 32.62 35.51 5.76
23297 28.2940 34.82 35.53 5.95
23298 28.2950 43.41 35.54 6.60
23299 28.2960 44.84 35.56 6.73
23300 28.2970 38.53 35.57 6.23
23301 28.2980 43.00 35.59 6.55
23302 28.2990 50.66 35.61 7.11
23303 28.3000 43.02 35.62 6.64
23304 28.3010 31.15 35.64 5.69
23305 28.3020 31.71 35.66 5.70
23306 28.3030 39.05 35.68 6.26
23307 28.3040 42.48 35.70 6.50
23308 28.3050 45.44 35.73 6.76
23309 28.3060 42.93 35.75 6.57
23310 28.3070 35.92 35.77 6.00
23311 28.3080 43.38 35.80 6.59
23312 28.3090 41.12 35.83 6.44
23313 28.3100 42.35 35.86 6.59
23314 28.3110 40.82 35.89 6.49
23315 28.3120 48.03 35.92 7.00
23316 28.3130 42.28 35.95 6.52
23317 28.3140 37.40 35.99 6.13
23318 28.3150 42.19 36.03 6.54
23319 28.3160 39.36 36.07 6.32
23320 28.3170 36.10 36.11 6.02
23321 28.3180 39.16 36.16 6.26
23322 28.3190 37.40 36.20 6.13
23323 28.3200 34.33 36.26 5.93
23324 28.3210 44.13 36.31 6.73
23325 28.3220 38.43 36.37 6.28
23326 28.3230 47.58 36.44 6.91
23327 28.3240 31.65 36.51 5.65
23328 28.3250 36.67 36.58 6.09
23329 28.3260 36.21 36.67 6.07
23330 28.3270 43.99 36.76 6.62
23331 28.3280 39.42 36.86 6.24
23332 28.3290 48.31 36.97 6.92
23333 28.3300 37.61 37.10 6.20
23334 28.3310 41.99 37.23 6.57
23335 28.3320 47.21 37.39 6.96
23336 28.3330 52.90 37.56 7.31
23337 28.3340 46.87 37.76 6.87
23338 28.3350 38.59 37.98 6.24
23339 28.3360 37.90 38.24 6.17
23340 28.3370 52.65 38.54 7.23
23341 28.3380 48.04 38.90 6.89
23342 28.3390 35.53 39.31 5.95
23343 28.3400 46.10 39.81 6.83
23344 28.3410 32.02 40.41 5.74
23345 28.3420 38.96 41.12 6.31
23346 28.3430 33.46 41.97 5.80
23347 28.3440 47.30 43.00 6.89
23348 28.3450 44.86 44.21 6.71
23349 28.3460 52.36 45.64 7.22
23350 28.3470 47.40 47.30 6.89
23351 28.3480 51.51 49.20 7.15
23352 28.3490 42.66 51.30 6.53
23353 28.3500 61.22 53.53 7.87
23354 28.3510 54.13 55.76 7.44
23355 28.3520 58.01 57.79 7.65
23356 28.3530 57.12 59.36 7.52
23357 28.3540 57.04 60.26 7.52
23358 28.3550 64.99 60.35 8.04
23359 28.3560 58.23 59.62 7.67
23360 28.3570 48.05 58.21 6.91
23361 28.3580 61.03 56.30 7.80
23362 28.3590 59.10 54.14 7.70
23363 28.3600 55.81 51.93 7.51
23364 28.3610 49.56 49.81 7.12
23365 28.3620 59.79 47.89 7.77
23366 28.3630 46.96 46.18 6.85
23367 28.3640 46.82 44.71 6.82
23368 28.3650 44.37 43.45 6.69
23369 28.3660 48.95 42.39 7.04
23370 28.3670 49.20 41.51 6.99
23371 28.3680 43.62 40.77 6.58
23372 28.3690 48.65 40.16 6.98
23373 28.3700 43.79 39.65 6.69
23374 28.3710 30.27 39.23 5.58
23375 28.3720 44.60 38.87 6.74
23376 28.3730 48.65 38.57 6.97
23377 28.3740 59.78 38.31 7.73
23378 28.3750 34.04 38.09 5.85
23379 28.3760 46.61 37.90 6.83
23380 28.3770 41.70 37.74 6.43
23381 28.3780 40.05 37.59 6.28
23382 28.3790 56.87 37.46 7.49
23383 28.3800 43.88 37.35 6.69
23384 28.3810 38.81 37.25 6.32
23385 28.3820 34.40 37.16 5.92
23386 28.3830 31.93 37.08 5.67
23387 28.3840 34.78 37.01 5.91
23388 28.3850 47.32 36.94 6.90
23389 28.3860 46.80 36.88 6.84
23390 28.3870 27.87 36.83 5.27
23391 28.3880 38.41 36.78 6.16
23392 28.3890 32.65 36.74 5.72
23393 28.3900 37.98 36.70 6.23
23394 28.3910 43.73 36.67 6.71
23395 28.3920 36.58 36.63 6.09
23396 28.3930 42.00 36.60 6.52
23397 28.3940 40.56 36.58 6.38
23398 28.3950 39.69 36.55 6.31
23399 28.3960 32.72 36.53 5.75
23400 28.3970 45.74 36.51 6.76
23401 28.3980 31.65 36.49 5.60
23402 28.3990 35.38 36.48 5.93
23403 28.4000 41.39 36.46 6.48
23404 28.4010 32.23 36.45 5.75
23405 28.4020 38.21 36.44 6.21
23406 28.4030 43.73 36.43 6.62
23407 28.4040 44.64 36.42 6.68
23408 28.4050 44.91 36.41 6.73
23409 28.4060 39.13 36.40 6.28
23410 28.4070 40.52 36.39 6.36
23411 28.4080 35.61 36.39 5.94
23412 28.4090 47.19 36.38 6.88
23413 28.4100 40.98 36.38 6.45
23414 28.4110 41.82 36.37 6.54
23415 28.4120 39.27 36.37 6.28
23416 28.4130 52.71 36.37 7.27
23417 28.4140 32.33 36.36 5.69
23418 28.4150 35.31 36.36 5.97
23419 28.4160 40.56 36.36 6.39
23420 28.4170 41.34 36.36 6.42
23421 28.4180 51.73 36.36 7.17
23422 28.4190 45.22 36.36 6.72
23423 28.4200 39.28 36.36 6.34
23424 28.4210 39.38 36.36 6.36
23425 28.4220 36.83 36.36 6.11
23426 28.4230 36.42 36.36 6.07
23427 28.4240 45.49 36.37 6.75
23428 28.4250 35.69 36.37 5.99
23429 28.4260 41.83 36.37 6.48
23430 28.4270 42.65 36.37 6.52
23431 28.4280 34.80 36.38 5.87
23432 28.4290 45.55 36.38 6.75
23433 28.4300 44.02 36.38 6.70
23434 28.4310 31.13 36.39 5.69
23435 28.4320 44.30 36.39 6.73
23436 28.4330 29.54 36.39 5.46
23437 28.4340 30.91 36.40 5.58
23438 28.4350 36.07 36.40 6.03
23439 28.4360 38.56 36.41 6.22
23440 28.4370 31.92 36.41 5.65
23441 28.4380 47.51 36.42 6.85
23442 28.4390 35.85 36.42 6.00
23443 28.4400 40.85 36.43 6.47
23444 28.4410 37.31 36.43 6.21
23445 28.4420 34.46 36.44 5.91
23446 28.4430 37.66 36.44 6.17
23447 28.4440 40.58 36.45 6.38
23448 28.4450 39.88 36.45 6.34
23449 28.4460 33.75 36.46 5.86
23450 28.4470 43.78 36.47 6.62
23451 28.4480 30.74 36.47 5.55
23452 28.4490 31.11 36.48 5.59
23453 28.4500 43.28 36.48 6.62
23454 28.4510 42.47 36.49 6.60
23455 28.4520 39.38 36.50 6.33
23456 28.4530 42.24 36.50 6.49
23457 28.4540 32.12 36.51 5.69
23458 28.4550 49.16 36.52 7.02
23459 28.4560 40.34 36.53 6.40
23460 28.4570 48.02 36.53 6.94
23461 28.4580 47.24 36.54 6.84
23462 28.4590 52.97 36.55 7.26
23463 28.4600 34.78 36.55 5.97
23464 28.4610 26.40 36.56 5.22
23465 28.4620 36.72 36.57 6.09
23466 28.4630 33.91 36.58 5.84
23467 28.4640 41.85 36.58 6.51
23468 28.4650 41.54 36.59 6.47
23469 28.4660 39.22 36.60 6.28
23470 28.4670 26.77 36.61 5.19
23471 28.4680 29.88 36.62 5.47
23472 28.4690 37.75 36.62 6.15
23473 28.4700 48.83 36.63 7.06
23474 28.4710 32.74 36.64 5.83
23475 28.4720 40.30 36.65 6.43
23476 28.4730 33.50 36.66 5.83
23477 28.4740 41.19 36.67 6.44
23478 28.4750 47.02 36.67 6.86
23479 28.4760 40.77 36.68 6.42
23480 28.4770 35.14 36.69 5.93
23481 28.4780 39.95 36.70 6.30
23482 28.4790 35.58 36.71 5.97
23483 28.4800 33.45 36.72 5.87
23484 28.4810 36.88 36.73 6.19
23485 28.4820 37.92 36.74 6.22
23486 28.4830 41.89 36.75 6.51
23487 28.4840 45.89 36.76 6.79
23488 28.4850 47.92 36.77 6.94
23489 28.4860 41.03 36.78 6.40
23490 28.4870 33.52 36.78 5.78
23491 28.4880 42.90 36.79 6.54
23492 28.4890 42.35 36.80 6.54
23493 28.4900 43.63 36.81 6.67
23494 28.4910 44.60 36.82 6.75
23495 28.4920 36.73 36.83 6.13
23496 28.4930 35.38 36.84 6.00
23497 28.4940 41.06 36.85 6.44
23498 28.4950 36.49 36.86 6.09
23499 28.4960 33.48 36.87 5.83
23500 28.4970 32.16 36.88 5.69
23501 28.4980 47.97 36.89 6.91
23502 28.4990 48.85 36.91 7.01
23503 28.5000 39.36 36.92 6.33
23504 28.5010 42.32 36.93 6.58
23505 28.5020 34.95 36.94 5.96
23506 28.5030 42.43 36.95 6.52
23507 28.5040 41.41 36.96 6.46
23508 28.5050 39.30 36.97 6.30
23509 28.5060 43.44 36.98 6.64
23510 28.5070 32.72 36.99 5.74
23511 28.5080 36.51 37.00 6.02
23512 28.5090 39.74 37.02 6.32
23513 28.5100 42.63 37.03 6.60
23514 28.5110 34.39 37.04 5.93
23515 28.5120 40.81 37.05 6.43
23516 28.5130 37.26 37.06 6.14
23517 28.5140 43.15 37.07 6.59
23518 28.5150 47.40 37.09 6.92
23519 28.5160 43.13 37.10 6.60
23520 28.5170 45.06 37.11 6.72
23521 28.5180 37.81 37.12 6.15
23522 28.5190 46.38 37.14 6.81
23523 28.5200 46.42 37.15 6.89
23524 28.5210 43.92 37.16 6.72
23525 28.5220 36.64 37.17 6.13
23526 28.5230 38.99 37.19 6.26
23527 28.5240 38.15 37.20 6.19
23528 28.5250 37.85 37.21 6.16
23529 28.5260 43.46 37.23 6.63
23530 28.5270 40.99 37.24 6.41
23531 28.5280 47.38 37.26 6.85
23532 28.5290 36.99 37.27 6.09
23533 28.5300 44.97 37.28 6.81
23534 28.5310 53.56 37.30 7.46
23535 28.5320 42.55 37.31 6.59
23536 28.5330 39.34 37.33 6.30
23537 28.5340 34.29 37.34 5.88
23538 28.5350 38.24 37.36 6.20
23539 28.5360 34.64 37.37 5.91
23540 28.5370 46.16 37.39 6.78
23541 28.5380 34.82 37.40 5.90
23542 28.5390 44.22 37.44 6.66
23543 28.5400 45.90 37.46 6.87
23544 28.5410 35.94 37.47 6.10
23545 28.5420 40.80 37.49 6.46
23546 28.5430 39.39 37.51 6.30
23547 28.5440 34.38 37.55 5.89
23548 28.5450 39.49 37.59 6.33
23549 28.5460 40.05 37.61 6.37
23550 28.5470 33.73 37.63 5.81
23551 28.5480 43.53 37.65 6.62
23552 28.5490 44.59 37.66 6.67
23553 28.5500 41.22 37.68 6.49
23554 28.5510 39.88 37.70 6.41
23555 28.5520 49.08 37.72 7.06
23556 28.5530 40.40 37.74 6.38
23557 28.5540 42.81 37.76 6.56
23558 28.5550 48.91 37.78 7.00
23559 28.5560 47.77 37.80 6.99
23560 28.5570 49.26 37.82 7.02
23561 28.5580 45.35 37.84 6.73
23562 28.5590 38.41 37.86 6.23
23563 28.5600 47.01 37.88 6.93
23564 28.5610 43.37 37.90 6.68
23565 28.5620 42.40 37.92 6.57
23566 28.5630 43.72 37.94 6.63
23567 28.5640 46.06 37.97 6.80
23568 28.5650 54.05 37.99 7.39
23569 28.5660 45.59 38.01 6.79
23570 28.5670 34.50 38.04 5.89
23571 28.5680 32.50 38.06 5.71
23572 28.5690 39.42 38.08 6.32
23573 28.5700 41.24 38.11 6.52
23574 28.5710 40.10 38.13 6.45
23575 28.5720 39.76 38.16 6.36
23576 28.5730 51.90 38.19 7.24
23577 28.5740 40.85 38.21 6.39
23578 28.5750 32.53 38.24 5.71
23579 28.5760 27.72 38.27 5.31
23580 28.5770 38.87 38.30 6.23
23581 28.5780 38.14 38.32 6.18
23582 28.5790 44.15 38.35 6.68
23583 28.5800 32.00 38.38 5.76
23584 28.5810 33.53 38.41 5.93
23585 28.5820 43.94 38.45 6.71
23586 28.5830 49.46 38.48 7.07
23587 28.5840 44.84 38.51 6.73
23588 28.5850 33.19 38.54 5.77
23589 28.5860 37.01 38.58 6.11
23590 28.5870 48.94 38.61 6.97
23591 28.5880 33.64 38.65 5.80
23592 28.5890 51.06 38.69 7.16
23593 28.5900 41.20 38.72 6.48
23594 28.5910 29.76 38.76 5.56
23595 28.5920 41.75 38.80 6.55
23596 28.5930 47.70 38.84 6.96
23597 28.5940 40.49 38.88 6.39
23598 28.5950 38.91 38.93 6.28
23599 28.5960 40.19 38.97 6.39
23600 28.5970 36.65 39.02 6.08
23601 28.5980 36.45 39.06 6.04
23602 28.5990 44.38 39.11 6.66
23603 28.6000 41.74 39.16 6.54
23604 28.6010 36.27 39.21 6.11
23605 28.6020 41.23 39.26 6.49
23606 28.6030 40.60 39.31 6.40
23607 28.6040 43.49 39.37 6.63
23608 28.6050 35.93 39.43 6.06
23609 28.6060 38.72 39.49 6.28
23610 28.6070 44.79 39.55 6.67
23611 28.6080 41.73 39.61 6.47
23612 28.6090 47.74 39.68 6.92
23613 28.6100 37.32 39.74 6.18
23614 28.6110 48.83 39.81 7.07
23615 28.6120 54.22 39.88 7.45
23616 28.6130 44.55 39.96 6.72
23617 28.6140 43.74 40.04 6.66
23618 28.6150 41.54 40.12 6.47
23619 28.6160 34.12 40.20 5.89
23620 28.6170 47.39 40.29 6.87
23621 28.6180 45.45 40.38 6.73
23622 28.6190 49.38 40.47 7.07
23623 28.6200 42.48 40.57 6.59
23624 28.6210 43.15 40.67 6.69
23625 28.6220 29.57 40.77 5.52
23626 28.6230 30.49 40.88 5.56
23627 28.6240 40.01 40.99 6.35
23628 28.6250 31.96 41.11 5.69
23629 28.6260 43.13 41.24 6.58
23630 28.6270 38.56 41.37 6.21
23631 28.6280 44.76 41.50 6.69
23632 28.6290 47.77 41.65 6.95
23633 28.6300 51.94 41.80 7.29
23634 28.6310 42.48 41.95 6.62
23635 28.6320 49.26 42.12 7.09
23636 28.6330 44.23 42.29 6.68
23637 28.6340 45.77 42.48 6.78
23638 28.6350 43.07 42.67 6.57
23639 28.6360 45.01 42.87 6.72
23640 28.6370 37.14 43.09 6.10
23641 28.6380 39.88 43.32 6.30
23642 28.6390 54.73 43.56 7.42
23643 28.6400 45.94 43.81 6.86
23644 28.6410 50.95 44.09 7.26
23645 28.6420 43.44 44.38 6.65
23646 28.6430 49.57 44.69 7.09
23647 28.6440 49.22 45.02 7.04
23648 28.6450 53.92 45.37 7.38
23649 28.6460 41.82 45.74 6.50
23650 28.6470 46.58 46.15 6.83
23651 28.6480 46.88 46.58 6.85
23652 28.6490 37.16 47.05 6.11
23653 28.6500 49.27 47.56 7.08
23654 28.6510 56.28 48.10 7.58
23655 28.6520 41.67 48.69 6.51
23656 28.6530 49.41 49.33 7.06
23657 28.6540 55.84 50.03 7.50
23658 28.6550 58.52 50.79 7.69
23659 28.6560 57.51 51.62 7.64
23660 28.6570 53.49 52.53 7.33
23661 28.6580 57.25 53.53 7.55
23662 28.6590 57.83 54.64 7.61
23663 28.6600 61.50 55.87 7.92
23664 28.6610 59.15 57.23 7.77
23665 28.6620 59.20 58.76 7.77
23666 28.6630 60.50 60.47 7.81
23667 28.6640 57.07 62.41 7.58
23668 28.6650 68.71 64.62 8.31
23669 28.6660 77.64 67.15 8.86
23670 28.6670 82.30 70.09 9.06
23671 28.6680 79.29 73.48 8.87
23672 28.6690 82.08 77.47 9.07
23673 28.6700 101.56 82.18 10.14
23674 28.6710 88.88 87.75 9.56
23675 28.6720 101.25 94.34 10.14
23676 28.6730 108.58 102.21 10.44
23677 28.6740 125.94 111.55 11.18
23678 28.6750 137.03 122.61 11.68
23679 28.6760 134.68 135.61 11.62
23680 28.6770 150.56 150.72 12.20
23681 28.6780 156.72 167.92 12.45
23682 28.6790 196.56 187.17 14.02
23683 28.6800 232.67 207.91 15.37
23684 28.6810 261.45 229.26 16.39
23685 28.6820 228.88 250.04 15.25
23686 28.6830 264.68 269.01 16.22
23687 28.6840 300.35 285.46 17.30
23688 28.6850 305.01 298.61 17.43
23689 28.6860 319.88 308.10 17.87
23690 28.6870 353.77 313.02 18.67
23691 28.6880 359.12 312.35 18.80
23692 28.6890 286.54 305.33 16.92
23693 28.6900 283.23 291.97 16.89
23694 28.6910 272.51 273.32 16.71
23695 28.6920 253.07 251.23 16.00
23696 28.6930 225.37 227.73 14.99
23697 28.6940 216.17 204.68 14.71
23698 28.6950 169.49 183.10 13.01
23699 28.6960 152.66 163.72 12.37
23700 28.6970 145.35 146.77 12.02
23701 28.6980 140.59 132.21 11.77
23702 28.6990 113.01 119.85 10.62
23703 28.7000 115.60 109.49 10.82
23704 28.7010 104.21 100.78 10.31
23705 28.7020 117.89 93.53 10.93
23706 28.7030 86.24 87.48 9.32
23707 28.7040 83.20 82.45 9.12
23708 28.7050 68.34 78.23 8.28
23709 28.7060 88.54 74.71 9.44
23710 28.7070 82.69 71.74 9.06
23711 28.7080 78.27 69.23 8.78
23712 28.7090 62.02 67.12 7.85
23713 28.7100 70.48 65.35 8.46
23714 28.7110 67.99 63.87 8.34
23715 28.7120 63.17 62.64 8.02
23716 28.7130 64.60 61.66 8.04
23717 28.7140 74.60 60.91 8.62
23718 28.7150 92.94 60.38 9.67
23719 28.7160 66.76 60.08 8.21
23720 28.7170 61.78 60.02 7.84
23721 28.7180 64.06 60.21 8.00
23722 28.7190 61.65 60.67 7.87
23723 28.7200 67.59 61.42 8.31
23724 28.7210 52.93 62.47 7.39
23725 28.7220 54.01 63.84 7.39
23726 28.7230 66.42 65.50 8.16
23727 28.7240 48.48 67.43 6.97
23728 28.7250 72.75 69.55 8.53
23729 28.7260 74.53 71.78 8.65
23730 28.7270 69.42 74.00 8.30
23731 28.7280 80.57 76.13 8.95
23732 28.7290 80.03 78.05 8.96
23733 28.7300 65.35 79.63 8.16
23734 28.7310 85.54 80.75 9.40
23735 28.7320 78.71 81.25 8.91
23736 28.7330 74.90 81.01 8.67
23737 28.7340 80.23 79.92 8.93
23738 28.7350 78.46 77.96 8.83
23739 28.7360 64.32 75.28 8.03
23740 28.7370 66.64 72.12 8.18
23741 28.7380 69.08 68.78 8.28
23742 28.7390 59.29 65.50 7.73
23743 28.7400 62.34 62.43 7.98
23744 28.7410 58.40 59.67 7.76
23745 28.7420 53.13 57.24 7.38
23746 28.7430 54.94 55.15 7.42
23747 28.7440 51.93 53.36 7.20
23748 28.7450 53.97 51.83 7.40
23749 28.7460 49.83 50.54 7.09
23750 28.7470 57.89 49.44 7.60
23751 28.7480 44.78 48.51 6.67
23752 28.7490 43.58 47.72 6.61
23753 28.7500 48.63 47.04 7.03
23754 28.7510 49.08 46.45 7.06
23755 28.7520 41.74 45.95 6.53
23756 28.7530 49.90 45.50 7.10
23757 28.7540 51.42 45.11 7.20
23758 28.7550 44.17 44.76 6.67
23759 28.7560 36.90 44.44 6.11
23760 28.7570 46.39 44.16 6.80
23761 28.7580 48.66 43.91 6.96
23762 28.7590 44.58 43.67 6.67
23763 28.7600 39.79 43.46 6.36
23764 28.7610 40.61 43.27 6.47
23765 28.7620 51.52 43.09 7.23
23766 28.7630 35.85 42.93 6.02
23767 28.7640 39.51 42.78 6.29
23768 28.7650 46.38 42.64 6.85
23769 28.7660 29.86 42.51 5.51
23770 28.7670 44.25 42.39 6.65
23771 28.7680 47.13 42.27 6.83
23772 28.7690 51.96 42.17 7.22
23773 28.7700 44.27 42.07 6.74
23774 28.7710 42.37 41.98 6.60
23775 28.7720 39.56 41.89 6.36
23776 28.7730 51.85 41.81 7.20
23777 28.7740 56.46 41.73 7.49
23778 28.7750 41.32 41.66 6.44
23779 28.7760 44.32 41.60 6.68
23780 28.7770 42.07 41.54 6.50
23781 28.7780 52.49 41.48 7.24
23782 28.7790 43.70 41.42 6.63
23783 28.7800 44.69 41.37 6.77
23784 28.7810 24.95 41.32 5.09
23785 28.7820 49.36 41.28 7.08
23786 28.7830 49.26 41.24 7.04
23787 28.7840 42.34 41.19 6.53
23788 28.7850 39.96 41.16 6.36
23789 28.7860 41.08 41.12 6.44
23790 28.7870 36.35 41.09 6.04
23791 28.7880 37.10 41.06 6.08
23792 28.7890 43.41 41.03 6.63
23793 28.7900 44.90 41.00 6.75
23794 28.7910 39.72 40.97 6.42
23795 28.7920 34.27 40.95 5.92
23796 28.7930 46.28 40.92 6.83
23797 28.7940 37.95 40.90 6.17
23798 28.7950 37.02 40.88 6.12
23799 28.7960 38.14 40.86 6.18
23800 28.7970 31.97 40.84 5.66
23801 28.7980 41.75 40.83 6.42
23802 28.7990 38.90 40.81 6.25
23803 28.8000 40.15 40.80 6.38
23804 28.8010 46.97 40.78 6.95
23805 28.8020 43.93 40.77 6.69
23806 28.8030 43.04 40.76 6.61
23807 28.8040 35.74 40.75 6.00
23808 28.8050 34.46 40.74 5.91
23809 28.8060 39.04 40.73 6.27
23810 28.8070 47.49 40.73 6.86
23811 28.8080 35.64 40.72 5.95
23812 28.8090 35.93 40.71 5.99
23813 28.8100 46.47 40.71 6.88
23814 28.8110 42.76 40.71 6.63
23815 28.8120 41.28 40.70 6.49
23816 28.8130 42.12 40.70 6.54
23817 28.8140 33.12 40.70 5.78
23818 28.8150 32.39 40.70 5.72
23819 28.8160 39.14 40.70 6.27
23820 28.8170 35.30 40.70 5.93
23821 28.8180 36.86 40.70 6.05
23822 28.8190 44.94 40.70 6.69
23823 28.8200 44.16 40.70 6.72
23824 28.8210 37.52 40.70 6.21
23825 28.8220 36.18 40.71 6.06
23826 28.8230 39.94 40.71 6.34
23827 28.8240 42.13 40.72 6.49
23828 28.8250 36.06 40.72 6.02
23829 28.8260 43.24 40.73 6.61
23830 28.8270 40.72 40.73 6.38
23831 28.8280 52.91 40.74 7.25
23832 28.8290 49.91 40.75 7.07
23833 28.8300 45.95 40.76 6.84
23834 28.8310 39.94 40.77 6.42
23835 28.8320 35.79 40.77 6.01
23836 28.8330 36.30 40.78 6.04
23837 28.8340 40.27 40.80 6.33
23838 28.8350 46.00 40.81 6.78
23839 28.8360 55.83 40.82 7.54
23840 28.8370 36.10 40.83 6.02
23841 28.8380 52.12 40.84 7.17
23842 28.8390 41.08 40.86 6.42
23843 28.8400 43.91 40.87 6.67
23844 28.8410 34.36 40.88 5.96
23845 28.8420 27.30 40.90 5.26
23846 28.8430 47.25 40.92 6.88
23847 28.8440 41.20 40.93 6.42
23848 28.8450 39.97 40.95 6.37
23849 28.8460 45.58 40.97 6.78
23850 28.8470 44.17 40.99 6.62
23851 28.8480 43.55 41.00 6.54
23852 28.8490 42.81 41.02 6.51
23853 28.8500 46.43 41.04 6.86
23854 28.8510 45.10 41.06 6.80
23855 28.8520 43.86 41.09 6.69
23856 28.8530 40.30 41.11 6.39
23857 28.8540 42.13 41.13 6.50
23858 28.8550 40.66 41.16 6.41
23859 28.8560 41.31 41.18 6.46
23860 28.8570 30.06 41.21 5.47
23861 28.8580 40.82 41.23 6.37
23862 28.8590 41.39 41.26 6.41
23863 28.8600 36.32 41.29 6.08
23864 28.8610 38.13 41.31 6.26
23865 28.8620 44.82 41.34 6.77
23866 28.8630 38.10 41.38 6.19
23867 28.8640 36.90 41.41 6.07
23868 28.8650 35.68 41.44 6.01
23869 28.8660 41.23 41.47 6.43
23870 28.8670 48.80 41.51 6.97
23871 28.8680 31.44 41.54 5.59
23872 28.8690 35.49 41.58 5.98
23873 28.8700 50.28 41.62 7.14
23874 28.8710 40.34 41.66 6.42
23875 28.8720 41.44 41.70 6.46
23876 28.8730 36.26 41.74 6.02
23877 28.8740 35.69 41.78 5.96
23878 28.8750 34.52 41.83 5.89
23879 28.8760 36.89 41.87 6.10
23880 28.8770 40.94 41.92 6.41
23881 28.8780 37.34 41.97 6.11
23882 28.8790 46.54 42.02 6.82
23883 28.8800 37.60 42.07 6.19
23884 28.8810 42.33 42.12 6.57
23885 28.8820 36.28 42.18 6.05
23886 28.8830 39.95 42.24 6.31
23887 28.8840 37.01 42.30 6.08
23888 28.8850 41.65 42.36 6.48
23889 28.8860 46.18 42.42 6.82
23890 28.8870 41.72 42.49 6.45
23891 28.8880 45.81 42.56 6.74
23892 28.8890 44.47 42.63 6.66
23893 28.8900 42.97 42.71 6.61
23894 28.8910 42.30 42.78 6.59
23895 28.8920 51.81 42.86 7.25
23896 28.8930 53.88 42.95 7.35
23897 28.8940 45.96 43.04 6.78
23898 28.8950 36.52 43.13 6.06
23899 28.8960 36.08 43.22 5.99
23900 28.8970 24.59 43.32 4.94
23901 28.8980 45.61 43.42 6.70
23902 28.8990 43.30 43.53 6.56
23903 28.9000 43.01 43.64 6.62
23904 28.9010 43.09 43.76 6.65
23905 28.9020 28.78 43.88 5.43
23906 28.9030 40.79 44.01 6.41
23907 28.9040 42.01 44.15 6.47
23908 28.9050 43.46 44.29 6.61
23909 28.9060 42.18 44.44 6.50
23910 28.9070 57.10 44.59 7.49
23911 28.9080 58.29 44.76 7.58
23912 28.9090 39.10 44.93 6.23
23913 28.9100 40.63 45.11 6.43
23914 28.9110 51.15 45.30 7.22
23915 28.9120 51.68 45.50 7.23
23916 28.9130 56.64 45.72 7.53
23917 28.9140 48.75 45.94 6.99
23918 28.9150 37.62 46.18 6.16
23919 28.9160 45.22 46.44 6.73
23920 28.9170 41.95 46.71 6.49
23921 28.9180 45.33 47.00 6.68
23922 28.9190 52.63 47.30 7.25
23923 28.9200 54.86 47.63 7.44
23924 28.9210 54.82 47.98 7.49
23925 28.9220 54.95 48.35 7.45
23926 28.9230 50.01 48.75 7.06
23927 28.9240 63.76 49.18 7.97
23928 28.9250 56.39 49.64 7.52
23929 28.9260 52.77 50.13 7.30
23930 28.9270 53.10 50.67 7.28
23931 28.9280 39.71 51.25 6.31
23932 28.9290 46.18 51.88 6.78
23933 28.9300 48.40 52.56 7.03
23934 28.9310 59.11 53.30 7.78
23935 28.9320 57.64 54.11 7.61
23936 28.9330 60.78 54.99 7.80
23937 28.9340 68.66 55.97 8.25
23938 28.9350 52.93 57.04 7.27
23939 28.9360 61.41 58.22 7.84
23940 28.9370 52.66 59.53 7.25
23941 28.9380 51.88 60.99 7.19
23942 28.9390 60.63 62.63 7.78
23943 28.9400 65.67 64.46 8.16
23944 28.9410 68.78 66.54 8.40
23945 28.9420 77.20 68.90 8.82
23946 28.9430 74.26 71.62 8.63
23947 28.9440 73.04 74.75 8.55
23948 28.9450 85.94 78.40 9.28
23949 28.9460 83.18 82.66 9.08
23950 28.9470 93.98 87.70 9.62
23951 28.9480 116.95 93.66 10.73
23952 28.9490 105.16 100.75 10.24
23953 28.9500 97.73 109.18 9.95
23954 28.9510 110.14 119.15 10.61
23955 28.9520 120.43 131.04 11.04
23956 28.9530 124.97 144.93 11.19
23957 28.9540 156.72 161.13 12.48
23958 28.9550 166.52 179.66 12.86
23959 28.9560 213.48 200.37 14.62
23960 28.9570 212.85 222.65 14.48
23961 28.9580 235.36 245.76 15.21
23962 28.9590 252.26 268.37 15.78
23963 28.9600 273.40 289.19 16.64
23964 28.9610 292.58 307.18 17.29
23965 28.9620 301.35 321.54 17.48
23966 28.9630 321.33 331.36 17.94
23967 28.9640 316.76 335.51 17.79
23968 28.9650 316.13 332.64 17.75
23969 28.9660 292.50 322.07 17.06
23970 28.9670 277.82 304.46 16.57
23971 28.9680 266.49 281.79 16.21
23972 28.9690 212.04 256.33 14.53
23973 28.9700 200.27 230.69 14.22
23974 28.9710 215.42 206.26 14.83
23975 28.9720 187.97 184.05 13.76
23976 28.9730 155.13 164.47 12.43
23977 28.9740 156.38 147.59 12.45
23978 28.9750 135.51 133.14 11.64
23979 28.9760 126.33 120.94 11.30
23980 28.9770 117.72 110.69 10.82
23981 28.9780 104.34 102.11 10.23
23982 28.9790 102.28 94.93 10.10
23983 28.9800 91.96 88.93 9.64
23984 28.9810 91.47 83.88 9.67
23985 28.9820 79.90 79.60 8.96
23986 28.9830 97.90 75.97 9.90
23987 28.9840 90.15 72.85 9.48
23988 28.9850 77.46 70.17 8.84
23989 28.9860 70.46 67.84 8.45
23990 28.9870 59.93 65.79 7.73
23991 28.9880 54.88 63.99 7.39
23992 28.9890 57.16 62.40 7.59
23993 28.9900 51.90 60.98 7.27
23994 28.9910 65.19 59.72 8.19
23995 28.9920 60.96 58.59 7.88
23996 28.9930 58.56 57.58 7.69
23997 28.9940 42.44 56.67 6.53
23998 28.9950 50.34 55.85 7.12
23999 28.9960 57.64 55.12 7.60
24000 28.9970 48.99 54.46 6.98
24001 28.9980 44.64 53.87 6.67
24002 28.9990 44.83 53.34 6.70
24003 29.0000 47.07 52.86 6.94
24004 29.0010 61.33 52.44 7.97
24005 29.0020 56.99 52.07 7.65
24006 29.0030 46.85 51.74 6.86
24007 29.0040 54.71 51.46 7.39
24008 29.0050 45.83 51.22 6.82
24009 29.0060 47.79 51.03 6.94
24010 29.0070 46.80 50.88 6.84
24011 29.0080 56.22 50.77 7.48
24012 29.0090 57.81 50.71 7.62
24013 29.0100 39.45 50.69 6.36
24014 29.0110 46.45 50.73 6.90
24015 29.0120 53.17 50.83 7.35
24016 29.0130 47.32 50.99 6.92
24017 29.0140 53.19 51.23 7.31
24018 29.0150 44.07 51.56 6.67
24019 29.0160 47.47 51.99 6.91
24020 29.0170 55.69 52.54 7.44
24021 29.0180 41.97 53.24 6.48
24022 29.0190 57.85 54.11 7.60
24023 29.0200 60.04 55.19 7.82
24024 29.0210 59.60 56.51 7.83
24025 29.0220 63.01 58.09 7.99
24026 29.0230 61.76 59.98 7.86
24027 29.0240 60.55 62.18 7.81
24028 29.0250 53.19 64.70 7.33
24029 29.0260 63.74 67.49 7.99
24030 29.0270 62.19 70.45 7.87
24031 29.0280 76.07 73.43 8.65
24032 29.0290 71.72 76.22 8.46
24033 29.0300 77.03 78.66 8.81
24034 29.0310 62.94 80.62 8.02
24035 29.0320 77.56 81.99 8.83
24036 29.0330 60.43 82.66 7.79
24037 29.0340 76.24 82.47 8.72
24038 29.0350 73.10 81.33 8.54
24039 29.0360 82.41 79.22 9.06
24040 29.0370 63.83 76.36 7.97
24041 29.0380 55.39 73.05 7.42
24042 29.0390 65.52 69.61 8.08
24043 29.0400 54.00 66.29 7.43
24044 29.0410 50.43 63.23 7.20
24045 29.0420 65.76 60.50 8.16
24046 29.0430 44.45 58.13 6.66
24047 29.0440 58.25 56.10 7.61
24048 29.0450 52.11 54.37 7.22
24049 29.0460 53.99 52.91 7.34
24050 29.0470 56.03 51.68 7.45
24051 29.0480 53.37 50.64 7.26
24052 29.0490 59.72 49.77 7.72
24053 29.0500 46.49 49.03 6.86
24054 29.0510 52.24 48.40 7.33
24055 29.0520 43.07 47.87 6.62
24056 29.0530 48.13 47.40 6.95
24057 29.0540 44.96 47.00 6.69
24058 29.0550 41.36 46.65 6.43
24059 29.0560 58.80 46.34 7.66
24060 29.0570 38.09 46.06 6.16
24061 29.0580 41.27 45.82 6.40
24062 29.0590 42.06 45.59 6.49
24063 29.0600 40.17 45.39 6.40
24064 29.0610 48.59 45.21 7.08
24065 29.0620 45.24 45.05 6.78
24066 29.0630 41.30 44.90 6.46
24067 29.0640 38.71 44.76 6.23
24068 29.0650 31.08 44.63 5.61
24069 29.0660 38.02 44.52 6.19
24070 29.0670 46.05 44.41 6.75
24071 29.0680 49.10 44.31 6.96
24072 29.0690 45.70 44.22 6.74
24073 29.0700 39.01 44.13 6.29
24074 29.0710 39.61 44.06 6.38
24075 29.0720 33.89 43.98 5.86
24076 29.0730 33.45 43.91 5.81
24077 29.0740 36.89 43.85 6.10
24078 29.0750 41.89 43.79 6.48
24079 29.0760 43.28 43.74 6.60
24080 29.0770 45.82 43.68 6.74
24081 29.0780 45.82 43.64 6.74
24082 29.0790 46.83 43.59 6.81
24083 29.0800 52.58 43.55 7.30
24084 29.0810 51.06 43.51 7.21
24085 29.0820 37.01 43.47 6.13
24086 29.0830 36.79 43.43 6.07
24087 29.0840 30.75 43.40 5.56
24088 29.0850 39.01 43.37 6.26
24089 29.0860 35.59 43.34 5.99
24090 29.0870 41.20 43.31 6.42
24091 29.0880 33.74 43.29 5.78
24092 29.0890 48.34 43.26 6.93
24093 29.0900 38.96 43.24 6.29
24094 29.0910 42.24 43.22 6.58
24095 29.0920 51.39 43.20 7.22
24096 29.0930 43.73 43.18 6.62
24097 29.0940 38.01 43.16 6.16
24098 29.0950 37.85 43.14 6.15
24099 29.0960 37.37 43.13 6.13
24100 29.0970 44.60 43.11 6.63
24101 29.0980 43.70 43.10 6.57
24102 29.0990 44.96 43.09 6.70
24103 29.1000 44.66 43.08 6.74
24104 29.1010 42.53 43.07 6.60
24105 29.1020 37.23 43.06 6.14
24106 29.1030 39.05 43.02 6.25
24107 29.1040 36.56 43.01 6.04
24108 29.1050 37.19 43.01 6.11
24109 29.1060 44.24 43.00 6.66
24110 29.1070 42.60 42.99 6.48
24111 29.1080 38.72 42.96 6.20
24112 29.1090 37.56 42.96 6.13
24113 29.1100 34.37 42.93 5.92
24114 29.1110 39.48 42.93 6.36
24115 29.1120 36.33 42.93 6.08
24116 29.1130 42.12 42.93 6.51
24117 29.1140 31.53 42.93 5.63
24118 29.1150 33.32 42.93 5.78
24119 29.1160 28.43 42.93 5.33
24120 29.1170 56.42 42.94 7.48
24121 29.1180 41.70 42.94 6.42
24122 29.1190 39.02 42.95 6.21
24123 29.1200 41.91 42.96 6.53
24124 29.1210 37.74 42.97 6.21
24125 29.1220 37.85 42.98 6.20
24126 29.1230 34.20 42.99 5.86
24127 29.1240 35.34 43.00 5.97
24128 29.1250 37.60 43.00 6.16
24129 29.1260 35.22 43.01 5.92
24130 29.1270 42.38 43.01 6.48
24131 29.1280 47.05 43.01 6.84
24132 29.1290 39.23 43.00 6.26
24133 29.1300 41.21 43.00 6.48
24134 29.1310 38.24 43.00 6.25
24135 29.1320 42.75 43.00 6.59
24136 29.1330 37.89 43.01 6.17
24137 29.1340 36.11 43.01 6.00
24138 29.1350 34.68 43.02 5.90
24139 29.1360 42.31 43.04 6.54
24140 29.1370 35.61 43.05 5.97
24141 29.1380 47.88 43.07 6.90
24142 29.1390 43.06 43.09 6.55
24143 29.1400 33.97 43.12 5.87
24144 29.1410 28.20 43.16 5.39
24145 29.1420 37.42 43.20 6.16
24146 29.1430 30.24 43.25 5.51
24147 29.1440 33.71 43.30 5.82
24148 29.1450 51.94 43.37 7.21
24149 29.1460 41.07 43.44 6.42
24150 29.1470 41.01 43.53 6.38
24151 29.1480 42.76 43.62 6.50
24152 29.1490 37.78 43.71 6.16
24153 29.1500 40.71 43.80 6.44
24154 29.1510 43.77 43.87 6.70
24155 29.1520 51.31 43.93 7.19
24156 29.1530 37.03 43.97 6.10
24157 29.1540 40.75 43.99 6.38
24158 29.1550 41.46 44.00 6.45
24159 29.1560 35.82 44.00 6.01
24160 29.1570 38.10 44.00 6.14
24161 29.1580 34.63 43.99 5.88
24162 29.1590 47.15 43.97 6.87
24163 29.1600 38.77 43.94 6.29
24164 29.1610 41.05 43.89 6.53
24165 29.1620 34.76 43.82 5.95
24166 29.1630 35.31 43.74 5.96
24167 29.1640 38.15 43.66 6.21
24168 29.1650 38.17 43.58 6.19
24169 29.1660 39.59 43.51 6.30
24170 29.1670 35.10 43.45 5.89
24171 29.1680 38.84 43.40 6.20
24172 29.1690 39.21 43.35 6.26
24173 29.1700 40.42 43.32 6.42
24174 29.1710 39.45 43.29 6.36
24175 29.1720 41.86 43.26 6.50
24176 29.1730 52.00 43.24 7.24
24177 29.1740 41.44 43.23 6.45
24178 29.1750 42.40 43.22 6.54
24179 29.1760 37.70 43.21 6.16
24180 29.1770 42.08 43.20 6.48
24181 29.1780 50.25 43.20 7.05
24182 29.1790 53.07 43.20 7.27
24183 29.1800 41.84 43.19 6.53
24184 29.1810 42.22 43.19 6.56
24185 29.1820 46.37 43.19 6.87
24186 29.1830 39.68 43.20 6.31
24187 29.1840 31.83 43.20 5.67
24188 29.1850 53.64 43.20 7.36
24189 29.1860 44.74 43.21 6.71
24190 29.1870 36.38 43.21 6.04
24191 29.1880 38.47 43.22 6.19
24192 29.1890 35.98 43.22 5.99
24193 29.1900 41.46 43.23 6.50
24194 29.1910 43.38 43.23 6.64
24195 29.1920 42.44 43.24 6.56
24196 29.1930 40.49 43.24 6.37
24197 29.1940 39.72 43.25 6.31
24198 29.1950 41.28 43.26 6.42
24199 29.1960 44.22 43.26 6.66
24200 29.1970 51.66 43.27 7.14
24201 29.1980 56.82 43.28 7.51
24202 29.1990 36.17 43.28 6.03
24203 29.2000 30.92 43.29 5.64
24204 29.2010 32.92 43.30 5.82
24205 29.2020 39.00 43.31 6.29
24206 29.2030 32.27 43.31 5.69
24207 29.2040 50.05 43.32 7.03
24208 29.2050 33.78 43.33 5.81
24209 29.2060 41.62 43.34 6.50
24210 29.2070 38.38 43.35 6.17
24211 29.2080 38.81 43.35 6.21
24212 29.2090 38.18 43.36 6.20
24213 29.2100 36.90 43.37 6.16
24214 29.2110 44.44 43.38 6.76
24215 29.2120 58.21 43.39 7.70
24216 29.2130 37.89 43.40 6.16
24217 29.2140 49.54 43.41 7.02
24218 29.2150 34.27 43.42 5.87
24219 29.2160 39.38 43.43 6.30
24220 29.2170 38.73 43.43 6.24
24221 29.2180 40.19 43.44 6.31
24222 29.2190 35.57 43.45 5.97
24223 29.2200 35.14 43.46 6.01
24224 29.2210 29.49 43.47 5.53
24225 29.2220 39.01 43.48 6.30
24226 29.2230 35.87 43.49 5.99
24227 29.2240 40.69 43.50 6.41
24228 29.2250 41.62 43.51 6.48
24229 29.2260 41.06 43.52 6.45
24230 29.2270 44.59 43.53 6.68
24231 29.2280 45.16 43.54 6.70
24232 29.2290 42.31 43.55 6.52
24233 29.2300 37.01 43.56 6.16
24234 29.2310 28.92 43.57 5.45
24235 29.2320 49.90 43.58 7.12
24236 29.2330 54.37 43.59 7.41
24237 29.2340 43.66 43.60 6.61
24238 29.2350 37.35 43.61 6.15
24239 29.2360 32.23 43.62 5.71
24240 29.2370 44.41 43.63 6.70
24241 29.2380 41.38 43.64 6.43
24242 29.2390 49.15 43.65 7.01
24243 29.2400 41.32 43.66 6.49
24244 29.2410 44.52 43.67 6.75
24245 29.2420 40.83 43.68 6.44
24246 29.2430 37.91 43.69 6.17
24247 29.2440 47.69 43.71 6.90
24248 29.2450 40.32 43.72 6.37
24249 29.2460 42.20 43.73 6.54
24250 29.2470 47.13 43.74 6.84
24251 29.2480 41.87 43.75 6.46
24252 29.2490 37.35 43.76 6.11
24253 29.2500 37.01 43.77 6.13
24254 29.2510 41.59 43.78 6.54
24255 29.2520 40.95 43.79 6.47
24256 29.2530 38.79 43.80 6.24
24257 29.2540 45.55 43.81 6.77
24258 29.2550 34.38 43.83 5.88
24259 29.2560 43.15 43.84 6.58
24260 29.2570 39.99 43.85 6.31
24261 29.2580 41.75 43.86 6.44
24262 29.2590 43.68 43.87 6.61
24263 29.2600 46.40 43.88 6.88
24264 29.2610 29.61 43.89 5.53
24265 29.2620 47.15 43.90 6.95
24266 29.2630 45.75 43.92 6.78
24267 29.2640 55.26 43.93 7.43
24268 29.2650 40.42 43.94 6.36
24269 29.2660 46.79 43.95 6.86
24270 29.2670 45.62 43.96 6.73
24271 29.2680 40.63 43.97 6.36
24272 29.2690 37.75 43.98 6.15
24273 29.2700 43.44 44.00 6.65
24274 29.2710 45.51 44.01 6.83
24275 29.2720 44.67 44.02 6.72
24276 29.2730 42.81 44.03 6.58
24277 29.2740 46.09 44.04 6.77
24278 29.2750 43.38 44.06 6.59
24279 29.2760 43.36 44.07 6.61
24280 29.2770 51.66 44.08 7.17
24281 29.2780 41.00 44.09 6.37
24282 29.2790 43.72 44.11 6.62
24283 29.2800 43.72 44.12 6.68
24284 29.2810 50.65 44.13 7.21
24285 29.2820 39.26 44.14 6.32
24286 29.2830 38.08 44.15 6.19
24287 29.2840 42.62 44.17 6.57
24288 29.2850 36.08 44.18 6.04
24289 29.2860 44.96 44.19 6.74
24290 29.2870 44.54 44.20 6.66
24291 29.2880 41.12 44.22 6.39
24292 29.2890 49.06 44.23 7.03
24293 29.2900 33.21 44.24 5.82
24294 29.2910 42.10 44.25 6.55
24295 29.2920 38.19 44.27 6.22
24296 29.2930 40.13 44.28 6.34
24297 29.2940 39.27 44.29 6.28
24298 29.2950 32.87 44.31 5.77
24299 29.2960 28.29 44.32 5.37
24300 29.2970 43.96 44.33 6.64
24301 29.2980 35.97 44.34 6.00
24302 29.2990 42.29 44.36 6.50
24303 29.3000 40.56 44.37 6.44
24304 29.3010 33.92 44.38 5.90
24305 29.3020 43.88 44.40 6.66
24306 29.3030 43.77 44.41 6.61
24307 29.3040 36.68 44.42 6.06
24308 29.3050 45.31 44.44 6.76
24309 29.3060 41.92 44.45 6.50
24310 29.3070 46.42 44.46 6.80
24311 29.3080 45.29 44.48 6.72
24312 29.3090 35.81 44.49 6.01
24313 29.3100 44.02 44.50 6.71
24314 29.3110 42.98 44.52 6.65
24315 29.3120 50.47 44.53 7.14
24316 29.3130 56.18 44.55 7.52
24317 29.3140 33.61 44.56 5.81
24318 29.3150 36.02 44.57 6.04
24319 29.3160 34.39 44.59 5.88
24320 29.3170 40.96 44.60 6.40
24321 29.3180 43.35 44.62 6.55
24322 29.3190 42.46 44.63 6.51
24323 29.3200 36.54 44.65 6.09
24324 29.3210 41.00 44.66 6.51
24325 29.3220 30.95 44.67 5.62
24326 29.3230 34.59 44.69 5.89
24327 29.3240 38.64 44.70 6.23
24328 29.3250 45.95 44.72 6.80
24329 29.3260 39.23 44.73 6.28
24330 29.3270 35.64 44.75 5.96
24331 29.3280 33.52 44.76 5.79
24332 29.3290 44.20 44.78 6.64
24333 29.3300 43.23 44.79 6.64
24334 29.3310 42.06 44.81 6.57
24335 29.3320 28.86 44.83 5.43
24336 29.3330 42.33 44.84 6.54
24337 29.3340 31.13 44.86 5.61
24338 29.3350 36.66 44.87 6.08
24339 29.3360 32.28 44.89 5.71
24340 29.3370 38.98 44.90 6.24
24341 29.3380 41.13 44.92 6.38
24342 29.3390 48.40 44.94 6.95
24343 29.3400 52.42 44.95 7.28
24344 29.3410 47.50 44.97 6.97
24345 29.3420 31.19 44.99 5.64
24346 29.3430 48.02 45.01 6.93
24347 29.3440 44.92 45.02 6.71
24348 29.3450 40.33 45.04 6.38
24349 29.3460 42.17 45.06 6.52
24350 29.3470 42.17 45.08 6.50
24351 29.3480 41.74 45.09 6.45
24352 29.3490 39.78 45.11 6.33
24353 29.3500 32.01 45.13 5.72
24354 29.3510 51.71 45.15 7.28
24355 29.3520 39.47 45.17 6.33
24356 29.3530 45.11 45.19 6.71
24357 29.3540 44.44 45.21 6.67
24358 29.3550 45.43 45.23 6.75
24359 29.3560 49.89 45.25 7.11
24360 29.3570 36.13 45.27 6.02
24361 29.3580 43.12 45.29 6.56
24362 29.3590 40.96 45.31 6.42
24363 29.3600 47.86 45.33 7.01
24364 29.3610 37.38 45.35 6.20
24365 29.3620 35.77 45.37 6.02
24366 29.3630 43.93 45.40 6.65
24367 29.3640 42.35 45.42 6.52
24368 29.3650 40.29 45.44 6.39
24369 29.3660 52.17 45.47 7.26
24370 29.3670 35.89 45.49 5.99
24371 29.3680 32.04 45.52 5.65
24372 29.3690 45.74 45.54 6.78
24373 29.3700 40.35 45.57 6.41
24374 29.3710 46.34 45.60 6.92
24375 29.3720 41.05 45.63 6.48
24376 29.3730 42.06 45.66 6.52
24377 29.3740 45.46 45.69 6.76
24378 29.3750 43.87 45.72 6.64
24379 29.3760 51.25 45.75 7.17
24380 29.3770 35.78 45.78 5.98
24381 29.3780 43.46 45.82 6.57
24382 29.3790 31.60 45.86 5.64
24383 29.3800 38.20 45.89 6.25
24384 29.3810 31.31 45.91 5.71
24385 29.3820 46.56 45.95 6.91
24386 29.3830 50.23 45.99 7.13
24387 29.3840 38.77 46.04 6.25
24388 29.3850 36.78 46.09 6.13
24389 29.3860 35.69 46.12 6.02
24390 29.3870 41.97 46.15 6.48
24391 29.3880 50.92 46.21 7.12
24392 29.3890 45.47 46.27 6.77
24393 29.3900 45.77 46.34 6.86
24394 29.3910 54.60 46.42 7.49
24395 29.3920 43.79 46.50 6.69
24396 29.3930 37.10 46.60 6.11
24397 29.3940 41.79 46.70 6.50
24398 29.3950 32.78 46.82 5.76
24399 29.3960 36.42 46.96 6.08
24400 29.3970 38.61 47.11 6.24
24401 29.3980 43.71 47.29 6.61
24402 29.3990 46.43 47.49 6.85
24403 29.4000 49.77 47.73 7.13
24404 29.4010 40.55 48.01 6.48
24405 29.4020 45.45 48.34 6.79
24406 29.4030 47.34 48.72 6.89
24407 29.4040 36.13 49.16 6.03
24408 29.4050 39.22 49.65 6.32
24409 29.4060 47.22 50.20 6.92
24410 29.4070 30.02 50.79 5.50
24411 29.4080 40.12 51.39 6.35
24412 29.4090 39.14 51.97 6.29
24413 29.4100 47.18 52.46 6.94
24414 29.4110 47.69 52.83 6.98
24415 29.4120 52.44 53.03 7.30
24416 29.4130 52.89 53.05 7.31
24417 29.4140 53.16 52.89 7.33
24418 29.4150 47.59 52.57 6.93
24419 29.4160 36.20 52.15 6.07
24420 29.4170 47.49 51.68 6.89
24421 29.4180 49.41 51.20 7.02
24422 29.4190 53.50 50.74 7.31
24423 29.4200 41.73 50.34 6.54
24424 29.4210 55.31 50.00 7.52
24425 29.4220 37.94 49.72 6.23
24426 29.4230 53.02 49.50 7.33
24427 29.4240 47.71 49.33 6.94
24428 29.4250 40.03 49.21 6.35
24429 29.4260 43.70 49.14 6.66
24430 29.4270 44.25 49.10 6.66
24431 29.4280 43.44 49.10 6.56
24432 29.4290 38.93 49.13 6.24
24433 29.4300 38.34 49.19 6.26
24434 29.4310 45.97 49.28 6.88
24435 29.4320 55.00 49.39 7.51
24436 29.4330 55.25 49.52 7.48
24437 29.4340 38.88 49.68 6.28
24438 29.4350 36.47 49.87 6.08
24439 29.4360 48.28 50.08 7.00
24440 29.4370 48.08 50.33 6.95
24441 29.4380 55.61 50.60 7.43
24442 29.4390 43.67 50.91 6.64
24443 29.4400 56.61 51.26 7.61
24444 29.4410 48.38 51.66 7.05
24445 29.4420 56.08 52.12 7.56
24446 29.4430 43.05 52.63 6.60
24447 29.4440 45.27 53.23 6.73
24448 29.4450 56.34 53.92 7.52
24449 29.4460 54.91 54.71 7.43
24450 29.4470 58.00 55.65 7.59
24451 29.4480 40.30 56.75 6.38
24452 29.4490 47.69 58.04 6.89
24453 29.4500 51.17 59.58 7.26
24454 29.4510 49.63 61.41 7.12
24455 29.4520 65.37 63.57 8.15
24456 29.4530 51.05 66.14 7.17
24457 29.4540 54.37 69.17 7.39
24458 29.4550 61.69 72.70 7.89
24459 29.4560 73.29 76.77 8.63
24460 29.4570 80.55 81.34 8.98
24461 29.4580 81.50 86.37 9.02
24462 29.4590 89.81 91.66 9.51
24463 29.4600 103.34 96.94 10.25
24464 29.4610 105.65 101.87 10.42
24465 29.4620 118.16 106.20 10.97
24466 29.4630 107.03 109.67 10.36
24467 29.4640 108.98 112.20 10.43
24468 29.4650 112.67 113.59 10.62
24469 29.4660 132.61 113.60 11.54
24470 29.4670 125.15 112.00 11.17
24471 29.4680 96.74 108.75 9.80
24472 29.4690 94.84 104.11 9.73
24473 29.4700 111.75 98.59 10.69
24474 29.4710 87.69 92.75 9.47
24475 29.4720 82.04 87.02 9.16
24476 29.4730 91.24 81.72 9.56
24477 29.4740 57.33 76.98 7.58
24478 29.4750 75.90 72.83 8.71
24479 29.4760 61.66 69.27 7.86
24480 29.4770 70.12 66.24 8.31
24481 29.4780 55.17 63.69 7.37
24482 29.4790 63.10 61.53 7.92
24483 29.4800 64.38 59.74 8.11
24484 29.4810 62.01 58.23 8.00
24485 29.4820 59.79 56.96 7.81
24486 29.4830 56.10 55.89 7.52
24487 29.4840 34.71 54.99 5.94
24488 29.4850 44.86 54.21 6.74
24489 29.4860 49.86 53.54 7.07
24490 29.4870 58.38 52.96 7.61
24491 29.4880 42.86 52.45 6.51
24492 29.4890 53.49 52.01 7.34
24493 29.4900 55.00 51.61 7.49
24494 29.4910 45.05 51.26 6.81
24495 29.4920 44.00 50.95 6.69
24496 29.4930 46.31 50.67 6.83
24497 29.4940 47.12 50.42 6.88
24498 29.4950 34.04 50.20 5.86
24499 29.4960 52.41 49.99 7.24
24500 29.4970 46.91 49.81 6.83
24501 29.4980 44.79 49.64 6.66
24502 29.4990 39.31 49.48 6.30
24503 29.5000 41.20 49.34 6.48
24504 29.5010 42.10 49.22 6.57
24505 29.5020 56.70 49.10 7.57
24506 29.5030 45.05 48.99 6.75
24507 29.5040 49.36 48.90 7.02
24508 29.5050 49.67 48.81 7.06
24509 29.5060 41.91 48.72 6.53
24510 29.5070 42.68 48.65 6.57
24511 29.5080 41.51 48.58 6.42
24512 29.5090 43.23 48.51 6.60
24513 29.5100 40.35 48.45 6.43
24514 29.5110 32.22 48.40 5.78
24515 29.5120 41.59 48.35 6.53
24516 29.5130 44.27 48.30 6.68
24517 29.5140 33.98 48.26 5.83
24518 29.5150 47.98 48.22 6.94
24519 29.5160 42.19 48.18 6.50
24520 29.5170 44.14 48.15 6.63
24521 29.5180 45.72 48.12 6.75
24522 29.5190 45.77 48.09 6.80
24523 29.5200 50.38 48.06 7.18
24524 29.5210 33.17 48.04 5.84
24525 29.5220 45.84 48.02 6.84
24526 29.5230 45.78 48.00 6.79
24527 29.5240 43.43 47.98 6.61
24528 29.5250 42.69 47.96 6.55
24529 29.5260 45.94 47.95 6.81
24530 29.5270 56.43 47.93 7.50
24531 29.5280 38.62 47.92 6.20
24532 29.5290 36.66 47.91 6.09
24533 29.5300 32.19 47.90 5.76
24534 29.5310 38.11 47.89 6.30
24535 29.5320 33.34 47.88 5.85
24536 29.5330 40.87 47.87 6.42
24537 29.5340 49.50 47.86 7.04
24538 29.5350 46.83 47.86 6.87
24539 29.5360 39.46 47.85 6.31
24540 29.5370 38.94 47.85 6.24
24541 29.5380 44.04 47.85 6.61
24542 29.5390 42.39 47.85 6.52
24543 29.5400 32.06 47.84 5.72
24544 29.5410 37.16 47.84 6.19
24545 29.5420 42.05 47.84 6.52
24546 29.5430 49.42 47.84 7.02
24547 29.5440 39.96 47.84 6.35
24548 29.5450 36.22 47.84 6.07
24549 29.5460 43.72 47.85 6.66
24550 29.5470 40.73 47.85 6.39
24551 29.5480 40.58 47.85 6.37
24552 29.5490 45.29 47.85 6.75
24553 29.5500 42.06 47.86 6.52
24554 29.5510 41.22 47.86 6.50
24555 29.5520 37.51 47.86 6.19
24556 29.5530 57.02 47.87 7.56
24557 29.5540 54.36 47.87 7.38
24558 29.5550 45.84 47.88 6.80
24559 29.5560 44.48 47.88 6.72
24560 29.5570 23.17 47.89 4.84
24561 29.5580 44.70 47.90 6.68
24562 29.5590 34.29 47.90 5.87
24563 29.5600 42.31 47.91 6.56
24564 29.5610 36.20 47.92 6.11
24565 29.5620 28.59 47.92 5.40
24566 29.5630 34.00 47.93 5.85
24567 29.5640 40.25 47.94 6.36
24568 29.5650 30.40 47.95 5.54
24569 29.5660 39.32 47.95 6.30
24570 29.5670 33.94 47.96 5.81
24571 29.5680 39.28 47.97 6.27
24572 29.5690 35.72 47.98 5.98
24573 29.5700 32.17 47.99 5.73
24574 29.5710 44.46 48.00 6.78
24575 29.5720 40.52 48.01 6.44
24576 29.5730 46.39 48.02 6.83
24577 29.5740 39.61 48.03 6.30
24578 29.5750 44.01 48.04 6.65
24579 29.5760 38.76 48.05 6.27
24580 29.5770 47.06 48.06 6.83
24581 29.5780 47.49 48.07 6.87
24582 29.5790 50.44 48.08 7.11
24583 29.5800 29.64 48.09 5.54
24584 29.5810 42.17 48.10 6.61
24585 29.5820 52.88 48.11 7.35
24586 29.5830 42.60 48.12 6.57
24587 29.5840 48.39 48.13 6.97
24588 29.5850 36.15 48.14 6.04
24589 29.5860 36.48 48.15 6.09
24590 29.5870 40.00 48.17 6.33
24591 29.5880 39.72 48.18 6.28
24592 29.5890 36.40 48.19 6.07
24593 29.5900 35.18 48.20 6.02
24594 29.5910 28.04 48.21 5.38
24595 29.5920 35.11 48.22 5.98
24596 29.5930 28.45 48.24 5.35
24597 29.5940 44.13 48.25 6.66
24598 29.5950 44.44 48.26 6.69
24599 29.5960 47.99 48.27 6.97
24600 29.5970 40.79 48.29 6.38
24601 29.5980 39.00 48.30 6.25
24602 29.5990 33.08 48.31 5.78
24603 29.6000 41.73 48.33 6.51
24604 29.6010 37.55 48.34 6.20
24605 29.6020 35.30 48.35 6.00
24606 29.6030 46.52 48.36 6.84
24607 29.6040 45.33 48.38 6.76
24608 29.6050 39.15 48.39 6.32
24609 29.6060 48.82 48.40 7.06
24610 29.6070 41.64 48.42 6.47
24611 29.6080 61.26 48.43 7.81
24612 29.6090 41.34 48.45 6.45
24613 29.6100 43.09 48.46 6.65
24614 29.6110 49.73 48.47 7.17
24615 29.6120 43.19 48.49 6.64
24616 29.6130 42.24 48.50 6.53
24617 29.6140 53.13 48.52 7.31
24618 29.6150 39.93 48.53 6.35
24619 29.6160 49.78 48.55 7.10
24620 29.6170 45.56 48.56 6.76
24621 29.6180 35.20 48.58 5.94
24622 29.6190 39.72 48.59 6.36
24623 29.6200 41.66 48.61 6.53
24624 29.6210 47.20 48.62 6.99
24625 29.6220 45.42 48.64 6.83
24626 29.6230 44.34 48.65 6.69
24627 29.6240 42.46 48.67 6.54
24628 29.6250 43.13 48.68 6.59
24629 29.6260 41.82 48.70 6.50
24630 29.6270 45.15 48.72 6.73
24631 29.6280 51.57 48.73 7.16
24632 29.6290 34.87 48.75 5.95
24633 29.6300 33.51 48.76 5.89
24634 29.6310 46.14 48.78 6.93
24635 29.6320 36.71 48.80 6.14
24636 29.6330 34.02 48.82 5.90
24637 29.6340 36.48 48.83 6.07
24638 29.6350 28.72 48.85 5.40
24639 29.6360 44.76 48.87 6.74
24640 29.6370 38.18 48.89 6.21
24641 29.6380 43.00 48.90 6.57
24642 29.6390 43.51 48.92 6.63
24643 29.6400 42.87 48.94 6.65
24644 29.6410 38.97 48.96 6.35
24645 29.6420 43.77 48.98 6.70
24646 29.6430 33.08 49.00 5.80
24647 29.6440 32.42 49.02 5.72
24648 29.6450 45.58 49.04 6.79
24649 29.6460 35.70 49.06 6.03
24650 29.6470 41.96 49.08 6.51
24651 29.6480 46.39 49.10 6.83
24652 29.6490 39.91 49.12 6.34
24653 29.6500 42.17 49.15 6.59
24654 29.6510 41.82 49.17 6.56
24655 29.6520 42.46 49.19 6.58
24656 29.6530 38.72 49.22 6.25
24657 29.6540 41.93 49.24 6.52
24658 29.6550 51.15 49.27 7.20
24659 29.6560 51.35 49.29 7.24
24660 29.6570 51.93 49.32 7.24
24661 29.6580 33.38 49.35 5.79
24662 29.6590 51.15 49.38 7.17
24663 29.6600 51.62 49.41 7.26
24664 29.6610 40.36 49.44 6.45
24665 29.6620 36.78 49.47 6.14
24666 29.6630 44.22 49.50 6.68
24667 29.6640 35.01 49.54 5.96
24668 29.6650 34.39 49.58 5.93
24669 29.6660 39.76 49.61 6.35
24670 29.6670 49.92 49.65 7.09
24671 29.6680 39.91 49.70 6.29
24672 29.6690 41.70 49.74 6.48
24673 29.6700 42.25 49.79 6.57
24674 29.6710 41.52 49.84 6.56
24675 29.6720 40.59 49.90 6.48
24676 29.6730 44.26 49.96 6.69
24677 29.6740 48.42 50.02 6.98
24678 29.6750 48.79 50.09 7.00
24679 29.6760 38.31 50.17 6.20
24680 29.6770 40.06 50.26 6.32
24681 29.6780 42.96 50.35 6.57
24682 29.6790 33.01 50.45 5.78
24683 29.6800 45.89 50.57 6.87
24684 29.6810 39.95 50.70 6.45
24685 29.6820 41.54 50.85 6.52
24686 29.6830 42.12 51.02 6.53
24687 29.6840 53.92 51.22 7.32
24688 29.6850 42.97 51.45 6.57
24689 29.6860 43.40 51.72 6.63
24690 29.6870 51.15 52.05 7.16
24691 29.6880 47.40 52.43 6.87
24692 29.6890 31.16 52.88 5.61
24693 29.6900 41.05 53.42 6.48
24694 29.6910 57.01 54.04 7.64
24695 29.6920 48.94 54.77 7.07
24696 29.6930 46.50 55.59 6.82
24697 29.6940 38.97 56.51 6.25
24698 29.6950 42.58 57.51 6.57
24699 29.6960 40.43 58.53 6.39
24700 29.6970 44.98 59.49 6.71
24701 29.6980 46.06 60.30 6.76
24702 29.6990 50.53 60.85 7.11
24703 29.7000 53.67 61.06 7.38
24704 29.7010 54.87 60.91 7.48
24705 29.7020 50.61 60.42 7.15
24706 29.7030 58.11 59.67 7.65
24707 29.7040 64.88 58.77 8.06
24708 29.7050 44.72 57.82 6.75
24709 29.7060 44.01 56.88 6.68
24710 29.7070 49.82 56.02 7.06
24711 29.7080 54.73 55.25 7.35
24712 29.7090 43.16 54.58 6.57
24713 29.7100 55.57 54.02 7.51
24714 29.7110 50.84 53.56 7.22
24715 29.7120 41.73 53.18 6.54
24716 29.7130 29.43 52.88 5.45
24717 29.7140 39.83 52.64 6.30
24718 29.7150 56.10 52.46 7.53
24719 29.7160 37.44 52.34 6.15
24720 29.7170 44.87 52.27 6.68
24721 29.7180 46.89 52.24 6.85
24722 29.7190 46.07 52.25 6.79
24723 29.7200 45.64 52.31 6.84
24724 29.7210 34.99 52.40 6.00
24725 29.7220 34.99 52.54 5.96
24726 29.7230 50.76 52.72 7.14
24727 29.7240 42.19 52.94 6.51
24728 29.7250 44.95 53.18 6.71
24729 29.7260 40.06 53.44 6.33
24730 29.7270 43.00 53.69 6.55
24731 29.7280 52.85 53.90 7.27
24732 29.7290 38.38 54.05 6.24
24733 29.7300 43.12 54.13 6.62
24734 29.7310 37.59 54.13 6.24
24735 29.7320 43.70 54.08 6.70
24736 29.7330 41.45 54.01 6.44
24737 29.7340 57.31 53.91 7.56
24738 29.7350 42.74 53.81 6.55
24739 29.7360 43.50 53.68 6.62
24740 29.7370 39.39 53.52 6.27
24741 29.7380 40.63 53.33 6.35
24742 29.7390 42.95 53.10 6.56
24743 29.7400 52.45 52.85 7.31
24744 29.7410 43.87 52.61 6.73
24745 29.7420 30.36 52.37 5.57
24746 29.7430 33.65 52.16 5.84
24747 29.7440 43.64 51.97 6.62
24748 29.7450 47.14 51.80 6.93
24749 29.7460 36.74 51.66 6.08
24750 29.7470 42.55 51.55 6.54
24751 29.7480 47.27 51.45 6.86
24752 29.7490 41.21 51.37 6.42
24753 29.7500 37.83 51.30 6.23
24754 29.7510 50.40 51.25 7.18
24755 29.7520 43.23 51.20 6.62
24756 29.7530 47.73 51.17 6.96
24757 29.7540 48.71 51.14 6.99
24758 29.7550 35.65 51.12 6.03
24759 29.7560 48.15 51.10 7.02
24760 29.7570 39.18 51.08 6.27
24761 29.7580 41.47 51.07 6.43
24762 29.7590 49.07 51.07 7.02
24763 29.7600 46.34 51.06 6.86
24764 29.7610 40.92 51.06 6.49
24765 29.7620 35.90 51.06 6.05
24766 29.7630 48.23 51.06 6.98
24767 29.7640 42.64 51.07 6.53
24768 29.7650 32.95 51.07 5.80
24769 29.7660 44.01 51.08 6.68
24770 29.7670 46.68 51.08 6.82
24771 29.7680 54.66 51.09 7.37
24772 29.7690 51.88 51.10 7.22
24773 29.7700 42.23 51.11 6.60
24774 29.7710 48.80 51.12 7.10
24775 29.7720 46.79 51.14 6.91
24776 29.7730 46.15 51.15 6.81
24777 29.7740 47.87 51.16 6.91
24778 29.7750 43.58 51.18 6.63
24779 29.7760 45.49 51.19 6.77
24780 29.7770 43.05 51.21 6.55
24781 29.7780 48.49 51.22 6.96
24782 29.7790 46.48 51.24 6.83
24783 29.7800 39.37 51.26 6.38
24784 29.7810 48.02 51.28 7.06
24785 29.7820 52.48 51.29 7.33
24786 29.7830 42.84 51.31 6.60
24787 29.7840 45.14 51.33 6.73
24788 29.7850 42.90 51.35 6.56
24789 29.7860 44.34 51.37 6.69
24790 29.7870 38.43 51.40 6.20
24791 29.7880 37.07 51.42 6.08
24792 29.7890 33.32 51.44 5.78
24793 29.7900 36.96 51.46 6.16
24794 29.7910 37.41 51.49 6.22
24795 29.7920 36.44 51.51 6.11
24796 29.7930 43.12 51.54 6.60
24797 29.7940 45.08 51.57 6.73
24798 29.7950 38.41 51.59 6.23
24799 29.7960 38.67 51.62 6.25
24800 29.7970 32.35 51.65 5.71
24801 29.7980 52.44 51.68 7.22
24802 29.7990 40.70 51.71 6.41
24803 29.8000 49.09 51.74 7.09
24804 29.8010 42.35 51.77 6.61
24805 29.8020 33.53 51.81 5.85
24806 29.8030 48.93 51.84 7.03
24807 29.8040 39.06 51.88 6.27
24808 29.8050 38.45 51.92 6.24
24809 29.8060 36.11 51.95 6.08
24810 29.8070 54.93 51.99 7.43
24811 29.8080 39.30 52.04 6.27
24812 29.8090 37.25 52.08 6.14
24813 29.8100 37.27 52.13 6.16
24814 29.8110 33.81 52.18 5.90
24815 29.8120 48.00 52.23 7.00
24816 29.8130 43.22 52.28 6.61
24817 29.8140 49.33 52.34 7.05
24818 29.8150 34.59 52.39 5.94
24819 29.8160 43.16 52.46 6.61
24820 29.8170 38.82 52.52 6.24
24821 29.8180 39.98 52.59 6.30
24822 29.8190 39.33 52.67 6.30
24823 29.8200 38.54 52.75 6.29
24824 29.8210 53.05 52.83 7.39
24825 29.8220 39.80 52.93 6.39
24826 29.8230 43.75 53.03 6.65
24827 29.8240 50.41 53.13 7.14
24828 29.8250 37.96 53.25 6.18
24829 29.8260 44.63 53.38 6.71
24830 29.8270 45.62 53.52 6.78
24831 29.8280 47.46 53.68 6.89
24832 29.8290 32.58 53.85 5.76
24833 29.8300 45.41 54.05 6.85
24834 29.8310 43.71 54.27 6.72
24835 29.8320 43.84 54.52 6.70
24836 29.8330 37.23 54.81 6.16
24837 29.8340 55.90 55.14 7.48
24838 29.8350 52.92 55.52 7.32
24839 29.8360 56.34 55.96 7.54
24840 29.8370 49.85 56.46 7.09
24841 29.8380 46.92 57.04 6.86
24842 29.8390 44.54 57.71 6.69
24843 29.8400 41.56 58.45 6.51
24844 29.8410 52.56 59.28 7.36
24845 29.8420 59.43 60.18 7.78
24846 29.8430 61.06 61.12 7.81
24847 29.8440 48.80 62.09 7.00
24848 29.8450 47.83 63.03 6.99
24849 29.8460 53.70 63.93 7.39
24850 29.8470 46.61 64.75 6.86
24851 29.8480 57.36 65.44 7.57
24852 29.8490 59.86 65.99 7.74
24853 29.8500 57.99 66.42 7.69
24854 29.8510 47.86 66.78 7.02
24855 29.8520 58.56 67.17 7.73
24856 29.8530 48.20 67.71 6.99
24857 29.8540 60.69 68.49 7.84
24858 29.8550 62.16 69.58 7.96
24859 29.8560 51.38 71.03 7.23
24860 29.8570 65.36 72.87 8.11
24861 29.8580 60.71 75.08 7.78
24862 29.8590 57.50 77.59 7.61
24863 29.8600 71.99 80.28 8.57
24864 29.8610 70.80 82.91 8.58
24865 29.8620 74.50 85.19 8.72
24866 29.8630 61.52 86.77 7.92
24867 29.8640 75.09 87.42 8.68
24868 29.8650 72.62 87.03 8.53
24869 29.8660 84.63 85.66 9.23
24870 29.8670 82.89 83.51 9.09
24871 29.8680 83.55 80.81 9.11
24872 29.8690 65.81 77.87 8.12
24873 29.8700 55.36 74.90 7.53
24874 29.8710 61.23 72.07 7.96
24875 29.8720 63.91 69.49 8.07
24876 29.8730 63.60 67.22 8.00
24877 29.8740 57.60 65.24 7.58
24878 29.8750 50.37 63.55 7.15
24879 29.8760 58.24 62.11 7.68
24880 29.8770 52.16 60.91 7.22
24881 29.8780 47.18 59.90 6.88
24882 29.8790 47.33 59.04 6.94
24883 29.8800 51.03 58.33 7.25
24884 29.8810 41.25 57.73 6.55
24885 29.8820 46.55 57.22 6.91
24886 29.8830 48.62 56.79 7.02
24887 29.8840 40.39 56.42 6.38
24888 29.8850 40.78 56.10 6.44
24889 29.8860 54.56 55.82 7.44
24890 29.8870 45.31 55.58 6.77
24891 29.8880 38.80 55.36 6.22
24892 29.8890 39.84 55.18 6.34
24893 29.8900 51.14 55.01 7.22
24894 29.8910 41.87 54.86 6.57
24895 29.8920 34.16 54.72 5.92
24896 29.8930 31.88 54.60 5.67
24897 29.8940 42.75 54.50 6.57
24898 29.8950 33.02 54.40 5.79
24899 29.8960 36.09 54.32 6.08
24900 29.8970 39.30 54.24 6.28
24901 29.8980 33.09 54.17 5.74
24902 29.8990 41.73 54.11 6.47
24903 29.9000 34.96 54.05 5.98
24904 29.9010 37.09 54.00 6.16
24905 29.9020 46.17 53.96 6.85
24906 29.9030 34.97 53.92 5.97
24907 29.9040 31.38 53.88 5.65
24908 29.9050 30.33 53.85 5.60
24909 29.9060 33.59 53.82 5.84
24910 29.9070 49.10 53.79 7.03
24911 29.9080 45.41 53.76 6.74
24912 29.9090 44.61 53.74 6.68
24913 29.9100 40.41 53.72 6.43
24914 29.9110 37.24 53.71 6.20
24915 29.9120 38.60 53.69 6.27
24916 29.9130 39.42 53.68 6.32
24917 29.9140 39.26 53.67 6.30
24918 29.9150 43.88 53.66 6.66
24919 29.9160 40.18 53.65 6.38
24920 29.9170 37.57 53.64 6.12
24921 29.9180 39.67 53.64 6.29
24922 29.9190 42.14 53.63 6.50
24923 29.9200 36.22 53.63 6.09
24924 29.9210 34.08 53.62 5.93
24925 29.9220 42.72 53.62 6.60
24926 29.9230 48.23 53.62 6.98
24927 29.9240 34.65 53.62 5.91
24928 29.9250 37.38 53.62 6.14
24929 29.9260 42.37 53.63 6.55
24930 29.9270 48.87 53.63 6.99
24931 29.9280 41.42 53.63 6.43
24932 29.9290 30.31 53.64 5.56
24933 29.9300 35.76 53.64 6.08
24934 29.9310 33.93 53.64 5.95
24935 29.9320 25.56 53.65 5.12
24936 29.9330 42.48 53.66 6.54
24937 29.9340 40.97 53.66 6.40
24938 29.9350 47.79 53.67 6.93
24939 29.9360 34.79 53.68 5.93
24940 29.9370 37.72 53.68 6.15
24941 29.9380 41.96 53.69 6.48
24942 29.9390 35.60 53.70 5.99
24943 29.9400 33.34 53.71 5.87
24944 29.9410 38.16 53.72 6.29
24945 29.9420 44.39 53.73 6.72
24946 29.9430 33.48 53.74 5.82
24947 29.9440 39.04 53.75 6.24
24948 29.9450 33.75 53.76 5.84
24949 29.9460 42.19 53.77 6.55
24950 29.9470 38.37 53.78 6.19
24951 29.9480 37.96 53.79 6.16
24952 29.9490 35.72 53.80 5.97
24953 29.9500 40.55 53.82 6.43
24954 29.9510 41.30 53.83 6.53
24955 29.9520 41.73 53.84 6.53
24956 29.9530 40.74 53.85 6.44
24957 29.9540 44.54 53.87 6.69
24958 29.9550 45.38 53.88 6.80
24959 29.9560 45.22 53.89 6.77
24960 29.9570 47.53 53.91 6.90
24961 29.9580 47.15 53.92 6.86
24962 29.9590 46.77 53.93 6.85
24963 29.9600 37.97 53.94 6.23
24964 29.9610 47.39 53.96 6.99
24965 29.9620 51.00 53.97 7.22
24966 29.9630 34.53 53.98 5.90
24967 29.9640 41.78 53.99 6.51
24968 29.9650 40.08 54.01 6.37
24969 29.9660 48.79 54.02 7.01
24970 29.9670 36.88 54.03 6.08
24971 29.9680 41.31 54.05 6.41
24972 29.9690 46.86 54.06 6.86
24973 29.9700 51.00 54.07 7.21
24974 29.9710 33.04 54.09 5.86
24975 29.9720 37.71 54.10 6.21
24976 29.9730 39.23 54.11 6.29
24977 29.9740 43.59 54.13 6.62
24978 29.9750 49.25 54.14 7.04
24979 29.9760 42.90 54.16 6.60
24980 29.9770 42.74 54.17 6.54
24981 29.9780 37.04 54.19 6.10
24982 29.9790 42.29 54.20 6.54
24983 29.9800 32.73 54.22 5.82
24984 29.9810 48.13 54.23 7.06
24985 29.9820 31.99 54.24 5.74
24986 29.9830 48.77 54.26 6.99
24987 29.9840 45.63 54.28 6.78
24988 29.9850 34.36 54.29 5.91
24989 29.9860 41.77 54.31 6.50
24990 29.9870 39.44 54.32 6.28
24991 29.9880 39.18 54.34 6.27
24992 29.9890 40.78 54.35 6.41
24993 29.9900 41.95 54.38 6.54
24994 29.9910 37.98 54.40 6.24
24995 29.9920 40.19 54.42 6.39
24996 29.9930 30.58 54.43 5.56
24997 29.9940 30.96 54.45 5.60
24998 29.9950 36.71 54.46 6.09
24999 29.9960 40.50 54.48 6.42
25000 29.9970 44.84 54.49 6.70
loop_
_pd_proc_info_excluded_regions
'from 30 to 100.000'
