#------------------------------------------------------------------------------
#$Date: 2020-11-24 07:07:10 +0200 (Tue, 24 Nov 2020) $
#$Revision: 259224 $
#$URL: file:///home/coder/svn-repositories/cod/cif/2/10/86/2108693.cif $
#------------------------------------------------------------------------------
#
# This file is available in the Crystallography Open Database (COD),
# http://www.crystallography.net/. The original data for this entry
# were provided by IUCr Journals, http://journals.iucr.org/.
#
# The file may be used within the scientific community so long as
# proper attribution is given to the journal article from which the
# data were obtained.
#
data_2108693
loop_
_publ_author_name
'Lindenthal, Lorenz'
'Ruh, Thomas'
'Rameshan, Raffael'
'Summerer, Harald'
'Nenning, Andreas'
'Herzig, Christopher'
'L\"offler, Stefan'
'Limbeck, Andreas'
'Opitz, Alexander Karl'
'Blaha, Peter'
'Rameshan, Christoph'
_publ_section_title
;
 Ca-doped rare earth perovskite materials for tailored exsolution of metal
 nanoparticles
;
_journal_issue                   6
_journal_name_full               'Acta Crystallographica Section B'
_journal_page_first
;
;
_journal_paper_doi               10.1107/S2052520620013475
_journal_volume                  76
_journal_year                    2020
_chemical_formula_structural     'La0.6 Ca0.4 Fe O3'
_chemical_formula_sum            'Ca0.4 Fe La0.6 O3'
_chemical_formula_weight         203.22
_chemical_name_common
;
Lanthanum calcium ferrite
;
_chemical_name_systematic
;
Lanthanum calcium iron oxide
;
_space_group_crystal_system      orthorhombic
_space_group_IT_number           62
_space_group_name_Hall           '-P 2ac 2n'
_space_group_name_H-M_alt        'P n m a'
_symmetry_Int_Tables_number      62
_symmetry_space_group_name_H-M   'P n m a'
_cell_angle_alpha                90
_cell_angle_beta                 90
_cell_angle_gamma                90
_cell_formula_units_Z            4
_cell_length_a                   5.506428
_cell_length_b                   7.776180
_cell_length_c                   5.529845
_cell_measurement_temperature    295
_cell_volume                     236.782
_computing_structure_refinement  'HighScore Plus 4.8.0'
_diffrn_ambient_temperature      295
_diffrn_measurement_device_type  'PANalytical X'Pert Pro'
_diffrn_radiation_probe          x-ray
_diffrn_radiation_type           'Cu K\a~1+2~'
_diffrn_radiation_wavelength     1.540598
_diffrn_source                   'sealed X-ray tube'
_diffrn_source_target            Cu
_exptl_crystal_density_diffrn    5.69987633
_exptl_crystal_density_method    'not measured'
_exptl_crystal_F_000             368.80000000
_pd_instr_cons_illum_flag        no
_pd_meas_2theta_range_inc        0.02000000
_pd_meas_2theta_range_max        119.96302676
_pd_meas_2theta_range_min        15.00302676
_pd_meas_datetime_initiated      '9/5/2018 3:29:38 PM'
_pd_meas_number_of_points        5249
_pd_meas_scan_method             step
_pd_proc_2theta_range_inc        0.02000000
_pd_proc_2theta_range_max        119.96302676
_pd_proc_2theta_range_min        15.00302676
_pd_proc_ls_background_function  'Vorhandenen Untergrund benutzen'
_pd_proc_ls_pref_orient_corr     'March/Dollase Modell'
_pd_proc_ls_profile_function     Pseudo-Voigt
_pd_proc_ls_prof_R_factor        0.02330081
_pd_proc_ls_prof_wR_expected     0.02067604
_pd_proc_ls_prof_wR_factor       0.03064661
_pd_proc_number_of_points        5249
_pd_spec_mounting                'Si single crystal'
_pd_spec_mount_mode              reflection
_pd_spec_shape                   irregular
_refine_ls_goodness_of_fit_all   1.48222827
_refine_ls_matrix_type           full
_refine_ls_R_I_factor            0.03655705
_refine_ls_weighting_details     1/[Y~i~+\s(Y~i~)]
_refine_ls_weighting_scheme      sigma
_reflns_d_resolution_high        0.893
_reflns_d_resolution_low         4.451
_reflns_limit_h_max              6
_reflns_limit_h_min              0
_reflns_limit_k_max              8
_reflns_limit_k_min              0
_reflns_limit_l_max              6
_reflns_limit_l_min              0
_reflns_number_observed          193
_cod_data_source_file            je5034sup1.cif
_cod_data_source_block           La0.6_Rietveld
_cod_original_cell_volume        236.782300
_cod_original_formula_sum        'La0.6 Ca0.4 Fe O3'
_cod_database_code               2108693
_xact_pref_orient_vector_h       0.00000000
_xact_pref_orient_vector_k       0.00000000
_xact_pref_orient_vector_l       1.00000000
_xact_pref_orient_param          1.000000
_xact_scale_factor               0.001282
_xact_cagliotti_u                0.500480
_xact_cagliotti_v                0.000000
_xact_cagliotti_w                0.169821
_xact_shape_param_1              0.600000
_xact_shape_param_2              0.000000
_xact_shape_param_3              0.000000
_xact_asym_param_1               0.025000
_xact_asym_param_2               0.025000
loop_
_symmetry_equiv_pos_as_xyz
'x, y, z'
'-x+1/2, -y, z+1/2'
'x+1/2, -y+1/2, -z+1/2'
'-x, y+1/2, -z'
'-x, -y, -z'
'x+1/2, y, -z+1/2'
'-x+1/2, y+1/2, z+1/2'
'x, -y+1/2, z'
loop_
_atom_site_label
_atom_site_type_symbol
_atom_site_fract_x
_atom_site_fract_y
_atom_site_fract_z
_atom_site_U_iso_or_equiv
_atom_site_thermal_displace_type
_atom_site_occupancy
_atom_site_symmetry_multiplicity
_atom_site_Wyckoff_symbol
_atom_site_calc_flag
O1 O 0.476410 0.250000 0.571026 0.008992 Uiso 1.000000 4 c d
O2 O 0.211246 0.036250 0.287371 0.008992 Uiso 1.000000 8 d d
FE1 Fe 0.000000 0.000000 0.000000 0.012412 Uiso 1.000000 4 a d
LA1 La 0.489118 0.250000 0.000262 0.008992 Uiso 0.600000 4 c d
CA1 Ca 0.489118 0.250000 0.000262 0.008992 Uiso 0.400000 4 c d
loop_
_pd_meas_intensity_total
_pd_proc_ls_weight
_pd_proc_intensity_bgk_calc
_pd_calc_intensity_total
1960.3703 0.000510 1960.3703 1960.3703
1945.6862 0.000514 1958.5815 1958.5815
1928.7039 0.000518 1956.7927 1956.7927
1920.6513 0.000521 1955.0040 1955.0040
1937.1838 0.000516 1953.2152 1953.2152
1933.8226 0.000517 1951.4265 1951.4265
1901.8069 0.000526 1949.6377 1949.6377
1967.5633 0.000508 1947.8489 1947.8489
1939.8551 0.000516 1946.0602 1946.0602
1938.8688 0.000516 1944.2714 1944.2714
1902.9588 0.000525 1942.4827 1942.4827
1934.2238 0.000517 1940.6939 1940.6939
1974.7493 0.000506 1938.9052 1938.9052
1971.6386 0.000507 1937.1164 1937.1164
1859.6757 0.000538 1935.3276 1935.3276
1851.8802 0.000540 1933.5389 1933.5389
1922.9445 0.000520 1931.7501 1931.7501
1978.5244 0.000505 1929.9614 1929.9614
1945.6848 0.000514 1928.1726 1928.1726
1965.4708 0.000509 1926.3838 1926.3838
1948.8380 0.000513 1924.5951 1924.5951
1915.3112 0.000522 1922.8063 1922.8063
1922.1819 0.000520 1921.0176 1921.0176
1923.7338 0.000520 1919.2288 1919.2288
1956.1936 0.000511 1917.4400 1917.4400
1956.6477 0.000511 1915.6513 1915.6513
1950.4203 0.000513 1913.8625 1913.8625
1890.7331 0.000529 1912.0738 1912.0738
1898.8615 0.000527 1910.2850 1910.2850
1915.0099 0.000522 1908.4963 1908.4963
1884.8676 0.000531 1906.7075 1906.7075
1908.2862 0.000524 1904.9187 1904.9187
1883.2381 0.000531 1903.1300 1903.1301
1878.3038 0.000532 1901.3412 1901.3413
1874.4758 0.000533 1899.5525 1899.5525
1834.6352 0.000545 1897.7637 1897.7638
1824.1728 0.000548 1895.9749 1895.9751
1855.4603 0.000539 1894.1862 1894.1863
1943.7610 0.000514 1892.3974 1892.3975
1932.6574 0.000517 1890.6087 1890.6088
1889.5127 0.000529 1888.8199 1888.8200
1876.7190 0.000533 1887.0312 1887.0313
1874.0574 0.000534 1885.2424 1885.2425
1890.8972 0.000529 1883.4536 1883.4538
1898.0000 0.000527 1881.6649 1881.6650
1863.8543 0.000537 1880.6365 1880.6366
1879.8454 0.000532 1879.6080 1879.6082
1887.6393 0.000530 1878.5796 1878.5798
1883.5383 0.000531 1877.5512 1877.5513
1897.8398 0.000527 1876.5228 1876.5229
1880.4156 0.000532 1875.4944 1875.4945
1876.0903 0.000533 1874.4660 1874.4661
1866.9743 0.000536 1873.4375 1873.4377
1864.7052 0.000536 1872.4091 1872.4093
1913.3968 0.000523 1871.3807 1871.3808
1908.2205 0.000524 1870.3523 1870.3524
1863.0938 0.000537 1869.3239 1869.3240
1849.3316 0.000541 1868.2954 1868.2956
1820.7461 0.000549 1867.2670 1867.2672
1805.7006 0.000554 1866.2386 1866.2388
1848.2384 0.000541 1865.2102 1865.2103
1903.8454 0.000525 1864.1818 1864.1819
1912.3659 0.000523 1863.1534 1863.1535
1864.8114 0.000536 1862.1249 1862.1251
1836.5003 0.000545 1861.0965 1861.0967
1849.9630 0.000541 1860.0681 1860.0683
1850.0744 0.000541 1859.0397 1859.0398
1863.6648 0.000537 1858.0113 1858.0114
1872.2769 0.000534 1856.9828 1856.9830
1845.8596 0.000542 1855.9544 1855.9546
1830.0640 0.000546 1854.9260 1854.9262
1814.0411 0.000551 1853.8976 1853.8978
1843.0380 0.000543 1852.8692 1852.8693
1859.5837 0.000538 1851.8408 1851.8409
1843.9334 0.000542 1850.8123 1850.8125
1886.1800 0.000530 1849.7839 1849.7841
1874.9001 0.000533 1848.7555 1848.7557
1821.5055 0.000549 1847.7271 1847.7273
1852.2660 0.000540 1846.6987 1846.6989
1890.3603 0.000529 1845.6703 1845.6704
1856.4510 0.000539 1844.6418 1844.6420
1846.1838 0.000542 1843.6134 1843.6136
1885.8309 0.000530 1842.5850 1842.5852
1920.6521 0.000521 1841.5566 1841.5568
1864.9558 0.000536 1840.5282 1840.5284
1854.8291 0.000539 1839.4997 1839.4999
1886.2823 0.000530 1838.4713 1838.4715
1844.7728 0.000542 1837.4429 1837.4431
1845.1007 0.000542 1836.4145 1836.4147
1811.9348 0.000552 1835.7915 1835.7917
1811.5460 0.000552 1835.1685 1835.1687
1863.6863 0.000537 1834.5456 1834.5458
1858.5282 0.000538 1833.9226 1833.9228
1827.8335 0.000547 1833.2996 1833.2998
1841.4803 0.000543 1832.6766 1832.6768
1835.9136 0.000545 1832.0536 1832.0539
1814.3422 0.000551 1831.4307 1831.4309
1797.8868 0.000556 1830.8077 1830.8079
1836.1475 0.000545 1830.1847 1830.1849
1835.2182 0.000545 1829.5617 1829.5619
1829.4534 0.000547 1828.9387 1828.9390
1845.0319 0.000542 1828.3158 1828.3160
1799.4828 0.000556 1827.6928 1827.6930
1843.6650 0.000542 1827.0698 1827.0700
1838.7192 0.000544 1826.4468 1826.4471
1837.7975 0.000544 1825.8238 1825.8241
1805.9915 0.000554 1825.2009 1825.2011
1812.5996 0.000552 1824.5779 1824.5781
1840.3928 0.000543 1823.9549 1823.9552
1811.8957 0.000552 1823.3319 1823.3322
1850.5270 0.000540 1822.7089 1822.7092
1854.2542 0.000539 1822.0860 1822.0862
1846.5123 0.000542 1821.4630 1821.4633
1883.8785 0.000531 1820.8400 1820.8403
1894.8141 0.000528 1820.2170 1820.2173
1775.9851 0.000563 1819.5940 1819.5943
1783.9874 0.000561 1818.9710 1818.9714
1849.2429 0.000541 1818.3481 1818.3484
1817.8994 0.000550 1817.7251 1817.7254
1799.5323 0.000556 1817.1021 1817.1024
1812.6607 0.000552 1816.4791 1816.4795
1829.5226 0.000547 1815.8561 1815.8565
1821.4292 0.000549 1815.2332 1815.2335
1793.4256 0.000558 1814.6102 1814.6105
1801.0197 0.000555 1813.9872 1813.9876
1829.6402 0.000547 1813.3642 1813.3646
1845.5342 0.000542 1812.7412 1812.7416
1785.2795 0.000560 1812.1183 1812.1186
1797.4900 0.000556 1811.4953 1811.4957
1773.9592 0.000564 1810.8723 1810.8727
1778.9716 0.000562 1810.2493 1810.2497
1807.3387 0.000553 1809.6263 1809.6267
1851.8513 0.000540 1809.0034 1809.0038
1821.3668 0.000549 1808.3258 1808.3262
1813.2639 0.000551 1807.6482 1807.6486
1793.7736 0.000557 1806.9707 1806.9711
1749.8623 0.000571 1806.2931 1806.2935
1821.2727 0.000549 1805.6155 1805.6160
1837.6555 0.000544 1804.9380 1804.9384
1838.0074 0.000544 1804.2604 1804.2608
1811.6183 0.000552 1803.5828 1803.5833
1831.7055 0.000546 1802.9053 1802.9057
1806.4851 0.000554 1802.2277 1802.2282
1758.8562 0.000569 1801.5501 1801.5506
1796.5952 0.000557 1800.8726 1800.8731
1806.3627 0.000554 1800.1950 1800.1955
1801.7428 0.000555 1799.5174 1799.5179
1847.1760 0.000541 1798.8399 1798.8404
1809.2749 0.000553 1798.1623 1798.1628
1821.7125 0.000549 1797.4847 1797.4853
1782.6639 0.000561 1796.8072 1796.8077
1747.4817 0.000572 1796.1296 1796.1302
1784.8412 0.000560 1795.4520 1795.4526
1862.2625 0.000537 1794.7745 1794.7751
1828.7042 0.000547 1794.0969 1794.0975
1759.8005 0.000568 1793.4193 1793.4199
1822.8962 0.000549 1792.7418 1792.7424
1779.8640 0.000562 1792.0642 1792.0648
1827.2491 0.000547 1791.3866 1791.3873
1826.2747 0.000548 1790.7091 1790.7097
1825.6322 0.000548 1790.0315 1790.0322
1812.7519 0.000552 1789.3539 1789.3546
1743.2156 0.000574 1788.6764 1788.6771
1811.9773 0.000552 1787.9988 1787.9995
1867.6994 0.000535 1787.3212 1787.3220
1854.3289 0.000539 1786.6437 1786.6444
1801.0888 0.000555 1785.9661 1785.9669
1803.8531 0.000554 1785.2885 1785.2893
1819.1061 0.000550 1784.6110 1784.6118
1810.3517 0.000552 1783.9334 1783.9342
1831.0984 0.000546 1783.2558 1783.2567
1788.2778 0.000559 1782.5783 1782.5792
1750.6942 0.000571 1781.9007 1781.9016
1757.2091 0.000569 1781.2231 1781.2241
1785.2496 0.000560 1780.5456 1780.5465
1864.7328 0.000536 1779.8680 1779.8690
1768.0110 0.000566 1779.1904 1779.1915
1774.4126 0.000564 1778.5129 1778.5139
1773.4813 0.000564 1777.8353 1777.8364
1793.4898 0.000558 1777.1577 1777.1588
1779.7628 0.000562 1776.4802 1776.4813
1776.7020 0.000563 1775.8026 1775.8038
1787.6488 0.000559 1775.1250 1775.1262
1659.3624 0.000603 1774.4475 1774.8163
1775.5291 0.000563 1773.7699 1774.1421
1751.3123 0.000571 1773.0923 1773.4680
1787.3366 0.000559 1772.4148 1772.9780
1832.2413 0.000546 1771.7372 1772.4871
1786.4495 0.000560 1771.0596 1771.8166
1765.5056 0.000566 1770.3821 1771.1461
1750.1285 0.000571 1769.7045 1770.5666
1768.0868 0.000566 1769.0269 1769.8972
1789.0021 0.000559 1768.3494 1769.2279
1720.8184 0.000581 1767.6718 1768.5588
1811.8469 0.000552 1766.9942 1767.8897
1794.6077 0.000557 1766.3167 1767.2208
1704.2158 0.000587 1765.6391 1766.5520
1719.6109 0.000582 1764.9615 1765.8834
1744.8243 0.000573 1764.2840 1765.2149
1801.9043 0.000555 1763.6064 1764.5465
1782.8331 0.000561 1762.9288 1763.8782
1740.3719 0.000575 1762.2513 1763.2101
1724.6389 0.000580 1761.5737 1762.5422
1772.4193 0.000564 1760.8961 1761.8743
1753.1045 0.000570 1760.2186 1761.2067
1742.2266 0.000574 1759.5410 1760.5392
1761.7519 0.000568 1758.8634 1759.8718
1791.9590 0.000558 1758.1859 1759.2047
1805.2075 0.000554 1757.5083 1758.5377
1739.2432 0.000575 1756.8307 1757.8708
1743.3720 0.000574 1756.1532 1757.2041
1705.9686 0.000586 1755.4756 1756.5377
1764.9640 0.000567 1754.7980 1755.8714
1713.8018 0.000583 1754.1205 1755.2053
1791.3987 0.000558 1753.4429 1754.5394
1789.1795 0.000559 1752.7653 1753.8737
1735.8491 0.000576 1752.0878 1753.2082
1747.6668 0.000572 1751.4102 1752.5430
1782.8430 0.000561 1750.7326 1751.8780
1779.2879 0.000562 1750.0551 1751.2132
1856.4585 0.000539 1749.3775 1750.5488
1739.2991 0.000575 1748.6454 1749.8300
1723.1330 0.000580 1747.9132 1749.1115
1761.5888 0.000568 1747.1810 1748.3934
1773.8473 0.000564 1746.4489 1747.6757
1688.4848 0.000592 1745.7167 1746.9583
1761.4735 0.000568 1744.9846 1746.2414
1764.6860 0.000567 1744.2524 1745.5250
1725.5366 0.000580 1743.5203 1744.8090
1849.7654 0.000541 1742.7881 1744.0936
1775.7644 0.000563 1742.0560 1743.3787
1657.6291 0.000603 1741.3238 1742.6645
1692.9707 0.000591 1740.5917 1741.9509
1820.1186 0.000549 1739.8595 1741.2379
1798.5092 0.000556 1739.1274 1740.5256
1710.6682 0.000585 1738.3952 1739.8139
1811.5664 0.000552 1737.6631 1739.1029
1775.5111 0.000563 1736.9309 1738.3925
1713.9974 0.000583 1736.1988 1737.6827
1740.8682 0.000574 1735.4666 1736.9733
1739.1198 0.000575 1734.7344 1736.2644
1805.6469 0.000554 1734.0023 1735.5557
1759.4219 0.000568 1733.2701 1734.8472
1812.7056 0.000552 1732.5380 1734.1385
1712.4902 0.000584 1731.8058 1733.4296
1736.4749 0.000576 1731.0737 1732.7202
1706.4994 0.000586 1730.3415 1732.0101
1740.9652 0.000574 1729.6094 1731.2992
1737.5981 0.000576 1728.8772 1730.5874
1693.0564 0.000591 1728.1451 1729.8748
1702.1833 0.000587 1727.4129 1729.1615
1752.9048 0.000570 1726.6808 1728.4476
1650.1797 0.000606 1725.9486 1727.7334
1806.3070 0.000554 1725.2165 1727.0191
1752.3895 0.000571 1724.4843 1726.3048
1715.3608 0.000583 1723.7521 1725.5909
1774.2548 0.000564 1723.0200 1724.8774
1726.7394 0.000579 1722.2878 1724.1645
1766.2719 0.000566 1721.5557 1723.4523
1727.8171 0.000579 1720.8235 1722.7409
1744.5843 0.000573 1720.0914 1722.0304
1734.2834 0.000577 1719.3592 1721.3208
1640.7297 0.000609 1718.6271 1720.6122
1665.1291 0.000601 1717.8949 1719.9045
1767.4539 0.000566 1717.1628 1719.1978
1729.5670 0.000578 1716.6265 1718.6879
1768.3574 0.000565 1716.0903 1718.1791
1713.4650 0.000584 1715.5541 1717.6712
1735.8443 0.000576 1715.0178 1717.1642
1778.9268 0.000562 1714.4816 1716.6582
1704.0327 0.000587 1713.9454 1716.1531
1740.7444 0.000574 1713.4091 1715.6490
1781.7399 0.000561 1712.8729 1715.1458
1727.4676 0.000579 1712.3367 1714.6434
1741.8512 0.000574 1711.8004 1714.1420
1694.2828 0.000590 1711.2642 1713.6416
1703.1446 0.000587 1710.7280 1713.1420
1730.0829 0.000578 1710.1917 1712.6434
1728.2846 0.000579 1709.6555 1712.1458
1723.3690 0.000580 1709.1193 1711.6491
1713.7648 0.000584 1708.5830 1711.1535
1759.9636 0.000568 1708.0468 1710.6589
1742.8817 0.000574 1707.5106 1710.1653
1711.7035 0.000584 1706.9743 1709.6729
1734.5597 0.000577 1706.4381 1709.1815
1707.8743 0.000586 1705.9019 1708.6913
1689.5723 0.000592 1705.3656 1708.2023
1683.4758 0.000594 1704.8294 1707.7145
1650.5218 0.000606 1704.2932 1707.2280
1632.6080 0.000613 1703.7569 1706.7428
1697.3657 0.000589 1703.2207 1706.2590
1723.7775 0.000580 1702.6845 1705.7766
1741.1554 0.000574 1702.1482 1705.2956
1669.2274 0.000599 1701.6120 1704.8161
1652.9107 0.000605 1701.0758 1704.3382
1702.3588 0.000587 1700.5395 1703.8619
1682.5754 0.000594 1700.0033 1703.3873
1669.3403 0.000599 1699.4671 1702.9144
1703.8947 0.000587 1698.9308 1702.4433
1702.0175 0.000588 1698.3946 1701.9741
1729.7147 0.000578 1697.8584 1701.5068
1759.1568 0.000568 1697.3221 1701.0415
1733.5966 0.000577 1696.7859 1700.5783
1645.3727 0.000608 1696.2496 1700.1173
1625.1243 0.000615 1695.7134 1699.6585
1689.9735 0.000592 1695.1772 1699.2021
1683.0633 0.000594 1694.6409 1698.7482
1634.0211 0.000612 1694.1047 1698.2968
1730.4014 0.000578 1693.5685 1697.8480
1717.6935 0.000582 1693.4159 1697.7857
1664.7666 0.000601 1693.2634 1697.7263
1689.6314 0.000592 1693.1108 1697.6699
1665.8278 0.000600 1692.9583 1697.6166
1700.1014 0.000588 1692.8057 1697.5665
1661.3644 0.000602 1692.6532 1697.5199
1676.9033 0.000596 1692.5007 1697.4768
1753.1598 0.000570 1692.3481 1697.4375
1745.7312 0.000573 1692.1956 1697.4021
1767.3073 0.000566 1692.0430 1697.3762
1740.2227 0.000575 1691.8905 1697.3492
1719.1150 0.000582 1691.7379 1697.3266
1680.1798 0.000595 1691.5854 1697.3115
1715.8170 0.000583 1691.4328 1697.2985
1746.2189 0.000573 1691.2803 1697.2906
1800.9774 0.000555 1691.1277 1697.2882
1784.0769 0.000561 1690.9752 1697.2914
1791.4135 0.000558 1690.8226 1697.3006
1822.1347 0.000549 1690.6701 1697.3161
1810.7055 0.000552 1690.5175 1697.3381
1740.9951 0.000574 1690.3650 1697.3671
1749.2824 0.000572 1690.2124 1697.4033
1720.5668 0.000581 1690.0599 1697.4473
1702.3679 0.000587 1689.9074 1697.4994
1733.6289 0.000577 1689.7548 1697.5600
1672.0748 0.000598 1689.6023 1697.6297
1766.1791 0.000566 1689.4497 1697.7090
1744.8158 0.000573 1689.2972 1697.7983
1719.7433 0.000581 1689.1446 1697.8984
1758.5110 0.000569 1688.9921 1698.0098
1740.3579 0.000575 1688.8395 1698.1333
1697.4111 0.000589 1688.6870 1698.2695
1709.0607 0.000585 1688.5344 1698.4192
1716.0000 0.000583 1688.3819 1698.5834
1759.0565 0.000568 1688.2293 1698.7628
1809.1300 0.000553 1688.0768 1698.9586
1748.9963 0.000572 1687.9242 1699.1718
1682.3999 0.000594 1687.7717 1699.4035
1735.0231 0.000576 1687.6192 1699.6551
1724.6086 0.000580 1687.4666 1699.9278
1695.2553 0.000590 1687.3141 1700.2233
1686.7899 0.000593 1687.1615 1700.5430
1725.6373 0.000579 1687.0090 1700.8888
1699.7754 0.000588 1686.8564 1701.2626
1694.4729 0.000590 1686.6585 1701.6212
1736.4790 0.000576 1686.4606 1702.0122
1731.4696 0.000578 1686.2627 1702.4383
1703.8210 0.000587 1686.0648 1702.9022
1711.0782 0.000584 1685.8669 1703.4072
1748.4750 0.000572 1685.6690 1703.9569
1748.8846 0.000572 1685.4712 1704.5552
1743.2900 0.000574 1685.2733 1705.2067
1724.6093 0.000580 1685.0754 1705.9169
1688.8134 0.000592 1684.8775 1706.6918
1712.8018 0.000584 1684.6796 1707.5388
1781.1489 0.000561 1684.4817 1708.4666
1753.1439 0.000570 1684.2838 1709.4859
1719.2022 0.000582 1684.0859 1710.6096
1747.8747 0.000572 1683.8880 1711.8536
1714.7944 0.000583 1683.6901 1713.2376
1748.5646 0.000572 1683.4922 1714.7861
1766.4835 0.000566 1683.2943 1716.5295
1796.3516 0.000557 1683.0964 1718.5054
1751.6601 0.000571 1682.8985 1720.7601
1783.7776 0.000561 1682.7006 1723.3505
1779.3681 0.000562 1682.5027 1726.3454
1758.3102 0.000569 1682.3048 1729.8275
1812.7205 0.000552 1682.1069 1733.8948
1845.6524 0.000542 1681.9090 1738.6619
1852.6337 0.000540 1681.7112 1744.2605
1903.7877 0.000525 1681.5133 1750.8398
1924.4036 0.000520 1681.3154 1758.5652
1886.0325 0.000530 1681.1175 1767.6166
1832.4818 0.000546 1680.9196 1778.1843
1949.5610 0.000513 1680.7217 1790.4649
1929.3375 0.000518 1680.5238 1804.6538
1899.2282 0.000527 1680.3259 1820.9382
1925.0934 0.000519 1680.1280 1839.4865
1975.1041 0.000506 1679.9301 1860.4381
1997.7295 0.000501 1679.7322 1883.8905
2077.3406 0.000481 1679.5343 1909.8863
2132.8191 0.000469 1679.3364 1938.3981
2156.1907 0.000464 1679.1385 1969.3126
2120.7799 0.000472 1678.9406 2002.4122
2201.8373 0.000454 1678.7427 2037.3553
2277.9081 0.000439 1678.5448 2073.6547
2221.1079 0.000450 1678.3469 2110.6574
2299.8727 0.000435 1678.1490 2147.5296
2433.9026 0.000411 1677.9511 2183.2566
2482.3459 0.000403 1677.7533 2216.6668
2452.6452 0.000408 1677.5554 2246.4903
2494.1504 0.000401 1677.3575 2271.4524
2555.0173 0.000391 1677.1596 2290.3936
2585.5351 0.000387 1676.9617 2302.3920
2519.4287 0.000397 1676.7638 2306.8626
2428.0756 0.000412 1676.5659 2303.6152
2426.1859 0.000412 1676.3680 2292.8633
2440.0638 0.000410 1676.1701 2275.1878
2422.8014 0.000413 1675.9722 2251.4651
2389.8881 0.000418 1675.7743 2222.7738
2269.7398 0.000441 1675.5764 2190.2950
2158.2536 0.000463 1675.3785 2155.2199
2106.1752 0.000475 1675.1806 2118.6750
2099.5668 0.000476 1674.9827 2081.6685
1979.9397 0.000505 1674.7848 2045.0593
1951.6030 0.000512 1674.5869 2009.5455
1972.8971 0.000507 1674.3890 1975.6668
1968.1795 0.000508 1674.1911 1943.8164
1917.6133 0.000521 1673.9933 1914.2584
1861.1136 0.000537 1673.7954 1887.1455
1858.5525 0.000538 1673.5975 1862.5376
1837.0054 0.000544 1673.3996 1840.4183
1812.4337 0.000552 1673.2017 1820.7108
1826.0584 0.000548 1673.0038 1803.2923
1810.5723 0.000552 1672.8059 1788.0067
1806.1067 0.000554 1672.6080 1774.6760
1788.5167 0.000559 1672.4101 1763.1107
1769.2786 0.000565 1672.2122 1753.1178
1786.3742 0.000560 1672.0143 1744.5080
1773.5021 0.000564 1671.8164 1737.1008
1720.7168 0.000581 1671.6185 1730.7286
1735.0857 0.000576 1671.4206 1725.2388
1770.1924 0.000565 1671.2227 1720.4954
1727.2693 0.000579 1671.0248 1716.3791
1709.4550 0.000585 1670.8269 1712.7872
1729.1250 0.000578 1670.6290 1709.6322
1736.5491 0.000576 1670.4311 1706.8405
1723.2780 0.000580 1670.2332 1704.3512
1742.8099 0.000574 1670.0354 1702.1139
1745.8870 0.000573 1669.8375 1700.0878
1691.5398 0.000591 1669.6396 1698.2396
1634.7355 0.000612 1669.4417 1696.5422
1643.4681 0.000608 1669.1777 1694.9079
1693.8761 0.000590 1668.9137 1693.3851
1740.0782 0.000575 1668.6497 1691.9596
1707.6429 0.000586 1668.3857 1690.6196
1686.0442 0.000593 1668.1217 1689.3556
1756.5704 0.000569 1667.8577 1688.1596
1747.9323 0.000572 1667.5937 1687.0248
1692.7407 0.000591 1667.3297 1685.9455
1720.2551 0.000581 1667.0657 1684.9168
1753.4768 0.000570 1666.8017 1683.9344
1765.5880 0.000566 1666.5377 1682.9944
1752.8291 0.000571 1666.2737 1682.0936
1685.7804 0.000593 1666.0097 1681.2290
1699.8994 0.000588 1665.7457 1680.3979
1695.7596 0.000590 1665.4817 1679.5978
1714.0756 0.000583 1665.2177 1678.8266
1701.9933 0.000588 1664.9537 1678.0822
1684.7626 0.000594 1664.6897 1677.3628
1691.3134 0.000591 1664.4257 1676.6668
1706.9277 0.000586 1664.1617 1675.9925
1722.9061 0.000580 1663.8977 1675.3386
1684.8627 0.000594 1663.6337 1674.7038
1693.3727 0.000591 1663.3697 1674.0869
1688.2707 0.000592 1663.1057 1673.4867
1650.9344 0.000606 1662.8417 1672.9023
1691.8438 0.000591 1662.5777 1672.3328
1688.0871 0.000592 1662.3137 1671.7772
1681.9045 0.000595 1662.0497 1671.2347
1677.4275 0.000596 1661.7857 1670.7046
1680.8207 0.000595 1661.5217 1670.1862
1682.2790 0.000594 1661.2577 1669.6788
1619.9797 0.000617 1660.9937 1669.1818
1619.6726 0.000617 1660.7297 1668.6947
1677.5492 0.000596 1660.4657 1668.2170
1689.7754 0.000592 1660.2017 1667.7481
1680.1952 0.000595 1659.9377 1667.2877
1673.0000 0.000598 1659.6737 1666.8352
1705.0001 0.000587 1659.4097 1666.3903
1709.6595 0.000585 1659.1457 1665.9527
1660.0965 0.000602 1658.8817 1665.5219
1676.8401 0.000596 1658.6177 1665.0976
1681.3695 0.000595 1658.3537 1664.6796
1708.2582 0.000585 1658.0897 1664.2676
1670.0799 0.000599 1657.8257 1663.8613
1618.4062 0.000618 1657.7923 1663.6911
1605.5232 0.000623 1657.7589 1663.5261
1648.3212 0.000607 1657.7255 1663.3661
1677.8894 0.000596 1657.6921 1663.2110
1735.9318 0.000576 1657.6588 1663.0604
1673.2510 0.000598 1657.6254 1662.9144
1627.7482 0.000614 1657.5920 1662.7727
1644.0919 0.000608 1657.5586 1662.6351
1618.3726 0.000618 1657.5252 1662.5015
1667.3722 0.000600 1657.4918 1662.3719
1636.2087 0.000611 1657.4584 1662.2461
1642.6385 0.000609 1657.4250 1662.1239
1685.9008 0.000593 1657.3916 1662.0055
1659.1573 0.000603 1657.3583 1661.8905
1648.4942 0.000607 1657.3249 1661.7791
1696.9187 0.000589 1657.2915 1661.6712
1652.3059 0.000605 1657.2581 1661.5668
1623.8255 0.000616 1657.2247 1661.4658
1675.6417 0.000597 1657.1913 1661.3685
1679.6513 0.000595 1657.1579 1661.2748
1688.1060 0.000592 1657.1245 1661.1849
1708.4456 0.000585 1657.0912 1661.0990
1720.6353 0.000581 1657.0578 1661.0174
1694.9106 0.000590 1657.0244 1660.9405
1640.6849 0.000610 1656.9910 1660.8688
1674.5338 0.000597 1656.9576 1660.8028
1728.2279 0.000579 1656.9242 1660.7432
1727.0439 0.000579 1656.8908 1660.6911
1708.9506 0.000585 1656.8574 1660.6473
1699.6602 0.000588 1656.8240 1660.6133
1711.5919 0.000584 1656.7907 1660.5903
1687.6266 0.000593 1656.7573 1660.5800
1713.9264 0.000583 1656.7239 1660.5842
1704.2883 0.000587 1656.6905 1660.6046
1695.5741 0.000590 1656.6571 1660.6432
1686.4312 0.000593 1656.6237 1660.7019
1725.2424 0.000580 1656.5903 1660.7827
1707.9569 0.000585 1656.5569 1660.8873
1680.7200 0.000595 1656.5235 1661.0171
1756.1084 0.000569 1656.4902 1661.1732
1733.4709 0.000577 1656.4568 1661.3562
1751.5339 0.000571 1656.4234 1661.5659
1737.4073 0.000576 1656.3900 1661.8015
1714.6674 0.000583 1656.3566 1662.0611
1747.8824 0.000572 1656.2681 1662.2866
1702.1401 0.000587 1656.1795 1662.5287
1769.6310 0.000565 1656.0909 1662.7816
1758.2997 0.000569 1656.0024 1663.0375
1799.7379 0.000556 1655.9138 1663.2868
1785.1065 0.000560 1655.8253 1663.5181
1745.8637 0.000573 1655.7367 1663.7181
1806.3116 0.000554 1655.6482 1663.8729
1768.9324 0.000565 1655.5596 1663.9689
1739.9208 0.000575 1655.4711 1663.9944
1780.3742 0.000562 1655.3825 1663.9411
1758.0107 0.000569 1655.2940 1663.8052
1715.9765 0.000583 1655.2054 1663.5881
1738.0721 0.000575 1655.1169 1663.2958
1650.8515 0.000606 1655.0283 1662.9382
1718.7666 0.000582 1654.9398 1662.5275
1781.8358 0.000561 1654.8512 1662.0773
1711.7286 0.000584 1654.7627 1661.6007
1707.5996 0.000586 1654.6741 1661.1101
1732.4672 0.000577 1654.5856 1660.6161
1672.4838 0.000598 1654.4970 1660.1274
1720.1013 0.000581 1654.4085 1659.6510
1741.5928 0.000574 1654.3199 1659.1924
1720.7414 0.000581 1654.2314 1658.7553
1723.2396 0.000580 1654.1428 1658.3423
1648.6179 0.000607 1654.0543 1657.9548
1636.6148 0.000611 1653.9657 1657.5935
1684.8032 0.000594 1653.8772 1657.2582
1683.3683 0.000594 1653.7886 1656.9480
1625.5416 0.000615 1653.7000 1656.6618
1647.5536 0.000607 1653.6115 1656.3979
1693.0045 0.000591 1653.5229 1656.1544
1666.3318 0.000600 1653.4344 1655.9295
1621.8907 0.000617 1653.3458 1655.7211
1700.6820 0.000588 1653.2573 1655.5273
1717.6075 0.000582 1653.1687 1655.3462
1746.8311 0.000572 1653.0802 1655.1761
1665.6700 0.000600 1652.9916 1655.0153
1633.8142 0.000612 1652.9031 1654.8626
1682.1341 0.000594 1652.8145 1654.7165
1625.8061 0.000615 1652.7260 1654.5761
1747.5533 0.000572 1652.6374 1654.4405
1656.9369 0.000604 1652.5489 1654.3089
1672.5582 0.000598 1652.4603 1654.1807
1669.5188 0.000599 1652.3718 1654.0553
1694.9473 0.000590 1652.2832 1653.9323
1638.1915 0.000610 1652.1947 1653.8114
1598.8715 0.000625 1652.1061 1653.6923
1630.8033 0.000613 1652.0176 1653.5748
1666.5159 0.000600 1651.9290 1653.4586
1609.1532 0.000621 1651.8405 1653.3437
1651.5076 0.000606 1651.7519 1653.2299
1604.9691 0.000623 1651.6634 1653.1171
1653.7677 0.000605 1651.5748 1653.0053
1641.5927 0.000609 1651.4863 1652.8943
1670.1589 0.000599 1651.3977 1652.7840
1620.5982 0.000617 1651.3092 1652.6746
1654.6888 0.000604 1651.2206 1652.5658
1633.2486 0.000612 1651.1320 1652.4576
1679.0851 0.000596 1651.0435 1652.3501
1605.6406 0.000623 1650.9549 1652.2431
1580.9604 0.000633 1650.8664 1652.1366
1634.8503 0.000612 1650.7778 1652.0307
1618.6307 0.000618 1650.6893 1651.9252
1660.5936 0.000602 1650.6007 1651.8202
1615.0000 0.000619 1650.5122 1651.7157
1617.4837 0.000618 1650.4236 1651.6115
1642.1156 0.000609 1650.3351 1651.5078
1611.1687 0.000621 1650.2465 1651.4044
1631.6156 0.000613 1650.1580 1651.3014
1571.1298 0.000636 1650.0694 1651.1987
1652.9862 0.000605 1649.9809 1651.0964
1691.4641 0.000591 1649.8923 1650.9944
1670.5770 0.000599 1649.8038 1650.8926
1676.4810 0.000596 1649.7152 1650.7912
1636.6483 0.000611 1649.6267 1650.6901
1618.1416 0.000618 1649.5381 1650.5892
1671.3206 0.000598 1649.4496 1650.4886
1674.4619 0.000597 1649.3610 1650.3882
1631.4727 0.000613 1649.2725 1650.2881
1712.0507 0.000584 1649.1839 1650.1882
1548.5915 0.000646 1649.0954 1650.0885
1630.7237 0.000613 1649.0068 1649.9891
1669.0066 0.000599 1648.9183 1649.8899
1595.0579 0.000627 1648.8297 1649.7908
1679.1659 0.000596 1648.7412 1649.6920
1653.8824 0.000605 1648.6526 1649.5933
1650.2674 0.000606 1648.5640 1649.4949
1661.8536 0.000602 1648.4203 1649.3414
1734.4315 0.000577 1648.2766 1649.1882
1616.2881 0.000619 1648.1329 1648.6684
1579.2731 0.000633 1647.9892 1648.5188
1596.4823 0.000626 1647.8455 1648.3693
1632.3218 0.000613 1647.7018 1648.0368
1662.0806 0.000602 1647.5580 1647.8891
1671.5904 0.000598 1647.4143 1647.5620
1596.0571 0.000627 1647.2706 1647.4161
1617.0025 0.000618 1647.1269 1647.1798
1665.8718 0.000600 1646.9832 1647.0349
1658.0423 0.000603 1646.8395 1646.8901
1686.7693 0.000593 1646.6958 1646.7452
1721.6282 0.000581 1646.5520 1646.6004
1677.5982 0.000596 1646.4083 1646.4557
1568.7558 0.000637 1646.2646 1646.3110
1600.3665 0.000625 1646.1209 1646.1663
1621.5527 0.000617 1645.9772 1646.0216
1672.7536 0.000598 1645.8335 1645.8770
1651.6127 0.000605 1645.6897 1645.7324
1653.9121 0.000605 1645.5460 1645.5878
1629.7994 0.000614 1645.4023 1645.4433
1604.8661 0.000623 1645.2586 1645.2988
1558.7538 0.000642 1645.1149 1645.1543
1719.2429 0.000582 1644.9712 1645.0098
1676.2179 0.000597 1644.8275 1644.8653
1665.4079 0.000600 1644.6837 1644.7209
1723.0726 0.000580 1644.5400 1644.5765
1681.3810 0.000595 1644.3963 1644.4321
1611.7863 0.000620 1644.2526 1644.2877
1574.9599 0.000635 1644.1089 1644.1433
1637.0107 0.000611 1643.9652 1643.9990
1686.9946 0.000593 1643.8215 1643.8547
1646.0082 0.000608 1643.6777 1645.6996
1653.2666 0.000605 1643.5340 1645.5727
1628.8722 0.000614 1643.3903 1645.4461
1664.1196 0.000601 1643.2466 1645.3197
1587.4225 0.000630 1643.1029 1646.1870
1627.1326 0.000615 1642.9592 1646.0698
1629.1600 0.000614 1642.8154 1654.0963
1657.4367 0.000603 1642.6717 1656.1650
1700.2443 0.000588 1642.5280 1656.1394
1590.0031 0.000629 1642.3843 1656.1154
1639.0142 0.000610 1642.2406 1660.1595
1669.4792 0.000599 1642.4996 1661.6326
1639.4571 0.000610 1642.7586 1662.0614
1632.3948 0.000613 1643.0176 1662.4924
1677.8301 0.000596 1643.2766 1662.9258
1651.6414 0.000605 1643.5356 1663.3615
1556.8842 0.000642 1643.7946 1663.7997
1594.9843 0.000627 1644.0536 1664.2403
1559.2662 0.000641 1644.3125 1664.6835
1634.5610 0.000612 1644.5715 1665.1291
1656.4740 0.000604 1644.8305 1665.5774
1676.4789 0.000596 1645.0895 1666.0283
1664.0863 0.000601 1645.3485 1666.4820
1593.7805 0.000627 1645.6075 1666.9383
1687.7609 0.000593 1645.8665 1667.3975
1621.2885 0.000617 1646.1255 1667.8595
1665.3291 0.000600 1646.3845 1668.3244
1603.1575 0.000624 1646.6435 1668.7923
1625.5893 0.000615 1646.9025 1669.2632
1654.1821 0.000605 1647.1615 1669.7371
1645.1611 0.000608 1647.4205 1670.2142
1692.4889 0.000591 1647.6795 1670.6945
1630.4012 0.000613 1647.9385 1671.1780
1620.5438 0.000617 1648.1975 1671.6648
1707.2155 0.000586 1648.4565 1672.1550
1616.8348 0.000618 1648.7155 1672.6487
1650.7544 0.000606 1648.9745 1673.1459
1645.9296 0.000608 1649.2335 1673.6467
1693.0745 0.000591 1649.4925 1674.1511
1620.6414 0.000617 1649.7514 1674.6592
1636.3402 0.000611 1650.0104 1675.1712
1612.4170 0.000620 1650.2694 1675.6871
1720.5219 0.000581 1650.5284 1676.2069
1685.8715 0.000593 1650.7874 1676.7307
1615.7008 0.000619 1651.0464 1677.2587
1619.3178 0.000618 1651.3054 1677.7909
1704.3222 0.000587 1651.5644 1678.3274
1636.2708 0.000611 1651.8234 1678.8683
1640.2365 0.000610 1652.0824 1679.4137
1702.3651 0.000587 1652.3414 1679.9637
1666.2421 0.000600 1652.6004 1680.5184
1651.6004 0.000605 1652.8594 1681.0778
1629.4754 0.000614 1653.1184 1681.6421
1673.2614 0.000598 1653.3774 1682.2114
1689.1675 0.000592 1653.6364 1682.7858
1678.9512 0.000596 1653.8954 1683.3654
1602.0659 0.000624 1654.1544 1683.9504
1651.7638 0.000605 1654.4134 1684.5407
1684.2803 0.000594 1654.6724 1685.1367
1562.6574 0.000640 1654.9313 1685.7383
1684.4989 0.000594 1655.1903 1686.3458
1686.7015 0.000593 1655.4493 1686.9592
1713.2964 0.000584 1655.7083 1687.5787
1606.7512 0.000622 1655.9673 1688.2044
1611.5546 0.000621 1656.2263 1688.8365
1649.1629 0.000606 1656.4853 1689.4751
1638.0039 0.000610 1656.7443 1690.1203
1666.0728 0.000600 1657.0033 1690.7724
1680.7725 0.000595 1657.2623 1691.4315
1633.1307 0.000612 1657.5213 1692.0978
1643.9700 0.000608 1657.7803 1692.7713
1665.6905 0.000600 1658.0393 1693.4524
1700.4970 0.000588 1658.2983 1694.1412
1725.0820 0.000580 1658.5573 1694.8378
1681.9981 0.000595 1658.8163 1695.5425
1651.7552 0.000605 1659.0753 1696.2554
1692.4555 0.000591 1659.3343 1696.9768
1684.1636 0.000594 1659.5933 1697.7069
1699.0179 0.000589 1659.8523 1698.4459
1664.4913 0.000601 1660.1113 1699.1940
1624.8807 0.000615 1660.3702 1699.9515
1653.4300 0.000605 1660.6292 1700.7185
1667.2829 0.000600 1660.8882 1701.4954
1637.7067 0.000611 1661.1472 1702.2824
1627.4236 0.000614 1661.4062 1703.0798
1613.1082 0.000620 1661.6652 1703.8877
1638.0844 0.000610 1661.9242 1704.7066
1623.5520 0.000616 1662.1832 1705.5367
1689.1237 0.000592 1662.4422 1706.3783
1699.6494 0.000588 1662.7012 1707.2317
1662.8643 0.000601 1662.9602 1708.0973
1674.5660 0.000597 1663.2192 1708.9753
1663.5961 0.000601 1663.4782 1709.8661
1673.9456 0.000597 1663.7372 1710.7701
1656.9658 0.000604 1663.9962 1711.6876
1696.1831 0.000590 1664.2552 1712.6190
1723.3989 0.000580 1664.5142 1713.5648
1651.8728 0.000605 1664.7732 1714.5252
1654.0939 0.000605 1665.0322 1715.5008
1654.5341 0.000604 1665.2328 1716.4336
1672.0948 0.000598 1665.4334 1717.3824
1667.0064 0.000600 1665.6341 1718.3478
1648.7074 0.000607 1665.8347 1719.3301
1669.1214 0.000599 1666.0353 1720.3299
1656.9800 0.000604 1666.2360 1721.3477
1690.5584 0.000592 1666.4366 1722.4226
1711.7346 0.000584 1666.6373 1723.4784
1680.0810 0.000595 1666.8379 1724.5539
1687.3188 0.000593 1667.0385 1725.6498
1658.0701 0.000603 1667.2392 1726.7666
1624.7215 0.000615 1667.4398 1727.9190
1661.2227 0.000602 1667.6404 1729.0799
1686.9112 0.000593 1667.8411 1730.2639
1646.7640 0.000607 1668.0417 1731.4689
1613.5240 0.000620 1668.2424 1732.7011
1651.4053 0.000606 1668.4430 1733.9587
1743.3976 0.000574 1668.6436 1735.2425
1740.5868 0.000575 1668.8443 1736.5532
1708.7895 0.000585 1669.0449 1737.8919
1673.4623 0.000598 1669.2456 1739.2594
1642.3014 0.000609 1669.4462 1740.6569
1654.0045 0.000605 1669.6468 1742.0851
1689.8048 0.000592 1669.8475 1743.5454
1784.6100 0.000560 1670.0481 1745.0386
1715.5969 0.000583 1670.2487 1746.5661
1674.3471 0.000597 1670.4494 1748.1291
1691.8036 0.000591 1670.6500 1749.7287
1691.7763 0.000591 1670.8507 1751.3664
1712.2366 0.000584 1671.0513 1753.0435
1742.9343 0.000574 1671.2519 1754.7615
1727.7267 0.000579 1671.4526 1756.5219
1695.1001 0.000590 1671.6532 1758.3262
1659.1503 0.000603 1671.8538 1760.1762
1656.2686 0.000604 1672.0545 1762.0736
1720.0516 0.000581 1672.2551 1764.0202
1756.2730 0.000569 1672.4558 1766.0180
1718.3272 0.000582 1672.6564 1768.0688
1700.6958 0.000588 1672.8570 1770.1749
1715.9475 0.000583 1673.0577 1772.3385
1712.9599 0.000584 1673.2583 1774.5619
1684.0689 0.000594 1673.4589 1776.8475
1716.8105 0.000582 1673.6596 1779.1979
1734.8340 0.000576 1673.8602 1781.6158
1768.4440 0.000565 1674.0124 1784.0555
1763.7638 0.000567 1674.1645 1786.5686
1711.6282 0.000584 1674.3167 1789.1582
1770.5683 0.000565 1674.4688 1791.8277
1764.7615 0.000567 1674.6210 1794.5804
1721.3607 0.000581 1674.7731 1797.4202
1725.0785 0.000580 1674.9253 1800.3510
1722.1426 0.000581 1675.0775 1803.3768
1729.8628 0.000578 1675.2296 1806.5021
1759.9245 0.000568 1675.3818 1809.7314
1754.5627 0.000570 1675.5339 1813.0697
1741.0244 0.000574 1675.6861 1816.5221
1781.8158 0.000561 1675.8382 1820.0941
1782.9791 0.000561 1675.9904 1823.7916
1759.5509 0.000568 1676.1425 1827.6206
1734.2567 0.000577 1676.2947 1831.5879
1773.4649 0.000564 1676.4468 1835.7002
1811.0790 0.000552 1676.5990 1839.9652
1806.7327 0.000553 1676.7511 1844.3905
1797.3009 0.000556 1676.9033 1848.9847
1798.5542 0.000556 1677.0554 1853.7566
1817.0344 0.000550 1677.2076 1858.7159
1826.3289 0.000548 1677.3598 1863.8727
1824.8034 0.000548 1677.5119 1869.2380
1822.6110 0.000549 1677.6641 1874.8232
1816.1817 0.000551 1677.8162 1880.6410
1831.1593 0.000546 1677.9684 1886.7047
1824.9151 0.000548 1678.1205 1893.0286
1778.1124 0.000562 1678.2727 1899.6280
1821.3850 0.000549 1678.4248 1906.5195
1838.5553 0.000544 1678.5770 1913.7208
1828.3182 0.000547 1678.7291 1921.2510
1851.7852 0.000540 1678.8813 1929.1307
1886.3802 0.000530 1679.0334 1937.3820
1901.3376 0.000526 1679.1856 1946.0291
1871.9461 0.000534 1679.3378 1955.0979
1895.9916 0.000527 1679.4899 1964.6164
1968.0454 0.000508 1679.6421 1974.6152
2014.1925 0.000496 1679.7942 1985.1274
2000.9287 0.000500 1679.9464 1996.1893
1938.5729 0.000516 1680.0985 2007.8404
1927.3388 0.000519 1680.2507 2020.1240
1976.0121 0.000506 1680.4028 2033.0877
2002.6262 0.000499 1680.5550 2046.7844
1981.2330 0.000505 1680.6550 2061.2205
2031.3038 0.000492 1680.7551 2076.5138
2081.6102 0.000480 1680.8551 2092.7383
2133.1754 0.000469 1680.9552 2109.9779
2134.4605 0.000469 1681.0552 2128.3291
2087.4956 0.000479 1681.1553 2147.9288
2134.4714 0.000469 1681.2554 2168.8571
2184.2394 0.000458 1681.3554 2191.2931
2225.5472 0.000449 1681.4555 2215.4200
2210.4961 0.000452 1681.5555 2241.4577
2233.8449 0.000448 1681.6556 2269.7304
2276.5275 0.000439 1681.7556 2300.4420
2330.1460 0.000429 1681.8557 2334.0416
2375.7516 0.000421 1681.9557 2371.0040
2425.3901 0.000412 1682.0558 2411.9059
2472.5268 0.000404 1682.1558 2457.4686
2528.5477 0.000395 1682.2559 2508.4874
2603.2993 0.000384 1682.3559 2565.9938
2689.6131 0.000372 1682.4560 2631.1867
2704.2729 0.000370 1682.5560 2705.4801
2791.3549 0.000358 1682.6561 2790.5243
2830.8507 0.000353 1682.7562 2888.2249
2931.5337 0.000341 1682.8562 3000.7550
3074.3018 0.000325 1682.9563 3130.5598
3223.7529 0.000310 1683.0563 3280.3496
3409.0888 0.000293 1683.1564 3453.0796
3578.9602 0.000279 1683.2564 3651.9120
3841.8431 0.000260 1683.3565 3880.1600
4059.7568 0.000246 1683.4565 4141.2091
4237.2582 0.000236 1683.5566 4438.4153
4504.0911 0.000222 1683.6566 4774.9789
4896.7872 0.000204 1683.7567 5153.7914
5286.9411 0.000189 1683.8567 5577.2576
5631.1335 0.000178 1683.9568 6047.0913
5973.8825 0.000167 1684.0568 6564.0875
6488.3358 0.000154 1684.1569 7127.8741
7203.6123 0.000139 1684.2569 7736.6523
7822.8544 0.000128 1684.3570 8386.9378
8365.2048 0.000120 1684.4571 9073.3281
9098.5932 0.000110 1684.5571 9788.3209
9818.3246 0.000102 1684.6572 10522.2138
10569.0854 0.000095 1684.7572 11263.0960
11382.4402 0.000088 1684.8573 11996.9252
11912.0383 0.000084 1684.9573 12707.6652
12648.0373 0.000079 1685.0574 13377.4854
13342.8594 0.000075 1685.1574 13987.0895
14025.7405 0.000071 1685.2575 14516.3227
14501.6310 0.000069 1685.3575 14945.2214
14845.5895 0.000067 1685.4576 15255.5516
15021.8790 0.000067 1685.5576 15432.6569
14957.8891 0.000067 1685.6577 15467.2142
15030.0790 0.000067 1685.7577 15356.4386
14783.8709 0.000068 1685.8578 15104.4402
14303.8271 0.000070 1685.9579 14721.7224
13696.2488 0.000073 1686.0579 14224.0338
13005.7759 0.000077 1686.1580 13630.8537
12479.3012 0.000080 1686.2580 12963.7437
11686.0325 0.000086 1686.3581 12244.7490
10766.9374 0.000093 1686.4581 11495.0068
9948.6099 0.000101 1686.5582 10733.6891
9263.4891 0.000108 1686.6582 9977.3448
8488.7695 0.000118 1686.7583 9239.6191
7784.8369 0.000128 1686.8583 8531.2677
7138.6573 0.000140 1686.9584 7860.3579
6596.9466 0.000152 1687.0584 7232.5643
5951.9292 0.000168 1687.1585 6651.4916
5474.4488 0.000183 1687.2585 6118.9914
5069.9334 0.000197 1687.3586 5635.4561
4773.4833 0.000209 1687.4587 5200.0875
4469.5966 0.000224 1687.5587 4811.1411
4225.2329 0.000237 1687.6588 4466.1492
3984.2109 0.000251 1687.7588 4162.1224
3760.4510 0.000266 1687.8589 3895.7301
3469.1392 0.000288 1687.9589 3663.4596
3415.9609 0.000293 1688.0590 3461.7511
3307.0036 0.000302 1688.1590 3287.1095
3101.7440 0.000322 1688.2591 3136.1921
3008.2182 0.000332 1688.3591 3005.8732
2878.3891 0.000347 1688.4592 2893.2880
2784.6413 0.000359 1688.5592 2795.8568
2692.0180 0.000371 1688.6593 2711.2941
2749.4254 0.000364 1688.7593 2637.6044
2631.0456 0.000380 1688.8594 2573.0686
2583.1537 0.000387 1688.9594 2516.2230
2569.9428 0.000389 1689.0595 2465.8350
2480.6584 0.000403 1689.1596 2420.8760
2430.5350 0.000411 1689.2596 2380.4945
2405.0704 0.000416 1689.3597 2343.9898
2400.2321 0.000417 1689.4076 2310.7359
2328.4181 0.000429 1689.4556 2280.3159
2282.9879 0.000438 1689.5035 2252.3468
2206.6555 0.000453 1689.5515 2226.5155
2251.1066 0.000444 1689.5994 2202.5646
2129.0000 0.000470 1689.6474 2180.2816
2119.6995 0.000472 1689.6953 2159.4898
2077.5333 0.000481 1689.7433 2140.0913
2065.7605 0.000484 1689.7912 2121.8588
2041.2880 0.000490 1689.8392 2104.7346
2040.4547 0.000490 1689.8871 2088.6249
2043.0215 0.000489 1689.9351 2073.4925
2005.4398 0.000499 1689.9830 2059.2012
2014.4308 0.000496 1690.0310 2045.7771
1931.7751 0.000518 1690.0790 2032.9945
1950.6544 0.000513 1690.1269 2020.8973
1919.3357 0.000521 1690.1749 2009.4606
1884.4916 0.000531 1690.2228 1998.5968
1806.3893 0.000554 1690.2708 1988.3373
1837.9671 0.000544 1690.3187 1978.5494
1860.4455 0.000538 1690.3667 1969.2484
1907.7532 0.000524 1690.4146 1960.4039
1807.0188 0.000553 1690.4626 1951.9882
1846.5159 0.000542 1690.5105 1943.9756
1860.1359 0.000538 1690.5585 1936.3425
1812.7589 0.000552 1690.6064 1929.0674
1829.1725 0.000547 1690.6544 1922.1304
1859.7510 0.000538 1690.7023 1915.5133
1839.5275 0.000544 1690.7503 1909.1995
1838.4101 0.000544 1690.7982 1903.1741
1752.8536 0.000570 1690.8462 1897.4234
1722.5229 0.000581 1690.8942 1891.9355
1723.1981 0.000580 1690.9421 1886.6998
1759.6718 0.000568 1690.9901 1881.7070
1798.1143 0.000556 1691.0380 1876.9498
1805.9855 0.000554 1691.0860 1872.4220
1736.7673 0.000576 1691.1339 1868.1191
1783.8158 0.000561 1691.1819 1864.0382
1844.5090 0.000542 1691.2298 1860.1779
1851.2427 0.000540 1691.2778 1856.5384
1786.6184 0.000560 1691.3257 1853.1212
1763.1667 0.000567 1691.3737 1849.9292
1754.1007 0.000570 1691.4216 1846.9665
1749.1010 0.000572 1691.4696 1844.2378
1793.1842 0.000558 1691.4618 1841.6929
1807.0649 0.000553 1691.4541 1839.3931
1816.9395 0.000550 1691.4463 1837.3434
1791.1621 0.000558 1691.4385 1835.5480
1772.3260 0.000564 1691.4308 1834.0097
1810.9366 0.000552 1691.4230 1832.7291
1772.2343 0.000564 1691.4152 1831.7036
1787.6160 0.000559 1691.4075 1830.9274
1765.5971 0.000566 1691.3997 1830.3899
1732.4227 0.000577 1691.3919 1830.0752
1772.3738 0.000564 1691.3842 1829.9609
1804.1517 0.000554 1691.3764 1830.0172
1693.7276 0.000590 1691.3687 1830.2056
1814.8004 0.000551 1691.3609 1830.4777
1809.9611 0.000552 1691.3531 1830.7750
1788.1090 0.000559 1691.3454 1831.0286
1768.0367 0.000566 1691.3376 1831.1616
1751.2155 0.000571 1691.3298 1831.0927
1875.3820 0.000533 1691.3221 1830.7422
1779.9322 0.000562 1691.3143 1830.0395
1779.8100 0.000562 1691.3065 1828.9302
1833.2032 0.000545 1691.2988 1827.3822
1738.9313 0.000575 1691.2910 1825.3882
1774.0928 0.000564 1691.2832 1822.9648
1776.8913 0.000563 1691.2755 1820.1500
1723.9821 0.000580 1691.2677 1816.9981
1724.2459 0.000580 1691.2600 1813.5744
1804.7871 0.000554 1691.2522 1809.9499
1787.7536 0.000559 1691.2444 1806.1962
1762.7054 0.000567 1691.2367 1802.3811
1722.1129 0.000581 1691.2289 1798.5652
1746.8909 0.000572 1691.2211 1794.8006
1688.0484 0.000592 1691.2134 1791.1300
1806.5848 0.000554 1691.2056 1787.5867
1766.2525 0.000566 1691.1978 1784.1958
1735.2737 0.000576 1691.1901 1780.9746
1669.7588 0.000599 1691.1823 1777.9341
1698.5750 0.000589 1691.1746 1775.0797
1689.1683 0.000592 1691.1668 1772.4121
1728.2199 0.000579 1691.1590 1769.9282
1780.8249 0.000562 1691.1513 1767.6219
1653.2791 0.000605 1691.1435 1765.4848
1756.0014 0.000569 1691.1357 1763.5066
1748.3320 0.000572 1691.1280 1761.6762
1670.6279 0.000599 1691.0590 1759.9203
1726.8334 0.000579 1690.9900 1758.2882
1689.5656 0.000592 1690.9210 1756.7680
1661.1439 0.000602 1690.8521 1755.3484
1787.2113 0.000560 1690.7831 1754.0185
1698.5731 0.000589 1690.7141 1753.4452
1718.7296 0.000582 1690.6451 1752.2722
1646.9679 0.000607 1690.5762 1751.1624
1657.1870 0.000603 1690.5072 1750.1090
1703.2703 0.000587 1690.4382 1749.1060
1731.3925 0.000578 1690.3693 1748.4858
1699.2395 0.000588 1690.3003 1748.3176
1713.8322 0.000583 1690.2313 1747.4465
1665.5799 0.000600 1690.1623 1746.6093
1694.5425 0.000590 1690.0934 1745.8037
1681.2390 0.000595 1690.0244 1745.0274
1703.1112 0.000587 1689.9554 1744.6513
1688.4080 0.000592 1689.8864 1743.9320
1711.8160 0.000584 1689.8175 1743.2378
1726.8302 0.000579 1689.7485 1742.5679
1641.1917 0.000609 1689.6795 1741.9214
1693.1328 0.000591 1689.6105 1741.2980
1713.5349 0.000584 1689.5416 1740.6971
1650.6907 0.000606 1689.4726 1740.1186
1672.8991 0.000598 1689.4036 1739.5624
1682.3030 0.000594 1689.3346 1739.0285
1706.3417 0.000586 1689.2657 1738.5171
1679.4621 0.000595 1689.1967 1738.0287
1676.8924 0.000596 1689.1277 1737.5639
1640.5202 0.000610 1689.0587 1737.1235
1728.2565 0.000579 1688.9898 1736.7087
1791.2959 0.000558 1688.9208 1736.3210
1679.8463 0.000595 1688.8518 1735.9624
1654.3302 0.000604 1688.7828 1735.6353
1639.8539 0.000610 1688.7139 1735.3429
1717.5101 0.000582 1688.6449 1735.0890
1699.3837 0.000588 1688.5759 1734.8782
1720.1836 0.000581 1688.5069 1734.7163
1663.3989 0.000601 1688.4380 1734.6100
1646.2325 0.000607 1688.3690 1734.5674
1675.1137 0.000597 1688.3000 1734.5980
1730.6057 0.000578 1688.2310 1734.7125
1740.7101 0.000574 1688.1621 1734.9233
1700.0855 0.000588 1688.0931 1735.2444
1703.1966 0.000587 1687.9671 1735.6339
1694.8354 0.000590 1687.8412 1736.1656
1736.9077 0.000576 1687.7152 1736.8571
1729.0075 0.000578 1687.5893 1737.7269
1713.4144 0.000584 1687.4634 1738.7935
1664.9996 0.000601 1687.3374 1740.0754
1731.8669 0.000577 1687.2115 1741.5901
1681.3484 0.000595 1687.0855 1743.3532
1737.5826 0.000576 1686.9596 1745.3777
1766.0368 0.000566 1686.8336 1747.6729
1696.5737 0.000589 1686.7077 1750.2432
1714.6346 0.000583 1686.5817 1753.0869
1708.0993 0.000585 1686.4558 1756.1948
1722.9304 0.000580 1686.3298 1759.5487
1754.6199 0.000570 1686.2039 1763.1199
1654.1221 0.000605 1686.0779 1766.8673
1688.7189 0.000592 1685.9520 1770.7366
1764.9344 0.000567 1685.8260 1774.6592
1747.1314 0.000572 1685.7001 1778.5523
1739.0000 0.000575 1685.5741 1782.3205
1698.3869 0.000589 1685.4482 1785.8586
1671.3330 0.000598 1685.3222 1789.0561
1758.7558 0.000569 1685.1963 1791.8022
1706.5321 0.000586 1685.0704 1793.9926
1732.3539 0.000577 1684.9444 1795.5353
1682.3607 0.000594 1684.8185 1796.3583
1711.0390 0.000584 1684.6925 1796.4152
1722.4447 0.000581 1684.5666 1795.6905
1723.5500 0.000580 1684.4406 1794.2011
1749.4864 0.000572 1684.3147 1791.9950
1753.9214 0.000570 1684.1887 1789.1460
1704.6804 0.000587 1684.0628 1785.7476
1755.7305 0.000570 1683.9368 1781.9052
1736.3948 0.000576 1683.8109 1777.7299
1744.4922 0.000573 1683.6849 1773.3320
1726.0421 0.000579 1683.5590 1768.8159
1733.0726 0.000577 1683.4330 1764.2759
1691.4403 0.000591 1683.3071 1759.7934
1700.6937 0.000588 1683.1811 1755.4359
1672.4644 0.000598 1683.0552 1751.2569
1715.7217 0.000583 1682.9292 1747.2964
1736.4806 0.000576 1682.8033 1743.5823
1722.9853 0.000580 1682.6774 1740.1323
1653.3245 0.000605 1682.5514 1736.9551
1646.8424 0.000607 1682.9632 1734.5897
1678.5364 0.000596 1683.3750 1732.4936
1700.3580 0.000588 1683.7868 1730.6573
1662.2679 0.000602 1684.1985 1729.0676
1674.8642 0.000597 1684.6103 1727.7088
1695.3462 0.000590 1685.0221 1726.5794
1661.0379 0.000602 1685.4339 1725.6290
1690.9566 0.000591 1685.8457 1724.8550
1674.8754 0.000597 1686.2574 1724.2390
1718.3690 0.000582 1686.6692 1721.7861
1761.7565 0.000568 1687.0810 1721.4595
1732.7452 0.000577 1687.4928 1721.2335
1684.7884 0.000594 1687.9046 1721.1025
1723.3188 0.000580 1688.3164 1720.0645
1753.6441 0.000570 1688.7281 1720.0969
1718.9265 0.000582 1689.1399 1720.1920
1726.8247 0.000579 1689.5517 1712.2486
1729.0702 0.000578 1689.9635 1710.4307
1735.9478 0.000576 1690.3753 1710.7586
1719.1898 0.000582 1690.7871 1711.1239
1738.1927 0.000575 1691.1988 1707.4713
1712.7786 0.000584 1691.6106 1706.8922
1745.1907 0.000573 1692.0224 1707.3948
1750.5441 0.000571 1692.4342 1707.9243
1740.3318 0.000575 1692.8460 1708.4797
1726.6889 0.000579 1693.2577 1709.0602
1714.6969 0.000583 1693.6695 1709.6656
1638.7159 0.000610 1694.0813 1710.2960
1688.4539 0.000592 1694.4931 1710.9518
1718.2829 0.000582 1694.9049 1711.6336
1659.1276 0.000603 1695.3167 1712.3426
1696.3046 0.000590 1695.7284 1713.0802
1672.1346 0.000598 1696.1402 1713.8481
1669.6334 0.000599 1696.5520 1714.6487
1669.9616 0.000599 1696.9638 1715.4849
1722.9700 0.000580 1697.3756 1716.3602
1669.5687 0.000599 1697.7873 1717.2791
1715.2962 0.000583 1698.1991 1718.2469
1740.0879 0.000575 1698.6109 1719.2702
1740.2175 0.000575 1699.0227 1720.3571
1708.4646 0.000585 1699.4345 1721.5172
1717.8797 0.000582 1699.8463 1722.7622
1730.9376 0.000578 1700.2580 1724.1060
1721.0599 0.000581 1700.6698 1725.5651
1703.8586 0.000587 1701.0191 1727.0963
1636.2311 0.000611 1701.3683 1728.7847
1711.7587 0.000584 1701.7175 1730.6562
1708.1453 0.000585 1702.0668 1732.7400
1684.3751 0.000594 1702.4160 1735.0694
1717.2405 0.000582 1702.7653 1737.6808
1754.3485 0.000570 1703.1145 1740.6140
1713.5762 0.000584 1703.4637 1743.9117
1738.0972 0.000575 1703.8130 1747.6188
1777.2734 0.000563 1704.1622 1751.7816
1774.0000 0.000564 1704.5115 1756.4465
1771.6581 0.000564 1704.8607 1761.6584
1756.5952 0.000569 1705.2099 1767.4596
1771.9463 0.000564 1705.5592 1773.8871
1794.6198 0.000557 1705.9084 1780.9705
1794.5511 0.000557 1706.2577 1788.7298
1770.8308 0.000565 1706.6069 1797.1717
1772.6536 0.000564 1706.9561 1806.2870
1816.0405 0.000551 1707.3054 1816.0469
1835.6152 0.000545 1707.6546 1826.3992
1873.4255 0.000534 1708.0038 1837.2650
1868.1195 0.000535 1708.3531 1848.5359
1832.8826 0.000546 1708.7023 1860.0714
1876.1508 0.000533 1709.0516 1871.6998
1888.5621 0.000530 1709.4008 1883.2196
1815.4767 0.000551 1709.7500 1894.4043
1834.0905 0.000545 1710.0993 1905.0092
1869.2593 0.000535 1710.4485 1914.7793
1872.2034 0.000534 1710.7978 1923.4579
1939.2069 0.000516 1711.1470 1930.7980
1952.9135 0.000512 1711.4962 1936.5749
1885.0921 0.000530 1711.8455 1940.6023
1866.4125 0.000536 1712.1947 1942.7484
1896.2763 0.000527 1712.5440 1942.9496
1865.4516 0.000536 1712.8932 1941.2183
1854.7215 0.000539 1713.2424 1937.6770
1875.7749 0.000533 1713.5917 1932.4089
1880.8379 0.000532 1713.9409 1925.6555
1884.8389 0.000531 1714.2902 1917.6609
1862.6559 0.000537 1714.6394 1908.7114
1833.7898 0.000545 1714.9886 1899.0386
1839.1950 0.000544 1715.3379 1888.9473
1859.0110 0.000538 1715.6871 1878.6508
1846.9978 0.000541 1716.0363 1868.3892
1786.7410 0.000560 1716.3349 1858.3022
1754.8422 0.000570 1716.6334 1848.6069
1787.2225 0.000560 1716.9319 1839.4047
1835.3429 0.000545 1717.2305 1830.7962
1819.7869 0.000550 1717.5290 1822.8437
1765.6434 0.000566 1717.8275 1815.5845
1778.3302 0.000562 1718.1260 1809.0354
1801.7873 0.000555 1718.4246 1803.1961
1788.4338 0.000559 1718.7231 1798.0520
1802.5573 0.000555 1719.0216 1793.5781
1802.8718 0.000555 1719.3201 1789.7410
1774.0415 0.000564 1719.6187 1786.5014
1786.7423 0.000560 1719.9172 1783.8167
1823.7187 0.000548 1720.2157 1781.6423
1800.1534 0.000556 1720.5142 1779.9336
1757.2489 0.000569 1720.8128 1778.6471
1803.6359 0.000554 1721.1113 1777.7413
1813.3009 0.000551 1721.4098 1777.1780
1804.9810 0.000554 1721.7083 1776.9222
1809.7156 0.000553 1722.0069 1776.9428
1825.9105 0.000548 1722.3054 1777.2127
1805.8272 0.000554 1722.6039 1777.7089
1805.1553 0.000554 1722.9024 1778.4123
1781.2796 0.000561 1723.2010 1779.3073
1793.8344 0.000557 1723.4995 1780.3823
1812.0795 0.000552 1723.7980 1781.6287
1805.2724 0.000554 1724.0965 1783.0410
1788.8004 0.000559 1724.3951 1784.6170
1783.9276 0.000561 1724.6936 1786.3570
1796.4593 0.000557 1724.9921 1788.2643
1773.5444 0.000564 1725.2906 1790.3452
1833.1482 0.000546 1725.5892 1792.6087
1870.8280 0.000535 1725.8877 1795.0674
1877.9067 0.000533 1726.1862 1797.7378
1812.6272 0.000552 1726.4847 1800.6022
1751.0476 0.000571 1726.7833 1803.7634
1835.7577 0.000545 1727.0818 1807.2149
1889.8578 0.000529 1727.3803 1810.9962
1869.5438 0.000535 1727.6788 1815.1364
1872.8869 0.000534 1727.9774 1819.7327
1863.8281 0.000537 1728.2759 1824.8368
1861.2240 0.000537 1728.5744 1830.5339
1871.5593 0.000534 1728.8729 1836.9257
1905.3057 0.000525 1729.1715 1844.1323
1893.1426 0.000528 1729.4217 1852.2464
1877.8992 0.000533 1729.6720 1861.4795
1960.6166 0.000510 1729.9222 1872.0192
1973.1402 0.000507 1730.1725 1884.0779
1975.1702 0.000506 1730.4227 1897.8934
1980.3337 0.000505 1730.6730 1913.7284
2003.4807 0.000499 1730.9232 1931.8681
2035.8516 0.000491 1731.1735 1952.6172
2029.6138 0.000493 1731.4238 1976.2954
2088.6107 0.000479 1731.6740 2003.2307
2142.7415 0.000467 1731.9243 2033.7512
2203.3383 0.000454 1732.1745 2068.1751
2197.9589 0.000455 1732.4248 2106.7990
2238.9674 0.000447 1732.6750 2149.8838
2310.1582 0.000433 1732.9253 2197.6394
2354.8582 0.000425 1733.1755 2250.2073
2385.8044 0.000419 1733.4258 2307.6405
2463.5398 0.000406 1733.6760 2369.8822
2551.0883 0.000392 1733.9263 2436.7412
2538.6336 0.000394 1734.1765 2507.8658
2614.3499 0.000383 1734.4268 2582.7161
2708.8413 0.000369 1734.6770 2660.5375
2869.5555 0.000348 1734.9273 2740.3394
2960.6728 0.000338 1735.1776 2820.8860
3027.6865 0.000330 1735.4278 2900.7065
3083.5415 0.000324 1735.6781 2978.1308
3172.4778 0.000315 1735.9283 3051.3549
3207.2657 0.000312 1736.1786 3118.5279
3361.3443 0.000298 1736.4288 3177.8477
3455.4614 0.000289 1736.6791 3227.6503
3446.1996 0.000290 1736.9293 3266.4838
3468.0230 0.000288 1737.1796 3293.1694
3504.1630 0.000285 1737.4298 3306.8585
3487.3784 0.000287 1737.6801 3307.0919
3476.3079 0.000288 1737.9303 3293.8511
3453.3752 0.000290 1738.1806 3267.5811
3471.9382 0.000288 1738.4309 3229.1676
3304.3775 0.000303 1738.6811 3179.8694
3237.0362 0.000309 1738.9314 3121.2205
3191.1359 0.000313 1739.1816 3054.9271
3087.6733 0.000324 1739.4319 2982.7731
2994.2844 0.000334 1739.6821 2906.5406
2916.0684 0.000343 1739.9324 2827.9416
2756.7494 0.000363 1740.1826 2748.5599
2653.2507 0.000377 1740.4329 2669.8055
2647.7303 0.000378 1740.6831 2592.8823
2558.1073 0.000391 1740.9334 2518.7742
2464.4728 0.000406 1741.1836 2448.2457
2431.5396 0.000411 1741.4339 2381.8551
2336.7831 0.000428 1741.6842 2319.9751
2261.1327 0.000442 1741.9344 2262.8170
2147.8977 0.000466 1742.1847 2210.4556
2196.9167 0.000455 1742.4349 2162.8527
2091.2861 0.000478 1742.6852 2119.8800
2019.6792 0.000495 1742.9354 2081.3383
2062.1346 0.000485 1743.1857 2046.9758
2023.0371 0.000494 1743.4359 2016.5041
1933.9613 0.000517 1743.6862 1989.6120
2018.0600 0.000496 1743.9364 1965.9772
2033.6297 0.000492 1744.1867 1945.2769
1929.2413 0.000518 1744.4369 1927.1955
1919.5254 0.000521 1744.6872 1911.4310
1902.4956 0.000526 1744.9374 1897.7004
1890.6602 0.000529 1745.1877 1885.7421
1891.2674 0.000529 1745.4380 1875.3187
1823.0443 0.000549 1745.6882 1866.2171
1806.0382 0.000554 1745.9385 1858.2487
1833.5116 0.000545 1746.1887 1851.2484
1896.7093 0.000527 1746.4390 1845.0732
1850.9446 0.000540 1746.6892 1839.6006
1885.7074 0.000530 1746.9395 1834.7262
1820.6667 0.000549 1747.1897 1830.3621
1800.6293 0.000555 1747.4400 1826.4343
1816.4433 0.000551 1747.6902 1822.8813
1834.1753 0.000545 1747.9405 1819.6519
1829.4162 0.000547 1748.1907 1816.7035
1842.6973 0.000543 1748.4410 1814.0011
1838.6295 0.000544 1748.6913 1811.5154
1860.0361 0.000538 1748.9415 1809.2222
1821.3018 0.000549 1749.1918 1807.1014
1857.3457 0.000538 1749.4420 1805.1359
1814.5687 0.000551 1749.6923 1803.3117
1829.1440 0.000547 1749.9425 1801.5914
1763.1794 0.000567 1750.1928 1800.0156
1796.0000 0.000557 1750.4430 1798.5502
1783.5982 0.000561 1750.6933 1797.1879
1716.5044 0.000583 1750.9435 1795.9224
1735.7873 0.000576 1751.1938 1794.6898
1794.3725 0.000557 1751.3958 1793.5553
1776.7033 0.000563 1751.5978 1792.5045
1803.1929 0.000555 1751.7997 1791.5347
1824.3388 0.000548 1752.0017 1790.6438
1799.7049 0.000556 1752.2037 1789.8075
1824.3345 0.000548 1752.4057 1789.0712
1790.0981 0.000559 1752.6077 1788.4117
1805.8168 0.000554 1752.8096 1787.8295
1773.8362 0.000564 1753.0116 1787.3253
1799.5470 0.000556 1753.2136 1786.9005
1792.4339 0.000558 1753.4156 1788.8516
1805.0368 0.000554 1753.6176 1788.6083
1704.1908 0.000587 1753.8196 1788.4494
1701.2613 0.000588 1754.0215 1788.3765
1788.2292 0.000559 1754.2235 1788.3907
1758.7861 0.000569 1754.4255 1788.4927
1775.2288 0.000563 1754.6275 1788.6821
1786.9973 0.000560 1754.8295 1790.1133
1798.6206 0.000556 1755.0314 1790.4820
1823.9439 0.000548 1755.2334 1792.0884
1830.8904 0.000546 1755.4354 1792.6202
1810.5343 0.000552 1755.6374 1793.2184
1817.9868 0.000550 1755.8394 1793.8723
1837.1583 0.000544 1756.0414 1794.5687
1814.6497 0.000551 1756.2433 1795.2909
1787.3730 0.000559 1756.4453 1796.5972
1784.5425 0.000560 1756.6473 1797.3125
1839.7078 0.000544 1756.8493 1797.9845
1836.0000 0.000545 1757.0513 1798.5857
1831.8702 0.000546 1757.2532 1799.0886
1771.8134 0.000564 1757.4552 1799.4685
1733.8577 0.000577 1757.6572 1799.7049
1849.4332 0.000541 1757.8592 1799.7842
1808.5438 0.000553 1758.0612 1799.7001
1804.0439 0.000554 1758.2632 1799.4538
1851.2111 0.000540 1758.4651 1799.0535
1749.0195 0.000572 1758.6671 1798.5128
1823.5702 0.000548 1758.8691 1797.8496
1756.1450 0.000569 1759.0711 1797.0853
1823.8927 0.000548 1759.2731 1796.2427
1797.3482 0.000556 1759.4750 1795.3456
1782.0345 0.000561 1759.6770 1794.4169
1808.7458 0.000553 1759.8790 1793.4781
1770.2406 0.000565 1760.0810 1792.5479
1715.7430 0.000583 1760.2371 1791.5968
1777.4749 0.000563 1760.3933 1790.6837
1796.3572 0.000557 1760.5494 1789.8188
1813.7890 0.000551 1760.7056 1789.0100
1900.5704 0.000526 1760.8618 1788.2625
1761.3319 0.000568 1761.0179 1787.5795
1851.7882 0.000540 1761.1741 1786.9628
1749.0000 0.000572 1761.3302 1786.4123
1749.0947 0.000572 1761.4864 1785.9270
1763.9781 0.000567 1761.6425 1785.5049
1758.0137 0.000569 1761.7987 1785.1433
1771.9763 0.000564 1761.9548 1784.8389
1780.9607 0.000561 1762.1110 1784.5881
1855.4727 0.000539 1762.2671 1784.3870
1770.8342 0.000565 1762.4233 1784.2318
1701.8534 0.000588 1762.5794 1784.1187
1721.6842 0.000581 1762.7356 1784.0441
1867.3794 0.000536 1762.8917 1784.0046
1727.9545 0.000579 1763.0479 1783.9970
1755.2856 0.000570 1763.2040 1784.0187
1763.7943 0.000567 1763.3602 1784.0671
1853.3888 0.000540 1763.5163 1784.1403
1788.1736 0.000559 1763.6725 1784.2366
1797.5954 0.000556 1763.8286 1784.3547
1853.8894 0.000539 1763.9848 1784.4938
1806.9920 0.000553 1764.1409 1784.6533
1896.9941 0.000527 1764.2971 1784.8332
1793.9724 0.000557 1764.4532 1785.0339
1694.6595 0.000590 1764.6094 1785.2561
1731.8117 0.000577 1764.7656 1785.5011
1728.3144 0.000579 1764.9217 1785.7708
1813.9884 0.000551 1765.0779 1786.0674
1712.5248 0.000584 1765.2340 1786.3940
1803.7173 0.000554 1765.3902 1786.7543
1824.9907 0.000548 1765.5463 1787.1529
1806.3807 0.000554 1765.7025 1787.5951
1761.2156 0.000568 1765.8586 1788.0872
1774.7204 0.000563 1766.0148 1788.6364
1784.3362 0.000560 1766.1709 1789.2510
1826.5609 0.000547 1766.3271 1789.9402
1847.4972 0.000541 1766.4832 1790.7571
1828.7988 0.000547 1766.6394 1791.6275
1745.5144 0.000573 1766.7955 1792.6056
1743.4774 0.000574 1766.9517 1793.7040
1796.7934 0.000557 1767.2955 1795.1231
1767.5127 0.000566 1767.6393 1796.6879
1844.5354 0.000542 1767.9831 1798.4237
1862.0222 0.000537 1768.3269 1800.3172
1890.8862 0.000529 1768.6708 1802.3903
1786.3737 0.000560 1769.0146 1804.6515
1831.2299 0.000546 1769.3584 1807.1062
1813.9282 0.000551 1769.7022 1809.6872
1826.1109 0.000548 1770.0460 1812.5538
1747.3549 0.000572 1770.3898 1815.4909
1871.2982 0.000534 1770.7337 1818.7011
1744.5371 0.000573 1771.0775 1822.0678
1800.5254 0.000555 1771.4213 1825.5419
1868.7852 0.000535 1771.7651 1829.1325
1828.1196 0.000547 1772.1089 1832.7232
1827.0914 0.000547 1772.4527 1836.3555
1833.2052 0.000545 1772.7966 1839.9152
1788.1626 0.000559 1773.1404 1843.3288
1821.5229 0.000549 1773.4842 1846.5173
1824.5619 0.000548 1773.8280 1849.4009
1853.1329 0.000540 1774.1718 1851.9040
1925.4803 0.000519 1774.5156 1853.9607
1848.4427 0.000541 1774.8595 1855.5189
1755.7552 0.000570 1775.2033 1856.5440
1783.4626 0.000561 1775.5471 1857.0201
1838.2363 0.000544 1775.8909 1856.9511
1835.2283 0.000545 1776.2347 1856.3593
1858.9832 0.000538 1776.5785 1855.2836
1774.6016 0.000564 1776.9224 1853.7770
1771.1581 0.000565 1777.2662 1851.9026
1816.3382 0.000551 1777.6100 1849.7297
1791.9003 0.000558 1777.9538 1847.3304
1800.6716 0.000555 1778.2976 1844.7756
1825.3760 0.000548 1778.6414 1842.1327
1802.9570 0.000555 1778.9853 1839.4636
1790.4655 0.000559 1779.3291 1836.8229
1883.4410 0.000531 1779.6729 1834.2568
1818.1719 0.000550 1780.0167 1831.8035
1822.2643 0.000549 1780.3605 1829.4927
1775.6009 0.000563 1780.7043 1827.3466
1798.3527 0.000556 1781.0482 1825.3802
1752.5455 0.000571 1781.3920 1823.6025
1744.5869 0.000573 1781.7358 1822.0174
1823.9554 0.000548 1782.0796 1820.6242
1807.5314 0.000553 1782.4234 1819.4190
1776.6666 0.000563 1782.7672 1818.3947
1811.9478 0.000552 1783.1111 1817.5423
1768.0649 0.000566 1783.4549 1816.8514
1780.3742 0.000562 1783.7987 1816.3102
1824.6341 0.000548 1784.1425 1815.9066
1777.5182 0.000563 1784.4863 1815.6285
1810.5432 0.000552 1784.8301 1815.4638
1769.4561 0.000565 1785.1740 1815.4008
1806.8142 0.000553 1785.5178 1815.4287
1810.7423 0.000552 1785.8616 1815.5372
1766.5379 0.000566 1786.2054 1815.7171
1798.8852 0.000556 1786.5492 1815.9600
1768.2722 0.000566 1786.8930 1816.2586
1807.6354 0.000553 1787.2369 1816.6062
1796.3951 0.000557 1787.5807 1816.9973
1762.2470 0.000567 1787.9245 1817.4271
1754.7474 0.000570 1788.2683 1817.8915
1807.1327 0.000553 1788.6121 1818.3871
1882.8825 0.000531 1788.9559 1818.9109
1821.6644 0.000549 1789.2998 1819.4609
1808.4717 0.000553 1789.6436 1820.0349
1786.1051 0.000560 1789.9874 1820.6316
1828.6614 0.000547 1790.3312 1821.2498
1810.8343 0.000552 1790.6750 1821.8885
1831.8514 0.000546 1791.0188 1822.5471
1824.0214 0.000548 1791.3627 1823.2251
1754.7378 0.000570 1791.7065 1823.9222
1867.4320 0.000535 1792.0503 1824.6381
1794.3753 0.000557 1792.3941 1825.3728
1744.7127 0.000573 1792.7379 1826.1262
1803.2246 0.000555 1793.0817 1826.8986
1852.4659 0.000540 1793.4256 1827.6899
1847.4962 0.000541 1793.7694 1828.5006
1796.7709 0.000557 1794.1132 1829.3308
1788.4907 0.000559 1794.4570 1830.1809
1793.0000 0.000558 1794.8008 1831.0513
1798.5523 0.000556 1795.1446 1831.9425
1900.5577 0.000526 1795.4885 1832.8550
1808.6366 0.000553 1795.8323 1833.7893
1790.9062 0.000558 1796.1761 1834.7460
1821.2505 0.000549 1796.5199 1835.7258
1834.8491 0.000545 1796.8637 1836.7294
1790.8600 0.000558 1797.2075 1837.7576
1766.6493 0.000566 1797.5993 1838.8590
1797.6164 0.000556 1797.9910 1839.9867
1853.2013 0.000540 1798.3828 1841.1415
1830.2895 0.000546 1798.7745 1842.3244
1833.5933 0.000545 1799.1662 1843.5366
1914.1874 0.000522 1799.5580 1844.7791
1900.2085 0.000526 1799.9497 1846.0531
1805.3923 0.000554 1800.3414 1846.6864
1833.7467 0.000545 1800.7332 1848.0328
1845.8545 0.000542 1801.1249 1849.4147
1828.1620 0.000547 1801.5166 1850.8337
1854.0700 0.000539 1801.9084 1852.2914
1910.5299 0.000523 1802.3001 1853.4521
1823.4468 0.000548 1802.6919 1854.2534
1844.3011 0.000542 1803.0836 1855.8466
1859.2338 0.000538 1803.4753 1857.4859
1830.8775 0.000546 1803.8671 1859.1735
1883.5887 0.000531 1804.2588 1860.9118
1882.2429 0.000531 1804.6505 1862.3318
1864.7479 0.000536 1805.0423 1864.1821
1851.4505 0.000540 1805.4340 1866.0911
1868.0110 0.000535 1805.8257 1868.0618
1864.2675 0.000536 1806.2175 1870.0973
1877.1729 0.000533 1806.6092 1872.2012
1875.2722 0.000533 1807.0010 1874.3772
1867.0432 0.000536 1807.3927 1876.6292
1892.0267 0.000529 1807.7844 1878.9613
1853.3066 0.000540 1808.1762 1881.3783
1852.8364 0.000540 1808.5679 1883.8848
1931.0122 0.000518 1808.9596 1886.4862
1975.1435 0.000506 1809.3514 1889.1880
1910.0708 0.000524 1809.7431 1891.9963
1917.4554 0.000522 1810.1348 1894.9175
1936.6197 0.000516 1810.5266 1897.9587
1909.5539 0.000524 1810.9183 1901.1275
1924.4417 0.000520 1811.3101 1904.4320
1964.5917 0.000509 1811.7018 1907.8813
1926.2224 0.000519 1812.0935 1911.4851
1900.3484 0.000526 1812.4853 1915.2541
1930.4231 0.000518 1812.8770 1919.1999
1939.3140 0.000516 1813.2687 1923.3356
1936.1319 0.000516 1813.6605 1927.6756
1978.1181 0.000506 1814.0522 1932.2538
1984.7733 0.000504 1814.4439 1937.0531
1993.4541 0.000502 1814.7739 1942.0499
2033.2129 0.000492 1815.1038 1947.3299
2026.0018 0.000494 1815.4337 1952.9207
2007.3503 0.000498 1815.7636 1958.8542
2048.6853 0.000488 1816.0935 1965.1683
2063.3060 0.000485 1816.4234 1971.9165
2052.5029 0.000487 1816.7533 1979.1431
2050.4506 0.000488 1817.0832 1986.9023
2060.6337 0.000485 1817.4131 1995.2788
2075.0000 0.000482 1817.7430 2004.3731
2108.4677 0.000474 1818.0729 2014.2742
2138.0000 0.000468 1818.4029 2025.1214
2133.7928 0.000469 1818.7328 2037.0732
2172.3813 0.000460 1819.0627 2050.3027
2190.1777 0.000457 1819.3926 2065.0288
2156.4991 0.000464 1819.7225 2081.5016
2180.0958 0.000459 1820.0524 2100.0157
2259.5919 0.000443 1820.3823 2120.8938
2317.2964 0.000432 1820.7122 2144.5185
2357.3606 0.000424 1821.0421 2171.3144
2352.2319 0.000425 1821.3720 2201.7531
2329.0225 0.000429 1821.7020 2236.3516
2389.4134 0.000419 1822.0319 2275.6693
2485.7091 0.000402 1822.3618 2320.3021
2525.0368 0.000396 1822.6917 2370.8741
2556.8751 0.000391 1823.0216 2428.0269
2656.9974 0.000376 1823.3515 2492.4060
2707.4807 0.000369 1823.6814 2564.6441
2751.3653 0.000363 1824.0113 2645.3417
2878.5069 0.000347 1824.3412 2735.0451
2927.7973 0.000342 1824.6711 2834.2214
3006.4128 0.000333 1825.0011 2943.2307
3170.7019 0.000315 1825.3310 3062.2949
3263.6003 0.000306 1825.6609 3191.4638
3292.3282 0.000304 1825.9908 3330.5758
3384.0823 0.000296 1826.3207 3479.2149
3575.4364 0.000280 1826.6506 3636.6625
3751.1099 0.000267 1826.9805 3801.8449
3936.6483 0.000254 1827.3104 3973.2805
4103.6289 0.000244 1827.6403 4149.0332
4337.3584 0.000231 1827.9702 4326.6838
4577.0919 0.000218 1828.3002 4503.3358
4730.8525 0.000211 1828.6301 4675.6742
4920.0187 0.000203 1828.9600 4840.0913
5042.7985 0.000198 1829.2281 4992.8185
5151.7972 0.000194 1829.4962 5130.3514
5322.9002 0.000188 1829.7643 5249.5075
5541.2278 0.000180 1830.0324 5347.6799
5634.5890 0.000177 1830.3005 5422.9359
5638.9357 0.000177 1830.5686 5474.0160
5770.8145 0.000173 1830.8367 5500.2628
5827.2985 0.000172 1831.1048 5501.5347
5801.4259 0.000172 1831.3729 5478.1488
5767.3413 0.000173 1831.6410 5430.8714
5664.5508 0.000177 1831.9091 5360.9363
5490.3307 0.000182 1832.1772 5270.0545
5387.2954 0.000186 1832.4453 5160.3825
5289.3056 0.000189 1832.7134 5034.4359
5096.7788 0.000196 1832.9815 4894.9476
4927.9434 0.000203 1833.2497 4744.7931
4757.5319 0.000210 1833.5178 4586.7761
4560.4497 0.000219 1833.7859 4423.6074
4352.4551 0.000230 1834.0540 4257.8372
4102.7699 0.000244 1834.3221 4091.8153
3956.3530 0.000253 1834.5902 3927.6974
3814.4028 0.000262 1834.8583 3767.3692
3670.0648 0.000272 1835.1264 3612.5071
3491.2333 0.000286 1835.3945 3464.3321
3334.3258 0.000300 1835.6626 3323.9279
3164.7549 0.000316 1835.9307 3192.0317
3093.0625 0.000323 1836.1988 3069.1086
2994.5780 0.000334 1836.4669 2955.3817
2875.9180 0.000348 1836.7350 2850.9485
2868.3705 0.000349 1837.0031 2755.5183
2753.9187 0.000363 1837.2712 2668.8261
2706.2081 0.000370 1837.5393 2590.5295
2610.5070 0.000383 1837.8074 2520.1004
2544.0631 0.000393 1838.0755 2457.0410
2470.1477 0.000405 1838.3436 2400.8792
2458.2993 0.000407 1838.6117 2350.9187
2445.3198 0.000409 1838.8799 2306.5937
2433.4232 0.000411 1839.1480 2267.3895
2336.3391 0.000428 1839.4161 2232.7873
2318.1618 0.000431 1839.6842 2202.2563
2268.3183 0.000441 1839.9523 2175.3411
2245.3174 0.000445 1840.2204 2151.6521
2267.0763 0.000441 1840.4885 2130.7132
2301.6743 0.000434 1840.7566 2112.2131
2241.2354 0.000446 1841.0247 2095.8377
2142.2714 0.000467 1841.2928 2081.3100
2176.3954 0.000459 1841.5609 2068.3884
2125.2743 0.000471 1841.8290 2056.8638
2110.3144 0.000474 1842.0971 2046.5573
2100.0000 0.000476 1842.3652 2037.3169
2120.2645 0.000472 1842.6333 2029.0146
2157.4777 0.000464 1842.9014 2021.5441
2126.5354 0.000470 1843.1695 2014.8176
2093.1223 0.000478 1843.4376 2008.7635
2105.4508 0.000475 1843.7057 2003.3244
2132.1767 0.000469 1843.9738 1998.4545
2069.7960 0.000483 1844.2420 1994.1182
2137.9686 0.000468 1844.5101 1990.2881
2105.8557 0.000475 1844.7782 1986.9436
2143.8491 0.000466 1845.0463 1984.0694
2131.9826 0.000469 1845.3144 1981.6544
2089.8911 0.000478 1845.5825 1979.6902
2057.7744 0.000486 1845.8506 1978.1703
2023.9873 0.000494 1846.1187 1977.0886
2060.6746 0.000485 1846.3868 1976.4387
2103.5441 0.000475 1846.6549 1976.2128
2143.1244 0.000467 1846.9230 1976.4001
2138.2836 0.000468 1847.1911 1976.9864
2022.0866 0.000495 1847.4592 1977.9523
2084.5918 0.000480 1847.7273 1979.2722
2049.2586 0.000488 1847.9954 1980.9132
2023.8440 0.000494 1848.2635 1982.8335
2100.9597 0.000476 1848.5316 1984.9816
2137.1782 0.000468 1848.7997 1987.2958
2136.8711 0.000468 1849.0678 1989.7044
1997.5663 0.000501 1849.3359 1992.1271
2078.1557 0.000481 1849.6040 1994.4773
2011.4813 0.000497 1849.8722 1996.6656
2117.4754 0.000472 1850.1403 1998.6041
2099.3190 0.000476 1850.4084 2000.2097
2121.7571 0.000471 1850.6765 2001.4077
2039.0467 0.000490 1850.9446 2002.1329
2026.0815 0.000494 1851.2127 2002.3317
2068.0655 0.000484 1851.4808 2001.9626
2068.6180 0.000483 1851.7489 2000.9986
2042.9629 0.000489 1852.0170 1999.4291
2081.7261 0.000480 1852.2851 1997.2623
2071.9977 0.000483 1852.5532 1994.5252
2090.8777 0.000478 1852.7595 1991.2006
2014.5646 0.000496 1852.9658 1987.4175
2011.2086 0.000497 1853.1721 1983.2280
2035.0120 0.000491 1853.3784 1978.7148
2035.2887 0.000491 1853.5847 1973.9543
2057.6145 0.000486 1853.7910 1969.0230
2094.0642 0.000478 1853.9973 1963.9595
2147.9328 0.000466 1854.2036 1958.9046
2047.8634 0.000488 1854.4099 1953.8913
1968.9129 0.000508 1854.6162 1948.9685
1977.5447 0.000506 1854.8225 1944.2080
2071.8346 0.000483 1855.0288 1939.5920
2008.6902 0.000498 1855.2351 1935.1938
1919.5205 0.000521 1855.4414 1931.0511
1967.2728 0.000508 1855.6477 1927.1611
2004.2893 0.000499 1855.8540 1923.5318
1907.8821 0.000524 1856.0603 1920.1554
1899.8844 0.000526 1856.2666 1917.0593
1922.7211 0.000520 1856.4729 1914.2079
1963.0706 0.000509 1856.6792 1911.6009
1946.5823 0.000514 1856.8855 1909.2263
1883.1496 0.000531 1857.0918 1907.0703
1890.9042 0.000529 1857.2981 1905.1182
1915.7117 0.000522 1857.5044 1903.3545
1835.4755 0.000545 1857.7107 1901.7635
1901.5000 0.000526 1857.9170 1900.3298
1913.5944 0.000523 1858.1233 1899.0383
1894.0033 0.000528 1858.3296 1897.8749
1909.8795 0.000524 1858.5359 1896.8261
1926.5639 0.000519 1858.7422 1895.8793
1903.4716 0.000525 1858.9485 1895.0232
1854.0679 0.000539 1859.1548 1894.2474
1832.1306 0.000546 1859.3611 1893.5426
1883.9348 0.000531 1859.5674 1892.9007
1935.6554 0.000517 1859.7737 1892.3141
1931.7658 0.000518 1859.9800 1891.7767
1916.7424 0.000522 1860.1863 1891.2829
1871.2215 0.000534 1860.3926 1890.8278
1852.5846 0.000540 1860.5989 1890.4074
1895.1473 0.000528 1860.8052 1890.0180
1916.5743 0.000522 1861.0115 1889.6568
1860.5009 0.000537 1861.2178 1889.3210
1886.5250 0.000530 1861.4241 1889.0085
1907.3660 0.000524 1861.6304 1888.7173
1870.4709 0.000535 1861.7749 1888.3842
1869.1901 0.000535 1861.9194 1888.0693
1913.3373 0.000523 1862.0639 1887.7716
1906.6414 0.000524 1862.2085 1887.4900
1911.5974 0.000523 1862.3530 1887.2234
1884.2722 0.000531 1862.4975 1886.9712
1907.0723 0.000524 1862.6420 1886.7326
1994.6641 0.000501 1862.7865 1886.5068
1948.1956 0.000513 1862.9310 1886.2934
1918.8296 0.000521 1863.0756 1886.0918
1856.8932 0.000539 1863.2201 1885.9014
1840.7059 0.000543 1863.3646 1885.7219
1853.6846 0.000539 1863.5091 1885.5528
1882.3744 0.000531 1863.6536 1885.3937
1888.9492 0.000529 1863.7981 1885.2443
1885.7853 0.000530 1863.9427 1885.1043
1846.9115 0.000541 1864.0872 1884.9733
1944.3066 0.000514 1864.2317 1884.8510
1820.6526 0.000549 1864.3762 1884.7373
1909.7611 0.000524 1864.5207 1884.6318
1950.5455 0.000513 1864.6652 1884.5343
1827.2249 0.000547 1864.8097 1884.4446
1832.9983 0.000546 1864.9543 1884.3625
1804.0726 0.000554 1865.0988 1884.2879
1950.2871 0.000513 1865.2433 1884.2205
1880.2276 0.000532 1865.3878 1884.1602
1846.0708 0.000542 1865.5323 1884.1069
1901.6776 0.000526 1865.6768 1884.0604
1882.3497 0.000531 1865.8214 1884.0207
1907.0406 0.000524 1865.9659 1883.9876
1818.9432 0.000550 1866.1104 1883.9610
1812.0871 0.000552 1866.2549 1883.9409
1828.1165 0.000547 1866.3994 1883.9272
1869.9925 0.000535 1866.5439 1883.9199
1798.1847 0.000556 1866.6885 1883.9189
1947.2149 0.000514 1866.8330 1883.9242
1876.5690 0.000533 1866.9775 1883.9358
1829.4969 0.000547 1867.1220 1883.9537
1829.0000 0.000547 1867.2665 1883.9780
1931.3453 0.000518 1867.4110 1884.0087
1923.1858 0.000520 1867.5556 1884.0459
1872.1049 0.000534 1867.7001 1884.0897
1870.0239 0.000535 1867.8446 1884.1402
1834.9571 0.000545 1867.9891 1884.1976
1888.3617 0.000530 1868.4893 1884.6179
1901.6169 0.000526 1868.9895 1885.0456
1846.0064 0.000542 1869.4898 1885.4810
1916.2053 0.000522 1869.9900 1885.9246
1851.7952 0.000540 1870.4902 1886.3769
1794.4282 0.000557 1870.9904 1886.8384
1896.0657 0.000527 1871.4906 1887.3100
1905.7603 0.000525 1871.9909 1887.7925
1897.4555 0.000527 1872.4911 1888.2870
1850.6105 0.000540 1872.9913 1888.7947
1861.2168 0.000537 1873.4915 1889.3171
1845.0551 0.000542 1873.9917 1889.8560
1881.5487 0.000531 1874.4919 1890.4134
1836.2616 0.000545 1874.9922 1890.9916
1861.9347 0.000537 1875.4924 1891.5934
1846.3165 0.000542 1875.9926 1892.2216
1899.7544 0.000526 1876.4928 1892.8798
1975.2536 0.000506 1876.9930 1893.5718
1893.3432 0.000528 1877.4933 1894.3016
1874.9596 0.000533 1877.9935 1895.0738
1931.7940 0.000518 1878.4937 1895.8932
1794.3074 0.000557 1878.9939 1896.7649
1833.8976 0.000545 1879.4941 1897.6944
1885.3773 0.000530 1879.9944 1898.6870
1890.9067 0.000529 1880.4946 1899.7483
1937.1050 0.000516 1880.9948 1900.8836
1865.3852 0.000536 1881.4950 1902.0982
1885.7578 0.000530 1881.9952 1903.3967
1856.7435 0.000539 1882.4954 1904.7835
2003.0818 0.000499 1882.9957 1906.2618
1830.3955 0.000546 1883.4959 1907.8339
1882.4805 0.000531 1883.9961 1909.5009
1955.7443 0.000511 1884.4963 1911.2620
1914.5706 0.000522 1884.9965 1913.1147
1921.2000 0.000521 1885.4968 1915.0538
1882.6428 0.000531 1885.9970 1917.0716
1898.8665 0.000527 1886.4972 1919.1570
1902.0000 0.000526 1886.9974 1921.2956
1928.9490 0.000518 1887.4976 1923.4693
1918.2669 0.000521 1887.9978 1925.6565
1934.1437 0.000517 1888.4981 1927.8327
1929.2482 0.000518 1888.9983 1929.9714
1876.4812 0.000533 1889.4985 1932.0452
1882.5516 0.000531 1889.9987 1934.0276
1972.0375 0.000507 1890.4441 1935.8392
1941.0654 0.000515 1890.8895 1937.5130
1855.8346 0.000539 1891.3349 1939.0308
1951.0440 0.000513 1891.7803 1940.3769
2003.0201 0.000499 1892.2257 1941.5384
1901.4846 0.000526 1892.6710 1942.5048
1919.5156 0.000521 1893.1164 1943.2676
1943.6925 0.000514 1893.5618 1943.8214
1874.6197 0.000533 1894.0072 1944.1643
1942.9288 0.000515 1894.4526 1944.2989
1886.4309 0.000530 1894.8980 1944.2320
1917.1412 0.000522 1895.3434 1943.9753
1963.9577 0.000509 1895.7888 1943.5445
1906.5110 0.000525 1896.2341 1942.9588
1905.0551 0.000525 1896.6795 1942.2397
1891.7345 0.000529 1897.1249 1941.4106
1960.1439 0.000510 1897.5703 1940.4957
1989.9270 0.000503 1898.0157 1939.5194
1854.4940 0.000539 1898.4611 1938.5059
1888.4183 0.000530 1898.9065 1937.4782
1899.4005 0.000526 1899.3519 1936.4584
1945.8356 0.000514 1899.7972 1935.4668
1915.0921 0.000522 1900.2426 1934.5217
1952.3073 0.000512 1900.6880 1933.6391
1913.6985 0.000523 1901.1334 1932.8324
1966.0731 0.000509 1901.5788 1932.1126
1957.3469 0.000511 1902.0242 1931.4882
1968.7499 0.000508 1902.4696 1930.9654
1858.7705 0.000538 1902.9150 1930.5484
1922.2126 0.000520 1903.3603 1930.2398
1969.3310 0.000508 1903.8057 1930.0411
1877.9081 0.000533 1904.2511 1929.9526
1908.8963 0.000524 1904.6965 1929.9742
1916.2867 0.000522 1905.1419 1930.1054
1955.7036 0.000511 1905.5873 1930.3460
1903.6491 0.000525 1906.0327 1930.6958
1882.2428 0.000531 1906.4781 1931.1556
1928.0279 0.000519 1906.9234 1931.7269
1945.2557 0.000514 1907.3688 1932.4123
1877.8211 0.000533 1907.8142 1930.9386
1912.4843 0.000523 1908.2596 1931.8839
1897.7815 0.000527 1908.7050 1932.9607
1900.8242 0.000526 1909.1504 1934.1786
1970.9917 0.000507 1909.5958 1935.5496
1926.2996 0.000519 1910.0411 1937.0880
1902.0000 0.000526 1910.4865 1937.6710
1939.9878 0.000515 1910.9319 1939.6062
1986.0261 0.000504 1911.3773 1941.7670
1957.3889 0.000511 1911.8227 1943.0339
1954.2830 0.000512 1912.2681 1945.7307
1948.9220 0.000513 1912.7135 1948.7335
1979.4251 0.000505 1913.1589 1952.0733
1955.1304 0.000511 1913.6042 1955.7826
1880.9162 0.000532 1914.0496 1959.8946
1947.0663 0.000514 1914.4950 1963.8705
1991.7717 0.000502 1914.9404 1968.8928
2002.7423 0.000499 1915.3858 1974.4162
2010.9082 0.000497 1915.8312 1980.4697
2074.4687 0.000482 1916.2766 1987.0782
2039.7662 0.000490 1916.7220 1994.2615
2070.5331 0.000483 1917.1673 2002.0323
2036.6169 0.000491 1917.6127 2010.3942
2060.8995 0.000485 1918.0581 2020.7145
1994.9289 0.000501 1918.5035 2030.2336
2053.6441 0.000487 1918.9489 2040.2812
2093.8816 0.000478 1919.3943 2050.8051
2119.4405 0.000472 1919.8397 2061.7355
2120.1848 0.000472 1920.2851 2072.9848
2114.6718 0.000473 1920.7304 2084.4483
2102.2862 0.000476 1921.1758 2096.6237
2112.6620 0.000473 1921.6212 2110.0185
2152.1991 0.000465 1922.0666 2121.3762
2226.1805 0.000449 1922.5120 2132.4050
2225.0518 0.000449 1922.9574 2143.5949
2210.3116 0.000452 1923.4028 2153.5011
2224.0627 0.000450 1923.8482 2162.6027
2254.4168 0.000444 1924.2935 2170.7393
2251.4529 0.000444 1924.7389 2178.0663
2218.4851 0.000451 1925.1843 2184.4190
2253.1844 0.000444 1925.6297 2188.8049
2310.7099 0.000433 1926.0751 2191.7178
2297.4182 0.000435 1926.5205 2193.4172
2312.3570 0.000432 1926.9659 2193.2306
2276.0349 0.000439 1927.4113 2191.4844
2232.6760 0.000448 1927.8566 2188.2204
2283.6329 0.000438 1928.3020 2183.5157
2265.6028 0.000441 1928.7474 2177.4801
2287.4152 0.000437 1929.1928 2170.2507
2255.6825 0.000443 1929.5834 2161.9309
2192.6008 0.000456 1929.9739 2152.7471
2143.0533 0.000467 1930.3645 2142.8776
2121.6104 0.000471 1930.7550 2132.5011
2131.7242 0.000469 1931.1456 2121.7922
2193.6685 0.000456 1931.5361 2110.9175
2179.3964 0.000459 1931.9267 2100.0318
2122.6096 0.000471 1932.3173 2089.2759
2100.4321 0.000476 1932.7078 2078.7734
2127.5041 0.000470 1933.0984 2068.6290
2091.0087 0.000478 1933.4889 2058.9281
2056.3017 0.000486 1933.8795 2049.7368
2024.8154 0.000494 1934.2700 2041.1027
2037.3594 0.000491 1934.6606 2033.0570
2028.5546 0.000493 1935.0511 2025.6160
1961.3550 0.000510 1935.4417 2018.7835
1989.7249 0.000503 1935.8323 2012.5527
2031.2808 0.000492 1936.2228 2006.9085
2017.4513 0.000496 1936.6134 2001.8290
2027.8704 0.000493 1937.0039 1997.2872
2058.8216 0.000486 1937.3945 1993.2526
2013.6363 0.000497 1937.7850 1989.6922
1959.4848 0.000510 1938.1756 1986.5721
2028.8730 0.000493 1938.5661 1983.8577
2022.9198 0.000494 1938.9567 1981.5151
1956.3106 0.000511 1939.3473 1979.5118
1961.9223 0.000510 1939.7378 1977.8167
1995.7623 0.000501 1940.1284 1976.4007
2031.4860 0.000492 1940.5189 1975.2374
1997.7656 0.000501 1940.9095 1974.3027
1952.7698 0.000512 1941.3000 1973.5325
2030.8906 0.000492 1941.6906 1972.9934
1970.9407 0.000507 1942.0812 1972.6262
1940.2667 0.000515 1942.4717 1972.4168
1995.0031 0.000501 1942.8623 1972.3536
1985.3503 0.000504 1943.2528 1972.4267
2023.8636 0.000494 1943.6434 1972.6281
2032.7323 0.000492 1944.0339 1972.9300
1996.9385 0.000501 1944.4245 1973.3280
1983.0574 0.000504 1944.8150 1973.8796
1986.5350 0.000503 1945.2056 1974.5391
2012.9414 0.000497 1945.5962 1975.3026
2003.5816 0.000499 1945.9867 1976.1705
2008.2717 0.000498 1946.3773 1977.1304
2009.9299 0.000498 1946.6997 1978.0925
2032.3083 0.000492 1947.0221 1979.1606
2041.9206 0.000490 1947.3446 1980.3063
2010.7478 0.000497 1947.6670 1981.5207
2024.5871 0.000494 1947.9894 1982.7928
2048.2841 0.000488 1948.3119 1984.1101
2093.0346 0.000478 1948.6343 1985.4605
2095.4951 0.000477 1948.9567 1986.8245
2071.8866 0.000483 1949.2791 1988.1878
2041.9668 0.000490 1949.6016 1989.5337
2024.2688 0.000494 1949.9240 1990.8454
2079.9375 0.000481 1950.2464 1992.1058
2121.9928 0.000471 1950.5689 1993.2979
2121.3207 0.000471 1950.8913 1994.4044
2108.0091 0.000474 1951.2137 1995.4075
2024.4423 0.000494 1951.5362 1996.2897
2022.2460 0.000494 1951.8586 1997.0342
2097.2132 0.000477 1952.1810 1997.6264
2141.0835 0.000467 1952.5034 1998.0551
2109.2575 0.000474 1952.8259 1998.3137
2065.2574 0.000484 1953.1483 1998.4010
2132.6926 0.000469 1953.4707 1998.3212
2159.2309 0.000463 1953.7932 1998.0831
2069.0769 0.000483 1954.1156 1997.6994
1952.1936 0.000512 1954.4380 1997.1854
1993.3362 0.000502 1954.7605 1996.5581
2055.0000 0.000487 1955.0829 1995.8359
2082.4521 0.000480 1955.4053 1995.0378
2139.4610 0.000467 1955.7277 1994.1833
2110.2374 0.000474 1956.0502 1993.2919
2055.7303 0.000486 1956.3726 1992.3827
2086.5817 0.000479 1956.6950 1991.4738
2055.6616 0.000486 1957.0175 1990.5816
2008.4578 0.000498 1957.3399 1989.7206
2025.7949 0.000494 1957.6623 1988.9028
2056.3317 0.000486 1957.9848 1988.1382
2047.7607 0.000488 1958.3072 1987.4342
2045.4135 0.000489 1958.6296 1986.7963
2035.0147 0.000491 1958.9521 1986.2280
2038.2116 0.000491 1959.2745 1985.7312
2023.3542 0.000494 1959.5969 1985.3063
1966.3197 0.000509 1959.9193 1984.9526
1973.3878 0.000507 1960.2418 1984.6685
1956.2640 0.000511 1960.5642 1984.4515
1966.9311 0.000508 1960.8792 1984.2912
1942.5201 0.000515 1961.1942 1984.1916
2009.7195 0.000498 1961.5092 1984.1490
1991.9105 0.000502 1961.8242 1984.1594
1951.2896 0.000512 1962.1392 1984.2189
2036.9316 0.000491 1962.4542 1984.3236
1996.8277 0.000501 1962.7692 1984.4695
1971.1893 0.000507 1963.0842 1984.6530
1986.9531 0.000503 1963.3992 1984.8715
1991.4609 0.000502 1963.7142 1985.1199
1949.1524 0.000513 1964.0292 1985.3962
1913.2485 0.000523 1964.3442 1985.6974
1915.3108 0.000522 1964.6592 1986.0212
1955.0226 0.000512 1964.9742 1986.3702
1953.0784 0.000512 1965.2892 1986.7328
1936.5551 0.000516 1965.6042 1987.1120
1875.9076 0.000533 1965.9192 1987.5086
1896.6618 0.000527 1966.2342 1987.9169
1923.1775 0.000520 1966.5492 1988.3380
1991.9785 0.000502 1966.8642 1988.7752
2006.4812 0.000498 1967.1792 1989.2193
1999.2363 0.000500 1967.4942 1989.6738
2007.7442 0.000498 1967.8092 1990.1406
1931.0210 0.000518 1968.1242 1990.6144
1948.0829 0.000513 1968.4392 1991.0982
1934.4948 0.000517 1968.7542 1991.5900
1924.3677 0.000520 1969.0692 1992.0903
1949.4920 0.000513 1969.3842 1992.6013
1982.1774 0.000504 1969.6992 1993.1184
2018.2006 0.000495 1970.0142 1993.6438
1987.7972 0.000503 1970.3292 1994.1773
2010.2990 0.000497 1970.6442 1994.7190
1946.7656 0.000514 1970.9592 1995.2688
1970.8150 0.000507 1971.2742 1995.8268
1907.1713 0.000524 1971.5892 1996.3930
1914.9326 0.000522 1971.9043 1996.9675
1954.0234 0.000512 1972.2193 1997.5504
2013.5948 0.000497 1972.5343 1998.1417
1993.5893 0.000502 1972.8493 1998.7415
1992.2358 0.000502 1973.1643 1999.3500
1991.3566 0.000502 1973.4793 1999.9673
1981.9500 0.000505 1973.7943 2000.5936
2004.3573 0.000499 1974.1093 2001.2289
1995.0976 0.000501 1974.4243 2001.8735
1960.7984 0.000510 1974.6838 2002.4721
1976.1731 0.000506 1974.9434 2003.0804
2008.0449 0.000498 1975.2029 2003.6984
1985.4819 0.000504 1975.4624 2004.3266
1976.0718 0.000506 1975.7220 2004.9650
1996.9965 0.000501 1975.9815 2005.6140
1950.7602 0.000513 1976.2411 2006.2738
2004.6174 0.000499 1976.5006 2006.9446
1979.5464 0.000505 1976.7602 2007.6268
2022.8003 0.000494 1977.0197 2008.3207
2034.8727 0.000491 1977.2793 2009.0265
1950.9166 0.000513 1977.5388 2009.7446
2023.1126 0.000494 1977.7984 2010.4754
2075.8480 0.000482 1978.0579 2011.2192
1988.0849 0.000503 1978.3175 2011.9764
1992.2351 0.000502 1978.5770 2012.7473
2016.7766 0.000496 1978.8365 2013.5325
2019.3114 0.000495 1979.0961 2014.3324
2025.9840 0.000494 1979.3556 2015.1473
2013.1701 0.000497 1979.6152 2015.9778
2026.0430 0.000494 1979.8747 2016.8245
1976.2692 0.000506 1980.1343 2017.6877
1895.0228 0.000528 1980.3938 2018.5682
1998.1510 0.000500 1980.6534 2019.4664
2038.4091 0.000491 1980.9129 2020.3829
1972.7768 0.000507 1981.1725 2021.3215
1989.4415 0.000503 1981.4320 2022.2767
1935.2398 0.000517 1981.6916 2023.2523
1967.1441 0.000508 1981.9511 2024.2490
2005.0930 0.000499 1982.2106 2025.2676
1981.2091 0.000505 1982.4702 2026.3117
1969.3668 0.000508 1982.7297 2027.3764
1980.0361 0.000505 1982.9893 2028.4656
2004.2629 0.000499 1983.2488 2029.5815
1941.3816 0.000515 1983.5084 2030.7223
2018.1539 0.000496 1983.7679 2031.8904
2044.9953 0.000489 1984.0275 2033.0869
1969.1973 0.000508 1984.2870 2034.3205
2004.8353 0.000499 1984.5466 2035.5788
2009.3473 0.000498 1984.8061 2036.8676
2043.2155 0.000489 1985.0657 2038.1898
2056.2555 0.000486 1985.3252 2039.5466
1975.2614 0.000506 1985.5847 2040.9396
2105.8263 0.000475 1985.8443 2042.3704
2057.3235 0.000486 1986.0465 2043.7832
2053.9741 0.000487 1986.2487 2045.2408
2118.9825 0.000472 1986.4510 2046.7199
2078.8705 0.000481 1986.6532 2048.2616
2024.5910 0.000494 1986.8554 2049.8502
2064.9618 0.000484 1987.0576 2051.4877
2019.7346 0.000495 1987.2598 2053.1766
2026.5808 0.000493 1987.4621 2054.9191
2082.5992 0.000480 1987.6643 2056.7179
2075.4935 0.000482 1987.8665 2058.5667
2083.7276 0.000480 1988.0687 2060.4773
2023.3248 0.000494 1988.2709 2062.4618
2066.6167 0.000484 1988.4732 2064.5144
2046.1299 0.000489 1988.6754 2066.6386
2090.7872 0.000478 1988.8776 2068.8282
2126.7181 0.000470 1989.0798 2071.1068
2100.5806 0.000476 1989.2820 2073.4687
2051.2252 0.000488 1989.4843 2075.9138
2157.4445 0.000464 1989.6865 2078.4559
2089.3287 0.000479 1989.8887 2081.0956
2160.9483 0.000463 1990.0909 2083.8383
2121.8014 0.000471 1990.2931 2086.6850
2197.7426 0.000455 1990.4954 2089.6517
2099.7623 0.000476 1990.6976 2092.7404
2160.5078 0.000463 1990.8998 2095.9584
2157.3931 0.000464 1991.1020 2099.3136
2068.1371 0.000484 1991.3042 2102.8147
2148.8543 0.000465 1991.5065 2106.4712
2124.9970 0.000471 1991.7087 2110.2934
2153.2082 0.000464 1991.9109 2114.2930
2193.7647 0.000456 1992.1131 2118.4825
2178.8468 0.000459 1992.3153 2122.8763
2200.1269 0.000455 1992.5176 2127.4905
2131.8190 0.000469 1992.7198 2132.3430
2191.8113 0.000456 1992.9220 2137.4547
2207.4323 0.000453 1993.1242 2142.8490
2250.4731 0.000444 1993.3264 2148.5534
2273.3043 0.000440 1993.5287 2154.5992
2209.5710 0.000453 1993.7309 2161.0232
2339.5022 0.000427 1993.9331 2167.8681
2284.5323 0.000438 1994.1353 2175.1836
2253.5916 0.000444 1994.3376 2183.0283
2316.5242 0.000432 1994.5398 2191.4701
2302.7447 0.000434 1994.7420 2200.5889
2267.2501 0.000441 1994.8867 2210.4198
2278.0592 0.000439 1995.0314 2221.1284
2383.5553 0.000420 1995.1761 2232.8396
2441.7907 0.000410 1995.3209 2245.6975
2434.4820 0.000411 1995.4656 2259.8675
2504.1939 0.000399 1995.6103 2275.5380
2461.9362 0.000406 1995.7550 2292.9228
2585.3273 0.000387 1995.8997 2312.2624
2454.9214 0.000407 1996.0444 2333.8256
2547.2895 0.000393 1996.1891 2357.9100
2586.7989 0.000387 1996.3339 2384.8431
2543.3668 0.000393 1996.4786 2414.9812
2735.8517 0.000366 1996.6233 2448.7084
2694.1444 0.000371 1996.7680 2486.4349
2854.0168 0.000350 1996.9127 2528.5932
2723.1671 0.000367 1997.0574 2575.6339
2852.4893 0.000351 1997.2022 2628.0199
2874.7036 0.000348 1997.3469 2686.2196
3005.7679 0.000333 1997.4916 2750.6977
3112.9187 0.000321 1997.6363 2821.9056
3158.0267 0.000317 1997.7810 2900.2690
3164.8513 0.000316 1997.9257 2986.1745
3325.4694 0.000301 1998.0704 3079.9540
3405.6501 0.000294 1998.2152 3181.8663
3454.4258 0.000289 1998.3599 3292.0777
3582.3540 0.000279 1998.5046 3410.6385
3765.9070 0.000266 1998.6493 3537.4583
3877.5524 0.000258 1998.7940 3672.2788
4076.1751 0.000245 1998.9387 3814.6455
4171.8011 0.000240 1999.0835 3963.8808
4299.6546 0.000233 1999.2282 4119.0613
4344.8893 0.000230 1999.3729 4279.0035
4499.2821 0.000222 1999.5176 4442.2641
4757.0002 0.000210 1999.6623 4607.1045
4781.4051 0.000209 1999.8070 4771.7468
5078.3589 0.000197 1999.9517 4934.1074
5153.1754 0.000194 2000.0965 5092.0830
5378.0041 0.000186 2000.2412 5243.5622
5433.0532 0.000184 2000.3859 5386.4758
5739.1841 0.000174 2000.5306 5518.8208
5782.4145 0.000173 2000.6753 5638.5535
5899.2288 0.000170 2000.8200 5744.0156
5999.0778 0.000167 2000.9648 5833.2879
6107.8142 0.000164 2001.1095 5904.6348
6195.5888 0.000161 2001.2542 5956.5826
6199.3554 0.000161 2001.3989 5987.8614
6148.1248 0.000163 2001.5436 5997.5448
6375.7949 0.000157 2001.6883 5985.4077
6221.1768 0.000161 2001.8330 5951.6269
6207.4029 0.000161 2001.9778 5896.8614
6109.2409 0.000164 2002.1225 5822.2574
6017.4373 0.000166 2002.2672 5729.3744
5976.7635 0.000167 2002.4119 5620.0080
5759.4473 0.000174 2002.5566 5496.1193
5701.9503 0.000175 2002.7013 5359.9214
5445.0431 0.000184 2002.8461 5213.5751
5320.2932 0.000188 2002.9908 5059.3159
5228.8786 0.000191 2003.1355 4899.3675
5061.9905 0.000198 2003.2802 4735.9045
4903.6890 0.000204 2003.4249 4571.0045
4634.8597 0.000216 2003.5696 4406.6046
4523.3132 0.000221 2003.7143 4244.4616
4322.3938 0.000231 2003.8591 4086.1200
4218.7723 0.000237 2004.0038 3932.8919
3973.8197 0.000252 2004.1485 3785.8547
3964.3066 0.000252 2004.2932 3645.8312
3908.2875 0.000256 2004.4379 3513.4348
3655.0555 0.000274 2004.5826 3389.0683
3565.4130 0.000280 2004.7274 3272.9509
3519.7277 0.000284 2004.8721 3165.1432
3461.4898 0.000289 2005.0168 3065.5717
3281.9643 0.000305 2005.1615 2974.0521
3189.5854 0.000314 2005.3062 2890.3112
3082.6478 0.000324 2005.4509 2814.0092
2988.1284 0.000335 2005.5956 2744.7457
2889.0604 0.000346 2005.7404 2682.0928
2849.6328 0.000351 2005.8851 2625.5966
2832.6138 0.000353 2006.0298 2574.7924
2827.5308 0.000354 2006.1745 2529.2141
2829.4612 0.000353 2006.3192 2488.4032
2718.7874 0.000368 2006.4639 2451.9149
2742.0892 0.000365 2006.6087 2419.3240
2713.1923 0.000369 2006.7534 2390.2288
2652.9868 0.000377 2006.8981 2364.2541
2615.1740 0.000382 2007.0428 2341.0529
2556.7143 0.000391 2007.1875 2320.3071
2475.0516 0.000404 2007.3322 2301.7284
2530.7142 0.000395 2007.4769 2285.0566
2533.0722 0.000395 2007.5642 2270.0019
2497.2512 0.000400 2007.6514 2256.4157
2457.3580 0.000407 2007.7386 2244.1162
2444.2697 0.000409 2007.8258 2232.9440
2378.5716 0.000420 2007.9130 2222.7600
2347.6883 0.000426 2008.0002 2213.4436
2427.5000 0.000412 2008.0874 2204.8903
2346.0098 0.000426 2008.1746 2197.0098
2331.5007 0.000429 2008.2618 2189.7246
2329.8211 0.000429 2008.3490 2182.9675
2301.0606 0.000435 2008.4363 2176.6808
2319.8460 0.000431 2008.5235 2170.8143
2265.3225 0.000441 2008.6107 2165.3246
2236.8597 0.000447 2008.6979 2160.1735
2270.4331 0.000440 2008.7851 2155.3272
2298.6398 0.000435 2008.8723 2150.7560
2276.8674 0.000439 2008.9595 2146.4328
2320.5711 0.000431 2009.0467 2142.3335
2270.6489 0.000440 2009.1339 2138.4361
2259.1852 0.000443 2009.2211 2134.7126
2285.2902 0.000438 2009.3084 2131.1620
2254.5024 0.000444 2009.3956 2127.7602
2134.0378 0.000469 2009.4828 2124.4939
2199.6352 0.000455 2009.5700 2121.3515
2227.4797 0.000449 2009.6572 2118.3233
2202.8398 0.000454 2009.7444 2115.4067
2226.9877 0.000449 2009.8316 2112.5802
2259.2811 0.000443 2009.9188 2109.8519
2152.9783 0.000464 2010.0060 2107.2131
2193.8405 0.000456 2010.0933 2104.6415
2224.8510 0.000449 2010.1805 2102.1718
2140.5030 0.000467 2010.2677 2099.7819
2158.1906 0.000463 2010.3549 2097.4705
2106.0439 0.000475 2010.4421 2095.2361
2147.2699 0.000466 2010.5293 2093.0802
2174.1881 0.000460 2010.6165 2090.9966
2198.2110 0.000455 2010.7037 2088.9777
2134.3530 0.000469 2010.7909 2087.0414
2111.7295 0.000474 2010.8781 2085.1772
2129.8459 0.000470 2010.9654 2083.3841
2127.7245 0.000470 2011.0526 2081.6605
2122.6261 0.000471 2011.1398 2080.0051
2088.4698 0.000479 2011.2270 2078.4162
2118.6686 0.000472 2011.3142 2076.8924
2072.7837 0.000482 2011.3437 2075.3740
2116.0674 0.000473 2011.3732 2073.9172
2116.9721 0.000472 2011.4028 2072.5200
2087.2520 0.000479 2011.4323 2071.1809
2121.7649 0.000471 2011.4618 2069.8981
2077.4361 0.000481 2011.4914 2068.6700
1999.2573 0.000500 2011.5209 2067.4952
2026.8407 0.000493 2011.5504 2066.3722
2032.6144 0.000492 2011.5799 2065.2998
2000.3873 0.000500 2011.6095 2064.2770
2075.0986 0.000482 2011.6390 2063.3028
2080.0756 0.000481 2011.6685 2062.3765
2097.4624 0.000477 2011.6980 2061.4974
2088.7200 0.000479 2011.7276 2060.6652
2059.8099 0.000485 2011.7571 2059.8796
2025.5266 0.000494 2011.7866 2059.1404
2043.7212 0.000489 2011.8161 2058.4477
2085.8089 0.000479 2011.8457 2057.8016
2075.0254 0.000482 2011.8752 2057.2023
2055.3458 0.000487 2011.9047 2056.6498
2037.6118 0.000491 2011.9342 2056.1446
2082.5697 0.000480 2011.9638 2055.6865
2119.3416 0.000472 2011.9933 2055.2758
2063.9488 0.000485 2012.0228 2054.9122
2002.1743 0.000499 2012.0523 2054.5954
2033.7537 0.000492 2012.0819 2054.3247
2052.4184 0.000487 2012.1114 2054.0990
2061.3860 0.000485 2012.1409 2053.9168
2095.5646 0.000477 2012.1705 2053.7761
2059.8681 0.000485 2012.2000 2053.6743
2024.8022 0.000494 2012.2295 2053.6080
2019.2303 0.000495 2012.2590 2053.5733
2052.7998 0.000487 2012.2886 2053.5651
2067.9551 0.000484 2012.3181 2053.5780
2022.1784 0.000495 2012.3476 2053.6054
2005.5397 0.000499 2012.3771 2053.6402
2066.6239 0.000484 2012.4067 2053.6745
2095.1366 0.000477 2012.4362 2053.7001
1981.7344 0.000505 2012.4657 2053.7082
1978.7320 0.000505 2012.4952 2053.6903
2032.8556 0.000492 2012.5248 2053.6381
2094.6476 0.000477 2012.5543 2053.5441
2121.5932 0.000471 2012.5838 2053.4016
2106.0000 0.000475 2012.6133 2053.2050
2065.0093 0.000484 2012.5867 2052.8941
1994.4395 0.000501 2012.5600 2052.5224
2020.7302 0.000495 2012.5334 2052.0888
2048.2877 0.000488 2012.5068 2051.5938
2041.1609 0.000490 2012.4801 2051.0394
2038.7774 0.000490 2012.4535 2050.4290
2058.1841 0.000486 2012.4268 2049.7672
2046.8871 0.000489 2012.4002 2049.0598
2033.5844 0.000492 2012.3735 2048.3131
2025.5752 0.000494 2012.3469 2047.5341
2001.0473 0.000500 2012.3202 2046.7298
2025.8651 0.000494 2012.2936 2045.9076
2051.4115 0.000487 2012.2669 2045.0746
2041.0441 0.000490 2012.2403 2044.2377
2023.0411 0.000494 2012.2136 2043.4036
2032.2519 0.000492 2012.1870 2042.5785
2051.0753 0.000488 2012.1604 2041.7678
2043.1933 0.000489 2012.1337 2040.9767
2028.3518 0.000493 2012.1071 2040.2093
2037.3026 0.000491 2012.0804 2039.4692
2064.2116 0.000484 2012.0538 2038.7594
2069.4180 0.000483 2012.0271 2038.0821
2039.8769 0.000490 2012.0005 2037.4390
2022.5012 0.000494 2011.9738 2036.8313
2041.4264 0.000490 2011.9472 2036.2598
2079.7500 0.000481 2011.9205 2035.7248
2060.6932 0.000485 2011.8939 2035.2266
2051.2407 0.000488 2011.8672 2034.7651
2058.3061 0.000486 2011.8406 2034.3401
2023.6112 0.000494 2011.8140 2033.9513
2075.8478 0.000482 2011.7873 2033.5986
2111.1036 0.000474 2011.7607 2033.2814
2052.5768 0.000487 2011.7340 2032.9996
2046.8798 0.000489 2011.7074 2032.7529
2047.9291 0.000488 2011.6807 2032.5410
2045.2990 0.000489 2011.6541 2032.3640
2061.5210 0.000485 2011.6274 2032.2217
2019.9522 0.000495 2011.6008 2032.1142
2003.6009 0.000499 2011.5741 2032.0414
2034.6158 0.000491 2011.5475 2032.0034
2044.5359 0.000489 2011.5209 2032.0003
2003.2727 0.000499 2011.4942 2032.0319
1983.8988 0.000504 2011.4676 2032.0981
2016.2725 0.000496 2011.4409 2032.1986
2033.6841 0.000492 2011.5600 2032.6866
2015.3868 0.000496 2011.6791 2033.0005
2013.7152 0.000497 2011.7982 2033.3459
1994.9475 0.000501 2011.9173 2033.7210
2016.1375 0.000496 2012.0364 2034.1233
2057.6147 0.000486 2012.1555 2034.5502
2071.5684 0.000483 2012.2746 2034.9979
2023.9522 0.000494 2012.3937 2035.4624
1959.6500 0.000510 2012.5128 2035.9390
2004.2255 0.000499 2012.6319 2036.5263
2078.2869 0.000481 2012.7510 2037.0119
2072.3339 0.000483 2012.8701 2037.4932
2060.7330 0.000485 2012.9892 2037.9644
2097.5777 0.000477 2013.1083 2038.4196
2075.4739 0.000482 2013.2274 2039.7389
2040.3833 0.000490 2013.3465 2040.3771
2019.9405 0.000495 2013.4656 2040.7570
2075.4181 0.000482 2013.5847 2041.0984
2051.9505 0.000487 2013.7038 2041.3957
2035.2939 0.000491 2013.8229 2041.6437
2050.4698 0.000488 2013.9420 2041.8376
2074.9093 0.000482 2014.0611 2041.9730
2077.6489 0.000481 2014.1802 2042.0463
2035.8769 0.000491 2014.2993 2042.4963
2002.0584 0.000499 2014.4184 2042.5550
1978.8490 0.000505 2014.5375 2042.4362
2000.1291 0.000500 2014.6566 2042.2542
1990.8839 0.000502 2014.7757 2042.0122
2042.5556 0.000490 2014.8948 2041.7151
2105.3990 0.000475 2015.0139 2041.3683
2062.9162 0.000485 2015.1330 2040.9779
2051.1514 0.000488 2015.2521 2040.5503
2054.5515 0.000487 2015.3712 2040.0918
2123.8959 0.000471 2015.4903 2039.6091
2073.3799 0.000482 2015.6094 2039.1084
1975.4134 0.000506 2015.7285 2038.5963
1954.6835 0.000512 2015.8476 2038.0789
2069.5107 0.000483 2015.9667 2037.5621
2051.0629 0.000488 2016.0858 2037.0517
2032.3400 0.000492 2016.2049 2036.5527
2052.5646 0.000487 2016.3240 2036.0694
2079.2872 0.000481 2016.4431 2035.6056
2049.0284 0.000488 2016.5622 2035.1643
2047.5139 0.000488 2016.6813 2034.7479
2084.1059 0.000480 2016.8004 2034.3579
2090.4772 0.000478 2016.9195 2033.9955
2044.7542 0.000489 2017.0386 2033.6611
2039.7997 0.000490 2017.1577 2033.3547
2072.1008 0.000483 2017.2768 2033.0762
2027.7429 0.000493 2017.3959 2032.8248
1992.5399 0.000502 2017.5150 2032.5996
2052.8513 0.000487 2017.6341 2032.3997
2058.9783 0.000486 2017.7532 2032.2237
2035.4344 0.000491 2017.8723 2032.0703
2013.2007 0.000497 2017.9914 2031.9381
2008.2430 0.000498 2018.1105 2031.8256
2002.6714 0.000499 2018.2296 2031.7315
1998.0842 0.000500 2018.3487 2031.6543
2084.1719 0.000480 2018.4678 2031.5926
2015.5168 0.000496 2018.5869 2031.5450
1976.2591 0.000506 2018.7060 2031.5104
2000.2198 0.000500 2018.8251 2031.4875
2040.4079 0.000490 2018.9442 2031.4751
2040.7199 0.000490 2019.0633 2031.4723
1984.0635 0.000504 2019.1824 2031.4782
1964.0476 0.000509 2019.3015 2031.4918
2020.4492 0.000495 2019.4206 2031.5124
2056.1620 0.000486 2019.5397 2031.5393
2068.1223 0.000484 2019.6588 2031.5719
2032.7441 0.000492 2019.7779 2031.6097
1991.9130 0.000502 2019.8970 2031.6522
1993.4379 0.000502 2020.0161 2031.7201
2036.5957 0.000491 2020.1352 2031.7708
2045.0876 0.000489 2020.2543 2031.8252
1987.5891 0.000503 2020.3734 2031.8829
2071.9023 0.000483 2020.4925 2031.9443
2035.6309 0.000491 2020.6116 2032.0079
2011.7753 0.000497 2020.7307 2032.0743
2112.1231 0.000473 2020.8498 2032.1432
2079.5841 0.000481 2020.9689 2032.2146
1977.8979 0.000506 2021.0880 2032.2883
2061.6564 0.000485 2021.2071 2032.3749
2025.2703 0.000494 2021.3262 2032.4531
2017.4571 0.000496 2021.4452 2032.5334
2026.7705 0.000493 2021.5643 2032.6157
1964.7747 0.000509 2021.6834 2032.7004
2008.1528 0.000498 2021.8025 2032.7867
2035.4575 0.000491 2021.9216 2032.8750
2029.5566 0.000493 2022.3899 2033.3144
2054.7728 0.000487 2022.8582 2033.7557
2092.6606 0.000478 2023.3265 2034.1989
2051.1230 0.000488 2023.7948 2034.6440
2019.0592 0.000495 2024.2631 2035.0910
2097.1752 0.000477 2024.7313 2035.5400
2098.9089 0.000476 2025.1996 2035.9909
2074.1874 0.000482 2025.6679 2036.4438
2028.3207 0.000493 2026.1362 2036.8987
2050.7038 0.000488 2026.6045 2037.3558
2066.2699 0.000484 2027.0728 2037.8150
2062.2806 0.000485 2027.5410 2038.2764
2063.0752 0.000485 2028.0093 2038.7403
2082.8726 0.000480 2028.4776 2037.8391
2085.4534 0.000480 2028.9459 2038.3177
2085.2745 0.000480 2029.4142 2038.7989
2121.9990 0.000471 2029.8825 2039.2831
2116.3506 0.000473 2030.3507 2039.7705
2062.4835 0.000485 2030.8190 2040.2613
2057.2336 0.000486 2031.2873 2040.7559
2018.4933 0.000495 2031.7556 2041.2546
2037.2075 0.000491 2032.2239 2041.0747
2073.0731 0.000482 2032.6921 2040.9744
2102.6524 0.000476 2033.1604 2040.3279
2032.9844 0.000492 2033.6287 2040.8647
1993.5204 0.000502 2034.0970 2041.4078
2089.4684 0.000479 2034.5653 2041.3135
1971.4004 0.000507 2035.0336 2041.8758
2062.1345 0.000485 2035.5018 2042.4466
2061.2865 0.000485 2035.9701 2043.0265
2060.9769 0.000485 2036.4384 2043.3100
2123.9970 0.000471 2036.9067 2043.3253
2043.0479 0.000489 2037.3750 2043.9435
2019.8710 0.000495 2037.8433 2044.5772
2104.6969 0.000475 2038.3115 2044.8985
2096.8527 0.000477 2038.7798 2045.5577
2110.7737 0.000474 2039.2481 2046.2310
2105.1340 0.000475 2039.7164 2046.9230
2078.9582 0.000481 2040.1847 2047.6261
2115.4799 0.000473 2040.6530 2048.3443
2076.8976 0.000481 2041.1212 2049.0778
2076.0998 0.000482 2041.5895 2049.8262
2073.1155 0.000482 2042.0578 2050.5892
2041.4388 0.000490 2042.5261 2051.3660
2086.0190 0.000479 2042.9425 2052.1035
2104.5743 0.000475 2043.3588 2052.8523
2090.6915 0.000478 2043.7752 2053.6104
2102.1046 0.000476 2044.1916 2054.3779
2144.9726 0.000466 2044.6079 2055.1479
2120.5099 0.000472 2045.0243 2055.9197
2102.1666 0.000476 2045.4407 2056.6898
2100.7709 0.000476 2045.8571 2057.4545
2203.1268 0.000454 2046.2734 2058.2097
2093.2496 0.000478 2046.6898 2058.9512
2196.1240 0.000455 2047.1062 2059.6742
2230.7640 0.000448 2047.5226 2060.3742
2079.4496 0.000481 2047.9389 2061.0467
2120.0548 0.000472 2048.3553 2061.6877
2154.1088 0.000464 2048.7717 2062.2936
2153.1026 0.000464 2049.1881 2062.8621
2098.0372 0.000477 2049.6044 2063.3917
2065.6609 0.000484 2050.0208 2063.8821
2176.8834 0.000459 2050.4372 2064.3340
2069.1884 0.000483 2050.8535 2064.7490
2164.5044 0.000462 2051.2699 2065.1295
2103.5004 0.000475 2051.6863 2065.4782
2141.4216 0.000467 2052.1027 2065.7983
2064.4503 0.000484 2052.5190 2066.0932
2017.0234 0.000496 2052.9354 2066.3664
2087.8497 0.000479 2053.3518 2066.6219
2083.5666 0.000480 2053.7682 2066.8636
2150.1472 0.000465 2054.1845 2067.0957
2060.4541 0.000485 2054.6009 2067.3223
2200.5196 0.000454 2055.0173 2067.5475
2098.2626 0.000477 2055.4336 2067.7754
2036.7951 0.000491 2055.8500 2068.0095
2124.0828 0.000471 2056.2664 2068.2534
2136.8669 0.000468 2056.6828 2068.5098
2100.9794 0.000476 2057.0991 2068.7815
2081.0328 0.000481 2057.5155 2069.0743
2014.2888 0.000496 2057.9319 2069.3829
2161.9601 0.000463 2058.3483 2069.7124
2084.7622 0.000480 2058.7646 2070.0641
2116.5935 0.000472 2059.1810 2070.4390
2086.4646 0.000479 2059.5974 2070.8379
2144.9407 0.000466 2060.0138 2071.2615
2106.8130 0.000475 2060.4301 2071.7225
2069.8507 0.000483 2060.8465 2072.1966
2064.1283 0.000484 2061.2034 2072.6367
2042.6233 0.000490 2061.5603 2073.1042
2099.1710 0.000476 2061.9171 2073.5914
2035.2895 0.000491 2062.2740 2074.1128
2106.2383 0.000475 2062.6309 2074.6544
2129.1809 0.000470 2062.9878 2075.2243
2010.2095 0.000497 2063.3446 2075.8141
2012.6452 0.000497 2063.7015 2076.4270
2060.6493 0.000485 2064.0584 2077.0835
2146.6279 0.000466 2064.4153 2077.7395
2159.5288 0.000463 2064.7722 2078.4129
2086.2916 0.000479 2065.1290 2079.1061
2147.0194 0.000466 2065.4859 2079.8152
2031.6656 0.000492 2065.8428 2080.5401
2051.1722 0.000488 2066.1997 2081.2733
1978.2557 0.000505 2066.5565 2082.0139
2072.6849 0.000482 2066.9134 2082.7604
2045.6283 0.000489 2067.2703 2083.5048
2030.9581 0.000492 2067.6272 2084.2522
1993.0549 0.000502 2067.9841 2084.9830
1967.8970 0.000508 2068.3409 2085.6999
2067.0118 0.000484 2068.6978 2086.3986
2052.1939 0.000487 2069.0547 2087.0749
2094.7346 0.000477 2069.4116 2087.7254
2054.3962 0.000487 2069.7685 2088.3475
2117.1634 0.000472 2070.1253 2088.9397
2039.8402 0.000490 2070.4822 2089.5012
2045.4364 0.000489 2070.8391 2090.0322
2063.1929 0.000485 2071.1960 2090.5337
2108.0530 0.000474 2071.5528 2091.0072
2062.0267 0.000485 2071.9097 2091.4548
2041.7344 0.000490 2072.2666 2091.8787
2040.8889 0.000490 2072.6235 2092.2817
2080.8818 0.000481 2072.9804 2092.6668
2078.9313 0.000481 2073.3372 2093.0370
2168.7351 0.000461 2073.6941 2093.3960
2075.6095 0.000482 2074.0510 2093.7472
2015.4696 0.000496 2074.4079 2094.0943
2045.6625 0.000489 2074.7647 2094.4410
2071.0157 0.000483 2075.1216 2094.7907
2074.8676 0.000482 2075.4785 2095.1468
2094.8929 0.000477 2075.8354 2095.5122
2098.8622 0.000476 2076.1923 2095.8896
2104.1574 0.000475 2076.5491 2096.2814
2057.0135 0.000486 2076.8452 2096.6286
2156.6334 0.000464 2077.1412 2096.9938
2119.6483 0.000472 2077.4373 2097.3904
2096.4177 0.000477 2077.7333 2097.7953
2128.6953 0.000470 2078.0294 2098.2212
2119.8160 0.000472 2078.3254 2098.6688
2115.3182 0.000473 2078.6214 2099.1385
2083.9859 0.000480 2078.9175 2099.6643
2123.9553 0.000471 2079.2135 2100.1790
2118.0081 0.000472 2079.5096 2100.7162
2046.0924 0.000489 2079.8056 2101.3177
2058.4814 0.000486 2080.1017 2101.9000
2047.5025 0.000488 2080.3977 2102.5105
2144.3091 0.000466 2080.6938 2103.1371
2151.2483 0.000465 2080.9898 2103.7856
2143.0988 0.000467 2081.2858 2104.4560
2126.5302 0.000470 2081.5819 2105.1684
2191.1685 0.000456 2081.8779 2105.9083
2187.5873 0.000457 2082.1740 2106.6611
2156.3957 0.000464 2082.4700 2107.4182
2109.0203 0.000474 2082.7661 2108.2190
2103.0043 0.000476 2083.0621 2109.0388
2142.3129 0.000467 2083.3582 2109.8638
2116.2018 0.000473 2083.6542 2110.7118
2079.2504 0.000481 2083.9502 2111.5786
2066.4688 0.000484 2084.2463 2112.4742
2081.5377 0.000480 2084.5423 2113.3945
2080.5061 0.000481 2084.8384 2114.3501
2105.5938 0.000475 2085.1344 2115.3338
2102.8665 0.000476 2085.4305 2116.3336
2152.8246 0.000465 2085.7265 2117.3618
2106.0669 0.000475 2086.0225 2118.4155
2097.2579 0.000477 2086.3186 2119.5132
2165.3502 0.000462 2086.6146 2120.6322
2140.5629 0.000467 2086.9107 2121.7877
2211.7471 0.000452 2087.2067 2122.9789
2200.7199 0.000454 2087.5028 2124.2070
2161.7066 0.000463 2087.7988 2125.4755
2206.6391 0.000453 2088.0949 2126.7862
2198.4044 0.000455 2088.3909 2128.1391
2105.2339 0.000475 2088.6869 2129.5416
2091.2020 0.000478 2088.9830 2130.9945
2101.9584 0.000476 2089.2790 2132.5012
2168.5658 0.000461 2089.5751 2134.0656
2100.7851 0.000476 2089.8117 2135.6325
2128.6806 0.000470 2090.0483 2137.2661
2221.9446 0.000450 2090.2849 2138.9720
2183.6315 0.000458 2090.5215 2140.7563
2171.6607 0.000460 2090.7581 2142.6259
2099.7572 0.000476 2090.9947 2144.5888
2228.7127 0.000449 2091.2313 2146.6540
2229.1749 0.000449 2091.4679 2148.8316
2190.9196 0.000456 2091.7045 2151.1334
2164.9675 0.000462 2091.9411 2153.5726
2201.1922 0.000454 2092.1777 2156.1643
2224.6809 0.000450 2092.4143 2158.9253
2190.9206 0.000456 2092.6509 2161.8752
2248.5913 0.000445 2092.8875 2165.0356
2239.6824 0.000446 2093.1241 2168.4311
2236.9886 0.000447 2093.3607 2172.0893
2264.5996 0.000442 2093.5973 2176.0410
2212.9197 0.000452 2093.8339 2180.3206
2277.2681 0.000439 2094.0705 2184.9723
2269.0983 0.000441 2094.3071 2190.0266
2287.4791 0.000437 2094.5437 2195.5360
2325.1357 0.000430 2094.7803 2201.5516
2381.6524 0.000420 2095.0169 2208.1294
2347.0413 0.000426 2095.2535 2215.3301
2373.3575 0.000421 2095.4901 2223.2194
2308.1798 0.000433 2095.7267 2231.8681
2321.6263 0.000431 2095.9633 2241.3520
2434.7603 0.000411 2096.1999 2251.7514
2389.2550 0.000419 2096.4365 2263.1544
2435.0410 0.000411 2096.6731 2275.6444
2455.9429 0.000407 2096.9097 2289.3171
2452.1942 0.000408 2097.1463 2304.2680
2428.2214 0.000412 2097.3829 2320.5945
2493.7724 0.000401 2097.6195 2338.3944
2491.5895 0.000401 2097.8561 2357.7644
2479.9210 0.000403 2098.0927 2378.7978
2511.4486 0.000398 2098.3293 2401.5826
2567.9278 0.000389 2098.5659 2426.1982
2647.5099 0.000378 2098.8025 2452.7124
2660.5741 0.000376 2099.0391 2481.1781
2628.4880 0.000380 2099.2758 2511.6293
2650.6521 0.000377 2099.5124 2544.0777
2718.6800 0.000368 2099.7490 2578.5094
2770.1139 0.000361 2099.9856 2614.8800
2773.4255 0.000361 2100.2222 2653.1251
2725.5027 0.000367 2100.4588 2693.1433
2873.2908 0.000348 2100.6954 2734.8097
2940.4744 0.000340 2100.9320 2777.9772
2948.6245 0.000339 2101.1686 2822.4768
3027.8252 0.000330 2101.4052 2868.1324
3058.3338 0.000327 2101.6418 2914.7446
3078.1339 0.000325 2101.8784 2962.0978
3148.0611 0.000318 2102.1150 3009.9565
3219.8806 0.000311 2102.3516 3058.0471
3244.0000 0.000308 2102.5882 3106.0505
3277.1896 0.000305 2102.8248 3153.5887
3284.0699 0.000305 2103.0614 3200.2072
3344.0674 0.000299 2103.2980 3245.3986
3394.5847 0.000295 2103.5346 3288.5648
3411.2959 0.000293 2103.7712 3329.0497
3416.0481 0.000293 2104.0078 3366.1575
3412.1533 0.000293 2104.2444 3399.1811
3423.3318 0.000292 2104.4810 3427.4399
3549.2633 0.000282 2104.7176 3450.3211
3549.2904 0.000282 2104.9542 3467.3199
3510.2991 0.000285 2105.1908 3478.0737
3521.8604 0.000284 2105.4274 3482.3757
3452.3291 0.000290 2105.6640 3480.1857
3412.3696 0.000293 2105.9006 3471.6118
3438.4357 0.000291 2106.1372 3456.8866
3489.3688 0.000287 2106.3738 3436.3366
3482.2521 0.000287 2106.6104 3410.3539
3421.8039 0.000292 2106.8470 3379.3749
3433.0349 0.000291 2107.0836 3343.8682
3420.6431 0.000292 2107.3202 3304.3307
3443.3222 0.000290 2107.5568 3261.2879
3388.2852 0.000295 2107.7934 3215.2970
3288.4567 0.000304 2108.0300 3166.9331
3247.5290 0.000308 2108.2666 3116.7957
3170.4245 0.000315 2108.5032 3065.4937
3107.4881 0.000322 2108.7398 3013.5953
3123.5364 0.000320 2108.9764 2961.6647
3061.2903 0.000327 2109.2130 2910.2117
2985.8767 0.000335 2109.4496 2859.6896
2975.3891 0.000336 2109.6862 2810.4890
2924.7313 0.000342 2109.9228 2762.9352
2859.8146 0.000350 2110.1594 2717.2900
2838.6816 0.000352 2110.3960 2673.7543
2800.0359 0.000357 2110.5732 2632.4149
2747.9923 0.000364 2110.7504 2593.4276
2734.5171 0.000366 2110.9275 2556.8504
2669.3685 0.000375 2111.1047 2522.6900
2641.6716 0.000379 2111.2818 2490.9352
2630.1912 0.000380 2111.4590 2461.5432
2605.1460 0.000384 2111.6362 2434.4496
2615.6550 0.000382 2111.8133 2409.5722
2601.7849 0.000384 2111.9905 2386.8149
2566.5684 0.000390 2112.1676 2366.0713
2604.4289 0.000384 2112.3448 2347.2276
2609.0412 0.000383 2112.5220 2330.1653
2535.8903 0.000394 2112.6991 2314.7638
2540.8194 0.000394 2112.8763 2300.9024
2513.1629 0.000398 2113.0534 2288.4619
2490.5431 0.000402 2113.2306 2277.3261
2465.7392 0.000406 2113.4078 2267.3833
2416.7854 0.000414 2113.5849 2258.5266
2429.4359 0.000412 2113.7621 2250.6552
2424.4902 0.000412 2113.9392 2243.6743
2400.8658 0.000417 2114.1164 2237.4958
2373.9105 0.000421 2114.2936 2232.0379
2370.7913 0.000422 2114.4707 2227.2251
2413.2383 0.000414 2114.6479 2222.9884
2415.6919 0.000414 2114.8250 2219.2642
2369.7632 0.000422 2115.0022 2215.9945
2301.9632 0.000434 2115.1793 2213.1258
2308.4048 0.000433 2115.3565 2210.6090
2322.6244 0.000431 2115.5337 2208.3988
2360.5246 0.000424 2115.7108 2206.4528
2366.8397 0.000423 2115.8880 2204.7313
2330.0165 0.000429 2116.0651 2203.1967
2283.4598 0.000438 2116.2423 2201.8135
2288.7380 0.000437 2116.4195 2200.5480
2319.8599 0.000431 2116.5966 2199.3685
2305.2236 0.000434 2116.7738 2198.2456
2292.0808 0.000436 2116.9509 2197.1529
2276.2921 0.000439 2117.1281 2196.0670
2319.3047 0.000431 2117.3053 2194.9689
2326.9849 0.000430 2117.4824 2193.8432
2289.5061 0.000437 2117.6596 2192.6791
2260.7903 0.000442 2117.8367 2191.4698
2274.1674 0.000440 2118.0139 2190.2118
2274.6781 0.000440 2118.1911 2188.9046
2241.3541 0.000446 2118.3102 2187.4919
2258.2229 0.000443 2118.4293 2186.0351
2250.0359 0.000444 2118.5484 2184.5389
2189.5453 0.000457 2118.6675 2183.0090
2211.6116 0.000452 2118.7866 2181.4523
2252.7268 0.000444 2118.9057 2179.8765
2281.6376 0.000438 2119.0248 2178.2902
2184.3664 0.000458 2119.1439 2176.7030
2187.7040 0.000457 2119.2630 2175.1248
2218.0219 0.000451 2119.3822 2173.5659
2167.6509 0.000461 2119.5013 2172.0363
2179.8811 0.000459 2119.6204 2170.5457
2254.1780 0.000444 2119.7395 2169.1029
2196.7375 0.000455 2119.8586 2167.7159
2164.1440 0.000462 2119.9777 2166.3914
2187.8597 0.000457 2120.0968 2165.1351
2227.6566 0.000449 2120.2159 2163.9517
2240.8841 0.000446 2120.3350 2162.8445
2154.0000 0.000464 2120.4541 2161.8158
2170.1495 0.000461 2120.5733 2160.8672
2189.9839 0.000457 2120.6924 2159.9990
2183.8800 0.000458 2120.8115 2159.2111
2215.7303 0.000451 2120.9306 2158.5024
2221.9856 0.000450 2121.0497 2157.8710
2221.6589 0.000450 2121.1688 2157.3147
2172.3422 0.000460 2121.2879 2156.8302
2196.5137 0.000455 2121.4070 2156.4141
2185.6586 0.000458 2121.5261 2156.0619
2203.5017 0.000454 2121.6452 2155.7690
2208.0636 0.000453 2121.7643 2155.5299
2223.9839 0.000450 2121.8835 2155.3388
2160.0884 0.000463 2122.0026 2155.1892
2180.0350 0.000459 2122.1217 2155.0747
2180.5413 0.000459 2122.2408 2154.9881
2191.6836 0.000456 2122.3599 2154.9227
2257.7506 0.000443 2122.4790 2154.8718
2176.4929 0.000459 2122.5981 2154.8290
2184.1348 0.000458 2122.7172 2154.7888
2176.5710 0.000459 2122.8363 2154.7464
2156.4894 0.000464 2122.9554 2154.8637
2141.1216 0.000467 2123.0746 2154.8071
2138.1676 0.000468 2123.1937 2154.7392
2141.4292 0.000467 2123.3128 2154.6583
2175.5632 0.000460 2123.4319 2154.5633
2138.6183 0.000468 2123.4971 2154.3991
2162.7621 0.000462 2123.5622 2154.2188
2194.2628 0.000456 2123.6274 2154.3598
2136.7578 0.000468 2123.6926 2154.1466
2141.6019 0.000467 2123.7578 2153.9151
2110.5383 0.000474 2123.8230 2153.6649
2123.3724 0.000471 2123.8882 2153.6587
2160.0500 0.000463 2123.9533 2153.3732
2192.0260 0.000456 2124.0185 2153.0705
2184.4227 0.000458 2124.0837 2152.7525
2191.6811 0.000456 2124.1489 2152.4211
2170.3174 0.000461 2124.2141 2152.0729
2153.1152 0.000464 2124.2793 2151.7231
2119.7005 0.000472 2124.3444 2151.5379
2152.4269 0.000465 2124.4096 2151.5310
2215.2828 0.000451 2124.4748 2151.1798
2212.3412 0.000452 2124.5400 2150.8336
2144.2435 0.000466 2124.6052 2150.5851
2148.6748 0.000465 2124.6704 2150.2582
2145.3225 0.000466 2124.7355 2149.9452
2158.9905 0.000463 2124.8007 2149.6462
2115.3162 0.000473 2124.8659 2149.3700
2170.3211 0.000461 2124.9311 2149.1168
2162.3330 0.000462 2124.9963 2148.8897
2111.7514 0.000474 2125.0615 2148.6921
2151.2560 0.000465 2125.1266 2148.7007
2138.2416 0.000468 2125.1918 2148.5724
2211.5251 0.000452 2125.2570 2148.4829
2120.4742 0.000472 2125.3222 2148.4353
2194.2299 0.000456 2125.3874 2148.4326
2152.2241 0.000465 2125.4525 2148.4775
2154.5939 0.000464 2125.5177 2148.5728
2121.9571 0.000471 2125.5829 2148.7213
2199.7247 0.000455 2125.6481 2148.9257
2190.1647 0.000457 2125.7133 2149.1884
2100.5786 0.000476 2125.7785 2149.5120
2147.5690 0.000466 2125.8436 2149.8988
2147.7970 0.000466 2125.9088 2150.3512
2198.7728 0.000455 2125.9740 2150.8712
2173.4659 0.000460 2126.0392 2151.4608
2187.3110 0.000457 2126.1044 2152.1216
2114.1147 0.000473 2126.1696 2152.8548
2098.2119 0.000477 2126.2347 2153.6613
2106.8615 0.000475 2126.2999 2154.5416
2174.2588 0.000460 2126.7707 2155.9009
2154.6610 0.000464 2127.2414 2157.3327
2122.0647 0.000471 2127.7122 2158.8355
2087.1097 0.000479 2128.1829 2160.4068
2154.9826 0.000464 2128.6537 2162.0453
2172.2798 0.000460 2129.1244 2163.7422
2200.3667 0.000454 2129.5952 2165.4945
2180.6196 0.000459 2130.0659 2167.2957
2237.7625 0.000447 2130.5367 2169.1387
2194.6626 0.000456 2131.0074 2171.0149
2150.9366 0.000465 2131.4782 2172.9151
2231.9032 0.000448 2131.9489 2174.8289
2156.1766 0.000464 2132.4196 2176.7449
2097.6961 0.000477 2132.8904 2178.6510
2241.2779 0.000446 2133.3611 2180.5466
2157.8475 0.000463 2133.8319 2182.3946
2213.2054 0.000452 2134.3026 2184.1914
2222.6793 0.000450 2134.7734 2185.9246
2232.9266 0.000448 2135.2441 2187.5917
2324.1924 0.000430 2135.7149 2189.1629
2144.3513 0.000466 2136.1856 2190.6296
2110.0841 0.000474 2136.6564 2191.9850
2184.1286 0.000458 2137.1271 2193.2197
2168.2725 0.000461 2137.5979 2194.3205
2185.7061 0.000458 2138.0686 2195.2914
2134.5937 0.000468 2138.5394 2196.1224
2170.7618 0.000461 2139.0101 2196.8177
2152.1774 0.000465 2139.4809 2197.3649
2226.4900 0.000449 2139.9516 2197.7732
2258.3395 0.000443 2140.4224 2198.0552
2141.4554 0.000467 2140.8931 2198.2094
2178.6335 0.000459 2141.3639 2198.2551
2247.9808 0.000445 2141.8346 2198.2004
2167.0179 0.000461 2142.3054 2198.0691
2205.5843 0.000453 2142.7761 2197.8760
2131.7722 0.000469 2143.2469 2197.6399
2267.3912 0.000441 2143.7176 2197.3800
2191.1778 0.000456 2144.1883 2197.1156
2211.8474 0.000452 2144.6591 2196.8673
2209.0482 0.000453 2145.1298 2196.6552
2208.4520 0.000453 2145.6006 2196.4998
2173.5570 0.000460 2146.0713 2196.4219
2120.2861 0.000472 2146.5421 2196.4421
2154.1518 0.000464 2147.0128 2196.5810
2231.3405 0.000448 2147.4836 2196.8589
2129.0989 0.000470 2147.9543 2197.2951
2106.0140 0.000475 2148.4251 2197.9083
2236.7383 0.000447 2148.8958 2198.7162
2190.4439 0.000457 2149.3666 2199.7353
2170.2798 0.000461 2149.8373 2200.9810
2271.7394 0.000440 2150.3081 2202.4670
2155.2774 0.000464 2150.7788 2204.2059
2232.0009 0.000448 2151.2496 2206.2087
2160.1265 0.000463 2151.7203 2208.4847
2263.2122 0.000442 2152.1911 2211.0415
2288.2913 0.000437 2152.6618 2213.8844
2159.9294 0.000463 2153.1326 2217.0170
2135.0151 0.000468 2153.6033 2220.4399
2231.7562 0.000448 2154.0741 2224.1513
2187.2332 0.000457 2154.5448 2228.1461
2298.1207 0.000435 2155.0156 2232.4159
2233.6943 0.000448 2155.4863 2236.9485
2206.3561 0.000453 2155.9570 2241.7275
2301.4618 0.000435 2156.4278 2246.7323
2331.4627 0.000429 2156.8985 2251.9374
2220.4164 0.000450 2157.3693 2257.3127
2274.6158 0.000440 2157.8400 2262.8233
2335.3814 0.000428 2158.3108 2268.4293
2299.1389 0.000435 2158.7815 2274.0865
2237.9761 0.000447 2159.2523 2279.7477
2308.4094 0.000433 2159.7230 2285.3580
2315.8139 0.000432 2160.1938 2290.8639
2306.3988 0.000434 2160.6645 2296.2088
2279.1913 0.000439 2161.1353 2301.3357
2251.2661 0.000444 2161.6060 2306.1889
2319.5043 0.000431 2162.0768 2310.7153
2336.2922 0.000428 2162.5475 2314.8661
2339.8403 0.000427 2163.0183 2318.5977
2289.0182 0.000437 2163.4890 2321.8722
2333.0719 0.000429 2163.9598 2324.6581
2376.3671 0.000421 2164.4305 2326.9294
2245.1377 0.000445 2164.9013 2328.6667
2306.0073 0.000434 2165.3720 2329.8537
2377.0841 0.000421 2165.8428 2330.4817
2384.7843 0.000419 2166.3135 2330.5471
2324.8474 0.000430 2166.7843 2330.0531
2263.7120 0.000442 2167.2550 2329.0097
2373.0907 0.000421 2167.7257 2327.4349
2335.2943 0.000428 2168.1397 2325.2977
2284.3479 0.000438 2168.5537 2322.6879
2358.4388 0.000424 2168.9677 2319.6447
2274.1496 0.000440 2169.3817 2316.2125
2365.6482 0.000423 2169.7957 2312.4389
2304.5783 0.000434 2170.2097 2308.3732
2289.7888 0.000437 2170.6237 2304.0654
2313.2658 0.000432 2171.0377 2299.5650
2196.8234 0.000455 2171.4517 2294.9199
2222.3094 0.000450 2171.8657 2290.1765
2267.0827 0.000441 2172.2797 2285.3789
2330.6118 0.000429 2172.6937 2280.5688
2236.1803 0.000447 2173.1077 2275.7853
2272.4323 0.000440 2173.5217 2271.0646
2280.7601 0.000438 2173.9356 2266.4398
2247.6595 0.000445 2174.3496 2261.9407
2301.6058 0.000434 2174.7636 2257.5934
2227.1558 0.000449 2175.1776 2253.4202
2174.1394 0.000460 2175.5916 2249.4398
2258.1374 0.000443 2176.0056 2245.6669
2212.3814 0.000452 2176.4196 2242.1126
2188.3567 0.000457 2176.8336 2238.7882
2124.1737 0.000471 2177.2476 2235.6907
2133.6887 0.000469 2177.6616 2232.8253
2197.5886 0.000455 2178.0756 2230.1908
2234.3715 0.000448 2178.4896 2227.7838
2218.6474 0.000451 2178.9036 2225.5989
2263.1852 0.000442 2179.3176 2223.6291
2182.6754 0.000458 2179.7316 2221.8662
2214.7209 0.000452 2180.1456 2220.3068
2245.7710 0.000445 2180.5595 2218.9289
2211.6048 0.000452 2180.9735 2217.7274
2188.1918 0.000457 2181.3875 2216.6910
2235.5897 0.000447 2181.8015 2215.8100
2220.3732 0.000450 2182.2155 2215.0711
2229.0080 0.000449 2182.6295 2214.4595
2327.2746 0.000430 2183.0435 2213.9654
2284.1442 0.000438 2183.4575 2213.5767
2185.9525 0.000457 2183.8715 2213.2816
2159.6801 0.000463 2184.2855 2213.0682
2251.2256 0.000444 2184.6995 2212.9251
2229.3686 0.000449 2185.1135 2212.8414
2173.9021 0.000460 2185.5275 2212.8096
2144.5390 0.000466 2185.9415 2212.8140
2156.7996 0.000464 2186.3504 2212.8439
2302.1243 0.000434 2186.7593 2212.8968
2283.9643 0.000438 2187.1682 2212.9672
2228.0254 0.000449 2187.5772 2213.0475
2145.9625 0.000466 2187.9861 2213.1349
2301.6333 0.000434 2188.3950 2213.2262
2289.4185 0.000437 2188.8039 2213.3192
2224.5595 0.000450 2189.2128 2213.4125
2246.0383 0.000445 2189.6218 2213.5053
2197.0270 0.000455 2190.0307 2213.5972
2167.6273 0.000461 2190.4396 2213.6883
2194.8249 0.000456 2190.8485 2213.7790
2131.8124 0.000469 2191.2575 2213.6635
2258.4652 0.000443 2191.6664 2213.7575
2222.4002 0.000450 2192.0753 2213.8546
2228.9177 0.000449 2192.4842 2213.9566
2188.2624 0.000457 2192.8932 2214.0655
2230.1048 0.000448 2193.3021 2214.1836
2244.4884 0.000446 2193.7110 2214.3132
2182.3091 0.000458 2194.1199 2214.4566
2166.4796 0.000462 2194.5289 2214.6162
2228.2585 0.000449 2194.9378 2214.7940
2172.6499 0.000460 2195.3467 2214.8891
2127.5351 0.000470 2195.7556 2215.1100
2185.7614 0.000458 2196.1645 2215.3548
2159.8718 0.000463 2196.5735 2215.6247
2170.4929 0.000461 2196.9824 2215.9213
2123.4944 0.000471 2197.3913 2216.2455
2199.9087 0.000455 2197.8002 2215.7673
2169.8000 0.000461 2198.2092 2216.1556
2184.3150 0.000458 2198.6181 2216.3496
2200.7172 0.000454 2199.0270 2216.8004
2243.1598 0.000446 2199.4359 2217.2825
2225.8286 0.000449 2199.8449 2217.7962
2155.2612 0.000464 2200.2538 2218.3418
2101.6176 0.000476 2200.6627 2218.9195
2279.7562 0.000439 2201.0716 2219.5291
2261.8280 0.000442 2201.4805 2220.1706
2139.6657 0.000467 2201.8895 2220.4621
2143.9699 0.000466 2202.2984 2221.0565
2186.6492 0.000457 2202.7073 2221.8187
2131.0164 0.000469 2203.1162 2222.5860
2214.5008 0.000452 2203.5252 2223.3813
2235.1653 0.000447 2203.9341 2224.2302
2265.3655 0.000441 2204.2927 2225.0262
2238.4086 0.000447 2204.6513 2225.8443
2138.1211 0.000468 2205.0099 2226.7119
2207.5771 0.000453 2205.3685 2227.5666
2239.5158 0.000447 2205.7271 2228.4349
2277.5132 0.000439 2206.0858 2229.3133
2260.3416 0.000442 2206.4444 2230.1984
2159.0088 0.000463 2206.8030 2231.1156
2196.6820 0.000455 2207.1616 2232.0043
2121.7582 0.000471 2207.5202 2232.8898
2179.3982 0.000459 2207.8788 2233.7694
2222.0576 0.000450 2208.2374 2234.6542
2165.1627 0.000462 2208.5960 2235.5145
2171.7446 0.000460 2208.9546 2236.3616
2173.5157 0.000460 2209.3132 2237.1931
2188.1304 0.000457 2209.6719 2238.0214
2226.5937 0.000449 2210.0305 2238.8138
2184.9288 0.000458 2210.3891 2239.5821
2177.1111 0.000459 2210.7477 2240.3230
2161.9356 0.000463 2211.1063 2241.0330
2184.0083 0.000458 2211.4649 2241.7088
2149.9888 0.000465 2211.8235 2242.3475
2127.8527 0.000470 2212.1821 2242.9467
2142.4539 0.000467 2212.5407 2243.5048
2195.2422 0.000456 2212.8993 2244.0213
2201.5988 0.000454 2213.2580 2244.4967
2177.1896 0.000459 2213.6166 2244.9324
2184.4306 0.000458 2213.9752 2245.3309
2231.2923 0.000448 2214.3338 2245.6951
2211.2193 0.000452 2214.6924 2246.0285
2227.7882 0.000449 2215.0510 2246.3350
2266.3973 0.000441 2215.4096 2246.6184
2237.9631 0.000447 2215.7682 2246.8824
2236.9953 0.000447 2216.1268 2247.1310
2251.4082 0.000444 2216.4855 2247.3680
2174.4130 0.000460 2216.8441 2247.5970
2164.9846 0.000462 2217.2027 2247.8221
2158.6373 0.000463 2217.5613 2248.0471
2181.3955 0.000458 2217.9199 2248.2760
2196.7541 0.000455 2218.2785 2248.5130
2203.8799 0.000454 2218.6371 2248.7619
2179.3087 0.000459 2218.9957 2249.0267
2191.7836 0.000456 2219.3543 2249.3205
2246.1434 0.000445 2219.7129 2249.6276
2229.0934 0.000449 2220.0201 2249.9146
2235.6216 0.000447 2220.3273 2250.2246
2213.9792 0.000452 2220.6345 2250.5655
2212.0975 0.000452 2220.9417 2250.9390
2193.9820 0.000456 2221.2489 2251.3470
2136.0329 0.000468 2221.5561 2251.7906
2175.5569 0.000460 2221.8633 2252.2500
2156.4288 0.000464 2222.1704 2252.7734
2159.0946 0.000463 2222.4776 2253.3299
2210.7876 0.000452 2222.7848 2253.9252
2219.9226 0.000450 2223.0920 2254.5600
2177.8539 0.000459 2223.3992 2255.2385
2188.1759 0.000457 2223.7064 2255.9530
2228.2263 0.000449 2224.0136 2256.7107
2194.9741 0.000456 2224.3207 2257.5063
2174.7758 0.000460 2224.6279 2258.3431
2231.1958 0.000448 2224.9351 2259.2111
2257.2105 0.000443 2225.2423 2260.1319
2179.5713 0.000459 2225.5495 2261.0955
2199.5879 0.000455 2225.8567 2262.1030
2219.3387 0.000451 2226.1639 2263.1577
2216.3064 0.000451 2226.4710 2264.2562
2261.0128 0.000442 2226.7782 2265.4024
2277.1117 0.000439 2227.0854 2266.5980
2228.8672 0.000449 2227.3926 2267.8453
2237.7674 0.000447 2227.6998 2269.1467
2317.9315 0.000431 2228.0070 2270.5053
2248.5916 0.000445 2228.3142 2271.9245
2190.0863 0.000457 2228.6213 2273.4082
2228.5821 0.000449 2228.9285 2274.9612
2323.6064 0.000430 2229.2357 2276.5887
2388.6346 0.000419 2229.5429 2278.2971
2339.2991 0.000427 2229.8501 2280.0932
2295.0282 0.000436 2230.1573 2281.9854
2312.4106 0.000432 2230.4645 2283.9828
2314.8115 0.000432 2230.7717 2286.0959
2294.1327 0.000436 2231.0788 2288.3368
2318.7935 0.000431 2231.3860 2290.7191
2345.3017 0.000426 2231.6932 2293.2580
2386.0510 0.000419 2232.0004 2295.9708
2362.1231 0.000423 2232.3076 2298.8768
2369.8965 0.000422 2232.6148 2301.9976
2446.4699 0.000409 2232.9220 2305.3571
2399.1181 0.000417 2233.2291 2308.9820
2334.5698 0.000428 2233.4844 2312.8494
2309.5449 0.000433 2233.7396 2317.0435
2317.5781 0.000431 2233.9948 2321.5994
2358.5867 0.000424 2234.2500 2326.5551
2383.1850 0.000420 2234.5052 2331.9516
2347.7790 0.000426 2234.7604 2337.8331
2324.7629 0.000430 2235.0156 2344.2468
2368.5798 0.000422 2235.2708 2351.2424
2417.5164 0.000414 2235.5261 2358.8726
2462.0689 0.000406 2235.7813 2367.1858
2437.5816 0.000410 2236.0365 2376.2520
2449.3019 0.000408 2236.2917 2386.1234
2472.0612 0.000405 2236.5469 2396.8596
2451.4542 0.000408 2236.8021 2408.5210
2475.6928 0.000404 2237.0573 2421.1673
2487.5222 0.000402 2237.3125 2434.8577
2527.3728 0.000396 2237.5678 2449.6491
2592.9197 0.000386 2237.8230 2465.5957
2594.0276 0.000386 2238.0782 2482.7473
2539.4729 0.000394 2238.3334 2501.1449
2539.5889 0.000394 2238.5886 2520.8325
2586.2808 0.000387 2238.8438 2541.8356
2624.3890 0.000381 2239.0990 2564.1729
2647.0184 0.000378 2239.3542 2587.8507
2700.0301 0.000370 2239.6095 2612.8612
2750.7141 0.000364 2239.8647 2639.1761
2779.9475 0.000360 2240.1199 2666.7615
2800.8001 0.000357 2240.3751 2695.5504
2849.7623 0.000351 2240.6303 2725.4585
2841.5567 0.000352 2240.8855 2756.3781
2829.9564 0.000353 2241.1407 2788.1778
2856.9390 0.000350 2241.3959 2820.7023
2906.9433 0.000344 2241.6512 2853.7734
2909.3395 0.000344 2241.9064 2887.1916
2967.6988 0.000337 2242.1616 2920.7378
3038.4439 0.000329 2242.4168 2954.1748
3141.7156 0.000318 2242.6720 2987.2574
3165.2121 0.000316 2242.9272 3019.7241
3056.8604 0.000327 2243.1824 3051.3082
3170.2407 0.000315 2243.4376 3081.7395
3186.8860 0.000314 2243.6929 3110.7491
3208.8842 0.000312 2243.9481 3138.0743
3298.8048 0.000303 2244.2033 3163.4646
3277.9527 0.000305 2244.4585 3186.6875
3345.3952 0.000299 2244.7137 3207.5344
3329.3794 0.000300 2244.9689 3225.8247
3304.1811 0.000303 2245.2241 3241.4081
3317.7794 0.000301 2245.4793 3254.1646
3409.3524 0.000293 2245.7346 3264.0026
3380.2319 0.000296 2245.9898 3270.8556
3394.5775 0.000295 2246.2450 3274.6785
3332.8542 0.000300 2246.5002 3275.4448
3357.5755 0.000298 2246.7554 3273.1460
3405.3347 0.000294 2247.0106 3267.7929
3414.6109 0.000293 2247.2658 3259.4196
3302.0088 0.000303 2247.5210 3248.0887
3318.5427 0.000301 2247.7763 3233.8963
3338.9312 0.000299 2248.0315 3216.9759
3305.0056 0.000303 2248.2867 3197.4988
3257.0555 0.000307 2248.5419 3175.6718
3308.1247 0.000302 2248.7971 3151.7304
3277.6410 0.000305 2249.0523 3125.9311
3178.3637 0.000315 2249.3075 3098.5411
3067.4528 0.000326 2249.5627 3069.8291
3059.9049 0.000327 2249.8180 3040.0578
3098.6773 0.000323 2250.0732 3009.4785
3088.0466 0.000324 2250.3284 2978.3282
2987.7935 0.000335 2250.5836 2946.8294
2968.9492 0.000337 2250.8388 2915.1905
3036.5135 0.000329 2251.0940 2883.6072
2995.9144 0.000334 2251.3492 2852.2639
2938.7022 0.000340 2251.6044 2821.3336
2902.0308 0.000345 2251.8597 2790.9739
2931.4035 0.000341 2252.1149 2761.3400
2884.4855 0.000347 2252.3701 2732.5618
2823.9600 0.000354 2252.6253 2704.7563
2823.2688 0.000354 2252.8805 2678.0226
2750.5817 0.000364 2253.1357 2652.4416
2666.1174 0.000375 2253.3909 2628.0755
2736.8679 0.000365 2253.6461 2604.9687
2748.6972 0.000364 2253.9014 2583.1486
2696.7126 0.000371 2254.1566 2562.6147
2631.4237 0.000380 2254.4118 2543.3898
2608.0848 0.000383 2254.6670 2525.4456
2589.0452 0.000386 2254.9222 2508.7610
2609.7133 0.000383 2255.1774 2493.3009
2593.1619 0.000386 2255.4326 2479.0245
2605.3147 0.000384 2255.6878 2465.8804
2525.1055 0.000396 2255.8911 2453.7752
2530.7451 0.000395 2256.0943 2442.7013
2610.8715 0.000383 2256.2976 2432.5975
2573.9520 0.000389 2256.5008 2423.4127
2550.0320 0.000392 2256.7040 2415.0770
2486.2022 0.000402 2256.9073 2407.5272
2485.9518 0.000402 2257.1105 2400.7276
2500.9118 0.000400 2257.3138 2394.6035
2503.8104 0.000399 2257.5170 2389.0962
2466.8878 0.000405 2257.7202 2384.1458
2478.3500 0.000403 2257.9235 2379.7010
2493.9172 0.000401 2258.1267 2375.7050
2471.4261 0.000405 2258.3300 2372.1029
2371.3041 0.000422 2258.5332 2368.8482
2462.1930 0.000406 2258.7364 2366.0353
2450.9004 0.000408 2258.9397 2363.3227
2466.1236 0.000405 2259.1429 2360.8275
2473.8993 0.000404 2259.3461 2358.5035
2375.0390 0.000421 2259.5494 2356.3162
2430.6758 0.000411 2259.7526 2354.2354
2447.4931 0.000409 2259.9559 2352.2351
2526.6598 0.000396 2260.1591 2350.2934
2422.9152 0.000413 2260.3623 2348.3928
2404.5392 0.000416 2260.5656 2346.5193
2446.3977 0.000409 2260.7688 2344.6621
2374.1569 0.000421 2260.9721 2342.8137
2346.0232 0.000426 2261.1753 2340.9685
2396.3555 0.000417 2261.3785 2339.3525
2471.1594 0.000405 2261.5818 2337.5067
2400.0719 0.000417 2261.7850 2335.6590
2442.6030 0.000409 2261.9883 2333.8103
2348.3731 0.000426 2262.1915 2331.9629
2391.7644 0.000418 2262.3947 2330.1198
2394.3808 0.000418 2262.5980 2328.2851
2372.7045 0.000421 2262.8012 2326.4638
2346.2541 0.000426 2263.0044 2324.6611
2339.3060 0.000427 2263.2077 2322.8830
2430.0776 0.000412 2263.4109 2321.1355
2353.0000 0.000425 2263.6142 2319.4246
2356.0439 0.000424 2263.8174 2317.7560
2375.1676 0.000421 2264.0206 2316.1351
2321.5549 0.000431 2264.2239 2314.6455
2287.7331 0.000437 2264.4271 2313.1341
2328.3334 0.000429 2264.6304 2311.6827
2313.4768 0.000432 2264.7811 2310.2415
2322.9130 0.000430 2264.9318 2308.8649
2362.4472 0.000423 2265.0825 2307.5544
2276.8736 0.000439 2265.2332 2306.3105
2286.5928 0.000437 2265.3839 2305.1214
2291.5236 0.000436 2265.5347 2304.0108
2280.3167 0.000439 2265.6854 2302.9659
2335.0217 0.000428 2265.8361 2301.9855
2246.9292 0.000445 2265.9868 2301.0681
2199.0679 0.000455 2266.1375 2300.2118
2240.8543 0.000446 2266.2882 2299.4147
2264.9439 0.000442 2266.4389 2298.6411
2252.5336 0.000444 2266.5897 2297.9559
2287.8765 0.000437 2266.7404 2297.3231
2253.6080 0.000444 2266.8911 2296.6986
2237.9719 0.000447 2267.0418 2296.1570
2352.7869 0.000425 2267.1925 2295.6663
2278.6998 0.000439 2267.3432 2295.2178
2308.9177 0.000433 2267.4940 2294.8088
2266.6428 0.000441 2267.6447 2294.4402
2258.3282 0.000443 2267.7954 2294.1030
2244.8480 0.000445 2267.9461 2293.7608
2290.6230 0.000437 2268.0968 2293.4599
2307.1019 0.000433 2268.2475 2293.2122
2310.7515 0.000433 2268.3983 2292.9688
2330.3624 0.000429 2268.5490 2292.7693
2210.1947 0.000452 2268.6997 2292.5905
2329.1843 0.000429 2268.8504 2292.4131
2295.0619 0.000436 2269.0011 2292.2700
2297.0658 0.000435 2269.1518 2292.1617
2245.9082 0.000445 2269.3026 2292.0474
2239.7727 0.000446 2269.4533 2291.9452
2222.1295 0.000450 2269.6040 2291.8440
2235.0073 0.000447 2269.7547 2291.7518
2235.7504 0.000447 2269.9054 2291.6803
2182.2655 0.000458 2270.0561 2291.6178
2317.9025 0.000431 2270.2068 2291.5639
2223.3216 0.000450 2270.3576 2291.5100
2340.2856 0.000427 2270.5083 2291.4735
2253.7677 0.000444 2270.6590 2291.4460
2278.7038 0.000439 2270.8097 2291.4278
2303.6485 0.000434 2270.9604 2291.4193
2352.1802 0.000425 2271.1111 2291.4210
2265.7266 0.000441 2271.2619 2291.4434
2366.6828 0.000423 2271.3601 2291.4150
2258.7953 0.000443 2271.4583 2291.3990
2289.0682 0.000437 2271.5565 2291.3961
2345.2857 0.000426 2271.6547 2291.4072
2206.7480 0.000453 2271.7529 2291.4335
2231.9022 0.000448 2271.8511 2291.4759
2184.9041 0.000458 2271.9493 2291.5354
2286.5988 0.000437 2272.0475 2291.6132
2248.9105 0.000445 2272.1457 2291.7102
2271.8017 0.000440 2272.2439 2291.8275
2235.9016 0.000447 2272.3421 2291.9661
2307.0401 0.000433 2272.4403 2292.1269
2237.2195 0.000447 2272.5385 2292.3106
2196.2139 0.000455 2272.6367 2292.5179
2241.9688 0.000446 2272.7349 2292.7496
2307.8391 0.000433 2272.8331 2293.0059
2183.8738 0.000458 2272.9313 2293.2872
2257.9977 0.000443 2273.0295 2293.5938
2315.1439 0.000432 2273.1277 2293.9255
2335.6900 0.000428 2273.2260 2294.2822
2226.9784 0.000449 2273.3242 2294.6634
2334.1572 0.000428 2273.4224 2295.0684
2375.2533 0.000421 2273.5206 2295.4962
2297.3441 0.000435 2273.6188 2295.9458
2257.1005 0.000443 2273.7170 2296.4159
2285.8922 0.000437 2273.8152 2296.9040
2235.3963 0.000447 2273.9134 2297.4103
2243.5880 0.000446 2274.0116 2297.9288
2312.7400 0.000432 2274.1098 2298.4588
2244.3554 0.000446 2274.2080 2298.9977
2286.2803 0.000437 2274.3062 2299.5391
2290.2096 0.000437 2274.4044 2300.0872
2266.7944 0.000441 2274.5026 2300.6356
2271.1188 0.000440 2274.6008 2301.1816
2232.0766 0.000448 2274.6990 2301.7223
2265.0342 0.000441 2274.7972 2302.2553
2259.4178 0.000443 2274.8954 2302.7782
2290.5296 0.000437 2274.9936 2303.2887
2252.0510 0.000444 2275.0918 2303.7852
2283.5751 0.000438 2275.1901 2304.2665
2270.7054 0.000440 2275.2883 2304.7309
2262.7890 0.000442 2275.3865 2305.1739
2263.7317 0.000442 2275.4847 2305.6026
2289.8949 0.000437 2275.5829 2306.0148
2294.0000 0.000436 2275.6862 2306.4187
2241.6726 0.000446 2275.7894 2306.8096
2282.5991 0.000438 2275.8927 2307.1921
2292.7050 0.000436 2275.9960 2307.5710
2263.2563 0.000442 2276.0993 2307.9515
2318.9949 0.000431 2276.2026 2308.3398
2376.4465 0.000421 2276.3059 2308.7424
2309.2369 0.000433 2276.4092 2309.1668
2190.9462 0.000456 2276.5124 2309.6207
2209.4778 0.000453 2276.6157 2310.1128
2277.0340 0.000439 2276.7190 2310.6509
2338.0371 0.000428 2276.8223 2311.2445
2243.6131 0.000446 2276.9256 2311.9030
2371.4696 0.000422 2277.0289 2312.6362
2356.9047 0.000424 2277.1321 2313.4540
2265.7744 0.000441 2277.2354 2314.3667
2257.8135 0.000443 2277.3387 2315.3848
2276.3025 0.000439 2277.4420 2316.5185
2372.6197 0.000421 2277.5453 2317.7785
2265.2442 0.000441 2277.6486 2319.1749
2243.0712 0.000446 2277.7519 2320.7177
2295.6802 0.000436 2277.8551 2322.4165
2362.5209 0.000423 2277.9584 2324.2804
2329.6517 0.000429 2278.0617 2326.3181
2329.9466 0.000429 2278.1650 2328.5369
2300.4554 0.000435 2278.2683 2330.9438
2318.1064 0.000431 2278.3716 2333.5443
2378.6134 0.000420 2278.4748 2336.3431
2357.6406 0.000424 2278.5781 2339.3429
2395.7688 0.000417 2278.6814 2342.5452
2368.4179 0.000422 2278.7847 2345.9514
2370.2219 0.000422 2278.8880 2349.5548
2344.5467 0.000427 2278.9913 2353.3524
2271.1168 0.000440 2279.0946 2357.3363
2382.0877 0.000420 2279.1978 2361.4962
2399.5217 0.000417 2279.3011 2365.8184
2417.4612 0.000414 2279.4044 2370.2875
2441.7583 0.000410 2279.5077 2374.8815
2404.4919 0.000416 2279.6110 2379.5788
2341.8337 0.000427 2279.7143 2384.3543
2407.4035 0.000415 2279.8175 2389.1809
2473.0555 0.000404 2279.9208 2394.0294
2462.7997 0.000406 2280.0241 2398.8654
2417.7135 0.000414 2280.1274 2403.6689
2329.2079 0.000429 2280.1648 2408.3404
2379.2603 0.000420 2280.2022 2412.9146
2465.7555 0.000406 2280.2397 2417.3638
2425.9906 0.000412 2280.2771 2421.6599
2414.9858 0.000414 2280.3145 2425.7747
2487.5932 0.000402 2280.3519 2429.6794
2478.1018 0.000404 2280.3893 2433.3492
2454.8587 0.000407 2280.4268 2436.7449
2471.9295 0.000405 2280.4642 2439.8399
2468.4954 0.000405 2280.5016 2442.6008
2446.8071 0.000409 2280.5390 2445.0029
2405.0286 0.000416 2280.5764 2447.0157
2376.7794 0.000421 2280.6139 2448.6150
2452.4618 0.000408 2280.6513 2449.7808
2379.4402 0.000420 2280.6887 2450.4900
2376.4785 0.000421 2280.7261 2450.7516
2452.1296 0.000408 2280.7636 2450.5541
2520.9543 0.000397 2280.8010 2449.9007
2451.0377 0.000408 2280.8384 2448.8000
2478.4655 0.000403 2280.8758 2447.2655
2462.4811 0.000406 2280.9132 2445.3169
2440.6260 0.000410 2280.9507 2442.9720
2448.2121 0.000408 2280.9881 2440.2576
2396.1028 0.000417 2281.0255 2437.2013
2431.7894 0.000411 2281.0629 2433.8286
2421.0962 0.000413 2281.1003 2430.1806
2371.6850 0.000422 2281.1378 2426.2859
2354.3160 0.000425 2281.1752 2422.1788
2328.2719 0.000430 2281.2126 2417.8942
2357.2709 0.000424 2281.2500 2413.4871
2381.9779 0.000420 2281.2874 2408.9515
2469.8418 0.000405 2281.3249 2404.3414
2400.8838 0.000417 2281.3623 2399.6899
2392.4337 0.000418 2281.3997 2395.0287
2413.1292 0.000414 2281.4371 2390.3883
2420.3943 0.000413 2281.4745 2385.7977
2459.6428 0.000407 2281.5120 2381.2839
2378.1324 0.000420 2281.5494 2376.8719
2358.2901 0.000424 2281.5868 2372.5846
2424.6448 0.000412 2281.6242 2368.4421
2381.0070 0.000420 2281.6616 2364.4622
2416.4021 0.000414 2281.6991 2360.6597
2365.3557 0.000423 2281.7365 2357.0468
2320.6810 0.000431 2281.7739 2353.6432
2369.5425 0.000422 2281.8113 2350.4636
2423.0330 0.000413 2281.8487 2347.4657
2387.8959 0.000419 2281.8862 2344.6798
2304.7378 0.000434 2281.9236 2342.1055
2273.6149 0.000440 2281.9610 2339.7406
2324.8192 0.000430 2281.9984 2337.5905
2338.7117 0.000428 2282.0359 2335.6306
2311.8265 0.000433 2282.0733 2333.8923
2277.2248 0.000439 2282.1107 2332.3089
2311.5347 0.000433 2282.1481 2330.8996
2350.3904 0.000425 2282.1855 2329.6535
2305.7025 0.000434 2282.2230 2328.5589
2312.7710 0.000432 2282.2604 2327.6029
2315.1810 0.000432 2282.2978 2326.7722
2276.2344 0.000439 2282.3352 2326.0527
2303.1624 0.000434 2282.3726 2325.4443
2326.0050 0.000430 2282.4101 2324.9039
2385.4079 0.000419 2282.4475 2324.4312
2404.8536 0.000416 2282.4849 2324.0121
2366.6028 0.000423 2282.5223 2323.6377
2324.3878 0.000430 2282.5597 2323.2860
2334.8962 0.000428 2282.5972 2322.9501
2356.1655 0.000424 2282.6346 2322.6342
2375.4410 0.000421 2282.6720 2322.3002
2306.0800 0.000434 2282.7094 2321.9548
2318.3637 0.000431 2282.7468 2321.5917
2355.4134 0.000425 2282.7843 2321.2054
2354.3747 0.000425 2282.8217 2320.7918
2351.8205 0.000425 2282.8591 2320.3476
2385.2437 0.000419 2282.8965 2319.8703
2363.3523 0.000423 2282.9339 2319.3584
2265.8547 0.000441 2282.9714 2318.8111
2284.2630 0.000438 2283.0088 2318.2284
2324.9368 0.000430 2283.0462 2317.6112
2291.7909 0.000436 2283.0836 2316.9611
2289.7562 0.000437 2283.1210 2316.2805
2308.0000 0.000433 2283.1585 2315.5723
2290.6132 0.000437 2283.1959 2314.8402
2315.8878 0.000432 2283.2333 2314.0880
2342.0478 0.000427 2283.2707 2313.3200
2306.0568 0.000434 2283.3081 2312.5407
2325.3604 0.000430 2283.3456 2311.7543
2357.7836 0.000424 2283.3830 2310.9653
2332.6308 0.000429 2283.4204 2310.1778
2311.4263 0.000433 2283.3920 2309.3301
2292.3399 0.000436 2283.3635 2308.4916
2251.3489 0.000444 2283.3351 2307.6660
2259.5125 0.000443 2283.3066 2306.8565
2296.4876 0.000435 2283.2782 2306.0660
2308.8969 0.000433 2283.2497 2305.2972
2306.2035 0.000434 2283.2213 2304.5523
2274.3988 0.000440 2283.1929 2303.8332
2255.4868 0.000443 2283.1644 2303.1414
2294.7334 0.000436 2283.1360 2302.4784
2326.8515 0.000430 2283.1075 2301.8449
2371.5866 0.000422 2283.0791 2301.2483
2351.0050 0.000425 2283.0506 2300.6755
2299.4589 0.000435 2283.0222 2300.1332
2328.2294 0.000430 2282.9938 2299.6212
2331.8535 0.000429 2282.9653 2299.1391
2337.5009 0.000428 2282.9369 2298.6865
2295.1567 0.000436 2282.9084 2298.2625
2284.2465 0.000438 2282.8800 2297.8674
2325.8416 0.000430 2282.8515 2297.4981
2349.2740 0.000426 2282.8231 2297.1548
2300.4561 0.000435 2282.7947 2296.8363
2301.3754 0.000435 2282.7662 2296.5415
2357.5535 0.000424 2282.7378 2296.2694
2306.5727 0.000434 2282.7093 2296.0187
2255.6927 0.000443 2282.6809 2295.7917
2246.6742 0.000445 2282.6524 2295.5806
2222.2068 0.000450 2282.6240 2295.3876
2207.2126 0.000453 2282.5955 2295.2116
2273.1850 0.000440 2282.5671 2295.0517
2324.2432 0.000430 2282.5387 2294.9067
2317.5861 0.000431 2282.5102 2294.7759
2259.2529 0.000443 2282.4818 2294.6587
2285.5385 0.000438 2282.4533 2294.5533
2331.8501 0.000429 2282.4249 2294.2951
2347.6873 0.000426 2282.3964 2294.2129
2291.1989 0.000436 2282.3680 2294.1408
2292.7413 0.000436 2282.3396 2294.0781
2297.5744 0.000435 2282.3111 2294.0242
2370.4730 0.000422 2282.2827 2293.9787
2327.9143 0.000430 2282.2542 2293.9409
2284.4236 0.000438 2282.2258 2293.9105
2274.1883 0.000440 2282.1973 2293.5510
2283.8684 0.000438 2282.1689 2293.5363
2294.8277 0.000436 2282.4458 2293.8333
2266.6103 0.000441 2282.7227 2294.0542
2243.8853 0.000446 2282.9996 2294.1852
2232.2807 0.000448 2283.2765 2294.5019
2220.8713 0.000450 2283.5534 2294.8272
2306.3389 0.000434 2283.8303 2295.1556
2295.1263 0.000436 2284.1072 2295.4897
2287.9072 0.000437 2284.3841 2295.8295
2281.0000 0.000438 2284.6610 2296.1752
2265.5973 0.000441 2284.9378 2296.3583
2229.1703 0.000449 2285.2147 2296.7171
2250.3078 0.000444 2285.4916 2297.0814
2282.1275 0.000438 2285.7685 2297.1070
2244.7042 0.000445 2286.0454 2297.4857
2265.4358 0.000441 2286.3223 2297.7817
2230.0809 0.000448 2286.5992 2298.1738
2281.3193 0.000438 2286.8761 2298.5728
2297.7150 0.000435 2287.1530 2298.9787
2253.5396 0.000444 2287.4299 2299.3918
2287.0424 0.000437 2287.7068 2299.8138
2299.7091 0.000435 2287.9837 2300.2423
2259.0288 0.000443 2288.2606 2300.6788
2261.0467 0.000442 2288.5375 2301.1237
2269.9366 0.000441 2288.8144 2301.4045
2352.0281 0.000425 2289.0913 2301.8683
2358.0498 0.000424 2289.3682 2302.3418
2304.3932 0.000434 2289.6451 2302.8251
2277.4169 0.000439 2289.9220 2303.3189
2271.8750 0.000440 2290.1989 2303.8236
2357.7193 0.000424 2290.4758 2304.3400
2355.0585 0.000425 2290.7526 2304.8686
2358.1059 0.000424 2291.0295 2305.4102
2272.4047 0.000440 2291.3064 2305.9655
2317.7508 0.000431 2291.5833 2306.5356
2324.9999 0.000430 2291.8602 2307.1213
2316.6494 0.000432 2292.1371 2307.7239
2314.3825 0.000432 2292.4140 2308.3446
2266.4880 0.000441 2292.6909 2308.9848
2252.2839 0.000444 2292.9678 2309.6462
2282.5800 0.000438 2293.2447 2310.3305
2302.6317 0.000434 2293.5216 2311.0397
2346.0024 0.000426 2293.7985 2311.7762
2349.2155 0.000426 2294.0754 2312.5424
2310.9714 0.000433 2294.3523 2313.3413
2329.4209 0.000429 2294.5808 2314.1275
2300.7205 0.000435 2294.8092 2314.9530
2310.3459 0.000433 2295.0377 2315.8218
2253.6124 0.000444 2295.2662 2316.7381
2300.3343 0.000435 2295.4947 2317.7068
2355.7593 0.000424 2295.7231 2318.7331
2356.7315 0.000424 2295.9516 2319.8229
2313.6761 0.000432 2296.1801 2320.9824
2314.0318 0.000432 2296.4085 2322.2164
2256.4282 0.000443 2296.6370 2323.5366
2330.0405 0.000429 2296.8655 2324.9490
2320.5121 0.000431 2297.0940 2326.4621
2320.6890 0.000431 2297.3224 2328.0852
2342.9420 0.000427 2297.5509 2329.8281
2376.0003 0.000421 2297.7794 2331.7012
2315.2318 0.000432 2298.0079 2333.7155
2334.8490 0.000428 2298.2363 2335.8823
2327.1545 0.000430 2298.4648 2338.2136
2346.1978 0.000426 2298.6933 2340.7216
2348.9043 0.000426 2298.9218 2343.4178
2375.3813 0.000421 2299.1502 2346.3049
2377.2505 0.000421 2299.3787 2349.4197
2415.5313 0.000414 2299.6072 2352.7627
2322.2056 0.000431 2299.8357 2356.3468
2360.3001 0.000424 2300.0641 2360.1845
2410.2307 0.000415 2300.2926 2364.2778
2426.7842 0.000412 2300.5211 2368.6554
2383.4025 0.000420 2300.7495 2373.3254
2376.4608 0.000421 2300.9780 2378.2936
2356.8897 0.000424 2301.2065 2383.5689
2410.4633 0.000415 2301.4350 2389.1583
2398.0578 0.000417 2301.6634 2395.0673
2468.2892 0.000405 2301.8919 2401.2930
2428.2982 0.000412 2302.1204 2407.8489
2450.1577 0.000408 2302.3489 2414.7267
2426.6985 0.000412 2302.5773 2421.9214
2445.0259 0.000409 2302.8058 2429.4191
2441.4038 0.000410 2303.0343 2437.2175
2318.4719 0.000431 2303.2628 2445.2920
2447.5230 0.000409 2303.4912 2453.6242
2458.4977 0.000407 2303.7197 2462.1845
2473.0500 0.000404 2303.9482 2470.9396
2470.7363 0.000405 2304.1767 2479.8503
2524.4745 0.000396 2304.4051 2488.8720
2463.4559 0.000406 2304.6336 2497.9546
2499.8946 0.000400 2304.8621 2507.0439
2532.4299 0.000395 2305.0905 2516.0818
2514.9002 0.000398 2305.3190 2525.0085
2589.0466 0.000386 2305.5475 2533.7638
2554.0000 0.000392 2305.7760 2542.2888
2560.8535 0.000390 2306.0044 2550.5280
2613.5643 0.000383 2306.2329 2558.4299
2675.9641 0.000374 2306.4614 2566.1459
2636.5502 0.000379 2306.6899 2573.2421
2559.3689 0.000391 2306.9183 2579.8795
2636.6326 0.000379 2307.1468 2586.0267
2637.5321 0.000379 2307.3753 2591.6549
2602.9417 0.000384 2307.6038 2596.7362
2542.4441 0.000393 2307.8322 2601.2423
2629.3235 0.000380 2308.0607 2605.1434
2581.1334 0.000387 2308.2892 2608.4082
2552.7248 0.000392 2308.5177 2611.1697
2636.3920 0.000379 2308.7461 2613.0666
2668.1692 0.000375 2308.9746 2614.2345
2570.4802 0.000389 2309.2031 2614.6501
2670.8003 0.000374 2309.4316 2614.2979
2659.5751 0.000376 2309.6600 2613.1726
2574.5514 0.000388 2309.8885 2611.3791
2599.7346 0.000385 2310.1170 2608.7398
2602.5422 0.000384 2310.3454 2605.3834
2555.9621 0.000391 2310.5739 2601.5349
2556.8184 0.000391 2310.8024 2597.0531
2678.3719 0.000373 2311.0309 2591.9704
2592.0000 0.000386 2311.2593 2586.2269
2586.4657 0.000387 2311.4878 2580.0280
2522.3646 0.000396 2311.7163 2573.4312
2565.4933 0.000390 2311.9448 2566.6548
2574.0341 0.000388 2312.1732 2559.5092
2596.9194 0.000385 2312.4017 2552.0409
2525.4992 0.000396 2312.6302 2544.3800
2553.2622 0.000392 2312.8587 2536.5722
2631.0869 0.000380 2313.0871 2528.6625
2549.4009 0.000392 2313.3156 2520.6950
2536.7730 0.000394 2313.5441 2512.7138
2495.9018 0.000401 2313.7726 2504.7622
2496.0904 0.000401 2314.0010 2496.9731
2537.9930 0.000394 2314.2295 2489.2068
2517.6035 0.000397 2314.4580 2481.6807
2555.8074 0.000391 2314.6380 2474.2791
2572.0288 0.000389 2314.8181 2467.0236
2465.0000 0.000406 2314.9981 2460.0159
2465.9436 0.000406 2315.1782 2453.2800
2495.5557 0.000401 2315.3582 2446.9171
2480.8534 0.000403 2315.5383 2440.7799
2511.9587 0.000398 2315.7183 2434.9606
2422.2095 0.000413 2315.8984 2429.4665
2383.1709 0.000420 2316.0784 2424.3010
2394.7454 0.000418 2316.2585 2419.4638
2512.8949 0.000398 2316.4385 2414.9533
2419.9273 0.000413 2316.6186 2410.7634
2412.1412 0.000415 2316.7987 2406.8861
2433.7076 0.000411 2316.9787 2403.3116
2356.0443 0.000424 2317.1588 2400.0281
2396.9349 0.000417 2317.3388 2397.0224
2357.1703 0.000424 2317.5189 2394.2799
2349.0554 0.000426 2317.6989 2391.7850
2449.0308 0.000408 2317.8790 2389.5212
2403.5765 0.000416 2318.0590 2387.4713
2344.8811 0.000426 2318.2391 2385.6177
2502.1659 0.000400 2318.4191 2383.9420
2394.2907 0.000418 2318.5992 2382.4261
2393.9541 0.000418 2318.7792 2381.0514
2388.1537 0.000419 2318.9593 2379.8000
2414.2365 0.000414 2319.1393 2378.6538
2405.3095 0.000416 2319.3194 2377.5959
2311.2608 0.000433 2319.4994 2376.6100
2443.8837 0.000409 2319.6795 2375.6812
2362.5059 0.000423 2319.8595 2374.7962
2373.3756 0.000421 2320.0396 2373.9431
2383.5571 0.000420 2320.2196 2373.1119
2471.6795 0.000405 2320.3997 2372.2946
2390.4668 0.000418 2320.5798 2371.4846
2421.0649 0.000413 2320.7598 2370.6772
2388.0338 0.000419 2320.9399 2369.8689
2426.5216 0.000412 2321.1199 2369.0574
2336.9101 0.000428 2321.3000 2368.2515
2399.4028 0.000417 2321.4800 2367.4300
2446.0460 0.000409 2321.6601 2366.6029
2452.7267 0.000408 2321.8401 2365.7735
2300.6412 0.000435 2322.0202 2364.9364
2367.7396 0.000422 2322.2002 2364.0956
2334.2818 0.000428 2322.3803 2363.2527
2340.2101 0.000427 2322.5005 2362.3496
2333.6533 0.000429 2322.6207 2361.4451
2362.3015 0.000423 2322.7409 2360.5490
2317.5238 0.000431 2322.8611 2359.6609
2347.5927 0.000426 2322.9813 2358.7844
2479.8885 0.000403 2323.1015 2357.9229
2340.9606 0.000427 2323.2217 2357.0803
2349.3628 0.000426 2323.3419 2356.2601
2298.9202 0.000435 2323.4621 2355.4659
2315.4247 0.000432 2323.5823 2354.7059
2451.2537 0.000408 2323.7025 2353.9728
2439.3588 0.000410 2323.8227 2353.2681
2412.8865 0.000414 2323.9429 2352.6074
2382.5243 0.000420 2324.0631 2351.9814
2249.1043 0.000445 2324.1833 2351.3964
2403.7902 0.000416 2324.3035 2350.8513
2413.8254 0.000414 2324.4237 2350.3440
2436.5178 0.000410 2324.5439 2349.8792
2411.1920 0.000415 2324.6641 2349.4543
2384.3722 0.000419 2324.7843 2349.0679
2309.8543 0.000433 2324.9045 2348.7193
2386.3611 0.000419 2325.0247 2348.4069
2328.4297 0.000429 2325.1450 2348.1290
2343.6483 0.000427 2325.2652 2347.8807
2326.5761 0.000430 2325.3854 2347.6656
2370.8400 0.000422 2325.5056 2347.4786
2235.0768 0.000447 2325.6258 2347.3169
2342.4358 0.000427 2325.7460 2347.1780
2244.1359 0.000446 2325.8662 2347.0591
2292.0196 0.000436 2325.9864 2346.9565
2370.5934 0.000422 2326.1066 2346.8699
2359.5284 0.000424 2326.2268 2346.7955
2299.8502 0.000435 2326.3470 2346.7310
2403.1119 0.000416 2326.4672 2346.6743
2342.9736 0.000427 2326.5874 2346.6234
2265.5855 0.000441 2326.7076 2346.5766
2341.2671 0.000427 2326.8278 2346.5325
2352.5997 0.000425 2326.9480 2346.4900
2301.8247 0.000434 2327.0682 2346.4480
2352.2690 0.000425 2327.1884 2346.4058
2386.3563 0.000419 2327.3086 2346.3629
2380.4494 0.000420 2327.4288 2346.3189
2359.3950 0.000424 2327.5490 2346.2735
2284.8568 0.000438 2327.6692 2346.2267
2313.8037 0.000432 2327.8106 2346.1995
2325.0000 0.000430 2327.9519 2346.1711
2325.7982 0.000430 2328.0933 2346.1416
2264.7413 0.000442 2328.2346 2346.1115
2331.4614 0.000429 2328.3760 2346.0815
2337.9856 0.000428 2328.5173 2346.0521
2374.1656 0.000421 2328.6587 2346.0242
2357.5288 0.000424 2328.8001 2345.9987
2328.0978 0.000430 2328.9414 2345.9767
2332.9137 0.000429 2329.0828 2345.9592
2356.9759 0.000424 2329.2241 2345.9473
2332.0314 0.000429 2329.3655 2345.9423
2333.8017 0.000428 2329.5068 2345.9451
2351.6087 0.000425 2329.6482 2345.9569
2372.0904 0.000422 2329.7895 2345.9787
2344.9313 0.000426 2329.9309 2346.0115
2287.8260 0.000437 2330.0722 2346.0562
2308.6355 0.000433 2330.2136 2346.1136
2316.9779 0.000432 2330.3549 2346.1362
2300.9427 0.000435 2330.4963 2346.2215
2265.9922 0.000441 2330.6376 2346.3215
2242.5445 0.000446 2330.7790 2346.4368
2282.6914 0.000438 2330.9204 2346.5679
2300.2266 0.000435 2331.0617 2346.7157
2399.3560 0.000417 2331.2031 2346.8792
2410.4208 0.000415 2331.3444 2347.0599
2355.7466 0.000424 2331.4858 2347.2565
2336.0740 0.000428 2331.6271 2347.4697
2350.3057 0.000425 2331.7685 2347.6995
2337.1195 0.000428 2331.9098 2347.9456
2272.1196 0.000440 2332.0512 2348.1267
2332.1753 0.000429 2332.1925 2348.4052
2312.2920 0.000432 2332.3339 2348.6991
2319.1889 0.000431 2332.4752 2349.0079
2389.1648 0.000419 2332.6166 2349.3317
2351.2161 0.000425 2332.7580 2349.6689
2374.1094 0.000421 2332.8993 2349.9923
2322.8130 0.000431 2333.0407 2350.3558
2290.8935 0.000437 2333.1820 2350.7318
2334.7670 0.000428 2333.3234 2351.1196
2365.8459 0.000423 2333.4647 2351.4896
2354.3405 0.000425 2333.6061 2351.9014
2307.5858 0.000433 2333.7474 2352.2947
2332.0173 0.000429 2333.8888 2352.7280
2341.3941 0.000427 2334.3118 2353.4544
2349.9859 0.000426 2334.7349 2354.1924
2360.7656 0.000424 2335.1579 2354.9426
2358.2531 0.000424 2335.5810 2355.7060
2383.0185 0.000420 2336.0040 2356.4691
2304.5000 0.000434 2336.4271 2357.2600
2316.9606 0.000432 2336.8501 2358.0679
2351.6746 0.000425 2337.2732 2358.8907
2332.3972 0.000429 2337.6962 2359.7158
2273.9896 0.000440 2338.1193 2360.5746
2353.5335 0.000425 2338.5423 2361.4533
2401.7458 0.000416 2338.9654 2362.3532
2336.2054 0.000428 2339.3884 2363.2756
2392.2475 0.000418 2339.8115 2364.2219
2387.4494 0.000419 2340.2345 2365.1940
2316.3571 0.000432 2340.6576 2366.1929
2343.1879 0.000427 2341.0806 2367.2207
2350.4955 0.000425 2341.5037 2368.2793
2337.7238 0.000428 2341.9267 2369.3710
2391.0114 0.000418 2342.3498 2370.4981
2405.5483 0.000416 2342.7728 2371.6631
2344.9627 0.000426 2343.1959 2372.8684
2339.4694 0.000427 2343.6189 2374.1171
2324.0119 0.000430 2344.0420 2375.4127
2334.6158 0.000428 2344.4650 2376.7564
2321.6487 0.000431 2344.8881 2378.1517
2279.5637 0.000439 2345.3111 2379.6013
2336.2328 0.000428 2345.7341 2381.1072
2418.2958 0.000414 2346.1572 2382.6715
2363.4728 0.000423 2346.5802 2384.2956
2344.5156 0.000427 2347.0033 2385.9804
2372.8442 0.000421 2347.4263 2387.7264
2338.9525 0.000428 2347.8494 2389.5335
2357.8547 0.000424 2348.2724 2391.4009
2407.0526 0.000415 2348.6955 2393.3271
2387.4002 0.000419 2349.1185 2395.3100
2341.9879 0.000427 2349.5416 2397.3468
2317.7766 0.000431 2349.9646 2399.4343
2369.3023 0.000422 2350.3877 2401.5684
2407.0898 0.000415 2350.8107 2403.7448
2374.8723 0.000421 2351.2338 2405.9588
2358.7671 0.000424 2351.6568 2408.2053
2400.8867 0.000417 2352.0799 2410.4794
2456.4259 0.000407 2352.5029 2412.7667
2424.1106 0.000413 2352.9260 2415.0813
2399.8490 0.000417 2353.3490 2417.4092
2361.8605 0.000423 2353.7721 2419.7404
2412.1507 0.000415 2354.1951 2422.0814
2493.7186 0.000401 2354.6182 2424.4221
2401.3695 0.000416 2355.0412 2426.7576
2401.7980 0.000416 2355.4643 2429.0823
2483.4006 0.000403 2355.8873 2431.3898
2466.9904 0.000405 2356.3104 2433.6725
2385.8084 0.000419 2356.7334 2435.9216
2349.9243 0.000426 2357.1565 2438.1272
2446.2951 0.000409 2357.5795 2440.2727
2426.6185 0.000412 2358.0026 2442.3512
2384.4484 0.000419 2358.4256 2444.3537
2425.4387 0.000412 2358.8487 2446.2617
2406.0953 0.000416 2359.2717 2448.0583
2432.4439 0.000411 2359.6948 2449.7351
2466.5334 0.000405 2360.1178 2451.2762
2454.3967 0.000407 2360.5409 2452.6693
2445.2661 0.000409 2360.9639 2453.9038
2439.5153 0.000410 2361.3870 2454.9701
2430.2596 0.000411 2361.8100 2455.8610
2401.1106 0.000416 2362.2331 2456.5708
2443.8926 0.000409 2362.6561 2457.0934
2462.1143 0.000406 2363.0792 2457.4326
2402.9288 0.000416 2363.5022 2457.5861
2387.9959 0.000419 2363.9252 2457.5564
2401.4294 0.000416 2364.3483 2457.3476
2402.1206 0.000416 2364.7713 2456.9656
2406.2478 0.000416 2365.1944 2456.4176
2417.0909 0.000414 2365.6174 2455.7120
2438.7561 0.000410 2366.0405 2454.8583
2415.2540 0.000414 2366.4635 2453.8668
2366.7675 0.000423 2366.8866 2452.7481
2380.1694 0.000420 2367.3096 2451.5136
2371.3649 0.000422 2367.7327 2450.1778
2376.1583 0.000421 2368.1557 2448.7464
2433.0167 0.000411 2368.5788 2447.2343
2433.4212 0.000411 2369.0018 2445.6535
2407.0091 0.000415 2369.4249 2444.0161
2396.5931 0.000417 2369.8479 2442.3342
2344.0363 0.000427 2370.2710 2440.6201
2332.5246 0.000429 2370.6940 2438.8858
2379.1441 0.000420 2371.1171 2437.1434
2390.8879 0.000418 2371.4852 2435.3498
2415.1402 0.000414 2371.8533 2433.5714
2445.0012 0.000409 2372.2214 2431.8191
2358.3442 0.000424 2372.5895 2430.1032
2363.1234 0.000423 2372.9577 2428.4333
2399.5215 0.000417 2373.3258 2426.8180
2410.2880 0.000415 2373.6939 2425.2657
2490.2416 0.000402 2374.0620 2423.7815
2452.6162 0.000408 2374.4301 2422.3734
2417.4087 0.000414 2374.7982 2421.0429
2396.7042 0.000417 2375.1663 2419.7951
2403.8318 0.000416 2375.5345 2418.6387
2426.9145 0.000412 2375.9026 2417.5637
2360.8354 0.000424 2376.2707 2416.5769
2380.6982 0.000420 2376.6388 2415.6785
2424.5326 0.000412 2377.0069 2414.8682
2406.7003 0.000416 2377.3750 2414.1448
2384.7823 0.000419 2377.7431 2413.5068
2369.2903 0.000422 2378.1113 2412.9519
2383.8484 0.000419 2378.4794 2412.4777
2450.7218 0.000408 2378.8475 2412.0811
2438.2208 0.000410 2379.2156 2411.7588
2421.5071 0.000413 2379.5837 2411.5072
2442.1310 0.000409 2379.9518 2411.3221
2386.7744 0.000419 2380.3199 2411.1998
2370.3110 0.000422 2380.6881 2411.1350
2379.8055 0.000420 2381.0562 2411.1234
2431.8991 0.000411 2381.4243 2411.1600
2389.5129 0.000418 2381.7924 2411.2433
2373.9093 0.000421 2382.1605 2411.3622
2417.6896 0.000414 2382.5286 2411.5148
2414.0020 0.000414 2382.8967 2411.6963
2444.2930 0.000409 2383.2649 2411.9022
2466.9202 0.000405 2383.6330 2412.1282
2418.9136 0.000413 2384.0011 2412.3702
2358.4215 0.000424 2384.3692 2412.6247
2343.1204 0.000427 2384.7373 2412.8886
2381.6398 0.000420 2385.1054 2413.1593
2447.3653 0.000409 2385.4735 2413.4344
2377.4452 0.000421 2385.8417 2413.7124
2386.2924 0.000419 2386.2098 2413.9917
2434.2807 0.000411 2386.5779 2414.2714
2444.1291 0.000409 2386.9460 2414.5509
2426.3840 0.000412 2387.3141 2414.8296
2447.6826 0.000409 2387.6269 2415.0519
2458.7340 0.000407 2387.9396 2415.2731
2426.1742 0.000412 2388.2523 2415.4933
2407.5390 0.000415 2388.5650 2415.7127
2407.6895 0.000415 2388.8778 2415.9316
2408.9980 0.000415 2389.1905 2416.1504
2430.8539 0.000411 2389.5032 2416.3698
2391.1028 0.000418 2389.8160 2416.5905
2429.3763 0.000412 2390.1287 2416.8133
2395.4630 0.000417 2390.4414 2417.0391
2434.8214 0.000411 2390.7541 2417.2691
2466.6089 0.000405 2391.0669 2417.5042
2442.3467 0.000409 2391.3796 2417.7457
2394.9654 0.000418 2391.6923 2417.9955
2405.2120 0.000416 2392.0051 2418.2531
2377.1022 0.000421 2392.3178 2418.5205
2432.5435 0.000411 2392.6305 2418.7985
2451.8272 0.000408 2392.9433 2419.0881
2384.0037 0.000419 2393.2560 2419.3900
2421.5481 0.000413 2393.5687 2419.7047
2417.0624 0.000414 2393.8814 2420.0328
2386.2222 0.000419 2394.1942 2420.3744
2367.9954 0.000422 2394.5069 2420.7299
2382.5912 0.000420 2394.8196 2421.0990
2482.0041 0.000403 2395.1324 2421.4816
2415.6999 0.000414 2395.4451 2421.8773
2373.4863 0.000421 2395.7578 2422.2857
2418.0678 0.000414 2396.0705 2422.7062
2413.6446 0.000414 2396.3833 2423.1382
2372.2074 0.000422 2396.6960 2423.5808
2435.2216 0.000411 2397.0087 2424.0337
2384.5197 0.000419 2397.3215 2424.4956
2417.3771 0.000414 2397.6342 2424.9660
2445.7721 0.000409 2397.9469 2425.4444
2356.4032 0.000424 2398.2596 2425.9302
2366.2787 0.000423 2398.5724 2426.4231
2361.3848 0.000423 2398.8851 2426.9228
2355.8209 0.000424 2399.1978 2427.4291
2374.9936 0.000421 2399.5106 2427.9421
2422.7034 0.000413 2399.8233 2428.4617
2458.8298 0.000407 2400.1360 2428.9881
2404.7995 0.000416 2400.4488 2429.5216
2398.7211 0.000417 2400.7615 2430.0625
2479.5802 0.000403 2401.0742 2430.6110
2463.9609 0.000406 2401.3298 2431.1104
2485.8271 0.000402 2401.5855 2431.6183
2349.5832 0.000426 2401.8411 2432.1350
2435.6671 0.000411 2402.0967 2432.6612
2448.3773 0.000408 2402.3524 2433.1972
2465.2841 0.000406 2402.6080 2433.7439
2429.5897 0.000412 2402.8636 2434.3017
2406.2206 0.000416 2403.1193 2434.8714
2409.7274 0.000415 2403.3749 2435.4538
2454.7695 0.000407 2403.6305 2436.0498
2450.6015 0.000408 2403.8861 2436.6603
2436.3945 0.000410 2404.1418 2437.2862
2493.9319 0.000401 2404.3974 2437.9286
2411.8196 0.000415 2404.6530 2438.5885
2426.5271 0.000412 2404.9087 2439.2669
2522.2457 0.000396 2405.1643 2439.9650
2439.4840 0.000410 2405.4199 2440.6840
2426.5512 0.000412 2405.6755 2441.4249
2471.7038 0.000405 2405.9312 2442.1889
2470.1178 0.000405 2406.1868 2442.9773
2403.7444 0.000416 2406.4424 2443.7914
2563.5308 0.000390 2406.6981 2444.6324
2484.3277 0.000403 2406.9537 2445.5017
2444.0454 0.000409 2407.2093 2446.4008
2462.2230 0.000406 2407.4650 2447.3312
2390.0280 0.000418 2407.7206 2448.2945
2434.5048 0.000411 2407.9762 2449.2925
2377.2993 0.000421 2408.2318 2450.3271
2467.1500 0.000405 2408.4875 2451.4004
2466.7258 0.000405 2408.7431 2452.5147
2488.7747 0.000402 2408.9987 2453.6724
2437.9210 0.000410 2409.2544 2454.8762
2428.5779 0.000412 2409.5100 2456.1291
2580.7655 0.000387 2409.7656 2457.4344
2536.0424 0.000394 2410.0212 2458.7958
2424.1391 0.000413 2410.2769 2460.2171
2426.7828 0.000412 2410.5325 2461.7028
2488.4118 0.000402 2410.7881 2463.2578
2469.9198 0.000405 2411.0438 2464.8872
2470.3740 0.000405 2411.2994 2466.5970
2426.4420 0.000412 2411.5550 2468.3934
2498.5299 0.000400 2411.8107 2470.2836
2529.4602 0.000395 2412.0663 2472.2751
2543.0163 0.000393 2412.3219 2474.3763
2544.9738 0.000393 2412.5204 2476.5390
2482.6370 0.000403 2412.7189 2478.8302
2502.5875 0.000400 2412.9174 2481.1168
2548.0005 0.000392 2413.1159 2483.6985
2560.0305 0.000391 2413.3144 2486.4432
2577.2329 0.000388 2413.5129 2489.3641
2541.8938 0.000393 2413.7114 2492.4753
2592.3875 0.000386 2413.9099 2495.7922
2558.9161 0.000391 2414.1084 2499.3307
2642.8832 0.000378 2414.3069 2503.1081
2524.7211 0.000396 2414.5054 2507.1423
2611.5568 0.000383 2414.7039 2511.4525
2613.9801 0.000383 2414.9024 2516.0587
2553.5753 0.000392 2415.1009 2521.0569
2690.7826 0.000372 2415.2994 2526.3192
2655.7626 0.000377 2415.4979 2531.8709
2636.0000 0.000379 2415.6964 2537.8799
2636.8574 0.000379 2415.8949 2544.2981
2652.9675 0.000377 2416.0934 2551.1502
2675.1977 0.000374 2416.2919 2558.3054
2754.1712 0.000363 2416.4904 2566.1024
2674.4720 0.000374 2416.6889 2574.4102
2686.7707 0.000372 2416.8873 2583.2547
2725.6560 0.000367 2417.0858 2592.6619
2640.2792 0.000379 2417.2843 2602.6570
2651.7716 0.000377 2417.4828 2613.2652
2763.4034 0.000362 2417.6813 2624.5103
2710.1124 0.000369 2417.8798 2636.4151
2679.0661 0.000373 2418.0783 2649.0011
2723.0133 0.000367 2418.2768 2662.2876
2772.0792 0.000361 2418.4753 2676.2915
2930.7185 0.000341 2418.6738 2691.0645
2855.1820 0.000350 2418.8723 2706.4646
3012.8246 0.000332 2419.0708 2722.6928
2905.2114 0.000344 2419.2693 2739.6732
2810.7930 0.000356 2419.4678 2757.4422
2953.0288 0.000339 2419.6663 2775.9141
2963.0104 0.000337 2419.8648 2795.1136
3012.8769 0.000332 2420.0633 2815.0202
3044.8358 0.000328 2420.2618 2835.6064
3024.1638 0.000331 2420.4603 2856.8380
3114.0474 0.000321 2420.6588 2878.6734
3022.2349 0.000331 2420.8573 2901.0646
3074.1465 0.000325 2421.0558 2923.9571
3108.3718 0.000322 2421.2543 2947.2909
3083.5498 0.000324 2421.4528 2971.0011
3180.6187 0.000314 2421.6513 2995.0191
3110.9597 0.000321 2421.8498 3019.2735
3149.7756 0.000317 2422.0483 3043.6907
3201.3453 0.000312 2422.2468 3068.1959
3207.8276 0.000312 2422.4453 3092.7131
3286.9530 0.000304 2422.6438 3117.1654
3290.9602 0.000304 2422.8423 3141.4744
3291.9575 0.000304 2423.0408 3165.5791
3287.2258 0.000304 2423.2393 3189.3573
3321.2780 0.000301 2423.4377 3212.7413
3426.4951 0.000292 2423.6362 3235.6394
3404.5420 0.000294 2423.8347 3257.9547
3476.6444 0.000288 2424.0332 3279.5848
3426.3936 0.000292 2424.2317 3300.4216
3451.1646 0.000290 2424.4302 3320.3520
3534.4452 0.000283 2424.6287 3339.2581
3427.9821 0.000292 2424.8272 3357.0243
3428.3773 0.000292 2425.0257 3373.5135
3446.6348 0.000290 2425.2242 3388.6148
3450.7764 0.000290 2425.4227 3402.2044
3508.2140 0.000285 2425.6212 3414.1655
3563.6076 0.000281 2425.8197 3424.3905
3622.1307 0.000276 2426.0182 3432.7819
3426.6588 0.000292 2426.2167 3439.2560
3605.9324 0.000277 2426.4152 3443.7459
3576.7985 0.000280 2426.6137 3446.2036
3488.5751 0.000287 2426.8122 3446.6015
3612.0021 0.000277 2427.0107 3444.9339
3598.9564 0.000278 2427.2092 3441.2163
3593.3036 0.000278 2427.4077 3435.4672
3532.9602 0.000283 2427.6062 3427.7753
3530.4672 0.000283 2427.8047 3418.1975
3527.4369 0.000283 2428.0032 3406.8173
3459.5036 0.000289 2428.2017 3393.7293
3412.0406 0.000293 2428.4002 3379.0396
3450.2558 0.000290 2428.5987 3362.8510
3441.9184 0.000291 2428.7972 3345.2771
3357.5212 0.000298 2428.9957 3326.4303
3311.0094 0.000302 2429.1942 3306.4237
3291.1744 0.000304 2429.3927 3285.3698
3245.5287 0.000308 2429.5912 3263.3816
3294.4725 0.000304 2429.7897 3240.5721
3274.4851 0.000305 2429.9310 3216.9976
3240.7117 0.000309 2430.0724 3192.8193
3282.3726 0.000305 2430.2137 3168.1716
3223.2256 0.000310 2430.3551 3143.1593
3282.8333 0.000305 2430.4965 3117.8969
3175.8958 0.000315 2430.6378 3092.4977
3099.8751 0.000323 2430.7792 3067.0736
3133.1157 0.000319 2430.9206 3041.7306
3049.1417 0.000328 2431.0619 3016.5727
3069.8031 0.000326 2431.2033 2991.6979
3102.1220 0.000322 2431.3447 2967.1965
3006.8324 0.000333 2431.4860 2943.1521
3014.4580 0.000332 2431.6274 2919.6400
2925.4493 0.000342 2431.7688 2896.7265
3017.6076 0.000331 2431.9101 2874.4694
2974.2516 0.000336 2432.0515 2852.9173
3050.3524 0.000328 2432.1928 2832.1105
2867.7771 0.000349 2432.3342 2812.0804
2837.6888 0.000352 2432.4756 2792.8508
2915.8308 0.000343 2432.6169 2774.4379
2875.4397 0.000348 2432.7583 2756.8513
2904.0181 0.000344 2432.8997 2740.0940
2842.3220 0.000352 2433.0410 2724.1637
2774.4298 0.000360 2433.1824 2709.0530
2803.6017 0.000357 2433.3238 2694.7500
2777.3212 0.000360 2433.4651 2681.2392
2731.4440 0.000366 2433.6065 2668.5013
2813.0830 0.000355 2433.7479 2656.5147
2808.5831 0.000356 2433.8892 2645.2550
2778.1860 0.000360 2434.0306 2634.6960
2793.9525 0.000358 2434.1720 2624.8098
2754.6817 0.000363 2434.3133 2615.5685
2804.2945 0.000357 2434.4547 2606.9395
2714.9103 0.000368 2434.5960 2598.8930
2646.1062 0.000378 2434.7374 2591.3979
2686.6352 0.000372 2434.8788 2584.4222
2686.6399 0.000372 2435.0201 2577.9353
2727.1548 0.000367 2435.1615 2571.9037
2634.2266 0.000380 2435.3029 2566.3003
2661.7999 0.000376 2435.4442 2561.0931
2584.0619 0.000387 2435.5856 2556.2528
2632.9940 0.000380 2435.7270 2551.7511
2635.6883 0.000379 2435.8683 2547.5584
2646.7331 0.000378 2436.0097 2543.6538
2623.8805 0.000381 2436.0939 2539.9532
2576.0568 0.000388 2436.1781 2536.4911
2644.5447 0.000378 2436.2623 2533.2460
2607.9991 0.000383 2436.3465 2530.1985
2607.8153 0.000383 2436.4307 2527.3305
2562.4685 0.000390 2436.5149 2524.6252
2592.6835 0.000386 2436.5991 2522.0688
2621.1916 0.000382 2436.6833 2519.6453
2624.2747 0.000381 2436.7675 2517.3447
2553.1820 0.000392 2436.8517 2515.1541
2598.7163 0.000385 2436.9359 2513.0652
2549.5322 0.000392 2437.0201 2511.0680
2601.1819 0.000384 2437.1043 2509.1531
2535.0381 0.000394 2437.1885 2507.3153
2578.6959 0.000388 2437.2727 2505.5468
2602.4007 0.000384 2437.3569 2503.8417
2590.9605 0.000386 2437.4411 2502.1948
2534.7027 0.000395 2437.5253 2500.6015
2514.0958 0.000398 2437.6095 2499.0579
2462.1084 0.000406 2437.6937 2497.5605
2454.2520 0.000407 2437.7779 2496.1067
2521.0826 0.000397 2437.8621 2494.6943
2541.8086 0.000393 2437.9463 2493.3214
2518.4420 0.000397 2438.0305 2491.9862
2536.9865 0.000394 2438.1147 2490.6886
2471.8082 0.000405 2438.1989 2489.4273
2497.3079 0.000400 2438.2831 2488.2019
2507.4369 0.000399 2438.3673 2487.0119
2498.0000 0.000400 2438.4515 2485.8570
2526.1086 0.000396 2438.5357 2484.7371
2501.3382 0.000400 2438.6199 2483.6519
2445.4847 0.000409 2438.7041 2482.6012
2425.6775 0.000412 2438.7883 2481.5848
2461.8803 0.000406 2438.8725 2480.6025
2503.9568 0.000399 2438.9567 2479.6539
2476.8057 0.000404 2439.0409 2478.7387
2500.2387 0.000400 2439.1251 2477.8564
2422.2796 0.000413 2439.2093 2477.0067
2472.1727 0.000405 2439.2935 2476.1890
2594.8988 0.000385 2439.3776 2475.4028
2589.4069 0.000386 2439.4618 2474.6473
2530.9526 0.000395 2439.5460 2473.9223
2472.9267 0.000404 2439.6302 2473.2266
2444.6811 0.000409 2439.7144 2472.5596
2455.4720 0.000407 2439.7431 2471.8653
2458.9876 0.000407 2439.7718 2471.1984
2460.9910 0.000406 2439.8005 2470.5582
2485.1212 0.000402 2439.8292 2469.9438
2476.3510 0.000404 2439.8579 2469.3546
2488.2508 0.000402 2439.8865 2468.7897
2478.8587 0.000403 2439.9152 2468.2485
2439.1891 0.000410 2439.9439 2467.7302
2391.1753 0.000418 2439.9726 2467.2340
2385.1299 0.000419 2440.0013 2466.7574
2383.5520 0.000420 2440.0300 2466.3035
2457.5808 0.000407 2440.0586 2465.8697
2429.5878 0.000412 2440.0873 2465.4553
2447.1260 0.000409 2440.1160 2465.0596
2494.6326 0.000401 2440.1447 2464.6822
2426.4224 0.000412 2440.1734 2464.3223
2426.9211 0.000412 2440.2021 2463.9782
2465.8384 0.000406 2440.2307 2463.6516
2428.1553 0.000412 2440.2594 2463.3410
2426.3468 0.000412 2440.2881 2463.0456
2390.5679 0.000418 2440.3168 2462.7649
2419.4998 0.000413 2440.3455 2462.4986
2462.8720 0.000406 2440.3741 2462.2461
2487.7985 0.000402 2440.4028 2462.0059
2461.7006 0.000406 2440.4315 2461.7796
2415.1251 0.000414 2440.4602 2461.5656
2478.4181 0.000403 2440.4889 2461.3701
2468.9272 0.000405 2440.5176 2461.1795
2386.3943 0.000419 2440.5462 2461.0253
2361.0000 0.000424 2440.5749 2460.8564
2421.9554 0.000413 2440.6036 2460.6969
2458.3380 0.000407 2440.6323 2460.5476
2397.5133 0.000417 2440.6610 2460.4074
2375.4811 0.000421 2440.6897 2460.2720
2465.2322 0.000406 2440.7183 2460.1600
2470.6691 0.000405 2440.7470 2460.0440
2468.9820 0.000405 2440.7757 2459.9351
2469.6237 0.000405 2440.8044 2459.8327
2427.7220 0.000412 2440.8331 2459.7441
2432.4523 0.000411 2440.8618 2459.6570
2502.1276 0.000400 2440.8904 2459.5711
2515.8971 0.000397 2440.9191 2459.4897
2441.8358 0.000410 2440.9478 2459.4125
2404.3699 0.000416 2440.9765 2459.3390
2451.1782 0.000408 2440.9657 2459.2293
2446.5431 0.000409 2440.9549 2459.1259
2407.6611 0.000415 2440.9441 2459.0218
2489.5209 0.000402 2440.9333 2458.9183
2523.9248 0.000396 2440.9225 2458.8438
2477.0406 0.000404 2440.9118 2458.7461
2463.5042 0.000406 2440.9010 2458.6499
2426.5107 0.000412 2440.8902 2458.5650
2367.4211 0.000422 2440.8794 2458.4708
2388.4107 0.000419 2440.8686 2458.3772
2396.1628 0.000417 2440.8578 2458.3021
2406.6544 0.000416 2440.8470 2458.2085
2401.0308 0.000416 2440.8362 2458.1145
2384.6627 0.000419 2440.8254 2458.0195
2418.5489 0.000413 2440.8147 2457.9270
2412.0959 0.000415 2440.8039 2457.8309
2410.7060 0.000415 2440.7931 2457.7308
2414.7197 0.000414 2440.7823 2457.6080
2437.8989 0.000410 2440.7715 2457.5027
2391.4257 0.000418 2440.7607 2457.3942
2397.6330 0.000417 2440.7499 2457.2823
2397.6531 0.000417 2440.7391 2457.1665
2361.4166 0.000423 2440.7283 2457.0466
2436.4741 0.000410 2440.7176 2456.9224
2407.3183 0.000415 2440.7068 2456.7998
2397.2036 0.000417 2440.6960 2456.6663
2463.3045 0.000406 2440.6852 2456.5280
2431.3262 0.000411 2440.6744 2456.3899
2405.8885 0.000416 2440.6636 2456.2418
2423.3161 0.000413 2440.6528 2456.0891
2440.8021 0.000410 2440.6420 2455.9317
2443.6139 0.000409 2440.6313 2455.7703
2457.4791 0.000407 2440.6205 2455.6044
2406.1526 0.000416 2440.6097 2455.4348
2394.4741 0.000418 2440.5989 2455.2617
2389.6224 0.000418 2440.5881 2455.0855
2416.7180 0.000414 2440.5773 2454.9065
2452.9342 0.000408 2440.5665 2454.6968
2488.9004 0.000402 2440.5557 2454.5137
2464.4155 0.000406 2440.5449 2454.3290
2429.9214 0.000412 2440.5342 2454.1431
2482.4847 0.000403 2440.5234 2453.9564
2505.5987 0.000399 2440.5126 2453.7597
2440.5074 0.000410 2440.5018 2453.5724
2359.6890 0.000424 2440.6537 2453.5547
2430.9927 0.000411 2440.8057 2453.5018
2497.3912 0.000400 2440.9576 2453.4790
2448.7311 0.000408 2441.1096 2453.4576
2411.7015 0.000415 2441.2615 2453.4377
2436.2768 0.000410 2441.4135 2453.4199
2353.2666 0.000425 2441.5655 2453.4045
2408.2593 0.000415 2441.7174 2453.3801
2426.3249 0.000412 2441.8694 2453.3706
2436.4451 0.000410 2442.0213 2453.3645
2379.9400 0.000420 2442.1733 2453.3622
2349.3682 0.000426 2442.3252 2453.3640
2444.6087 0.000409 2442.4772 2453.3701
2470.2281 0.000405 2442.6291 2453.3761
2438.0960 0.000410 2442.7811 2453.3928
2354.8181 0.000425 2442.9330 2453.4135
2401.4502 0.000416 2443.0850 2453.4249
2446.5836 0.000409 2443.2369 2453.4563
2479.1635 0.000403 2443.3889 2453.4934
2477.0147 0.000404 2443.5408 2453.5361
2376.2926 0.000421 2443.6928 2453.5846
2362.2681 0.000423 2443.8447 2453.6424
2394.9793 0.000418 2443.9967 2453.7030
2413.3060 0.000414 2444.1486 2453.7696
2466.6241 0.000405 2444.3006 2453.8424
2471.7409 0.000405 2444.4525 2453.9214
2465.9246 0.000406 2444.6045 2454.0068
2447.1842 0.000409 2444.7564 2454.0987
2397.2373 0.000417 2444.9084 2454.1970
2418.4812 0.000413 2445.0603 2454.3017
2437.0291 0.000410 2445.2123 2454.4130
2396.5723 0.000417 2445.3642 2454.5310
2390.8536 0.000418 2445.5162 2454.6557
2399.9003 0.000417 2445.6681 2454.7872
2388.5336 0.000419 2445.8201 2454.9260
2371.3062 0.000422 2445.9720 2455.0712
2442.0521 0.000409 2446.1240 2455.2234
2421.8868 0.000413 2446.2759 2455.3828
2445.3835 0.000409 2446.4279 2455.5493
2479.2944 0.000403 2446.5798 2455.7231
2449.2290 0.000408 2446.7318 2455.9041
2465.7597 0.000406 2446.8837 2456.0925
2425.2822 0.000412 2447.0357 2456.2883
2458.9904 0.000407 2447.1876 2456.4916
2544.0000 0.000393 2447.2969 2456.6598
2527.5455 0.000396 2447.4061 2456.8354
2457.9290 0.000407 2447.5154 2457.0187
2392.3025 0.000418 2447.6246 2457.2096
2436.7468 0.000410 2447.7338 2457.4080
2480.8760 0.000403 2447.8431 2457.6139
2371.5672 0.000422 2447.9523 2457.8273
2419.7696 0.000413 2448.0616 2458.0480
2422.2558 0.000413 2448.1708 2458.2759
2487.4711 0.000402 2448.2800 2458.5108
2458.9815 0.000407 2448.3893 2458.7525
2419.5174 0.000413 2448.4985 2459.0007
2481.2047 0.000403 2448.6078 2459.2551
2446.1557 0.000409 2448.7170 2459.5153
2409.6805 0.000415 2448.8262 2459.7808
2373.0307 0.000421 2448.9355 2460.0512
2469.4869 0.000405 2449.0447 2460.3258
2456.8423 0.000407 2449.1540 2460.5977
2461.2393 0.000406 2449.2632 2460.8793
2476.1066 0.000404 2449.3724 2461.1635
2448.7648 0.000408 2449.4817 2461.4494
2476.5211 0.000404 2449.5909 2461.7366
2377.2913 0.000421 2449.7002 2462.0244
2439.1130 0.000410 2449.8094 2462.3122
2540.4616 0.000394 2449.9186 2462.5994
2472.2805 0.000404 2450.0279 2462.8846
2461.0523 0.000406 2450.1371 2463.1692
2547.4183 0.000393 2450.2464 2463.4517
2487.3813 0.000402 2450.3556 2463.7318
2582.1103 0.000387 2450.4648 2464.0090
2428.3767 0.000412 2450.5741 2464.2829
2506.4859 0.000399 2450.6833 2464.5495
2405.6398 0.000416 2450.7926 2464.8153
2497.3777 0.000400 2450.9018 2465.0761
2482.4313 0.000403 2451.0110 2465.3314
2412.9359 0.000414 2451.1203 2465.5804
2441.7319 0.000410 2451.2295 2465.8223
2515.3161 0.000398 2451.3388 2466.0562
2514.0668 0.000398 2451.4480 2466.2811
2465.2584 0.000406 2451.5572 2466.4960
2499.8298 0.000400 2451.6665 2466.6994
2496.1528 0.000401 2451.7757 2466.8913
2493.8665 0.000401 2451.8850 2467.0702
2532.9213 0.000395 2451.9942 2467.2352
2433.8874 0.000411 2452.1034 2467.3857
2471.5739 0.000405 2452.2127 2467.5209
2394.7707 0.000418 2452.3219 2467.6405
2399.0000 0.000417 2452.4312 2467.7442
2404.5056 0.000416 2452.5404 2467.8320
2432.7851 0.000411 2452.6496 2467.9040
2420.7427 0.000413 2452.7589 2467.9604
2459.8737 0.000407 2452.8681 2468.0019
2447.3370 0.000409 2452.9774 2468.0291
2414.1673 0.000414 2453.0866 2468.0426
2428.6639 0.000412 2453.1958 2468.0433
2442.4985 0.000409 2453.3051 2468.0321
2501.7943 0.000400 2453.4143 2468.0099
2469.6310 0.000405 2453.5236 2467.9775
2446.8548 0.000409 2453.6328 2467.9358
2454.3138 0.000407 2453.7420 2467.8856
2467.3864 0.000405 2453.8513 2467.8277
2493.0000 0.000401 2453.9605 2467.7630
2487.4284 0.000402 2454.0698 2467.6920
2439.8458 0.000410 2454.1790 2467.6157
2435.7495 0.000411 2454.2882 2467.5319
2607.1060 0.000384 2454.3975 2467.4469
2496.2417 0.000401 2454.5067 2467.3587
2424.5478 0.000412 2454.6160 2467.2682
2406.9618 0.000415 2454.7252 2467.1760
2443.3337 0.000409 2454.8344 2467.0831
2344.3148 0.000427 2454.9437 2466.9903
2399.3112 0.000417 2455.0529 2466.8980
2422.7454 0.000413 2455.1622 2466.8079
2522.0907 0.000396 2455.2714 2466.7204
2447.3449 0.000409 2455.3806 2466.6362
2353.5226 0.000425 2455.4899 2466.5561
2431.9259 0.000411 2455.5991 2466.4807
2433.4989 0.000411 2455.7084 2466.4107
2463.0446 0.000406 2455.8176 2466.3465
2423.6606 0.000413 2455.9268 2466.2873
2436.4231 0.000410 2456.0361 2466.2363
2481.9601 0.000403 2456.1453 2466.2178
2405.8577 0.000416 2456.2546 2466.1812
2437.8277 0.000410 2456.3638 2466.1521
2465.9425 0.000406 2456.4730 2466.1307
2412.9518 0.000414 2456.5823 2466.1169
2452.8900 0.000408 2456.6915 2466.1106
2508.1834 0.000399 2456.8008 2466.1122
2448.1261 0.000408 2456.8673 2466.0787
2451.8268 0.000408 2456.9338 2466.0525
2472.8808 0.000404 2457.0003 2466.0336
2492.8010 0.000401 2457.0669 2466.1695
2404.1327 0.000416 2457.1334 2466.1650
2470.3156 0.000405 2457.1999 2466.1670
2478.6577 0.000403 2457.2665 2466.1753
2392.0277 0.000418 2457.3330 2466.1896
2433.1175 0.000411 2457.3995 2466.2096
2345.6397 0.000426 2457.4660 2466.2349
2435.2456 0.000411 2457.5326 2466.2654
2450.9493 0.000408 2457.5991 2466.3006
2446.7297 0.000409 2457.6656 2466.3404
2420.1028 0.000413 2457.7322 2466.3845
2433.8738 0.000411 2457.7987 2466.4327
2407.2004 0.000415 2457.8652 2466.4975
2506.9335 0.000399 2457.9317 2466.6800
2471.1200 0.000405 2457.9983 2466.7398
2461.0600 0.000406 2458.0648 2466.8029
2456.0434 0.000407 2458.1313 2466.8694
2368.0093 0.000422 2458.1979 2466.9391
2455.7391 0.000407 2458.2644 2467.1229
2322.2850 0.000431 2458.3309 2467.1993
2397.4715 0.000417 2458.3974 2467.3071
2446.9212 0.000409 2458.4640 2467.3898
2432.3950 0.000411 2458.5305 2467.5494
2418.3830 0.000413 2458.5970 2467.6384
2403.4504 0.000416 2458.6636 2467.7306
2430.0846 0.000412 2458.7301 2467.8259
2509.1357 0.000399 2458.7966 2467.9939
2416.7650 0.000414 2458.8631 2468.0958
2317.0700 0.000432 2458.9297 2468.2012
2414.4029 0.000414 2458.9962 2468.3815
2440.9411 0.000410 2459.0627 2468.4942
2442.9513 0.000409 2459.1293 2468.6108
2426.8734 0.000412 2459.1958 2468.7313
2401.4052 0.000416 2459.2623 2468.8560
2372.6447 0.000421 2459.3288 2468.9852
2526.2019 0.000396 2459.3954 2469.1825
2447.8328 0.000409 2459.4619 2469.3217
2494.3756 0.000401 2459.5284 2469.4662
2372.0976 0.000422 2459.5950 2469.6166
2497.8415 0.000400 2459.6615 2469.7730
2507.0727 0.000399 2459.7280 2469.9915
2432.1071 0.000411 2459.9519 2470.3191
2422.3123 0.000413 2460.1758 2470.6684
2450.4972 0.000408 2460.3997 2471.0116
2483.2477 0.000403 2460.6236 2471.3635
2503.3646 0.000399 2460.8475 2471.7246
2424.8093 0.000412 2461.0714 2472.0956
2400.6454 0.000417 2461.2953 2472.4773
2524.0170 0.000396 2461.5192 2472.9052
2472.8691 0.000404 2461.7432 2473.3108
2496.6198 0.000401 2461.9671 2473.7295
2484.7355 0.000402 2462.1910 2474.1981
2423.9139 0.000413 2462.4149 2474.6463
2470.5545 0.000405 2462.6388 2475.1109
2459.2019 0.000407 2462.8627 2475.5930
2429.4956 0.000412 2463.0866 2476.0939
2545.4168 0.000393 2463.3105 2476.6150
2531.0154 0.000395 2463.5344 2477.1598
2495.3477 0.000401 2463.7583 2477.7257
2481.3578 0.000403 2463.9822 2478.3162
2490.4867 0.000402 2464.2061 2478.9333
2484.1590 0.000403 2464.4300 2479.5785
2405.6986 0.000416 2464.6539 2480.2538
2546.3959 0.000393 2464.8778 2480.9612
2403.3992 0.000416 2465.1017 2481.7025
2478.5446 0.000403 2465.3256 2482.4800
2459.8270 0.000407 2465.5495 2483.2956
2415.5156 0.000414 2465.7734 2484.1517
2466.1202 0.000405 2465.9973 2485.0504
2439.4555 0.000410 2466.2212 2485.9940
2510.0954 0.000398 2466.4451 2486.9900
2516.3992 0.000397 2466.6690 2488.0302
2477.9580 0.000404 2466.8929 2489.1221
2491.9799 0.000401 2467.1169 2490.2680
2492.6539 0.000401 2467.3408 2491.4702
2407.7804 0.000415 2467.5647 2492.7307
2414.2733 0.000414 2467.7886 2494.0518
2367.6318 0.000422 2468.0125 2495.4353
2482.5293 0.000403 2468.2364 2496.8832
2476.0727 0.000404 2468.4603 2498.3973
2551.8718 0.000392 2468.6842 2499.9802
2444.8699 0.000409 2468.9081 2501.6311
2558.0252 0.000391 2469.1320 2503.3525
2455.9366 0.000407 2469.3559 2505.1453
2482.4984 0.000403 2469.5798 2507.0101
2441.9198 0.000410 2469.7465 2508.8902
2462.7889 0.000406 2469.9132 2510.8429
2507.0823 0.000399 2470.0799 2512.8680
2500.0168 0.000400 2470.2466 2514.7683
2531.0456 0.000395 2470.4133 2516.9376
2579.6911 0.000388 2470.5800 2519.1748
2526.7077 0.000396 2470.7467 2521.4788
2449.2867 0.000408 2470.9134 2523.8496
2449.5021 0.000408 2471.0801 2526.2786
2510.3866 0.000398 2471.2468 2528.7643
2529.1219 0.000395 2471.4135 2531.3021
2570.4461 0.000389 2471.5803 2533.8863
2490.5335 0.000402 2471.7470 2536.5105
2524.2527 0.000396 2471.9137 2539.1675
2539.6906 0.000394 2472.0804 2541.8491
2535.1643 0.000394 2472.2471 2544.3817
2527.1198 0.000396 2472.4138 2547.0851
2571.4695 0.000389 2472.5805 2549.7834
2603.4599 0.000384 2472.7472 2552.4651
2445.6053 0.000409 2472.9139 2555.0201
2473.6553 0.000404 2473.0806 2557.6324
2593.8899 0.000386 2473.2473 2560.1910
2623.5031 0.000381 2473.4140 2562.6832
2603.6097 0.000384 2473.5807 2565.0969
2636.3849 0.000379 2473.7474 2567.4205
2570.0322 0.000389 2473.9141 2569.6435
2561.9199 0.000390 2474.0808 2571.5732
2527.8341 0.000396 2474.2475 2573.5696
2562.0732 0.000390 2474.4142 2575.2651
2589.4870 0.000386 2474.5809 2576.8621
2536.2864 0.000394 2474.7476 2578.4745
2499.7870 0.000400 2474.9143 2579.8715
2549.5755 0.000392 2475.0811 2581.2179
2591.1345 0.000386 2475.2478 2582.4338
2576.0745 0.000388 2475.4145 2583.5180
2556.2937 0.000391 2475.5812 2584.3125
2566.9328 0.000390 2475.7479 2585.1451
2578.6673 0.000388 2475.9146 2585.8557
2554.1817 0.000392 2476.0813 2586.4469
2576.0446 0.000388 2476.2480 2586.9205
2569.6882 0.000389 2476.4147 2587.2783
2606.3530 0.000384 2476.5814 2587.5213
2607.2331 0.000384 2476.7481 2587.5583
2628.0808 0.000381 2476.9148 2587.5731
2651.3460 0.000377 2477.0281 2587.3322
2539.8863 0.000394 2477.1415 2586.9918
2573.9180 0.000389 2477.2548 2586.6102
2628.3162 0.000380 2477.3682 2586.1140
2627.5304 0.000381 2477.4815 2585.5038
2663.9068 0.000375 2477.5948 2584.7810
2620.3442 0.000382 2477.7082 2583.8663
2590.6710 0.000386 2477.8215 2582.9256
2572.9537 0.000389 2477.9349 2581.8810
2558.6743 0.000391 2478.0482 2580.7375
2543.4022 0.000393 2478.1615 2579.5002
2657.8483 0.000376 2478.2749 2578.1756
2630.5522 0.000380 2478.3882 2576.7718
2620.6820 0.000382 2478.5015 2575.2946
2594.3344 0.000385 2478.6149 2573.7529
2559.6048 0.000391 2478.7282 2572.1548
2623.2320 0.000381 2478.8416 2570.5084
2561.7687 0.000390 2478.9549 2568.8219
2576.9442 0.000388 2479.0682 2567.1029
2602.5806 0.000384 2479.1816 2565.3587
2605.1816 0.000384 2479.2949 2563.5959
2511.5117 0.000398 2479.4083 2561.8206
2547.3901 0.000393 2479.5216 2560.0383
2600.7433 0.000385 2479.6349 2558.2537
2615.0162 0.000382 2479.7483 2556.4711
2581.0125 0.000387 2479.8616 2554.6942
2572.3695 0.000389 2479.9749 2552.9262
2599.6771 0.000385 2480.0883 2551.1701
2571.2550 0.000389 2480.2016 2549.4283
2560.4713 0.000391 2480.3150 2547.7056
2579.9739 0.000388 2480.4283 2545.9997
2571.2182 0.000389 2480.5416 2544.3152
2573.6908 0.000389 2480.6550 2542.6541
2576.5851 0.000388 2480.7683 2541.0187
2575.3959 0.000388 2480.8817 2539.4107
2567.4589 0.000389 2480.9950 2537.8337
2599.5871 0.000385 2481.1083 2536.2867
2565.1291 0.000390 2481.2217 2534.7729
2565.3583 0.000390 2481.3350 2533.2939
2597.3426 0.000385 2481.4483 2531.8542
2572.1833 0.000389 2481.5617 2530.4490
2569.2485 0.000389 2481.6750 2529.0825
2579.8447 0.000388 2481.7884 2527.7554
2508.8542 0.000399 2481.9017 2526.4695
2502.2114 0.000400 2482.0150 2525.2232
2510.9364 0.000398 2482.1284 2524.0179
2491.4330 0.000401 2482.2417 2522.8536
2479.7142 0.000403 2482.3551 2521.7302
2494.0264 0.000401 2482.4684 2520.6476
2529.8864 0.000395 2482.5817 2519.6052
2568.4764 0.000389 2482.6951 2518.6026
2569.1771 0.000389 2482.8084 2517.6390
2533.0641 0.000395 2482.9218 2516.7134
2494.0690 0.000401 2483.0351 2515.8160
2488.0033 0.000402 2483.1484 2514.9638
2496.3712 0.000401 2483.2618 2514.1466
2512.2886 0.000398 2483.3751 2513.3632
2541.5152 0.000393 2483.4884 2512.6093
2563.0938 0.000390 2483.6018 2511.8898
2562.4838 0.000390 2483.7151 2511.2080
2598.9562 0.000385 2483.8285 2510.5479
2579.5115 0.000388 2483.9418 2509.9157
2537.4851 0.000394 2484.0551 2509.3120
2482.8450 0.000403 2484.1685 2508.7329
2455.6539 0.000407 2484.2818 2508.1790
2529.9135 0.000395 2484.3952 2507.6494
2558.1334 0.000391 2484.5085 2507.1435
2509.7472 0.000398 2484.6218 2506.6612
2535.4641 0.000394 2484.7352 2506.2007
2566.7103 0.000390 2484.8485 2505.7569
2487.6923 0.000402 2484.9618 2505.3395
2487.0243 0.000402 2485.0752 2504.9429
2570.8441 0.000389 2485.1885 2504.5664
2595.0817 0.000385 2485.3019 2504.2080
2579.1244 0.000388 2485.4152 2503.8704
2610.1646 0.000383 2485.5285 2503.5515
2574.0716 0.000388 2485.6419 2503.2507
2519.6321 0.000397 2485.7552 2502.9677
2521.9963 0.000397 2485.8686 2502.7020
2485.8590 0.000402 2485.9819 2502.4530
2484.1432 0.000403 2486.0952 2502.2367
2447.0134 0.000409 2486.2086 2502.0201
2411.1262 0.000415 2486.3219 2501.8190
2420.9133 0.000413 2486.4352 2501.6364
2462.4158 0.000406 2486.5486 2501.4651
2497.1710 0.000400 2486.6619 2501.3080
2461.4950 0.000406 2486.7753 2501.1650
2467.6738 0.000405 2486.8886 2501.0356
2509.6493 0.000398 2487.1456 2501.0630
2514.8167 0.000398 2487.4026 2501.1117
2473.7715 0.000404 2487.6596 2501.1833
2491.0042 0.000401 2487.9166 2501.2479
2515.0164 0.000398 2488.1736 2501.3242
2469.4036 0.000405 2488.4306 2501.4115
2473.5539 0.000404 2488.6875 2501.5096
2503.4150 0.000399 2488.9445 2501.6180
2497.8272 0.000400 2489.2015 2501.7361
2484.0318 0.000403 2489.4585 2501.8636
2521.5438 0.000397 2489.7155 2502.0000
2519.7263 0.000397 2489.9725 2502.1447
2478.3763 0.000403 2490.2295 2502.2974
2516.4872 0.000397 2490.4865 2502.4573
2544.9225 0.000393 2490.7435 2502.6244
2534.0663 0.000395 2491.0005 2502.7978
2474.6694 0.000404 2491.2575 2502.9773
2469.5480 0.000405 2491.5145 2503.1706
2524.3204 0.000396 2491.7715 2503.3609
2472.1137 0.000405 2492.0285 2503.5560
2477.9733 0.000404 2492.2854 2503.7554
2523.6725 0.000396 2492.5424 2503.9591
2488.5846 0.000402 2492.7994 2504.1665
2503.5912 0.000399 2493.0564 2504.3776
2499.9425 0.000400 2493.3134 2504.5920
2460.1186 0.000406 2493.5704 2504.8097
2487.9211 0.000402 2493.8274 2505.0347
2551.1871 0.000392 2494.0844 2505.2680
2582.3455 0.000387 2494.3414 2505.4947
2578.4257 0.000388 2494.5984 2505.7242
2540.7429 0.000394 2494.8554 2505.9567
2564.9770 0.000390 2495.1124 2506.1930
2574.4334 0.000388 2495.3694 2506.4311
2551.1902 0.000392 2495.6264 2506.6725
2514.7493 0.000398 2495.8833 2506.9163
2511.8313 0.000398 2496.1403 2507.1630
2493.3891 0.000401 2496.3973 2507.4127
2483.6563 0.000403 2496.6543 2507.6654
2414.8084 0.000414 2496.9113 2507.9212
2514.3261 0.000398 2497.1683 2508.1803
2450.9557 0.000408 2497.4253 2508.4426
2475.2528 0.000404 2497.6823 2508.7085
2525.6855 0.000396 2497.9393 2508.9779
2550.8066 0.000392 2498.1963 2509.2512
2550.0979 0.000392 2498.4533 2509.5330
2501.5183 0.000400 2498.7103 2509.8146
2546.4891 0.000393 2498.9673 2510.1007
2470.9060 0.000405 2499.2242 2510.3917
2478.5045 0.000403 2499.4812 2510.6877
2453.8702 0.000408 2499.7382 2510.9892
2446.7139 0.000409 2499.9952 2511.2965
2492.0055 0.000401 2500.2522 2511.6101
2513.5426 0.000398 2500.5092 2511.9302
2466.4291 0.000405 2500.7662 2512.2609
2549.0960 0.000392 2501.0232 2512.5955
2517.2080 0.000397 2501.2802 2512.9386
2473.1676 0.000404 2501.5372 2513.2895
2469.3027 0.000405 2501.7942 2513.6494
2476.3012 0.000404 2502.0512 2514.0191
2470.4801 0.000405 2502.3082 2514.3986
2440.8622 0.000410 2502.5652 2514.7888
2491.5490 0.000401 2502.8221 2515.1897
2504.7106 0.000399 2503.0791 2515.6025
2483.0699 0.000403 2503.3361 2516.0289
2426.1712 0.000412 2503.5931 2516.4687
2432.8522 0.000411 2503.8501 2516.9229
2469.8517 0.000405 2504.1071 2517.3922
2458.3904 0.000407 2504.3641 2517.8775
2532.7038 0.000395 2504.6211 2518.3798
2578.9523 0.000388 2504.8781 2518.9023
2485.9386 0.000402 2505.1351 2519.4433
2473.4329 0.000404 2505.3921 2520.0024
2523.4327 0.000396 2505.6491 2520.5825
2507.3402 0.000399 2505.9061 2521.1849
2539.7355 0.000394 2506.1631 2521.8106
2613.4906 0.000383 2506.4200 2522.4605
2607.4637 0.000384 2506.6770 2523.1366
2550.1147 0.000392 2506.9340 2523.8393
2441.9279 0.000410 2507.1910 2524.5725
2513.0479 0.000398 2507.4480 2525.3332
2507.4827 0.000399 2507.7050 2526.1251
2485.8488 0.000402 2507.9620 2526.9492
2432.5323 0.000411 2508.2190 2527.8070
2518.3667 0.000397 2508.4760 2528.6996
2571.1587 0.000389 2508.7330 2529.6278
2516.5323 0.000397 2508.9900 2530.5942
2462.7878 0.000406 2509.2470 2531.5993
2508.1408 0.000399 2509.5040 2532.6444
2551.5405 0.000392 2509.7390 2533.7089
2515.3922 0.000398 2509.9741 2534.8156
2511.7956 0.000398 2510.2091 2535.9658
2543.3871 0.000393 2510.4442 2537.1600
2592.4657 0.000386 2510.6792 2538.3995
2602.0366 0.000384 2510.9143 2539.6856
2496.5868 0.000401 2511.1493 2541.0185
2537.2209 0.000394 2511.3844 2542.3996
2548.8082 0.000392 2511.6194 2543.8259
2549.6831 0.000392 2511.8545 2545.3019
2570.8737 0.000389 2512.0895 2546.8257
2559.9031 0.000391 2512.3246 2548.3985
2547.4287 0.000393 2512.5596 2550.0172
2528.6647 0.000395 2512.7947 2551.6829
2519.4787 0.000397 2513.0297 2553.3942
2549.3986 0.000392 2513.2648 2555.1500
2569.2133 0.000389 2513.4998 2556.9486
2541.5869 0.000393 2513.7349 2558.7881
2522.5340 0.000396 2513.9699 2560.6662
2551.7994 0.000392 2514.2050 2562.5801
2550.4967 0.000392 2514.4401 2564.5266
2577.1796 0.000388 2514.6751 2566.5023
2469.7098 0.000405 2514.9102 2568.5034
2480.4463 0.000403 2515.1452 2570.5254
2561.7728 0.000390 2515.3803 2572.5627
2507.5904 0.000399 2515.6153 2574.6119
2548.8191 0.000392 2515.8504 2576.6667
2590.9406 0.000386 2516.0854 2578.7213
2654.7756 0.000377 2516.3205 2580.7698
2515.7299 0.000397 2516.5555 2582.8062
2488.2472 0.000402 2516.7906 2584.8244
2613.8827 0.000383 2517.0256 2586.8182
2550.3253 0.000392 2517.2607 2588.7818
2592.9787 0.000386 2517.4957 2590.7094
2593.9804 0.000386 2517.7308 2592.5956
2519.9616 0.000397 2517.9658 2594.4353
2573.4518 0.000389 2518.2009 2596.2238
2603.8771 0.000384 2518.4359 2597.9573
2548.2013 0.000392 2518.6710 2599.6309
2573.8544 0.000389 2518.9060 2601.2418
2574.1860 0.000388 2519.1411 2602.7870
2478.1617 0.000404 2519.3761 2604.2638
2580.9630 0.000387 2519.6112 2605.6700
2617.4754 0.000382 2519.8463 2607.0035
2583.4098 0.000387 2520.0295 2608.2108
2622.0000 0.000381 2520.2128 2609.3421
2625.0137 0.000381 2520.3961 2610.3957
2647.0436 0.000378 2520.5793 2611.3704
2585.5899 0.000387 2520.7626 2612.2649
2543.0705 0.000393 2520.9459 2613.0778
2559.3655 0.000391 2521.1292 2613.8079
2613.6516 0.000383 2521.3124 2614.4541
2594.9021 0.000385 2521.4957 2615.0152
2668.2880 0.000375 2521.6790 2615.4902
2611.4069 0.000383 2521.8623 2615.8783
2587.9743 0.000386 2522.0455 2616.1787
2545.3926 0.000393 2522.2288 2616.3910
2655.0500 0.000377 2522.4121 2616.5150
2641.5437 0.000379 2522.5954 2616.5508
2622.1211 0.000381 2522.7786 2616.4988
2438.3366 0.000410 2522.9619 2616.3601
2587.9734 0.000386 2523.1452 2616.1359
2638.3083 0.000379 2523.3284 2615.8282
2660.6889 0.000376 2523.5117 2615.4391
2654.1640 0.000377 2523.6950 2614.9716
2639.1626 0.000379 2523.8783 2614.4289
2660.2822 0.000376 2524.0615 2613.8147
2601.4528 0.000384 2524.2448 2613.1332
2611.8845 0.000383 2524.4281 2612.3887
2609.1433 0.000383 2524.6114 2611.5861
2614.6580 0.000382 2524.7946 2610.7303
2660.0729 0.000376 2524.9779 2609.8262
2570.3386 0.000389 2525.1612 2608.8790
2683.6547 0.000373 2525.3445 2607.8938
2554.5171 0.000391 2525.5277 2606.8753
2576.7424 0.000388 2525.7110 2605.8285
2565.0288 0.000390 2525.8943 2604.7577
2624.5936 0.000381 2526.0775 2603.6674
2664.2679 0.000375 2526.2608 2602.5614
2603.0457 0.000384 2526.4441 2601.4436
2608.0970 0.000383 2526.6274 2600.3654
2622.9354 0.000381 2526.8106 2599.2339
2605.9559 0.000384 2526.9939 2598.1002
2567.0599 0.000390 2527.1772 2596.9669
2581.9369 0.000387 2527.3605 2595.8365
2613.7800 0.000383 2527.5437 2594.7114
2642.7232 0.000378 2527.7270 2593.5940
2506.6854 0.000399 2527.9103 2592.4862
2690.2022 0.000372 2528.0936 2591.3901
2609.4918 0.000383 2528.2768 2590.3078
2606.0404 0.000384 2528.4601 2589.2410
2592.3204 0.000386 2528.6434 2588.1914
2654.3643 0.000377 2528.8266 2587.1609
2630.7339 0.000380 2529.0099 2586.1508
2633.8764 0.000380 2529.1932 2585.1627
2585.6783 0.000387 2529.3765 2584.1977
2567.6160 0.000389 2529.5597 2583.2570
2601.5995 0.000384 2529.7430 2582.3416
2570.4134 0.000389 2529.9263 2581.4520
2520.2563 0.000397 2530.1096 2580.5889
2540.8742 0.000394 2530.2928 2579.7526
2564.8101 0.000390 2530.4761 2578.9433
2570.7388 0.000389 2530.6594 2578.1608
2590.8467 0.000386 2530.8427 2577.4020
2578.8062 0.000388 2531.0259 2576.6726
2619.3488 0.000382 2531.2092 2575.9690
2543.2856 0.000393 2531.3925 2575.2907
2605.2773 0.000384 2531.5757 2574.6611
2561.5496 0.000390 2531.7590 2574.0315
2575.6523 0.000388 2531.9423 2573.4253
2599.2336 0.000385 2532.1256 2572.8417
2559.4321 0.000391 2532.3088 2572.2801
2588.2372 0.000386 2532.4921 2571.7399
2556.1011 0.000391 2532.6754 2571.2205
2565.8201 0.000390 2532.8587 2570.7214
2544.1736 0.000393 2533.0419 2570.2420
2527.4338 0.000396 2533.2252 2569.7819
2613.1408 0.000383 2533.4085 2569.3407
2600.2788 0.000385 2533.5918 2568.9178
2625.0714 0.000381 2533.7750 2568.5130
2642.3954 0.000378 2533.9583 2568.1242
2599.1479 0.000385 2534.1416 2567.7542
2591.3169 0.000386 2534.3248 2567.4010
2536.6061 0.000394 2534.5081 2567.0642
2566.4504 0.000390 2534.6914 2566.7427
2599.3637 0.000385 2534.8747 2566.4376
2494.3054 0.000401 2535.0579 2566.1479
2594.5335 0.000385 2535.2412 2565.8732
2626.6888 0.000381 2535.4245 2565.6133
2599.2266 0.000385 2535.6078 2565.3620
2551.3490 0.000392 2535.7910 2565.1309
2581.5548 0.000387 2535.9743 2564.9141
2517.5854 0.000397 2536.1058 2564.6595
2588.3112 0.000386 2536.2373 2564.4189
2566.5062 0.000390 2536.3688 2564.1922
2579.0532 0.000388 2536.5003 2563.9795
2430.3099 0.000411 2536.6318 2563.7808
2557.9264 0.000391 2536.7633 2563.5961
2627.4351 0.000381 2536.8948 2563.4255
2634.1510 0.000380 2537.0263 2563.2690
2520.5917 0.000397 2537.1578 2563.1267
2479.7521 0.000403 2537.2892 2562.9983
2544.9614 0.000393 2537.4207 2562.8846
2614.1677 0.000383 2537.5522 2562.7852
2577.3677 0.000388 2537.6837 2562.7002
2558.8372 0.000391 2537.8152 2562.6296
2586.8914 0.000387 2537.9467 2562.5733
2588.8618 0.000386 2538.0782 2562.5286
2557.4758 0.000391 2538.2097 2562.5012
2595.4047 0.000385 2538.3412 2562.4882
2595.9840 0.000385 2538.4727 2562.4895
2516.3877 0.000397 2538.6042 2562.5051
2524.2434 0.000396 2538.7357 2562.5350
2606.2935 0.000384 2538.8672 2562.5791
2550.3842 0.000392 2538.9987 2562.6373
2516.8741 0.000397 2539.1302 2562.7096
2526.6616 0.000396 2539.2617 2562.7959
2614.1005 0.000383 2539.3932 2562.8961
2585.5061 0.000387 2539.5247 2563.0102
2554.7008 0.000391 2539.6561 2563.1381
2615.0219 0.000382 2539.7876 2563.2796
2577.4706 0.000388 2539.9191 2563.4348
2574.8142 0.000388 2540.0506 2563.6035
2560.7312 0.000391 2540.1821 2563.7856
2532.5318 0.000395 2540.3136 2563.9811
2494.0362 0.000401 2540.4451 2564.1899
2551.0396 0.000392 2540.5766 2564.4119
2567.6772 0.000389 2540.7081 2564.6471
2548.4816 0.000392 2540.8396 2564.8954
2622.1997 0.000381 2540.9711 2565.1569
2491.2154 0.000401 2541.1026 2565.4314
2536.3946 0.000394 2541.2341 2565.7190
2534.5631 0.000395 2541.3656 2566.0197
2542.4398 0.000393 2541.4971 2566.3336
2558.5782 0.000391 2541.6286 2566.6606
2510.8017 0.000398 2541.7601 2567.0010
2523.2596 0.000396 2542.0902 2567.5534
2612.9908 0.000383 2542.4203 2568.1194
2604.9893 0.000384 2542.7504 2568.6991
2516.5493 0.000397 2543.0805 2569.2927
2617.9457 0.000382 2543.4106 2569.9006
2604.7848 0.000384 2543.7407 2570.5230
2511.3110 0.000398 2544.0708 2571.1604
2584.4926 0.000387 2544.4009 2571.8130
2569.9774 0.000389 2544.7310 2572.4813
2580.0490 0.000388 2545.0611 2573.1659
2556.9928 0.000391 2545.3912 2573.8673
2516.6063 0.000397 2545.7213 2574.5862
2530.4194 0.000395 2546.0514 2575.3232
2590.0885 0.000386 2546.3815 2576.0793
2582.9105 0.000387 2546.7116 2576.8545
2551.4039 0.000392 2547.0417 2577.6509
2582.6224 0.000387 2547.3718 2578.4692
2578.5587 0.000388 2547.7019 2579.3104
2584.0441 0.000387 2548.0320 2580.1757
2578.8074 0.000388 2548.3621 2581.0663
2576.7875 0.000388 2548.6922 2581.9837
2540.5133 0.000394 2549.0223 2582.9294
2609.7496 0.000383 2549.3524 2583.9050
2589.4469 0.000386 2549.6825 2584.9124
2547.9038 0.000392 2550.0126 2585.9532
2567.6573 0.000389 2550.3427 2587.0296
2587.4894 0.000386 2550.6728 2588.1438
2626.9437 0.000381 2551.0029 2589.2979
2580.5016 0.000388 2551.3330 2590.4945
2593.7350 0.000386 2551.6631 2591.7362
2564.7367 0.000390 2551.9932 2593.0257
2491.9394 0.000401 2552.3233 2594.3659
2545.1213 0.000393 2552.6534 2595.7595
2595.9191 0.000385 2552.9835 2597.2106
2585.5125 0.000387 2553.3136 2598.7223
2561.8929 0.000390 2553.6437 2600.2981
2598.4831 0.000385 2553.9738 2601.9418
2605.0612 0.000384 2554.3039 2603.6574
2554.4752 0.000391 2554.6340 2605.4490
2571.4155 0.000389 2554.9641 2607.3211
2636.7571 0.000379 2555.2942 2609.2781
2662.2816 0.000376 2555.6243 2611.3247
2705.7560 0.000370 2555.9544 2613.4657
2696.3196 0.000371 2556.2845 2615.7063
2678.8984 0.000373 2556.5624 2617.9993
2644.7121 0.000378 2556.8402 2620.4023
2679.2176 0.000373 2557.1181 2622.9209
2738.8666 0.000365 2557.3959 2625.5606
2756.8664 0.000363 2557.6738 2628.3272
2679.3278 0.000373 2557.9516 2631.2266
2589.0578 0.000386 2558.2295 2634.2648
2672.3148 0.000374 2558.5073 2637.4478
2702.4781 0.000370 2558.7852 2640.7816
2744.3581 0.000364 2559.0630 2644.2725
2719.1145 0.000368 2559.3409 2647.9265
2669.5689 0.000375 2559.6187 2651.7499
2685.8258 0.000372 2559.8966 2655.7487
2709.7661 0.000369 2560.1744 2659.9290
2719.3818 0.000368 2560.4523 2664.2968
2690.1757 0.000372 2560.7301 2668.8578
2774.0390 0.000360 2561.0079 2673.6176
2768.8707 0.000361 2561.2858 2678.5818
2734.4669 0.000366 2561.5636 2683.7554
2751.9105 0.000363 2561.8415 2689.1432
2747.6263 0.000364 2562.1193 2694.7499
2744.1535 0.000364 2562.3972 2700.5794
2778.8715 0.000360 2562.6750 2706.6353
2813.1428 0.000355 2562.9529 2712.9208
2788.7185 0.000359 2563.2307 2719.4383
2801.7956 0.000357 2563.5086 2726.1896
2825.4927 0.000354 2563.7864 2733.1758
2825.3645 0.000354 2564.0643 2740.3973
2865.3913 0.000349 2564.3421 2747.8534
2880.0039 0.000347 2564.6200 2755.5428
2824.3335 0.000354 2564.8978 2763.4629
2781.2990 0.000360 2565.1757 2771.6103
2834.6669 0.000353 2565.4535 2779.9804
2842.0555 0.000352 2565.7314 2788.5674
2871.5057 0.000348 2566.0092 2797.3645
2913.5939 0.000343 2566.2870 2806.3633
2898.7062 0.000345 2566.5649 2815.5547
2896.0681 0.000345 2566.8427 2824.9278
2909.7533 0.000344 2567.1206 2834.4707
2944.7924 0.000340 2567.3984 2844.1704
2944.4319 0.000340 2567.6763 2854.0122
2889.4100 0.000346 2567.9541 2863.9808
2875.2250 0.000348 2568.2320 2874.0592
2923.0826 0.000342 2568.5098 2884.2298
2963.3383 0.000337 2568.7354 2894.4217
2973.4873 0.000336 2568.9610 2904.6675
2956.1688 0.000338 2569.1866 2914.9471
2919.7053 0.000343 2569.4122 2925.2397
2939.8712 0.000340 2569.6378 2935.5242
3011.1299 0.000332 2569.8634 2945.7792
3042.5006 0.000329 2570.0890 2955.9834
2969.4829 0.000337 2570.3146 2966.1153
2992.3345 0.000334 2570.5402 2976.1538
3062.9928 0.000326 2570.7658 2986.0779
3055.0135 0.000327 2570.9914 2995.8667
3123.6576 0.000320 2571.2169 3005.4997
3127.0820 0.000320 2571.4425 3014.9566
3031.8549 0.000330 2571.6681 3024.2168
3020.7188 0.000331 2571.8937 3033.2600
3081.5383 0.000325 2572.1193 3042.0653
3104.3634 0.000322 2572.3449 3050.6117
3127.2101 0.000320 2572.5705 3058.8775
3141.5880 0.000318 2572.7961 3066.8407
3136.1820 0.000319 2573.0217 3074.4785
3147.9299 0.000318 2573.2473 3081.7678
3150.9474 0.000317 2573.4729 3088.6851
3078.3280 0.000325 2573.6985 3095.2066
3043.4909 0.000329 2573.9241 3101.3089
3136.2648 0.000319 2574.1497 3106.9689
3154.8377 0.000317 2574.3753 3112.1642
3130.5955 0.000319 2574.6009 3116.8738
3098.0089 0.000323 2574.8265 3121.0784
3100.2494 0.000323 2575.0520 3124.7602
3183.2557 0.000314 2575.2776 3127.9042
3211.3300 0.000311 2575.5032 3130.4975
3200.9280 0.000312 2575.7288 3132.5300
3193.1368 0.000313 2575.9544 3133.9946
3196.8696 0.000313 2576.1800 3134.8867
3114.6857 0.000321 2576.4056 3135.2047
3108.5490 0.000322 2576.6312 3134.9496
3156.1240 0.000317 2576.8568 3134.1249
3200.3335 0.000312 2577.0824 3132.7363
3214.1442 0.000311 2577.3080 3130.7917
3192.5813 0.000313 2577.5336 3128.3010
3108.9778 0.000322 2577.7592 3125.2756
3127.9017 0.000320 2577.9848 3121.7285
3176.2230 0.000315 2578.2104 3117.6742
3103.1379 0.000322 2578.4360 3113.1286
3061.4990 0.000327 2578.6615 3108.0339
3090.6047 0.000324 2578.8871 3102.5580
3079.3998 0.000325 2579.1127 3096.6450
3063.7799 0.000326 2579.3383 3090.3155
3056.8675 0.000327 2579.5639 3083.5908
3094.3819 0.000323 2579.7895 3076.4934
3160.8688 0.000316 2580.0151 3069.0464
3108.7972 0.000322 2580.2407 3061.2738
3067.4020 0.000326 2580.4663 3053.2003
3109.4092 0.000322 2580.6919 3044.8511
3121.5338 0.000320 2580.9175 3036.2516
3073.2719 0.000325 2581.1431 3027.4276
3077.2634 0.000325 2581.3687 3018.4046
3006.2011 0.000333 2581.5943 3009.2084
3024.7592 0.000331 2581.8199 2999.8640
3063.6092 0.000326 2582.0455 2990.3963
2949.4230 0.000339 2582.2710 2980.8297
2950.9491 0.000339 2582.4966 2971.1878
3000.1614 0.000333 2582.7222 2961.4561
2938.0696 0.000340 2582.9478 2951.7319
2962.8575 0.000338 2583.1734 2941.9989
2983.5729 0.000335 2583.3990 2932.2779
2988.7704 0.000335 2583.6246 2922.5887
2972.4235 0.000336 2583.8502 2912.9503
2973.6381 0.000336 2584.0758 2903.3809
2928.4011 0.000341 2584.3014 2893.8979
2907.9856 0.000344 2584.5270 2884.5177
2881.6487 0.000347 2584.7526 2875.2559
2868.5723 0.000349 2584.9782 2866.1272
2947.6525 0.000339 2585.2038 2857.1452
2898.3780 0.000345 2585.4294 2848.2839
2857.8592 0.000350 2585.6550 2839.6326
2854.5642 0.000350 2585.8806 2831.1630
2890.3803 0.000346 2586.1061 2822.8845
2884.6993 0.000347 2586.3317 2814.8055
2846.0702 0.000351 2586.5573 2806.9333
2785.4334 0.000359 2586.7829 2799.2739
2812.0618 0.000356 2587.0085 2791.8324
2832.2497 0.000353 2587.2341 2784.6127
2820.8063 0.000355 2587.4597 2777.6176
2822.3230 0.000354 2587.6853 2770.8490
2743.1200 0.000365 2587.9109 2764.3079
2791.4203 0.000358 2588.1365 2757.9942
2748.9644 0.000364 2588.3621 2751.9071
2778.3548 0.000360 2588.5354 2745.9928
2825.2217 0.000354 2588.7088 2740.3013
2817.4497 0.000355 2588.8821 2734.8297
2816.5450 0.000355 2589.0554 2729.5745
2782.1129 0.000359 2589.2288 2724.5317
2683.3970 0.000373 2589.4021 2719.6777
2700.1592 0.000370 2589.5755 2715.0464
2755.5963 0.000363 2589.7488 2710.6134
2754.5520 0.000363 2589.9221 2706.3734
2762.0721 0.000362 2590.0955 2702.3209
2715.0305 0.000368 2590.2688 2698.4502
2727.2786 0.000367 2590.4422 2694.7557
2762.8964 0.000362 2590.6155 2691.2315
2795.8103 0.000358 2590.7889 2687.8718
2737.3255 0.000365 2590.9622 2684.6706
2736.9355 0.000365 2591.1355 2681.6222
2732.5128 0.000366 2591.3089 2678.7207
2661.9834 0.000376 2591.4822 2675.9604
2734.8858 0.000366 2591.6556 2673.3354
2703.7528 0.000370 2591.8289 2670.8403
2690.5228 0.000372 2592.0022 2668.4694
2788.4724 0.000359 2592.1756 2666.2174
2735.8597 0.000366 2592.3489 2664.0787
2759.0766 0.000362 2592.5223 2662.0430
2666.8224 0.000375 2592.6956 2660.1158
2694.2422 0.000371 2592.8689 2658.2867
2633.0557 0.000380 2593.0423 2656.5509
2600.8096 0.000384 2593.2156 2654.9034
2732.7942 0.000366 2593.3890 2653.3406
2709.8618 0.000369 2593.5623 2651.8576
2635.2265 0.000379 2593.7356 2650.4505
2680.2425 0.000373 2593.9090 2649.1151
2660.9030 0.000376 2594.0823 2647.8478
2653.2365 0.000377 2594.2557 2646.6450
2697.3132 0.000371 2594.4290 2645.5033
2697.7364 0.000371 2594.6023 2644.4195
2610.5898 0.000383 2594.7757 2643.3906
2662.6328 0.000376 2594.9490 2642.4138
2707.4327 0.000369 2595.1224 2641.4864
2695.3002 0.000371 2595.2957 2640.6059
2606.9575 0.000384 2595.4690 2639.7700
2603.5397 0.000384 2595.6424 2638.9746
2616.0522 0.000382 2595.8157 2638.2187
2649.1211 0.000377 2595.9891 2637.5038
2680.2159 0.000373 2596.1102 2636.7732
2627.9148 0.000381 2596.2312 2636.0773
2617.3155 0.000382 2596.3523 2635.4140
2612.7976 0.000383 2596.4734 2634.7829
2585.8576 0.000387 2596.5945 2634.1819
2610.3752 0.000383 2596.7156 2633.6096
2541.9703 0.000393 2596.8367 2633.0648
2590.6791 0.000386 2596.9578 2632.5462
2580.6367 0.000388 2597.0789 2632.0526
2639.5562 0.000379 2597.2000 2631.5830
2632.3625 0.000380 2597.3210 2631.1362
2578.5046 0.000388 2597.4421 2630.7112
2659.4480 0.000376 2597.5632 2630.3071
2628.1953 0.000380 2597.6843 2629.9231
2698.1784 0.000371 2597.8054 2629.5582
2630.2847 0.000380 2597.9265 2629.2116
2756.6032 0.000363 2598.0476 2628.8817
2577.5909 0.000388 2598.1687 2628.5696
2620.5585 0.000382 2598.2898 2628.2737
2569.9888 0.000389 2598.4108 2627.9934
2553.7734 0.000392 2598.5319 2627.7281
2506.5845 0.000399 2598.6530 2627.4771
2659.7737 0.000376 2598.7741 2627.2403
2578.3042 0.000388 2598.8952 2627.0169
2620.8314 0.000382 2599.0163 2626.8066
2511.0197 0.000398 2599.1374 2626.6090
2604.1569 0.000384 2599.2585 2626.4239
2585.8984 0.000387 2599.3796 2626.2508
2497.1904 0.000400 2599.5006 2626.0896
2628.1400 0.000380 2599.6217 2625.9399
2681.5060 0.000373 2599.7428 2625.8018
2659.6179 0.000376 2599.8639 2625.6749
2603.2032 0.000384 2599.9850 2625.5591
2658.1758 0.000376 2600.1061 2625.4544
2578.1947 0.000388 2600.2272 2625.3606
2630.1194 0.000380 2600.3483 2625.2777
2605.9378 0.000384 2600.4694 2625.2055
2614.8838 0.000382 2600.5904 2625.1441
2556.6645 0.000391 2600.7115 2625.0934
2584.8309 0.000387 2600.8326 2625.0534
2623.9187 0.000381 2600.9537 2625.0240
2527.6321 0.000396 2601.0748 2625.0052
2627.9175 0.000381 2601.1959 2624.9969
2640.7012 0.000379 2601.3170 2624.9992
2557.2321 0.000391 2602.2325 2625.8065
2585.7067 0.000387 2603.1481 2626.6242
2643.4212 0.000378 2604.0637 2627.4525
2580.5702 0.000388 2604.9792 2628.2912
2546.8664 0.000393 2605.8948 2629.1403
2626.9040 0.000381 2606.8104 2629.9999
2655.1551 0.000377 2607.7259 2630.8699
2693.4581 0.000371 2608.6415 2631.7505
2703.6142 0.000370 2609.5570 2632.6415
2449.9824 0.000408 2610.4726 2633.5429
2584.1855 0.000387 2611.3882 2634.4549
2543.8877 0.000393 2612.3037 2635.3774
2657.1565 0.000376 2613.2193 2636.3104
2595.4095 0.000385 2614.1349 2637.2526
2542.0744 0.000393 2615.0504 2638.2065
2551.5933 0.000392 2615.9660 2639.1710
2656.7686 0.000376 2616.8816 2640.1458
2578.0192 0.000388 2617.7971 2641.1310
2651.8217 0.000377 2618.7127 2642.1264
2664.9340 0.000375 2619.6282 2643.1321
2608.4416 0.000383 2620.5438 2644.1478
2683.2083 0.000373 2621.4594 2645.1734
2630.7066 0.000380 2622.3749 2646.2088
2554.2131 0.000392 2623.2905 2647.2538
2520.6080 0.000397 2624.2061 2648.3081
2578.7345 0.000388 2625.1216 2649.3716
2619.0495 0.000382 2626.0372 2650.4441
2662.8371 0.000376 2626.9528 2651.5253
2543.6083 0.000393 2627.8683 2652.6149
2637.7914 0.000379 2628.7839 2653.7128
2602.3775 0.000384 2629.6995 2654.8186
2625.0723 0.000381 2630.6150 2655.9322
2584.7103 0.000387 2631.5306 2657.0526
2568.6367 0.000389 2632.4461 2658.1810
2582.3233 0.000387 2633.3617 2659.3165
2677.2695 0.000374 2634.2773 2660.4590
2535.7695 0.000394 2635.1928 2661.6082
2582.9190 0.000387 2636.1084 2662.7642
2626.6011 0.000381 2637.0240 2663.9269
2651.5970 0.000377 2637.9395 2665.0962
2587.2789 0.000387 2638.8551 2666.2722
2680.3652 0.000373 2639.7707 2667.4549
2665.5287 0.000375 2640.6862 2668.6444
2656.5531 0.000376 2641.6018 2669.8409
2625.3695 0.000381 2642.0046 2670.5318
2597.0852 0.000385 2642.4075 2671.2300
2588.5400 0.000386 2642.8103 2671.9359
2579.7183 0.000388 2643.2132 2672.6497
2606.5256 0.000384 2643.6160 2673.3716
2612.6594 0.000383 2644.0189 2674.1021
2643.1020 0.000378 2644.4217 2674.8414
2669.6474 0.000375 2644.8246 2675.5898
2646.6083 0.000378 2645.2274 2676.3478
2602.4079 0.000384 2645.6303 2677.1155
2638.5678 0.000379 2646.0331 2677.8933
2642.1012 0.000378 2646.4360 2678.6815
2652.7540 0.000377 2646.8388 2679.4802
2675.4440 0.000374 2647.2417 2680.2897
2688.6900 0.000372 2647.6445 2681.1101
2690.0000 0.000372 2648.0474 2681.9416
2659.0078 0.000376 2648.4502 2682.7842
2630.2809 0.000380 2648.8530 2683.6379
2604.9961 0.000384 2649.2559 2684.5029
2642.3643 0.000378 2649.6587 2685.3791
2630.5037 0.000380 2650.0616 2686.2663
2689.0504 0.000372 2650.4644 2687.1647
2625.8333 0.000381 2650.8673 2688.0739
2646.2052 0.000378 2651.2701 2688.9941
2587.0536 0.000387 2651.6730 2689.9249
2602.8442 0.000384 2652.0758 2690.8664
2627.6113 0.000381 2652.4787 2691.8184
2610.4528 0.000383 2652.8815 2692.7807
2595.9050 0.000385 2653.2844 2693.7532
2702.9019 0.000370 2653.6872 2694.7358
2591.3885 0.000386 2654.0901 2695.7281
2678.7550 0.000373 2654.4929 2696.7301
2612.1927 0.000383 2654.8958 2697.7412
2652.2880 0.000377 2655.2986 2698.7613
2527.3329 0.000396 2655.7015 2699.7897
2604.5130 0.000384 2656.1043 2700.8259
2609.1899 0.000383 2656.5072 2701.8692
2646.6428 0.000378 2656.9100 2702.9188
2601.2596 0.000384 2657.3129 2703.9737
2655.1044 0.000377 2657.7157 2705.0326
2654.2141 0.000377 2658.1186 2706.0944
2725.5079 0.000367 2658.5214 2707.1576
2669.3672 0.000375 2658.9242 2708.2204
2688.7909 0.000372 2659.3271 2709.2810
2664.5696 0.000375 2659.7299 2710.3374
2591.5445 0.000386 2660.1328 2711.3878
2641.2393 0.000379 2660.5356 2712.4296
2606.4265 0.000384 2660.9385 2713.4607
2707.6121 0.000369 2661.3413 2714.4786
2772.6811 0.000361 2661.7442 2715.4808
2682.6566 0.000373 2662.1470 2716.4648
2674.4257 0.000374 2662.5499 2717.4280
2651.3707 0.000377 2662.9527 2718.3681
2555.8851 0.000391 2663.3556 2719.2824
2659.0195 0.000376 2663.7584 2720.1688
2765.1076 0.000362 2664.1613 2721.0248
2683.7647 0.000373 2664.5641 2721.8483
2641.0308 0.000379 2664.9670 2722.6374
2709.6991 0.000369 2665.3698 2723.3900
2679.3613 0.000373 2665.7727 2724.1046
2619.4527 0.000382 2666.1755 2724.7797
2647.3310 0.000378 2666.5784 2725.4139
2662.2882 0.000376 2666.9812 2726.0060
2721.5239 0.000367 2667.3841 2726.5553
2676.3800 0.000374 2667.7869 2727.0612
2637.1322 0.000379 2668.1898 2727.5231
2625.7357 0.000381 2668.5926 2727.9410
2593.2757 0.000386 2668.9955 2728.3149
2662.8975 0.000376 2669.3983 2728.6450
2641.6376 0.000379 2669.8011 2728.9319
2608.6899 0.000383 2670.2040 2729.1764
2634.0253 0.000380 2670.6068 2729.3794
2609.6706 0.000383 2671.0097 2729.5419
2676.9363 0.000374 2671.4125 2729.6652
2681.8872 0.000373 2671.8154 2729.7508
2636.5989 0.000379 2672.2182 2729.8002
2723.8241 0.000367 2672.6211 2729.8149
2756.2185 0.000363 2673.0239 2729.7966
2698.5588 0.000371 2673.4268 2729.7470
2620.3296 0.000382 2673.8296 2729.6679
2559.4074 0.000391 2674.2325 2729.5610
2633.7130 0.000380 2674.6353 2729.4281
2686.3148 0.000372 2675.0382 2729.2709
2644.2397 0.000378 2675.4410 2729.0910
2617.6640 0.000382 2675.8439 2728.8838
2593.9600 0.000386 2676.2467 2728.6639
2633.9064 0.000380 2676.6496 2728.4264
2657.0880 0.000376 2677.0524 2728.1730
2622.6404 0.000381 2677.4553 2727.8801
2649.1300 0.000377 2677.8581 2727.5998
2638.4165 0.000379 2678.2610 2727.3085
2681.8814 0.000373 2678.6638 2727.0077
2677.2808 0.000374 2679.0667 2726.6991
2646.6805 0.000378 2679.4695 2726.3843
2572.6235 0.000389 2679.8723 2726.0649
2607.1150 0.000384 2680.2752 2725.7426
2669.2388 0.000375 2680.6780 2725.4074
2655.8892 0.000377 2681.0809 2725.0840
2649.9996 0.000377 2681.4837 2724.7624
2681.8866 0.000373 2681.4837 2724.0412
loop_
_pd_peak_id
_pd_peak_2theta_centroid
_pd_peak_d_spacing
_pd_peak_pk_height
_pd_peak_pk_intensity
_pd_peak_width_2theta
PK1 19.9336 4.451 0.1 0.0342 0.4300
PK2 23.0205 3.860 292.0 168.0310 0.4360
PK3 23.1023 3.847 144.1 82.9774 0.4362
PK4 25.7681 3.455 4.4 2.5487 0.4421
PK5 32.5961 2.745 1575.2 957.0001 0.4604
PK6 32.7259 2.734 6465.0 3931.0920 0.4608
PK7 32.7374 2.733 1672.0 1016.7520 0.4608
PK8 34.7727 2.578 30.6 18.8779 0.4671
PK9 36.5693 2.455 20.1 12.5496 0.4730
PK10 36.6651 2.449 36.7 22.9379 0.4733
PK11 38.4254 2.341 40.3 25.4895 0.4794
PK12 38.5172 2.335 35.6 22.5222 0.4797
PK13 38.5584 2.333 77.0 48.7589 0.4798
PK14 40.2177 2.241 537.3 344.5176 0.4859
PK15 40.3355 2.234 591.2 379.3748 0.4863
PK16 42.0404 2.147 12.7 8.2686 0.4928
PK17 43.5886 2.075 28.2 18.5769 0.4989
PK18 43.6713 2.071 16.4 10.8009 0.4992
PK19 46.7431 1.942 1825.0 1233.3770 0.5121
PK20 46.9177 1.935 915.9 619.9356 0.5129
PK21 48.2723 1.884 33.9 23.1988 0.5189
PK22 48.4084 1.879 33.3 22.8333 0.5195
PK23 51.0961 1.786 14.1 9.8985 0.5320
PK24 51.2510 1.781 7.2 5.0516 0.5327
PK25 51.3240 1.779 7.8 5.4852 0.5331
PK26 52.5217 1.741 43.1 30.6414 0.5389
PK27 52.6574 1.737 64.8 46.1188 0.5396
PK28 52.7129 1.735 21.9 15.5896 0.5399
PK29 52.7773 1.733 66.7 47.5782 0.5402
PK30 53.9282 1.699 6.6 4.7505 0.5460
PK31 54.1159 1.693 14.9 10.7456 0.5469
PK32 58.0058 1.589 1088.0 815.1138 0.5677
PK33 58.1629 1.585 490.4 367.9252 0.5685
PK34 58.1847 1.584 939.1 704.7291 0.5687
PK35 58.2522 1.583 512.8 385.0760 0.5690
PK36 59.4490 1.554 3.3 2.4779 0.5758
PK37 60.6019 1.527 0.7 0.5421 0.5825
PK38 60.7107 1.524 3.8 2.9402 0.5831
PK39 60.7695 1.523 1.3 1.0138 0.5834
PK40 60.8347 1.521 3.4 2.6411 0.5838
PK41 61.8857 1.498 2.4 1.8459 0.5901
PK42 61.9147 1.497 0.0 0.0016 0.5902
PK43 61.9932 1.496 2.3 1.8134 0.5907
PK44 62.1446 1.492 6.0 4.6832 0.5916
PK45 64.4296 1.445 0.7 0.5548 0.6057
PK46 64.5976 1.442 4.6 3.6521 0.6068
PK47 64.6543 1.440 0.1 0.0635 0.6071
PK48 65.6493 1.421 4.2 3.4389 0.6135
PK49 65.7533 1.419 0.4 0.2847 0.6142
PK50 67.9317 1.379 164.7 136.6201 0.6286
PK51 68.2321 1.373 700.8 583.2987 0.6307
PK52 68.2586 1.373 179.5 149.4354 0.6308
PK53 69.4643 1.352 16.7 14.1267 0.6392
PK54 69.5463 1.351 0.5 0.4181 0.6397
PK55 70.3319 1.337 5.2 4.4314 0.6453
PK56 70.6335 1.332 3.3 2.7833 0.6474
PK57 71.5215 1.318 2.8 2.4197 0.6538
PK58 71.6883 1.315 9.8 8.4560 0.6550
PK59 71.7881 1.314 3.9 3.3972 0.6558
PK60 71.8210 1.313 0.0 0.0271 0.6560
PK61 71.8419 1.313 3.1 2.7179 0.6561
PK62 71.9017 1.312 12.2 10.5625 0.6566
PK63 72.7095 1.299 9.7 8.4729 0.6626
PK64 72.8350 1.298 26.8 23.4805 0.6635
PK65 72.8885 1.297 33.2 29.0850 0.6639
PK66 73.0268 1.295 16.1 14.1196 0.6649
PK67 73.0471 1.294 20.5 18.0190 0.6651
PK68 73.1337 1.293 13.9 12.1798 0.6657
PK69 74.0078 1.280 4.7 4.1318 0.6723
PK70 75.0431 1.265 4.1 3.6407 0.6803
PK71 75.3370 1.261 7.1 6.3983 0.6826
PK72 77.3379 1.233 131.5 121.2289 0.6987
PK73 77.4868 1.231 268.7 248.1549 0.6999
PK74 77.5707 1.230 142.4 131.6963 0.7006
PK75 77.7467 1.227 275.6 255.3218 0.7020
PK76 78.4870 1.218 1.8 1.6583 0.7081
PK77 78.7188 1.215 10.0 9.3487 0.7101
PK78 78.7970 1.214 8.4 7.8560 0.7107
PK79 78.8221 1.213 3.0 2.8448 0.7110
PK80 79.8115 1.201 0.0 0.0450 0.7194
PK81 79.9076 1.200 1.1 1.0155 0.7202
PK82 80.7907 1.189 2.9 2.7448 0.7279
PK83 80.9768 1.186 4.7 4.5661 0.7295
PK84 81.0783 1.185 1.9 1.8141 0.7304
PK85 81.9076 1.175 38.5 37.5023 0.7378
PK86 82.1370 1.173 45.5 44.4559 0.7398
PK87 82.2402 1.171 21.7 21.2013 0.7408
PK88 82.3166 1.170 23.7 23.1971 0.7414
PK89 83.1869 1.160 7.6 7.4999 0.7494
PK90 83.2384 1.160 4.3 4.2829 0.7499
PK91 83.3908 1.158 4.1 4.1020 0.7513
PK92 84.4952 1.146 0.1 0.1268 0.7616
PK93 84.5523 1.145 0.0 0.0053 0.7621
PK94 86.4499 1.125 114.6 118.0509 0.7805
PK95 86.7532 1.122 124.7 128.9483 0.7835
PK96 87.5487 1.113 2.6 2.7216 0.7914
PK97 87.7759 1.111 15.7 16.4299 0.7937
PK98 88.6401 1.103 0.3 0.3691 0.8026
PK99 88.6912 1.102 1.4 1.5233 0.8031
PK100 88.7726 1.101 1.9 1.9881 0.8040
PK101 88.9751 1.099 0.6 0.6883 0.8061
PK102 89.5925 1.093 0.2 0.1793 0.8125
PK103 89.7628 1.092 1.5 1.6634 0.8143
PK104 89.8953 1.090 1.0 1.0977 0.8157
PK105 89.9719 1.090 0.1 0.1322 0.8166
PK106 90.0665 1.089 0.0 0.0391 0.8176
PK107 90.1999 1.087 3.0 3.2865 0.8190
PK108 90.7087 1.083 16.2 17.6177 0.8245
PK109 91.0626 1.079 22.7 24.7859 0.8283
PK110 91.1628 1.078 7.5 8.2301 0.8294
PK111 91.2211 1.078 23.2 25.3765 0.8300
PK112 91.8315 1.072 0.1 0.1049 0.8368
PK113 92.2858 1.068 5.4 5.9874 0.8418
PK114 92.4392 1.067 0.8 0.9151 0.8435
PK115 93.1318 1.061 2.2 2.4578 0.8514
PK116 93.2644 1.060 0.3 0.3853 0.8529
PK117 95.2053 1.043 156.3 180.6303 0.8756
PK118 95.4147 1.041 131.2 152.0664 0.8781
PK119 95.6119 1.040 146.0 169.7008 0.8805
PK120 95.6427 1.039 140.5 163.3079 0.8809
PK121 95.6612 1.039 117.0 136.0112 0.8811
PK122 95.7639 1.038 129.4 150.6865 0.8823
PK123 96.8734 1.030 8.2 9.6476 0.8960
PK124 96.9506 1.029 2.4 2.8771 0.8969
PK125 97.4441 1.025 0.1 0.1634 0.9031
PK126 97.8448 1.022 0.0 0.0235 0.9082
PK127 98.5772 1.016 0.5 0.6600 0.9176
PK128 98.6030 1.016 0.6 0.6823 0.9179
PK129 98.7752 1.015 0.1 0.0627 0.9201
PK130 98.8268 1.014 0.3 0.4201 0.9208
PK131 98.9091 1.014 0.0 0.0472 0.9219
PK132 98.9790 1.013 0.5 0.5861 0.9228
PK133 99.1140 1.012 0.3 0.3907 0.9246
PK134 99.1341 1.012 0.3 0.3131 0.9248
PK135 99.1916 1.012 1.3 1.6154 0.9256
PK136 100.8732 0.999 2.4 3.0028 0.9481
PK137 101.2335 0.997 0.6 0.8068 0.9531
PK138 101.3357 0.996 4.7 5.8929 0.9545
PK139 101.9982 0.991 0.0 0.0095 0.9638
PK140 102.4044 0.988 0.5 0.5831 0.9695
PK141 102.4122 0.988 0.1 0.1564 0.9696
PK142 102.5090 0.988 0.0 0.0364 0.9710
PK143 104.4580 0.974 59.5 78.4158 0.9995
PK144 104.9819 0.971 30.9 41.1008 1.0073
PK145 105.6194 0.967 4.2 5.6386 1.0171
PK146 105.6989 0.966 0.3 0.4490 1.0183
PK147 105.9347 0.965 1.5 2.0525 1.0220
PK148 106.0143 0.964 0.3 0.3604 1.0232
PK149 106.8339 0.959 0.1 0.0765 1.0361
PK150 106.9722 0.958 1.0 1.4001 1.0383
PK151 107.8037 0.953 0.0 0.0516 1.0518
PK152 108.2211 0.951 0.0 0.0036 1.0586
PK153 108.2559 0.951 0.1 0.1438 1.0592
PK154 108.9517 0.946 5.2 7.2886 1.0708
PK155 109.0057 0.946 20.1 28.4254 1.0717
PK156 109.1452 0.945 9.2 12.9713 1.0741
PK157 109.2533 0.945 6.2 8.7805 1.0759
PK158 109.2718 0.945 3.0 4.2254 1.0762
PK159 109.4862 0.943 9.9 14.0906 1.0799
PK160 109.5739 0.943 8.1 11.5105 1.0814
PK161 109.6487 0.942 10.0 14.2258 1.0827
PK162 110.1416 0.940 3.4 4.8713 1.0912
PK163 110.4641 0.938 5.3 7.6404 1.0968
PK164 110.6276 0.937 0.3 0.3853 1.0997
PK165 110.7892 0.936 0.8 1.1886 1.1026
PK166 111.6400 0.931 0.0 0.0227 1.1178
PK167 111.9452 0.929 0.2 0.2514 1.1234
PK168 113.5280 0.921 20.3 30.8682 1.1531
PK169 113.7688 0.920 117.3 179.1520 1.1577
PK170 114.0996 0.918 100.8 154.8293 1.1641
PK171 114.2114 0.917 88.1 135.5368 1.1663
PK172 114.2720 0.917 22.6 34.7896 1.1675
PK173 114.4131 0.916 55.2 85.2284 1.1703
PK174 114.4961 0.916 56.8 87.8558 1.1719
PK175 115.2016 0.912 1.7 2.7271 1.1859
PK176 115.5079 0.911 4.2 6.5891 1.1921
PK177 115.9902 0.908 0.8 1.3297 1.2020
PK178 116.2785 0.907 0.1 0.1529 1.2080
PK179 116.7219 0.905 0.1 0.0925 1.2173
PK180 116.7282 0.905 1.2 2.0026 1.2174
PK181 116.8934 0.904 0.1 0.0881 1.2209
PK182 116.9570 0.904 0.0 0.0082 1.2222
PK183 117.2440 0.902 0.2 0.3214 1.2284
PK184 117.5643 0.901 0.0 0.0002 1.2353
PK185 117.7563 0.900 1.8 2.8836 1.2394
PK186 117.9059 0.899 1.1 1.8595 1.2427
PK187 117.9903 0.899 0.0 0.0734 1.2445
PK188 117.9925 0.899 2.4 3.9009 1.2446
PK189 118.0995 0.898 0.8 1.3981 1.2469
PK190 118.5194 0.896 5.3 8.8056 1.2562
PK191 119.0670 0.894 12.9 21.6553 1.2685
PK192 119.2963 0.893 6.7 11.2424 1.2738
PK193 119.3267 0.893 15.1 25.4059 1.2744
loop_
_refln_index_h
_refln_index_k
_refln_index_l
_pd_refln_peak_id
0 1 1 PK1
1 0 1 PK2
0 2 0 PK3
1 1 1 PK4
0 0 2 PK5
1 2 1 PK6
2 0 0 PK7
2 1 0 PK8
1 0 2 PK9
2 0 1 PK10
1 1 2 PK11
2 1 1 PK12
0 3 1 PK13
0 2 2 PK14
2 2 0 PK15
1 3 1 PK16
1 2 2 PK17
2 2 1 PK18
2 0 2 PK19
0 4 0 PK20
2 1 2 PK21
2 3 0 PK22
0 1 3 PK23
1 3 2 PK24
2 3 1 PK25
1 0 3 PK26
2 2 2 PK27
3 0 1 PK28
1 4 1 PK29
1 1 3 PK30
3 1 1 PK31
1 2 3 PK32
0 4 2 PK33
3 2 1 PK34
2 4 0 PK35
2 3 2 PK36
2 0 3 PK37
3 0 2 PK38
1 4 2 PK39
2 4 1 PK40
2 1 3 PK41
0 3 3 PK42
3 1 2 PK43
0 5 1 PK44
1 3 3 PK45
3 3 1 PK46
1 5 1 PK47
2 2 3 PK48
3 2 2 PK49
0 0 4 PK50
2 4 2 PK51
4 0 0 PK52
4 1 0 PK53
2 5 0 PK54
1 0 4 PK55
4 0 1 PK56
1 1 4 PK57
2 3 3 PK58
3 3 2 PK59
4 1 1 PK60
1 5 2 PK61
2 5 1 PK62
0 2 4 PK63
3 0 3 PK64
1 4 3 PK65
4 2 0 PK66
3 4 1 PK67
0 6 0 PK68
3 1 3 PK69
1 2 4 PK70
4 2 1 PK71
2 0 4 PK72
3 2 3 PK73
4 0 2 PK74
1 6 1 PK75
2 1 4 PK76
4 1 2 PK77
2 5 2 PK78
4 3 0 PK79
2 4 3 PK80
3 4 2 PK81
1 3 4 PK82
0 5 3 PK83
4 3 1 PK84
2 2 4 PK85
4 2 2 PK86
0 6 2 PK87
2 6 0 PK88
3 3 3 PK89
1 5 3 PK90
3 5 1 PK91
1 6 2 PK92
2 6 1 PK93
0 4 4 PK94
4 4 0 PK95
2 3 4 PK96
4 3 2 PK97
3 0 4 PK98
1 4 4 PK99
4 0 3 PK100
4 4 1 PK101
0 1 5 PK102
3 1 4 PK103
4 1 3 PK104
2 5 3 PK105
3 5 2 PK106
0 7 1 PK107
1 0 5 PK108
3 4 3 PK109
5 0 1 PK110
2 6 2 PK111
1 1 5 PK112
5 1 1 PK113
1 7 1 PK114
3 2 4 PK115
4 2 3 PK116
1 2 5 PK117
2 4 4 PK118
1 6 3 PK119
4 4 2 PK120
5 2 1 PK121
3 6 1 PK122
4 5 0 PK123
2 7 0 PK124
2 0 5 PK125
5 0 2 PK126
2 1 5 PK127
0 3 5 PK128
3 3 4 PK129
1 5 4 PK130
4 3 3 PK131
5 1 2 PK132
4 5 1 PK133
1 7 2 PK134
2 7 1 PK135
1 3 5 PK136
3 5 3 PK137
5 3 1 PK138
2 2 5 PK139
5 2 2 PK140
2 6 3 PK141
3 6 2 PK142
4 0 4 PK143
0 8 0 PK144
4 1 4 PK145
2 5 4 PK146
4 5 2 PK147
2 7 2 PK148
3 4 4 PK149
4 4 3 PK150
2 3 5 PK151
5 3 2 PK152
0 7 3 PK153
3 0 5 PK154
1 4 5 PK155
4 2 4 PK156
0 6 4 PK157
5 0 3 PK158
5 4 1 PK159
4 6 0 PK160
1 8 1 PK161
3 1 5 PK162
5 1 3 PK163
1 7 3 PK164
3 7 1 PK165
1 6 4 PK166
4 6 1 PK167
0 0 6 PK168
3 2 5 PK169
5 2 3 PK170
3 6 3 PK171
6 0 0 PK172
0 8 2 PK173
2 8 0 PK174
4 3 4 PK175
6 1 0 PK176
1 0 6 PK177
2 4 5 PK178
5 4 2 PK179
6 0 1 PK180
1 8 2 PK181
2 8 1 PK182
1 1 6 PK183
0 5 5 PK184
3 5 4 PK185
4 5 3 PK186
6 1 1 PK187
2 7 3 PK188
3 7 2 PK189
0 2 6 PK190
2 6 4 PK191
6 2 0 PK192
4 6 2 PK193
