#------------------------------------------------------------------------------
#$Date: 2020-11-24 07:07:10 +0200 (Tue, 24 Nov 2020) $
#$Revision: 259224 $
#$URL: file:///home/coder/svn-repositories/cod/cif/2/10/86/2108694.cif $
#------------------------------------------------------------------------------
#
# This file is available in the Crystallography Open Database (COD),
# http://www.crystallography.net/. The original data for this entry
# were provided by IUCr Journals, http://journals.iucr.org/.
#
# The file may be used within the scientific community so long as
# proper attribution is given to the journal article from which the
# data were obtained.
#
data_2108694
loop_
_publ_author_name
'Lindenthal, Lorenz'
'Ruh, Thomas'
'Rameshan, Raffael'
'Summerer, Harald'
'Nenning, Andreas'
'Herzig, Christopher'
'L\"offler, Stefan'
'Limbeck, Andreas'
'Opitz, Alexander Karl'
'Blaha, Peter'
'Rameshan, Christoph'
_publ_section_title
;
 Ca-doped rare earth perovskite materials for tailored exsolution of metal
 nanoparticles
;
_journal_issue                   6
_journal_name_full               'Acta Crystallographica Section B'
_journal_page_first
;
;
_journal_paper_doi               10.1107/S2052520620013475
_journal_volume                  76
_journal_year                    2020
_chemical_formula_structural     'Nd0.9 Ca0.1 Fe O3'
_chemical_formula_sum            'Ca0.1 Fe Nd0.9 O3'
_chemical_formula_weight         237.67
_chemical_name_common
;
Neodymium calcium ferrite
;
_chemical_name_systematic
;
Neodymium calcium iron oxide
;
_space_group_crystal_system      orthorhombic
_space_group_IT_number           62
_space_group_name_Hall           '-P 2ac 2n'
_space_group_name_H-M_alt        'P n m a'
_symmetry_Int_Tables_number      62
_symmetry_space_group_name_H-M   'P n m a'
_cell_angle_alpha                90
_cell_angle_beta                 90
_cell_angle_gamma                90
_cell_formula_units_Z            4
_cell_length_a                   5.568011
_cell_length_b                   7.756535
_cell_length_c                   5.451495
_cell_measurement_temperature    295
_cell_volume                     235.442
_computing_structure_refinement  'HighScore Plus 4.8.0'
_diffrn_ambient_temperature      295
_diffrn_measurement_device_type  'PANalytical X'Pert Pro'
_diffrn_radiation_probe          x-ray
_diffrn_radiation_type           'Cu K\a~1+2~'
_diffrn_radiation_wavelength     1.540598
_diffrn_source                   'sealed X-ray tube'
_diffrn_source_target            Cu
_exptl_crystal_density_diffrn    6.70403968
_exptl_crystal_density_method    'not measured'
_exptl_crystal_F_000             423.99999503
_pd_instr_cons_illum_flag        no
_pd_meas_2theta_range_inc        0.02000000
_pd_meas_2theta_range_max        116.98302676
_pd_meas_2theta_range_min        15.00302676
_pd_meas_datetime_initiated      '6/21/2018 10:02:36 AM'
_pd_meas_number_of_points        5100
_pd_meas_scan_method             step
_pd_proc_2theta_range_inc        0.02000000
_pd_proc_2theta_range_max        116.98302676
_pd_proc_2theta_range_min        15.00302676
_pd_proc_ls_background_function  'Vorhandenen Untergrund benutzen'
_pd_proc_ls_pref_orient_corr     'March/Dollase Modell'
_pd_proc_ls_profile_function     Pseudo-Voigt
_pd_proc_ls_prof_R_factor        0.02697726
_pd_proc_ls_prof_wR_expected     0.02541214
_pd_proc_ls_prof_wR_factor       0.03497077
_pd_proc_number_of_points        5100
_pd_spec_mounting                'Si single crystal'
_pd_spec_mount_mode              reflection
_pd_spec_shape                   irregular
_refine_ls_goodness_of_fit_all   1.37614394
_refine_ls_matrix_type           full
_refine_ls_R_I_factor            0.04255348
_refine_ls_weighting_details     1/[Y~i~+\s(Y~i~)]
_refine_ls_weighting_scheme      sigma
_reflns_d_resolution_high        0.908
_reflns_d_resolution_low         4.435
_reflns_limit_h_max              6
_reflns_limit_h_min              0
_reflns_limit_k_max              8
_reflns_limit_k_min              0
_reflns_limit_l_max              6
_reflns_limit_l_min              0
_reflns_number_observed          179
_cod_data_source_file            je5034sup1.cif
_cod_data_source_block           Nd0.9_Rietveld
_cod_original_cell_volume        235.441700
_cod_original_formula_sum        'Nd0.9 Ca0.1 Fe O3'
_cod_database_code               2108694
_xact_pref_orient_vector_h       0.00000000
_xact_pref_orient_vector_k       0.00000000
_xact_pref_orient_vector_l       1.00000000
_xact_pref_orient_param          1.000000
_xact_scale_factor               0.000480
_xact_cagliotti_u                0.062119
_xact_cagliotti_v                0.000000
_xact_cagliotti_w                0.053494
_xact_shape_param_1              0.600000
_xact_shape_param_2              0.000000
_xact_shape_param_3              0.000000
_xact_asym_param_1               0.025000
_xact_asym_param_2               0.025000
loop_
_symmetry_equiv_pos_as_xyz
'x, y, z'
'-x+1/2, -y, z+1/2'
'x+1/2, -y+1/2, -z+1/2'
'-x, y+1/2, -z'
'-x, -y, -z'
'x+1/2, y, -z+1/2'
'-x+1/2, y+1/2, z+1/2'
'x, -y+1/2, z'
loop_
_atom_site_label
_atom_site_type_symbol
_atom_site_fract_x
_atom_site_fract_y
_atom_site_fract_z
_atom_site_U_iso_or_equiv
_atom_site_thermal_displace_type
_atom_site_occupancy
_atom_site_symmetry_multiplicity
_atom_site_Wyckoff_symbol
_atom_site_calc_flag
ND1 Nd 0.046641 0.250000 0.496098 0.004407 Uiso 0.900000 4 c d
FE1 Fe 0.000000 0.000000 0.000000 0.001482 Uiso 1.000000 4 a d
O1 O 0.480108 0.250000 0.588151 0.005598 Uiso 1.000000 4 c d
O2 O 0.286113 0.045792 0.209363 0.005598 Uiso 1.000000 8 d d
CA1 Ca 0.046641 0.250000 0.496098 0.004407 Uiso 0.100000 4 c d
loop_
_pd_meas_intensity_total
_pd_proc_ls_weight
_pd_proc_intensity_bgk_calc
_pd_calc_intensity_total
1433.5170 0.000698 1433.5170 1433.5170
1413.2550 0.000708 1431.6405 1431.6405
1344.0907 0.000744 1429.7640 1429.7640
1355.7816 0.000738 1427.8875 1427.8875
1384.9025 0.000722 1426.0109 1426.0109
1338.0578 0.000747 1424.1344 1424.1344
1326.0610 0.000754 1422.2579 1422.2579
1338.5651 0.000747 1420.3813 1420.3813
1380.6189 0.000724 1418.5048 1418.5048
1386.4763 0.000721 1416.6283 1416.6283
1365.1170 0.000733 1414.7518 1414.7518
1385.5838 0.000722 1412.8752 1412.8752
1355.0054 0.000738 1410.9987 1410.9987
1370.3494 0.000730 1409.1222 1409.1222
1397.8009 0.000715 1407.2457 1407.2457
1372.2445 0.000729 1405.3691 1405.3691
1389.9194 0.000719 1403.4926 1403.4926
1353.7078 0.000739 1401.6161 1401.6161
1320.0000 0.000758 1399.7396 1399.7396
1352.2468 0.000740 1397.8630 1397.8630
1354.0936 0.000739 1395.9865 1395.9865
1374.9692 0.000727 1394.1100 1394.1100
1334.3998 0.000749 1392.2335 1392.2335
1340.4902 0.000746 1390.3569 1390.3569
1368.3932 0.000731 1388.4804 1388.4804
1350.4806 0.000740 1386.6039 1386.6039
1360.6521 0.000735 1384.7274 1384.7274
1351.0489 0.000740 1382.8508 1382.8508
1347.5183 0.000742 1380.9743 1380.9743
1378.5507 0.000725 1379.0978 1379.0978
1406.4062 0.000711 1377.2213 1377.2213
1389.7116 0.000720 1375.3447 1375.3447
1359.1205 0.000736 1373.4682 1373.4682
1371.5623 0.000729 1371.5917 1371.5917
1389.9005 0.000719 1369.7152 1369.7152
1367.7481 0.000731 1367.8386 1367.8386
1333.9068 0.000750 1365.9621 1365.9621
1324.8604 0.000755 1364.0856 1364.0856
1366.2900 0.000732 1362.2091 1362.2091
1364.2620 0.000733 1360.3325 1360.3325
1361.9992 0.000734 1358.4560 1358.4560
1373.3859 0.000728 1356.5795 1356.5795
1380.1749 0.000725 1354.7030 1354.7030
1352.8551 0.000739 1352.8264 1352.8264
1330.0875 0.000752 1350.9499 1350.9499
1353.1743 0.000739 1349.0734 1349.0734
1330.7314 0.000751 1347.1969 1347.1969
1276.5479 0.000783 1345.3203 1345.3203
1307.4739 0.000765 1343.4438 1343.4438
1320.2967 0.000757 1341.5673 1341.5673
1282.6400 0.000780 1339.6908 1339.6908
1328.1459 0.000753 1337.8142 1337.8142
1403.6027 0.000712 1335.9377 1335.9377
1366.1207 0.000732 1334.0612 1334.0612
1340.9694 0.000746 1332.1847 1332.1847
1361.7595 0.000734 1330.3081 1330.3081
1321.0249 0.000757 1328.4316 1328.4316
1292.1497 0.000774 1326.5551 1326.5551
1320.7699 0.000757 1324.6786 1324.6786
1298.8234 0.000770 1322.8020 1322.8020
1283.0672 0.000779 1320.9255 1320.9255
1311.0321 0.000763 1319.0490 1319.0490
1310.4732 0.000763 1317.1725 1317.1725
1317.5512 0.000759 1315.2959 1315.2959
1335.0004 0.000749 1313.4194 1313.4194
1336.0370 0.000748 1311.5429 1311.5429
1344.3353 0.000744 1309.6664 1309.6664
1322.6066 0.000756 1307.7898 1307.7898
1291.3402 0.000774 1305.9133 1305.9133
1297.0533 0.000771 1304.0368 1304.0368
1313.8765 0.000761 1302.1603 1302.1603
1313.7836 0.000761 1300.2837 1300.2837
1278.1185 0.000782 1298.4072 1298.4072
1289.1803 0.000776 1296.5307 1296.5307
1309.0066 0.000764 1294.6542 1294.6542
1317.8267 0.000759 1292.7776 1292.7776
1317.9401 0.000759 1290.9011 1290.9011
1316.3358 0.000760 1289.0246 1289.0246
1326.7322 0.000754 1287.1481 1287.1481
1321.4198 0.000757 1285.2715 1285.2715
1296.2130 0.000771 1283.3950 1283.3950
1254.4558 0.000797 1281.5185 1281.5185
1302.1306 0.000768 1279.6420 1279.6420
1297.6329 0.000771 1277.7654 1277.7654
1246.1860 0.000802 1275.8889 1275.8889
1269.4398 0.000788 1275.1982 1275.1982
1306.3329 0.000766 1274.5075 1274.5075
1324.0680 0.000755 1273.8168 1273.8168
1288.5885 0.000776 1273.1261 1273.1261
1305.8647 0.000766 1272.4354 1272.4354
1335.4018 0.000749 1271.7447 1271.7447
1310.0255 0.000763 1271.0540 1271.0540
1295.3565 0.000772 1270.3633 1270.3633
1312.6489 0.000762 1269.6726 1269.6726
1323.1996 0.000756 1268.9819 1268.9819
1317.3160 0.000759 1268.2912 1268.2912
1285.2445 0.000778 1267.6005 1267.6005
1249.8176 0.000800 1266.9098 1266.9098
1250.6454 0.000800 1266.2191 1266.2191
1289.5719 0.000775 1265.5284 1265.5284
1322.7735 0.000756 1264.8377 1264.8377
1324.9236 0.000755 1264.1470 1264.1470
1309.7274 0.000764 1263.4563 1263.4563
1315.6601 0.000760 1262.7656 1262.7656
1291.9441 0.000774 1262.0749 1262.0749
1287.6582 0.000777 1261.3842 1261.3842
1249.6551 0.000800 1260.6935 1260.6935
1275.4924 0.000784 1260.0028 1260.0028
1304.6174 0.000767 1259.3121 1259.3121
1307.0394 0.000765 1258.6214 1258.6214
1296.5327 0.000771 1257.9307 1257.9307
1283.7358 0.000779 1257.2400 1257.2400
1274.8749 0.000784 1256.5493 1256.5493
1232.4926 0.000811 1255.8587 1255.8587
1256.1644 0.000796 1255.1680 1255.1680
1259.6272 0.000794 1254.4773 1254.4773
1242.3349 0.000805 1253.7866 1253.7866
1267.2113 0.000789 1253.0959 1253.0959
1306.1857 0.000766 1252.4052 1252.4052
1327.3582 0.000753 1251.7145 1251.7145
1337.5978 0.000748 1251.0238 1251.0238
1296.0359 0.000772 1250.3331 1250.3331
1249.9275 0.000800 1249.6424 1249.6424
1269.8275 0.000788 1248.9517 1248.9517
1238.8903 0.000807 1248.2610 1248.2610
1289.6045 0.000775 1247.5703 1247.5703
1266.6217 0.000790 1246.8796 1246.8796
1258.2621 0.000795 1246.1889 1246.1889
1295.2797 0.000772 1245.4982 1245.4982
1291.9180 0.000774 1244.8075 1244.8075
1265.0568 0.000790 1244.1168 1244.1168
1253.9335 0.000797 1243.4261 1243.4261
1227.5328 0.000815 1242.7354 1242.7354
1207.1063 0.000828 1242.0447 1242.0520
1245.4405 0.000803 1241.3540 1241.3614
1308.4474 0.000764 1240.6633 1240.6745
1294.8407 0.000772 1239.9726 1239.9840
1255.5198 0.000796 1239.2819 1239.2935
1227.0756 0.000815 1238.5912 1238.6030
1239.3043 0.000807 1237.9005 1237.9125
1226.7267 0.000815 1237.2098 1237.2220
1239.4042 0.000807 1236.5191 1236.5315
1237.0901 0.000808 1235.8284 1235.8411
1222.6479 0.000818 1235.1377 1235.1506
1161.3974 0.000861 1234.4470 1234.4601
1262.8515 0.000792 1233.7563 1233.7697
1265.8435 0.000790 1233.0656 1233.0792
1268.8355 0.000788 1232.3749 1232.3888
1260.2426 0.000793 1231.6842 1231.6984
1255.7651 0.000796 1230.9935 1231.0080
1308.9918 0.000764 1230.3028 1230.3176
1267.5375 0.000789 1229.6121 1229.6272
1217.3938 0.000821 1228.9214 1228.9368
1205.0616 0.000830 1228.2307 1228.2464
1249.3626 0.000800 1227.5400 1227.5560
1237.7143 0.000808 1226.8493 1226.8656
1241.3799 0.000806 1226.1586 1226.1753
1276.5977 0.000783 1225.4679 1225.4849
1287.1031 0.000777 1224.7772 1224.7946
1202.6688 0.000831 1224.0865 1224.1043
1228.0455 0.000814 1223.3958 1223.4140
1249.1419 0.000801 1222.7051 1222.7237
1228.8922 0.000814 1222.0144 1222.0334
1210.0739 0.000826 1221.3237 1221.3431
1227.4050 0.000815 1220.6330 1220.6529
1223.5188 0.000817 1219.9423 1219.9626
1254.6881 0.000797 1219.2516 1219.2724
1201.4029 0.000832 1218.5609 1218.5822
1216.2183 0.000822 1217.8702 1217.8920
1210.2528 0.000826 1217.5805 1217.6029
1235.7829 0.000809 1217.2908 1217.3137
1236.7155 0.000809 1217.0011 1217.0246
1236.4350 0.000809 1216.7114 1216.7354
1226.4283 0.000815 1216.4217 1216.4463
1266.1366 0.000790 1216.1320 1216.1573
1213.8904 0.000824 1215.8423 1215.8682
1243.6582 0.000804 1215.5525 1215.5792
1273.6974 0.000785 1215.2628 1215.2902
1228.6983 0.000814 1214.9731 1215.0013
1250.7033 0.000800 1214.6834 1214.7123
1251.5267 0.000799 1214.3937 1214.4234
1219.2040 0.000820 1214.1040 1214.1346
1262.7458 0.000792 1213.8143 1213.8458
1223.8242 0.000817 1213.5246 1213.5570
1233.7975 0.000811 1213.2348 1213.2682
1237.5731 0.000808 1212.9451 1212.9795
1223.8019 0.000817 1212.6554 1212.6909
1250.3326 0.000800 1212.3657 1212.4023
1235.8494 0.000809 1212.0760 1212.1137
1295.0064 0.000772 1211.7863 1211.8252
1271.7253 0.000786 1211.4966 1211.5368
1246.9468 0.000802 1211.2069 1211.2484
1205.4752 0.000830 1210.9171 1210.9601
1209.4015 0.000827 1210.6274 1210.6719
1211.1838 0.000826 1210.3377 1210.3837
1193.8884 0.000838 1210.0480 1210.0956
1268.5460 0.000788 1209.7583 1209.8077
1224.7337 0.000817 1209.4686 1209.5198
1289.8510 0.000775 1209.1789 1209.2320
1286.6097 0.000777 1208.8892 1208.9443
1202.9335 0.000831 1208.5994 1208.6568
1237.6281 0.000808 1208.3097 1208.3693
1251.7807 0.000799 1208.0200 1208.0821
1199.9035 0.000833 1207.7303 1207.7949
1251.2807 0.000799 1207.4406 1207.5080
1194.8346 0.000837 1207.1509 1207.2212
1227.3253 0.000815 1206.8612 1206.9346
1258.3066 0.000795 1206.5715 1206.6482
1203.4295 0.000831 1206.2817 1206.3620
1216.0098 0.000822 1205.9920 1206.0761
1180.9181 0.000847 1205.7023 1205.7905
1269.7852 0.000788 1205.3780 1205.4705
1212.3103 0.000825 1205.0537 1205.1509
1229.5437 0.000813 1204.7293 1204.8316
1207.3023 0.000828 1204.4050 1204.5128
1206.7235 0.000829 1204.0806 1204.1944
1253.5849 0.000798 1203.7563 1203.8765
1194.4751 0.000837 1203.4320 1203.5591
1223.3611 0.000817 1203.1076 1203.2424
1261.7841 0.000793 1202.7833 1202.9264
1195.6653 0.000836 1202.4590 1202.6111
1196.0497 0.000836 1202.1346 1202.2968
1241.5300 0.000805 1201.8103 1201.9834
1231.6119 0.000812 1201.4860 1201.6712
1181.2114 0.000847 1201.1616 1201.3602
1221.7187 0.000819 1200.8373 1201.0508
1215.1587 0.000823 1200.5130 1200.7431
1176.0650 0.000850 1200.1886 1200.4374
1182.3588 0.000846 1199.8643 1200.1340
1257.3936 0.000795 1199.5400 1199.8334
1169.5697 0.000855 1199.2156 1199.5362
1181.6609 0.000846 1198.8913 1199.2434
1226.1411 0.000816 1198.5670 1198.9560
1192.0979 0.000839 1198.2426 1198.6761
1194.4630 0.000837 1197.9183 1198.4063
1206.0505 0.000829 1197.5940 1198.1508
1250.1808 0.000800 1197.2696 1197.9154
1227.8602 0.000814 1196.9453 1197.7085
1150.7811 0.000869 1196.6210 1197.5407
1196.4297 0.000836 1196.2966 1197.4257
1124.5129 0.000889 1195.9723 1197.3790
1237.3590 0.000808 1195.6480 1197.4174
1248.4285 0.000801 1195.3236 1197.5562
1187.8465 0.000842 1194.9993 1197.8070
1224.5686 0.000817 1194.6750 1198.1737
1203.5420 0.000831 1194.3506 1198.6486
1235.0856 0.000810 1194.0263 1199.2071
1240.8376 0.000806 1193.7020 1199.8015
1227.0447 0.000815 1193.3776 1200.3562
1231.7933 0.000812 1193.0533 1200.7695
1199.0755 0.000834 1192.7290 1200.9325
1220.0287 0.000820 1192.4046 1200.7653
1250.9459 0.000799 1192.0803 1200.2465
1219.1412 0.000820 1191.7560 1199.4157
1281.5538 0.000780 1191.4316 1198.3543
1208.7216 0.000827 1191.1073 1197.1614
1180.3478 0.000847 1190.7830 1195.9305
1244.0192 0.000804 1190.4586 1194.7340
1243.0355 0.000804 1190.1343 1193.6190
1175.4095 0.000851 1189.8100 1192.6103
1258.9906 0.000794 1189.4856 1191.7158
1222.0306 0.000818 1189.1613 1190.9316
1194.7677 0.000837 1188.8370 1190.2465
1235.6625 0.000809 1188.5126 1189.6452
1261.1557 0.000793 1188.1883 1189.1115
1196.4780 0.000836 1187.8640 1188.6301
1260.3014 0.000793 1187.5396 1188.1877
1192.0917 0.000839 1187.2153 1187.7736
1169.8890 0.000855 1186.8910 1187.3799
1184.2461 0.000844 1186.5666 1187.0006
1124.1863 0.000890 1186.2423 1186.6316
1149.4263 0.000870 1185.9180 1186.2701
1228.4798 0.000814 1185.5936 1185.9142
1184.0053 0.000845 1185.2693 1185.5627
1219.5210 0.000820 1184.9450 1185.2145
1205.1364 0.000830 1184.6206 1184.8692
1204.9342 0.000830 1184.2963 1184.5263
1175.1910 0.000851 1183.9720 1184.1854
1264.0284 0.000791 1183.6476 1184.9448
1229.3213 0.000813 1183.3233 1184.6259
1226.9235 0.000815 1182.9990 1184.3087
1230.6834 0.000813 1182.6746 1184.5438
1176.8271 0.000850 1182.3503 1184.2392
1231.5086 0.000812 1182.0260 1184.6215
1228.7844 0.000814 1181.7016 1184.3319
1227.0898 0.000815 1181.3773 1184.0442
1220.6474 0.000819 1181.0530 1184.1015
1242.6210 0.000805 1180.7286 1183.8232
1162.9024 0.000860 1180.4043 1183.5469
1207.0706 0.000828 1180.0800 1183.2724
1222.8652 0.000818 1179.7556 1182.9999
1135.4777 0.000881 1179.4313 1182.7293
1156.2023 0.000865 1179.1070 1182.4607
1161.7777 0.000861 1178.7826 1182.1941
1241.7542 0.000805 1178.4583 1181.9296
1198.1072 0.000835 1178.0994 1181.6325
1137.2700 0.000879 1177.7404 1181.3376
1185.3235 0.000844 1177.3814 1181.0449
1207.0077 0.000828 1177.0225 1180.7544
1233.4388 0.000811 1176.6635 1180.4663
1216.1166 0.000822 1176.3046 1180.1805
1174.8311 0.000851 1175.9456 1179.8973
1180.2425 0.000847 1175.5867 1179.6165
1202.6913 0.000831 1175.2277 1179.3385
1201.7027 0.000832 1174.8688 1179.0632
1198.4296 0.000834 1174.5098 1178.7907
1167.2513 0.000857 1174.1509 1178.5213
1171.3661 0.000854 1173.7919 1178.2549
1189.9758 0.000840 1173.4330 1177.9917
1204.8457 0.000830 1173.0740 1177.7318
1201.9393 0.000832 1172.7150 1177.4754
1147.1898 0.000872 1172.3561 1177.2227
1172.2009 0.000853 1171.9971 1176.9738
1154.7720 0.000866 1171.6382 1176.7288
1152.4983 0.000868 1171.2792 1176.4879
1234.3507 0.000810 1170.9203 1176.2514
1183.1499 0.000845 1170.5613 1176.0194
1151.6798 0.000868 1170.2024 1175.7922
1152.1105 0.000868 1169.8434 1175.5699
1223.4712 0.000817 1169.4845 1175.3529
1167.1248 0.000857 1169.1255 1175.1414
1222.6403 0.000818 1168.7665 1174.9356
1195.1830 0.000837 1168.4076 1174.7359
1184.1912 0.000844 1168.0486 1174.5425
1181.5817 0.000846 1167.6897 1174.3559
1163.3248 0.000860 1167.3307 1174.1764
1202.2405 0.000832 1166.9718 1174.0043
1177.0864 0.000850 1166.6128 1173.8400
1206.9752 0.000829 1166.2539 1173.6841
1228.0984 0.000814 1165.8949 1173.5370
1238.1107 0.000808 1165.5360 1173.3991
1295.9057 0.000772 1165.1770 1173.2711
1260.7769 0.000793 1164.8180 1173.1535
1264.2055 0.000791 1164.4591 1173.0470
1171.5753 0.000854 1164.1001 1172.9522
1192.1572 0.000839 1163.7412 1172.8699
1151.0417 0.000869 1163.3822 1172.8008
1124.9719 0.000889 1163.3092 1173.0318
1219.6277 0.000820 1163.2363 1173.2778
1243.6376 0.000804 1163.1633 1173.5399
1190.0899 0.000840 1163.0903 1173.8191
1182.3679 0.000846 1163.0173 1174.1166
1129.6626 0.000885 1162.9443 1174.4337
1237.3926 0.000808 1162.8714 1174.7718
1184.6642 0.000844 1162.7984 1175.1324
1166.0006 0.000858 1162.7254 1175.5172
1201.3895 0.000832 1162.6524 1175.9280
1229.8728 0.000813 1162.5794 1176.3669
1218.1912 0.000821 1162.5064 1176.8359
1223.0904 0.000818 1162.4335 1177.3375
1193.8488 0.000838 1162.3605 1177.8745
1208.4249 0.000828 1162.2875 1178.4496
1191.6712 0.000839 1162.2145 1179.0662
1184.1861 0.000844 1162.1415 1179.7279
1194.4382 0.000837 1162.0685 1180.4387
1180.6396 0.000847 1161.9956 1181.2029
1168.9552 0.000855 1161.9226 1182.0257
1154.7938 0.000866 1161.8496 1182.9125
1180.0444 0.000847 1161.7766 1183.8695
1176.3212 0.000850 1161.7036 1184.9039
1192.7201 0.000838 1161.6307 1186.0233
1229.5861 0.000813 1161.5577 1187.2368
1275.5286 0.000784 1161.4847 1188.5545
1198.0384 0.000835 1161.4117 1189.9879
1208.6523 0.000827 1161.3387 1191.5500
1202.1336 0.000832 1161.2657 1193.2558
1164.3224 0.000859 1161.1928 1195.1227
1179.2702 0.000848 1161.1198 1197.1704
1202.7071 0.000831 1161.0468 1199.4148
1193.5944 0.000838 1160.9738 1201.8974
1164.4506 0.000859 1160.9008 1204.6420
1172.3774 0.000853 1160.8278 1207.6822
1196.5935 0.000836 1160.7549 1211.0694
1222.2333 0.000818 1160.6819 1214.8536
1234.3632 0.000810 1160.6089 1219.1012
1195.8019 0.000836 1160.5359 1223.8970
1217.3726 0.000821 1160.4629 1229.3534
1218.0611 0.000821 1160.3900 1235.6251
1235.1404 0.000810 1160.3170 1242.9325
1245.0442 0.000803 1160.2089 1251.5614
1219.3615 0.000820 1160.1007 1262.0179
1286.1286 0.000778 1159.9926 1274.9885
1313.0204 0.000762 1159.8845 1291.4530
1310.8376 0.000763 1159.7764 1312.7650
1277.1810 0.000783 1159.6683 1340.7184
1305.8892 0.000766 1159.5601 1377.5738
1362.4681 0.000734 1159.4520 1426.0143
1456.8288 0.000686 1159.3439 1489.0028
1523.2345 0.000656 1159.2358 1569.5221
1615.7080 0.000619 1159.1277 1670.1892
1716.1743 0.000583 1159.0196 1792.7417
1824.5264 0.000548 1158.9114 1937.3769
1994.9193 0.000501 1158.8033 2101.8929
2135.9243 0.000468 1158.6952 2280.6188
2340.1034 0.000427 1158.5871 2463.4353
2543.9704 0.000393 1158.4790 2635.9013
2627.0315 0.000381 1158.3709 2781.8684
2761.8615 0.000362 1158.2627 2888.1742
2826.6112 0.000354 1158.1546 2947.8790
2809.5172 0.000356 1158.0465 2959.4836
2689.9868 0.000372 1157.9384 2924.4679
2626.4109 0.000381 1157.8303 2846.3610
2584.9717 0.000387 1157.7222 2731.2655
2414.5002 0.000414 1157.6140 2588.0225
2209.0046 0.000453 1157.5059 2427.0835
2024.6383 0.000494 1157.3978 2259.0323
1905.3705 0.000525 1157.2897 2093.6369
1783.9775 0.000561 1157.1816 1938.9951
1682.7589 0.000594 1157.0735 1800.6876
1563.3243 0.000640 1156.9653 1681.5253
1441.2273 0.000694 1156.8572 1581.9903
1371.7318 0.000729 1156.7491 1500.9583
1332.2923 0.000751 1156.6410 1436.3691
1305.3549 0.000766 1156.5329 1385.7361
1292.1706 0.000774 1156.4248 1346.5038
1283.2415 0.000779 1156.3166 1317.0969
1287.5292 0.000777 1156.2085 1293.8126
1235.3078 0.000810 1156.1004 1275.7280
1205.2113 0.000830 1155.9923 1261.4851
1228.3931 0.000814 1155.8842 1250.4691
1203.5580 0.000831 1155.7760 1241.1110
1211.4733 0.000825 1155.6679 1233.2821
1206.2394 0.000829 1155.5598 1226.6081
1185.0441 0.000844 1155.4517 1220.8284
1205.0189 0.000830 1155.3436 1215.7605
1205.1966 0.000830 1155.2355 1211.2734
1205.1432 0.000830 1155.1273 1207.2710
1184.7850 0.000844 1155.0192 1203.6799
1153.1864 0.000867 1154.9111 1200.4423
1172.1888 0.000853 1154.8030 1197.5116
1187.7219 0.000842 1154.6949 1194.8490
1196.5742 0.000836 1154.5868 1192.4221
1218.8032 0.000820 1154.4786 1190.2033
1194.5444 0.000837 1154.3705 1188.1692
1183.4749 0.000845 1154.2624 1186.2993
1197.4115 0.000835 1154.1543 1184.5761
1178.2923 0.000849 1154.0462 1182.9844
1165.5135 0.000858 1153.9381 1181.5109
1181.5529 0.000846 1153.8299 1180.1438
1214.4687 0.000823 1153.7218 1178.8730
1169.4500 0.000855 1153.6137 1177.6894
1131.1722 0.000884 1153.5056 1176.5852
1173.2255 0.000852 1153.3975 1175.5532
1203.1659 0.000831 1153.2894 1174.5872
1192.7380 0.000838 1153.1812 1173.6817
1178.5616 0.000848 1153.0731 1172.8316
1167.0155 0.000857 1152.9650 1172.0325
1164.8457 0.000858 1152.8569 1171.2806
1144.0116 0.000874 1152.7488 1170.5721
1161.8695 0.000861 1152.6407 1169.9038
1216.5707 0.000822 1152.5325 1169.2730
1184.3287 0.000844 1152.4244 1168.6770
1193.8626 0.000838 1152.3163 1168.1135
1190.2196 0.000840 1152.2082 1167.5803
1169.6729 0.000855 1152.1001 1167.0755
1199.5612 0.000834 1151.9920 1166.5974
1189.1597 0.000841 1151.8838 1166.1444
1198.6445 0.000834 1151.7757 1165.7152
1236.3668 0.000809 1151.6676 1165.3084
1181.1810 0.000847 1151.5595 1164.9230
1155.5810 0.000865 1151.4514 1164.5578
1174.0688 0.000852 1151.3432 1164.2119
1205.7468 0.000829 1151.2351 1163.8845
1191.6033 0.000839 1151.0919 1163.5397
1193.6756 0.000838 1150.9486 1163.2120
1175.4787 0.000851 1150.8054 1162.9009
1153.6358 0.000867 1150.6621 1162.6057
1181.0290 0.000847 1150.5189 1162.3261
1190.4961 0.000840 1150.3756 1162.0617
1204.3901 0.000830 1150.2324 1161.8122
1202.1641 0.000832 1150.0891 1161.5774
1191.0364 0.000840 1149.9459 1161.3570
1153.4345 0.000867 1149.8026 1161.1510
1135.2252 0.000881 1149.6594 1160.9593
1148.7664 0.000870 1149.5161 1160.7820
1197.8425 0.000835 1149.3729 1160.6189
1204.1591 0.000830 1149.2296 1160.4704
1149.7614 0.000870 1149.0864 1160.3366
1160.0000 0.000862 1148.9431 1160.2177
1159.2152 0.000863 1148.7999 1160.1141
1158.0000 0.000864 1148.6566 1160.0262
1148.7107 0.000871 1148.5133 1159.9544
1140.5346 0.000877 1148.3701 1159.8994
1170.4676 0.000854 1148.2268 1159.8619
1200.1048 0.000833 1148.0836 1159.8425
1204.9040 0.000830 1147.9403 1159.8421
1190.7191 0.000840 1147.7971 1159.8619
1137.9502 0.000879 1147.6538 1159.9028
1131.1572 0.000884 1147.5106 1159.9662
1154.9939 0.000866 1147.3673 1160.0534
1159.5809 0.000862 1147.2241 1160.1662
1127.0451 0.000887 1147.0808 1160.3064
1152.0964 0.000868 1146.9376 1160.4760
1167.5089 0.000857 1146.7943 1160.6774
1135.9528 0.000880 1146.6511 1160.9132
1134.5398 0.000881 1146.5078 1161.1863
1138.3019 0.000879 1146.3646 1161.5002
1140.4683 0.000877 1146.2213 1161.8586
1208.6834 0.000827 1146.0781 1162.2659
1187.9641 0.000842 1145.9348 1162.7270
1165.1807 0.000858 1145.7916 1163.2476
1191.9866 0.000839 1145.6483 1163.8342
1184.5364 0.000844 1145.5051 1164.4940
1207.2248 0.000828 1145.3618 1165.2357
1177.0000 0.000850 1145.2186 1166.0690
1173.1240 0.000852 1145.0433 1166.9736
1170.1253 0.000855 1144.8681 1167.9947
1168.9288 0.000855 1144.6929 1169.1478
1147.0949 0.000872 1144.5176 1170.4516
1165.6820 0.000858 1144.3424 1171.9278
1182.9745 0.000845 1144.1672 1173.6031
1176.7629 0.000850 1143.9919 1175.5101
1189.0863 0.000841 1143.8167 1177.6902
1220.1939 0.000820 1143.6415 1180.1978
1246.8449 0.000802 1143.4662 1183.1072
1225.7782 0.000816 1143.2910 1185.4394
1247.8254 0.000801 1143.1158 1189.5354
1234.5250 0.000810 1142.9405 1194.5208
1200.0626 0.000833 1142.7653 1200.1926
1183.7127 0.000845 1142.5901 1208.1340
1215.2609 0.000823 1142.4148 1217.8116
1270.7724 0.000787 1142.2396 1231.5378
1291.2830 0.000774 1142.0644 1249.8422
1260.7758 0.000793 1141.8891 1273.8697
1262.2482 0.000792 1141.7139 1305.9797
1335.3544 0.000749 1141.5387 1347.5516
1417.3940 0.000706 1141.3634 1400.1295
1411.5142 0.000708 1141.1882 1464.7728
1457.0978 0.000686 1141.0130 1541.6835
1522.3935 0.000657 1140.8377 1629.7565
1635.9830 0.000611 1140.6625 1726.0269
1844.8786 0.000542 1140.4873 1825.0291
1791.8390 0.000558 1140.3120 1918.3524
1883.1097 0.000531 1140.1368 1995.2063
1955.5432 0.000511 1139.9616 2044.8991
1970.3509 0.000508 1139.7863 2060.5307
1903.8376 0.000525 1139.6111 2041.1030
1876.8047 0.000533 1139.4359 1990.5903
1806.3618 0.000554 1139.2606 1915.9696
1763.8456 0.000567 1139.0854 1825.9156
1668.6178 0.000599 1138.9102 1729.5045
1608.1503 0.000622 1138.7349 1634.6200
1539.2052 0.000650 1138.5597 1546.9068
1400.7900 0.000714 1138.3845 1469.6507
1371.5520 0.000729 1138.2092 1404.2049
1304.8632 0.000766 1138.0340 1350.5371
1249.3593 0.000800 1137.8588 1307.7156
1255.2252 0.000797 1137.6451 1274.2648
1258.3050 0.000795 1137.4315 1248.5864
1181.1623 0.000847 1137.2179 1229.0662
1277.8263 0.000783 1137.0043 1214.2557
1215.1832 0.000823 1136.7906 1202.9450
1156.5927 0.000865 1136.5770 1194.1804
1161.1438 0.000861 1136.3634 1187.2461
1177.8810 0.000849 1136.1498 1181.6258
1205.3135 0.000830 1135.9361 1176.9584
1185.2983 0.000844 1135.7225 1172.9961
1200.5000 0.000833 1135.5089 1169.5701
1172.2920 0.000853 1135.2953 1166.5649
1129.3100 0.000885 1135.0816 1163.8992
1194.6476 0.000837 1134.8680 1161.5142
1188.8351 0.000841 1134.6544 1159.3659
1168.4874 0.000856 1134.4408 1157.4197
1162.2996 0.000860 1134.2271 1155.6481
1151.4488 0.000868 1134.0135 1154.0282
1185.2542 0.000844 1133.7999 1152.5410
1163.2767 0.000860 1133.5863 1151.1704
1150.1027 0.000869 1133.3726 1149.9029
1147.0185 0.000872 1133.1590 1148.7265
1107.4354 0.000903 1132.9454 1147.6311
1156.1126 0.000865 1132.7318 1146.6080
1143.5450 0.000874 1132.5181 1145.6496
1191.0702 0.000840 1132.3045 1144.7491
1144.0000 0.000874 1132.0909 1143.9008
1148.8594 0.000870 1131.8773 1143.0996
1169.3319 0.000855 1131.6636 1142.3409
1117.3451 0.000895 1131.4500 1141.6207
1182.9716 0.000845 1131.2364 1140.9356
1213.3086 0.000824 1131.0228 1140.2823
1183.4545 0.000845 1130.8091 1139.6582
1106.8076 0.000903 1130.5955 1139.0606
1132.9186 0.000883 1130.3819 1138.4873
1133.5766 0.000882 1130.1683 1137.9364
1195.8184 0.000836 1129.9546 1137.4061
1176.9813 0.000850 1129.7410 1136.8946
1159.9052 0.000862 1129.5274 1136.4006
1151.3204 0.000869 1129.3138 1135.9227
1149.4177 0.000870 1129.1001 1135.4597
1110.8118 0.000900 1128.8865 1135.0105
1123.7307 0.000890 1129.0833 1134.9845
1161.9642 0.000861 1129.2801 1134.9705
1045.3285 0.000957 1129.4769 1134.9674
1191.0037 0.000840 1129.6736 1134.9747
1162.0575 0.000861 1129.8704 1134.9916
1165.8214 0.000858 1130.0672 1135.0175
1091.6493 0.000916 1130.2640 1135.0518
1123.0832 0.000890 1130.4607 1135.0939
1147.8520 0.000871 1130.6575 1135.1434
1159.7948 0.000862 1130.8543 1135.1998
1182.5769 0.000846 1131.0511 1135.2627
1184.4443 0.000844 1131.2478 1135.3316
1112.2704 0.000899 1131.4446 1135.4063
1145.1539 0.000873 1131.6414 1135.4863
1165.6249 0.000858 1131.8382 1135.5714
1213.6538 0.000824 1132.0349 1135.6613
1099.4782 0.000910 1132.2317 1135.7558
1156.9314 0.000864 1132.4285 1135.8544
1138.8122 0.000878 1132.6253 1135.9572
1151.8358 0.000868 1132.8220 1136.0637
1110.0902 0.000901 1133.0188 1136.1738
1132.0166 0.000883 1133.2156 1136.2874
1111.0022 0.000900 1133.4124 1136.4042
1136.8709 0.000880 1133.6091 1136.5241
1183.6795 0.000845 1133.8059 1136.6469
1147.5454 0.000871 1134.0027 1136.7725
1163.9118 0.000859 1134.1995 1136.9007
1160.6256 0.000862 1134.3962 1137.0314
1147.6740 0.000871 1134.5930 1137.1646
1173.5445 0.000852 1134.7898 1137.3000
1107.6183 0.000903 1134.9866 1137.4375
1139.9357 0.000877 1135.1834 1137.5772
1135.9196 0.000880 1135.3801 1137.7188
1129.9464 0.000885 1135.5769 1137.8623
1125.1773 0.000889 1135.7737 1138.0075
1146.9407 0.000872 1135.9705 1138.1546
1136.0463 0.000880 1136.1672 1138.3032
1152.9999 0.000867 1136.3640 1138.4534
1151.0052 0.000869 1136.5608 1138.6051
1127.1269 0.000887 1136.7576 1138.7583
1167.6738 0.000856 1136.9543 1138.9129
1191.7450 0.000839 1137.1511 1139.0687
1122.9305 0.000891 1137.3144 1139.1924
1203.6751 0.000831 1137.4777 1139.3172
1134.3414 0.000882 1137.6410 1139.4432
1185.8498 0.000843 1137.8042 1139.5704
1248.4900 0.000801 1137.9675 1139.6986
1095.2354 0.000913 1138.1308 1139.8279
1188.0693 0.000842 1138.2941 1139.9581
1155.1831 0.000866 1138.4574 1140.0893
1118.2819 0.000894 1138.6207 1140.2214
1202.6791 0.000831 1138.7839 1140.3544
1139.7588 0.000877 1138.9472 1140.4883
1181.0380 0.000847 1139.1105 1140.6229
1101.8523 0.000908 1139.2738 1140.7584
1168.4487 0.000856 1139.4371 1140.8946
1141.6211 0.000876 1139.6004 1141.0316
1174.0802 0.000852 1139.7637 1141.1692
1129.7439 0.000885 1139.9269 1141.3076
1109.1147 0.000902 1140.0902 1141.4466
1171.8292 0.000853 1140.2535 1141.5862
1161.9601 0.000861 1140.4168 1141.7265
1214.1996 0.000824 1140.5801 1141.8673
1101.6677 0.000908 1140.7434 1142.0087
1101.3519 0.000908 1140.9066 1142.1507
1141.7888 0.000876 1141.0699 1141.4926
1196.6685 0.000836 1141.2332 1141.6487
1166.0407 0.000858 1141.3965 1141.8051
1181.3463 0.000846 1141.5598 1141.5598
1174.7682 0.000851 1141.7231 1141.7231
1142.0809 0.000876 1141.8863 1141.8863
1149.0024 0.000870 1142.0496 1142.0496
1226.1575 0.000816 1142.2129 1142.2129
1161.6825 0.000861 1142.3762 1142.3762
1117.0467 0.000895 1142.5395 1142.5395
1120.1890 0.000893 1142.7028 1142.7028
1198.9486 0.000834 1142.8660 1142.8660
1166.9086 0.000857 1143.0293 1143.0293
1154.8750 0.000866 1143.1926 1143.1926
1167.3193 0.000857 1143.3559 1143.3559
1194.6733 0.000837 1143.5192 1143.5192
1133.5690 0.000882 1143.6825 1143.6825
1190.1161 0.000840 1143.8457 1143.8457
1134.9587 0.000881 1144.0090 1144.0090
1209.0879 0.000827 1144.1723 1144.1723
1182.6346 0.000846 1144.3356 1144.3356
1163.0917 0.000860 1144.4989 1144.4989
1162.7332 0.000860 1144.6622 1144.6622
1145.7213 0.000873 1144.8255 1144.8255
1144.7225 0.000874 1144.9887 1144.9887
1175.9094 0.000850 1145.1520 1145.1520
1140.7715 0.000877 1145.3153 1145.3153
1143.3858 0.000875 1145.4786 1145.4786
1124.5859 0.000889 1145.6419 1145.6419
1137.1105 0.000879 1145.8052 1145.8052
1140.0000 0.000877 1145.9684 1145.9684
1186.3420 0.000843 1146.1317 1146.1317
1177.3618 0.000849 1146.2950 1146.2950
1174.0000 0.000852 1146.4583 1146.4583
1165.6543 0.000858 1146.6216 1146.6216
1198.1081 0.000835 1146.7849 1146.7849
1159.3920 0.000863 1146.9481 1146.9481
1116.9373 0.000895 1147.1114 1147.1114
1201.4527 0.000832 1147.2747 1147.2747
1153.6592 0.000867 1147.4380 1147.4380
1189.7507 0.000841 1147.6013 1147.6013
1180.6027 0.000847 1147.7646 1147.7646
1163.8017 0.000859 1147.9278 1147.9278
1154.5156 0.000866 1148.0911 1148.0911
1166.7340 0.000857 1148.2544 1148.2544
1195.7669 0.000836 1148.4177 1148.4177
1189.9618 0.000840 1148.5810 1148.5810
1157.4045 0.000864 1148.7443 1148.7443
1165.1470 0.000858 1148.9075 1148.9075
1126.8894 0.000887 1149.0708 1149.0708
1179.3496 0.000848 1149.2341 1149.2341
1207.8380 0.000828 1149.3974 1149.3974
1176.3926 0.000850 1149.5607 1149.5607
1167.7839 0.000856 1149.7240 1149.7240
1135.9710 0.000880 1149.8873 1149.8873
1157.3625 0.000864 1150.0505 1150.0505
1138.0692 0.000879 1150.2138 1150.2138
1181.8036 0.000846 1150.3771 1150.3771
1133.8175 0.000882 1150.5404 1150.5404
1141.8747 0.000876 1150.7037 1150.7037
1175.2510 0.000851 1150.8670 1150.8670
1174.6124 0.000851 1150.9967 1150.9967
1115.7717 0.000896 1151.1265 1151.1265
1161.6026 0.000861 1151.2563 1151.2563
1166.9099 0.000857 1151.3861 1151.3861
1177.0367 0.000850 1151.5159 1151.5159
1176.7558 0.000850 1151.6457 1151.6457
1262.3402 0.000792 1151.7755 1151.7755
1217.6171 0.000821 1151.9053 1151.9053
1194.2235 0.000837 1152.0351 1152.0351
1217.8932 0.000821 1152.1649 1152.1649
1170.0776 0.000855 1152.2947 1152.2947
1213.7843 0.000824 1152.4245 1152.4245
1212.1636 0.000825 1152.5542 1152.5542
1191.3550 0.000839 1152.6840 1152.6840
1161.6199 0.000861 1152.8138 1152.8138
1135.3830 0.000881 1152.9436 1152.9436
1216.0967 0.000822 1153.0734 1153.0734
1219.1630 0.000820 1153.2032 1153.2032
1174.1344 0.000852 1153.3330 1153.3330
1205.1316 0.000830 1153.4628 1153.4628
1204.5626 0.000830 1153.5926 1153.5926
1164.5027 0.000859 1153.7224 1153.7224
1136.2203 0.000880 1153.8522 1153.8522
1176.2742 0.000850 1153.9820 1153.9820
1141.5205 0.000876 1154.1118 1154.1118
1161.1388 0.000861 1154.2415 1154.2415
1171.6826 0.000853 1154.3713 1156.2695
1139.0012 0.000878 1154.5011 1156.4311
1135.6289 0.000881 1154.6309 1156.5935
1164.6640 0.000859 1154.7607 1156.7567
1109.8032 0.000901 1154.8905 1157.8684
1127.2639 0.000887 1155.0203 1158.0492
1177.7613 0.000849 1155.1501 1158.2313
1206.5120 0.000829 1155.2799 1158.4148
1158.9152 0.000863 1155.4097 1158.5997
1117.9490 0.000894 1155.5395 1158.7861
1161.6485 0.000861 1155.6693 1158.9740
1203.5940 0.000831 1155.7990 1159.1635
1178.2844 0.000849 1155.9288 1159.3546
1134.6632 0.000881 1156.0586 1159.5474
1150.5088 0.000869 1156.1884 1159.7420
1138.5705 0.000878 1156.3182 1159.9384
1163.0248 0.000860 1156.4736 1160.1623
1209.2620 0.000827 1156.6290 1160.3881
1215.9042 0.000822 1156.7844 1160.6160
1160.6075 0.000862 1156.9398 1160.8460
1127.5218 0.000887 1157.0953 1161.0781
1116.0810 0.000896 1157.2507 1170.0309
1160.4832 0.000862 1157.4061 1170.4133
1208.5837 0.000827 1157.5615 1170.8018
1165.9007 0.000858 1157.7169 1171.1967
1127.7361 0.000887 1157.8723 1175.9462
1156.4336 0.000865 1158.0277 1176.4270
1176.0000 0.000850 1158.1831 1176.9167
1177.8552 0.000849 1158.3385 1177.4157
1185.1572 0.000844 1158.4939 1177.9243
1153.4432 0.000867 1158.6493 1178.4429
1185.9341 0.000843 1158.8047 1178.9718
1203.9841 0.000831 1158.9602 1179.5116
1196.0252 0.000836 1159.1156 1180.0625
1216.0712 0.000822 1159.2710 1180.6250
1201.0134 0.000833 1159.4264 1183.3200
1147.1780 0.000872 1159.5818 1183.9427
1131.9155 0.000883 1159.7372 1184.5793
1143.9170 0.000874 1159.8926 1185.2305
1147.4110 0.000872 1160.0480 1186.9537
1200.3586 0.000833 1160.2034 1187.6535
1199.4765 0.000834 1160.3588 1188.3702
1157.4745 0.000864 1160.5142 1189.1045
1148.7351 0.000871 1160.6696 1189.8572
1148.2730 0.000871 1160.8250 1190.6291
1163.0444 0.000860 1160.9805 1191.4211
1151.6159 0.000868 1161.1359 1192.2339
1174.8726 0.000851 1161.2913 1193.0686
1170.9696 0.000854 1161.4467 1193.9261
1136.1273 0.000880 1161.6021 1194.8076
1126.0823 0.000888 1161.7575 1195.7140
1167.0029 0.000857 1161.9129 1196.6467
1213.6409 0.000824 1162.0683 1197.6069
1163.9723 0.000859 1162.2237 1198.5958
1150.0375 0.000870 1162.3791 1199.6150
1180.7316 0.000847 1162.5345 1200.6659
1164.5158 0.000859 1162.6899 1201.7501
1154.9508 0.000866 1162.8454 1202.8693
1171.8430 0.000853 1162.9617 1203.9863
1164.3236 0.000859 1163.0780 1205.1422
1174.5830 0.000851 1163.1943 1206.3389
1179.4998 0.000848 1163.3107 1207.5787
1175.0804 0.000851 1163.4270 1208.8640
1173.4506 0.000852 1163.5433 1210.1974
1173.4460 0.000852 1163.6596 1211.5815
1190.2749 0.000840 1163.7760 1213.0193
1197.5170 0.000835 1163.8923 1214.5141
1195.4285 0.000837 1164.0086 1216.0691
1198.1163 0.000835 1164.1249 1217.6881
1247.7882 0.000801 1164.2413 1219.3750
1224.6762 0.000817 1164.3576 1221.1340
1186.1882 0.000843 1164.4739 1222.9700
1189.9582 0.000840 1164.5902 1224.8878
1152.0550 0.000868 1164.7066 1226.8930
1156.3201 0.000865 1164.8229 1228.9914
1175.0282 0.000851 1164.9392 1231.1895
1196.0429 0.000836 1165.0555 1233.4945
1200.4958 0.000833 1165.1719 1235.9140
1164.4820 0.000859 1165.2882 1238.4565
1159.5744 0.000862 1165.4045 1241.1313
1165.7652 0.000858 1165.5209 1243.9486
1188.5696 0.000841 1165.6372 1246.9196
1199.6583 0.000834 1165.7535 1250.0569
1170.3409 0.000854 1165.8698 1253.3741
1194.9489 0.000837 1165.9862 1256.8867
1219.7424 0.000820 1166.1025 1260.6116
1207.0728 0.000828 1166.2188 1264.5679
1209.2264 0.000827 1166.3351 1268.7768
1225.3727 0.000816 1166.4515 1273.2625
1230.8885 0.000812 1166.5678 1278.0518
1230.4169 0.000813 1166.6841 1283.1752
1260.1091 0.000794 1166.8004 1288.6676
1272.0486 0.000786 1166.9168 1294.5683
1260.5551 0.000793 1167.0331 1300.9228
1270.6136 0.000787 1167.1494 1307.7833
1272.1318 0.000786 1167.2657 1315.2104
1289.7671 0.000775 1167.3821 1323.2756
1300.3015 0.000769 1167.4984 1332.0639
1276.2623 0.000784 1167.6147 1341.6794
1319.1577 0.000758 1167.7311 1352.2527
1355.8030 0.000738 1167.8070 1363.9140
1324.9509 0.000755 1167.8830 1376.9344
1304.1419 0.000767 1167.9590 1391.6374
1383.9291 0.000723 1168.0350 1409.0481
1421.6622 0.000703 1168.1110 1428.7218
1442.9922 0.000693 1168.1870 1452.1710
1465.4878 0.000682 1168.2630 1480.7448
1461.0377 0.000684 1168.3390 1516.5579
1472.9071 0.000679 1168.4150 1561.4507
1532.6549 0.000652 1168.4910 1618.6624
1647.9458 0.000607 1168.5669 1691.6403
1734.4618 0.000577 1168.6429 1784.0929
1785.4398 0.000560 1168.7189 1899.6133
1878.5961 0.000532 1168.7949 2041.1517
2028.3830 0.000493 1168.8709 2210.3483
2243.4689 0.000446 1168.9469 2406.7274
2476.0899 0.000404 1169.0229 2626.7043
2637.2626 0.000379 1169.0989 2862.3469
2788.3961 0.000359 1169.1749 3100.0954
2904.8688 0.000344 1169.2509 3320.4828
3117.3653 0.000321 1169.3268 3500.9189
3251.5803 0.000308 1169.4028 3622.5458
3271.2575 0.000306 1169.4788 3677.4609
3221.8529 0.000310 1169.5548 3669.9129
3241.2541 0.000309 1169.6308 3611.3165
3295.6456 0.000303 1169.7068 3516.0100
3159.1418 0.000317 1169.7828 3401.3071
3015.2292 0.000332 1169.8588 3288.2852
3025.7080 0.000331 1169.9348 3200.1048
3056.9299 0.000327 1170.0108 3159.3458
3056.5771 0.000327 1170.0867 3186.6821
3139.0743 0.000319 1170.1627 3300.9323
3384.0094 0.000296 1170.2387 3519.3193
3590.3352 0.000279 1170.3147 3857.0890
3977.3367 0.000251 1170.3907 4326.2232
4497.3351 0.000222 1170.4667 4933.2905
5250.0867 0.000190 1170.5427 5676.5100
6233.2332 0.000160 1170.6187 6541.9250
7193.1390 0.000139 1170.6947 7498.3906
8210.9736 0.000122 1170.7706 8491.6095
9176.6939 0.000109 1170.8466 9440.1643
10028.4170 0.000100 1170.9226 10241.5395
10580.3256 0.000095 1170.9986 10796.6546
10737.3632 0.000093 1171.0746 11045.6155
10663.6176 0.000094 1171.1506 10986.0147
10441.2309 0.000096 1171.2266 10657.2530
9683.9615 0.000103 1171.3026 10113.9538
8872.3872 0.000113 1171.3786 9416.9851
8049.9153 0.000124 1171.4546 8636.9059
7213.6932 0.000139 1171.5305 7849.2613
6545.1148 0.000153 1171.6065 7119.9213
5953.1650 0.000168 1171.6825 6493.0915
5541.0221 0.000180 1171.7585 5987.9465
5249.2134 0.000191 1171.8345 5600.8246
5024.1187 0.000199 1171.9105 5309.4695
4795.0119 0.000209 1171.9865 5079.3689
4587.9333 0.000218 1172.0625 4873.6472
4419.3456 0.000226 1172.1385 4664.1351
4226.8159 0.000237 1172.2145 4436.5936
4025.1446 0.000248 1172.2904 4187.2730
3686.8019 0.000271 1172.3664 3917.3556
3461.1035 0.000289 1172.4424 3631.6631
3231.6000 0.000309 1172.5184 3339.6296
2931.8681 0.000341 1172.5944 3053.8120
2585.0019 0.000387 1172.6704 2786.1282
2372.3098 0.000422 1172.7464 2545.0146
2229.4942 0.000449 1172.8224 2334.7751
2127.8594 0.000470 1172.8984 2156.2828
1978.7255 0.000505 1172.9744 2008.0158
1804.1437 0.000554 1173.0503 1886.9777
1713.9117 0.000583 1173.1263 1789.4181
1745.3569 0.000573 1173.2023 1711.3718
1640.5953 0.000610 1173.2783 1649.0432
1605.7845 0.000623 1173.3543 1599.0500
1610.8198 0.000621 1173.4303 1558.5476
1536.7789 0.000651 1173.5063 1525.2555
1436.5014 0.000696 1173.5823 1497.4187
1413.2424 0.000708 1173.6583 1473.7300
1442.5570 0.000693 1173.7343 1453.2389
1379.1385 0.000725 1173.8102 1435.2644
1371.1079 0.000729 1173.8862 1419.3191
1350.6897 0.000740 1173.9622 1405.0511
1351.1239 0.000740 1174.0382 1392.2007
1367.1683 0.000731 1174.1142 1380.5708
1288.5454 0.000776 1174.1499 1369.9665
1280.7554 0.000781 1174.1855 1360.3036
1339.7370 0.000746 1174.2212 1351.4795
1340.0608 0.000746 1174.2568 1343.4080
1286.0366 0.000778 1174.2925 1336.0160
1315.8491 0.000760 1174.3281 1329.2409
1285.3514 0.000778 1174.3638 1323.0294
1230.3667 0.000813 1174.3994 1317.3356
1241.7562 0.000805 1174.4351 1312.1205
1274.6079 0.000785 1174.4707 1307.3508
1228.1367 0.000814 1174.5064 1302.9988
1252.8561 0.000798 1174.5420 1299.0416
1238.9498 0.000807 1174.5777 1295.4610
1266.4941 0.000790 1174.6134 1292.2432
1244.6748 0.000803 1174.6490 1289.3789
1191.1146 0.000840 1174.6847 1286.8638
1280.6002 0.000781 1174.7203 1284.6985
1222.8542 0.000818 1174.7560 1282.8902
1175.7664 0.000851 1174.7916 1281.4667
1166.9274 0.000857 1174.8273 1280.4298
1211.2029 0.000826 1174.8629 1279.8353
1180.1896 0.000847 1174.8986 1279.7515
1198.7322 0.000834 1174.9342 1280.2843
1237.3597 0.000808 1174.9699 1281.6009
1260.2749 0.000793 1175.0055 1283.9275
1247.5533 0.000802 1175.0412 1287.6140
1312.3474 0.000762 1175.0768 1293.1361
1290.4514 0.000775 1175.1125 1301.1230
1266.7464 0.000789 1175.1482 1312.3640
1303.5287 0.000767 1175.1838 1327.7884
1249.0734 0.000801 1175.2195 1348.4101
1334.8072 0.000749 1175.2551 1375.2297
1342.5594 0.000745 1175.2908 1409.0946
1463.3282 0.000683 1175.3264 1450.5194
1430.0045 0.000699 1175.3621 1499.4697
1461.2768 0.000684 1175.3977 1555.0958
1531.6999 0.000653 1175.4334 1615.3982
1628.8158 0.000614 1175.4690 1676.8503
1684.7808 0.000594 1175.5047 1734.2031
1656.5876 0.000604 1175.5403 1781.0049
1675.1463 0.000597 1175.5760 1811.2959
1793.3332 0.000558 1175.6116 1821.8049
1722.9642 0.000580 1175.6057 1812.7768
1670.6912 0.000599 1175.5998 1786.7145
1656.1541 0.000604 1175.5938 1746.7339
1640.2827 0.000610 1175.5879 1696.0922
1560.7205 0.000641 1175.5820 1638.6541
1507.2476 0.000663 1175.5760 1578.8037
1464.2913 0.000683 1175.5701 1520.5560
1488.8679 0.000672 1175.5641 1466.9044
1432.6685 0.000698 1175.5582 1419.5729
1393.6187 0.000718 1175.5523 1379.2312
1292.4779 0.000774 1175.5463 1345.8032
1339.2153 0.000747 1175.5404 1318.7416
1266.3895 0.000790 1175.5345 1297.2400
1288.3925 0.000776 1175.5285 1280.3887
1271.0622 0.000787 1175.5226 1267.2860
1148.4945 0.000871 1175.5166 1257.1102
1196.7083 0.000836 1175.5107 1247.2845
1210.7327 0.000826 1175.5048 1241.0222
1201.1467 0.000833 1175.4988 1235.9780
1115.9019 0.000896 1175.4929 1231.8258
1185.3920 0.000844 1175.4870 1227.3915
1146.3876 0.000872 1175.4810 1224.4032
1242.9688 0.000805 1175.4751 1221.7910
1241.8002 0.000805 1175.4691 1219.4751
1234.5861 0.000810 1175.4632 1217.3991
1216.6104 0.000822 1175.4573 1215.5222
1116.0616 0.000896 1175.4513 1213.8140
1121.5543 0.000892 1175.4454 1212.2510
1261.4226 0.000793 1175.4395 1210.8144
1223.5115 0.000817 1175.4335 1209.4889
1184.5565 0.000844 1175.4276 1208.2616
1139.9784 0.000877 1175.4216 1207.1217
1137.1897 0.000879 1175.4157 1206.0597
1179.0481 0.000848 1175.4098 1205.0678
1204.9787 0.000830 1175.4038 1204.1388
1234.8953 0.000810 1175.3979 1203.2668
1196.2402 0.000836 1175.3920 1202.4464
1137.5208 0.000879 1175.3860 1201.6730
1180.4942 0.000847 1175.3801 1192.3589
1095.2324 0.000913 1175.3741 1191.8063
1156.9226 0.000864 1175.3682 1191.2863
1235.4592 0.000809 1175.3623 1190.7963
1164.6408 0.000859 1175.3725 1186.0472
1172.7516 0.000853 1175.3827 1185.6956
1138.9629 0.000878 1175.3929 1185.3657
1185.5212 0.000844 1175.4032 1185.0556
1167.6570 0.000856 1175.4134 1184.7640
1180.5028 0.000847 1175.4236 1184.4893
1226.2052 0.000816 1175.4339 1184.2304
1158.9416 0.000863 1175.4441 1183.9861
1133.0446 0.000883 1175.4543 1183.7554
1156.7990 0.000864 1175.4645 1183.5375
1230.2865 0.000813 1175.4748 1181.2522
1167.6072 0.000856 1175.4850 1181.0909
1150.7588 0.000869 1175.4952 1180.9392
1157.5450 0.000864 1175.5054 1180.7966
1186.2139 0.000843 1175.5157 1179.6196
1151.4261 0.000868 1175.5259 1179.5104
1278.9822 0.000782 1175.5361 1179.4084
1232.0527 0.000812 1175.5464 1179.3133
1177.7916 0.000849 1175.5566 1179.2248
1184.1983 0.000844 1175.5668 1179.1424
1197.0178 0.000835 1175.5770 1179.0660
1147.3022 0.000872 1175.5873 1178.9954
1170.5733 0.000854 1175.5975 1178.9303
1227.0700 0.000815 1175.6077 1178.8707
1205.5006 0.000830 1175.6179 1178.8164
1177.4891 0.000849 1175.6282 1178.7673
1175.9084 0.000850 1175.6384 1178.7234
1216.7594 0.000822 1175.6486 1178.7243
1231.8371 0.000812 1175.6589 1178.6915
1211.3898 0.000825 1175.6691 1178.6640
1209.0000 0.000827 1175.6793 1178.6420
1166.0357 0.000858 1175.6895 1178.6257
1199.3741 0.000834 1175.6998 1178.6352
1196.8820 0.000836 1175.7100 1178.6316
1168.5005 0.000856 1175.7202 1178.6350
1224.2557 0.000817 1175.7304 1178.6461
1157.9335 0.000864 1175.7407 1178.6660
1160.3070 0.000862 1175.7509 1178.6962
1166.3820 0.000857 1175.7611 1178.7391
1216.8030 0.000822 1175.7713 1178.7980
1171.7359 0.000853 1175.7816 1178.8778
1221.3143 0.000819 1175.7918 1178.9856
1199.6995 0.000834 1175.7654 1179.0945
1130.2704 0.000885 1175.7390 1179.2541
1117.4188 0.000895 1175.7126 1179.4808
1215.6381 0.000823 1175.6862 1179.7944
1226.8697 0.000815 1175.6599 1180.2169
1189.3474 0.000841 1175.6335 1180.7705
1178.7514 0.000848 1175.6071 1181.5615
1142.4240 0.000875 1175.5807 1182.4337
1184.9739 0.000844 1175.5543 1183.5672
1188.1080 0.000842 1175.5279 1184.7693
1176.9315 0.000850 1175.5015 1186.0964
1155.7635 0.000865 1175.4751 1187.5280
1168.6740 0.000856 1175.4487 1188.8783
1144.5759 0.000874 1175.4223 1190.1024
1185.3884 0.000844 1175.3960 1190.9713
1186.7431 0.000843 1175.3696 1191.4352
1148.7869 0.000870 1175.3432 1191.4764
1230.4189 0.000813 1175.3168 1191.1416
1160.0543 0.000862 1175.2904 1190.4994
1161.1905 0.000861 1175.2640 1189.6167
1159.5012 0.000862 1175.2376 1188.5665
1128.0418 0.000886 1175.2112 1187.4400
1117.7720 0.000895 1175.1848 1186.3401
1151.5868 0.000868 1175.1584 1185.3622
1165.6117 0.000858 1175.1320 1184.5833
1172.5930 0.000853 1175.1057 1184.0617
1162.8513 0.000860 1175.0793 1183.8437
1246.5097 0.000802 1175.0529 1183.9690
1178.8262 0.000848 1175.0265 1184.4737
1121.1018 0.000892 1175.0001 1185.3903
1168.5675 0.000856 1174.9737 1186.7436
1158.1613 0.000863 1174.9473 1188.5451
1158.0229 0.000864 1174.9209 1190.7836
1187.9955 0.000842 1174.8945 1193.4141
1168.1006 0.000856 1174.8681 1196.3420
1201.7050 0.000832 1174.8418 1199.4047
1137.8050 0.000879 1174.8154 1201.8069
1225.4447 0.000816 1174.7890 1204.3438
1240.6566 0.000806 1174.7626 1206.1398
1213.6741 0.000824 1174.7362 1206.9878
1234.3229 0.000810 1174.7098 1206.8600
1307.2856 0.000765 1174.6834 1205.5952
1269.2167 0.000788 1174.6570 1203.8940
1195.9306 0.000836 1174.6306 1201.6190
1150.3131 0.000869 1174.6042 1198.9204
1172.3163 0.000853 1174.5779 1195.9858
1161.4543 0.000861 1174.5515 1193.0204
1188.7935 0.000841 1174.5251 1190.2017
1137.5648 0.000879 1174.4987 1187.6506
1192.9046 0.000838 1174.4723 1185.4298
1181.4569 0.000846 1174.4459 1183.5564
1167.7296 0.000856 1174.4195 1182.0171
1158.5498 0.000863 1174.3931 1180.7798
1138.3417 0.000878 1174.3667 1179.8032
1154.3697 0.000866 1174.3403 1179.0428
1155.0917 0.000866 1174.3140 1178.4559
1160.5952 0.000862 1174.2876 1178.0044
1133.3153 0.000882 1174.2612 1177.6558
1089.0082 0.000918 1174.2348 1177.3843
1150.3672 0.000869 1174.2084 1177.1701
1179.5888 0.000848 1174.1820 1176.9984
1175.4854 0.000851 1174.1556 1176.8587
1158.5944 0.000863 1174.1292 1176.7436
1144.3266 0.000874 1174.1028 1176.6479
1181.3050 0.000847 1174.0764 1176.5683
1187.2318 0.000842 1174.0501 1176.5021
1153.0378 0.000867 1174.0237 1176.4478
1107.0284 0.000903 1173.9973 1176.4040
1132.3701 0.000883 1173.9709 1176.3700
1166.6761 0.000857 1173.9445 1176.3449
1152.9541 0.000867 1173.9181 1176.3284
1174.7829 0.000851 1173.8917 1176.3201
1200.7770 0.000833 1173.8653 1177.0400
1197.2784 0.000835 1173.8389 1177.0596
1148.2290 0.000871 1173.8125 1177.0874
1137.9800 0.000879 1173.7862 1177.1237
1126.7650 0.000887 1173.7598 1177.1687
1150.3507 0.000869 1173.7334 1177.5818
1134.7801 0.000881 1173.7070 1177.6512
1100.9731 0.000908 1173.6806 1177.7308
1155.2644 0.000866 1173.6542 1177.8213
1166.9156 0.000857 1173.6278 1177.9237
1188.6374 0.000841 1173.6014 1178.0391
1184.4529 0.000844 1173.5750 1178.1686
1150.8294 0.000869 1173.7193 1178.4847
1155.6105 0.000865 1173.8635 1178.8185
1156.7294 0.000865 1174.0078 1179.1727
1166.5711 0.000857 1174.1521 1179.5507
1168.6914 0.000856 1174.2963 1179.9571
1217.1397 0.000822 1174.4406 1180.3985
1184.1969 0.000844 1174.5848 1180.8842
1188.3539 0.000842 1174.7291 1181.4277
1185.4716 0.000844 1174.8734 1182.0484
1215.5485 0.000823 1175.0176 1182.7729
1178.5968 0.000848 1175.1619 1183.6372
1184.1375 0.000844 1175.3061 1184.6877
1157.3159 0.000864 1175.4504 1185.9814
1159.8376 0.000862 1175.5947 1187.5837
1177.7500 0.000849 1175.7389 1189.5644
1182.0225 0.000846 1175.8832 1191.9909
1180.2152 0.000847 1176.0274 1194.9184
1189.3079 0.000841 1176.1717 1199.2652
1213.8373 0.000824 1176.3159 1203.2639
1200.3671 0.000833 1176.4602 1207.7248
1192.8223 0.000838 1176.6045 1212.5063
1187.2903 0.000842 1176.7487 1217.3644
1179.5828 0.000848 1176.8930 1222.3855
1171.8779 0.000853 1177.0372 1226.2685
1186.2118 0.000843 1177.1815 1229.0773
1184.3305 0.000844 1177.3258 1230.6402
1162.2736 0.000860 1177.4700 1231.0300
1178.3483 0.000849 1177.6143 1230.4643
1189.7652 0.000841 1177.7585 1229.1788
1156.2292 0.000865 1177.9028 1227.3988
1178.9172 0.000848 1178.0471 1225.3949
1236.3518 0.000809 1178.1913 1223.5223
1233.4233 0.000811 1178.3356 1222.1918
1197.6290 0.000835 1178.4798 1221.8146
1178.6953 0.000848 1178.6241 1222.7706
1185.8662 0.000843 1178.7683 1225.4035
1200.5454 0.000833 1178.9126 1230.0234
1254.3076 0.000797 1179.0569 1236.8984
1259.8927 0.000794 1179.2011 1246.2300
1241.8238 0.000805 1179.3454 1258.1153
1259.4868 0.000794 1179.4896 1272.4935
1279.3026 0.000782 1179.6339 1289.0768
1301.5887 0.000768 1179.7278 1307.2106
1345.2399 0.000743 1179.8217 1325.9258
1406.9218 0.000711 1179.9156 1343.7425
1445.9500 0.000692 1180.0094 1358.8559
1466.3752 0.000682 1180.1033 1369.5539
1454.8402 0.000687 1180.1972 1374.7746
1436.0268 0.000696 1180.2911 1374.4033
1415.0376 0.000707 1180.3850 1369.0555
1400.6051 0.000714 1180.4789 1359.5873
1400.4296 0.000714 1180.5728 1346.8069
1372.3819 0.000729 1180.6667 1331.5371
1383.0050 0.000723 1180.7605 1314.7530
1381.6736 0.000724 1180.8544 1297.5947
1300.5050 0.000769 1180.9483 1281.0832
1293.8260 0.000773 1181.0422 1265.9836
1258.2063 0.000795 1181.1361 1252.7365
1192.5489 0.000839 1181.2300 1241.4988
1251.6295 0.000799 1181.3239 1232.2495
1257.4884 0.000795 1181.4178 1224.8254
1219.8298 0.000820 1181.5116 1219.0023
1230.6648 0.000813 1181.6055 1214.5294
1234.6863 0.000810 1181.6994 1211.1580
1228.1757 0.000814 1181.7933 1208.6599
1231.5527 0.000812 1181.8872 1206.8384
1213.4040 0.000824 1181.9811 1205.5325
1168.7305 0.000856 1182.0750 1204.6164
1153.3002 0.000867 1182.1689 1203.9955
1160.5737 0.000862 1182.2627 1203.6013
1216.0175 0.000822 1182.3566 1203.3858
1243.0014 0.000805 1182.4505 1203.3160
1206.1456 0.000829 1182.5444 1203.3698
1180.9646 0.000847 1182.6383 1203.5328
1141.4478 0.000876 1182.7322 1203.7960
1140.5309 0.000877 1182.8261 1204.1540
1137.9809 0.000879 1182.9200 1204.6041
1170.4221 0.000854 1183.0138 1205.1169
1243.5009 0.000804 1183.1077 1205.7516
1217.7486 0.000821 1183.2016 1206.4817
1193.2295 0.000838 1183.2955 1207.3115
1214.8456 0.000823 1183.3894 1208.2470
1176.9896 0.000850 1183.4833 1209.2814
1203.7602 0.000831 1183.5772 1210.4532
1226.2601 0.000815 1183.6206 1211.7090
1208.8758 0.000827 1183.6640 1213.1134
1199.1921 0.000834 1183.7074 1214.6840
1221.2174 0.000819 1183.7508 1216.4422
1200.6600 0.000833 1183.7943 1218.4148
1199.1321 0.000834 1183.8377 1220.6363
1215.0861 0.000823 1183.8811 1223.1527
1227.2900 0.000815 1183.9245 1226.3335
1196.8997 0.000835 1183.9679 1229.6601
1217.1131 0.000822 1184.0114 1233.5632
1219.5309 0.000820 1184.0548 1238.2310
1234.6668 0.000810 1184.0982 1243.9353
1263.9085 0.000791 1184.1416 1251.2139
1263.2445 0.000792 1184.1850 1260.2951
1325.9370 0.000754 1184.2285 1272.0309
1381.6624 0.000724 1184.2719 1287.3066
1338.5190 0.000747 1184.3153 1307.1779
1345.4284 0.000743 1184.3587 1332.8196
1395.3816 0.000717 1184.4021 1365.4312
1389.7309 0.000720 1184.4456 1406.0944
1447.9259 0.000691 1184.4890 1455.5896
1508.4581 0.000663 1184.5324 1514.1728
1581.0276 0.000633 1184.5758 1581.3066
1661.3750 0.000602 1184.6192 1655.3220
1729.0000 0.000578 1184.6627 1732.9986
1757.7504 0.000569 1184.7061 1809.1830
1829.0932 0.000547 1184.7495 1876.8871
1875.7752 0.000533 1184.7929 1928.5572
1906.8521 0.000524 1184.8363 1958.5833
1944.1356 0.000514 1184.8797 1965.4633
1949.5159 0.000513 1184.9232 1951.5492
1898.1140 0.000527 1184.9666 1920.6599
1916.8405 0.000522 1185.0100 1876.0707
1824.7807 0.000548 1185.0534 1820.4792
1808.2862 0.000553 1185.0968 1757.1285
1759.2286 0.000568 1185.1403 1690.2899
1621.9421 0.000617 1185.1837 1624.5182
1571.8673 0.000636 1185.2271 1563.5908
1553.3584 0.000644 1185.2705 1510.0026
1492.4820 0.000670 1185.3139 1465.0580
1450.8431 0.000689 1185.3574 1429.2203
1403.0057 0.000713 1185.4008 1402.4700
1432.5992 0.000698 1185.4442 1384.5965
1444.4765 0.000692 1185.4876 1375.4159
1418.1977 0.000705 1185.5310 1374.9235
1426.9747 0.000701 1185.5745 1383.3801
1425.0848 0.000702 1185.6179 1401.3251
1472.4217 0.000679 1185.6613 1429.5091
1502.4614 0.000666 1185.7047 1468.7488
1520.2334 0.000658 1185.7481 1519.7118
1533.6296 0.000652 1185.7916 1582.6443
1702.9037 0.000587 1185.8350 1657.0458
1787.3983 0.000559 1185.8784 1741.2709
1874.2088 0.000534 1185.9218 1832.0329
2006.6587 0.000498 1185.9652 1923.8684
2164.9077 0.000462 1186.0087 2008.9302
2141.1611 0.000467 1186.0521 2077.8952
2187.1727 0.000457 1186.0955 2122.5542
2265.3746 0.000441 1186.1389 2138.9656
2231.4934 0.000448 1186.1823 2128.4657
2136.1956 0.000468 1186.2258 2095.4607
2085.6178 0.000479 1186.2692 2044.3556
2048.0793 0.000488 1186.3126 1978.4601
1898.4370 0.000527 1186.3560 1901.0653
1939.7434 0.000516 1186.3994 1816.6220
1854.8112 0.000539 1186.4429 1730.6314
1727.0225 0.000579 1186.4863 1648.0990
1618.9646 0.000618 1186.5297 1572.6641
1541.5567 0.000649 1186.5731 1506.3441
1489.8388 0.000671 1186.6165 1449.8093
1445.0203 0.000692 1186.6599 1402.8742
1381.1267 0.000724 1186.7034 1364.7315
1360.7945 0.000735 1186.7468 1334.2880
1328.2124 0.000753 1186.7902 1310.3303
1309.7933 0.000763 1186.8336 1291.6549
1325.5813 0.000754 1186.8770 1277.1864
1281.5828 0.000780 1186.9205 1265.9059
1293.9206 0.000773 1186.9639 1257.0556
1195.1769 0.000837 1187.0073 1250.0150
1244.3805 0.000804 1187.0507 1244.3138
1235.4778 0.000809 1187.0941 1239.6223
1228.9082 0.000814 1187.1376 1235.6633
1278.3959 0.000782 1187.1810 1232.2778
1197.1268 0.000835 1187.2244 1229.3435
1291.6697 0.000774 1187.2174 1226.7237
1296.5239 0.000771 1187.2103 1224.4065
1240.5439 0.000806 1187.2033 1222.2615
1197.1095 0.000835 1187.1962 1220.3344
1219.2558 0.000820 1187.1892 1218.6914
1189.5495 0.000841 1187.1821 1217.2196
1163.3991 0.000860 1187.1751 1215.9003
1211.9280 0.000825 1187.1680 1214.6762
1173.2948 0.000852 1187.1610 1213.5747
1197.2133 0.000835 1187.1539 1212.6322
1214.6645 0.000823 1187.1469 1211.7944
1231.5168 0.000812 1187.1398 1211.0747
1266.4609 0.000790 1187.1328 1210.4255
1213.6023 0.000824 1187.1257 1209.8626
1182.3969 0.000846 1187.1187 1209.3821
1253.7751 0.000798 1187.1116 1208.9814
1234.0622 0.000810 1187.1046 1208.6589
1165.5809 0.000858 1187.0975 1208.4243
1190.1137 0.000840 1187.0905 1208.2573
1187.6884 0.000842 1187.0834 1208.1695
1237.4843 0.000808 1187.0764 1208.1636
1218.4355 0.000821 1187.0693 1208.2437
1196.6721 0.000836 1187.0623 1208.4152
1202.9764 0.000831 1187.0552 1208.6857
1222.1962 0.000818 1187.0482 1209.0654
1258.9432 0.000794 1187.0411 1209.5683
1223.3813 0.000817 1187.0341 1210.2138
1217.6681 0.000821 1187.0271 1211.0297
1206.8159 0.000829 1187.0200 1212.0563
1196.2639 0.000836 1187.0130 1213.3528
1190.9152 0.000840 1187.0059 1215.0056
1246.9277 0.000802 1186.9989 1217.1395
1204.0332 0.000831 1186.9918 1219.9300
1256.6267 0.000796 1186.9848 1223.6154
1274.1873 0.000785 1186.9777 1228.5062
1237.0862 0.000808 1186.9707 1234.9871
1288.4354 0.000776 1186.9636 1243.5073
1329.7497 0.000752 1186.9566 1254.5539
1245.3109 0.000803 1186.9495 1268.6083
1290.2263 0.000775 1186.9425 1286.0839
1311.7042 0.000762 1186.9354 1307.2469
1308.1295 0.000764 1186.9284 1332.1235
1418.9190 0.000705 1186.8708 1360.3350
1418.0000 0.000705 1186.8132 1391.1049
1422.1639 0.000703 1186.7555 1422.9336
1476.2137 0.000677 1186.6979 1453.5164
1517.4222 0.000659 1186.6403 1479.8678
1524.0155 0.000656 1186.5827 1498.9672
1535.4638 0.000651 1186.5251 1508.8379
1503.8020 0.000665 1186.4675 1509.2891
1571.2842 0.000636 1186.4099 1501.5845
1498.5967 0.000667 1186.3523 1487.3663
1517.8794 0.000659 1186.2946 1467.8833
1400.8227 0.000714 1186.2370 1444.0565
1521.6864 0.000657 1186.1794 1417.0070
1436.2387 0.000696 1186.1218 1388.3185
1400.3494 0.000714 1186.0642 1359.7665
1404.1860 0.000712 1186.0066 1332.8643
1313.3129 0.000761 1185.9490 1308.6132
1271.6421 0.000786 1185.8914 1287.5060
1289.6931 0.000775 1185.8337 1269.6491
1309.2720 0.000764 1185.7761 1254.8945
1282.9291 0.000779 1185.7185 1242.9426
1178.3996 0.000849 1185.6609 1233.4168
1310.0176 0.000763 1185.6033 1225.9163
1267.2752 0.000789 1185.5457 1220.0531
1280.2524 0.000781 1185.4881 1215.4767
1236.7565 0.000809 1185.4305 1211.8874
1219.4640 0.000820 1185.3728 1208.3333
1174.5929 0.000851 1185.3152 1206.0509
1239.9747 0.000806 1185.2576 1204.1772
1236.1531 0.000809 1185.2000 1202.6077
1277.9717 0.000782 1185.1424 1201.2675
1249.0491 0.000801 1185.0848 1199.7492
1138.4842 0.000878 1185.0272 1198.7311
1208.5008 0.000827 1184.9696 1197.8261
1244.6508 0.000803 1184.9119 1197.0152
1250.9258 0.000799 1184.8543 1196.2842
1226.3759 0.000815 1184.7967 1195.6220
1227.9646 0.000814 1184.7391 1195.0200
1239.7555 0.000807 1184.6815 1194.4709
1234.1383 0.000810 1184.6239 1193.9690
1165.8000 0.000858 1184.5663 1193.5093
1161.0851 0.000861 1184.5087 1193.0877
1204.6027 0.000830 1184.8771 1193.1268
1215.6628 0.000823 1185.2456 1193.1975
1160.1106 0.000862 1185.6141 1193.2973
1233.9144 0.000810 1185.9826 1193.4243
1237.0000 0.000808 1186.3510 1193.5768
1206.4207 0.000829 1186.7195 1193.7535
1195.4707 0.000836 1187.0880 1193.9534
1213.0550 0.000824 1187.4565 1194.1760
1128.7163 0.000886 1187.8250 1194.4209
1169.3565 0.000855 1188.1934 1194.6886
1221.9397 0.000818 1188.5619 1194.9796
1226.8792 0.000815 1188.9304 1195.2956
1213.8831 0.000824 1189.2989 1195.6394
1178.4327 0.000849 1189.6673 1196.0151
1202.0843 0.000832 1190.0358 1195.5602
1223.5072 0.000817 1190.4043 1196.0367
1213.8851 0.000824 1190.7728 1196.5758
1190.8342 0.000840 1191.1413 1197.1975
1235.9662 0.000809 1191.5097 1197.9285
1264.7924 0.000791 1191.8782 1198.3665
1223.0527 0.000818 1192.2467 1199.4321
1229.0419 0.000814 1192.6152 1200.7281
1292.8059 0.000774 1192.9837 1202.3025
1191.9078 0.000839 1193.3521 1204.2003
1270.5844 0.000787 1193.7206 1206.4559
1243.0088 0.000804 1194.0891 1209.0853
1296.5715 0.000771 1194.4576 1212.0766
1277.8872 0.000783 1194.8260 1215.3768
1281.2595 0.000780 1195.1945 1218.8774
1280.2169 0.000781 1195.5630 1222.3968
1301.3331 0.000768 1195.9315 1225.6760
1338.5622 0.000747 1196.3000 1228.4108
1262.5978 0.000792 1196.6684 1230.3392
1223.8121 0.000817 1197.0369 1231.3448
1344.7048 0.000744 1197.4054 1231.4897
1317.3478 0.000759 1197.7739 1230.9397
1287.4327 0.000777 1198.1423 1229.8569
1268.3365 0.000788 1198.5108 1228.3539
1292.8933 0.000773 1198.8793 1226.5248
1278.8380 0.000782 1199.2478 1224.5009
1256.1697 0.000796 1199.6163 1222.4646
1249.5619 0.000800 1199.9847 1220.6130
1318.4049 0.000758 1200.3192 1219.0802
1295.8327 0.000772 1200.6536 1218.0175
1248.2759 0.000801 1200.9880 1217.4919
1284.2910 0.000779 1201.3225 1217.5268
1254.7683 0.000797 1201.6569 1218.1089
1328.9765 0.000752 1201.9913 1219.1897
1258.2347 0.000795 1202.3258 1220.6835
1277.2030 0.000783 1202.6602 1222.4601
1272.3030 0.000786 1202.9946 1224.3389
1334.9607 0.000749 1203.3291 1226.0941
1232.6077 0.000811 1203.6635 1227.4915
1279.3368 0.000782 1203.9979 1228.3581
1271.7298 0.000786 1204.3324 1228.6411
1237.4025 0.000808 1204.6668 1228.4015
1314.5874 0.000761 1205.0012 1227.7459
1234.1653 0.000810 1205.3357 1226.7602
1247.0083 0.000802 1205.6701 1225.4974
1174.6637 0.000851 1206.0045 1224.0087
1217.4695 0.000821 1206.3389 1222.3758
1234.4184 0.000810 1206.6734 1220.7081
1223.7514 0.000817 1207.0078 1219.1136
1247.4265 0.000802 1207.3422 1217.6733
1210.1027 0.000826 1207.6767 1216.4340
1260.2507 0.000793 1208.0111 1215.4131
1198.3061 0.000835 1208.3455 1214.6078
1233.3088 0.000811 1208.6800 1214.0025
1173.1916 0.000852 1209.0144 1213.5746
1174.1893 0.000852 1209.3488 1213.2980
1212.0669 0.000825 1209.6833 1213.1466
1217.8822 0.000821 1210.0177 1215.1465
1246.5177 0.000802 1210.3521 1215.2069
1228.6802 0.000814 1210.6866 1215.3284
1232.5716 0.000811 1211.0210 1215.4964
1302.8833 0.000768 1211.3554 1215.6994
1224.1725 0.000817 1211.6899 1215.9290
1229.8815 0.000813 1212.0243 1217.2024
1255.4546 0.000797 1212.3587 1217.4848
1211.4817 0.000825 1212.6932 1217.7805
1227.7280 0.000815 1213.0276 1218.0872
1248.5386 0.000801 1213.3620 1219.6050
1227.9971 0.000814 1213.6965 1219.9485
1187.1134 0.000842 1214.0309 1220.2999
1234.8355 0.000810 1214.3354 1220.6286
1237.9321 0.000808 1214.6399 1220.9639
1218.6905 0.000821 1214.9444 1221.3055
1223.5777 0.000817 1215.2489 1221.6529
1221.8615 0.000818 1215.5535 1222.6147
1203.9090 0.000831 1215.8580 1222.6832
1230.0645 0.000813 1216.1625 1223.0614
1178.8319 0.000848 1216.4670 1223.4446
1194.7870 0.000837 1216.7715 1223.8329
1248.9195 0.000801 1217.0760 1224.2261
1236.7136 0.000809 1217.3806 1224.4734
1215.2691 0.000823 1217.6851 1224.8788
1229.5308 0.000813 1217.9896 1225.2890
1253.3313 0.000798 1218.2941 1225.7040
1228.8750 0.000814 1218.5986 1226.1238
1295.6331 0.000772 1218.9031 1226.5486
1284.7709 0.000778 1219.2076 1226.9783
1231.7304 0.000812 1219.5122 1227.4131
1210.0329 0.000826 1219.8167 1227.8530
1202.8357 0.000831 1220.1212 1228.2982
1212.7533 0.000825 1220.4257 1228.7488
1283.4269 0.000779 1220.7302 1229.2050
1277.3262 0.000783 1221.0347 1229.6668
1258.2665 0.000795 1221.3393 1230.1345
1276.7402 0.000783 1221.6438 1230.6083
1289.3901 0.000776 1221.9483 1231.0883
1282.2203 0.000780 1222.2528 1231.5748
1210.7310 0.000826 1222.5573 1232.0680
1194.0805 0.000837 1222.8618 1232.5681
1208.6735 0.000827 1223.1663 1233.0755
1239.9167 0.000807 1223.4709 1233.5904
1263.2682 0.000792 1223.7754 1234.1131
1256.1318 0.000796 1224.0799 1234.6440
1241.4632 0.000806 1224.3844 1235.1833
1249.4261 0.000800 1224.6889 1235.7316
1278.7968 0.000782 1224.9934 1236.2891
1296.8380 0.000771 1225.2980 1236.8563
1253.4880 0.000798 1225.6025 1237.4336
1222.8534 0.000818 1225.9070 1238.0215
1262.2837 0.000792 1226.2115 1238.6206
1245.8064 0.000803 1226.5160 1239.2314
1203.3050 0.000831 1226.8205 1239.8545
1217.3062 0.000821 1227.0918 1240.4571
1257.1994 0.000795 1227.3630 1241.0734
1302.7385 0.000768 1227.6342 1241.7039
1252.2887 0.000799 1227.9055 1242.3494
1275.0639 0.000784 1228.1767 1243.0109
1291.7048 0.000774 1228.4479 1243.6890
1255.8009 0.000796 1228.7192 1244.3849
1217.4411 0.000821 1228.9904 1245.0994
1240.5121 0.000806 1229.2617 1245.8338
1244.3064 0.000804 1229.5329 1246.5890
1253.4207 0.000798 1229.8041 1247.3665
1272.8264 0.000786 1230.0754 1248.1676
1277.2013 0.000783 1230.3466 1248.9936
1233.7511 0.000811 1230.6178 1250.1421
1250.4326 0.000800 1230.8891 1251.0277
1237.5535 0.000808 1231.1603 1251.9436
1240.6272 0.000806 1231.4315 1252.8918
1257.5399 0.000795 1231.7028 1253.8745
1245.9846 0.000803 1231.9740 1254.8939
1245.0736 0.000803 1232.2452 1255.9528
1275.8052 0.000784 1232.5165 1257.2033
1244.1054 0.000804 1232.7877 1258.8747
1227.2357 0.000815 1233.0590 1260.0804
1263.5657 0.000791 1233.3302 1261.3385
1284.6860 0.000778 1233.6014 1262.6533
1281.0770 0.000781 1233.8727 1264.0290
1228.8126 0.000814 1234.1439 1265.4706
1249.0592 0.000801 1234.4151 1267.2433
1264.5459 0.000791 1234.6864 1268.8374
1281.4231 0.000780 1234.9576 1270.5152
1309.6845 0.000764 1235.2288 1272.2842
1300.4010 0.000769 1235.5001 1274.1524
1278.0353 0.000782 1235.7713 1276.0986
1268.3566 0.000788 1236.0425 1278.1938
1274.1676 0.000785 1236.3138 1280.4185
1240.4101 0.000806 1236.5850 1282.7855
1249.1697 0.000801 1236.8563 1285.3089
1270.7202 0.000787 1237.1275 1288.0050
1255.2189 0.000797 1237.3987 1290.8769
1286.4138 0.000777 1237.6700 1293.9756
1323.7848 0.000755 1237.9412 1297.3094
1269.8754 0.000787 1238.2124 1300.9053
1271.1791 0.000787 1238.4837 1304.7944
1321.4821 0.000757 1238.7549 1309.0125
1316.8782 0.000759 1239.0261 1313.6013
1310.4372 0.000763 1239.2974 1318.6095
1310.5494 0.000763 1239.5686 1324.0951
1345.9688 0.000743 1239.8398 1330.1283
1331.0775 0.000751 1240.1111 1336.7957
1307.0825 0.000765 1240.3823 1344.2080
1342.4785 0.000745 1240.6536 1352.5112
1374.3719 0.000728 1240.9248 1361.9044
1388.5552 0.000720 1241.1960 1372.6668
1376.1408 0.000727 1241.4673 1385.1756
1388.5182 0.000720 1241.7385 1400.0411
1437.6941 0.000696 1242.0097 1418.0476
1488.2604 0.000672 1242.2810 1440.3122
1525.4157 0.000656 1242.5522 1468.3383
1530.9651 0.000653 1242.8234 1504.0717
1596.0295 0.000627 1243.0947 1549.9059
1688.9778 0.000592 1243.3659 1608.6718
1738.4671 0.000575 1243.6371 1683.4333
1820.8414 0.000549 1243.9084 1777.2855
1940.6439 0.000515 1244.1796 1893.0003
2104.7417 0.000475 1244.4509 2032.5992
2255.9064 0.000443 1244.7221 2196.8520
2469.2330 0.000405 1244.9933 2384.6797
2675.8449 0.000374 1245.2646 2592.3970
2826.0607 0.000354 1245.5358 2812.7510
3029.7290 0.000330 1245.8070 3034.0168
3222.1776 0.000310 1246.0783 3240.1496
3384.9746 0.000295 1246.3495 3413.6500
3531.2166 0.000283 1246.6207 3541.5850
3663.4531 0.000273 1246.8920 3621.3840
3690.5649 0.000271 1247.1632 3661.0719
3717.6788 0.000269 1247.4344 3673.2032
3768.1838 0.000265 1247.7057 3667.7529
3786.5729 0.000264 1247.9769 3649.0484
3777.0861 0.000265 1248.2482 3617.4078
3829.9579 0.000261 1248.5194 3572.4477
3833.4963 0.000261 1248.7906 3514.3414
3685.4309 0.000271 1249.0619 3442.4523
3593.9305 0.000278 1249.3331 3354.4920
3466.6754 0.000288 1249.6043 3248.6054
3384.3662 0.000295 1249.8423 3126.4210
3274.8712 0.000305 1250.0802 2993.4525
3084.5409 0.000324 1250.3182 2856.0048
2947.3008 0.000339 1250.5562 2718.0014
2791.3374 0.000358 1250.7941 2580.2520
2661.5431 0.000376 1251.0321 2442.2905
2452.8918 0.000408 1251.2700 2304.8669
2311.5814 0.000433 1251.5080 2170.8958
2177.5140 0.000459 1251.7459 2044.4088
1998.7964 0.000500 1251.9839 1928.9306
1868.1136 0.000535 1252.2218 1826.5949
1794.8360 0.000557 1252.4598 1738.1232
1725.9575 0.000579 1252.6978 1663.1930
1648.5148 0.000607 1252.9357 1600.8266
1626.1562 0.000615 1253.1737 1549.6821
1565.9996 0.000639 1253.4116 1508.2510
1510.3891 0.000662 1253.6496 1474.9954
1513.6430 0.000661 1253.8875 1448.4469
1486.5374 0.000673 1254.1255 1427.2759
1455.5775 0.000687 1254.3635 1410.3329
1465.9059 0.000682 1254.6014 1396.6659
1478.6386 0.000676 1254.8394 1385.5164
1454.0258 0.000688 1255.0773 1376.3001
1397.6768 0.000715 1255.3153 1368.5801
1411.2448 0.000709 1255.5532 1362.0368
1379.0029 0.000725 1255.7912 1356.4396
1340.2236 0.000746 1256.0291 1351.6233
1377.4375 0.000726 1256.2671 1347.4688
1393.6592 0.000718 1256.5051 1343.8899
1385.6348 0.000722 1256.7430 1340.8229
1368.4004 0.000731 1256.9810 1338.2206
1347.8750 0.000742 1257.2189 1336.0482
1406.0471 0.000711 1257.4569 1334.2806
1387.4077 0.000721 1257.6948 1332.9015
1376.2183 0.000727 1257.9328 1331.9030
1344.1080 0.000744 1258.1707 1331.2863
1377.1926 0.000726 1258.4087 1331.0638
1353.6456 0.000739 1258.6467 1331.2617
1354.4818 0.000738 1258.8846 1331.9258
1338.4786 0.000747 1259.1226 1333.1279
1323.8470 0.000755 1259.3605 1334.9758
1288.2118 0.000776 1259.5985 1337.6239
1368.2999 0.000731 1259.7998 1341.2498
1397.8955 0.000715 1260.0011 1346.1750
1385.8948 0.000722 1260.2024 1352.7644
1396.1590 0.000716 1260.4037 1361.4640
1371.1420 0.000729 1260.6051 1372.7949
1423.7168 0.000702 1260.8064 1387.3344
1483.5809 0.000674 1261.0077 1405.6861
1460.3831 0.000685 1261.2090 1428.4383
1498.5998 0.000667 1261.4103 1456.1093
1514.2341 0.000660 1261.6116 1489.0734
1582.9549 0.000632 1261.8129 1527.4548
1584.2821 0.000631 1262.0143 1570.9733
1634.9174 0.000612 1262.2156 1618.7560
1694.0366 0.000590 1262.4169 1669.2168
1772.8063 0.000564 1262.6182 1720.2246
1884.3387 0.000531 1262.8195 1769.7268
1844.3707 0.000542 1263.0208 1816.5526
1893.8479 0.000528 1263.2221 1860.6360
1958.8122 0.000511 1263.4235 1902.2336
1957.7760 0.000511 1263.6248 1940.6441
2030.7667 0.000492 1263.8261 1973.3563
2006.5660 0.000498 1264.0274 1996.2728
2046.6656 0.000489 1264.2287 2005.1786
2106.2074 0.000475 1264.4300 1997.8383
2025.0308 0.000494 1264.6313 1975.2535
2001.3111 0.000500 1264.8326 1940.9841
1995.3685 0.000501 1265.0340 1899.1446
1954.0654 0.000512 1265.2353 1852.7029
1853.5567 0.000540 1265.4366 1803.0733
1820.9075 0.000549 1265.6379 1750.8741
1711.9466 0.000584 1265.8392 1697.0148
1722.2043 0.000581 1266.0405 1643.1854
1713.3265 0.000584 1266.2418 1591.4867
1634.9586 0.000612 1266.4432 1543.7538
1619.4855 0.000617 1266.6445 1501.1590
1559.9819 0.000641 1266.8458 1464.1934
1498.1961 0.000667 1267.0471 1432.8517
1477.5148 0.000677 1267.2484 1406.7518
1428.0833 0.000700 1267.4497 1385.3772
1377.4241 0.000726 1267.6510 1368.1067
1367.2722 0.000731 1267.8524 1354.2972
1421.9437 0.000703 1268.0537 1343.3285
1417.6066 0.000705 1268.2097 1334.5899
1417.4797 0.000705 1268.3657 1327.6432
1341.2823 0.000746 1268.5217 1322.0619
1400.3131 0.000714 1268.6778 1317.5259
1322.4867 0.000756 1268.8338 1313.7811
1308.6914 0.000764 1268.9898 1310.6365
1345.1587 0.000743 1269.1458 1307.9520
1327.7535 0.000753 1269.3018 1305.6263
1275.8250 0.000784 1269.4579 1303.5865
1345.7505 0.000743 1269.6139 1301.7798
1320.7211 0.000757 1269.7699 1300.1676
1355.1842 0.000738 1269.9259 1298.7205
1310.6927 0.000763 1270.0819 1297.4372
1273.1409 0.000785 1270.2380 1296.2572
1285.2710 0.000778 1270.3940 1295.1867
1254.5961 0.000797 1270.5500 1294.2132
1269.1506 0.000788 1270.7060 1293.3262
1270.2501 0.000787 1270.8621 1292.5165
1305.3220 0.000766 1271.0181 1291.7762
1278.6612 0.000782 1271.1741 1291.1092
1265.2457 0.000790 1271.3301 1290.4882
1307.5631 0.000765 1271.4861 1289.9185
1236.3079 0.000809 1271.6422 1289.3954
1324.3307 0.000755 1271.7982 1288.9148
1295.6881 0.000772 1271.9542 1288.4729
1325.1809 0.000755 1272.1102 1288.0716
1284.8647 0.000778 1272.2662 1287.6979
1260.5175 0.000793 1272.4223 1287.3541
1316.7140 0.000759 1272.5783 1287.0379
1289.0382 0.000776 1272.7343 1286.7471
1287.3559 0.000777 1272.8903 1286.4800
1331.6444 0.000751 1273.0464 1286.2346
1245.4371 0.000803 1273.2024 1284.0167
1286.8241 0.000777 1273.3584 1283.8411
1212.6185 0.000825 1273.5144 1283.6824
1235.4562 0.000809 1273.6704 1283.5394
1218.9944 0.000820 1273.8265 1283.4109
1306.2707 0.000766 1273.9825 1283.2962
1250.6333 0.000800 1274.1385 1282.1945
1313.9621 0.000761 1274.2945 1282.1198
1319.4972 0.000758 1274.4505 1282.0560
1253.5510 0.000798 1274.6066 1282.0023
1247.8557 0.000801 1274.7971 1281.9927
1249.9614 0.000800 1274.9876 1280.8099
1302.7995 0.000768 1275.1781 1280.8425
1298.6526 0.000770 1275.3686 1280.8761
1277.8932 0.000783 1275.5591 1280.9168
1265.2352 0.000790 1275.7495 1280.9643
1331.6523 0.000751 1275.9400 1281.0180
1308.1977 0.000764 1276.1305 1280.4853
1296.2867 0.000771 1276.3210 1280.5598
1334.7150 0.000749 1276.5115 1280.6428
1254.7296 0.000797 1276.7020 1280.7274
1348.4778 0.000742 1276.8925 1280.8166
1227.8498 0.000814 1277.0830 1280.9103
1294.9508 0.000772 1277.2735 1281.0081
1269.8444 0.000787 1277.4640 1281.1099
1319.6826 0.000758 1277.6545 1281.2155
1280.5303 0.000781 1277.8450 1281.3247
1298.5895 0.000770 1278.0355 1281.4373
1317.5875 0.000759 1278.2260 1281.5533
1221.9739 0.000818 1278.4165 1281.6724
1311.6431 0.000762 1278.6070 1281.7945
1293.6769 0.000773 1278.7975 1281.9195
1334.0586 0.000750 1278.9880 1282.0473
1264.2778 0.000791 1279.1785 1282.1778
1198.0973 0.000835 1279.3690 1282.3109
1209.9891 0.000826 1279.5595 1282.4465
1208.2357 0.000828 1279.7500 1282.5846
1292.9960 0.000773 1279.9405 1282.7249
1254.1000 0.000797 1280.1310 1282.9831
1262.9529 0.000792 1280.3215 1283.1298
1295.7392 0.000772 1280.5120 1283.2787
1303.9154 0.000767 1280.7025 1283.4297
1248.7415 0.000801 1280.8930 1283.5829
1251.9364 0.000799 1281.0834 1283.7382
1265.7399 0.000790 1281.2739 1283.8955
1292.4263 0.000774 1281.4644 1284.3455
1277.3827 0.000783 1281.6549 1284.5114
1303.2822 0.000767 1281.8454 1284.6795
1289.4388 0.000776 1282.0359 1284.8497
1299.6488 0.000769 1282.2264 1285.0221
1316.4119 0.000760 1282.4169 1285.1967
1292.9316 0.000773 1282.6074 1285.3735
1291.0399 0.000775 1282.7979 1285.6689
1274.7242 0.000784 1282.9884 1285.8521
1252.0412 0.000799 1283.1789 1286.0378
1300.5072 0.000769 1283.3694 1286.2259
1206.1619 0.000829 1283.5599 1286.4167
1270.1108 0.000787 1283.7504 1286.6103
1257.9511 0.000795 1283.9409 1286.8067
1243.8206 0.000804 1284.1314 1287.1534
1321.8522 0.000757 1284.3219 1287.3584
1250.2441 0.000800 1284.5124 1287.5669
1273.0014 0.000786 1284.7029 1287.7791
1261.0394 0.000793 1284.8934 1287.9955
1203.3895 0.000831 1285.0839 1288.2162
1297.0894 0.000771 1285.2744 1288.4419
1259.7876 0.000794 1285.4649 1288.7464
1230.2390 0.000813 1285.6554 1288.9845
1261.0251 0.000793 1285.8459 1289.2295
1340.8345 0.000746 1286.0364 1289.4824
1308.7828 0.000764 1286.2268 1289.4536
1358.6521 0.000736 1286.4173 1289.7314
1330.4525 0.000752 1286.6078 1290.0230
1279.9910 0.000781 1286.7983 1290.3324
1296.6324 0.000771 1286.9888 1290.6650
1286.4185 0.000777 1287.1793 1291.0285
1294.8561 0.000772 1287.3698 1291.2871
1283.4932 0.000779 1287.5603 1291.2360
1311.3923 0.000763 1287.7508 1291.7771
1276.8157 0.000783 1287.9413 1292.4097
1284.3947 0.000779 1288.1318 1293.1561
1233.0399 0.000811 1288.3223 1294.0398
1295.5199 0.000772 1288.5128 1295.8448
1347.1118 0.000742 1288.7033 1297.0755
1279.5285 0.000782 1288.8938 1298.2383
1280.3359 0.000781 1289.0843 1299.8419
1283.7386 0.000779 1289.2748 1301.6083
1306.5330 0.000765 1289.4653 1303.4941
1306.5441 0.000765 1289.6558 1305.4246
1247.4305 0.000802 1289.8463 1307.6700
1275.7805 0.000784 1290.0368 1309.3371
1293.9837 0.000773 1290.2273 1310.6651
1291.7335 0.000774 1290.4178 1311.5725
1269.7340 0.000788 1290.6083 1312.0681
1316.0303 0.000760 1290.7489 1312.1898
1310.6299 0.000763 1290.8896 1312.1042
1338.3348 0.000747 1291.0302 1311.9077
1294.4421 0.000773 1291.1709 1311.6596
1287.5119 0.000777 1291.3115 1311.3967
1353.1008 0.000739 1291.4522 1311.1633
1349.3609 0.000741 1291.5928 1311.0304
1295.4134 0.000772 1291.7335 1311.0877
1348.6497 0.000741 1291.8741 1311.4181
1339.7533 0.000746 1292.0148 1312.0750
1359.6384 0.000735 1292.1555 1313.0703
1261.0362 0.000793 1292.2961 1314.3704
1339.1770 0.000747 1292.4368 1315.8916
1314.0168 0.000761 1292.5774 1317.4978
1378.3863 0.000725 1292.7181 1319.0079
1297.4318 0.000771 1292.8587 1320.2301
1341.6425 0.000745 1292.9994 1321.0232
1367.6312 0.000731 1293.1400 1321.3519
1322.0042 0.000756 1293.2807 1321.2871
1365.0110 0.000733 1293.4213 1320.9498
1362.3136 0.000734 1293.5620 1320.4429
1344.5373 0.000744 1293.7026 1319.8180
1393.8800 0.000717 1293.8433 1319.0840
1354.5123 0.000738 1293.9839 1318.2438
1325.1056 0.000755 1294.1246 1317.3257
1323.3437 0.000756 1294.2653 1316.3848
1357.4788 0.000737 1294.4059 1315.4780
1330.5323 0.000752 1294.5466 1314.6387
1300.6690 0.000769 1294.6872 1313.8716
1329.6757 0.000752 1294.8279 1313.1679
1349.9827 0.000741 1294.9685 1312.5255
1339.9910 0.000746 1295.1092 1311.9565
1343.6256 0.000744 1295.2498 1311.4801
1321.6834 0.000757 1295.3905 1311.1095
1292.7977 0.000774 1295.5311 1310.9611
1283.7363 0.000779 1295.6718 1310.7969
1258.9396 0.000794 1295.8124 1310.7229
1298.9500 0.000770 1295.9531 1310.7406
1334.4103 0.000749 1296.0937 1310.8629
1285.2090 0.000778 1296.2344 1311.1087
1353.4630 0.000739 1296.3751 1311.4943
1285.0353 0.000778 1296.5157 1312.0293
1268.3968 0.000788 1296.7474 1312.8632
1266.9348 0.000789 1296.9791 1313.7786
1311.4848 0.000762 1297.2108 1314.8110
1339.9180 0.000746 1297.4426 1315.9244
1267.8543 0.000789 1297.6743 1317.0690
1257.7857 0.000795 1297.9060 1318.1862
1311.0710 0.000763 1298.1377 1319.2247
1264.4529 0.000791 1298.3694 1320.1598
1286.8729 0.000777 1298.6011 1321.0038
1276.8140 0.000783 1298.8328 1321.7963
1256.4898 0.000796 1299.0645 1322.5832
1294.6844 0.000772 1299.2962 1323.4013
1301.4423 0.000768 1299.5280 1324.2760
1346.0824 0.000743 1299.7597 1325.2307
1380.9702 0.000724 1299.9914 1326.3022
1311.1536 0.000763 1300.2231 1327.5511
1321.6697 0.000757 1300.4548 1329.0625
1331.3330 0.000751 1300.6865 1330.9424
1303.6137 0.000767 1300.9182 1333.3155
1305.3329 0.000766 1301.1499 1336.3268
1356.0446 0.000737 1301.3817 1340.1449
1329.4123 0.000752 1301.6134 1344.9624
1338.1492 0.000747 1301.8451 1350.9936
1397.5161 0.000716 1302.0768 1358.4671
1365.2546 0.000732 1302.3085 1367.6143
1368.4425 0.000731 1302.5402 1378.6538
1407.6597 0.000710 1302.7719 1391.7695
1479.7430 0.000676 1303.0036 1407.0790
1441.2413 0.000694 1303.2353 1424.5858
1500.1616 0.000667 1303.4671 1444.1146
1566.7067 0.000638 1303.6988 1465.2479
1508.7271 0.000663 1303.9305 1487.3240
1536.0952 0.000651 1304.1622 1509.5764
1585.5471 0.000631 1304.3939 1531.4087
1655.2871 0.000604 1304.6256 1552.6081
1689.6425 0.000592 1304.8573 1573.2498
1689.3602 0.000592 1305.0890 1593.2918
1638.6675 0.000610 1305.3207 1612.1322
1687.4031 0.000593 1305.5525 1628.4268
1732.0000 0.000577 1305.7842 1640.3663
1741.4367 0.000574 1306.0159 1646.4272
1748.2529 0.000572 1306.2476 1646.2274
1725.9203 0.000579 1306.4336 1640.7776
1668.5225 0.000599 1306.6196 1632.0809
1667.9744 0.000600 1306.8057 1622.0901
1681.5369 0.000595 1306.9917 1612.1152
1689.1965 0.000592 1307.1777 1602.7051
1654.1011 0.000605 1307.3637 1593.9432
1587.2800 0.000630 1307.5497 1585.8770
1583.3884 0.000632 1307.7357 1578.7427
1606.4339 0.000622 1307.9218 1572.8189
1638.9890 0.000610 1308.1078 1568.0904
1649.2379 0.000606 1308.2938 1564.0389
1648.7553 0.000607 1308.4798 1559.7563
1607.0272 0.000622 1308.6658 1554.3651
1575.4109 0.000635 1308.8519 1547.4968
1557.4077 0.000642 1309.0379 1539.4614
1562.5122 0.000640 1309.2239 1530.9896
1560.4732 0.000641 1309.4099 1522.8058
1606.1051 0.000623 1309.5959 1515.3613
1602.0928 0.000624 1309.7819 1508.8513
1567.8539 0.000638 1309.9680 1503.4543
1607.4981 0.000622 1310.1540 1499.6304
1624.9423 0.000615 1310.3400 1498.2706
1599.1784 0.000625 1310.5260 1500.6127
1584.1881 0.000631 1310.7120 1508.0314
1584.2389 0.000631 1310.8981 1521.8531
1633.9064 0.000612 1311.0841 1543.2384
1686.9683 0.000593 1311.2701 1573.0944
1692.3794 0.000591 1311.4561 1611.9741
1720.4917 0.000581 1311.6421 1659.9473
1755.1029 0.000570 1311.8282 1716.4350
1874.6346 0.000533 1312.0142 1779.9918
1982.9849 0.000504 1312.2002 1848.0221
2014.4580 0.000496 1312.3862 1916.4799
2076.9987 0.000481 1312.5722 1979.7956
2049.9043 0.000488 1312.7582 2031.5163
2032.8378 0.000492 1312.9443 2066.0072
2053.6969 0.000487 1313.1303 2080.6081
2073.6015 0.000482 1313.3163 2076.6150
2089.3741 0.000479 1313.5023 2058.1028
2055.7323 0.000486 1313.6883 2029.5428
2024.0746 0.000494 1313.8744 1993.9488
2009.4283 0.000498 1314.0604 1952.4200
1984.4862 0.000504 1314.2464 1904.9561
1883.5946 0.000531 1314.4324 1851.8551
1820.1648 0.000549 1314.6184 1794.6600
1778.6035 0.000562 1314.8044 1736.0890
1706.4629 0.000586 1314.9905 1679.0416
1688.4983 0.000592 1315.1765 1625.8562
1675.1214 0.000597 1315.3625 1577.9955
1622.0534 0.000617 1315.5485 1536.1344
1581.5097 0.000632 1315.7345 1500.3769
1557.1048 0.000642 1315.9206 1470.4455
1548.4896 0.000646 1316.1066 1445.8571
1541.8840 0.000649 1316.2926 1425.9744
1485.3024 0.000673 1316.4786 1410.1129
1440.5525 0.000694 1316.6646 1397.5899
1446.0239 0.000692 1316.8507 1387.7672
1434.3999 0.000697 1317.0367 1380.0801
1410.7244 0.000709 1317.2227 1374.0531
1405.3478 0.000712 1317.4087 1369.3032
1415.0636 0.000707 1317.5947 1365.5351
1413.6617 0.000707 1317.7807 1362.5309
1370.0000 0.000730 1317.9668 1360.1167
1390.9589 0.000719 1318.1528 1358.2355
1393.8049 0.000717 1318.3388 1356.8106
1377.8070 0.000726 1318.5248 1355.8240
1407.1144 0.000711 1318.7108 1355.2910
1446.1330 0.000691 1318.8969 1355.2580
1404.0996 0.000712 1319.0829 1355.8008
1359.6861 0.000735 1319.2689 1357.0110
1374.4812 0.000728 1319.4549 1359.0325
1363.8736 0.000733 1319.6409 1361.9890
1400.6627 0.000714 1319.8269 1366.0122
1397.4341 0.000716 1320.0130 1371.2132
1402.5898 0.000713 1320.1990 1377.6609
1414.5205 0.000707 1320.3850 1385.3568
1430.2651 0.000699 1320.5710 1394.2015
1422.2548 0.000703 1320.7570 1403.9784
1431.4807 0.000699 1320.9431 1414.2781
1442.0000 0.000693 1321.1291 1424.4751
1445.6923 0.000692 1321.3151 1433.7213
1467.7111 0.000681 1321.5011 1441.0622
1500.0984 0.000667 1321.6871 1445.7072
1481.8313 0.000675 1321.8731 1447.3527
1429.8076 0.000699 1322.0135 1446.2283
1417.8093 0.000705 1322.1538 1443.0335
1431.7697 0.000698 1322.2941 1438.4400
1459.9157 0.000685 1322.4345 1432.8797
1448.4993 0.000690 1322.5748 1426.4934
1421.3862 0.000704 1322.7151 1419.2596
1407.0409 0.000711 1322.8554 1411.2035
1405.4729 0.000712 1322.9958 1402.5418
1419.6845 0.000704 1323.1361 1393.6650
1394.6423 0.000717 1323.2764 1385.0045
1400.5759 0.000714 1323.4167 1376.9103
1379.1107 0.000725 1323.5571 1369.5981
1397.9074 0.000715 1323.6974 1363.1860
1401.0933 0.000714 1323.8377 1357.6870
1353.4645 0.000739 1323.9780 1353.0643
1351.1573 0.000740 1324.1184 1349.2462
1359.2825 0.000736 1324.2587 1346.1405
1365.2290 0.000732 1324.3990 1343.6463
1363.0546 0.000734 1324.5393 1341.6582
1370.9308 0.000729 1324.6797 1340.0869
1347.7261 0.000742 1324.8200 1338.8434
1322.5061 0.000756 1324.9603 1337.8548
1399.0226 0.000715 1325.1006 1337.0617
1379.6938 0.000725 1325.2410 1337.3300
1329.9474 0.000752 1325.3813 1336.8129
1348.9498 0.000741 1325.5216 1336.3833
1396.5473 0.000716 1325.6619 1336.0221
1354.9302 0.000738 1325.8023 1335.7156
1351.3055 0.000740 1325.9426 1335.4537
1336.9876 0.000748 1326.0829 1335.2292
1351.9293 0.000740 1326.2232 1335.0366
1332.6632 0.000750 1326.3636 1335.3293
1329.9960 0.000752 1326.5039 1335.1957
1325.0302 0.000755 1326.6442 1335.0840
1287.5598 0.000777 1326.7845 1334.9919
1349.4493 0.000741 1326.9249 1334.9174
1343.7706 0.000744 1327.0652 1334.8590
1318.3008 0.000759 1327.2055 1334.8150
1332.4171 0.000751 1327.3458 1334.6707
1365.7729 0.000732 1327.4862 1334.6540
1356.8231 0.000737 1327.6265 1334.6486
1307.5909 0.000765 1327.7668 1335.3742
1292.5983 0.000774 1328.0818 1335.5742
1350.1771 0.000741 1328.3967 1335.7834
1320.1786 0.000757 1328.7117 1336.0012
1316.9127 0.000759 1329.0266 1336.1701
1325.8928 0.000754 1329.3416 1336.1755
1331.2241 0.000751 1329.6566 1336.4203
1375.8034 0.000727 1329.9715 1336.6718
1398.8304 0.000715 1330.2865 1337.2908
1304.0484 0.000767 1330.6014 1337.5602
1330.8442 0.000751 1330.9164 1337.8355
1347.9965 0.000742 1331.2314 1338.1166
1367.0288 0.000732 1331.5463 1338.2886
1317.3582 0.000759 1331.8613 1338.5821
1306.0891 0.000766 1332.1762 1338.8808
1315.9935 0.000760 1332.4912 1339.1844
1296.0229 0.000772 1332.8061 1339.4929
1365.2030 0.000732 1333.1211 1339.8061
1359.8945 0.000735 1333.4361 1340.1240
1338.0425 0.000747 1333.7510 1340.3024
1384.5013 0.000722 1334.0660 1340.6316
1362.0405 0.000734 1334.3809 1340.9652
1329.5199 0.000752 1334.6959 1342.1348
1310.2876 0.000763 1335.0109 1342.4898
1325.0090 0.000755 1335.3258 1342.8494
1340.2864 0.000746 1335.6408 1343.2138
1344.6590 0.000744 1335.9557 1345.2086
1450.8614 0.000689 1336.2707 1345.6090
1378.9977 0.000725 1336.5856 1346.0148
1332.8933 0.000750 1336.9006 1346.4261
1354.3613 0.000738 1337.2156 1347.2590
1348.7477 0.000741 1337.5305 1347.6877
1293.7416 0.000773 1337.8455 1348.1223
1347.1606 0.000742 1338.1604 1348.5630
1338.3810 0.000747 1338.4754 1349.8593
1355.5403 0.000738 1338.7904 1350.3253
1319.8356 0.000758 1339.1053 1350.7981
1321.6990 0.000757 1339.4203 1351.2779
1348.8676 0.000741 1339.7352 1351.7650
1342.8836 0.000745 1340.0502 1352.2596
1344.4187 0.000744 1340.3652 1352.7619
1365.0482 0.000733 1340.6801 1353.2723
1332.0269 0.000751 1340.9951 1353.0398
1344.7723 0.000744 1341.2689 1353.5371
1351.9537 0.000740 1341.5427 1354.0432
1401.5866 0.000713 1341.8166 1354.5583
1350.0384 0.000741 1342.0904 1355.0829
1385.6116 0.000722 1342.3642 1355.6173
1342.3751 0.000745 1342.6380 1356.1621
1357.5096 0.000737 1342.9119 1356.3413
1323.0145 0.000756 1343.1857 1356.9139
1344.6088 0.000744 1343.4595 1357.4982
1320.7518 0.000757 1343.7333 1358.0949
1352.2565 0.000740 1344.0072 1358.7046
1344.9335 0.000744 1344.2810 1359.3279
1337.1784 0.000748 1344.5548 1359.9656
1391.5283 0.000719 1344.8287 1360.6186
1354.7604 0.000738 1345.1025 1361.2875
1372.8121 0.000728 1345.3763 1361.9734
1370.4372 0.000730 1345.6501 1362.6773
1332.5711 0.000750 1345.9240 1363.4001
1402.1047 0.000713 1346.1978 1364.1430
1352.8623 0.000739 1346.4716 1364.9073
1373.3354 0.000728 1346.7455 1365.6943
1287.7690 0.000777 1347.0193 1366.5055
1390.9834 0.000719 1347.2931 1367.3424
1445.4342 0.000692 1347.5669 1368.2068
1345.6778 0.000743 1347.8408 1369.1005
1388.9355 0.000720 1348.1146 1370.0255
1371.6820 0.000729 1348.3884 1370.9842
1368.7934 0.000731 1348.6623 1371.9789
1369.6170 0.000730 1348.9361 1373.1971
1399.0750 0.000715 1349.2099 1374.2749
1447.4701 0.000691 1349.4837 1375.3977
1373.8691 0.000728 1349.7576 1376.5691
1359.9282 0.000735 1350.0314 1377.7930
1426.2457 0.000701 1350.3052 1379.0739
1391.8244 0.000718 1350.5790 1380.4166
1435.3931 0.000697 1350.8529 1381.8265
1342.9651 0.000745 1351.1267 1383.4020
1386.9309 0.000721 1351.4005 1384.9669
1363.7751 0.000733 1351.6744 1386.6196
1383.9325 0.000723 1351.9482 1388.3689
1362.0096 0.000734 1352.2220 1390.2245
1427.0320 0.000701 1352.4958 1392.1975
1387.4049 0.000721 1352.7275 1394.2585
1422.1513 0.000703 1352.9592 1396.4641
1408.4785 0.000710 1353.1909 1398.8311
1396.7937 0.000716 1353.4226 1401.3791
1346.2089 0.000743 1353.6543 1404.1313
1423.1487 0.000703 1353.8860 1407.0023
1445.9455 0.000692 1354.1177 1410.2551
1465.1784 0.000683 1354.3494 1413.8186
1468.2452 0.000681 1354.5810 1417.7507
1451.1963 0.000689 1354.8127 1422.1297
1457.5737 0.000686 1355.0444 1427.0641
1495.7089 0.000669 1355.2761 1432.7063
1404.0319 0.000712 1355.5078 1439.2136
1469.4588 0.000681 1355.7395 1446.9986
1552.6112 0.000644 1355.9712 1456.4105
1538.6511 0.000650 1356.2029 1467.9888
1564.1475 0.000639 1356.4346 1482.4248
1477.3615 0.000677 1356.6662 1500.5664
1552.6860 0.000644 1356.8979 1523.4027
1597.5408 0.000626 1357.1296 1552.0191
1640.9313 0.000609 1357.3613 1587.5203
1734.4560 0.000577 1357.5930 1630.9182
1797.0914 0.000556 1357.8247 1682.9933
1817.1900 0.000550 1358.0564 1744.1313
1916.9231 0.000522 1358.2881 1814.1393
1976.7937 0.000506 1358.5197 1892.0266
1978.9878 0.000505 1358.7514 1975.7282
2183.1922 0.000458 1358.9831 2061.7756
2183.0229 0.000458 1359.2148 2145.0505
2202.7177 0.000454 1359.4465 2219.0099
2314.1036 0.000432 1359.6782 2276.9113
2361.1052 0.000424 1359.9099 2314.0550
2385.4691 0.000419 1360.1416 2329.8290
2336.2643 0.000428 1360.3733 2327.8983
2430.3091 0.000411 1360.6049 2314.2374
2349.5910 0.000426 1360.8366 2294.5662
2222.2307 0.000450 1361.0683 2272.7051
2321.2052 0.000431 1361.3000 2250.2932
2327.8856 0.000430 1361.5317 2227.6271
2250.3051 0.000444 1361.7634 2205.0843
2445.0012 0.000409 1361.9951 2184.2452
2409.1686 0.000415 1362.2268 2167.9066
2336.6120 0.000428 1362.4165 2159.0608
2367.1467 0.000422 1362.6062 2159.8604
2356.7039 0.000424 1362.7959 2170.7757
2362.6023 0.000423 1362.9856 2190.3561
2430.7170 0.000411 1363.1754 2215.1995
2452.8190 0.000408 1363.3651 2240.2319
2477.3794 0.000404 1363.5548 2259.6458
2501.3802 0.000400 1363.7445 2268.6449
2488.1226 0.000402 1363.9343 2265.2732
2450.8404 0.000408 1364.1240 2250.9817
2461.8675 0.000406 1364.3137 2229.4299
2431.6578 0.000411 1364.5034 2204.5175
2433.5958 0.000411 1364.6931 2178.9561
2405.5887 0.000416 1364.8829 2153.8955
2473.3644 0.000404 1365.0726 2129.4903
2299.5914 0.000435 1365.2623 2106.0520
2276.5491 0.000439 1365.4520 2085.1687
2235.2382 0.000447 1365.6417 2070.0416
2353.8281 0.000425 1365.8315 2064.9790
2381.4077 0.000420 1366.0212 2074.4867
2400.9562 0.000417 1366.2109 2102.6280
2478.1918 0.000404 1366.4006 2152.7221
2418.2797 0.000414 1366.5903 2227.2084
2671.6020 0.000374 1366.7801 2327.4609
2801.5847 0.000357 1366.9698 2453.4786
2904.2154 0.000344 1367.1595 2603.4319
3021.8155 0.000331 1367.3492 2773.1229
3276.8807 0.000305 1367.5390 2955.6373
3397.6458 0.000294 1367.7287 3141.5456
3612.7190 0.000277 1367.9184 3319.9933
3736.9521 0.000268 1368.1081 3480.2238
3816.1338 0.000262 1368.2978 3612.4442
4038.9823 0.000248 1368.4876 3707.8655
4113.4294 0.000243 1368.6773 3759.4178
4039.9787 0.000248 1368.8670 3764.0313
3934.3603 0.000254 1369.0567 3724.5570
3848.0262 0.000260 1369.2464 3648.8325
3850.4914 0.000260 1369.4362 3546.4238
3786.7181 0.000264 1369.6259 3425.6307
3522.5645 0.000284 1369.8156 3292.0664
3392.5570 0.000295 1370.0053 3148.5819
3234.7424 0.000309 1370.1950 2996.3739
3078.7799 0.000325 1370.3848 2837.0026
2946.9379 0.000339 1370.5745 2674.0143
2859.2997 0.000350 1370.7642 2512.8316
2644.0464 0.000378 1370.9539 2359.2164
2462.9977 0.000406 1371.1436 2217.7501
2282.0626 0.000438 1371.3334 2091.2127
2175.9230 0.000460 1371.5231 1980.7277
2105.0326 0.000475 1371.7128 1886.1986
1948.2600 0.000513 1371.9025 1806.7303
1920.8904 0.000521 1372.0923 1740.9451
1884.6295 0.000531 1372.2820 1687.2058
1819.3187 0.000550 1372.4717 1643.7859
1748.6985 0.000572 1372.6614 1608.9655
1693.9759 0.000590 1372.8511 1581.1628
1652.7327 0.000605 1373.0409 1558.9697
1652.1915 0.000605 1373.2306 1541.1915
1620.5517 0.000617 1373.4203 1526.8566
1551.6774 0.000644 1373.6100 1515.2062
1628.5528 0.000614 1373.7997 1505.6725
1560.7594 0.000641 1373.9895 1497.8552
1540.7143 0.000649 1374.1792 1491.4805
1534.1696 0.000652 1374.3689 1486.3976
1501.5654 0.000666 1374.5586 1482.5451
1538.1069 0.000650 1374.7483 1479.9383
1546.3498 0.000647 1374.9381 1478.6549
1624.5538 0.000616 1375.1278 1478.8198
1545.6302 0.000647 1375.3175 1480.5874
1570.9931 0.000637 1375.5072 1484.1198
1467.9955 0.000681 1375.6969 1489.5596
1456.1358 0.000687 1375.8867 1496.9997
1589.9977 0.000629 1376.0764 1506.4485
1587.6442 0.000630 1376.2661 1517.7922
1581.5368 0.000632 1376.4558 1530.7486
1587.0041 0.000630 1376.6456 1544.8088
1629.1590 0.000614 1376.8353 1559.1731
1644.4914 0.000608 1377.0250 1572.7164
1696.2676 0.000590 1377.2147 1584.0696
1613.3139 0.000620 1377.4044 1591.9109
1596.4418 0.000626 1377.5942 1595.4190
1600.7950 0.000625 1377.7839 1594.6128
1635.1519 0.000612 1377.9736 1590.2915
1689.5908 0.000592 1378.1633 1583.5606
1662.1073 0.000602 1378.3111 1575.3620
1546.7675 0.000647 1378.4588 1566.2874
1535.7013 0.000651 1378.6066 1556.4380
1579.7924 0.000633 1378.7543 1545.6444
1587.2695 0.000630 1378.9021 1533.7574
1504.3576 0.000665 1379.0498 1520.8942
1540.9651 0.000649 1379.1976 1507.4838
1531.4595 0.000653 1379.3453 1494.1173
1489.8912 0.000671 1379.4931 1481.3309
1505.0100 0.000664 1379.6408 1469.5219
1461.3763 0.000684 1379.7886 1458.9173
1426.8378 0.000701 1379.9364 1449.6028
1458.1382 0.000686 1380.0841 1441.5769
1468.4616 0.000681 1380.2319 1434.7739
1479.7926 0.000676 1380.3796 1429.0880
1431.7302 0.000698 1380.5274 1424.3901
1397.4199 0.000716 1380.6751 1420.5408
1432.5340 0.000698 1380.8229 1417.4006
1419.0892 0.000705 1380.9706 1414.8390
1433.0802 0.000698 1381.1184 1412.7409
1442.2847 0.000693 1381.2661 1411.0052
1435.9743 0.000696 1381.4139 1409.5525
1369.1772 0.000730 1381.5616 1408.3199
1413.5448 0.000707 1381.7094 1407.2592
1453.3259 0.000688 1381.8571 1406.3351
1422.9673 0.000703 1382.0049 1405.5222
1406.3424 0.000711 1382.1527 1404.8026
1429.5775 0.000700 1382.3004 1404.1640
1441.3477 0.000694 1382.4482 1403.5983
1392.2805 0.000718 1382.5959 1403.1000
1360.1777 0.000735 1382.7437 1402.6658
1400.8094 0.000714 1382.8914 1402.2933
1405.1108 0.000712 1383.0392 1401.9807
1417.0010 0.000706 1383.1869 1401.7260
1393.0976 0.000718 1383.3347 1401.5264
1396.7096 0.000716 1383.4824 1401.3780
1415.4164 0.000707 1383.6302 1401.2746
1380.3055 0.000724 1383.7779 1401.2071
1381.7718 0.000724 1383.9257 1401.1629
1371.0839 0.000729 1384.0734 1400.2229
1403.7581 0.000712 1384.2212 1400.1850
1410.1501 0.000709 1384.3689 1400.1151
1396.6149 0.000716 1384.4749 1399.9607
1396.3878 0.000716 1384.5809 1399.7644
1360.6456 0.000735 1384.6868 1399.5369
1429.6403 0.000699 1384.7928 1399.2932
1510.7519 0.000662 1384.8987 1399.0462
1426.3456 0.000701 1385.0047 1398.3532
1416.6961 0.000706 1385.1106 1398.1219
1384.8392 0.000722 1385.2166 1397.8937
1337.4065 0.000748 1385.3226 1397.6673
1357.0898 0.000737 1385.4285 1397.4456
1416.8801 0.000706 1385.5345 1397.2362
1444.3157 0.000692 1385.6404 1397.0501
1428.1769 0.000700 1385.7464 1396.8990
1394.6316 0.000717 1385.8523 1396.7936
1420.8923 0.000704 1385.9583 1396.7436
1423.1072 0.000703 1386.0643 1396.7576
1422.7433 0.000703 1386.1702 1396.1370
1387.7429 0.000721 1386.2762 1396.3111
1344.4652 0.000744 1386.3821 1396.5673
1368.6451 0.000731 1386.4881 1396.9062
1382.7003 0.000723 1386.5940 1397.3244
1393.2066 0.000718 1386.7000 1397.8123
1374.2978 0.000728 1386.8060 1398.3526
1396.6018 0.000716 1386.9119 1398.9184
1457.5845 0.000686 1387.0179 1399.1195
1509.4385 0.000662 1387.1238 1399.6189
1456.8111 0.000686 1387.2298 1400.0118
1398.6853 0.000715 1387.3357 1400.2645
1446.5123 0.000691 1387.4417 1400.3687
1489.5999 0.000671 1387.5477 1400.3410
1441.9129 0.000694 1387.6536 1400.2119
1396.6608 0.000716 1387.7596 1400.0121
1426.0039 0.000701 1387.8655 1399.7640
1408.3812 0.000710 1387.9715 1399.4786
1354.2272 0.000738 1388.0774 1399.1570
1382.2830 0.000723 1388.1834 1398.7971
1403.8416 0.000712 1388.2894 1398.4011
1373.5803 0.000728 1388.3953 1397.9793
1384.6198 0.000722 1388.5013 1397.5486
1406.4892 0.000711 1388.6072 1396.3167
1423.2766 0.000703 1388.7132 1395.9309
1433.4289 0.000698 1388.8191 1395.5814
1386.2733 0.000721 1388.8847 1395.2359
1376.0078 0.000727 1388.9502 1393.2780
1429.8781 0.000699 1389.0157 1393.0574
1442.6198 0.000693 1389.0812 1392.8875
1425.5866 0.000701 1389.1467 1392.7672
1411.1898 0.000709 1389.2122 1392.6505
1396.6454 0.000716 1389.2777 1392.6366
1361.4689 0.000735 1389.3432 1392.6697
1358.4054 0.000736 1389.4088 1392.7511
1384.6910 0.000722 1389.4743 1392.0528
1391.9027 0.000718 1389.5398 1392.2516
1391.7437 0.000719 1389.6053 1392.5090
1364.2892 0.000733 1389.6708 1392.8295
1384.1714 0.000722 1389.7363 1393.2164
1378.3184 0.000726 1389.8018 1393.8514
1363.5583 0.000733 1389.8674 1394.3739
1415.6620 0.000706 1389.9329 1394.9545
1419.2238 0.000705 1389.9984 1395.5792
1378.6218 0.000725 1390.0639 1396.2250
1374.0024 0.000728 1390.1294 1396.8580
1442.7628 0.000693 1390.1949 1397.4341
1427.9640 0.000700 1390.2604 1397.9050
1397.5297 0.000716 1390.3259 1398.2323
1410.9567 0.000709 1390.3915 1398.4022
1406.5183 0.000711 1390.4570 1398.4310
1415.0913 0.000707 1390.5225 1398.3558
1388.1015 0.000720 1390.5880 1398.2170
1406.4610 0.000711 1390.6535 1398.0446
1412.8597 0.000708 1390.7190 1397.8528
1383.1999 0.000723 1390.7845 1397.6409
1369.4046 0.000730 1390.8501 1397.4013
1373.1162 0.000728 1390.9156 1397.1294
1380.2434 0.000725 1390.9811 1396.8316
1418.7756 0.000705 1391.0466 1396.5255
1412.3714 0.000708 1391.1121 1396.2349
1463.1003 0.000683 1391.1776 1396.0207
1466.9515 0.000682 1391.2431 1395.8273
1418.7370 0.000705 1391.3086 1395.7072
1394.0482 0.000717 1391.3742 1395.6725
1389.4827 0.000720 1391.4397 1395.7333
1373.9703 0.000728 1391.5052 1395.8980
1409.3934 0.000710 1391.5707 1396.1734
1406.8744 0.000711 1391.6916 1396.6189
1386.4787 0.000721 1391.8125 1397.1802
1404.0046 0.000712 1391.9333 1397.8724
1455.6922 0.000687 1392.0542 1398.6485
1416.9391 0.000706 1392.1751 1399.5094
1435.8865 0.000696 1392.2960 1400.4483
1460.4122 0.000685 1392.4169 1401.2007
1403.8569 0.000712 1392.5378 1402.0980
1447.2966 0.000691 1392.6586 1402.8915
1453.4994 0.000688 1392.7795 1403.5203
1447.2047 0.000691 1392.9004 1403.9483
1467.5716 0.000681 1393.0213 1404.1795
1453.6510 0.000688 1393.1422 1404.2546
1444.6355 0.000692 1393.2630 1404.2314
1411.4602 0.000708 1393.3839 1404.0811
1486.0907 0.000673 1393.5048 1403.9962
1469.6921 0.000680 1393.6257 1403.9015
1460.8346 0.000685 1393.7466 1403.7845
1454.5803 0.000687 1393.8675 1403.6251
1434.1797 0.000697 1393.9883 1403.4080
1431.0861 0.000699 1394.1092 1403.1305
1420.1187 0.000704 1394.2301 1402.8007
1460.7450 0.000685 1394.3510 1402.4334
1424.3052 0.000702 1394.4719 1402.0472
1428.6734 0.000700 1394.5928 1401.6631
1424.1123 0.000702 1394.7136 1401.3018
1422.7475 0.000703 1394.8345 1400.9800
1418.8376 0.000705 1394.9554 1400.7069
1410.3330 0.000709 1395.0763 1400.4840
1492.2916 0.000670 1395.1972 1400.3080
1495.0731 0.000669 1395.3180 1400.1658
1433.3946 0.000698 1395.4389 1400.0504
1443.7353 0.000693 1395.5598 1399.9562
1431.0916 0.000699 1395.6807 1399.8820
1449.9048 0.000690 1395.8016 1399.8293
1388.9725 0.000720 1395.9225 1399.8001
1417.5807 0.000705 1396.0433 1399.7957
1411.0873 0.000709 1396.1642 1399.8165
1439.5139 0.000695 1396.2851 1399.8626
1450.6068 0.000689 1396.4060 1399.9310
1372.9504 0.000728 1396.5269 1400.0210
1403.4071 0.000713 1396.6478 1400.1311
1438.9153 0.000695 1396.7384 1400.2291
1432.1991 0.000698 1396.8291 1400.3436
1357.5524 0.000737 1396.9198 1400.4729
1368.3530 0.000731 1397.0105 1400.6155
1390.2191 0.000719 1397.1012 1400.7701
1429.9202 0.000699 1397.1919 1400.9357
1408.3021 0.000710 1397.2826 1401.1114
1426.2599 0.000701 1397.3733 1401.2969
1408.4779 0.000710 1397.4640 1401.4917
1362.6375 0.000734 1397.5547 1401.6959
1398.0995 0.000715 1397.6454 1401.9070
1415.3157 0.000707 1397.7361 1402.1303
1359.8630 0.000735 1397.8268 1402.3636
1390.0000 0.000719 1397.9175 1402.6076
1385.8990 0.000722 1398.0082 1402.8626
1385.6441 0.000722 1398.0989 1403.1295
1419.8666 0.000704 1398.1895 1403.4091
1413.2941 0.000708 1398.2802 1403.7023
1448.6998 0.000690 1398.3709 1404.0089
1426.2415 0.000701 1398.4616 1404.3326
1440.1712 0.000694 1398.5523 1404.6737
1424.5519 0.000702 1398.6430 1405.0334
1426.1147 0.000701 1398.7337 1405.4137
1449.8359 0.000690 1398.8244 1405.8164
1389.2653 0.000720 1398.9151 1406.2436
1343.0434 0.000745 1399.0058 1406.6979
1384.1461 0.000722 1399.0965 1407.1821
1353.6110 0.000739 1399.1872 1407.6995
1441.6026 0.000694 1399.2779 1408.2536
1394.9639 0.000717 1399.3686 1408.8488
1366.8308 0.000732 1399.4593 1409.4898
1359.5974 0.000736 1399.5499 1410.1824
1418.5128 0.000705 1399.6406 1410.9332
1490.0926 0.000671 1399.7313 1411.7502
1442.9278 0.000693 1399.8220 1412.6433
1418.2222 0.000705 1399.9127 1413.6246
1408.1902 0.000710 1400.0034 1414.7101
1427.5321 0.000701 1400.0941 1415.9208
1475.0752 0.000678 1400.1848 1417.2794
1467.6486 0.000681 1400.2755 1418.8381
1357.7786 0.000736 1400.3662 1420.6468
1428.6617 0.000700 1400.4569 1422.7824
1436.1578 0.000696 1400.5476 1425.3547
1462.6673 0.000684 1400.6383 1428.5081
1396.0724 0.000716 1400.7290 1432.4333
1548.4181 0.000646 1400.8197 1437.3725
1466.1693 0.000682 1400.9104 1443.6171
1441.3784 0.000694 1401.0010 1451.5153
1462.2433 0.000684 1401.0917 1461.4380
1546.1650 0.000647 1401.1824 1473.7669
1593.1939 0.000628 1401.2731 1488.8540
1564.5569 0.000639 1401.3638 1506.9791
1596.3222 0.000626 1401.4545 1528.2942
1586.0000 0.000631 1401.5452 1552.7664
1601.7339 0.000624 1401.6359 1580.1113
1697.9913 0.000589 1401.7266 1609.7092
1672.6192 0.000598 1401.8173 1640.5030
1720.2059 0.000581 1401.9080 1670.8973
1702.6661 0.000587 1401.9987 1698.7446
1773.9329 0.000564 1402.0894 1721.5786
1837.9445 0.000544 1402.1801 1737.2122
1774.6420 0.000563 1402.2708 1744.5273
1751.3756 0.000571 1402.3614 1743.9431
1773.2032 0.000564 1402.4521 1737.1587
1792.5327 0.000558 1402.5428 1726.3521
1736.5823 0.000576 1402.6335 1713.3830
1722.6592 0.000580 1402.7242 1699.3465
1775.4123 0.000563 1402.8149 1684.4998
1726.7480 0.000579 1402.9056 1668.4765
1734.8779 0.000576 1402.9963 1650.7176
1651.3100 0.000606 1403.0870 1630.9679
1600.3463 0.000625 1403.1777 1609.5685
1651.6290 0.000605 1403.2684 1587.3733
1614.5760 0.000619 1403.3591 1565.4164
1596.1616 0.000627 1403.4498 1544.6058
1558.2747 0.000642 1403.5405 1525.5853
1494.9395 0.000669 1403.6312 1508.7311
1542.7807 0.000648 1403.7219 1494.3674
1544.1549 0.000648 1403.8125 1482.2655
1590.1244 0.000629 1403.9032 1472.4913
1467.7397 0.000681 1403.9939 1464.9112
1464.9362 0.000683 1404.0846 1459.3417
1480.2547 0.000676 1404.1753 1455.5651
1499.7146 0.000667 1404.2660 1453.3419
1489.7768 0.000671 1404.3265 1452.3852
1402.7252 0.000713 1404.3870 1452.4667
1473.6007 0.000679 1404.4475 1453.3011
1524.0000 0.000656 1404.5080 1454.6492
1520.7201 0.000658 1404.5685 1456.0542
1449.4517 0.000690 1404.6290 1457.2618
1460.4607 0.000685 1404.6895 1458.0242
1472.7502 0.000679 1404.7501 1458.2364
1493.0000 0.000670 1404.8106 1457.9626
1490.5387 0.000671 1404.8711 1457.3869
1411.4179 0.000709 1404.9316 1456.7219
1394.0059 0.000717 1404.9921 1456.1280
1509.4558 0.000662 1405.0526 1455.6718
1443.5966 0.000693 1405.1131 1455.3188
1522.1479 0.000657 1405.1736 1454.9531
1473.1725 0.000679 1405.2341 1454.4170
1485.4096 0.000673 1405.2946 1453.5596
1519.1868 0.000658 1405.3551 1452.2759
1429.8790 0.000699 1405.4156 1450.5284
1410.8669 0.000709 1405.4761 1448.3563
1375.0422 0.000727 1405.5366 1445.8723
1415.9327 0.000706 1405.5971 1443.2333
1418.9871 0.000705 1405.6576 1440.5880
1426.9442 0.000701 1405.7181 1438.0739
1377.4824 0.000726 1405.7786 1435.7433
1410.5812 0.000709 1405.8391 1433.6002
1468.1308 0.000681 1405.8996 1431.6055
1443.4590 0.000693 1405.9601 1429.7028
1413.6097 0.000707 1406.0207 1427.8489
1476.5055 0.000677 1406.0812 1426.0345
1347.4387 0.000742 1406.1417 1424.2784
1438.2519 0.000695 1406.2022 1422.6287
1454.5660 0.000687 1406.2627 1421.1170
1371.8955 0.000729 1406.3232 1419.7681
1425.8561 0.000701 1406.3837 1418.5938
1378.0284 0.000726 1406.4442 1417.5936
1380.7916 0.000724 1406.5047 1416.7658
1364.7539 0.000733 1406.5652 1416.0965
1436.4270 0.000696 1406.6257 1415.5693
1413.3911 0.000708 1406.6862 1415.1635
1402.5235 0.000713 1406.7467 1414.8550
1429.4044 0.000700 1406.8072 1414.6167
1403.6730 0.000712 1407.0347 1415.4810
1363.4747 0.000733 1407.2621 1415.4803
1383.4873 0.000723 1407.4895 1415.4806
1472.8245 0.000679 1407.7170 1415.4740
1434.2816 0.000697 1407.9444 1415.4623
1421.7103 0.000703 1408.1719 1415.4523
1399.6952 0.000714 1408.3993 1415.4503
1410.0072 0.000709 1408.6267 1415.4595
1317.9832 0.000759 1408.8542 1415.4793
1377.0351 0.000726 1409.0816 1415.9491
1407.7217 0.000710 1409.3091 1415.9842
1393.5669 0.000718 1409.5365 1416.2205
1389.2692 0.000720 1409.7640 1416.2558
1394.4457 0.000717 1409.9914 1416.2932
1412.1939 0.000708 1410.2188 1416.3377
1413.0977 0.000708 1410.4463 1416.3943
1408.5020 0.000710 1410.6737 1416.4664
1442.9806 0.000693 1410.9012 1416.5563
1379.0356 0.000725 1411.1286 1416.6649
1438.7616 0.000695 1411.3560 1416.7922
1430.9993 0.000699 1411.5835 1416.9376
1375.8243 0.000727 1411.8109 1417.2016
1425.5499 0.000701 1412.0384 1417.3808
1440.0474 0.000694 1412.2658 1417.5736
1412.8959 0.000708 1412.4933 1417.7780
1430.8896 0.000699 1412.7207 1417.9919
1408.6854 0.000710 1412.9481 1418.2131
1410.2215 0.000709 1413.1756 1418.4398
1448.3059 0.000690 1413.4030 1418.6707
1399.5107 0.000715 1413.6305 1418.9051
1453.9436 0.000688 1413.8579 1419.1432
1433.0554 0.000698 1414.0853 1419.6335
1430.5707 0.000699 1414.3128 1419.8836
1422.4577 0.000703 1414.5402 1420.1385
1450.8048 0.000689 1414.7677 1420.3981
1394.8795 0.000717 1414.9951 1420.6623
1423.7726 0.000702 1415.2226 1420.9308
1377.8559 0.000726 1415.4500 1421.2036
1365.4773 0.000732 1415.6774 1421.4806
1388.4701 0.000720 1415.9049 1421.7623
1507.4704 0.000663 1416.1323 1422.0490
1430.8871 0.000699 1416.3598 1422.4658
1396.0562 0.000716 1416.5432 1422.7218
1381.4144 0.000724 1416.7265 1422.9842
1449.9392 0.000690 1416.9099 1423.2533
1423.0675 0.000703 1417.0933 1423.5293
1451.6987 0.000689 1417.2767 1423.8125
1415.8892 0.000706 1417.4601 1424.1032
1388.9018 0.000720 1417.6435 1424.4017
1414.2151 0.000707 1417.8269 1424.7083
1411.2937 0.000709 1418.0103 1425.0233
1388.8452 0.000720 1418.1937 1425.3471
1440.2466 0.000694 1418.3771 1425.6802
1446.7923 0.000691 1418.5605 1426.0697
1453.7800 0.000688 1418.7439 1426.4238
1442.4762 0.000693 1418.9272 1426.7891
1415.2146 0.000707 1419.1106 1427.1665
1419.2723 0.000705 1419.2940 1427.5568
1388.1371 0.000720 1419.4774 1427.9611
1367.2274 0.000731 1419.6608 1428.3806
1400.7620 0.000714 1419.8442 1428.8167
1443.7391 0.000693 1420.0276 1429.2710
1411.0510 0.000709 1420.2110 1429.7451
1389.7100 0.000720 1420.3944 1430.2646
1395.4864 0.000717 1420.5778 1430.7854
1419.5271 0.000704 1420.7612 1431.3335
1409.9107 0.000709 1420.9446 1431.9122
1437.8300 0.000695 1421.1280 1432.5258
1444.1959 0.000692 1421.3113 1433.1797
1431.6278 0.000699 1421.4947 1433.8809
1396.2698 0.000716 1421.6781 1434.6387
1404.8203 0.000712 1421.8615 1435.4662
1411.7501 0.000708 1422.0449 1436.3894
1472.5454 0.000679 1422.2283 1437.4165
1417.0299 0.000706 1422.4117 1438.2325
1350.9247 0.000740 1422.5951 1439.6022
1406.5099 0.000711 1422.7785 1441.2235
1385.3185 0.000722 1422.9619 1443.1732
1450.4883 0.000689 1423.1453 1445.5454
1463.1764 0.000683 1423.3287 1448.4512
1444.6106 0.000692 1423.5120 1452.0142
1424.0253 0.000702 1423.6954 1456.3646
1480.9404 0.000675 1423.8788 1461.6321
1460.3114 0.000685 1424.0622 1467.7375
1476.0333 0.000677 1424.2015 1475.0732
1489.0000 0.000672 1424.3409 1483.5232
1442.6695 0.000693 1424.4802 1493.0355
1469.4469 0.000681 1424.6195 1503.4616
1482.3405 0.000675 1424.7588 1514.5263
1472.9523 0.000679 1424.8981 1525.7936
1467.8937 0.000681 1425.0375 1536.6406
1497.7750 0.000668 1425.1768 1546.2794
1552.1090 0.000644 1425.3161 1553.8790
1532.5189 0.000653 1425.4554 1558.7998
1495.2573 0.000669 1425.5947 1560.8392
1535.5904 0.000651 1425.7341 1560.3152
1560.0583 0.000641 1425.8734 1557.9104
1534.3467 0.000652 1426.0127 1554.3914
1512.4695 0.000661 1426.1520 1550.3719
1541.9040 0.000649 1426.2913 1546.1964
1491.1343 0.000671 1426.4307 1541.9288
1526.9469 0.000655 1426.5700 1537.4183
1507.0642 0.000664 1426.7093 1532.4300
1464.3149 0.000683 1426.8486 1526.8082
1441.3758 0.000694 1426.9880 1520.5570
1484.9791 0.000673 1427.1273 1513.9893
1495.1745 0.000669 1427.2666 1507.4056
1542.8219 0.000648 1427.4059 1501.1311
1503.3238 0.000665 1427.5452 1495.4146
1475.4681 0.000678 1427.6846 1490.4164
1483.2436 0.000674 1427.8239 1486.2234
1523.7631 0.000656 1427.9632 1482.8688
1515.4044 0.000660 1428.1025 1480.3490
1503.4850 0.000665 1428.2418 1478.6169
1465.1651 0.000683 1428.3812 1477.6655
1453.4368 0.000688 1428.5205 1477.4246
1411.9143 0.000708 1428.6598 1477.8431
1467.7951 0.000681 1428.7991 1478.8573
1520.7642 0.000658 1428.9384 1480.4808
1519.2518 0.000658 1429.0778 1482.6874
1509.5356 0.000662 1429.2171 1485.5018
1475.8900 0.000678 1429.3564 1488.9882
1458.6167 0.000686 1429.4957 1493.2614
1496.4555 0.000668 1429.6350 1498.4998
1535.2839 0.000651 1429.7744 1504.9612
1538.9131 0.000650 1429.9137 1512.9988
1598.0258 0.000626 1430.0530 1523.0655
1564.1848 0.000639 1430.1923 1535.7644
1545.0340 0.000647 1430.3316 1551.7844
1619.4189 0.000618 1430.4710 1571.9249
1678.0276 0.000596 1430.6103 1597.0479
1727.3750 0.000579 1430.7496 1628.0187
1766.9301 0.000566 1430.8889 1665.6245
1786.8100 0.000560 1431.0282 1710.4756
1845.6199 0.000542 1431.1676 1762.8926
1929.5597 0.000518 1431.3069 1822.7832
2000.0769 0.000500 1431.4462 1889.5002
2085.8191 0.000479 1431.5855 1961.6668
2123.8341 0.000471 1431.7248 2036.9605
2244.5478 0.000446 1431.8642 2111.9012
2312.4107 0.000432 1432.0035 2181.8174
2320.7331 0.000431 1432.1428 2241.3200
2317.2142 0.000432 1432.2821 2285.5399
2354.6251 0.000425 1432.4214 2311.8434
2388.3985 0.000419 1432.5608 2320.9669
2446.6367 0.000409 1432.7001 2316.6746
2466.8418 0.000405 1432.8394 2304.1191
2452.0993 0.000408 1432.9787 2287.9754
2406.7228 0.000416 1433.1180 2271.2854
2350.1074 0.000426 1433.2574 2254.9953
2333.4125 0.000429 1433.3967 2238.0799
2334.5501 0.000428 1433.5360 2218.1203
2307.1927 0.000433 1433.6753 2192.3332
2231.0120 0.000448 1433.8146 2158.7906
2158.6542 0.000463 1433.9540 2117.3026
2161.6597 0.000463 1434.0933 2069.5042
2149.0280 0.000465 1434.2326 2018.2234
2102.5344 0.000476 1434.3719 1966.5741
2032.0887 0.000492 1434.5112 1917.2652
1965.6412 0.000509 1434.6506 1872.2484
1937.9655 0.000516 1434.7899 1832.6264
1888.1934 0.000530 1434.9292 1798.8086
1863.6291 0.000537 1435.0685 1770.6437
1858.8402 0.000538 1435.2078 1747.6626
1812.1737 0.000552 1435.3472 1729.3520
1784.5289 0.000560 1435.4865 1715.3692
1796.9926 0.000556 1435.6258 1705.5884
1820.8704 0.000549 1435.7651 1699.9736
1787.1506 0.000560 1435.8604 1698.3484
1764.4400 0.000567 1435.9556 1700.3876
1766.2194 0.000566 1436.0509 1705.3832
1724.2818 0.000580 1436.1461 1712.2714
1718.3492 0.000582 1436.2414 1719.6292
1732.6115 0.000577 1436.3366 1725.7343
1752.0802 0.000571 1436.4319 1728.9659
1779.1085 0.000562 1436.5271 1728.2154
1777.6796 0.000563 1436.6224 1723.2829
1772.3862 0.000564 1436.7176 1714.8839
1726.5879 0.000579 1436.8129 1704.2623
1703.5662 0.000587 1436.9081 1692.6841
1734.8246 0.000576 1437.0034 1681.0756
1668.9360 0.000599 1437.0986 1669.8741
1679.7643 0.000595 1437.1939 1659.0478
1712.2208 0.000584 1437.2891 1648.1976
1661.5002 0.000602 1437.3843 1636.8470
1658.7360 0.000603 1437.4796 1624.6752
1652.2344 0.000605 1437.5748 1611.7601
1625.0802 0.000615 1437.6701 1598.5464
1628.4271 0.000614 1437.7653 1585.6261
1615.8757 0.000619 1437.8606 1573.5837
1634.4081 0.000612 1437.9558 1562.8349
1587.3623 0.000630 1438.0511 1553.6045
1502.4480 0.000666 1438.1463 1545.9409
1553.7195 0.000644 1438.2416 1539.7393
1617.7924 0.000618 1438.3368 1534.7648
1597.4700 0.000626 1438.4321 1530.6664
1560.7727 0.000641 1438.5273 1527.0499
1552.6714 0.000644 1438.6226 1523.5601
1548.4847 0.000646 1438.7178 1519.9617
1552.5528 0.000644 1438.8131 1516.2120
1526.1404 0.000655 1438.9083 1512.4088
1539.4512 0.000650 1439.0036 1508.7078
1565.8063 0.000639 1439.0988 1505.2420
1567.4005 0.000638 1439.1941 1502.0766
1529.8078 0.000654 1439.2893 1499.2075
1486.2260 0.000673 1439.3846 1496.5329
1531.1574 0.000653 1439.4798 1493.9431
1535.8137 0.000651 1439.5751 1491.3298
1446.3482 0.000691 1439.6703 1488.6418
1423.1405 0.000703 1439.7656 1485.9029
1489.0000 0.000672 1439.8167 1483.1448
1485.2085 0.000673 1439.8679 1480.4973
1489.5415 0.000671 1439.9190 1478.0223
1485.3187 0.000673 1439.9702 1475.7513
1470.5265 0.000680 1440.0213 1473.6591
1492.6294 0.000670 1440.0725 1471.7093
1477.8768 0.000677 1440.1236 1469.8699
1474.6642 0.000678 1440.1748 1468.1209
1439.3605 0.000695 1440.2260 1466.4657
1455.3854 0.000687 1440.2771 1464.9232
1455.6549 0.000687 1440.3283 1463.5138
1411.9919 0.000708 1440.3794 1462.2474
1460.4279 0.000685 1440.4306 1461.1188
1500.1473 0.000667 1440.4817 1460.1125
1468.1119 0.000681 1440.5329 1459.2073
1485.6317 0.000673 1440.5840 1458.3370
1434.3912 0.000697 1440.6352 1457.4904
1453.1122 0.000688 1440.6863 1456.6522
1495.3579 0.000669 1440.7375 1455.8226
1491.9356 0.000670 1440.7887 1455.0129
1421.5101 0.000703 1440.8398 1454.2378
1423.1279 0.000703 1440.8910 1453.5099
1388.1390 0.000720 1440.9421 1452.8377
1416.3809 0.000706 1440.9933 1452.2254
1455.6731 0.000687 1441.0444 1451.6740
1464.6434 0.000683 1441.0956 1451.1912
1428.6306 0.000700 1441.1467 1450.6276
1378.4073 0.000725 1441.1979 1450.2463
1419.4728 0.000704 1441.2490 1449.9122
1482.5187 0.000675 1441.3002 1449.6199
1456.7158 0.000686 1441.3514 1449.3640
1463.5982 0.000683 1441.4025 1449.1394
1466.1857 0.000682 1441.4537 1448.9413
1450.7878 0.000689 1441.5048 1448.8127
1398.8499 0.000715 1441.5560 1448.6565
1389.3827 0.000720 1441.6071 1448.4518
1410.4282 0.000709 1441.6583 1448.3262
1411.4550 0.000708 1441.7094 1448.2126
1453.3748 0.000688 1441.7606 1448.1093
1459.4479 0.000685 1441.8117 1448.0155
1413.9768 0.000707 1441.8629 1447.9301
1445.0785 0.000692 1441.9141 1447.8524
1460.4019 0.000685 1441.9784 1447.9040
1423.6589 0.000702 1442.0427 1447.8784
1420.3686 0.000704 1442.1070 1447.8363
1443.8868 0.000693 1442.1714 1447.8003
1423.0724 0.000703 1442.2357 1447.7702
1447.7157 0.000691 1442.3000 1447.7458
1471.0474 0.000680 1442.3644 1447.7269
1386.2760 0.000721 1442.4287 1447.7135
1402.2679 0.000713 1442.4930 1447.7053
1413.6562 0.000707 1442.5574 1447.7023
1455.2864 0.000687 1442.6217 1447.7585
1407.3357 0.000711 1442.6860 1447.7667
1432.8691 0.000698 1442.7504 1447.7802
1425.9818 0.000701 1442.8147 1447.8372
1474.5146 0.000678 1442.8790 1447.8623
1460.7031 0.000685 1442.9434 1447.8934
1448.6866 0.000690 1443.0077 1447.9308
1419.4172 0.000705 1443.0720 1447.9753
1388.0647 0.000720 1443.1364 1448.0277
1452.3718 0.000689 1443.2007 1448.0893
1440.4039 0.000694 1443.2650 1448.1617
1420.7436 0.000704 1443.3294 1448.2472
1395.6604 0.000717 1443.3937 1448.3489
1437.7916 0.000696 1443.4580 1448.4704
1419.4397 0.000705 1443.5224 1448.6353
1427.0300 0.000701 1443.5867 1448.8112
1437.6043 0.000696 1443.6510 1449.0227
1444.4421 0.000692 1443.7154 1449.2761
1424.3452 0.000702 1443.7797 1449.5775
1413.1164 0.000708 1443.8440 1449.9324
1453.5690 0.000688 1443.9084 1450.5437
1418.9102 0.000705 1443.9727 1451.0178
1462.1843 0.000684 1444.0370 1451.5503
1453.0094 0.000688 1444.1014 1452.1366
1415.1591 0.000707 1444.1657 1451.8896
1448.3526 0.000690 1444.2300 1452.5608
1441.4916 0.000694 1444.2944 1453.2379
1407.4969 0.000710 1444.3587 1453.8917
1447.9200 0.000691 1444.4230 1454.4913
1483.2214 0.000674 1444.4874 1455.0134
1438.3481 0.000695 1444.5517 1455.4531
1435.6412 0.000697 1444.6160 1455.9292
1441.9949 0.000693 1444.6442 1456.2446
1449.7873 0.000690 1444.6723 1456.5785
1412.1576 0.000708 1444.7005 1456.5324
1455.5909 0.000687 1444.7286 1457.0099
1473.6488 0.000679 1444.7568 1457.3768
1467.6469 0.000681 1444.7849 1458.0237
1510.0261 0.000662 1444.8131 1458.7231
1492.1389 0.000670 1444.8412 1459.4373
1485.6412 0.000673 1444.8694 1460.1224
1446.7491 0.000691 1444.8975 1460.7353
1492.0244 0.000670 1444.9257 1461.2434
1462.5915 0.000684 1444.9538 1461.6276
1473.1842 0.000679 1444.9819 1461.9044
1388.4324 0.000720 1445.0101 1462.0196
1467.8353 0.000681 1445.0382 1462.2420
1441.6520 0.000694 1445.0664 1462.5376
1372.3893 0.000729 1445.0945 1462.9590
1441.9392 0.000694 1445.1227 1463.5334
1469.9320 0.000680 1445.1508 1464.2593
1386.3080 0.000721 1445.1790 1465.1061
1439.8340 0.000695 1445.2071 1466.0170
1450.5552 0.000689 1445.2353 1466.9169
1476.8568 0.000677 1445.2634 1467.7195
1432.1173 0.000698 1445.2916 1468.3491
1456.3042 0.000687 1445.3197 1468.7560
1489.6371 0.000671 1445.3478 1468.6904
1410.3234 0.000709 1445.3760 1468.6937
1461.0750 0.000684 1445.4041 1468.6055
1523.1816 0.000657 1445.4323 1468.5265
1490.9571 0.000671 1445.4604 1468.5425
1475.5100 0.000678 1445.4886 1468.7062
1436.0969 0.000696 1445.5167 1469.0304
1463.6610 0.000683 1445.5449 1469.4865
1485.9041 0.000673 1445.5730 1470.0099
1495.7261 0.000669 1445.6012 1470.5121
1458.6062 0.000686 1445.6293 1470.7793
1389.6006 0.000720 1445.6575 1470.9838
1530.3481 0.000653 1445.6856 1470.9598
1443.8781 0.000693 1445.7138 1470.6986
1511.9445 0.000661 1445.7419 1470.2194
1558.3029 0.000642 1445.7700 1469.5656
1450.5541 0.000689 1445.7982 1468.8023
1424.0033 0.000702 1445.7859 1467.9653
1464.0285 0.000683 1445.7735 1467.1672
1419.3570 0.000705 1445.7612 1466.4620
1406.1763 0.000711 1445.7488 1465.8794
1461.6166 0.000684 1445.7365 1465.4267
1451.7080 0.000689 1445.7241 1465.0966
1471.5243 0.000680 1445.7118 1464.8292
1423.3490 0.000703 1445.6995 1464.7020
1436.5319 0.000696 1445.6871 1464.6584
1457.5483 0.000686 1445.6748 1464.6940
1437.1507 0.000696 1445.6624 1464.8084
1445.7923 0.000692 1445.6501 1464.9964
1493.9325 0.000669 1445.6378 1465.2413
1489.3574 0.000671 1445.6254 1465.5127
1521.5837 0.000657 1445.6131 1465.7765
1471.2252 0.000680 1445.6007 1466.0105
1511.8672 0.000661 1445.5884 1466.1952
1464.9997 0.000683 1445.5761 1466.4066
1463.0050 0.000684 1445.5637 1466.6644
1510.7513 0.000662 1445.5514 1467.0065
1505.0471 0.000664 1445.5390 1467.4511
1449.5891 0.000690 1445.5267 1467.9905
1523.0108 0.000657 1445.5144 1468.5919
1503.3330 0.000665 1445.5020 1469.2071
1469.6299 0.000680 1445.4897 1469.7906
1480.7456 0.000675 1445.4773 1470.3131
1419.5035 0.000704 1445.4650 1470.8072
1508.5323 0.000663 1445.4526 1471.3123
1407.1247 0.000711 1445.4403 1471.8881
1466.9283 0.000682 1445.4280 1472.5832
1506.6529 0.000664 1445.4156 1473.4174
1431.9396 0.000698 1445.4033 1474.3737
1504.8495 0.000665 1445.3909 1475.3956
1413.2123 0.000708 1445.3786 1476.3924
1512.1165 0.000661 1445.3663 1477.2561
1458.9211 0.000685 1445.3539 1477.8892
1469.2922 0.000681 1445.3416 1478.2593
1525.8598 0.000655 1445.3292 1478.3983
1398.7133 0.000715 1445.3169 1478.4136
1494.5582 0.000669 1445.3046 1478.4530
1439.0413 0.000695 1445.2922 1478.6724
1444.3610 0.000692 1445.2799 1479.1943
1471.1361 0.000680 1445.2267 1480.0810
1503.7151 0.000665 1445.1734 1481.4384
1517.1371 0.000659 1445.1202 1483.3018
1454.1458 0.000688 1445.0670 1485.6850
1520.9749 0.000657 1445.0138 1488.5944
1543.5615 0.000648 1444.9606 1492.0427
1491.7898 0.000670 1444.9074 1496.0507
1469.6198 0.000680 1444.8542 1500.6340
1510.8677 0.000662 1444.8009 1505.7770
1530.4600 0.000653 1444.7477 1511.4116
1537.4404 0.000650 1444.6945 1517.4026
1542.5204 0.000648 1444.6413 1523.5850
1501.5355 0.000666 1444.5881 1529.8140
1558.1139 0.000642 1444.5349 1536.0329
1564.1039 0.000639 1444.4817 1542.2970
1564.0000 0.000639 1444.4284 1548.7274
1601.4105 0.000624 1444.3752 1555.4151
1598.8955 0.000625 1444.3220 1562.3243
1536.9082 0.000651 1444.2688 1569.2263
1618.1547 0.000618 1444.2156 1575.6830
1606.2386 0.000623 1444.1624 1581.0976
1631.0762 0.000613 1444.1091 1584.8562
1619.2552 0.000618 1444.0559 1586.5384
1560.3171 0.000641 1444.0027 1586.0996
1587.6444 0.000630 1443.9495 1583.9061
1658.8697 0.000603 1443.8963 1580.5957
1645.6710 0.000608 1443.8431 1576.8607
1665.2569 0.000601 1443.7899 1573.2674
1616.6194 0.000619 1443.7366 1570.1617
1560.9183 0.000641 1443.6834 1567.6462
1587.1344 0.000630 1443.6302 1565.6032
1581.9410 0.000632 1443.5770 1563.7551
1596.1124 0.000627 1443.5238 1561.7634
1625.2060 0.000615 1443.4706 1559.3468
1535.6193 0.000651 1443.4174 1556.3764
1565.8809 0.000639 1443.3641 1552.9169
1606.8192 0.000622 1443.3109 1549.2182
1639.7097 0.000610 1443.2577 1545.6722
1572.6152 0.000636 1443.2045 1542.7464
1548.8773 0.000646 1443.1513 1540.9083
1585.8535 0.000631 1443.0981 1540.5639
1612.1280 0.000620 1443.0449 1542.0195
1537.1520 0.000651 1442.9916 1545.4617
1614.1464 0.000620 1442.9384 1550.9483
1625.2081 0.000615 1442.8852 1558.4926
1653.9064 0.000605 1442.8320 1567.7217
1652.8934 0.000605 1442.7788 1578.4115
1619.4885 0.000617 1442.7256 1590.1433
1591.8670 0.000628 1442.6724 1602.3635
1616.6981 0.000619 1442.6191 1614.3357
1696.7983 0.000589 1442.5659 1625.1163
1617.7279 0.000618 1442.5127 1633.6345
1674.8483 0.000597 1442.4595 1638.9218
1661.9451 0.000602 1442.4063 1640.4326
1656.9465 0.000604 1442.3531 1638.2693
1631.2544 0.000613 1442.2998 1633.1433
1587.9375 0.000630 1442.2466 1626.1371
1645.9730 0.000608 1442.1934 1618.1899
1577.7935 0.000634 1442.1402 1610.1252
1563.0875 0.000640 1442.0870 1602.3750
1634.8229 0.000612 1442.0338 1595.0109
1569.4609 0.000637 1441.9806 1587.8226
1603.1324 0.000624 1441.9273 1580.3925
1538.3493 0.000650 1441.8741 1572.2974
1577.8223 0.000634 1441.8209 1563.2924
1567.6021 0.000638 1441.7677 1553.4208
1554.9709 0.000643 1441.7145 1542.9811
1537.3986 0.000650 1441.6613 1532.3936
1541.0233 0.000649 1441.6081 1522.0640
1590.4548 0.000629 1441.5548 1512.3072
1512.6748 0.000661 1441.5016 1503.3282
1482.4879 0.000675 1441.4484 1495.2483
1469.6573 0.000680 1441.3952 1488.1071
1475.3403 0.000678 1441.3420 1481.8941
1452.5067 0.000688 1441.2888 1476.5500
1529.5243 0.000654 1441.2356 1472.3268
1499.6307 0.000667 1441.1823 1468.5134
1481.3675 0.000675 1441.1291 1465.3213
1506.2080 0.000664 1441.0759 1462.6604
1545.3484 0.000647 1441.0227 1460.4466
1537.5624 0.000650 1440.9695 1458.6033
1518.5241 0.000659 1440.9163 1457.0619
1466.8382 0.000682 1440.8630 1455.7622
1470.0690 0.000680 1440.8098 1454.6528
1419.4242 0.000705 1440.7157 1453.6446
1414.7839 0.000707 1440.6217 1452.7524
1433.5585 0.000698 1440.5276 1452.0967
1403.6398 0.000712 1440.4335 1451.3383
1446.2819 0.000691 1440.3394 1450.6458
1456.3863 0.000687 1440.2453 1449.9974
1440.2949 0.000694 1440.1512 1449.3896
1467.0749 0.000682 1440.0571 1449.3418
1468.6181 0.000681 1439.9630 1448.8170
1450.6661 0.000689 1439.8689 1448.3280
1444.3175 0.000692 1439.7749 1447.8729
1450.7988 0.000689 1439.6808 1447.5419
1493.9552 0.000669 1439.5867 1447.1494
1461.7351 0.000684 1439.4926 1446.7842
1463.8748 0.000683 1439.3985 1446.4368
1451.5704 0.000689 1439.3044 1446.1131
1465.6613 0.000682 1439.2103 1445.8166
1441.1598 0.000694 1439.1162 1445.9564
1450.4313 0.000689 1439.0222 1445.9594
1450.5125 0.000689 1438.9281 1445.7124
1424.6360 0.000702 1438.8340 1445.4884
1465.2954 0.000682 1438.7399 1445.2765
1454.2700 0.000688 1438.6458 1445.0757
1432.0565 0.000698 1438.5517 1444.9315
1478.7433 0.000676 1438.4576 1444.7507
1474.1595 0.000678 1438.3635 1444.5752
1449.3219 0.000690 1438.2694 1444.4110
1398.4864 0.000715 1438.1754 1444.2543
1420.2223 0.000704 1438.0813 1444.2193
1432.2041 0.000698 1437.9872 1444.1678
1401.6084 0.000713 1437.8931 1444.0341
1407.7949 0.000710 1437.7990 1443.9068
1425.8621 0.000701 1437.7049 1443.7856
1452.9829 0.000688 1437.6108 1443.6703
1458.3411 0.000686 1437.5167 1443.5607
1424.6722 0.000702 1437.4226 1443.4567
1429.0735 0.000700 1437.3286 1443.3487
1397.8243 0.000715 1437.2345 1443.2558
1414.5860 0.000707 1437.1404 1443.1685
1483.3344 0.000674 1437.0463 1443.0867
1487.3109 0.000672 1436.9522 1443.0106
1434.0126 0.000697 1436.8581 1442.9405
1422.9284 0.000703 1436.7228 1442.8353
1416.3549 0.000706 1436.5874 1442.7369
1425.1212 0.000702 1436.4521 1442.6460
1440.1783 0.000694 1436.3167 1442.5636
1429.2708 0.000700 1436.1814 1442.4826
1432.6759 0.000698 1436.0460 1442.4169
1453.2036 0.000688 1435.9107 1442.3695
1460.8431 0.000685 1435.7753 1442.3384
1453.6664 0.000688 1435.6400 1442.3263
1415.1861 0.000707 1435.5046 1442.3367
1407.6839 0.000710 1435.3693 1442.3729
1444.2789 0.000692 1435.2339 1442.4381
1397.0124 0.000716 1435.0986 1442.5351
1426.3042 0.000701 1434.9632 1442.6660
1486.3207 0.000673 1434.8279 1442.8272
1492.2423 0.000670 1434.6925 1443.1354
1434.2401 0.000697 1434.5572 1443.3485
1401.2082 0.000714 1434.4218 1443.6041
1454.4367 0.000688 1434.2865 1443.8745
1473.4322 0.000679 1434.1511 1444.1458
1470.6126 0.000680 1434.0158 1444.3995
1485.1163 0.000673 1433.8804 1444.6144
1461.3101 0.000684 1433.7451 1444.7703
1415.7130 0.000706 1433.6097 1444.8541
1386.7391 0.000721 1433.4744 1444.8651
1433.2846 0.000698 1433.3390 1444.8153
1471.3341 0.000680 1433.2037 1444.7158
1477.8525 0.000677 1433.0683 1444.6615
1511.7618 0.000661 1432.9330 1444.5526
1495.2566 0.000669 1432.7976 1444.4553
1454.1416 0.000688 1432.6623 1444.3748
1447.0864 0.000691 1432.5269 1444.3982
1455.1173 0.000687 1432.3916 1444.3444
1476.7990 0.000677 1432.2562 1444.2923
1463.1229 0.000683 1432.1209 1444.2355
1443.5707 0.000693 1431.9855 1444.1261
1460.0148 0.000685 1431.8502 1444.0605
1464.5081 0.000683 1431.7148 1444.0006
1424.8213 0.000702 1431.5795 1443.9561
1384.0417 0.000723 1431.4442 1443.9364
1424.1533 0.000702 1431.3088 1443.9489
1451.9302 0.000689 1431.1735 1443.9995
1436.9102 0.000696 1431.4630 1444.5175
1445.7885 0.000692 1431.7526 1445.1263
1464.4723 0.000683 1432.0421 1445.6344
1473.2297 0.000679 1432.3317 1446.2825
1444.7562 0.000692 1432.6212 1447.0135
1424.1886 0.000702 1432.9108 1447.8109
1437.0354 0.000696 1433.2004 1448.6846
1477.1786 0.000677 1433.4899 1449.6481
1507.9721 0.000663 1433.7795 1450.7204
1501.4610 0.000666 1434.0690 1451.9269
1495.1247 0.000669 1434.3586 1453.3011
1456.9250 0.000686 1434.6481 1454.8850
1468.1133 0.000681 1434.9377 1456.7305
1512.3904 0.000661 1435.2272 1458.8437
1497.0000 0.000668 1435.5168 1461.3996
1460.5096 0.000685 1435.8064 1464.4149
1446.8482 0.000691 1436.0959 1467.9219
1495.3537 0.000669 1436.3855 1472.0586
1491.1421 0.000671 1436.6750 1476.8342
1509.3523 0.000663 1436.9646 1482.2726
1544.6185 0.000647 1437.2541 1488.3646
1519.7071 0.000658 1437.5437 1495.0584
1522.3633 0.000657 1437.8333 1502.2467
1548.3204 0.000646 1438.1228 1509.7521
1548.7915 0.000646 1438.4124 1517.3110
1538.2747 0.000650 1438.7019 1524.5643
1575.6796 0.000635 1438.9915 1531.0752
1594.9382 0.000627 1439.2810 1536.3751
1584.6948 0.000631 1439.5706 1540.1554
1589.3569 0.000629 1439.8602 1542.2770
1542.8509 0.000648 1440.1497 1542.8988
1543.5059 0.000648 1440.4393 1542.4005
1555.4143 0.000643 1440.7288 1541.2525
1549.0694 0.000646 1441.0184 1539.8896
1581.7030 0.000632 1441.3079 1538.4403
1587.3005 0.000630 1441.5975 1537.4866
1574.5546 0.000635 1441.8871 1536.8865
1578.3612 0.000634 1442.1766 1536.5804
1592.2457 0.000628 1442.4662 1536.4493
1581.0953 0.000632 1442.7557 1536.3769
1605.9927 0.000623 1443.0453 1536.3329
1638.1024 0.000610 1443.3348 1536.4328
1618.3565 0.000618 1443.5919 1536.8923
1602.1539 0.000624 1443.8489 1538.0996
1576.7633 0.000634 1444.1059 1540.4446
1607.5831 0.000622 1444.3629 1544.2144
1646.6492 0.000607 1444.6200 1549.9626
1699.5415 0.000588 1444.8770 1557.9070
1682.2424 0.000594 1445.1340 1568.3132
1639.0941 0.000610 1445.3910 1581.3743
1717.8675 0.000582 1445.6481 1597.1966
1702.6690 0.000587 1445.9051 1615.7708
1677.9664 0.000596 1446.1621 1636.9462
1722.0254 0.000581 1446.4191 1660.3993
1747.7273 0.000572 1446.6762 1685.5862
1782.4274 0.000561 1446.9332 1711.7076
1823.2212 0.000548 1447.1902 1737.6758
1797.9898 0.000556 1447.4472 1762.1667
1843.7215 0.000542 1447.7043 1783.8328
1924.3093 0.000520 1447.9613 1801.6748
1981.9201 0.000505 1448.2183 1815.4807
2006.9442 0.000498 1448.4753 1826.0455
1988.0826 0.000503 1448.7324 1835.0123
1976.7114 0.000506 1448.9894 1844.4241
1964.1422 0.000509 1449.2464 1856.2448
2010.8791 0.000497 1449.5034 1872.0295
2100.2355 0.000476 1449.7605 1892.7635
2099.0192 0.000476 1450.0175 1918.8048
2091.8213 0.000478 1450.2745 1949.8819
2120.6721 0.000472 1450.5315 1985.1474
2196.1908 0.000455 1450.7886 2023.2893
2250.5261 0.000444 1451.0456 2062.6931
2286.7862 0.000437 1451.3026 2101.5663
2328.3143 0.000429 1451.5596 2137.9998
2394.6770 0.000418 1451.8167 2170.0842
2424.8902 0.000412 1452.0737 2196.2524
2372.7311 0.000421 1452.3307 2215.8052
2326.6535 0.000430 1452.5877 2229.2599
2366.7231 0.000423 1452.8448 2238.1799
2384.0965 0.000419 1453.1018 2244.5504
2410.0068 0.000415 1453.3588 2250.0897
2359.6033 0.000424 1453.6158 2255.7923
2402.6975 0.000416 1453.8729 2261.7061
2460.1622 0.000406 1454.1299 2266.8351
2439.5246 0.000410 1454.3556 2269.1543
2362.1962 0.000423 1454.5813 2266.0586
2362.1145 0.000423 1454.8070 2255.0281
2294.0712 0.000436 1455.0327 2234.6058
2240.7458 0.000446 1455.2583 2205.0238
2199.7250 0.000455 1455.4840 2168.1056
2140.3242 0.000467 1455.7097 2126.5495
2154.6184 0.000464 1455.9354 2083.0827
2119.7185 0.000472 1456.1611 2039.8977
2090.0288 0.000478 1456.3868 1998.4424
2013.2253 0.000497 1456.6125 1959.4178
2054.5547 0.000487 1456.8382 1922.8561
1938.3479 0.000516 1457.0639 1888.2705
2007.8164 0.000498 1457.2896 1854.9206
1898.7496 0.000527 1457.5153 1822.1655
1922.8404 0.000520 1457.7410 1789.7562
1838.1252 0.000544 1457.9667 1757.9122
1868.9502 0.000535 1458.1924 1727.1688
1825.5727 0.000548 1458.4181 1698.1269
1789.1013 0.000559 1458.6437 1671.2844
1788.0790 0.000559 1458.8694 1646.9595
1748.6753 0.000572 1459.0951 1625.3056
1734.4681 0.000577 1459.3208 1606.3413
1735.8656 0.000576 1459.5465 1590.0082
1645.6908 0.000608 1459.7722 1576.1899
1670.4764 0.000599 1459.9979 1564.7376
1647.7471 0.000607 1460.2236 1555.4865
1607.5157 0.000622 1460.4493 1548.2776
1646.3916 0.000607 1460.6750 1542.9327
1597.2483 0.000626 1460.9007 1539.3170
1577.2267 0.000634 1461.1264 1537.3031
1555.0017 0.000643 1461.3521 1536.7858
1607.2808 0.000622 1461.5778 1537.6732
1573.2460 0.000636 1461.8035 1539.8812
1584.6804 0.000631 1462.0291 1543.3168
1593.8600 0.000627 1462.2548 1547.8734
1633.0504 0.000612 1462.4805 1553.4104
1665.8457 0.000600 1462.7062 1559.7368
1578.8552 0.000633 1462.9319 1566.5916
1614.3730 0.000619 1463.1576 1573.6282
1617.7797 0.000618 1463.3833 1580.3880
1649.2462 0.000606 1463.6090 1586.3544
1630.6847 0.000613 1463.7982 1590.9814
1714.6970 0.000583 1463.9875 1593.9471
1747.8566 0.000572 1464.1767 1595.1797
1724.0594 0.000580 1464.3660 1594.9415
1588.5563 0.000630 1464.5552 1593.7478
1622.1453 0.000616 1464.7444 1592.2108
1647.1688 0.000607 1464.9337 1590.8862
1607.4456 0.000622 1465.1229 1590.1987
1674.8276 0.000597 1465.3122 1590.3792
1610.8775 0.000621 1465.5014 1591.5047
1613.7410 0.000620 1465.6907 1593.3842
1680.9714 0.000595 1465.8799 1595.7677
1610.0347 0.000621 1466.0691 1598.2833
1635.6232 0.000611 1466.2584 1600.5406
1646.7554 0.000607 1466.4476 1602.1891
1577.5659 0.000634 1466.6369 1602.9339
1618.9236 0.000618 1466.8261 1602.5201
1648.4853 0.000607 1467.0153 1600.7376
1612.9647 0.000620 1467.2046 1597.4911
1571.5293 0.000636 1467.3938 1592.8666
1606.3842 0.000623 1467.5831 1587.1625
1626.5898 0.000615 1467.7723 1580.8368
1603.6302 0.000624 1467.9615 1574.3300
1605.8941 0.000623 1468.1508 1568.0530
1568.7590 0.000637 1468.3400 1562.2715
1623.7000 0.000616 1468.5293 1557.1056
1539.6194 0.000650 1468.7185 1552.5367
1516.2943 0.000660 1468.9077 1548.4740
1568.5181 0.000638 1469.0970 1544.6073
1574.8573 0.000635 1469.2862 1540.7421
1578.4255 0.000634 1469.4755 1536.6890
1643.6170 0.000608 1469.6647 1532.4164
1526.6468 0.000655 1469.8539 1527.8657
1550.5146 0.000645 1470.0432 1523.2078
1548.1041 0.000646 1470.2324 1518.5930
1627.7907 0.000614 1470.4217 1514.1568
1568.9976 0.000637 1470.6109 1510.0010
1499.9497 0.000667 1470.8002 1506.1916
1556.0947 0.000643 1470.9894 1502.7644
1553.2664 0.000644 1471.1786 1499.7320
1451.8321 0.000689 1471.3679 1497.1128
1448.7077 0.000690 1471.5571 1494.8419
1467.5759 0.000681 1471.7029 1492.8716
1510.7330 0.000662 1471.8486 1491.2366
1556.5871 0.000642 1471.9943 1489.8526
1452.3748 0.000689 1472.1401 1488.7072
1497.5974 0.000668 1472.2858 1487.7655
1444.5106 0.000692 1472.4315 1486.9952
1425.8984 0.000701 1472.5773 1486.3677
1515.9102 0.000660 1472.7230 1486.0299
1510.0822 0.000662 1472.8687 1485.6219
1450.4949 0.000689 1473.0145 1485.2971
1412.0557 0.000708 1473.1602 1485.0434
1516.9490 0.000659 1473.3059 1484.8527
1509.8567 0.000662 1473.4517 1484.7192
1479.0293 0.000676 1473.5974 1484.5536
1493.9893 0.000669 1473.7432 1484.5285
1515.9255 0.000660 1473.8889 1484.5557
1473.2603 0.000679 1474.0346 1484.6346
1470.0262 0.000680 1474.1804 1484.7637
1414.6380 0.000707 1474.3261 1485.1120
1456.3954 0.000687 1474.4718 1485.3317
1532.7117 0.000652 1474.6176 1485.6705
1509.4850 0.000662 1474.7633 1485.9460
1400.4496 0.000714 1474.9090 1486.2289
1404.8268 0.000712 1475.0548 1486.5044
1452.6571 0.000688 1475.2005 1486.7154
1438.4812 0.000695 1475.3463 1486.9377
1466.0504 0.000682 1475.4920 1487.1181
1514.2647 0.000660 1475.6377 1487.2481
1469.8280 0.000680 1475.7835 1487.3211
1553.3731 0.000644 1475.9292 1487.3347
1475.6907 0.000678 1476.0749 1487.2933
1436.7053 0.000696 1476.2207 1487.2947
1468.2935 0.000681 1476.3664 1487.1821
1497.5086 0.000668 1476.5121 1487.0553
1497.1082 0.000668 1476.6579 1486.9246
1418.7115 0.000705 1476.8036 1486.7961
1457.2660 0.000686 1476.9493 1486.6719
1458.1242 0.000686 1477.0951 1486.5519
1439.2954 0.000695 1477.2408 1486.4340
1449.1907 0.000690 1477.3866 1486.3147
1435.1218 0.000697 1477.5323 1486.1898
1546.1937 0.000647 1477.6780 1486.0563
1506.9233 0.000664 1477.7760 1485.8668
1480.8748 0.000675 1477.8739 1485.6731
1427.5240 0.000701 1477.9718 1485.5203
1490.8243 0.000671 1478.0698 1485.0371
1452.2201 0.000689 1478.1677 1484.8742
1478.0698 0.000677 1478.2656 1484.7308
1511.8903 0.000661 1478.3636 1484.6091
1513.1883 0.000661 1478.4615 1484.5104
1442.5504 0.000693 1478.5595 1484.4348
1555.6711 0.000643 1478.6574 1484.3815
1518.7197 0.000658 1478.7553 1484.3492
1453.9173 0.000688 1478.8533 1484.3365
1544.2851 0.000648 1478.9512 1484.3413
1481.2522 0.000675 1479.0491 1484.3620
1473.7744 0.000679 1479.1471 1484.2449
1476.6535 0.000677 1479.2450 1484.3130
1461.1267 0.000684 1479.3429 1484.3724
1469.5501 0.000680 1479.4409 1484.4410
1456.9758 0.000686 1479.5388 1484.5178
1542.3841 0.000648 1479.6368 1484.0897
1471.3675 0.000680 1479.7347 1484.1871
1492.8716 0.000670 1479.8326 1484.2905
1501.4633 0.000666 1479.9306 1484.3998
1470.9261 0.000680 1480.0285 1484.5148
1477.1864 0.000677 1480.1264 1484.5441
1464.4169 0.000683 1480.2244 1484.6723
1508.1785 0.000663 1480.3223 1484.8070
1588.4615 0.000630 1480.4202 1484.9488
1503.2707 0.000665 1480.5182 1485.0985
1428.3937 0.000700 1480.6161 1485.2574
1463.6020 0.000683 1480.7141 1485.0142
1445.0620 0.000692 1480.8120 1484.9470
1482.7963 0.000674 1480.9099 1485.1520
1440.8115 0.000694 1481.0079 1485.3743
1486.0312 0.000673 1481.1058 1485.6173
1433.8336 0.000697 1481.2037 1485.8846
1442.5402 0.000693 1481.3017 1486.1351
1522.9735 0.000657 1481.3996 1486.4649
1491.2585 0.000671 1481.4975 1486.8328
1560.5847 0.000641 1481.5955 1487.2438
1519.1190 0.000658 1481.6934 1487.7027
1521.4873 0.000657 1481.7914 1488.0997
1479.5026 0.000676 1481.8457 1488.5320
1470.6196 0.000680 1481.9000 1489.1154
1478.2640 0.000676 1481.9543 1489.7559
1477.5867 0.000677 1482.0086 1490.4504
1479.4053 0.000676 1482.0629 1491.1923
1494.3840 0.000669 1482.1172 1491.9725
1525.0790 0.000656 1482.1715 1492.7807
1515.3308 0.000660 1482.2258 1493.6065
1439.0097 0.000695 1482.2801 1494.4404
1457.8448 0.000686 1482.3344 1495.2735
1486.8583 0.000673 1482.3888 1496.0965
1518.6252 0.000658 1482.4431 1496.9000
1525.2196 0.000656 1482.4974 1497.6727
1500.8895 0.000666 1482.5517 1498.3988
1500.9758 0.000666 1482.6060 1499.0548
1518.4484 0.000659 1482.6603 1499.6112
1536.0857 0.000651 1482.7146 1500.0392
1536.1646 0.000651 1482.7689 1500.3220
1505.9523 0.000664 1482.8232 1500.4645
1490.1443 0.000671 1482.8775 1500.4944
1442.4556 0.000693 1482.9318 1500.4553
1471.8715 0.000679 1482.9862 1500.3957
1522.9331 0.000657 1483.0405 1500.3611
1528.9915 0.000654 1483.0948 1500.3901
1500.0577 0.000667 1483.1491 1500.5143
1531.2694 0.000653 1483.2034 1500.7580
1533.1110 0.000652 1483.2577 1501.1383
1611.1834 0.000621 1483.3120 1501.6661
1555.8997 0.000643 1483.3663 1502.3479
1509.0938 0.000663 1483.4206 1503.1915
1502.2676 0.000666 1483.4749 1504.1017
1499.0811 0.000667 1483.5292 1505.3123
1521.9925 0.000657 1483.5836 1506.7320
1528.8269 0.000654 1483.6379 1508.3714
1547.4861 0.000646 1483.6922 1510.2266
1544.2144 0.000648 1483.7465 1512.2739
1522.0907 0.000657 1483.8008 1514.4653
1602.0715 0.000624 1483.8551 1516.7252
1572.2961 0.000636 1483.9094 1518.9508
1555.9171 0.000643 1483.9637 1521.0193
1574.1139 0.000635 1484.0180 1522.8101
1543.4427 0.000648 1484.0723 1524.2393
1532.2021 0.000653 1484.0856 1525.2003
1542.3722 0.000648 1484.0990 1525.9180
1560.5954 0.000641 1484.1123 1526.4879
1559.3842 0.000641 1484.1256 1527.0975
1544.9651 0.000647 1484.1389 1527.9352
1591.5258 0.000628 1484.1522 1529.0779
1592.4167 0.000628 1484.1655 1530.8296
1541.0996 0.000649 1484.1788 1533.1872
1613.6656 0.000620 1484.1922 1536.1920
1608.9802 0.000622 1484.2055 1539.8406
1623.0516 0.000616 1484.2188 1544.0889
1606.1081 0.000623 1484.2321 1548.8621
1603.0349 0.000624 1484.2454 1554.0673
1633.9637 0.000612 1484.2587 1559.5979
1608.8725 0.000622 1484.2720 1565.3254
1549.0601 0.000646 1484.2854 1571.0783
1589.8193 0.000629 1484.2987 1576.6293
1611.5203 0.000621 1484.3120 1581.6612
1592.3014 0.000628 1484.3253 1585.9841
1629.8255 0.000614 1484.3386 1589.3328
1617.7693 0.000618 1484.3519 1591.5991
1617.3292 0.000618 1484.3652 1592.8223
1638.2662 0.000610 1484.3785 1593.2895
1630.5816 0.000613 1484.3919 1593.1474
1627.4541 0.000614 1484.4052 1592.9047
1644.5735 0.000608 1484.4185 1592.9980
1678.2385 0.000596 1484.4318 1593.8170
1629.5424 0.000614 1484.4451 1595.6605
1615.1481 0.000619 1484.4584 1598.7171
1651.4264 0.000606 1484.4717 1603.0662
1705.9389 0.000586 1484.4851 1608.6993
1721.1181 0.000581 1484.4984 1615.5453
1672.5686 0.000598 1484.5117 1623.5014
1699.8806 0.000588 1484.5250 1632.4494
1686.4504 0.000593 1484.5383 1642.2562
1727.6191 0.000579 1484.5516 1652.7558
1775.8128 0.000563 1484.5649 1663.7601
1796.8529 0.000557 1484.5783 1674.8294
1792.0320 0.000558 1484.5916 1685.5329
1738.8577 0.000575 1484.6049 1695.3146
1735.9310 0.000576 1484.6182 1703.6799
1769.5460 0.000565 1484.6315 1710.3824
1851.5910 0.000540 1484.6448 1715.5520
1840.6843 0.000543 1484.6581 1719.6682
1794.5025 0.000557 1484.6715 1723.3864
1786.7777 0.000560 1484.6848 1727.3122
1754.1209 0.000570 1484.6981 1731.8187
1781.2927 0.000561 1484.7114 1736.9422
1826.1559 0.000548 1484.7247 1742.3428
1798.8255 0.000556 1484.7380 1747.3243
1799.6446 0.000556 1484.7513 1750.9295
1797.9947 0.000556 1484.7646 1752.1356
1794.4776 0.000557 1484.7780 1750.1316
1745.1978 0.000573 1484.7913 1744.5783
1756.4042 0.000569 1484.8046 1735.7202
1739.8940 0.000575 1484.8179 1724.3007
1723.1553 0.000580 1484.8312 1711.3122
1713.7208 0.000584 1484.8445 1697.7481
1709.1866 0.000585 1484.8578 1684.4203
1711.9990 0.000584 1484.8712 1671.8728
1685.7359 0.000593 1484.8845 1660.3813
1721.0789 0.000581 1484.8978 1649.9552
1760.6046 0.000568 1484.9111 1640.4012
1774.7730 0.000563 1484.9244 1631.4014
1733.5755 0.000577 1484.9377 1622.6284
1701.2255 0.000588 1484.9510 1613.8650
1696.1771 0.000590 1484.9644 1605.0756
1682.0861 0.000594 1484.9777 1596.4003
1611.8778 0.000620 1484.9910 1588.0735
1571.8422 0.000636 1485.0043 1580.3390
1582.6213 0.000632 1485.0176 1573.3887
1590.9669 0.000629 1485.0309 1567.3372
1558.1320 0.000642 1485.0442 1562.2277
1559.0796 0.000641 1485.0576 1558.0282
1570.2691 0.000637 1485.0709 1554.6446
1539.5035 0.000650 1485.0842 1551.9240
1565.4179 0.000639 1485.0975 1549.6640
1607.2370 0.000622 1485.1108 1547.6335
1572.9547 0.000636 1485.1241 1545.6115
1507.0840 0.000664 1485.1374 1543.4352
1525.8813 0.000655 1485.1507 1541.0363
1578.5659 0.000633 1485.1641 1538.4451
1606.5925 0.000622 1485.1774 1535.7600
1625.0685 0.000615 1485.1907 1533.3145
1622.2873 0.000616 1485.1630 1530.7553
1583.5832 0.000631 1485.1353 1528.4065
1533.8634 0.000652 1485.1076 1526.3015
1501.2994 0.000666 1485.0800 1524.4322
1506.9487 0.000664 1485.0523 1522.7528
1500.9256 0.000666 1485.0246 1521.1860
1524.0870 0.000656 1484.9969 1519.6371
1536.7331 0.000651 1484.9692 1518.0161
1538.7375 0.000650 1484.9416 1516.2622
1540.5580 0.000649 1484.9139 1514.3602
1546.6651 0.000647 1484.8862 1512.3394
1538.7666 0.000650 1484.8585 1510.2569
1483.5559 0.000674 1484.8308 1508.4876
1471.9634 0.000679 1484.8031 1506.4720
1504.0735 0.000665 1484.7755 1504.5602
1555.5859 0.000643 1484.7478 1502.7820
1526.9279 0.000655 1484.7201 1501.1550
1531.7244 0.000653 1484.6924 1499.6875
1565.8626 0.000639 1484.6647 1498.3806
1547.5129 0.000646 1484.6371 1497.2295
1541.7240 0.000649 1484.6094 1496.2252
1529.7933 0.000654 1484.5817 1495.3554
1464.5267 0.000683 1484.5540 1494.6061
1454.3524 0.000688 1484.5263 1493.9622
1504.9453 0.000664 1484.4987 1493.4088
1547.2115 0.000646 1484.4710 1492.9317
1549.1880 0.000645 1484.4433 1492.6213
1486.0820 0.000673 1484.4156 1492.2613
1509.2400 0.000663 1484.3879 1491.9439
1510.4484 0.000662 1484.3602 1491.6614
1480.2665 0.000676 1484.3326 1491.4073
1473.9342 0.000678 1484.3049 1491.1766
1488.5966 0.000672 1484.2772 1490.9657
1492.6860 0.000670 1484.2495 1490.7718
1486.4791 0.000673 1484.2218 1490.5927
1488.5176 0.000672 1484.1942 1490.4269
1489.3839 0.000671 1484.1665 1490.2732
1527.0385 0.000655 1484.1388 1490.1305
1551.2401 0.000645 1484.1111 1489.9960
1561.6055 0.000640 1484.0834 1489.8730
1529.3956 0.000654 1484.0558 1489.7588
1480.7276 0.000675 1484.0281 1489.6526
1446.1157 0.000692 1483.9620 1489.5128
1492.0349 0.000670 1483.8960 1489.3827
1489.7050 0.000671 1483.8299 1489.2592
1495.0980 0.000669 1483.7639 1489.1418
1520.5334 0.000658 1483.6978 1489.0305
1476.7732 0.000677 1483.6318 1488.9252
1523.8573 0.000656 1483.5658 1488.8259
1495.5984 0.000669 1483.4997 1488.7255
1498.3478 0.000667 1483.4337 1488.6376
1499.4629 0.000667 1483.3676 1488.5569
1535.8909 0.000651 1483.3016 1488.4826
1525.3635 0.000656 1483.2355 1488.4145
1502.4800 0.000666 1483.1695 1488.4255
1452.6906 0.000688 1483.1035 1488.3697
1513.8208 0.000661 1483.0374 1488.3218
1526.1675 0.000655 1482.9714 1488.2804
1491.8262 0.000670 1482.9053 1488.2459
1446.5935 0.000691 1482.8393 1488.2183
1486.0264 0.000673 1482.7732 1488.1981
1577.1608 0.000634 1482.7072 1488.1809
1585.1842 0.000631 1482.6411 1488.1764
1543.9282 0.000648 1482.5751 1488.1815
1528.1296 0.000654 1482.5091 1488.1947
1477.5937 0.000677 1482.4430 1488.2177
1495.3998 0.000669 1482.3770 1488.2512
1482.0814 0.000675 1482.3109 1488.2961
1492.8934 0.000670 1482.2449 1488.3896
1503.7880 0.000665 1482.1788 1488.4605
1496.5787 0.000668 1482.1128 1488.5462
1503.4466 0.000665 1482.0467 1488.6482
1512.1721 0.000661 1481.9807 1488.7684
1509.8463 0.000662 1481.9147 1488.9095
1537.2292 0.000651 1481.8486 1489.0447
1528.6487 0.000654 1481.7826 1489.2381
1509.3123 0.000663 1481.7165 1489.4650
1549.3393 0.000645 1481.6505 1489.7328
1510.1892 0.000662 1481.5844 1490.0512
1495.1229 0.000669 1481.5184 1490.4332
1565.3834 0.000639 1481.4523 1490.8957
1542.4402 0.000648 1481.3863 1491.4607
1526.9360 0.000655 1481.3203 1492.1562
1473.1014 0.000679 1481.2542 1493.0168
1424.3699 0.000702 1481.5922 1494.4879
1477.2296 0.000677 1481.9303 1496.2137
1514.7841 0.000660 1482.2683 1498.2482
1560.8044 0.000641 1482.6063 1500.6346
1552.0697 0.000644 1482.9444 1503.4612
1528.8193 0.000654 1483.2824 1506.7681
1491.2244 0.000671 1483.6204 1510.6021
1556.3313 0.000643 1483.9585 1514.9956
1576.3918 0.000634 1484.2965 1519.9608
1541.4559 0.000649 1484.6345 1525.4807
1556.0660 0.000643 1484.9726 1531.4585
1581.8558 0.000632 1485.3106 1537.8915
1514.5601 0.000660 1485.6486 1544.5827
1513.2173 0.000661 1485.9867 1551.2670
1546.4045 0.000647 1486.3247 1557.7502
1628.9718 0.000614 1486.6627 1563.6239
1510.0668 0.000662 1487.0008 1568.4969
1576.2967 0.000634 1487.3388 1572.0194
1597.3175 0.000626 1487.6768 1573.9794
1546.0376 0.000647 1488.0149 1574.3758
1570.0000 0.000637 1488.3529 1573.4237
1566.2776 0.000638 1488.6909 1571.4864
1564.5273 0.000639 1489.0289 1568.9517
1608.8030 0.000622 1489.3670 1566.2369
1556.0605 0.000643 1489.7050 1563.6019
1554.7786 0.000643 1490.0430 1561.2240
1565.3569 0.000639 1490.3811 1559.1505
1560.1588 0.000641 1490.7191 1557.4023
1577.0893 0.000634 1491.0571 1555.8409
1593.2418 0.000628 1491.3952 1554.2896
1527.4079 0.000655 1491.7332 1552.5502
1587.2617 0.000630 1492.0712 1550.4595
1569.6630 0.000637 1492.4093 1547.9353
1584.7250 0.000631 1492.7473 1544.8331
1527.1568 0.000655 1493.0853 1541.6020
1591.2571 0.000628 1493.4234 1538.2189
1637.5942 0.000611 1493.7614 1534.8359
1561.4761 0.000640 1494.0994 1531.5800
1550.7315 0.000645 1494.4375 1528.5456
1585.9519 0.000631 1494.7755 1525.7974
1514.4384 0.000660 1495.1135 1523.3745
1577.9820 0.000634 1495.4515 1521.2967
1614.5309 0.000619 1495.7489 1519.5271
1536.8657 0.000651 1496.0462 1518.0985
1480.9686 0.000675 1496.3435 1516.8231
1431.4933 0.000699 1496.6409 1515.9358
1566.6696 0.000638 1496.9382 1515.4166
1521.8491 0.000657 1497.2355 1515.1319
1505.7615 0.000664 1497.5329 1515.0632
1505.2406 0.000664 1497.8302 1515.1845
1563.2223 0.000640 1498.1275 1515.4746
1553.4754 0.000644 1498.4249 1515.9168
1574.1148 0.000635 1498.7222 1516.4996
1529.7681 0.000654 1499.0195 1517.2175
1547.1274 0.000646 1499.3169 1518.0715
1567.9518 0.000638 1499.6142 1519.0697
1527.9725 0.000654 1499.9115 1520.2284
1554.4992 0.000643 1500.2089 1521.4881
1561.3319 0.000640 1500.5062 1523.0561
1582.7165 0.000632 1500.8035 1524.8953
1579.8163 0.000633 1501.1008 1527.0738
1576.3060 0.000634 1501.3982 1529.6608
1556.3189 0.000643 1501.6955 1532.7553
1532.2748 0.000653 1501.9928 1536.4721
1579.4869 0.000633 1502.2902 1540.9262
1587.3544 0.000630 1502.5875 1546.2543
1612.8773 0.000620 1502.8848 1552.5915
1590.5109 0.000629 1503.1822 1560.0674
1633.1677 0.000612 1503.4795 1568.7949
1612.8649 0.000620 1503.7768 1578.8598
1669.7779 0.000599 1504.0742 1590.3088
1720.0646 0.000581 1504.3715 1603.1312
1665.7838 0.000600 1504.6688 1617.2171
1742.0854 0.000574 1504.9662 1632.4769
1758.8563 0.000569 1505.2635 1648.6068
1737.4981 0.000576 1505.5608 1665.2084
1710.1965 0.000585 1505.8581 1681.7361
1715.2078 0.000583 1506.1555 1697.5115
1739.1243 0.000575 1506.4528 1711.7872
1719.1777 0.000582 1506.7501 1723.9118
1702.6528 0.000587 1507.0475 1733.5196
1770.4311 0.000565 1507.3448 1740.6873
1807.4108 0.000553 1507.6421 1745.9463
1761.0913 0.000568 1507.9395 1750.1339
1764.8053 0.000567 1508.1941 1754.1214
1794.3806 0.000557 1508.4488 1758.7137
1848.9197 0.000541 1508.7035 1764.4725
1888.2885 0.000530 1508.9581 1771.5720
1851.9402 0.000540 1509.2128 1779.8595
1791.4327 0.000558 1509.4675 1788.8188
1821.2469 0.000549 1509.7221 1797.5824
1841.5729 0.000543 1509.9768 1804.9971
1795.1348 0.000557 1510.2315 1809.7913
1816.1949 0.000551 1510.4862 1810.8529
1867.8898 0.000535 1510.7408 1807.5456
1766.1621 0.000566 1510.9955 1799.9120
1819.7701 0.000550 1511.2502 1788.6458
1807.0901 0.000553 1511.5048 1774.8546
1802.0480 0.000555 1511.7595 1759.7532
1781.2576 0.000561 1512.0142 1744.4247
1748.4928 0.000572 1512.2688 1729.8979
1767.6479 0.000566 1512.5235 1716.3079
1733.7095 0.000577 1512.7782 1704.1127
1751.5641 0.000571 1513.0328 1693.3175
1723.7427 0.000580 1513.2875 1683.7085
1637.4885 0.000611 1513.5422 1674.9012
1717.3694 0.000582 1513.7968 1666.4336
1575.0425 0.000635 1514.0515 1657.8786
1656.7343 0.000604 1514.3062 1648.9744
1625.4024 0.000615 1514.5608 1639.6302
1609.6244 0.000621 1514.8155 1629.9892
1656.7854 0.000604 1515.0702 1620.2946
1639.9392 0.000610 1515.3248 1610.8168
1633.2978 0.000612 1515.5795 1601.7943
1654.7971 0.000604 1515.8342 1593.4106
1574.7273 0.000635 1516.0888 1585.8964
1627.4841 0.000614 1516.3435 1579.1340
1581.1963 0.000632 1516.5982 1573.2744
1610.7958 0.000621 1516.8529 1568.3878
1556.9387 0.000642 1517.1075 1564.3925
1570.7020 0.000637 1517.3622 1561.3245
1568.2839 0.000638 1517.6169 1559.1668
1645.8132 0.000608 1517.8715 1557.8950
1586.4188 0.000630 1518.1262 1557.4863
1498.1091 0.000668 1518.3809 1557.8925
1603.9560 0.000623 1518.6355 1559.0810
1631.3978 0.000613 1518.8482 1560.9632
1579.1328 0.000633 1519.0610 1563.5238
1496.6216 0.000668 1519.2737 1566.6905
1567.9669 0.000638 1519.4864 1570.3701
1518.9852 0.000658 1519.6991 1574.4423
1590.6001 0.000629 1519.9118 1578.7516
1548.6191 0.000646 1520.1246 1583.1224
1541.2060 0.000649 1520.3373 1587.2674
1622.3831 0.000616 1520.5500 1590.9273
1559.7762 0.000641 1520.7627 1593.8117
1600.7830 0.000625 1520.9754 1595.6750
1622.0673 0.000616 1521.1882 1596.3815
1587.7706 0.000630 1521.4009 1595.9508
1562.7376 0.000640 1521.6136 1594.5552
1570.5397 0.000637 1521.8263 1592.4674
1615.7819 0.000619 1522.0390 1589.9896
1636.8405 0.000611 1522.2518 1587.3933
1552.8404 0.000644 1522.4645 1584.8857
1547.8087 0.000646 1522.6772 1582.5985
1621.6568 0.000617 1522.8899 1580.5887
1566.6035 0.000638 1523.1026 1578.8434
1606.7178 0.000622 1523.3154 1577.2879
1601.2887 0.000624 1523.5281 1575.7990
1537.4915 0.000650 1523.7408 1574.2278
1544.0323 0.000648 1523.9535 1572.4358
1595.3900 0.000627 1524.1662 1570.3320
1562.5324 0.000640 1524.3790 1567.8982
1603.0857 0.000624 1524.5917 1565.1869
1527.0650 0.000655 1524.8044 1562.2975
1511.0000 0.000662 1525.0171 1559.3836
1558.6293 0.000642 1525.2298 1556.4706
1548.8425 0.000646 1525.4426 1553.6811
1566.5869 0.000638 1525.6553 1551.0751
1620.6557 0.000617 1525.8680 1548.6920
1593.8783 0.000627 1526.0807 1546.5544
1512.8191 0.000661 1526.2934 1544.6719
1492.0825 0.000670 1526.5062 1543.0432
1509.7891 0.000662 1526.7189 1541.6588
1557.9695 0.000642 1526.9316 1540.5028
1485.2187 0.000673 1527.1443 1539.5551
1607.5597 0.000622 1527.3570 1538.7927
1518.4510 0.000659 1527.5698 1538.1919
1554.8931 0.000643 1527.7417 1537.6883
1589.4208 0.000629 1527.9137 1537.3004
1589.2106 0.000629 1528.0856 1537.0280
1576.0665 0.000634 1528.2576 1536.8135
1530.9764 0.000653 1528.4295 1536.6610
1516.8391 0.000659 1528.6015 1536.5572
1476.6220 0.000677 1528.7734 1536.4909
1466.7849 0.000682 1528.9454 1536.4529
1472.4756 0.000679 1529.1174 1536.4361
1491.9297 0.000670 1529.2893 1536.4358
1475.2472 0.000678 1529.4613 1536.4695
1528.6146 0.000654 1529.6332 1536.4963
1546.7715 0.000647 1529.8052 1536.5365
1507.0184 0.000664 1529.9771 1536.5912
1531.0118 0.000653 1530.1491 1536.5702
1533.6011 0.000652 1530.3210 1536.6588
1562.9566 0.000640 1530.4930 1536.7654
1534.3317 0.000652 1530.6650 1536.8908
1567.3320 0.000638 1530.8369 1537.0357
1546.6154 0.000647 1531.0089 1537.2006
1538.7510 0.000650 1531.1808 1537.3855
1519.8168 0.000658 1531.3528 1537.5907
1521.9383 0.000657 1531.5247 1537.8164
1484.9219 0.000673 1531.6967 1538.0633
1576.7512 0.000634 1531.8686 1538.3322
1617.6842 0.000618 1532.0406 1538.6346
1536.7718 0.000651 1532.2126 1538.9517
1552.3537 0.000644 1532.3845 1539.2547
1536.2021 0.000651 1532.5565 1539.6242
1518.1906 0.000659 1532.7284 1540.0199
1519.6175 0.000658 1532.9004 1540.4413
1505.1416 0.000664 1533.0723 1540.8881
1546.3990 0.000647 1533.2443 1541.3608
1512.7687 0.000661 1533.4162 1541.8609
1513.3849 0.000661 1533.5882 1542.3919
1500.6952 0.000666 1533.7602 1542.9585
1489.1700 0.000672 1533.9321 1543.5663
1541.5665 0.000649 1534.1041 1544.2209
1559.7871 0.000641 1534.2760 1544.9264
1553.8031 0.000644 1534.4480 1545.6836
1521.3401 0.000657 1534.6199 1546.4880
1546.1780 0.000647 1534.7919 1547.3283
1554.0108 0.000643 1534.9239 1548.1581
1506.6051 0.000664 1535.0560 1548.9630
1517.8762 0.000659 1535.1880 1549.7197
1529.9496 0.000654 1535.3201 1550.3883
1507.8952 0.000663 1535.4522 1550.9320
1573.9508 0.000635 1535.5842 1551.3270
1527.5935 0.000655 1535.7163 1551.5702
1551.9154 0.000644 1535.8483 1551.6814
1565.5768 0.000639 1535.9804 1551.6981
1529.6343 0.000654 1536.1124 1551.6661
1518.6591 0.000658 1536.2445 1551.6311
1536.5529 0.000651 1536.3765 1551.6314
1555.5512 0.000643 1536.5086 1551.6953
1512.3983 0.000661 1536.6406 1551.8402
1558.2981 0.000642 1536.7727 1552.0719
1565.3822 0.000639 1536.9047 1552.3909
1541.2147 0.000649 1537.0368 1552.7722
1500.8182 0.000666 1537.1689 1553.2013
1515.7455 0.000660 1537.3009 1553.6432
1567.0383 0.000638 1537.4330 1554.0733
1540.3332 0.000649 1537.5650 1554.4682
1537.8754 0.000650 1537.6971 1554.8132
1550.3672 0.000645 1537.8291 1555.1033
1564.4921 0.000639 1537.9612 1555.3433
1494.5724 0.000669 1538.0932 1555.5461
1489.8584 0.000671 1538.2253 1555.7298
1552.3250 0.000644 1538.3573 1555.9138
1597.9183 0.000626 1538.4894 1556.1145
1595.3479 0.000627 1538.6214 1556.3431
1561.6651 0.000640 1538.7535 1556.6043
1549.4456 0.000645 1538.8856 1556.8986
1596.0466 0.000627 1539.0176 1557.2248
1624.3939 0.000616 1539.1497 1557.5855
1629.4306 0.000614 1539.2817 1557.9817
1592.1503 0.000628 1539.4138 1558.4252
1533.3027 0.000652 1539.5458 1558.9311
1544.7466 0.000647 1539.6779 1559.3119
1559.2946 0.000641 1539.8099 1560.0113
1593.5337 0.000628 1539.9420 1560.8527
1608.0775 0.000622 1540.0740 1561.8788
1595.4917 0.000627 1540.2061 1563.1425
1579.6129 0.000633 1540.3381 1564.7068
1587.3814 0.000630 1540.4702 1566.6445
1550.4029 0.000645 1540.6022 1569.0387
1562.2195 0.000640 1540.7343 1571.9820
1574.5737 0.000635 1540.8664 1575.5765
1566.0992 0.000639 1540.9984 1579.9313
1595.0753 0.000627 1541.1305 1585.1586
1609.1832 0.000621 1541.2625 1591.3664
1604.1965 0.000623 1541.3946 1598.5455
1650.5484 0.000606 1541.5266 1606.7741
1641.7946 0.000609 1541.6587 1616.3876
1633.8452 0.000612 1541.7907 1627.1659
1615.6484 0.000619 1541.9228 1639.0305
1618.7672 0.000618 1542.0548 1651.8561
1689.7618 0.000592 1542.1869 1665.3291
1709.9917 0.000585 1542.3189 1679.1115
1713.0229 0.000584 1542.4510 1692.7018
1716.9499 0.000582 1542.5831 1705.4666
1680.6297 0.000595 1542.7151 1716.6813
1630.0272 0.000613 1542.8472 1725.6330
1676.7269 0.000596 1542.9792 1731.7774
1705.9140 0.000586 1543.1113 1734.8975
1681.7100 0.000595 1543.2433 1735.1813
1714.1157 0.000583 1543.3754 1733.0706
1752.4318 0.000571 1543.5074 1729.5117
1744.9330 0.000573 1543.6395 1725.1712
1762.3731 0.000567 1543.7715 1720.7104
1751.1213 0.000571 1543.9036 1716.6191
1697.3464 0.000589 1544.0356 1713.2165
1696.0837 0.000590 1544.1677 1710.6015
1724.5772 0.000580 1544.2998 1708.7581
1717.5366 0.000582 1544.4318 1707.5044
1715.8320 0.000583 1544.5639 1706.5216
1700.9883 0.000588 1544.6959 1705.3884
1667.3695 0.000600 1544.8280 1703.6498
1716.5338 0.000583 1544.9600 1700.9080
1724.0386 0.000580 1545.0921 1696.9056
1709.6815 0.000585 1545.2241 1691.5658
1722.0231 0.000581 1545.3562 1684.9816
1691.2715 0.000591 1545.4882 1677.3754
1669.1977 0.000599 1545.6203 1669.0484
1660.7464 0.000602 1545.7523 1660.3336
1665.8690 0.000600 1545.8844 1651.5549
1690.5512 0.000592 1545.9765 1642.9567
1736.1998 0.000576 1546.0687 1634.8084
1735.8923 0.000576 1546.1608 1627.2788
1684.8960 0.000594 1546.2530 1620.5820
1627.7961 0.000614 1546.3452 1614.5595
1617.5779 0.000618 1546.4373 1609.3094
1635.2524 0.000612 1546.5295 1604.7720
1600.6262 0.000625 1546.6216 1600.8502
1581.0146 0.000633 1546.7138 1597.4122
1601.2941 0.000624 1546.8059 1594.3200
1648.2081 0.000607 1546.8981 1591.3812
1614.4966 0.000619 1546.9902 1588.6582
1619.1403 0.000618 1547.0824 1586.0436
1596.3932 0.000626 1547.1745 1583.5451
1578.9445 0.000633 1547.2667 1581.1968
1590.7925 0.000629 1547.3588 1579.0436
1553.6034 0.000644 1547.4510 1577.1300
1577.6898 0.000634 1547.5431 1575.4953
1614.0653 0.000620 1547.6353 1574.1724
1535.0173 0.000651 1547.7274 1573.2397
1493.7408 0.000669 1547.8196 1572.6153
1564.2608 0.000639 1547.9117 1572.3653
1524.5602 0.000656 1548.0039 1572.6578
1530.3242 0.000653 1548.0960 1573.1744
1546.8710 0.000646 1548.1882 1574.0285
1571.0668 0.000637 1548.2803 1575.2723
1602.4155 0.000624 1548.3725 1576.8372
1550.0900 0.000645 1548.4646 1578.6762
1554.1863 0.000643 1548.5568 1580.7253
1537.4405 0.000650 1548.6489 1582.9000
1496.2788 0.000668 1548.7411 1585.0925
1483.4524 0.000674 1548.8332 1587.1718
1565.5825 0.000639 1548.9254 1588.9906
1572.6208 0.000636 1549.0176 1590.4035
1570.4939 0.000637 1549.1097 1591.2957
1553.4192 0.000644 1549.2019 1591.6137
1554.9838 0.000643 1549.2940 1591.3828
1580.5736 0.000633 1549.3862 1590.7804
1546.4390 0.000647 1549.4783 1589.7934
1539.8209 0.000649 1549.5705 1588.6584
1547.1762 0.000646 1549.6626 1587.5202
1575.2306 0.000635 1549.7548 1586.4952
1591.0656 0.000629 1549.8079 1585.6264
1583.4821 0.000632 1549.8610 1585.0007
1582.7926 0.000632 1549.9141 1584.6322
1603.9319 0.000623 1549.9672 1584.5033
1627.3744 0.000614 1550.0203 1584.5673
1674.8416 0.000597 1550.0734 1584.7549
1601.8424 0.000624 1550.1265 1584.9861
1606.5455 0.000622 1550.1797 1585.1869
1612.9432 0.000620 1550.2328 1585.3050
1527.3963 0.000655 1550.2859 1585.3160
1537.5644 0.000650 1550.3390 1585.3045
1589.8544 0.000629 1550.3921 1585.1111
1562.9822 0.000640 1550.4452 1584.8206
1546.1663 0.000647 1550.4983 1584.4193
1568.3483 0.000638 1550.5514 1583.8800
1596.6849 0.000626 1550.6046 1583.1738
1588.1880 0.000630 1550.6577 1582.8125
1571.9294 0.000636 1550.7108 1581.7649
1584.1357 0.000631 1550.7639 1580.5969
1564.9828 0.000639 1550.8170 1579.3766
1496.7660 0.000668 1550.8701 1578.1796
1552.3251 0.000644 1550.9232 1577.0745
1529.9247 0.000654 1550.9763 1576.1139
1542.9216 0.000648 1551.0294 1575.3309
1584.2532 0.000631 1551.0826 1574.7399
1573.9424 0.000635 1551.1357 1574.3360
1571.2890 0.000636 1551.1888 1574.1393
1598.6025 0.000626 1551.2419 1574.0282
1595.0481 0.000627 1551.2950 1573.9929
1583.5551 0.000631 1551.3481 1573.9737
1515.3231 0.000660 1551.4012 1573.9104
1523.7058 0.000656 1551.4543 1573.7535
1583.5862 0.000631 1551.5075 1573.7371
1599.2053 0.000625 1551.5606 1573.3332
1579.7051 0.000633 1551.6137 1572.8255
1519.3238 0.000658 1551.6668 1572.2527
1566.3362 0.000638 1551.7199 1571.6633
1570.9502 0.000637 1551.7730 1571.1045
1608.7893 0.000622 1551.8261 1570.9397
1563.7358 0.000639 1551.8792 1570.5629
1560.9559 0.000641 1551.9323 1570.3097
1572.4156 0.000636 1551.9855 1570.1876
1544.9447 0.000647 1552.0001 1570.1533
1552.4425 0.000644 1552.0147 1570.2291
1546.5391 0.000647 1552.0293 1570.3869
1518.4068 0.000659 1552.0439 1570.5874
1540.4158 0.000649 1552.0585 1570.7827
1563.9599 0.000639 1552.0731 1570.9215
1589.2315 0.000629 1552.0877 1570.9596
1569.6340 0.000637 1552.1024 1570.8866
1540.9265 0.000649 1552.1170 1570.6583
1500.7159 0.000666 1552.1316 1570.3115
1567.7541 0.000638 1552.1462 1569.8824
1552.7941 0.000644 1552.1608 1569.4137
1543.7438 0.000648 1552.1754 1569.1073
1566.0866 0.000639 1552.1900 1568.6803
1577.2333 0.000634 1552.2046 1568.3161
1462.0868 0.000684 1552.2192 1568.0296
1550.4256 0.000645 1552.2339 1567.8258
1600.8366 0.000625 1552.2485 1567.6997
1572.2014 0.000636 1552.2631 1567.6374
1519.6968 0.000658 1552.2777 1567.6161
1564.6529 0.000639 1552.2923 1567.6071
1528.0648 0.000654 1552.3069 1567.5737
1541.5150 0.000649 1552.3215 1567.4965
1593.0170 0.000628 1552.3361 1567.3638
1491.9337 0.000670 1552.3507 1567.1387
1579.4616 0.000633 1552.3654 1566.8355
1637.6206 0.000611 1552.3800 1566.4785
1597.7886 0.000626 1552.3946 1566.0855
1611.5722 0.000621 1552.4092 1565.6806
1551.7452 0.000644 1552.4238 1565.2861
1509.9415 0.000662 1552.4384 1564.9200
1621.0032 0.000617 1552.4530 1564.5961
1529.0041 0.000654 1552.4676 1564.3234
1510.9849 0.000662 1552.4822 1564.1051
1517.0621 0.000659 1552.4969 1563.9456
1604.3668 0.000623 1552.5115 1563.8388
1564.2340 0.000639 1552.5261 1563.7858
1579.1030 0.000633 1552.5407 1563.7779
1554.7250 0.000643 1552.5553 1563.8091
1550.3359 0.000645 1552.5699 1563.8749
1575.2261 0.000635 1552.5845 1563.9724
1597.9903 0.000626 1552.5991 1564.1095
1563.4858 0.000640 1552.5747 1564.2533
1516.6239 0.000659 1552.5502 1564.4552
1575.2149 0.000635 1552.5257 1564.7300
1540.6671 0.000649 1552.5013 1565.0943
1627.1500 0.000615 1552.4768 1565.5652
1595.9413 0.000627 1552.4524 1566.1592
1569.6657 0.000637 1552.4279 1566.8946
1547.2569 0.000646 1552.4034 1567.7857
1568.8338 0.000637 1552.3790 1568.8436
1546.7664 0.000647 1552.3545 1570.0796
1626.3306 0.000615 1552.3300 1571.4961
1469.2521 0.000681 1552.3056 1573.0896
1504.4324 0.000665 1552.2811 1574.8500
1570.0293 0.000637 1552.2566 1576.7534
1637.1235 0.000611 1552.2322 1578.7671
1637.9951 0.000611 1552.2077 1580.8426
1543.3853 0.000648 1552.1833 1582.9140
1597.2877 0.000626 1552.1588 1584.8978
1577.0922 0.000634 1552.1343 1586.6958
1557.2042 0.000642 1552.1099 1588.2054
1572.0865 0.000636 1552.0854 1589.3381
1579.5294 0.000633 1552.0609 1590.0410
1514.9631 0.000660 1552.0365 1590.3134
1553.7656 0.000644 1552.0120 1590.0085
1567.2797 0.000638 1551.9875 1589.6245
1611.3934 0.000621 1551.9631 1589.0718
1582.0253 0.000632 1551.9386 1588.4613
1497.8943 0.000668 1551.9141 1587.8870
1610.7003 0.000621 1551.8897 1587.4248
1655.8928 0.000604 1551.8652 1587.1230
1649.6210 0.000606 1551.8408 1587.0114
1567.8070 0.000638 1551.8163 1587.1000
1562.8605 0.000640 1551.7918 1587.3681
1539.1287 0.000650 1551.7674 1587.8226
1541.7585 0.000649 1551.7429 1588.4221
1538.4423 0.000650 1551.7184 1589.1414
1603.0594 0.000624 1551.6940 1589.9706
1659.8066 0.000602 1551.6695 1590.9271
1651.0433 0.000606 1551.6450 1591.9572
1556.1249 0.000643 1551.6206 1593.3369
1632.1035 0.000613 1551.5961 1595.0551
1597.9188 0.000626 1551.5716 1597.2045
1683.7154 0.000594 1551.5070 1599.7840
1617.5029 0.000618 1551.4424 1602.9905
1648.0949 0.000607 1551.3778 1606.8243
1654.2599 0.000604 1551.3132 1611.3051
1587.2629 0.000630 1551.2486 1616.4161
1619.2385 0.000618 1551.1840 1622.1276
1661.6951 0.000602 1551.1194 1628.3499
1556.0212 0.000643 1551.0548 1634.9542
1657.7489 0.000603 1550.9902 1641.7592
1669.9384 0.000599 1550.9256 1648.5271
1670.9922 0.000598 1550.8610 1654.9697
1666.0523 0.000600 1550.7964 1660.7740
1702.5139 0.000587 1550.7318 1665.6517
1693.1581 0.000591 1550.6672 1669.4128
1699.8707 0.000588 1550.6026 1672.0074
1743.0696 0.000574 1550.5380 1673.6430
1712.7620 0.000584 1550.4733 1674.6251
1725.6292 0.000579 1550.4087 1675.3779
1658.0406 0.000603 1550.3441 1676.3431
1746.0407 0.000573 1550.2795 1677.9171
1719.0692 0.000582 1550.2149 1680.4139
1734.3683 0.000577 1550.1503 1684.0478
1730.1991 0.000578 1550.0857 1688.9269
1727.1275 0.000579 1550.0211 1695.0490
1726.0452 0.000579 1549.9565 1702.2985
1786.9386 0.000560 1549.8919 1710.4422
1760.5656 0.000568 1549.8273 1719.1309
1720.1801 0.000581 1549.7627 1727.9099
1825.6341 0.000548 1549.6981 1736.2444
1745.3829 0.000573 1549.6335 1743.5598
1639.5462 0.000610 1549.5689 1749.2967
1800.5712 0.000555 1549.5043 1752.9770
1815.7339 0.000551 1549.4397 1754.2805
1753.6355 0.000570 1549.3750 1753.1186
1766.6348 0.000566 1549.3104 1749.6748
1755.0433 0.000570 1549.2458 1744.3746
1813.9824 0.000551 1549.1812 1737.8104
1785.8750 0.000560 1549.1166 1730.6230
1787.5873 0.000559 1549.0520 1723.4074
1777.0224 0.000563 1548.9874 1716.6532
1842.5856 0.000543 1548.9228 1710.6849
1740.7740 0.000574 1548.8582 1705.8192
1704.6098 0.000587 1548.7526 1702.0946
1871.0712 0.000534 1548.6470 1699.5648
1832.2083 0.000546 1548.5414 1698.1484
1689.3845 0.000592 1548.4358 1697.6870
1745.6894 0.000573 1548.3302 1697.9762
1804.9265 0.000554 1548.2245 1698.8144
1792.2936 0.000558 1548.1189 1700.0674
1774.0140 0.000564 1548.0133 1701.7226
1773.7709 0.000564 1547.9077 1703.9296
1841.0907 0.000543 1547.8021 1706.9844
1817.4362 0.000550 1547.6965 1711.2816
1848.0974 0.000541 1547.5909 1717.2607
1860.8729 0.000537 1547.4853 1725.3512
1896.0117 0.000527 1547.3797 1735.9180
1876.6560 0.000533 1547.2741 1749.3146
1876.4670 0.000533 1547.1684 1765.7453
1905.5149 0.000525 1547.0628 1785.3237
1993.5577 0.000502 1546.9572 1808.0296
1973.5087 0.000507 1546.8516 1833.6867
2014.2284 0.000496 1546.7460 1861.9435
1995.5442 0.000501 1546.6404 1892.2657
2026.7312 0.000493 1546.5348 1923.9446
2025.3673 0.000494 1546.4292 1956.0972
2079.7968 0.000481 1546.3236 1987.7538
2067.2461 0.000484 1546.2180 2017.7503
2149.5270 0.000465 1546.1123 2044.8007
2094.8211 0.000477 1546.0067 2067.5267
2119.3976 0.000472 1545.9011 2084.6076
2134.4885 0.000468 1545.7955 2095.0503
2176.6402 0.000459 1545.6899 2098.4922
2218.0689 0.000451 1545.5843 2095.3887
2141.7705 0.000467 1545.4787 2086.9694
2201.2102 0.000454 1545.3731 2074.9767
2222.9123 0.000450 1545.2675 2061.4780
2166.8767 0.000461 1545.1619 2047.8979
2106.0107 0.000475 1545.0562 2035.8211
2083.6501 0.000480 1544.9506 2026.2622
2156.1477 0.000464 1544.8450 2019.8241
2201.3826 0.000454 1544.7394 2016.7721
2141.3757 0.000467 1544.6338 2017.0147
2138.6006 0.000468 1544.5282 2020.1556
2036.7479 0.000491 1544.4226 2025.5366
2094.2377 0.000478 1544.2757 2032.1954
2120.7522 0.000472 1544.1287 2039.1117
2104.6341 0.000475 1543.9818 2045.2225
2118.0938 0.000472 1543.8349 2049.6132
2113.5918 0.000473 1543.6879 2051.6007
2093.0289 0.000478 1543.5410 2050.7107
2103.5736 0.000475 1543.3941 2046.5885
2108.0000 0.000474 1543.2471 2038.9347
2057.7327 0.000486 1543.1002 2027.6238
2016.0264 0.000496 1542.9533 2012.5000
2064.8324 0.000484 1542.8063 1994.0050
2055.2132 0.000487 1542.6594 1972.8851
2060.7280 0.000485 1542.5125 1950.1755
2036.1201 0.000491 1542.3655 1927.0117
1985.3469 0.000504 1542.2186 1904.4570
1928.9844 0.000518 1542.0717 1883.3445
2008.9989 0.000498 1541.9247 1864.2709
1938.8415 0.000516 1541.7778 1847.5251
1863.1874 0.000537 1541.6309 1833.1480
1866.1116 0.000536 1541.4839 1820.9524
1837.8995 0.000544 1541.3370 1810.5597
1816.3976 0.000551 1541.1900 1801.4415
1888.0697 0.000530 1541.0431 1792.9739
1909.8668 0.000524 1540.8962 1784.5081
1810.8250 0.000552 1540.7492 1775.4618
1855.8047 0.000539 1540.6023 1765.4179
1781.5566 0.000561 1540.4554 1754.1986
1729.7153 0.000578 1540.3084 1741.8797
1778.2773 0.000562 1540.1615 1728.7367
1745.9202 0.000573 1540.0146 1715.1502
1744.2949 0.000573 1539.8676 1701.5076
1757.6957 0.000569 1539.7207 1688.1591
1738.0121 0.000575 1539.5738 1675.3587
1709.9213 0.000585 1539.4268 1663.2763
1749.8686 0.000571 1539.2799 1652.0163
1811.3755 0.000552 1539.1330 1641.6123
1754.9472 0.000570 1538.9860 1632.0585
1658.2774 0.000603 1538.8391 1623.3253
1653.5713 0.000605 1538.6922 1615.3736
1647.4255 0.000607 1538.5452 1608.1643
1681.9641 0.000595 1538.3983 1601.6596
1690.0357 0.000592 1538.2514 1595.8211
1689.0956 0.000592 1538.0632 1590.5647
1640.0054 0.000610 1537.8751 1585.8837
1613.2910 0.000620 1537.6869 1581.7261
1612.0000 0.000620 1537.4988 1578.0377
1602.5931 0.000624 1537.3106 1574.7658
1606.7003 0.000622 1537.1225 1571.8602
1599.6681 0.000625 1536.9343 1569.2737
1655.7440 0.000604 1536.7462 1566.9688
1663.8564 0.000601 1536.5580 1564.9081
1659.9029 0.000602 1536.3699 1563.0596
1659.4086 0.000603 1536.1817 1561.3963
1591.0229 0.000629 1535.9936 1559.8942
1565.7585 0.000639 1535.8054 1558.6025
1592.3807 0.000628 1535.6173 1557.3647
1648.5210 0.000607 1535.4291 1556.2342
1631.2334 0.000613 1535.2410 1555.1975
1554.8888 0.000643 1535.0528 1554.2431
1579.8013 0.000633 1534.8646 1553.3608
1583.7141 0.000631 1534.6765 1552.5418
1586.3247 0.000630 1534.4883 1551.7782
1610.8428 0.000621 1534.3002 1551.0629
1585.1664 0.000631 1534.1120 1550.3894
1538.7971 0.000650 1533.9239 1549.7514
1557.7878 0.000642 1533.7357 1549.1427
1578.3815 0.000634 1533.5476 1548.5571
1613.1047 0.000620 1533.3594 1547.9887
1596.9814 0.000626 1533.1713 1547.4322
1622.4533 0.000616 1532.9831 1546.8833
1609.0179 0.000621 1532.7950 1546.3395
1564.2649 0.000639 1532.6068 1545.8006
1551.5899 0.000645 1532.4187 1545.3027
1561.9972 0.000640 1532.2305 1544.7484
1577.1663 0.000634 1532.0424 1544.2360
1576.6493 0.000634 1531.8542 1543.7376
1564.1222 0.000639 1531.6661 1543.2553
1563.3026 0.000640 1531.4779 1542.7906
1548.2316 0.000646 1531.2898 1542.3442
1557.7699 0.000642 1531.1016 1541.9162
1560.6330 0.000641 1530.9135 1541.5063
1613.4787 0.000620 1530.7253 1541.1133
1643.4524 0.000608 1530.5372 1540.7355
1606.2074 0.000623 1530.3490 1540.3709
1537.9370 0.000650 1530.1206 1539.9768
1517.4671 0.000659 1529.8923 1539.5913
1519.2619 0.000658 1529.6639 1539.2125
1522.8123 0.000657 1529.4355 1538.8394
1520.2437 0.000658 1529.2071 1538.4563
1489.8281 0.000671 1528.9788 1538.0938
1555.6184 0.000643 1528.7504 1537.7363
1597.7201 0.000626 1528.5220 1537.3836
1558.2307 0.000642 1528.2937 1537.0348
1535.4423 0.000651 1528.0653 1536.6886
1548.4895 0.000646 1527.8369 1536.3436
1561.2943 0.000640 1527.6085 1535.9985
1604.2316 0.000623 1527.3802 1535.6528
1582.4543 0.000632 1527.1518 1535.3069
1549.1928 0.000645 1526.9234 1534.9621
1586.1577 0.000630 1526.6951 1534.6203
1579.7214 0.000633 1526.4667 1534.2835
1607.8871 0.000622 1526.2383 1533.9537
1583.5131 0.000632 1526.0099 1533.6541
1533.5145 0.000652 1525.7816 1533.3425
1582.1984 0.000632 1525.5532 1533.0407
1575.3584 0.000635 1525.3248 1532.7486
1576.9190 0.000634 1525.0964 1532.4657
1612.9635 0.000620 1524.8681 1532.1911
1605.4291 0.000623 1524.6397 1531.8195
1580.3528 0.000633 1524.4113 1531.5582
1588.0597 0.000630 1524.1830 1531.3003
1561.1688 0.000641 1523.9546 1531.0442
1562.5260 0.000640 1523.7262 1530.7886
1610.6173 0.000621 1523.4978 1530.5332
1618.6746 0.000618 1523.2695 1530.2784
1611.1242 0.000621 1523.0411 1530.0260
1587.4255 0.000630 1522.8127 1529.7778
1570.7031 0.000637 1522.5844 1529.5364
1535.6074 0.000651 1522.3560 1529.3041
1552.4418 0.000644 1522.1276 1529.0832
1578.0373 0.000634 1521.8992 1528.8867
1543.4126 0.000648 1521.6709 1528.6944
1567.1913 0.000638 1521.4425 1528.5188
1582.0232 0.000632 1521.2141 1528.3608
1509.8855 0.000662 1520.9857 1528.1697
1529.9514 0.000654 1520.7574 1528.0498
1524.5741 0.000656 1521.0562 1528.4769
1488.4586 0.000672 1521.3550 1528.9220
1555.5593 0.000643 1521.6539 1529.2266
1611.4741 0.000621 1521.9527 1529.7079
1643.6568 0.000608 1522.2515 1530.2039
1647.7857 0.000607 1522.5504 1530.7122
1642.6131 0.000609 1522.8492 1531.2296
1561.4819 0.000640 1523.1480 1531.7523
1545.3057 0.000647 1523.4469 1532.2761
1593.7745 0.000627 1523.7457 1532.7969
1544.0000 0.000648 1524.0445 1533.3118
1556.4423 0.000642 1524.3434 1533.8197
1544.8593 0.000647 1524.6422 1534.3221
1515.4741 0.000660 1524.9410 1534.8225
1519.8424 0.000658 1525.2399 1535.3261
1517.9490 0.000659 1525.5387 1535.8392
1549.7849 0.000645 1525.8375 1536.3681
1573.6306 0.000635 1526.1364 1536.9187
1598.0081 0.000626 1526.4352 1537.4176
1627.6924 0.000614 1526.7340 1538.0265
1639.2369 0.000610 1527.0329 1538.6687
1620.9905 0.000617 1527.3317 1539.3457
1547.7757 0.000646 1527.6305 1540.0595
1594.3970 0.000627 1527.9294 1540.8086
1585.9300 0.000631 1528.2282 1541.5968
1577.4835 0.000634 1528.5270 1542.4300
1578.2198 0.000634 1528.8259 1543.3185
1573.3404 0.000636 1529.1247 1544.2788
1629.1221 0.000614 1529.4235 1545.3337
1658.0899 0.000603 1529.7224 1546.5127
1580.1634 0.000633 1530.0212 1547.8516
1580.9048 0.000633 1530.3200 1549.3924
1606.7620 0.000622 1530.6189 1551.1831
1602.2593 0.000624 1530.9177 1553.2775
1603.5736 0.000624 1531.2165 1555.7340
1626.2494 0.000615 1531.5154 1558.5314
1642.0580 0.000609 1531.8142 1561.9015
1611.4825 0.000621 1532.1130 1565.8226
1631.6316 0.000613 1532.4119 1570.3527
1658.6387 0.000603 1532.7107 1575.5419
1623.1319 0.000616 1533.0095 1581.4289
1624.3754 0.000616 1533.3084 1587.8159
1687.7900 0.000592 1533.5691 1594.8077
1726.4547 0.000579 1533.8298 1602.8060
1625.9542 0.000615 1534.0905 1611.4532
1672.7446 0.000598 1534.3512 1620.6568
1770.9931 0.000565 1534.6119 1630.2734
1755.3487 0.000570 1534.8726 1640.0967
1742.5328 0.000574 1535.1333 1649.8466
1753.9808 0.000570 1535.3940 1659.1637
1738.7718 0.000575 1535.6547 1667.6184
1761.1179 0.000568 1535.9154 1674.7030
1693.8231 0.000590 1536.1761 1680.0641
1690.7165 0.000591 1536.4368 1683.3375
1736.1725 0.000576 1536.6975 1684.3975
1681.3706 0.000595 1536.9582 1683.3539
1717.5531 0.000582 1537.2189 1680.5285
1700.7636 0.000588 1537.4796 1676.2714
1723.0876 0.000580 1537.7403 1671.1579
1695.2410 0.000590 1538.0010 1665.8557
1728.0878 0.000579 1538.2617 1660.6109
1719.9939 0.000581 1538.5224 1655.7253
1700.7170 0.000588 1538.7831 1651.4009
1707.2308 0.000586 1539.0438 1647.7433
1640.7710 0.000609 1539.3045 1644.7668
1633.0727 0.000612 1539.5652 1642.0842
1697.1290 0.000589 1539.8259 1640.1737
1688.8168 0.000592 1540.0866 1638.4942
1663.0460 0.000601 1540.3473 1636.7775
1658.6591 0.000603 1540.6080 1634.7499
1640.3933 0.000610 1540.8687 1632.1812
1680.8823 0.000595 1541.1294 1628.9317
1659.3765 0.000603 1541.3901 1624.9768
1588.8992 0.000629 1541.6508 1620.3995
1608.2186 0.000622 1541.9115 1615.3572
1627.8633 0.000614 1542.1722 1610.0390
1611.4002 0.000621 1542.4329 1604.6302
1644.0102 0.000608 1542.6936 1599.2624
1595.5119 0.000627 1542.9543 1594.1209
1625.3553 0.000615 1543.2150 1589.2718
1601.0811 0.000625 1543.4757 1584.7814
1627.2111 0.000615 1543.7364 1580.5789
1638.4259 0.000610 1543.9971 1576.9161
1654.6569 0.000604 1544.2578 1573.6838
1612.2635 0.000620 1544.4789 1570.8355
1549.1477 0.000646 1544.7000 1568.3935
1548.2640 0.000646 1544.9212 1566.3324
1582.7388 0.000632 1545.1423 1564.6217
1636.2000 0.000611 1545.3635 1563.2282
1620.5705 0.000617 1545.5846 1562.1180
1611.5636 0.000621 1545.8057 1561.2585
1613.4484 0.000620 1546.0269 1560.6201
1623.4457 0.000616 1546.2480 1560.1773
1620.9361 0.000617 1546.4692 1559.8952
1632.8889 0.000612 1546.6903 1559.7878
1570.1915 0.000637 1546.9114 1559.8313
1534.3826 0.000652 1547.1326 1560.0225
1529.7956 0.000654 1547.3537 1560.3639
1546.0547 0.000647 1547.5749 1560.8636
1610.5724 0.000621 1547.7960 1561.5565
1703.1687 0.000587 1548.0171 1562.4167
1610.4335 0.000621 1548.2383 1563.4867
1616.3774 0.000619 1548.4594 1564.7896
1635.0174 0.000612 1548.6806 1566.3495
1563.4989 0.000640 1548.9017 1568.1895
1611.4424 0.000621 1549.1228 1570.3298
1641.4874 0.000609 1549.3440 1572.7854
1579.2097 0.000633 1549.5651 1575.5640
1591.2956 0.000628 1549.7863 1578.6635
1618.3154 0.000618 1550.0074 1582.0693
1609.0647 0.000621 1550.2285 1585.7515
1656.7836 0.000604 1550.4497 1589.6620
1659.7805 0.000602 1550.6708 1593.7953
1631.2338 0.000613 1550.8919 1597.9254
1649.9924 0.000606 1551.1131 1601.9904
1626.9397 0.000615 1551.3342 1605.8341
1615.9408 0.000619 1551.5554 1609.2757
1596.9368 0.000626 1551.7765 1612.1267
1657.8692 0.000603 1551.9976 1614.2185
1675.1408 0.000597 1552.2188 1615.4370
1673.2375 0.000598 1552.4399 1615.8412
1654.7809 0.000604 1552.6611 1615.3165
1644.4771 0.000608 1552.8822 1614.0957
1627.2193 0.000615 1553.1033 1612.3716
1612.0591 0.000620 1553.3245 1610.3499
1551.2371 0.000645 1553.5456 1608.2206
1599.4357 0.000625 1553.7257 1606.0997
1576.8196 0.000634 1553.9059 1604.1451
1552.6559 0.000644 1554.0860 1602.4369
1606.0808 0.000623 1554.2661 1601.0141
1630.8915 0.000613 1554.4462 1599.9130
1630.9303 0.000613 1554.6264 1599.0394
1577.8804 0.000634 1554.8065 1598.3639
1620.2411 0.000617 1554.9866 1597.7975
1630.8992 0.000613 1555.1667 1597.2325
1624.3109 0.000616 1555.3468 1596.5566
1571.8092 0.000636 1555.5270 1595.7977
1570.5565 0.000637 1555.7071 1594.6421
1583.1164 0.000632 1555.8872 1593.1946
1644.0735 0.000608 1556.0673 1591.5261
1538.3048 0.000650 1556.2475 1589.6063
1619.2181 0.000618 1556.4276 1587.5561
1524.5732 0.000656 1556.6077 1585.4540
1566.6139 0.000638 1556.7878 1583.3706
1571.9261 0.000636 1556.9679 1581.3639
1549.7127 0.000645 1557.1481 1579.4811
1593.1202 0.000628 1557.3282 1577.7565
1529.5763 0.000654 1557.5083 1576.2155
1567.6482 0.000638 1557.6884 1574.8760
1585.6849 0.000631 1557.8686 1573.7497
1493.5731 0.000670 1558.0487 1572.8431
1585.9384 0.000631 1558.2288 1572.1586
1617.9984 0.000618 1558.4089 1571.6952
1601.1010 0.000625 1558.5890 1571.4490
1617.4518 0.000618 1558.7692 1571.4141
1528.8613 0.000654 1558.9493 1571.6443
1588.6968 0.000629 1559.1294 1572.0063
1561.1654 0.000641 1559.3095 1572.5496
1612.9357 0.000620 1559.4897 1573.2603
1586.8377 0.000630 1559.6698 1574.1216
1636.8987 0.000611 1559.8499 1575.1471
1569.8766 0.000637 1560.0300 1576.2462
1498.8068 0.000667 1560.2102 1577.4224
1530.5182 0.000653 1560.3903 1578.6394
1595.2205 0.000627 1560.5704 1579.8532
1651.9910 0.000605 1560.7505 1581.0117
1596.6623 0.000626 1560.9306 1582.0567
1574.9873 0.000635 1561.1108 1582.9289
1574.2403 0.000635 1561.2909 1583.5764
1597.8238 0.000626 1561.4710 1583.9646
1573.6635 0.000635 1561.6511 1584.0847
1502.2185 0.000666 1561.8313 1583.9560
1610.9275 0.000621 1562.0114 1583.6226
1579.1067 0.000633 1562.1915 1583.1421
1620.7479 0.000617 1562.3716 1582.5769
1582.3382 0.000632 1562.5517 1581.9839
1520.7031 0.000658 1562.7319 1581.4486
1612.6831 0.000620 1562.9120 1580.9318
1504.8513 0.000665 1563.0921 1580.4953
1552.0326 0.000644 1563.2722 1580.1685
1544.1982 0.000648 1563.4524 1579.9208
1556.6791 0.000642 1563.6325 1579.7607
1496.6960 0.000668 1563.8126 1579.6708
1548.3487 0.000646 1563.9927 1579.6259
1566.4442 0.000638 1564.1728 1579.5923
1579.5403 0.000633 1564.3530 1579.5360
1528.0537 0.000654 1564.5331 1579.4249
1556.6976 0.000642 1564.7132 1579.2357
1536.9541 0.000651 1564.8933 1578.9577
1579.8823 0.000633 1565.0735 1578.5937
1542.9970 0.000648 1565.2536 1578.1576
1538.1541 0.000650 1565.4337 1577.6697
1524.7566 0.000656 1565.6138 1577.1516
1571.1643 0.000636 1565.7939 1576.6240
1551.4252 0.000645 1565.9741 1576.1043
1557.5036 0.000642 1566.1542 1575.6257
1540.2297 0.000649 1566.3343 1575.1621
1508.2239 0.000663 1566.5144 1574.7395
1567.3761 0.000638 1566.6946 1574.3680
1594.2545 0.000627 1566.8747 1574.0503
1534.9762 0.000651 1567.0548 1573.7889
1604.6767 0.000623 1567.2349 1573.5840
1625.7082 0.000615 1567.4150 1573.4360
1591.2527 0.000628 1567.5952 1573.3414
1503.9187 0.000665 1567.7753 1573.2971
1496.0000 0.000668 1567.9554 1573.2990
1545.0638 0.000647 1568.1355 1573.3422
1577.1776 0.000634 1568.3157 1573.4216
1542.9667 0.000648 1568.4958 1573.5317
1655.1751 0.000604 1568.6759 1573.6667
1590.7794 0.000629 1568.8150 1573.7800
1569.4666 0.000637 1568.9541 1573.9069
1541.2227 0.000649 1569.0932 1574.0405
1541.5596 0.000649 1569.2323 1574.1787
1491.4275 0.000670 1569.3714 1574.3146
1609.7242 0.000621 1569.5105 1574.4461
1591.6059 0.000628 1569.6496 1574.5698
1509.6277 0.000662 1569.7887 1574.6841
1556.8531 0.000642 1569.9279 1574.7892
1624.4247 0.000616 1570.0670 1574.8872
1548.4913 0.000646 1570.2061 1574.9806
1570.7422 0.000637 1570.3452 1575.0728
1591.5859 0.000628 1570.4843 1575.1669
1539.6174 0.000650 1570.6234 1575.2657
1525.8367 0.000655 1570.7625 1575.3716
1546.4470 0.000647 1570.9016 1575.4862
1594.4709 0.000627 1571.0407 1575.6105
1522.7137 0.000657 1571.1798 1575.7449
1521.7481 0.000657 1571.3189 1575.8894
1563.8185 0.000639 1571.4580 1576.0425
1543.9749 0.000648 1571.5971 1576.2024
1586.1444 0.000630 1571.7362 1576.3715
1585.7688 0.000631 1571.8753 1576.5452
1627.4994 0.000614 1572.0144 1576.7229
1564.2882 0.000639 1572.1535 1576.9023
1507.6094 0.000663 1572.2926 1577.0827
1614.1642 0.000620 1572.4317 1577.2635
1601.6626 0.000624 1572.5709 1577.4454
1573.4205 0.000636 1572.7100 1577.6294
1537.0000 0.000651 1572.8491 1577.8169
1492.3792 0.000670 1572.9882 1578.0095
1464.4358 0.000683 1573.1273 1578.2089
1508.7503 0.000663 1573.2664 1578.2517
1558.0623 0.000642 1573.4055 1578.4705
1613.0086 0.000620 1573.5446 1578.7000
1586.9931 0.000630 1573.6837 1578.9416
1573.9909 0.000635 1573.8228 1579.1953
1596.9748 0.000626 1573.9619 1579.4655
1603.0000 0.000624 1574.1010 1579.7526
1567.2780 0.000638 1574.2401 1580.0587
1599.1400 0.000625 1574.3792 1580.3870
1590.2879 0.000629 1574.5183 1580.7408
1625.8624 0.000615 1574.6150 1581.0821
1549.2876 0.000645 1574.7116 1581.4586
1518.7562 0.000658 1574.8082 1581.8911
1508.4441 0.000663 1574.9049 1582.3598
1545.5321 0.000647 1575.0015 1582.8881
1598.7134 0.000626 1575.0981 1583.4872
1621.0074 0.000617 1575.1948 1584.1696
1563.3965 0.000640 1575.2914 1584.8671
1538.8843 0.000650 1575.3880 1585.7601
1616.2267 0.000619 1575.4847 1586.7811
1582.5473 0.000632 1575.5813 1587.9455
1591.9889 0.000628 1575.6779 1589.2677
1509.0379 0.000663 1575.7746 1590.7608
1556.3652 0.000643 1575.8712 1592.4439
1565.5341 0.000639 1575.9678 1594.3041
1557.7627 0.000642 1576.0644 1596.3510
1577.8071 0.000634 1576.1611 1598.5786
1530.2072 0.000654 1576.2577 1600.9728
1600.2706 0.000625 1576.3543 1603.5099
1649.6425 0.000606 1576.4510 1606.1547
1593.0105 0.000628 1576.5476 1608.8584
1559.0535 0.000641 1576.6442 1611.5569
1599.3530 0.000625 1576.7409 1614.1765
1635.5596 0.000611 1576.8375 1616.6077
1627.8430 0.000614 1576.9341 1618.7538
1573.8209 0.000635 1577.0308 1620.5146
1565.7463 0.000639 1577.1274 1621.8112
1604.9739 0.000623 1577.2240 1622.6033
1575.6239 0.000635 1577.3207 1622.9009
1599.0881 0.000625 1577.4173 1622.7638
1582.1242 0.000632 1577.5139 1622.2906
1615.8092 0.000619 1577.6106 1621.6007
1643.7045 0.000608 1577.7072 1620.8151
1633.0452 0.000612 1577.8038 1620.0510
1563.7486 0.000639 1577.9005 1619.3944
1615.6261 0.000619 1577.9971 1618.9264
1638.5848 0.000610 1578.0937 1618.7052
1633.0000 0.000612 1578.1904 1618.7720
1601.5179 0.000624 1578.2870 1619.1525
1583.5914 0.000631 1578.3836 1619.8576
1635.6454 0.000611 1578.4803 1620.8852
1624.4751 0.000616 1578.5769 1622.2188
1647.4231 0.000607 1578.6296 1623.7904
1632.1054 0.000613 1578.6822 1625.6152
1623.0206 0.000616 1578.7349 1627.6685
1608.3601 0.000622 1578.7876 1629.9386
1661.3260 0.000602 1578.8403 1632.4338
1648.0946 0.000607 1578.8929 1635.1841
1651.3082 0.000606 1578.9456 1638.2362
1672.2054 0.000598 1578.9983 1641.6455
1662.3003 0.000602 1579.0510 1645.4581
1670.5927 0.000599 1579.1036 1649.7091
1695.1757 0.000590 1579.1563 1654.4073
1652.4513 0.000605 1579.2090 1659.5324
1698.4361 0.000589 1579.2617 1665.0255
1776.4242 0.000563 1579.3143 1670.7950
1722.5468 0.000581 1579.3670 1676.7144
1696.4758 0.000589 1579.4197 1682.6355
1711.0481 0.000584 1579.4724 1688.4064
1737.2488 0.000576 1579.5250 1693.8270
1743.4919 0.000574 1579.5777 1698.9458
1739.0000 0.000575 1579.6304 1703.6516
1754.5085 0.000570 1579.6831 1707.9432
1758.4410 0.000569 1579.7357 1711.8362
1746.3900 0.000573 1579.7884 1715.3381
1747.1233 0.000572 1579.8411 1718.4346
1742.4647 0.000574 1579.8938 1721.0938
1690.2615 0.000592 1579.9464 1723.2894
1704.7200 0.000587 1579.9991 1725.0319
1710.5354 0.000585 1580.0518 1726.5252
1739.9240 0.000575 1580.1045 1727.6514
1750.9178 0.000571 1580.1571 1728.7312
1758.1840 0.000569 1580.2098 1729.9708
1754.2706 0.000570 1580.2625 1731.5535
1743.1766 0.000574 1580.3152 1733.6067
1746.3426 0.000573 1580.3678 1736.1901
1760.8254 0.000568 1580.4205 1739.2566
1762.4561 0.000567 1580.4732 1742.7983
1768.5527 0.000565 1580.5259 1746.6500
1740.2022 0.000575 1580.5785 1750.6357
1733.0304 0.000577 1580.6312 1754.5363
1758.2533 0.000569 1580.6839 1758.0874
1754.0939 0.000570 1580.7366 1761.0142
1741.6143 0.000574 1580.7892 1762.9211
1731.1373 0.000578 1580.7980 1763.4821
1780.8951 0.000562 1580.8068 1762.5016
1781.6100 0.000561 1580.8155 1759.8717
1723.1946 0.000580 1580.8243 1755.6502
1752.4831 0.000571 1580.8331 1750.0562
1755.8138 0.000570 1580.8418 1743.4323
1740.7314 0.000574 1580.8506 1736.2382
1707.3933 0.000586 1580.8594 1728.7499
1714.3826 0.000583 1580.8681 1721.3946
1749.7744 0.000572 1580.8769 1714.4697
1740.0459 0.000575 1580.8857 1708.1990
1733.4677 0.000577 1580.8944 1702.7326
1698.5765 0.000589 1580.9032 1698.1512
1693.2923 0.000591 1580.9119 1694.4705
1710.7575 0.000585 1580.9207 1691.6444
1704.4352 0.000587 1580.9295 1689.5699
1707.6702 0.000586 1580.9382 1688.0921
1691.3501 0.000591 1580.9470 1687.0163
1688.4345 0.000592 1580.9558 1686.1253
1712.1746 0.000584 1580.9645 1685.2215
1707.8022 0.000586 1580.9733 1684.0886
1678.8106 0.000596 1580.9821 1682.6103
1670.5493 0.000599 1580.9908 1680.7147
1635.9799 0.000611 1580.9996 1678.4062
1641.2638 0.000609 1581.0084 1675.6690
1711.2805 0.000584 1581.0171 1672.5831
1677.8706 0.000596 1581.0259 1669.2273
1620.0209 0.000617 1581.0347 1665.6841
1624.8427 0.000615 1581.0434 1662.1913
1637.2949 0.000611 1581.0522 1658.7034
1650.7417 0.000606 1581.0610 1655.4182
1657.5211 0.000603 1581.0697 1652.4440
1689.8587 0.000592 1581.0785 1649.9186
1671.5425 0.000598 1581.0872 1647.7934
1638.3107 0.000610 1581.0960 1646.1475
1684.9190 0.000594 1581.1048 1644.9769
1658.7740 0.000603 1581.1135 1644.2480
1611.7029 0.000620 1581.1223 1643.8981
1636.7089 0.000611 1581.1311 1643.8357
1630.8030 0.000613 1581.1398 1643.9440
1592.7257 0.000628 1581.1486 1644.0859
1618.0359 0.000618 1581.1574 1644.1153
1619.1848 0.000618 1581.1263 1643.8533
1635.7504 0.000611 1581.0953 1643.2380
1662.4699 0.000602 1581.0643 1642.1697
1629.1928 0.000614 1581.0333 1640.6669
1648.5396 0.000607 1581.0023 1638.7581
1634.6382 0.000612 1580.9713 1636.5234
1634.2021 0.000612 1580.9403 1634.0660
1621.1814 0.000617 1580.9092 1631.5325
1600.5662 0.000625 1580.8782 1628.9481
1614.8080 0.000619 1580.8472 1626.4355
1594.8245 0.000627 1580.8162 1624.0868
1583.5711 0.000631 1580.7852 1621.8950
1638.4473 0.000610 1580.7542 1619.9146
1626.3991 0.000615 1580.7232 1618.1538
1607.4388 0.000622 1580.6921 1616.6046
1627.9351 0.000614 1580.6611 1615.2428
1599.4068 0.000625 1580.6301 1614.0298
1583.8340 0.000631 1580.5991 1612.9160
1609.3821 0.000621 1580.5681 1611.8461
1639.5295 0.000610 1580.5371 1610.7668
1606.4837 0.000622 1580.5060 1609.7092
1636.3263 0.000611 1580.4750 1608.4951
1593.4942 0.000628 1580.4440 1607.1920
1584.8678 0.000631 1580.4130 1605.8100
1595.8325 0.000627 1580.3820 1604.3770
1581.0236 0.000633 1580.3510 1602.9111
1585.9244 0.000631 1580.3200 1601.4462
1589.2594 0.000629 1580.2889 1600.0083
1579.8639 0.000633 1580.2579 1598.6184
1603.3248 0.000624 1580.2269 1597.2928
1580.3498 0.000633 1580.1959 1596.0442
1572.6678 0.000636 1580.1649 1594.8806
1585.5541 0.000631 1580.1339 1593.8069
1565.1928 0.000639 1580.1028 1592.8255
1532.6793 0.000652 1580.0718 1591.9349
1568.5901 0.000638 1580.0408 1591.1352
1564.7757 0.000639 1580.0098 1590.4212
1585.6646 0.000631 1579.9788 1589.7876
1571.5443 0.000636 1579.9478 1589.2281
1537.5444 0.000650 1579.9168 1588.7359
1574.8835 0.000635 1579.8857 1588.3419
1591.0203 0.000629 1579.8547 1587.9637
1591.3129 0.000628 1580.0384 1587.8469
1584.6524 0.000631 1580.2220 1587.7706
1566.7090 0.000638 1580.4057 1587.7294
1553.8825 0.000644 1580.5893 1587.7213
1602.1004 0.000624 1580.7729 1587.7370
1633.7495 0.000612 1580.9566 1587.7759
1559.0725 0.000641 1581.1402 1587.8353
1527.1997 0.000655 1581.3239 1587.9131
1528.1392 0.000654 1581.5075 1588.0077
1498.3568 0.000667 1581.6912 1588.1181
1523.6102 0.000656 1581.8748 1588.2430
1561.0680 0.000641 1582.0584 1588.3832
1667.7600 0.000600 1582.2421 1588.5384
1593.7272 0.000627 1582.4257 1588.7091
1536.9025 0.000651 1582.6094 1588.8962
1542.3166 0.000648 1582.7930 1589.1011
1528.7976 0.000654 1582.9767 1589.3256
1609.4233 0.000621 1583.1603 1589.5720
1568.4400 0.000638 1583.3439 1589.8431
1618.8321 0.000618 1583.5276 1590.1421
1597.3074 0.000626 1583.7112 1590.4728
1571.6802 0.000636 1583.8949 1590.8395
1531.3935 0.000653 1584.0785 1591.2483
1552.6664 0.000644 1584.2622 1591.7009
1597.6332 0.000626 1584.4458 1592.2036
1585.6083 0.000631 1584.6294 1592.7612
1564.8762 0.000639 1584.8131 1593.3778
1577.9609 0.000634 1584.9967 1594.0571
1577.9338 0.000634 1585.1804 1594.8015
1541.2223 0.000649 1585.3640 1595.6124
1613.0000 0.000620 1585.5477 1596.4894
1603.3219 0.000624 1585.7313 1597.4302
1560.3830 0.000641 1585.9149 1598.4299
1534.2050 0.000652 1586.0986 1599.4807
1601.2941 0.000624 1586.2822 1600.5711
1639.9477 0.000610 1586.4659 1601.6853
1602.9329 0.000624 1586.6495 1602.8030
1571.4442 0.000636 1586.8332 1603.8995
1599.0801 0.000625 1587.0168 1604.9470
1611.7333 0.000620 1587.2004 1605.9175
1589.0719 0.000629 1587.3841 1606.7873
1636.2598 0.000611 1587.5677 1607.5405
1658.8323 0.000603 1587.7049 1608.1268
1597.1834 0.000626 1587.8421 1608.6005
1537.2396 0.000651 1587.9792 1608.9802
1566.7402 0.000638 1588.1164 1609.2868
1556.0733 0.000643 1588.2536 1609.5434
1566.7834 0.000638 1588.3908 1609.7678
1585.9299 0.000631 1588.5279 1609.9707
1573.1256 0.000636 1588.6651 1610.1553
1613.2239 0.000620 1588.8023 1610.3175
1611.1556 0.000621 1588.9394 1610.4498
1588.9659 0.000629 1589.0766 1610.5438
1604.2968 0.000623 1589.2138 1610.5938
1601.0438 0.000625 1589.3510 1610.5981
1645.5056 0.000608 1589.4881 1610.5596
1550.7518 0.000645 1589.6253 1610.4836
1559.9294 0.000641 1589.7625 1610.3325
1588.7394 0.000629 1589.8996 1610.1971
1605.8588 0.000623 1590.0368 1610.0359
1622.5042 0.000616 1590.1740 1609.8501
1590.3646 0.000629 1590.3112 1609.6428
1566.2218 0.000638 1590.4483 1609.4195
1601.0000 0.000625 1590.5855 1609.1892
1604.4988 0.000623 1590.7227 1608.9631
1615.9342 0.000619 1590.8598 1608.7523
1589.6769 0.000629 1590.9970 1608.5660
1621.1371 0.000617 1591.1342 1608.4100
1650.4237 0.000606 1591.2714 1608.2857
1603.2337 0.000624 1591.4085 1608.1906
1598.8494 0.000625 1591.5457 1608.1197
1598.0000 0.000626 1591.6829 1608.0669
1607.2965 0.000622 1591.8201 1608.0270
1654.0150 0.000605 1591.9572 1608.0399
1615.7944 0.000619 1592.0944 1608.0242
1665.4317 0.000600 1592.2316 1608.0268
1598.1925 0.000626 1592.3687 1608.0346
1597.8808 0.000626 1592.5059 1608.1005
1630.1292 0.000613 1592.6431 1608.2124
1620.6209 0.000617 1592.7803 1608.3796
1556.3104 0.000643 1592.9174 1608.6603
1605.4540 0.000623 1593.0546 1608.9636
1589.0156 0.000629 1593.1918 1609.3473
1607.1293 0.000622 1593.3289 1609.8206
1625.4518 0.000615 1593.4194 1610.3474
1582.7739 0.000632 1593.5099 1610.9864
1592.1289 0.000628 1593.6003 1611.7519
1617.0530 0.000618 1593.6908 1612.6600
1609.2051 0.000621 1593.7813 1613.7297
1612.8978 0.000620 1593.8717 1614.9828
1628.8334 0.000614 1593.9622 1616.4447
1620.7419 0.000617 1594.0527 1618.1448
1650.9507 0.000606 1594.1431 1620.0520
1689.7324 0.000592 1594.2336 1622.3315
1683.3653 0.000594 1594.3241 1624.9777
1640.5549 0.000610 1594.4145 1627.9883
1597.0345 0.000626 1594.5050 1631.4210
1651.4084 0.000606 1594.5955 1635.3091
1620.1655 0.000617 1594.6860 1639.6784
1610.2196 0.000621 1594.7764 1644.5452
1615.4684 0.000619 1594.8669 1649.9129
1646.7107 0.000607 1594.9574 1655.6808
1631.9334 0.000613 1595.0478 1662.0197
1673.3748 0.000598 1595.1383 1668.7370
1659.5711 0.000603 1595.2288 1675.7766
1600.0638 0.000625 1595.3192 1683.0265
1759.7857 0.000568 1595.4097 1690.3385
1650.7558 0.000606 1595.5002 1697.5256
1630.3112 0.000613 1595.5906 1704.3640
1672.3957 0.000598 1595.6811 1710.6036
1619.8767 0.000617 1595.7716 1715.9583
1644.2282 0.000608 1595.8620 1720.2693
1763.6516 0.000567 1595.9525 1723.3503
1707.2214 0.000586 1596.0430 1725.1507
1764.5793 0.000567 1596.1334 1725.7367
1694.4574 0.000590 1596.2239 1725.2794
1707.3585 0.000586 1596.3144 1724.0219
1652.2889 0.000605 1596.4048 1722.2371
1739.8084 0.000575 1596.4953 1720.1888
1688.1783 0.000592 1596.5858 1717.9354
1697.4286 0.000589 1596.6762 1715.9902
1721.2906 0.000581 1596.7667 1714.2997
1673.2598 0.000598 1596.8572 1712.9241
1695.7037 0.000590 1596.9476 1711.8730
1772.0259 0.000564 1597.0381 1711.1145
1775.8518 0.000563 1597.1286 1710.5860
1736.8947 0.000576 1597.2190 1710.2059
1644.1430 0.000608 1597.3095 1709.8832
1664.9117 0.000601 1597.4000 1709.6570
1740.4775 0.000575 1597.4904 1709.1658
1594.4125 0.000627 1597.5809 1708.4527
1660.1695 0.000602 1597.6714 1707.4421
1696.4642 0.000589 1597.7618 1706.2048
1728.4384 0.000579 1597.8523 1704.5048
1700.5864 0.000588 1597.9428 1702.5092
1681.4349 0.000595 1598.0332 1700.3203
1725.8243 0.000579 1598.1237 1698.0782
1778.5040 0.000562 1598.2142 1695.8783
1674.3677 0.000597 1598.3046 1694.0029
1688.3958 0.000592 1598.3951 1692.5287
1742.9709 0.000574 1598.4856 1691.5678
1771.9107 0.000564 1598.5760 1691.2034
1742.3303 0.000574 1598.6665 1691.4866
1714.2387 0.000583 1598.7570 1692.4379
1756.8421 0.000569 1598.8474 1694.0172
1710.5285 0.000585 1598.9379 1696.2600
1758.2309 0.000569 1599.0284 1699.0820
1761.9451 0.000568 1599.1188 1702.4165
1717.7065 0.000582 1599.2093 1706.1828
1758.2283 0.000569 1599.2998 1710.2866
1775.0561 0.000563 1599.3902 1714.8509
1767.5903 0.000566 1599.4807 1719.2919
1685.0071 0.000593 1599.5712 1723.8390
1731.0279 0.000578 1599.6617 1728.0610
1725.7360 0.000579 1599.7521 1731.9880
1716.6864 0.000583 1599.8426 1735.3291
1736.2634 0.000576 1599.9331 1737.9708
1735.2448 0.000576 1600.0235 1739.7613
1778.9548 0.000562 1600.1140 1740.5883
1756.5214 0.000569 1600.2045 1740.3966
1720.3157 0.000581 1600.2949 1739.1994
1682.5067 0.000594 1600.3854 1737.0792
1655.4687 0.000604 1600.4759 1734.1800
1680.0714 0.000595 1600.5663 1730.6373
1648.8110 0.000606 1600.6568 1726.7758
1616.2947 0.000619 1600.7473 1722.7618
1768.6208 0.000565 1600.8377 1718.8010
1732.6061 0.000577 1600.9282 1715.0696
1693.1057 0.000591 1600.9720 1711.6585
1795.3638 0.000557 1601.0157 1708.7108
1696.7706 0.000589 1601.0595 1706.2823
1749.8391 0.000571 1601.1032 1704.3945
1686.9746 0.000593 1601.1470 1703.1336
1665.6160 0.000600 1601.1908 1702.3504
1704.1589 0.000587 1601.2345 1701.9867
1705.6482 0.000586 1601.2783 1701.9073
1669.4250 0.000599 1601.3221 1702.0892
1722.8209 0.000580 1601.3658 1702.4348
1674.2229 0.000597 1601.4096 1702.8515
1727.7563 0.000579 1601.4533 1703.2622
1635.1592 0.000612 1601.4971 1703.6131
1637.6498 0.000611 1601.5409 1703.8777
1636.7417 0.000611 1601.5846 1704.0365
1670.8090 0.000599 1601.6284 1704.1450
1746.3991 0.000573 1601.6722 1704.2123
1720.1916 0.000581 1601.7159 1704.2641
1643.1976 0.000609 1601.7597 1704.3114
1658.5030 0.000603 1601.8034 1704.3403
1676.5348 0.000596 1601.8472 1704.3054
1648.1795 0.000607 1601.8910 1704.1291
1672.7217 0.000598 1601.9347 1703.7095
1688.9318 0.000592 1601.9785 1702.9332
1700.0748 0.000588 1602.0223 1701.6978
1683.9092 0.000594 1602.0660 1699.9333
1598.0360 0.000626 1602.1098 1697.6689
1664.1481 0.000601 1602.1535 1694.8449
1649.6136 0.000606 1602.1973 1691.5975
1618.4626 0.000618 1602.2411 1688.1001
1633.2241 0.000612 1602.2848 1684.3883
1637.1937 0.000611 1602.3286 1680.6485
1686.8248 0.000593 1602.3724 1677.0033
1628.5157 0.000614 1602.4161 1673.5549
1647.7213 0.000607 1602.4599 1670.3827
1633.9270 0.000612 1602.5036 1667.5427
1651.7885 0.000605 1602.5474 1665.0680
1663.5320 0.000601 1602.5912 1662.9691
1648.4601 0.000607 1602.6349 1661.2354
1636.9355 0.000611 1602.6787 1659.8355
1647.5164 0.000607 1602.7225 1658.7177
1620.5954 0.000617 1602.7662 1657.8120
1591.0227 0.000629 1602.7630 1656.9856
1572.6117 0.000636 1602.7599 1656.1900
1604.4935 0.000623 1602.7567 1655.3285
1650.3708 0.000606 1602.7535 1654.3147
1608.8943 0.000622 1602.7503 1653.0838
1641.1063 0.000609 1602.7472 1651.6006
1631.6505 0.000613 1602.7440 1649.8622
1570.1640 0.000637 1602.7408 1647.8938
1617.9803 0.000618 1602.7376 1645.7405
1601.3542 0.000624 1602.7345 1643.4576
1617.5094 0.000618 1602.7313 1641.1282
1576.9123 0.000634 1602.7281 1638.7546
1527.9689 0.000654 1602.7249 1636.4100
1588.2550 0.000630 1602.7218 1634.1338
1569.3653 0.000637 1602.7186 1631.9580
1545.8941 0.000647 1602.7154 1629.9069
1612.0179 0.000620 1602.7122 1627.9980
1629.6844 0.000614 1602.7091 1626.2426
1605.1332 0.000623 1602.7059 1624.6466
1615.1556 0.000619 1602.7027 1623.2112
1615.4880 0.000619 1602.6995 1621.9337
1649.7653 0.000606 1602.6964 1620.8079
1641.7352 0.000609 1602.6932 1619.8251
1602.2314 0.000624 1602.6900 1618.9745
1575.7424 0.000635 1602.6868 1618.2438
1638.8905 0.000610 1602.6836 1617.6196
1581.3873 0.000632 1602.6805 1617.0881
1552.3439 0.000644 1602.6773 1616.6353
1505.1435 0.000664 1602.6741 1616.2479
1559.5499 0.000641 1602.6709 1615.9134
1599.6655 0.000625 1602.6678 1615.6208
1591.1986 0.000628 1602.6646 1615.3614
1598.4475 0.000626 1602.6614 1615.1284
1503.4265 0.000665 1602.6582 1614.9177
1513.5814 0.000661 1602.6551 1614.7269
1575.9102 0.000635 1602.6519 1614.5550
1628.4043 0.000614 1602.6487 1614.4021
1583.9635 0.000631 1602.6455 1614.2689
1559.0531 0.000641 1602.6424 1614.1560
1554.9444 0.000643 1602.6392 1614.0502
1623.7089 0.000616 1602.6360 1613.9800
1638.9748 0.000610 1602.6328 1613.9323
1567.8348 0.000638 1602.6026 1613.8791
1592.6223 0.000628 1602.5724 1613.8480
1590.0035 0.000629 1602.5422 1613.8387
1563.4907 0.000640 1602.5119 1613.8656
1609.6789 0.000621 1602.4817 1613.8984
1599.2134 0.000625 1602.4515 1613.9510
1617.9295 0.000618 1602.4213 1614.0224
1604.7537 0.000623 1602.3910 1614.1117
1580.8521 0.000633 1602.3608 1614.2183
1576.7184 0.000634 1602.3306 1614.3329
1598.9734 0.000625 1602.3003 1614.4749
1645.6804 0.000608 1602.2701 1614.6370
1633.3595 0.000612 1602.2399 1614.8224
1569.6298 0.000637 1602.2097 1615.0361
1531.0780 0.000653 1602.1794 1615.2832
1577.7331 0.000634 1602.1492 1615.5714
1603.1565 0.000624 1602.1190 1615.9020
1540.7702 0.000649 1602.0888 1616.2989
1544.4750 0.000647 1602.0585 1616.7660
1551.1903 0.000645 1602.0283 1617.3159
1567.5157 0.000638 1601.9981 1617.9626
1577.6945 0.000634 1601.9679 1618.7214
1666.9487 0.000600 1601.9376 1619.6091
1655.5858 0.000604 1601.9074 1620.6425
1587.5734 0.000630 1601.8772 1621.8399
1579.3830 0.000633 1601.8470 1623.2194
1593.7180 0.000627 1601.8167 1624.8059
1601.0000 0.000625 1601.7865 1626.6026
1621.0636 0.000617 1601.7563 1628.6286
1607.9779 0.000622 1601.7261 1630.8919
1579.6437 0.000633 1601.6958 1633.4107
1637.0310 0.000611 1601.6656 1636.1828
1692.2709 0.000591 1601.6354 1639.2047
1649.9752 0.000606 1601.6052 1642.4656
1603.0922 0.000624 1601.5749 1645.9433
1613.8570 0.000620 1601.5447 1649.6056
1633.6876 0.000612 1601.5145 1653.4064
1588.1844 0.000630 1601.4843 1657.2855
1623.8076 0.000616 1601.4540 1661.1684
1633.3364 0.000612 1601.4238 1664.9694
1624.4620 0.000616 1601.3936 1668.5990
1619.2295 0.000618 1601.3634 1671.9689
1637.3501 0.000611 1601.2984 1674.9680
1691.4528 0.000591 1601.2335 1677.5723
1685.4617 0.000593 1601.1686 1679.7454
1642.5764 0.000609 1601.1037 1681.4609
1667.9914 0.000600 1601.0387 1682.7091
1646.1270 0.000607 1600.9738 1683.4837
1585.8756 0.000631 1600.9089 1683.7828
1611.1116 0.000621 1600.8440 1683.6112
1618.7444 0.000618 1600.7791 1682.9954
1625.3786 0.000615 1600.7141 1681.9804
1623.8016 0.000616 1600.6492 1680.6356
1620.8418 0.000617 1600.5843 1679.0510
1636.9586 0.000611 1600.5194 1677.3299
1656.7218 0.000604 1600.4545 1675.5704
1655.3850 0.000604 1600.3895 1673.8600
1631.8984 0.000613 1600.3246 1672.2673
1651.9717 0.000605 1600.2597 1670.8375
1681.0884 0.000595 1600.1948 1669.5931
1684.4765 0.000594 1600.1299 1668.5356
1647.8619 0.000607 1600.0649 1667.6483
1618.9936 0.000618 1600.0000 1666.9024
1623.0066 0.000616 1599.9351 1666.2634
1630.8924 0.000613 1599.8702 1665.6967
1664.5677 0.000601 1599.8052 1665.1722
1679.7376 0.000595 1599.7403 1664.6656
1693.3008 0.000591 1599.6754 1664.1574
1707.8830 0.000586 1599.6105 1663.6322
1710.4203 0.000585 1599.5456 1663.0731
1682.9792 0.000594 1599.4806 1662.4724
1647.8835 0.000607 1599.4157 1661.8274
1669.5081 0.000599 1599.3508 1661.0205
1681.8200 0.000595 1599.2859 1660.3383
1712.1053 0.000584 1599.2210 1659.6987
1711.4028 0.000584 1599.1560 1659.1639
1673.6140 0.000598 1599.0911 1658.8077
1660.5168 0.000602 1599.0262 1658.7103
1659.7864 0.000602 1598.9613 1658.9538
1699.9694 0.000588 1598.8964 1659.6190
1715.5578 0.000583 1598.8314 1660.7839
1704.7298 0.000587 1598.7665 1662.5228
1692.9308 0.000591 1598.7016 1664.9056
1706.1249 0.000586 1598.6367 1667.9971
1731.0865 0.000578 1598.5717 1671.8559
1728.2785 0.000579 1598.5068 1676.5331
1760.2588 0.000568 1598.4419 1682.0377
1756.2695 0.000569 1598.3770 1688.4642
1782.8078 0.000561 1598.3121 1695.7950
1808.1810 0.000553 1598.2471 1704.0278
1770.6178 0.000565 1598.1822 1713.1396
1775.9129 0.000563 1598.1173 1723.0829
1824.3543 0.000548 1598.0524 1733.7176
1806.9190 0.000553 1597.9875 1745.0612
1793.8000 0.000557 1597.9225 1756.9084
1819.0000 0.000550 1597.8576 1769.0691
1866.8080 0.000536 1597.7927 1781.3144
1881.1972 0.000532 1597.7278 1793.3787
1822.3737 0.000549 1597.6629 1804.9722
1848.7921 0.000541 1597.5979 1815.8015
1817.5216 0.000550 1597.5330 1825.5984
1849.1960 0.000541 1597.4681 1834.1497
1898.6062 0.000527 1597.4032 1841.3231
1820.2893 0.000549 1597.3382 1847.0827
1823.1274 0.000549 1597.2733 1851.4947
1828.9224 0.000547 1597.2084 1854.7240
1856.7843 0.000539 1597.1435 1857.0244
1871.7585 0.000534 1597.0786 1858.7073
1877.5191 0.000533 1597.0136 1860.1826
1898.4611 0.000527 1596.9487 1861.8323
1917.6588 0.000521 1596.8838 1864.0429
1940.7493 0.000515 1596.8189 1867.1587
1977.9249 0.000506 1596.7540 1871.4585
1969.3502 0.000508 1596.6890 1877.1172
1969.3656 0.000508 1596.6241 1884.2795
1927.4210 0.000519 1596.5592 1892.9324
1948.3531 0.000513 1596.4943 1902.9762
1988.1281 0.000503 1596.4294 1914.2059
1974.8986 0.000506 1596.3644 1926.3062
1989.5557 0.000503 1596.2995 1938.8518
2016.5389 0.000496 1596.2346 1951.2401
2049.7095 0.000488 1596.1697 1963.0095
2044.1802 0.000489 1596.1048 1973.4251
2017.9131 0.000496 1596.0398 1981.8335
1996.6612 0.000501 1595.9749 1987.6042
2009.8729 0.000498 1595.9100 1990.4115
2044.4147 0.000489 1595.8686 1990.0062
2017.3579 0.000496 1595.8271 1986.3907
1973.0413 0.000507 1595.7857 1979.8345
1967.2323 0.000508 1595.7443 1970.8111
1989.8814 0.000503 1595.7029 1959.9324
1963.6080 0.000509 1595.6614 1947.8723
1972.8732 0.000507 1595.6200 1935.2979
1932.0704 0.000518 1595.5786 1922.8170
1950.8892 0.000513 1595.5372 1910.9358
1973.9425 0.000507 1595.4957 1900.0852
1909.0388 0.000524 1595.4543 1890.5541
1932.3739 0.000517 1595.4129 1882.5339
1996.2258 0.000501 1595.3715 1876.1116
1889.4123 0.000529 1595.3300 1871.2742
1897.3178 0.000527 1595.2886 1867.8736
1935.0026 0.000517 1595.2472 1865.7789
1937.9848 0.000516 1595.2058 1864.6545
1852.1505 0.000540 1595.1643 1864.1191
1845.7924 0.000542 1595.1229 1863.7004
1849.1696 0.000541 1595.0815 1862.9703
1885.1745 0.000530 1595.0401 1861.4328
1889.8124 0.000529 1594.9986 1858.6844
1883.7155 0.000531 1594.9572 1854.4412
1813.4583 0.000551 1594.9158 1848.5773
1800.4710 0.000555 1594.8744 1841.1357
1806.5928 0.000554 1594.8329 1832.3094
1827.2225 0.000547 1594.7915 1822.3990
1812.4323 0.000552 1594.7501 1811.7617
1799.3509 0.000556 1594.7087 1800.7649
1865.4886 0.000536 1594.6672 1789.7520
1839.1158 0.000544 1594.6258 1779.0215
1779.7877 0.000562 1594.5844 1768.7438
1780.2941 0.000562 1594.5430 1759.2624
1792.1789 0.000558 1594.5015 1750.6412
1747.0612 0.000572 1594.4601 1742.9729
1725.4025 0.000580 1594.4187 1736.3059
1766.9078 0.000566 1594.3773 1730.6474
1763.4469 0.000567 1594.3359 1725.9601
1766.5964 0.000566 1594.2944 1722.1852
1744.2847 0.000573 1594.2530 1719.2136
1787.0697 0.000560 1594.2116 1716.9099
1837.1163 0.000544 1594.1702 1715.1133
1750.0520 0.000571 1594.1287 1713.6459
1741.0760 0.000574 1594.0873 1712.3239
1727.6667 0.000579 1594.0459 1710.9705
1702.9578 0.000587 1594.0045 1709.4280
1717.1079 0.000582 1593.9630 1707.5679
1772.3766 0.000564 1593.9216 1705.2974
1719.0087 0.000582 1593.8802 1702.5627
1721.3542 0.000581 1593.8388 1699.3500
1673.0235 0.000598 1593.7973 1695.6847
1696.6120 0.000589 1593.7559 1691.6269
1685.1957 0.000593 1593.7145 1687.2267
1731.3162 0.000578 1593.6731 1682.6650
1713.3036 0.000584 1593.6316 1678.0153
1676.1781 0.000597 1593.5902 1673.3854
1714.2995 0.000583 1593.5488 1668.8721
1681.9990 0.000595 1593.5074 1664.5544
1686.2703 0.000593 1593.4659 1660.5018
1637.0917 0.000611 1593.4245 1656.7591
1630.9151 0.000613 1593.3831 1653.3572
1670.6629 0.000599 1593.3417 1650.3123
1674.8153 0.000597 1593.3002 1647.6267
1675.9524 0.000597 1593.2588 1645.2898
1669.3061 0.000599 1593.2174 1643.2795
1698.2218 0.000589 1593.1760 1641.5622
1591.0957 0.000628 1593.1345 1640.0943
1631.4381 0.000613 1593.0931 1638.8231
1666.0883 0.000600 1593.0517 1637.6892
1653.2674 0.000605 1593.0103 1636.6291
1640.8743 0.000609 1592.9688 1635.5806
1629.3905 0.000614 1592.9274 1634.4883
1640.8639 0.000609 1592.8860 1633.3089
1655.2561 0.000604 1592.8446 1632.0161
1633.7518 0.000612 1592.8031 1630.6018
1644.6828 0.000608 1592.7617 1629.0747
1606.0618 0.000623 1592.7203 1627.4561
1679.6781 0.000595 1592.6789 1625.7749
1648.5374 0.000607 1592.6374 1624.0627
1604.4749 0.000623 1592.5960 1622.3501
1677.4787 0.000596 1592.5546 1620.6645
1639.2696 0.000610 1592.5132 1619.0292
1670.1481 0.000599 1592.4717 1617.4618
1643.7894 0.000608 1592.4303 1615.9808
1612.1999 0.000620 1592.3889 1614.5966
1571.7118 0.000636 1592.3475 1613.3180
1581.4654 0.000632 1592.3060 1612.1516
1616.7574 0.000619 1592.2646 1611.1016
1646.5669 0.000607 1592.2232 1610.1707
1597.0032 0.000626 1592.1818 1609.3597
1632.8302 0.000612 1592.1403 1608.6684
1691.2010 0.000591 1592.0989 1608.0951
1666.6881 0.000600 1592.0575 1607.6373
1606.7147 0.000622 1592.0161 1607.2918
1597.7469 0.000626 1591.9746 1607.0544
1663.0753 0.000601 1591.9332 1606.9204
1625.8428 0.000615 1591.8918 1606.8845
1609.6766 0.000621 1591.8504 1606.9405
1592.7368 0.000628 1591.8089 1607.0815
1602.1639 0.000624 1591.7675 1607.2995
1591.7261 0.000628 1591.7675 1607.6271
loop_
_pd_peak_id
_pd_peak_2theta_centroid
_pd_peak_d_spacing
_pd_peak_pk_height
_pd_peak_pk_intensity
_pd_peak_width_2theta
PK1 20.0063 4.435 5.8 1.7895 0.2354
PK2 22.9253 3.876 870.6 271.9461 0.2367
PK3 23.0270 3.859 543.5 169.8151 0.2367
PK4 25.6826 3.466 647.3 203.3839 0.2381
PK5 32.2356 2.775 1498.8 478.9881 0.2422
PK6 32.6635 2.739 6911.7 2211.6410 0.2425
PK7 32.9411 2.717 1674.9 536.3671 0.2427
PK8 34.3009 2.612 440.0 141.4834 0.2437
PK9 36.3086 2.472 9.9 3.2063 0.2452
PK10 36.7869 2.441 22.8 7.3875 0.2456
PK11 38.1795 2.355 31.2 10.1747 0.2468
PK12 38.6127 2.330 68.2 22.2551 0.2471
PK13 38.6379 2.328 71.8 23.4137 0.2471
PK14 39.9324 2.256 566.6 185.6660 0.2483
PK15 40.5201 2.224 699.7 229.7467 0.2488
PK16 42.0085 2.149 240.6 79.4596 0.2502
PK17 43.3799 2.084 24.2 8.0196 0.2515
PK18 43.7927 2.066 16.5 5.5015 0.2519
PK19 46.6955 1.944 1609.5 541.5722 0.2550
PK20 46.9125 1.935 954.0 321.2988 0.2552
PK21 48.0823 1.891 234.2 79.2800 0.2565
PK22 48.2307 1.885 409.7 138.7797 0.2567
PK23 51.0896 1.786 13.2 4.5442 0.2600
PK24 51.4542 1.775 16.8 5.7594 0.2605
PK25 51.7163 1.766 4.0 1.3797 0.2608
PK26 52.1040 1.754 5.3 1.8112 0.2613
PK27 52.6327 1.738 91.2 31.5334 0.2620
PK28 52.7818 1.733 184.8 63.9342 0.2622
PK29 53.0589 1.725 116.3 40.2933 0.2625
PK30 53.5233 1.711 601.5 208.8477 0.2631
PK31 54.4607 1.683 91.5 31.9310 0.2643
PK32 57.6353 1.598 717.7 254.5514 0.2687
PK33 57.9993 1.589 566.4 201.2765 0.2693
PK34 58.4452 1.578 653.2 232.6896 0.2699
PK35 58.5284 1.576 1335.7 476.0152 0.2700
PK36 59.4510 1.554 146.3 52.3969 0.2714
PK37 60.3692 1.532 2.0 0.7181 0.2728
PK38 60.6596 1.525 0.1 0.0210 0.2733
PK39 60.9127 1.520 4.9 1.7709 0.2737
PK40 60.9852 1.518 0.8 0.3028 0.2738
PK41 61.6611 1.503 5.3 1.9254 0.2749
PK42 62.1979 1.491 0.1 0.0537 0.2757
PK43 62.2517 1.490 7.4 2.6777 0.2758
PK44 62.5010 1.485 1.8 0.6646 0.2762
PK45 64.1071 1.451 285.5 105.0803 0.2789
PK46 64.7025 1.440 29.5 10.9131 0.2799
PK47 64.9465 1.435 16.6 6.1483 0.2803
PK48 65.4476 1.425 1.6 0.6087 0.2812
PK49 65.9672 1.415 0.1 0.0396 0.2821
PK50 67.2807 1.390 103.3 38.7876 0.2845
PK51 68.2699 1.373 703.0 265.6116 0.2863
PK52 68.5000 1.369 160.0 60.5449 0.2867
PK53 68.9140 1.361 196.9 74.6897 0.2875
PK54 69.3629 1.354 36.9 14.0308 0.2884
PK55 69.7386 1.347 6.6 2.5195 0.2891
PK56 70.9380 1.328 0.0 0.0018 0.2914
PK57 71.2456 1.323 5.1 1.9650 0.2921
PK58 71.5215 1.318 7.7 2.9630 0.2926
PK59 71.7877 1.314 11.8 4.5789 0.2931
PK60 72.0200 1.310 5.1 1.9764 0.2936
PK61 72.0865 1.309 7.1 2.7623 0.2938
PK62 72.0998 1.309 0.4 0.1678 0.2938
PK63 72.4342 1.304 7.6 2.9680 0.2945
PK64 72.6215 1.301 6.7 2.6122 0.2949
PK65 72.8527 1.297 14.3 5.5757 0.2953
PK66 73.2243 1.292 36.9 14.4366 0.2961
PK67 73.4136 1.289 85.6 33.5051 0.2965
PK68 73.6849 1.285 30.1 11.7974 0.2971
PK69 74.0310 1.280 157.3 61.8435 0.2978
PK70 74.4870 1.273 1.5 0.6095 0.2988
PK71 75.9558 1.252 3.2 1.2838 0.3021
PK72 76.9033 1.239 69.6 27.9456 0.3042
PK73 77.5263 1.230 242.9 97.9988 0.3057
PK74 77.8496 1.226 409.8 165.7238 0.3064
PK75 77.9472 1.225 73.4 29.6936 0.3067
PK76 78.0600 1.223 182.0 73.7205 0.3069
PK77 78.0670 1.223 148.4 60.1309 0.3070
PK78 78.8814 1.213 86.2 35.1593 0.3089
PK79 79.2187 1.208 70.0 28.6289 0.3097
PK80 79.6892 1.202 0.3 0.1213 0.3109
PK81 80.1699 1.196 1.6 0.6514 0.3121
PK82 80.2750 1.195 2.8 1.1529 0.3123
PK83 81.5022 1.180 1.6 0.6847 0.3155
PK84 81.5851 1.179 2.2 0.9252 0.3157
PK85 81.7125 1.178 7.3 3.0399 0.3160
PK86 82.2037 1.172 23.8 9.9592 0.3173
PK87 82.5857 1.167 36.9 15.5052 0.3183
PK88 82.6490 1.167 38.6 16.2335 0.3184
PK89 83.0318 1.162 135.7 57.2026 0.3195
PK90 83.2541 1.160 136.2 57.5478 0.3201
PK91 83.7940 1.153 30.7 13.0315 0.3215
PK92 84.5047 1.146 0.0 0.0145 0.3235
PK93 84.7899 1.142 0.0 0.0079 0.3243
PK94 85.9351 1.130 73.4 31.7126 0.3275
PK95 87.1765 1.117 166.6 72.8038 0.3312
PK96 87.4519 1.114 162.1 71.0293 0.3320
PK97 88.2233 1.107 1.5 0.6699 0.3343
PK98 88.3130 1.106 57.3 25.3189 0.3346
PK99 88.4441 1.104 0.0 0.0187 0.3350
PK100 89.1067 1.098 0.4 0.1714 0.3370
PK101 89.5730 1.093 0.7 0.3308 0.3385
PK102 89.6431 1.093 0.9 0.4081 0.3387
PK103 89.8776 1.091 7.8 3.5154 0.3395
PK104 89.9044 1.090 0.4 0.1711 0.3395
PK105 90.2354 1.087 3.4 1.5390 0.3406
PK106 90.3775 1.086 1.2 0.5263 0.3411
PK107 90.4251 1.085 2.2 0.9771 0.3412
PK108 91.0063 1.080 160.2 72.5186 0.3431
PK109 91.0871 1.079 0.9 0.3886 0.3434
PK110 91.1710 1.078 11.0 4.9760 0.3436
PK111 91.3684 1.077 35.2 15.9714 0.3443
PK112 92.1491 1.069 31.6 14.4526 0.3469
PK113 92.6161 1.065 16.0 7.3456 0.3485
PK114 92.9602 1.062 4.9 2.2389 0.3496
PK115 93.2789 1.059 7.9 3.6787 0.3507
PK116 93.6236 1.056 2.8 1.3034 0.3520
PK117 94.3963 1.050 24.4 11.4076 0.3547
PK118 95.0847 1.044 83.0 39.1086 0.3572
PK119 95.4729 1.041 126.3 59.7717 0.3586
PK120 96.1078 1.036 66.8 31.7976 0.3609
PK121 96.2256 1.035 174.7 83.3400 0.3614
PK122 96.2337 1.035 241.9 115.3952 0.3614
PK123 96.6778 1.031 252.1 120.8133 0.3631
PK124 96.7473 1.031 0.1 0.0363 0.3634
PK125 96.9174 1.029 22.9 11.0173 0.3640
PK126 97.8850 1.022 0.9 0.4354 0.3677
PK127 98.4109 1.017 0.6 0.2767 0.3698
PK128 98.6339 1.016 0.0 0.0124 0.3707
PK129 98.7524 1.015 0.2 0.0929 0.3712
PK130 99.2249 1.011 1.4 0.6699 0.3731
PK131 99.3044 1.011 0.4 0.1965 0.3734
PK132 99.5125 1.009 1.2 0.6165 0.3743
PK133 99.8482 1.007 1.9 0.9491 0.3757
PK134 99.8960 1.006 0.5 0.2555 0.3759
PK135 100.0862 1.005 131.7 65.4625 0.3766
PK136 100.1682 1.004 0.3 0.1259 0.3770
PK137 101.3188 0.996 0.2 0.0756 0.3819
PK138 101.4024 0.995 55.3 27.8808 0.3822
PK139 102.4012 0.988 17.2 8.7798 0.3866
PK140 102.4146 0.988 0.1 0.0302 0.3867
PK141 102.8994 0.985 0.5 0.2644 0.3888
PK142 103.3524 0.982 0.9 0.4817 0.3909
PK143 104.5933 0.974 34.5 18.0670 0.3966
PK144 105.2466 0.969 51.4 27.1193 0.3998
PK145 105.4189 0.968 70.9 37.4725 0.4006
PK146 105.7624 0.966 99.6 52.8729 0.4023
PK147 106.2549 0.963 26.3 14.0656 0.4047
PK148 106.5999 0.961 30.0 16.0802 0.4064
PK149 106.7366 0.960 0.5 0.2729 0.4071
PK150 107.1414 0.957 0.0 0.0048 0.4091
PK151 107.4293 0.956 0.1 0.0393 0.4106
PK152 108.2388 0.951 11.1 6.0682 0.4148
PK153 108.4712 0.949 7.4 4.0796 0.4161
PK154 108.8460 0.947 0.3 0.1658 0.4180
PK155 109.0492 0.946 0.5 0.2666 0.4191
PK156 109.2324 0.945 1.1 0.6346 0.4201
PK157 109.3127 0.944 0.9 0.5212 0.4206
PK158 109.6650 0.942 103.1 57.4681 0.4225
PK159 109.9410 0.941 25.8 14.4096 0.4240
PK160 110.0746 0.940 2.5 1.3806 0.4248
PK161 110.4530 0.938 16.8 9.4451 0.4269
PK162 110.5721 0.937 59.9 33.8049 0.4275
PK163 110.6465 0.937 41.7 23.5523 0.4280
PK164 111.2777 0.933 0.4 0.2045 0.4316
PK165 111.2805 0.933 59.9 34.1440 0.4316
PK166 111.3825 0.933 4.1 2.3264 0.4322
PK167 112.2343 0.928 1.3 0.7490 0.4372
PK168 112.8085 0.925 0.2 0.0922 0.4406
PK169 113.3029 0.922 33.0 19.3324 0.4436
PK170 113.4586 0.921 39.4 23.0951 0.4446
PK171 114.4757 0.916 105.8 62.9735 0.4510
PK172 114.5713 0.916 92.9 55.3834 0.4516
PK173 114.7247 0.915 0.4 0.2667 0.4526
PK174 114.9613 0.914 130.5 78.2161 0.4541
PK175 114.9880 0.913 110.0 65.9319 0.4543
PK176 115.4154 0.911 77.1 46.5085 0.4571
PK177 115.6306 0.910 0.0 0.0200 0.4585
PK178 115.9653 0.908 40.7 24.7763 0.4607
PK179 115.9731 0.908 0.2 0.1061 0.4608
loop_
_refln_index_h
_refln_index_k
_refln_index_l
_pd_refln_peak_id
0 1 1 PK1
1 0 1 PK2
0 2 0 PK3
1 1 1 PK4
2 0 0 PK5
1 2 1 PK6
0 0 2 PK7
2 1 0 PK8
2 0 1 PK9
1 0 2 PK10
2 1 1 PK11
0 3 1 PK12
1 1 2 PK13
2 2 0 PK14
0 2 2 PK15
1 3 1 PK16
2 2 1 PK17
1 2 2 PK18
2 0 2 PK19
0 4 0 PK20
2 3 0 PK21
2 1 2 PK22
2 3 1 PK23
1 3 2 PK24
0 1 3 PK25
3 0 1 PK26
2 2 2 PK27
1 4 1 PK28
1 0 3 PK29
3 1 1 PK30
1 1 3 PK31
3 2 1 PK32
2 4 0 PK33
0 4 2 PK34
1 2 3 PK35
2 3 2 PK36
3 0 2 PK37
2 4 1 PK38
2 0 3 PK39
1 4 2 PK40
3 1 2 PK41
2 1 3 PK42
0 5 1 PK43
0 3 3 PK44
3 3 1 PK45
1 5 1 PK46
1 3 3 PK47
3 2 2 PK48
2 2 3 PK49
4 0 0 PK50
2 4 2 PK51
4 1 0 PK52
0 0 4 PK53
2 5 0 PK54
4 0 1 PK55
4 1 1 PK56
1 0 4 PK57
3 3 2 PK58
2 5 1 PK59
2 3 3 PK60
1 5 2 PK61
4 2 0 PK62
1 1 4 PK63
3 4 1 PK64
3 0 3 PK65
0 6 0 PK66
1 4 3 PK67
0 2 4 PK68
3 1 3 PK69
4 2 1 PK70
1 2 4 PK71
4 0 2 PK72
3 2 3 PK73
1 6 1 PK74
4 3 0 PK75
4 1 2 PK76
2 0 4 PK77
2 5 2 PK78
2 1 4 PK79
3 4 2 PK80
2 4 3 PK81
4 3 1 PK82
4 2 2 PK83
0 5 3 PK84
1 3 4 PK85
2 6 0 PK86
0 6 2 PK87
2 2 4 PK88
3 5 1 PK89
3 3 3 PK90
1 5 3 PK91
2 6 1 PK92
1 6 2 PK93
4 4 0 PK94
4 3 2 PK95
0 4 4 PK96
4 4 1 PK97
2 3 4 PK98
4 0 3 PK99
3 0 4 PK100
4 1 3 PK101
1 4 4 PK102
5 0 1 PK103
3 5 2 PK104
3 1 4 PK105
2 5 3 PK106
0 7 1 PK107
5 1 1 PK108
0 1 5 PK109
3 4 3 PK110
2 6 2 PK111
1 0 5 PK112
1 7 1 PK113
4 2 3 PK114
1 1 5 PK115
3 2 4 PK116
5 2 1 PK117
4 4 2 PK118
3 6 1 PK119
4 5 0 PK120
2 4 4 PK121
1 6 3 PK122
1 2 5 PK123
5 0 2 PK124
2 7 0 PK125
5 1 2 PK126
4 5 1 PK127
4 3 3 PK128
2 0 5 PK129
2 7 1 PK130
3 3 4 PK131
1 7 2 PK132
1 5 4 PK133
2 1 5 PK134
5 3 1 PK135
0 3 5 PK136
5 2 2 PK137
3 5 3 PK138
1 3 5 PK139
3 6 2 PK140
2 6 3 PK141
2 2 5 PK142
4 0 4 PK143
0 8 0 PK144
4 5 2 PK145
4 1 4 PK146
2 7 2 PK147
2 5 4 PK148
4 4 3 PK149
5 3 2 PK150
3 4 4 PK151
5 4 1 PK152
5 0 3 PK153
4 6 0 PK154
0 7 3 PK155
2 3 5 PK156
4 2 4 PK157
5 1 3 PK158
1 8 1 PK159
3 0 5 PK160
0 6 4 PK161
3 7 1 PK162
1 4 5 PK163
4 6 1 PK164
3 1 5 PK165
1 7 3 PK166
6 0 0 PK167
1 6 4 PK168
5 2 3 PK169
6 1 0 PK170
3 6 3 PK171
2 8 0 PK172
6 0 1 PK173
3 2 5 PK174
0 8 2 PK175
4 3 4 PK176
5 4 2 PK177
0 0 6 PK178
6 1 1 PK179
