#------------------------------------------------------------------------------
#$Date: 2018-02-04 02:45:06 +0200 (Sun, 04 Feb 2018) $
#$Revision: 206145 $
#$URL: file:///home/coder/svn-repositories/cod/cif/2/10/81/2108157.cif $
#------------------------------------------------------------------------------
#
# This file is available in the Crystallography Open Database (COD),
# http://www.crystallography.net/. The original data for this entry
# were provided by IUCr Journals, http://journals.iucr.org/.
#
# The file may be used within the scientific community so long as
# proper attribution is given to the journal article from which the
# data were obtained.
#
data_2108157
loop_
_publ_author_name
'Yakubovich, Olga'
'Shvanskaya, Larisa'
'Pchelkina, Zlata'
'Dimitrova, Olga'
'Volkov, Anatoliy'
'Volkova, Olga'
'Vasiliev, Alexander'
_publ_section_title
;
 A novel representative in the rare family of trivanadates,
 KMn~2~V~3~O~10~: synthesis, crystal structure and magnetic properties
;
_journal_coeditor_code           UM5009SUP1
_journal_issue                   1
_journal_name_full               'Acta Crystallographica Section B'
_journal_page_first              97
_journal_page_last               103
_journal_paper_doi               10.1107/S205252061701811X
_journal_volume                  74
_journal_year                    2018
_chemical_formula_moiety         'K Mn2 O10 V3'
_chemical_formula_sum            'K Mn2 O10 V3'
_chemical_formula_weight         461.80
_chemical_name_common            'Potassium dimanganese trivanadate'
_chemical_name_systematic        'Potassium dimanganese trivanadate'
_space_group_crystal_system      triclinic
_space_group_IT_number           2
_space_group_name_Hall           '-P 1'
_space_group_name_H-M_alt        'P -1'
_symmetry_space_group_name_Hall  '-P 1'
_symmetry_space_group_name_H-M   'P -1'
_atom_sites_solution_primary     direct
_atom_sites_solution_secondary   difmap
_audit_creation_method           SHELXL-2016/6
_cell_angle_alpha                101.858(5)
_cell_angle_beta                 102.627(5)
_cell_angle_gamma                100.669(5)
_cell_formula_units_Z            2
_cell_length_a                   6.912(5)
_cell_length_b                   6.993(5)
_cell_length_c                   9.656(5)
_cell_measurement_reflns_used    4295
_cell_measurement_temperature    293(2)
_cell_measurement_theta_max      32.588
_cell_measurement_theta_min      2.698
_cell_volume                     432.6(5)
_computing_cell_refinement
;
CrysAlisPro, Agilent Technologies,
Version 1.171.35.21 (release 20-01-2012 CrysAlis171 .NET)
(compiled Jan 23 2012,18:06:46)
;
_computing_data_collection
;
CrysAlisPro, Agilent Technologies,
Version 1.171.35.21 (release 20-01-2012 CrysAlis171 .NET)
(compiled Jan 23 2012,18:06:46)
;
_computing_data_reduction
;
CrysAlisPro, Agilent Technologies,
Version 1.171.35.21 (release 20-01-2012 CrysAlis171 .NET)
(compiled Jan 23 2012,18:06:46)
;
_computing_molecular_graphics    'DIMOND (Brandenburg, 2006)'
_computing_structure_refinement  'SHELXL-2016/6 (Sheldrick, 2016)'
_computing_structure_solution    'SHELXT (Sheldrick, 2015)'
_diffrn_ambient_temperature      293(2)
_diffrn_detector_area_resol_mean 16.0630
_diffrn_measured_fraction_theta_full 0.999
_diffrn_measured_fraction_theta_max 1.000
_diffrn_measurement_device_type  'Xcalibur, Sapphire3'
_diffrn_measurement_method       \w
_diffrn_radiation_type           MoK\a
_diffrn_radiation_wavelength     0.71073
_diffrn_reflns_av_R_equivalents  0.0329
_diffrn_reflns_av_unetI/netI     0.0337
_diffrn_reflns_Laue_measured_fraction_full 0.999
_diffrn_reflns_Laue_measured_fraction_max 1.000
_diffrn_reflns_limit_h_max       9
_diffrn_reflns_limit_h_min       -9
_diffrn_reflns_limit_k_max       9
_diffrn_reflns_limit_k_min       -9
_diffrn_reflns_limit_l_max       13
_diffrn_reflns_limit_l_min       -13
_diffrn_reflns_number            8207
_diffrn_reflns_point_group_measured_fraction_full 0.999
_diffrn_reflns_point_group_measured_fraction_max 1.000
_diffrn_reflns_theta_full        25.242
_diffrn_reflns_theta_max         30.000
_diffrn_reflns_theta_min         3.067
_diffrn_source                   'Enhance (Mo) X-ray Source'
_exptl_absorpt_coefficient_mu    6.480
_exptl_absorpt_correction_T_max  0.853
_exptl_absorpt_correction_T_min  0.416
_exptl_absorpt_correction_type   gaussian
_exptl_absorpt_process_details
;
CrysAlisPro, Agilent Technologies,
Version 1.171.35.21 (release 20-01-2012 CrysAlis171 .NET)
(compiled Jan 23 2012,18:06:46)
Numerical absorption correction based on gaussian integration over
a multifaceted crystal model
;
_exptl_crystal_colour            brown
_exptl_crystal_density_diffrn    3.545
_exptl_crystal_density_meas      ?
_exptl_crystal_description       plate
_exptl_crystal_F_000             436
_exptl_crystal_size_max          0.420
_exptl_crystal_size_mid          0.100
_exptl_crystal_size_min          0.050
_refine_diff_density_max         0.589
_refine_diff_density_min         -0.590
_refine_diff_density_rms         0.124
_refine_ls_extinction_coef       0.0054(8)
_refine_ls_extinction_expression Fc^*^=kFc[1+0.001xFc^2^\l^3^/sin(2\q)]^-1/4^
_refine_ls_extinction_method     'SHELXL-2016/6 (Sheldrick 2016)'
_refine_ls_goodness_of_fit_ref   1.113
_refine_ls_hydrogen_treatment    undef
_refine_ls_matrix_type           full
_refine_ls_number_parameters     146
_refine_ls_number_reflns         2514
_refine_ls_number_restraints     0
_refine_ls_restrained_S_all      1.113
_refine_ls_R_factor_all          0.0272
_refine_ls_R_factor_gt           0.0240
_refine_ls_shift/su_max          0.000
_refine_ls_shift/su_mean         0.000
_refine_ls_structure_factor_coef Fsqd
_refine_ls_weighting_details
'w=1/[\s^2^(Fo^2^)+(0.0253P)^2^] where P=(Fo^2^+2Fc^2^)/3'
_refine_ls_weighting_scheme      calc
_refine_ls_wR_factor_gt          0.0591
_refine_ls_wR_factor_ref         0.0612
_reflns_Friedel_coverage         0.000
_reflns_number_gt                2293
_reflns_number_total             2514
_reflns_threshold_expression     'I > 2\s(I)'
_cod_data_source_file            um5009sup1.cif
_cod_data_source_block           I
_cod_depositor_comments
;
The following automatic conversions were performed:

'_exptl_crystal_density_meas' value 'not measured' was changed to '?'
- the value is perceived as not measured.

Automatic conversion script
Id: cif_fix_values 4973 2017-02-22 13:04:09Z antanas 

 Adding full bibliography for 2108157.cif.
;
_cod_database_code               2108157
_cod_database_fobs_code          2108157
_shelx_shelxl_version_number     2016/6
_shelx_space_group_comment
;
The symmetry employed for this shelxl refinement is uniquely defined
by the following loop, which should always be used as a source of
symmetry information in preference to the above space-group names.
They are only intended as comments.
;
_shelx_estimated_absorpt_t_min   0.172
_shelx_estimated_absorpt_t_max   0.738
_shelx_res_file
;
TITL 7488-full in P-1
    shelx.res
    created by SHELXL-2016/6 at 16:42:16 on 05-Apr-2017
CELL  0.71073   6.9120   6.9930   9.6560  101.858  102.627  100.669
ZERR     2.00   0.0050   0.0050   0.0050    0.005    0.005    0.005
LATT   1
SFAC  O    K    V    MN
UNIT  20   2    6    4
BOND
FMAP   2
PLAN   25
SIZE 0.42x0.10x0.05
L.S. 8
OMIT -3 60
ACTA
WGHT    0.025300
EXTI    0.005415
FVAR       5.33776
MN1   4   -0.057148   -0.239452    0.205861    11.00000    0.00952    0.01029 =
         0.00936    0.00255    0.00219    0.00229
MN2   4    0.682767    0.207297    0.518208    11.00000    0.00880    0.01070 =
         0.00832    0.00215    0.00138    0.00199
V2    3    0.458665   -0.111738    0.179042    11.00000    0.00708    0.00747 =
         0.00774    0.00162    0.00131    0.00174
V3    3    0.161875    0.236479    0.451490    11.00000    0.00743    0.00801 =
         0.00777    0.00169    0.00170    0.00202
V1    3    0.087773   -0.224351    0.882292    11.00000    0.00799    0.00896 =
         0.00753    0.00296    0.00125    0.00234
K1    2    0.454374    0.398209    0.189079    11.00000    0.01540    0.02072 =
         0.04548    0.01942    0.00399    0.00338
O1    1    0.356821    0.131468    0.503989    11.00000    0.00940    0.01144 =
         0.01313    0.00323    0.00240    0.00401
O2    1    0.024804    0.107330    0.259205    11.00000    0.01246    0.01021 =
         0.01043    0.00272    0.00133    0.00292
O3    1    0.722258    0.231268    0.749414    11.00000    0.00902    0.01236 =
         0.01118    0.00436    0.00339    0.00153
O4    1    0.002123    0.218061    0.563761    11.00000    0.01079    0.01449 =
         0.00933    0.00179    0.00294    0.00340
O5    1    0.312169   -0.072108    0.011466    11.00000    0.01119    0.01542 =
         0.01244    0.00658    0.00015   -0.00024
O6    1   -0.379230   -0.256986    0.146793    11.00000    0.01156    0.01192 =
         0.01648    0.00449    0.00494    0.00381
O7    1    0.132574   -0.441105    0.811897    11.00000    0.01906    0.01047 =
         0.01841    0.00362    0.00402    0.00413
O8    1    0.589207    0.114206    0.288484    11.00000    0.01516    0.00937 =
         0.01003    0.00180    0.00125    0.00045
O9    1   -0.076041   -0.268005    0.979954    11.00000    0.01202    0.02618 =
         0.01132    0.00587    0.00272    0.00287
O10   1    0.263893    0.474932    0.460387    11.00000    0.01962    0.01034 =
         0.02059    0.00497    0.00421    0.00234
HKLF 4




REM  7488-full in P-1
REM R1 =  0.0240 for    2293 Fo > 4sig(Fo)  and  0.0272 for all    2514 data
REM    146 parameters refined using      0 restraints

END

WGHT      0.0253      0.0085

REM Highest difference peak  0.589,  deepest hole -0.590,  1-sigma level  0.124
Q1    1   0.6447  0.1367  0.7619  11.00000  0.05    0.59
Q2    1   0.3470 -0.1031 -0.0179  11.00000  0.05    0.59
Q3    1   0.0515  0.2112  0.5091  11.00000  0.05    0.53
Q4    1  -0.3786 -0.2926  0.1740  11.00000  0.05    0.50
Q5    1  -0.4042 -0.1680  0.1554  11.00000  0.05    0.47
Q6    1   0.0793  0.1809  0.5987  11.00000  0.05    0.46
Q7    1   0.7156  0.2029  0.6432  11.00000  0.05    0.46
Q8    1  -0.0483  0.2010  0.4337  11.00000  0.05    0.45
Q9    1  -0.4195 -0.3053  0.1047  11.00000  0.05    0.43
Q10   1   0.2676 -0.1656  0.0292  11.00000  0.05    0.43
Q11   1  -0.0027  0.3005  0.5421  11.00000  0.05    0.43
Q12   1  -0.0200  0.1677  0.5391  11.00000  0.05    0.42
Q13   1   0.7640  0.1824  0.7363  11.00000  0.05    0.42
Q14   1  -0.0063 -0.2393  0.9443  11.00000  0.05    0.40
Q15   1  -0.0909 -0.4812  0.8419  11.00000  0.05    0.40
Q16   1   0.6230  0.1631  0.6784  11.00000  0.05    0.39
Q17   1   0.1276  0.3887  0.4378  11.00000  0.05    0.39
Q18   1   0.1863 -0.3745  0.8533  11.00000  0.05    0.39
Q19   1  -0.1313 -0.2829  0.9826  11.00000  0.05    0.39
Q20   1   0.4709  0.0369  0.2626  11.00000  0.05    0.38
Q21   1   0.2350 -0.1232 -0.0781  11.00000  0.05    0.37
Q22   1   0.6388  0.1587  0.2240  11.00000  0.05    0.37
Q23   1   0.2652  0.4789  0.4138  11.00000  0.05    0.37
Q24   1  -0.0298  0.0756  0.4742  11.00000  0.05    0.37
Q25   1   0.0562 -0.2005  0.2413  11.00000  0.05    0.37
;
_shelx_res_checksum              16669
_shelx_hkl_file
;
   0   0   2 569.700 100.459  12
   0   0  -2 325.321 91.9098   6
   0   0   2 535.229 109.175   9
   0   0  -2 362.277 77.4030  12
   0   0   2 476.473 90.8683  11
   0   0  -2 558.667 113.243  11
   0   0  -2 430.706 81.0754   5
   0   0  -3 918925. 14612.7   6
   0   0  -3 885971. 14229.5  12
   0   0   4 157820. 2956.63   4
   0   0  -4 162576. 3811.92   6
   0   0   4 164615. 3683.58  11
   0   0  -4 154171. 3409.07  12
   0   0   5 14118.4 533.177   4
   0   0  -5 13476.2 933.075   6
   0   0   5 15582.1 980.312  11
   0   0  -5 13327.9 785.856  12
   0   0   6 78332.4 1731.10   4
   0   0  -6 76106.4 2366.41  12
   0   0  -6 78162.3 2754.18   6
   0   0   7 1174.10 393.365  11
   0   0  -7 594.410 250.845   6
   0   0   7 588.063 96.9490   4
   0   0  -7 500.648 183.793  12
   0   0   7 835.186 436.941   1
   0   0  -8 5290.71 763.807   6
   0   0   8 5537.51 1144.57   1
   0   0   8 5665.63 836.224  11
   0   0  -8 5826.03 665.523  12
   0   0  -9 8255.14 837.670  12
   0   0   9 6600.64 1252.72   1
   0   0  -9 8361.63 1030.30   6
   0   0   9 8575.27 1060.14   2
   0   0 -10 10478.5 1239.73   6
   0   0  10 8594.97 1134.52   2
   0   0 -10 11062.3 1023.93  12
   0   0  10 8539.41 1496.01   1
   0   0  11 17278.1 2205.40   1
   0   0  11 19289.3 1809.48   2
   0   0 -11 22294.4 1931.68   6
   0   0 -12 10922.0 1431.69   6
   0   0  12 9943.31 1377.40   2
   0   0  12 9698.34 1689.06   1
   0   0  13 7947.89 1562.48   1
   0   0 -13 8677.35 1357.26   6
   0   0  13 9235.76 1406.14   2
   1  -1  13 17641.5 1989.87   2
   1  -1  13 13754.5 2099.83   1
  -1   1 -13 19522.3 2005.95   6
   1  -1  12 5358.47 1035.03   2
  -1   1 -12 6680.54 1091.75   6
   1  -1  12 4628.44 1230.68   1
   1  -1  11 534.511 349.668   1
   1  -1  11 843.679 407.138   2
  -1   1 -11 929.710 364.138   6
  -1   1 -11 1029.81 367.015  12
   1  -1  10 20633.4 1839.36   2
  -1   1 -10 17669.2 1562.16   6
   1  -1  10 17970.4 2197.12   1
  -1   1 -10 21674.4 1612.24  12
   1  -1   9 118035. 4510.53   2
   1  -1   9 132227. 4304.99  11
  -1   1  -9 124010. 4263.74   6
  -1   1  -9 124846. 4093.37  12
  -1   1  -8 16058.5 1234.59  12
  -1   1  -8 15330.1 1251.68   6
   1  -1   8 17347.9 1274.05  11
  -1   1  -7 115.931 89.1990   6
   1  -1   7 313.233 214.624  11
  -1   1  -7 268.551 157.151  12
   1  -1   6 266539. 5897.43  11
  -1   1  -6 276565. 6117.77  12
  -1   1  -6 262554. 5996.11   6
   1  -1   5 27864.1 1264.70  11
   1  -1   5 25704.3 662.350   4
  -1   1  -5 26191.8 1257.14   6
  -1   1  -5 28029.3 1341.33  12
  -1   1  -4 942.921 214.614  12
   1  -1   4 997.281 111.666   4
  -1   1  -4 812.036 179.788   6
  -1   1  -4 1002.70 139.449   5
   1  -1   4 982.253 202.381  11
   1  -1   3 134582. 3084.81  11
  -1   1  -3 134055. 2963.24   6
  -1   1  -3 138136. 3244.61  12
  -1   1  -3 141224. 2556.83   5
   1  -1   3 144304. 2633.40   4
   1  -1   2 3423.43 304.063  11
  -1   1  -2 3438.20 335.797  12
  -1   1  -2 3087.61 224.450   4
   1  -1   2 4130.54 274.004   6
   1  -1   2 3632.71 236.216   4
  -1   1  -2 3390.54 239.870   6
   1  -1   2 3815.19 383.120  10
  -1   1  -1 1428.28 183.094  12
   1  -1   1 1265.15 200.061  10
  -1   1  -1 1338.39 145.754   4
  -1   1  -1 1337.03 165.084   3
   1  -1   1 1374.96 153.836   4
   1  -1   1 1522.50 189.239   9
  -1   1   0 23377.8 774.255   4
   1  -1   0 22694.7 972.091  10
   1  -1   0 24097.9 789.150   1
   1  -1   0 23211.8 773.290   3
  -1   1   0 24065.0 755.366   3
   1  -1   0 24986.6 669.466   9
  -1   1   0 22930.2 653.296   9
   1  -1   0 24557.0 808.871   4
   1  -1  -1 6721.41 374.694   6
  -1   1   1 6907.78 406.714   4
  -1   1   1 6452.25 457.849   1
  -1   1   1 7357.09 389.327   6
   1  -1  -2 17245.1 781.382   6
  -1   1   2 18360.0 485.331   9
  -1   1   2 19561.4 611.091   7
  -1   1   2 17685.8 731.829   4
  -1   1   2 15826.1 935.946   1
   1  -1  -3 83909.0 1688.60  12
  -1   1   3 87214.7 1863.05   9
  -1   1   3 87038.5 1683.74  12
  -1   1   3 82206.8 2065.42   4
   1  -1  -3 80697.8 2331.61   6
   1  -1  -4 21395.0 1151.73   6
  -1   1   4 17269.7 1441.09   1
  -1   1   4 22901.9 922.334   4
   1  -1  -4 21636.5 733.366  12
  -1   1   5 48232.7 1520.85   4
   1  -1  -5 51030.5 2047.83   6
   1  -1  -5 49423.0 1400.76  12
   1  -1  -6 23014.3 1435.78   6
   1  -1  -6 21639.1 952.703  12
  -1   1   6 22601.5 982.112   4
  -1   1   7 8774.69 604.088   4
  -1   1   7 7066.37 1181.01   1
   1  -1  -7 9047.36 651.289  12
   1  -1  -7 7905.89 902.151   6
  -1   1   8 27808.8 1734.73   2
  -1   1   8 23193.5 2271.49   1
   1  -1  -8 28440.3 1303.21  12
   1  -1  -8 27581.4 1849.64   6
  -1   1   9 389.514 305.550   1
  -1   1   9-49.3958 71.2687   2
   1  -1  -9 105.156 171.366   6
   1  -1 -10 11405.7 1344.50   6
  -1   1  10 11196.6 1244.52   2
  -1   1  10 10351.3 1622.43   1
  -1   1  11 611.199 331.992   2
   1  -1 -11 270.695 298.753   6
  -1   1  11-86.9728 248.043   1
  -1   1  12 15819.5 1691.47   2
  -1   1  12 13601.1 1986.34   1
   1  -1 -12 15879.9 1790.68   6
  -1   1  13 108.146 152.799   2
   1  -1 -13 169.682 204.903   6
  -1   1  13-9.23443 181.180   1
   2  -2  13 849.108 643.777   1
   2  -2  12 4430.57 973.218   2
  -2   2 -12 4159.21 824.005  12
   2  -2  12 3007.44 1011.70   1
  -2   2 -11 214.431 168.044   6
  -2   2 -11-160.221 196.684  12
   2  -2  11 297.108 242.315   2
  -2   2 -10 2481.54 572.867  12
   2  -2  10 2035.19 587.830   2
  -2   2 -10 3225.48 657.436   6
   2  -2   9 1258.25 390.742  11
  -2   2  -9 940.300 355.522  12
   2  -2   9 1319.18 451.453   2
  -2   2  -9 970.245 327.441   6
   2  -2   8-63.1102 81.6700   2
  -2   2  -8 114.884 130.393   6
  -2   2  -8 53.8541 87.6614  12
  -2   2  -7 117.210 114.825  12
   2  -2   7 391.877 196.878  11
  -2   2  -7 181.942 126.433   6
   2  -2   6 369.145 244.232  11
  -2   2  -6 247.950 159.734  12
  -2   2  -6 216.875 142.719   6
   2  -2   5 37492.9 1646.11  11
  -2   2  -5 38620.7 1823.22  12
  -2   2  -5 39576.5 1519.56   6
   2  -2   4 150772. 4218.91  10
  -2   2  -4 154668. 4000.78  12
  -2   2  -4 152329. 3339.29   6
  -2   2  -4 145742. 3151.01   4
   2  -2   4 142584. 3635.84  11
   2  -2   3 2853.01 380.792  11
  -2   2  -3 2856.81 312.275   4
   2  -2   3 2519.16 421.182  10
  -2   2  -3 2564.94 387.320  12
  -2   2  -3 3147.01 276.870   6
  -2   2  -2 202256. 4351.32  12
   2  -2   2 192082. 3392.21   5
  -2   2  -2 188107. 3994.29   4
   2  -2   2 192552. 4632.31  10
   2  -2   1 208827. 3796.98   5
  -2   2  -1 202917. 4273.84  12
  -2   2  -1 199818. 4212.07   4
   2  -2   1 192101. 4253.47   3
   2  -2   1 198394. 4767.83  10
  -2   2   0 61502.8 1670.37  12
   2  -2   0 67135.6 2349.14  10
   2  -2   0 61861.8 1900.12   3
  -2   2   0 60332.3 1832.76   4
   2  -2   0 60385.5 1330.13   6
   2  -2   0 63695.7 1390.94   2
   2  -2  -1 940.953 154.347   6
  -2   2   1 459.974 153.563   4
   2  -2  -1 988.984 211.249   3
  -2   2   1 1128.85 258.458   1
  -2   2   2 51546.8 1979.19   1
  -2   2   2 50363.7 1695.33   4
   2  -2  -2 46899.6 1546.17   6
  -2   2   3 73471.6 2206.08   4
   2  -2  -3 74263.7 2246.71   6
  -2   2   3 68873.7 2649.96   1
  -2   2   4 1707.93 439.016   1
  -2   2   4 3192.11 407.419   4
   2  -2  -4 2368.48 402.123   6
   2  -2  -5 54872.3 2225.16   6
  -2   2   5 51381.8 1859.14   4
  -2   2   6 87104.2 2615.32   4
   2  -2  -6 82958.1 1742.85  12
  -2   2   6 85398.6 2629.97   2
   2  -2  -6 82181.8 3089.77   6
   2  -2  -7 446.135 211.203   6
  -2   2   7 521.291 185.480   4
  -2   2   7 262.563 160.026   2
  -2   2   7 960.421 510.017   1
   2  -2  -8 22208.1 1717.30   6
  -2   2   8 21380.9 1215.38   4
  -2   2   8 23403.9 1501.22   2
   2  -2  -9 103283. 4181.73   6
  -2   2   9 95676.5 3551.56   2
  -2   2  10 4260.78 738.517   2
  -2   2  10 5529.17 1211.75   1
   2  -2 -10 4448.95 851.769   6
  -2   2  11 46493.4 2739.21   2
   2  -2 -11 51547.2 3189.64   6
  -2   2  12 11027.5 1812.68   1
   2  -2 -12 11219.4 1551.49   6
  -3   3 -12 186.016 194.593  12
  -3   3 -11 3439.51 777.532  12
   3  -3  11 3299.86 825.319   2
   3  -3  10 20776.2 1986.25   2
  -3   3 -10 22272.1 1920.19  12
  -3   3  -9 16256.1 1557.37  12
   3  -3   9 11887.8 1402.36   2
  -3   3  -8 221.288 188.148  12
   3  -3   8 415.103 288.398   2
   3  -3   8 250.197 153.593  11
   3  -3   7 95262.9 3369.53  11
  -3   3  -7 91664.0 3645.32  12
  -3   3  -6 47186.7 1956.52   6
  -3   3  -6 46715.2 2348.42  12
   3  -3   6 41012.8 2205.31   2
   3  -3   6 43296.0 2059.39  11
   3  -3   5 3337.67 629.333  10
   3  -3   5 3497.76 580.765   2
  -3   3  -5 2995.70 556.257  12
  -3   3  -5 3473.35 401.412   4
   3  -3   5 2943.71 484.693  11
   3  -3   4 313353. 7060.18  11
   3  -3   4 317475. 7122.51   2
  -3   3  -4 328280. 6556.14   4
  -3   3  -4 328828. 7355.67  12
   3  -3   4 316893. 7748.68  10
  -3   3  -3 48684.7 1763.02   4
  -3   3  -3 47264.5 1991.79  12
   3  -3   3 48315.9 1871.79   2
   3  -3   3 48019.8 2296.12  10
   3  -3   3 43734.5 986.564   5
  -3   3  -2 6107.90 599.302   4
  -3   3  -2 5891.13 615.514  12
   3  -3   2 6436.64 561.403   2
   3  -3   2 5888.97 763.377  10
   3  -3   1 123981. 3969.88  10
  -3   3  -1 123383. 3242.11  12
  -3   3  -1 120207. 3268.16   4
   3  -3   1 125379. 2889.63   2
   3  -3   1 124039. 3392.00   3
  -3   3   0 116023. 2945.73  12
   3  -3   0 116269. 3379.62   3
   3  -3   0 114750. 2366.08   6
   3  -3   0 120456. 2468.84   2
   3  -3   0 120862. 3930.19  10
  -3   3   0 118546. 3250.56   4
  -3   3   1 11950.7 668.551  12
  -3   3   1 11218.7 860.609   4
   3  -3  -1 11384.9 631.277   6
   3  -3  -1 12182.3 905.426   3
   3  -3  -2 12857.3 780.498   6
  -3   3   2 12178.6 930.517   4
   3  -3  -2 12258.6 941.530   3
  -3   3   2 13246.8 1111.71   1
  -3   3   2 12168.4 590.197  12
  -3   3   3 18595.6 1417.15   1
   3  -3  -3 18728.7 1076.12   6
  -3   3   3 18631.6 601.708  12
  -3   3   3 18066.2 1160.93   4
   3  -3  -4 6645.68 693.903   6
  -3   3   4 6020.59 674.097   4
  -3   3   4 6899.60 399.868   2
  -3   3   4 5046.71 813.743   1
  -3   3   5 37144.7 2441.83   1
   3  -3  -5 43875.9 2064.19   6
  -3   3   5 42855.2 1942.47   4
  -3   3   5 45227.2 1454.53   2
  -3   3   6 2478.14 686.546   1
  -3   3   6 1774.82 302.821   2
   3  -3  -6 1738.97 403.128   6
  -3   3   6 1358.55 341.433   4
  -3   3   7-14.3166 142.592   1
  -3   3   7 103.952 99.2480   2
  -3   3   7 142.960 114.746   4
   3  -3  -7 98.4372 59.7301   6
  -3   3   8 11994.3 1041.51   4
   3  -3  -8 11688.3 1271.85   6
  -3   3   8 11386.5 1669.92   1
  -3   3   9 4360.05 1094.01   1
   3  -3  -9 6331.50 985.679   6
   3  -3 -10 2318.50 646.366   6
  -3   3  10 1435.20 723.440   1
  -3   3  11 5471.99 1295.05   1
   3  -3 -11 5540.54 1068.64   6
  -3   3  12 1387.16 665.225   1
   3  -3 -12 1922.62 672.838   6
  -4   4 -11 221.602 218.147  12
   4  -4  11 295.305 254.034   2
  -4   4 -10 49633.6 3130.48  12
   4  -4  10 45763.9 3090.71   2
   4  -4   9 1972.19 590.894   2
  -4   4  -9 1985.16 560.501  12
   4  -4   8 3351.66 708.913   2
  -4   4  -8 2338.36 579.918  12
   4  -4   8 2668.68 575.967  11
   4  -4   7 62650.7 2857.74  11
  -4   4  -7 56462.7 2967.67  12
  -4   4  -6 12398.7 1295.89  12
   4  -4   6 12788.2 1472.13  10
  -4   4  -6 13658.9 946.802   4
   4  -4   6 14511.8 1323.21   2
   4  -4   6 14650.9 1273.56  11
  -4   4  -5 1989.56 384.922   4
   4  -4   5 1511.18 450.592  10
   4  -4   5 1205.33 387.719  11
  -4   4  -5 1409.92 406.825  12
   4  -4   5 1488.09 386.963   2
   4  -4   4 17211.5 1593.22  10
  -4   4  -4 16919.1 1344.72  12
   4  -4   4 17409.7 1250.40   2
  -4   4  -4 17299.3 1150.19   4
   4  -4   4 15527.5 1272.81  11
   4  -4   3-119.927 101.480  10
   4  -4   3 237.231 145.549   2
  -4   4  -3 112.154 146.913   4
  -4   4  -3 401.708 229.054  12
   4  -4   2 7690.57 994.803  10
  -4   4  -2 8386.65 829.628  12
   4  -4   2 8388.64 699.484   2
  -4   4  -2 8129.73 809.567   4
   4  -4   1 6661.71 941.619  10
   4  -4   1 7252.78 569.053   2
  -4   4  -1 6667.62 729.547   4
  -4   4  -1 5699.45 635.108  12
   4  -4   1 6710.49 751.027   3
   4  -4   0 7260.12 819.445   3
   4  -4   0 6440.62 418.265   2
   4  -4   0 6401.40 371.268   6
  -4   4   0 6369.21 625.089  12
  -4   4   0 6102.42 700.079   4
   4  -4   0 7450.98 985.412  10
  -4   4   1 93516.3 2644.67  12
   4  -4  -1 97915.4 3361.26   3
   4  -4  -1 97440.3 3990.83  10
  -4   4   1 88403.4 3125.85   4
   4  -4  -1 96222.8 2416.02   6
  -4   4   2 11951.0 1210.67   1
   4  -4  -2 10801.1 765.194   6
   4  -4  -2 10720.8 1012.97   3
  -4   4   2 9596.76 941.861   4
  -4   4   2 10593.0 673.145  12
   4  -4  -3 20679.1 1209.73   6
  -4   4   3 19401.7 1382.81   4
  -4   4   3 20055.5 811.969  12
   4  -4  -3 20917.4 1491.75   3
  -4   4   3 21612.6 1725.65   1
  -4   4   4 17540.5 1650.53   1
   4  -4  -4 18252.8 1251.05   6
  -4   4   4 18302.2 1355.86   4
   4  -4  -4 20149.5 1539.29   3
  -4   4   5 59012.9 3304.49   1
   4  -4  -5 59627.3 2559.54   6
  -4   4   5 55219.9 2528.89   4
  -4   4   6 17040.7 1362.10   4
   4  -4  -6 19339.7 1491.24   6
  -4   4   6 15367.4 1745.91   1
  -4   4   7 3165.91 590.462   4
  -4   4   7 3013.13 802.755   1
   4  -4  -7 3886.21 714.830   6
  -4   4   8 31456.6 2860.77   1
  -4   4   8 30977.7 1925.84   4
   4  -4  -8 30046.9 2148.23   6
  -4   4   9 1704.51 685.895   1
   4  -4  -9 924.288 353.325   6
  -4   4   9 1520.52 419.552   4
  -4   4  10 18471.0 2388.98   1
   4  -4 -10 17344.1 1826.09   6
   4  -4 -11 11807.7 1584.85   6
  -4   4  11 10751.0 1866.40   1
   5  -5  10 501.165 353.404   2
   5  -5   9-157.131 177.750   2
  -5   5  -9 70.9871 133.158  12
  -5   5  -8 48283.8 3039.55  12
   5  -5   8 54450.0 3023.43  11
   5  -5   8 51741.5 3090.90   2
   5  -5   7 1387.82 482.129  11
  -5   5  -7 1618.53 539.497  12
   5  -5   7 1990.25 711.371  10
   5  -5   7 1888.98 545.932   2
   5  -5   6 3682.99 696.303  11
  -5   5  -6 3447.04 703.514  12
   5  -5   6 4484.64 970.140  10
   5  -5   6 3668.45 695.478   2
   5  -5   5 157651. 5993.88  10
  -5   5  -5 154517. 4467.89   4
   5  -5   5 155906. 4883.91   2
   5  -5   5 140194. 4919.03  11
  -5   5  -5 146428. 5071.87  12
   5  -5   4 9174.79 954.706   2
  -5   5  -4 8435.92 913.002   4
   5  -5   4 8073.93 1227.10  10
  -5   5  -4 8175.57 1011.19  12
   5  -5   4 7554.15 1000.04  11
  -5   5  -3 3771.28 643.639  12
  -5   5  -3 3844.23 637.917   4
   5  -5   3 3735.26 786.075  10
   5  -5   3 3657.32 552.457   2
   5  -5   2 30484.2 2320.39  10
  -5   5  -2 30157.7 1790.98  12
   5  -5   2 33518.1 1560.69   2
  -5   5  -2 32979.4 1911.21   4
  -5   5  -1 21929.7 1432.83  12
   5  -5   1 21415.0 1908.48  10
  -5   5  -1 20988.4 1529.58   4
   5  -5   1 23901.4 1595.95   3
   5  -5   0 3760.58 792.738  10
  -5   5   0 4200.22 677.314   4
  -5   5   0 4714.93 607.946  12
   5  -5   0 5980.90 826.509   3
   5  -5  -1 3086.58 604.615   3
  -5   5   1 2571.87 412.401  12
   5  -5  -1 3889.92 832.212  10
  -5   5   1 2250.91 510.702   4
   5  -5  -2 4404.50 882.530  10
   5  -5  -2 3973.60 704.072   3
  -5   5   2 4592.11 736.511   4
   5  -5  -3 1023.58 272.351   6
   5  -5  -3 1209.63 408.130   3
  -5   5   3 1098.33 394.611   4
   5  -5  -3 1020.45 437.514  10
   5  -5  -4 39171.3 2416.08   3
   5  -5  -4 37719.1 1936.72   6
  -5   5   4 35890.3 2592.19   1
  -5   5   4 34779.9 2154.88   4
   5  -5  -5 24914.4 1993.56   3
   5  -5  -5 25036.3 1680.88   6
  -5   5   5 23335.4 1761.65   4
  -5   5   5 20957.8 2079.47   1
   5  -5  -6 8100.50 1177.36   3
   5  -5  -6 7080.94 947.524   6
  -5   5   6 6842.11 958.722   4
  -5   5   6 7579.17 1292.04   1
   5  -5  -7 54921.7 2925.01   6
  -5   5   7 54619.6 3756.49   1
   5  -5  -7 54405.5 3294.69   3
  -5   5   7 49648.2 2739.67   4
  -5   5   8 3632.63 716.794   4
   5  -5  -8 3813.87 920.892   3
   5  -5  -8 4111.51 826.055   6
  -5   5   8 3525.21 1021.88   1
   5  -5  -9 3742.66 815.023   6
  -5   5   9 2524.41 591.042   4
   5  -5  -9 4340.89 999.354   3
  -5   5   9 4556.26 1211.93   1
   5  -5 -10 34167.4 2696.05   6
   5  -5 -10 33219.9 2932.70   3
  -5   5  10 38748.6 3616.98   1
  -6   6  -8 38570.6 2888.85  12
   6  -6   7 10588.0 1370.91  11
  -6   6  -7 11723.6 1513.78  12
   6  -6   7 11048.4 1727.08  10
  -6   6  -6 2941.11 743.001  12
   6  -6   6 3881.44 802.492  11
   6  -6   6 4662.38 1136.40  10
  -6   6  -5 1383.12 410.014   4
   6  -6   5 2013.75 760.827  10
  -6   6  -5 1605.41 524.460  12
   6  -6   5 1950.12 582.590  11
   6  -6   4 19066.9 2076.44  10
  -6   6  -4 16255.4 1571.29  12
   6  -6   4 16591.5 1650.27  11
  -6   6  -4 15875.0 1435.83   4
  -6   6  -3 1656.88 483.934   4
   6  -6   3 1953.88 702.423  10
  -6   6  -3 1481.65 422.113  12
  -6   6  -2 29514.8 2021.96   4
  -6   6  -2 25377.8 1812.73  12
   6  -6   2 25997.8 2350.02  10
  -6   6  -1 10393.3 1197.54   4
   6  -6   1 12644.7 1598.82  10
  -6   6  -1 11111.6 1124.38  12
  -6   6   0 834.390 322.005   4
  -6   6   0 719.726 257.672  12
   6  -6   0 1206.96 562.846  10
   6  -6  -1 44039.9 3063.49  10
   6  -6  -1 44152.4 2602.53   3
  -6   6   1 45712.1 2657.99   4
   6  -6  -2 17768.1 1938.92  10
   6  -6  -2 17691.4 1676.00   3
  -6   6   2 17183.8 1633.25   4
   6  -6  -3 2099.91 590.463   3
   6  -6  -3 2026.37 675.103  10
  -6   6   3 1423.76 492.429   4
  -6   6   4 9952.19 1277.72   4
   6  -6  -4 10743.0 1383.78   3
   6  -6  -4 10139.2 1510.83  10
   6  -6  -5 21278.3 2043.30   3
  -6   6   5 18752.1 1777.80   4
  -6   6   6 1268.81 537.155   1
  -6   6   6 1168.35 479.239   4
   6  -6  -6 842.570 423.868   3
  -6   6   7 2717.76 705.135   4
   6  -6  -7 2724.48 806.602   3
  -6   6   7 2541.59 775.817   1
  -6   6   8 9038.38 1675.22   1
  -6   6   8 6833.59 1117.89   4
   6  -6  -8 6050.15 1213.46   3
   6  -6  -9 980.808 437.567   6
  -6   6   9 1385.70 523.513   4
   7  -7   6 5995.23 1108.32  11
   7  -7   5 1591.94 701.879  10
  -7   7  -5 343.781 266.221  12
   7  -7   5 1985.79 675.381  11
  -7   7  -4 5067.89 972.858  12
  -7   7  -4 4807.63 870.442   4
   7  -7   4 4334.97 931.794  11
   7  -7   4 5420.10 1188.56  10
  -7   7  -3 21670.8 1912.14   4
  -7   7  -3 20251.3 1893.62  12
   7  -7   3 20229.3 2294.22  10
  -7   7  -2 15012.4 1542.71  12
  -7   7  -2 11469.2 1424.82   4
   7  -7   2 15744.9 1993.46  10
  -7   7  -1 12735.8 1512.30   4
   7  -7   1 14812.0 1909.12  10
  -7   7   0 11420.1 1454.45   4
   7  -7   0 11682.7 1670.70  10
  -7   7   1 49384.8 3130.33   4
   7  -7  -1 48670.8 3488.44  10
  -7   7   2 14541.4 1696.54   4
   7  -7  -2 12256.5 1703.59  10
   7  -7  -3 11896.2 1704.73  10
  -7   7   3 10689.7 1494.21   4
   7  -7  -4 39024.8 3184.79  10
  -7   7   4 45718.0 3172.95   4
   7  -7  -5 2054.10 740.242  10
   7  -7  -5 1943.49 657.585   3
   7  -7  -6 29558.4 2750.39   3
   7  -7  -7 878.020 466.418   3
   8  -7  -2 1588.89 683.972  10
  -8   7   2 968.007 483.010   4
   8  -7  -1 6306.82 1282.61  10
  -8   7   1 6192.18 1132.04   4
  -8   7   0-2.91595 169.557   4
   8  -7   0 417.150 229.999  10
  -8   7  -1 303.451 320.047   4
   8  -7   1 351.537 319.359  10
   8  -7   2 4726.13 1011.69  11
  -8   7  -2 4920.51 941.956   4
  -8   7  -3 10844.7 1429.90  12
  -8   7  -3 14033.6 1586.96   4
  -8   7  -4 3908.41 893.683  12
  -7   6   8 2831.92 761.646   4
   7  -6  -8 3166.22 898.566   3
   7  -6  -7 11652.8 1635.19   3
  -7   6   7 12590.5 1542.36   4
   7  -6  -6-38.1737 97.7802   3
   7  -6  -6 99.4210 172.328  10
  -7   6   6 128.843 151.378   4
   7  -6  -5 12707.7 1773.73  10
  -7   6   5 10387.7 1354.12   4
   7  -6  -5 11290.2 1468.74   3
   7  -6  -4 1595.79 725.417  10
  -7   6   4 1256.06 493.591   4
  -7   6   3 13944.8 1554.42   4
   7  -6  -3 12148.0 1686.81  10
   7  -6  -2 25485.7 2420.46  10
  -7   6   2 25358.9 2068.22   4
   7  -6  -1 16646.6 1934.92  10
  -7   6   1 19390.0 1779.14   4
   7  -6   0 7406.25 1298.12  10
  -7   6   0 9277.26 1215.83   4
  -7   6  -1 63753.6 2998.96  12
   7  -6   1 67836.3 4047.06  10
  -7   6  -1 66514.0 3347.24   4
  -7   6  -2 12034.6 1308.28  12
   7  -6   2 14171.2 1843.59  10
  -7   6  -2 14062.5 1461.89   4
  -7   6  -3 4009.47 767.972   4
   7  -6   3 4512.99 1080.31  10
  -7   6  -3 4579.71 838.537  12
   7  -6   3 3934.18 851.134  11
  -7   6  -4 67064.9 3477.15  12
  -7   6  -4 65894.4 3206.16   4
   7  -6   4 65312.3 3621.45  11
   7  -6   4 70375.9 4303.15  10
   7  -6   5 9021.17 1297.81  11
   7  -6   5 11200.8 1729.81  10
  -7   6  -5 13350.0 1548.07  12
  -7   6  -6 7.74890 226.835  12
   7  -6   6-215.548 221.959  11
   7  -6   7 13901.0 1713.50  11
   6  -5 -10 1277.28 521.535   6
   6  -5  -9 38.1190 105.048   6
   6  -5  -9-70.4845 311.733   3
  -6   5   9-65.8006 348.093   1
  -6   5   9-103.452 100.062   4
   6  -5  -8 5206.81 1040.49   3
  -6   5   8 4860.08 1220.75   1
   6  -5  -8 3224.32 745.848   6
  -6   5   8 5517.47 921.475   4
  -6   5   7 11197.7 1306.91   4
   6  -5  -7 10440.1 1240.46   6
   6  -5  -7 13042.7 1597.90   3
  -6   5   7 8955.28 1544.82   1
  -6   5   6 523.790 267.809   4
   6  -5  -6 820.334 378.581   3
  -6   5   6 542.714 349.403   1
   6  -5  -6 362.142 217.486   6
   6  -5  -5 18558.5 1728.55   3
  -6   5   5 20844.8 1732.56   4
   6  -5  -5 22746.6 1604.09   6
  -6   5   4 57445.4 2944.72   4
   6  -5  -4 59467.8 3638.06  10
   6  -5  -4 62492.5 3124.98   3
   6  -5  -3-2.99487 278.816  10
  -6   5   3 226.809 289.739   4
   6  -5  -3 180.405 223.067   3
   6  -5  -2 28949.9 1948.56   3
   6  -5  -2 28147.2 2365.79  10
  -6   5   2 27468.0 1938.42   4
   6  -5  -1 28318.8 2341.31  10
   6  -5  -1 28974.0 1892.60   3
  -6   5   1 29671.4 1595.49  12
  -6   5   1 28597.5 1950.88   4
  -6   5   0 18378.5 1327.69  12
  -6   5   0 17611.9 1511.80   4
   6  -5   0 17940.9 1848.75  10
  -6   5  -1 4782.41 760.850   4
   6  -5   1 4317.14 912.035  10
  -6   5  -1 3204.43 570.478  12
   6  -5   2 1527.77 537.463  10
  -6   5  -2 2109.23 499.915  12
  -6   5  -2 2380.09 548.989   4
   6  -5   3 20289.1 1765.30  11
  -6   5  -3 21809.4 1685.89  12
   6  -5   3 21390.2 2067.29  10
  -6   5  -3 21075.7 1608.09   4
  -6   5  -4 238.983 239.268  12
  -6   5  -4 187.449 206.974   4
   6  -5   4 803.297 436.683  10
   6  -5   4 410.497 254.945  11
   6  -5   5 32427.9 2676.73  10
  -6   5  -5 33952.5 1988.85   4
   6  -5   5 34906.9 2394.31  11
   6  -5   5 38179.0 2270.84   2
  -6   5  -5 34175.4 2359.29  12
   6  -5   6 5683.35 1129.56  10
   6  -5   6 5991.44 948.819   2
  -6   5  -6 5579.95 973.899  12
   6  -5   6 5106.16 946.773  11
  -6   5  -7 933.224 459.088  12
   6  -5   7 157.000 192.324  11
   6  -5   7 728.924 338.273   2
   6  -5   8 22014.2 2051.84   2
  -6   5  -8 22434.4 2131.98  12
   6  -5   8 24552.0 2167.53  11
   6  -5   9-79.0216 137.851   2
   5  -4 -11 360.070 327.067   6
  -5   4  10 20103.6 2635.50   1
   5  -4 -10 20016.6 1997.45   6
  -5   4   9 28579.9 3000.72   1
  -5   4   9 29233.7 1990.76   4
   5  -4  -9 29733.6 2279.73   6
   5  -4  -8 179.977 214.755   6
  -5   4   8 115.036 149.899   4
   5  -4  -7 546.501 272.605   6
  -5   4   7-98.2862 188.675   1
  -5   4   7 752.502 300.984   4
   5  -4  -6 13476.6 1245.40   6
  -5   4   6 12212.4 1215.23   4
  -5   4   6 11650.6 1576.02   1
   5  -4  -5 9416.46 1097.74   3
   5  -4  -5 9340.67 960.781   6
  -5   4   5 9298.70 1031.18   4
  -5   4   5 7638.68 1199.84   1
   5  -4  -4 36226.1 1807.25   6
   5  -4  -4 37918.3 2139.62   3
  -5   4   4 34029.2 1987.39   4
  -5   4   4 31678.3 2340.96   1
   5  -4  -3 23198.8 1574.31   3
  -5   4   3 23984.4 1631.29   4
   5  -4  -3 23021.4 1295.94   6
  -5   4   2 18884.4 1010.03  12
   5  -4  -2 18303.9 1756.15  10
  -5   4   2 17053.1 1363.48   4
   5  -4  -2 17930.4 1332.52   3
   5  -4  -2 18969.0 1038.30   6
  -5   4   1 121694. 4023.90   4
   5  -4  -1 122259. 4767.38  10
  -5   4   1 125075. 3432.49  12
   5  -4  -1 127047. 2938.12   6
   5  -4  -1 126511. 3958.19   3
   5  -4   0 55494.9 2333.48   3
  -5   4   0 52176.3 2125.01  12
   5  -4   0 52582.6 2899.20  10
   5  -4   0 53509.7 1539.56   2
  -5   4   0 50922.7 2393.44   4
  -5   4  -1 100331. 3522.85   4
   5  -4   1 94635.5 4042.10  10
   5  -4   1 103855. 3116.94   3
   5  -4   1 105163. 2795.53   2
  -5   4  -1 99488.5 3315.25  12
   5  -4   2 84985.5 2706.26   2
  -5   4  -2 82861.9 3090.45  12
   5  -4   2 78749.2 3659.74  10
  -5   4  -2 78848.1 3018.04   4
   5  -4   3 19985.9 1572.78  11
   5  -4   3 22113.7 1388.88   2
   5  -4   3 21262.3 1848.85  10
  -5   4  -3 21280.1 1547.65  12
  -5   4  -3 22309.4 1451.36   4
   5  -4   4 119860. 4787.27  10
  -5   4  -4 116842. 4185.49  12
   5  -4   4 112637. 4153.68  11
   5  -4   4 125365. 4002.41   2
  -5   4  -4 122359. 3778.25   4
   5  -4   5 195.198 198.397  11
   5  -4   5 12.1670 69.1635   2
  -5   4  -5 275.873 156.295   4
  -5   4  -5 377.288 250.803  12
   5  -4   5 650.461 364.702  10
   5  -4   6 617.603 284.746   2
  -5   4  -6 734.329 348.069  12
   5  -4   6 681.610 336.553  11
   5  -4   6 691.220 393.870  10
  -5   4  -7 46543.1 2825.10  12
   5  -4   7 38464.7 2510.76   2
   5  -4   7 44786.5 2628.75  11
   5  -4   8 13660.9 1467.29  11
  -5   4  -8 14432.0 1612.93  12
   5  -4   8 12104.5 1440.37   2
  -5   4  -9 6031.06 1069.18  12
   5  -4   9 5525.39 1036.08   2
  -5   4 -10 11119.6 1537.02  12
   5  -4  10 11449.9 1558.71   2
  -4   3  12 1896.23 811.771   1
   4  -3 -12 997.570 538.212   6
   4  -3 -11 124.160 164.405   6
  -4   3  11 207.060 444.220   1
   4  -3 -10 6879.46 1097.02   6
  -4   3  10 4491.77 1197.11   1
   4  -3  -9 25439.9 2011.88   6
  -4   3   9 23243.0 1564.74   4
   4  -3  -8 47915.3 2631.81   6
  -4   3   8 47320.3 2263.30   4
   4  -3  -7 16075.0 1391.74   6
  -4   3   7 13960.5 1709.22   1
  -4   3   7 15878.0 1250.52   4
  -4   3   6 24940.2 2134.96   1
   4  -3  -6 29792.8 1791.45   6
  -4   3   6 27824.9 1640.10   4
  -4   3   5 356351. 7835.75   4
   4  -3  -5 351806. 7830.78   6
  -4   3   4 2584.67 590.740   1
  -4   3   4 2254.06 452.970   4
   4  -3  -4 1803.50 355.593   6
   4  -3  -4 1951.00 188.304   7
  -4   3   3 78443.8 1811.96  12
   4  -3  -3 76918.1 2470.55   6
  -4   3   3 77794.7 3270.46   1
  -4   3   3 77251.3 2804.63   4
  -4   3   2 154209. 4263.52   4
  -4   3   2 156960. 3406.41  12
   4  -3  -2 153448. 3645.92   6
   4  -3  -2 151075. 4057.84   3
  -4   3   1 62149.6 2352.63   4
   4  -3  -1 58284.9 1689.37   6
   4  -3  -1 58774.7 2132.41   3
   4  -3  -1 56890.0 2799.53  10
  -4   3   1 60941.9 1907.57  12
   4  -3  -1 55269.7 1181.95   2
   4  -3   0 44620.6 1229.31   6
   4  -3   0 47389.0 1376.26   2
   4  -3   0 46876.1 1877.76   3
   4  -3   0 45229.8 2384.87  10
  -4   3   0 48099.7 1813.12  12
  -4   3   0 44387.2 1958.60   4
   4  -3   1 46884.5 1681.28   3
  -4   3  -1 44416.2 1934.49   4
  -4   3  -1 45566.0 1894.34  12
   4  -3   1 44146.0 2315.33  10
  -4   3  -2 5077.36 597.957   4
  -4   3  -2 4531.59 602.393  12
   4  -3   2 4353.87 667.581  10
   4  -3   3 17050.3 1289.31  11
  -4   3  -3 18095.3 1136.51   4
   4  -3   3 19402.6 1524.36  10
  -4   3  -3 19803.1 1354.65  12
  -4   3  -4 6236.31 803.826  12
   4  -3   4 6680.34 903.909  10
   4  -3   4 7253.55 834.977  11
  -4   3  -4 6301.27 639.742   4
   4  -3   5 22764.2 1544.00  11
   4  -3   5 19129.3 1636.51  10
  -4   3  -5 21556.4 1602.55  12
  -4   3  -5 22709.0 1235.95   4
  -4   3  -6 15253.5 1411.29  12
   4  -3   6 15811.6 1351.28  11
   4  -3   7 5239.08 803.952  11
  -4   3  -7 3601.40 715.091  12
   4  -3   8 175.036 240.689  11
  -4   3  -8 336.477 298.649  12
   4  -3   8-327.798 228.062   2
  -4   3  -9 6937.84 1074.17  12
   4  -3   9 7152.15 1036.08  11
   4  -3   9 6431.91 1058.67   2
   4  -3  10 4491.96 931.936   2
  -4   3 -10 3846.24 865.251  12
   4  -3  11 2279.34 697.144   2
  -4   3 -11 2605.47 713.272  12
   3  -2 -12 10682.8 1498.58   6
  -3   2  12 6250.24 1368.48   1
  -3   2  11 23559.9 2643.80   1
   3  -2 -11 36109.9 2616.64   6
   3  -2 -10 2583.66 657.685   6
  -3   2  10 1863.59 655.324   1
  -3   2   9 50629.3 2393.67   2
   3  -2  -9 47118.2 2691.26   6
  -3   2   8 28082.8 1495.53   4
   3  -2  -8 29042.5 1943.82   6
  -3   2   8 27989.7 1606.38   2
  -3   2   7 4.47551 228.766   1
  -3   2   7 97.2986 172.294   4
  -3   2   7 166.442 121.347   2
   3  -2  -7-98.8820 97.0537   6
   3  -2  -6 101250. 3442.25   6
  -3   2   6 90975.4 4016.91   1
  -3   2   6 100953. 3029.36   4
  -3   2   6 102218. 2849.89   2
  -3   2   5 1248.22 415.887   1
  -3   2   5 777.770 240.769   4
   3  -2  -5 1084.58 279.890   6
  -3   2   5 1023.02 210.662   2
  -3   2   4 510.378 202.328   4
  -3   2   4 129.729 71.6935   2
   3  -2  -4 155.008 55.0468   7
  -3   2   4 130.194 147.403   1
   3  -2  -4 155.970 121.615   6
   3  -2  -3 162418. 3867.98   6
  -3   2   3 165986. 4549.46   1
  -3   2   3 167955. 4051.44   4
  -3   2   3 154875. 2808.96  12
   3  -2  -3 160446. 3364.24   7
  -3   2   2 156112. 3803.68   4
   3  -2  -2 149718. 2774.50   9
   3  -2  -2 152584. 3462.23   6
  -3   2   2 149827. 3006.00  12
  -3   2   2 155834. 4181.81   1
  -3   2   1 1178.93 253.459   4
   3  -2  -1 1002.37 202.421   3
  -3   2   1 1168.53 198.878  12
   3  -2  -1 1011.88 178.917   6
   3  -2  -1 765.504 247.490  10
  -3   2   0 137843. 3411.04   4
   3  -2   0 129789. 3144.14   3
   3  -2   0 130576. 3876.57  10
  -3   2   0 134994. 3174.89  12
  -3   2  -1 91710.3 2579.02  12
   3  -2   1 83650.5 2115.99   3
  -3   2  -1 93444.0 2166.74   3
   3  -2   1 85906.7 2899.38  10
  -3   2  -1 87924.1 2528.80   4
  -3   2  -2 32666.4 1500.92  12
  -3   2  -2 31947.3 1351.16   4
   3  -2   2 31566.1 1521.90  11
   3  -2   2 35140.5 1733.43  10
   3  -2   2 33522.8 854.720   5
   3  -2   2 33265.9 911.077   6
   3  -2   3 32939.2 1568.72  11
  -3   2  -3 31965.3 1317.75   4
  -3   2  -3 34252.4 1652.77  12
   3  -2   3 31004.8 1698.16  10
  -3   2  -4 6231.27 718.269  12
   3  -2   4 6522.91 790.297  10
  -3   2  -4 6278.41 539.166   4
   3  -2   4 5739.68 651.221  11
   3  -2   5 19657.7 1320.12  11
  -3   2  -5 21055.1 1430.75  12
   3  -2   6 3216.87 557.895  11
  -3   2  -6 4259.20 666.535  12
  -3   2  -7 44493.8 2384.45  12
  -3   2  -7 51663.5 2433.91   6
   3  -2   7 44568.7 2308.25  11
   3  -2   8 50900.2 2596.73  11
  -3   2  -8 51637.2 2712.89  12
  -3   2  -9 4753.41 818.850   6
  -3   2  -9 3687.29 724.123  12
   3  -2   9 3624.98 699.891  11
  -3   2 -10 62569.4 3281.55  12
   3  -2  10 60264.8 3463.90   2
  -3   2 -11 15223.2 1622.18  12
   3  -2  11 13309.4 1687.16   2
  -3   2 -12 409.243 272.701  12
   2  -1 -13 10233.2 1498.26   6
  -2   1  13 9961.73 1709.37   1
  -2   1  12 2188.25 602.326   2
   2  -1 -12 3747.67 857.665   6
  -2   1  12 1831.26 741.886   1
   2  -1 -11 9075.92 1266.46   6
  -2   1  11 8926.96 1507.12   1
  -2   1  11 10378.9 1249.81   2
  -2   1  10 1495.40 633.532   1
   2  -1 -10 1088.15 437.513   6
  -2   1  10 749.269 321.118   2
  -2   1   9 54210.0 2553.03   2
  -2   1   9 49312.4 3383.83   1
   2  -1  -9 55534.7 2839.94   6
  -2   1   8 58412.3 2479.66   2
  -2   1   8 60185.4 1918.71   4
  -2   1   8 52244.3 3293.24   1
   2  -1  -8 58485.6 2759.06   6
  -2   1   7 8314.61 628.390   4
   2  -1  -7 8813.60 936.098   6
  -2   1   7 7075.68 1109.73   1
  -2   1   7 7695.82 776.201   2
   2  -1  -7 7888.89 478.938  12
  -2   1   6 34269.2 1345.20   4
   2  -1  -6 35131.7 998.545  12
   2  -1  -6 35338.0 1813.11   6
  -2   1   6 34165.7 1545.96   2
  -2   1   6 33850.5 2219.27   1
  -2   1   5 26324.6 1108.48   4
  -2   1   5 23771.2 1134.66   2
  -2   1   5 23475.6 1629.60   1
   2  -1  -5 25657.7 1410.14   6
   2  -1  -5 24184.1 662.428  12
  -2   1   4 13812.3 1091.53   1
  -2   1   4 12066.1 717.453   4
   2  -1  -4 12760.8 881.605   6
   2  -1  -4 12402.2 649.808   7
  -2   1   4 11177.5 816.105   5
  -2   1   4 12980.4 698.862   2
  -2   1   3 43488.5 1045.76   8
  -2   1   3 38227.3 1658.13   1
   2  -1  -3 38707.3 923.484   9
  -2   1   3 39297.0 1487.33   5
  -2   1   3 40444.8 1170.80   2
  -2   1   3 40033.8 1371.60   4
   2  -1  -3 38832.0 1473.97   6
   2  -1  -3 38771.3 1193.40   7
  -2   1   2 2395.89 300.629   5
   2  -1  -2 2088.92 167.273   2
  -2   1   2 1883.70 136.360  12
  -2   1   2 2052.84 274.644   4
  -2   1   2 2295.07 354.703   1
   2  -1  -2 1944.29 166.113   8
  -2   1   2 2358.99 220.834   2
   2  -1  -2 2066.60 265.383   6
   2  -1  -2 2108.35 139.545  12
   2  -1  -1 74986.1 1592.20   2
  -2   1   1 69056.9 1889.40   4
   2  -1  -1 75267.7 1623.69  12
  -2   1   1 71899.7 1609.93  12
  -2   1   1 66813.6 1835.57   5
  -2   1   0 174683. 3735.40   4
  -2   1   0 179294. 3517.00   5
  -2   1   0 181198. 3627.65  12
   2  -1   0 176064. 3387.12   3
   2  -1   0 182566. 4103.23  10
   2  -1   1 245475. 4183.00   5
  -2   1  -1 234075. 4740.57  12
  -2   1  -1 228508. 4605.83   4
  -2   1  -1 231928. 4296.07   3
   2  -1   1 230770. 4944.59  10
  -2   1  -1 237183. 4174.02   5
   2  -1   2 7370.72 631.697  10
  -2   1  -2 6388.55 455.038   4
   2  -1   2 6380.37 532.805  11
   2  -1   2 8098.89 443.772   6
  -2   1  -2 8086.77 612.703  12
  -2   1  -3 1579.92 296.787  12
  -2   1  -3 1083.46 214.765   6
   2  -1   3 1327.43 287.912  10
   2  -1   3 1527.61 295.840  11
  -2   1  -4 399356. 8038.78  12
  -2   1  -4 394502. 6673.59   5
  -2   1  -4 385195. 7708.02   6
   2  -1   4 394282. 7995.30  11
   2  -1   5 16312.0 1106.81  11
  -2   1  -5 15279.1 1079.28  12
  -2   1  -5 14599.0 574.457   5
  -2   1  -5 14225.4 968.223   6
  -2   1  -6 9402.61 856.394   6
   2  -1   6 9055.01 886.596  11
  -2   1  -6 9385.38 900.243  12
  -2   1  -7 29409.8 1742.05  12
  -2   1  -7 30022.2 1716.52   6
   2  -1   7 28342.2 1704.46  11
  -2   1  -8 32900.0 1956.99   6
   2  -1   8 34525.8 2005.04  11
  -2   1  -8 33733.2 1965.47  12
  -2   1  -9 27716.7 1875.76  12
  -2   1  -9 27797.6 1928.00   6
   2  -1   9 30145.5 1990.69  11
  -2   1 -10 2823.82 646.887   6
  -2   1 -10 2143.35 544.278  12
   2  -1  10 1695.91 527.788   2
  -2   1 -11 40139.2 2516.49  12
   2  -1  11 41697.0 2908.20   2
   2  -1  11 38926.0 3585.66   1
  -2   1 -11 44272.0 2818.53   6
   2  -1  12 7062.37 1238.65   2
  -2   1 -12 5473.29 942.981  12
  -2   1 -12 8259.82 1258.24   6
   2  -1  12 5009.03 1329.52   1
  -1   0  13 1304.83 518.758   2
  -1   0  13 2843.00 876.882   1
   1   0 -13 3723.99 860.971   6
  -1   0  12 42284.7 2783.97   2
  -1   0  12 37973.3 3190.28   1
   1   0 -12 41152.6 2808.75   6
  -1   0  11 1572.20 673.951   1
  -1   0  11 2283.19 598.482   2
   1   0 -11 2800.58 682.343   6
  -1   0  10 22108.2 1767.65   2
   1   0 -10 23724.9 1877.73   6
  -1   0  10 21609.2 2213.83   1
   1   0  -9 238536. 6599.07   6
  -1   0   9 229686. 6400.00   2
   1   0  -9 242633. 5505.43  12
   1   0  -8 2746.69 406.210  12
  -1   0   8 2503.46 672.508   1
  -1   0   8 2012.28 458.907   2
   1   0  -8 2630.52 523.508   6
  -1   0   7 86302.0 1904.45   4
  -1   0   7 85008.6 3042.38   2
   1   0  -7 84790.3 3081.69   6
   1   0  -7 84109.0 2442.57  12
  -1   0   7 81428.6 3925.36   1
   1   0  -6 209971. 4466.30  12
  -1   0   6 199676. 6388.38   1
  -1   0   6 212641. 4018.95   4
  -1   0   6 217233. 5201.69   2
  -1   0   5 149378. 3765.07   2
  -1   0   5 142575. 4736.94   1
  -1   0   5 149625. 2920.67   4
  -1   0   5 145615. 3579.77   5
   1   0  -5 144865. 3165.35  12
   1   0  -5 151051. 3890.25   6
  -1   0   4 65340.1 1946.18   5
  -1   0   4 70449.0 2632.48   1
  -1   0   4 66947.8 2015.58   2
   1   0  -4 61906.3 1587.22  12
   1   0  -4 69703.3 2137.48   6
   1   0  -4 68083.9 1558.94   4
  -1   0   4 64333.8 1513.88   4
   1   0  -4 64466.2 1803.86   9
  -1   0   3 70822.9 1578.51   4
  -1   0   3 68670.1 1896.71   5
   1   0  -3 71797.6 1745.78   9
  -1   0   3 70625.9 1877.74   2
  -1   0   3 74234.8 2267.06   1
   1   0  -3 78420.5 1637.62   4
   1   0  -3 71738.7 2028.09   6
   1   0  -3 67087.9 1819.68   7
   1   0  -2 58183.8 1402.06   2
  -1   0   2 56128.9 1396.42   2
  -1   0   2 55868.4 1570.85   1
  -1   0   2 54088.3 1278.20   4
   1   0  -2 56966.5 1286.58   4
   1   0  -2 53683.2 1465.86   7
  -1   0   2 54684.2 1576.28   7
  -1   0   2 54410.0 1456.65   5
   1   0  -1 3637.41 199.680  12
  -1   0   1 3515.49 270.049   2
  -1   0   1 3279.36 194.504  12
   1   0  -1 3763.45 267.269   5
   1   0  -1 3512.22 268.089   1
  -1   0   1 3641.23 273.353   1
   1   0  -1 3264.96 250.979   2
  -1   0   1 3505.33 251.322   5
  -1   0   1 3544.56 236.147   4
   1   0  -1 3581.36 242.208   4
   1   0  -1 3599.84 244.640   8
   1   0   0 11654.9 418.673   5
  -1   0   0 12116.7 463.760  10
   1   0   0 11574.8 455.431  12
  -1   0   0 11189.9 470.790  11
  -1   0   0 10591.3 438.518  12
   1   0   0 11346.7 432.538  10
   1   0   0 11255.6 437.796   4
  -1   0   0 10275.5 426.168   4
  -1   0  -1 3619.38 292.993  10
   1   0   1 3556.65 273.823   6
  -1   0  -1 3388.54 278.691  12
   1   0   1 3706.07 292.352  10
   1   0   1 3627.15 298.003  11
  -1   0  -2 132083. 2924.18   6
  -1   0  -2 133017. 2934.01  12
   1   0   2 138921. 3060.40  11
   1   0   3 2586.30 348.008  11
  -1   0  -3 2074.52 290.157   6
  -1   0  -3 1808.39 265.101  12
  -1   0  -4 26680.0 1265.09   6
  -1   0  -4 27604.5 1225.58  12
   1   0   4 29018.8 1319.17  11
  -1   0  -5 97462.4 2957.88   6
  -1   0  -5 103345. 2892.14  12
   1   0   5 96508.5 2945.80  11
  -1   0  -6 26813.7 1504.12   6
   1   0   6 24222.4 1416.88  11
  -1   0  -6 24566.3 1341.44  12
   1   0   7 38317.1 1961.69  11
   1   0   7 38180.0 1217.68   4
  -1   0  -7 35045.7 1756.75  12
  -1   0  -7 37005.9 1955.81   6
  -1   0  -8 21131.4 1410.11  12
   1   0   8 21506.4 1585.39  11
  -1   0  -8 20503.1 1546.00   6
  -1   0  -9 22737.1 1753.08   6
  -1   0  -9 24045.8 1603.59  12
   1   0   9 28069.3 1987.04  11
  -1   0 -10 13335.3 1241.20  12
   1   0  10 12663.3 1899.18   1
  -1   0 -10 12916.7 1395.26   6
   1   0  10 12325.2 1441.63  11
   1   0  11 245.177 240.263   1
  -1   0 -11 484.506 291.489   6
   1   0  11 508.011 301.088   2
   1   0  12 20402.1 2043.85   2
  -1   0 -12 19043.9 1948.15   6
   1   0  12 21702.8 2657.96   1
  -1   0 -13 14846.6 1808.32   6
   0  -1  14 3485.96 984.096   1
   0  -1  13 13283.8 1690.83   2
   0   1 -13 14858.1 1708.18   6
   0  -1  13 16346.6 2097.39   1
   0   1 -12 23921.2 2063.11   6
   0  -1  12 24435.7 2508.40   1
   0  -1  12 26793.8 2280.04   2
   0  -1  11 30.7417 157.939   2
   0  -1  11 422.902 275.298   1
   0   1 -11 210.444 175.307   6
   0   1 -11 217.441 166.913  12
   0  -1  10 27252.4 2490.11   1
   0   1 -10 29164.6 1761.23  12
   0  -1  10 25647.9 1994.10   2
   0   1 -10 27431.1 1946.69   6
   0  -1   9-0.63859 160.280   2
   0   1  -9 40.2027 65.9150  12
   0  -1   9 94.6382 112.466   1
   0  -1   8 18759.4 1345.69  11
   0   1  -8 17656.4 1324.56   6
   0  -1   8 15183.9 1339.79   2
   0   1  -8 16745.3 1164.04  12
   0  -1   8 15843.9 1758.10   1
   0  -1   7 16903.5 1118.53  11
   0   1  -7 14488.2 1000.70  12
   0  -1   7 16943.6 1299.94   2
   0   1  -7 14142.9 1097.91   6
   0  -1   7 14079.4 1571.77   1
   0  -1   6 49899.0 2162.46   2
   0  -1   6 48605.6 1677.02   5
   0   1  -6 44978.0 1790.07  12
   0   1  -6 49820.8 2002.94   6
   0  -1   6 52930.8 1811.72  11
   0   1  -5 9169.49 720.796   6
   0   1  -5 8695.27 714.080   9
   0  -1   5 9566.27 817.204   2
   0   1  -5 8625.22 653.331  12
   0  -1   5 8632.55 563.806  11
   0  -1   5 8659.87 583.764   5
   0  -1   4 177356. 4120.51   2
   0   1  -4 175116. 3962.97   9
   0   1  -4 177827. 3314.10  11
   0   1  -4 177682. 3891.32   6
   0  -1   4 165777. 3519.12   5
   0  -1   4 163533. 3377.38  11
   0  -1   3 100195. 2029.28  11
   0  -1   3 95750.8 2173.35   5
   0   1  -3 104078. 2526.85   9
   0   1  -3 106017. 2208.60   5
   0  -1   3 104473. 2620.93   2
   0   1  -3 98571.3 2414.10   6
   0   1  -3 105313. 2003.86  11
   0   1  -2 256.087 70.0551   5
   0  -1   2 276.373 73.2496   5
   0   1  -2 409.293 113.226  10
   0  -1   2 179.569 38.8524  11
   0  -1   2 408.656 126.574   2
   0   1  -2 388.075 109.622   7
   0   1  -1 17448.2 676.508   7
   0   1  -1 17438.0 658.472   2
   0  -1   1 17097.3 595.551  10
   0  -1   1 17269.2 643.404   2
   0  -1   1 18916.6 681.416   7
   0   1  -1 18990.4 619.820  10
   0   1  -1 20011.1 725.445   3
   0   1   0 84657.7 1972.90   3
   0   1   0 87475.4 1947.47   1
   0  -1   0 77733.5 2063.38  11
   0  -1  -1 11010.5 545.810   6
   0   1   1 12492.2 568.756   6
   0  -1  -1 10442.8 448.912  12
   0   1   1 12075.7 474.945  12
   0   1   1 13338.1 722.286  11
   0   1   2 7388.04 403.503  12
   0  -1  -2 6492.77 387.756  12
   0   1   2 8060.51 617.055  11
   0  -1  -2 7112.30 502.576   6
   0  -1  -3 63413.4 2015.79   6
   0  -1  -3 63491.9 1699.98  12
   0  -1  -4 22625.2 979.837  12
   0   1   4 25012.9 1383.56  11
   0  -1  -4 23248.4 1240.21   6
   0   1   5 7760.09 813.290  11
   0  -1  -5 6114.90 677.186   6
   0   1   5 6759.59 546.625   4
   0  -1  -5 5991.82 524.139  12
   0  -1  -6 104237. 3505.89   6
   0  -1  -6 104694. 2913.27  12
   0   1   6 106760. 2701.22   4
   0   1   6 100639. 4629.16   1
   0   1   6 108374. 3765.25  11
   0   1   7 36670.0 2811.96   1
   0   1   7 38022.9 1399.07   4
   0  -1  -7 38364.2 1674.97  12
   0  -1  -7 38603.4 2102.00   6
   0   1   7 41002.3 2345.30  11
   0   1   8 352.143 383.970   1
   0  -1  -8 398.821 274.753   6
   0  -1  -8 257.014 167.689  12
   0   1   9 13290.4 1844.49   1
   0  -1  -9 14423.1 1116.63  12
   0  -1  -9 14324.2 1436.81   6
   0  -1 -10 10138.4 1278.27   6
   0   1  10 9596.43 1606.03   1
   0   1  11 3259.03 740.131   2
   0   1  11 2758.90 941.989   1
   0  -1 -11 3995.81 845.532   6
   0  -1 -12 3924.11 883.469   6
   0   1  12 4032.49 1112.14   1
   0   1  12 4905.58 965.868   2
   0   1  13 1954.07 650.183   2
   1  -2  13 41021.5 3400.61   1
   1  -2  13 47765.5 3347.59   2
  -1   2 -13 48165.4 3115.67   6
   1  -2  12 24582.6 2556.90   1
  -1   2 -12 24827.0 1945.61  12
  -1   2 -12 25130.7 2075.76   6
   1  -2  12 23657.3 2210.85   2
   1  -2  11 8804.04 1265.95   2
  -1   2 -11 7796.77 1055.08   6
   1  -2  11 7991.03 1404.00   1
  -1   2 -11 8789.92 1094.68  12
  -1   2 -10 99293.4 3854.80   6
   1  -2  10 99557.3 4294.93   2
  -1   2 -10 108573. 3977.58  12
   1  -2  10 101785. 5069.85   1
  -1   2  -9 9456.83 1006.56   6
  -1   2  -9 10741.2 1089.12  12
   1  -2   9 10186.7 1202.88   2
  -1   2  -8 287.134 174.550  12
   1  -2   8 244.616 126.787  11
   1  -2   8-5.99871 97.2479   2
  -1   2  -8 223.138 159.342   6
  -1   2  -7 48350.1 2184.83  12
   1  -2   7 50567.4 1903.98  11
  -1   2  -7 49238.1 2056.13   6
   1  -2   7 52197.2 2463.84   2
  -1   2  -6 9902.40 775.026   6
   1  -2   6 9573.51 953.345   2
  -1   2  -6 10413.9 890.782  12
   1  -2   6 11378.6 774.778  11
   1  -2   5 178.715 137.853  11
  -1   2  -5 22.9886 35.6755   6
  -1   2  -5-90.2745 99.4935  12
   1  -2   5 210.443 134.612   2
   1  -2   5 262.055 80.1957   5
   1  -2   4 129068. 3636.82  10
   1  -2   4 134750. 2650.08   5
   1  -2   4 133747. 3577.60   2
  -1   2  -4 132183. 2607.52   4
  -1   2  -4 135456. 3530.79   9
   1  -2   4 132865. 3001.51  11
  -1   2  -4 127606. 2982.91   6
   1  -2   3 36605.9 1521.88  10
  -1   2  -3 34900.1 1035.26   4
  -1   2  -3 34117.3 1397.00   9
   1  -2   3 33093.5 912.793   5
   1  -2   3 35859.0 1431.40   2
  -1   2  -3 34286.2 1039.41   6
   1  -2   3 37769.7 1087.35   4
  -1   2  -2 216.118 122.500   9
   1  -2   2 140.202 96.5138  10
   1  -2   2 198.395 92.9797   2
  -1   2  -2 50.3964 55.1285   4
   1  -2   1 2187.41 320.931   3
   1  -2   1 2715.94 243.251   1
  -1   2  -1 2315.41 266.963   4
   1  -2   1 2593.68 363.582  10
   1  -2   1 2553.63 255.630   2
  -1   2  -1 2267.86 260.911   9
   1  -2   0 501564. 9528.38   3
   1  -2   0 542110. 9035.62   2
  -1   2   0 519193. 8892.12   2
   1  -2   0 553276. 9042.14   8
  -1   2   0 495002. 9179.25   1
  -1   2   0 530387. 8842.88   6
   1  -2   0 553534. 8800.35   7
  -1   2   0 504680. 9274.24   4
   1  -2  -1 189792. 4162.09   3
  -1   2   1 183844. 3671.10   8
  -1   2   1 177736. 4151.85   1
   1  -2  -1 192793. 3835.19   6
  -1   2   1 197950. 4141.63   4
  -1   2   2 163.294 60.9911  12
  -1   2   2 330.739 207.765   1
  -1   2   2 144.520 108.171   4
   1  -2  -2 272.697 121.582   6
  -1   2   3 35023.5 1000.73  12
  -1   2   3 35530.9 1442.58   4
   1  -2  -3 35120.5 1480.33   6
  -1   2   3 40804.3 2085.34   1
   1  -2  -4 85068.7 2704.56   6
  -1   2   4 87712.5 3598.45   1
  -1   2   4 77919.6 2378.13   4
   1  -2  -4 74099.6 1882.55  12
   1  -2  -5 83535.2 3011.02   6
  -1   2   5 88445.6 2626.78   4
   1  -2  -5 87638.7 2238.87  12
  -1   2   6 3357.46 449.669   4
  -1   2   6 4654.68 919.819   1
   1  -2  -6 3868.15 405.056  12
   1  -2  -6 3928.41 637.230   6
  -1   2   7 76392.9 4091.62   1
  -1   2   7 74561.7 2430.07   4
   1  -2  -7 73757.9 2244.38  12
   1  -2  -7 72806.8 3118.37   6
   1  -2  -8 15459.7 1465.95   6
  -1   2   8 14166.6 956.155   4
  -1   2   8 16410.6 1914.68   1
  -1   2   9 74241.7 4376.44   1
   1  -2  -9 72715.4 3520.99   6
  -1   2  10 10079.5 1224.62   2
   1  -2 -10 11220.9 1393.48   6
  -1   2  10 8979.41 1544.30   1
  -1   2  11 2161.93 810.797   1
   1  -2 -11 1509.84 535.685   6
  -1   2  11 1427.84 465.265   2
  -1   2  12 12001.2 1880.98   1
   1  -2 -12 12165.5 1641.70   6
  -1   2  12 10530.5 1407.55   2
  -2   3 -13 34764.4 2594.00  12
   2  -3  12 8355.21 1360.63   2
  -2   3 -12 8844.23 1236.29  12
   2  -3  11 15625.3 1759.64   2
  -2   3 -11 16653.3 1641.40  12
  -2   3 -10 4742.48 845.793  12
   2  -3  10 4225.70 848.492   2
   2  -3   9 28539.8 2139.11   2
  -2   3  -9 32626.2 2116.53  12
  -2   3  -8 36927.5 2151.78  12
   2  -3   8 37815.2 1864.24  11
   2  -3   8 35347.5 2239.28   2
  -2   3  -8 36627.7 1894.66   6
   2  -3   7 18884.3 1217.97  11
  -2   3  -7 18807.8 1431.40  12
   2  -3   7 17228.5 1436.75   2
  -2   3  -7 19965.4 1223.02   6
   2  -3   6 12137.4 1111.93   2
  -2   3  -6 13729.3 640.174   4
   2  -3   6 13289.6 958.505  11
  -2   3  -6 14415.7 907.541   6
  -2   3  -6 13635.2 1151.76  12
   2  -3   5 6818.05 864.553  10
  -2   3  -5 6507.96 478.661   4
   2  -3   5 6390.53 619.463  11
  -2   3  -5 6933.34 526.985   6
   2  -3   5 6799.66 753.452   2
  -2   3  -5 6788.25 750.119  12
  -2   3  -4 61999.4 2331.36  12
   2  -3   4 60391.2 1352.36   5
   2  -3   4 62451.3 2576.08  10
  -2   3  -4 62236.1 1814.70   4
  -2   3  -4 64766.5 2371.22   9
   2  -3   4 61879.0 2286.09   2
   2  -3   4 59944.5 2083.06  11
  -2   3  -4 63615.9 1605.46   6
   2  -3   3 357.074 203.471  10
  -2   3  -3 230.044 115.355   4
   2  -3   3 150.255 143.645   2
  -2   3  -3 88.7151 26.9767   6
  -2   3  -3 291.483 161.078   9
  -2   3  -2 23893.1 1115.90   4
  -2   3  -2 23899.4 1159.95   9
   2  -3   2 24490.8 1277.86   3
   2  -3   2 25070.9 1126.56   2
   2  -3   2 25023.6 1465.07  10
   2  -3   1 32395.7 1153.59   2
  -2   3  -1 31112.8 1245.09   9
  -2   3  -1 30369.3 736.352   6
   2  -3   1 32308.7 1689.52  10
  -2   3  -1 31588.0 1329.19   4
   2  -3   1 31389.6 1542.75   3
  -2   3   0 37108.6 1254.14   9
  -2   3   0 39941.1 1115.35   2
   2  -3   0 43159.3 2012.42  10
   2  -3   0 39684.8 1229.84   2
  -2   3   0 38602.7 1604.13   1
  -2   3   0 39182.9 1122.48   6
   2  -3   0 39735.2 1783.04   3
  -2   3   0 39140.1 1573.84   4
   2  -3  -1 23571.1 1279.35   3
  -2   3   1 20235.9 1160.75   4
  -2   3   1 21747.3 715.523   2
  -2   3   1 20179.1 773.253   9
  -2   3   1 20381.9 1211.83   1
   2  -3  -1 20957.8 934.297   6
   2  -3  -1 21173.5 646.875   7
   2  -3  -1 24171.6 933.120   8
   2  -3  -2 55131.4 2135.51   3
  -2   3   2 51476.3 1997.65   4
   2  -3  -2 50969.8 1772.05   6
  -2   3   2 51441.5 2175.42   1
  -2   3   2 53075.5 1399.74   2
  -2   3   3 80794.7 3130.68   1
  -2   3   3 84624.7 2753.12   4
  -2   3   3 83882.3 1919.23  12
   2  -3  -3 87187.1 2677.48   6
  -2   3   4 23320.5 736.997  12
  -2   3   4 24388.1 803.701   8
  -2   3   4 25205.3 1395.68   4
  -2   3   4 26762.7 1856.48   1
   2  -3  -4 25560.9 1451.72   6
  -2   3   4 23474.1 724.497   9
   2  -3  -5 119799. 3837.26   6
  -2   3   5 123083. 3623.12   4
  -2   3   6 11821.8 990.687   4
  -2   3   6 12786.2 1524.06   1
   2  -3  -6 14125.8 1241.98   6
  -2   3   7 14330.8 1713.01   1
   2  -3  -7 13428.3 1318.65   6
  -2   3   7 12787.0 1037.16   4
   2  -3  -8 25726.1 1951.30   6
  -2   3   8 25545.4 2439.84   1
  -2   3   8 27087.0 1568.27   4
  -2   3   9 1842.30 463.640   2
  -2   3   9 2531.99 803.089   1
   2  -3  -9 1695.60 541.449   6
   2  -3 -10 8852.29 1279.79   6
  -2   3  10 9443.31 1589.85   1
  -2   3  11 463.161 414.461   1
   2  -3 -11-90.7749 305.462   6
  -2   3  12 179.322 402.896   1
  -3   4 -12 2425.44 678.861  12
  -3   4 -11 6167.77 1075.82  12
   3  -4  11 6633.76 1183.91   2
  -3   4 -10 94.5026 63.8138  12
   3  -4  10-170.327 184.794   2
  -3   4  -9 2511.42 617.727  12
   3  -4   9 1862.85 568.076   2
   3  -4   8 26675.5 1681.34  11
  -3   4  -8 23962.2 1851.51  12
  -3   4  -7 18089.7 1526.06  12
   3  -4   7 18778.6 1570.34   2
   3  -4   7 20192.0 1398.20  11
  -3   4  -6 6118.46 843.551  12
   3  -4   6 6427.64 970.736  10
   3  -4   6 6162.76 737.091  11
   3  -4   6 6837.21 865.855   2
  -3   4  -6 6339.98 573.437   4
  -3   4  -5 5445.94 557.030   4
   3  -4   5 5458.50 687.441  11
  -3   4  -5 5886.90 778.717  12
   3  -4   5 5314.77 713.584   2
   3  -4   5 4297.88 775.094  10
  -3   4  -4 340917. 7089.64   4
  -3   4  -4 323042. 7655.39  12
   3  -4   4 346325. 6059.43   5
   3  -4   4 339365. 7528.27   2
   3  -4   4 343951. 8461.90  10
   3  -4   3 14275.8 1330.04  10
   3  -4   3 14535.5 1003.14   2
  -3   4  -3 14905.2 1113.75  12
  -3   4  -3 15097.9 994.517   4
   3  -4   2 37386.5 2158.86  10
   3  -4   2 39634.3 1911.10   3
   3  -4   2 40776.6 1599.90   2
  -3   4  -2 38007.4 1752.69  12
  -3   4  -2 38408.4 1719.34   4
  -3   4  -1 527667. 10655.7   4
  -3   4  -1 544104. 10257.9   9
   3  -4   1 549489. 11192.5   3
   3  -4   1 547319. 11738.0  10
   3  -4   1 549834. 9957.65   2
   3  -4   0 15453.3 1226.10   3
  -3   4   0 14664.7 1071.44   4
  -3   4   0 15177.9 838.802   9
   3  -4   0 16449.1 769.174   2
   3  -4   0 18519.3 1474.00  10
   3  -4  -1 86575.9 3529.55  10
  -3   4   1 81713.7 2063.46   9
   3  -4  -1 85243.2 3111.57   3
  -3   4   1 82316.2 3055.98   1
   3  -4  -1 85105.8 1937.69   7
  -3   4   1 80889.5 2867.62   4
   3  -4  -1 83820.8 2305.75   6
   3  -4  -2 147663. 3713.43   6
   3  -4  -2 147679. 4433.34   3
  -3   4   2 144939. 4206.71   4
  -3   4   2 145065. 4515.61   1
  -3   4   3 7515.83 835.819   4
   3  -4  -3 6773.11 847.712   3
   3  -4  -3 7906.32 743.217   6
  -3   4   3 7912.28 985.292   1
   3  -4  -4 92067.7 3551.97   3
  -3   4   4 98759.9 3929.90   1
   3  -4  -4 92496.7 3144.55   6
  -3   4   4 91090.1 3296.89   4
  -3   4   5 2951.85 678.944   1
   3  -4  -5 2738.67 533.659   6
  -3   4   5 2385.41 489.828   4
  -3   4   6 10827.5 1418.02   1
  -3   4   6 9639.87 1011.28   4
   3  -4  -6 9488.97 1051.56   6
   3  -4  -7 23643.0 1806.07   6
  -3   4   7 26531.6 2395.57   1
  -3   4   7 23630.3 1622.10   4
   3  -4  -8 38426.0 2465.58   6
  -3   4   8 36157.8 2073.07   4
  -3   4   8 39915.1 3125.92   1
  -3   4   9 50.4093 153.686   1
   3  -4  -9 257.320 266.329   6
   3  -4 -10 23848.8 2180.56   6
  -3   4  10 28136.0 2833.32   1
   3  -4 -11 21893.8 2200.81   6
  -3   4  11 19329.2 2414.98   1
   4  -5  11 6113.92 1165.61   2
   4  -5  10 33561.9 2665.16   2
  -4   5 -10 35089.3 2639.88  12
  -4   5  -9 7856.16 1179.53  12
   4  -5   9 5047.37 960.567   2
   4  -5   8 300.714 219.836   2
  -4   5  -8 255.715 222.488  12
   4  -5   7 41026.1 2501.23   2
   4  -5   7 47671.9 3128.08  10
   4  -5   7 45569.2 2421.85  11
  -4   5  -7 43638.3 2617.88  12
   4  -5   6 1721.23 464.014  11
   4  -5   6 2408.17 690.418  10
  -4   5  -6 2625.76 591.332  12
   4  -5   6 2285.43 524.571   2
   4  -5   5 13348.1 1243.24  11
   4  -5   5 14425.7 1598.52  10
   4  -5   5 13412.7 1208.75   2
  -4   5  -5 14019.8 1317.12  12
  -4   5  -5 14661.7 1100.53   4
  -4   5  -4 21015.6 1358.99   4
   4  -5   4 20495.4 1868.68  10
   4  -5   4 21934.7 1451.55   2
  -4   5  -4 20114.9 1529.34  12
  -4   5  -3 5956.14 781.218  12
  -4   5  -3 4969.71 659.917   4
   4  -5   3 7134.60 743.297   2
   4  -5   3 5228.59 932.565  10
  -4   5  -2 11635.5 1038.25  12
   4  -5   2 11526.2 1116.85   3
  -4   5  -2 11251.0 1018.67   4
   4  -5   2 11738.8 876.178   2
   4  -5   2 11064.7 1290.22  10
   4  -5   1 6497.13 574.474   2
  -4   5  -1 6669.72 737.183  12
   4  -5   1 7419.95 915.396   3
  -4   5  -1 7320.84 862.479   4
   4  -5   1 7351.83 1037.79  10
   4  -5   0 37227.3 2397.17  10
   4  -5   0 36198.9 2127.27   3
  -4   5   0 32082.1 1879.87   4
  -4   5   0 34372.0 1659.53  12
   4  -5  -1 1496.83 474.933  10
  -4   5   1 1729.35 320.963  12
   4  -5  -1 2456.07 554.761   3
  -4   5   1 2141.22 465.465   4
  -4   5   2 42396.2 2288.34   4
   4  -5  -2 43587.1 1815.30   6
   4  -5  -2 42493.5 2706.86  10
  -4   5   2 45335.2 1666.13  12
  -4   5   2 44964.8 2521.76   1
   4  -5  -2 51376.7 2635.70   3
  -4   5   3 25383.1 1951.23   1
  -4   5   3 26419.2 1815.67   4
   4  -5  -3 28164.5 1974.93   3
   4  -5  -3 29811.6 1589.57   6
   4  -5  -4 886.509 380.596   3
   4  -5  -4 785.937 282.786   6
  -4   5   4 720.089 349.145   1
  -4   5   4 1014.92 368.521   4
  -4   5   5 48490.7 2598.95   4
   4  -5  -5 47332.7 2813.30   3
  -4   5   5 48905.6 3027.67   1
   4  -5  -5 46551.4 2371.70   6
   4  -5  -6 2291.45 602.700   3
   4  -5  -6 2060.63 506.237   6
  -4   5   6 2199.06 631.431   1
  -4   5   6 1615.99 455.916   4
  -4   5   7 989.557 351.866   4
  -4   5   7 613.746 358.039   1
   4  -5  -7 824.162 315.144   6
   4  -5  -7 1659.79 553.402   3
   4  -5  -8 8801.62 1368.39   3
  -4   5   8 10851.6 1226.28   4
  -4   5   8 12161.5 1731.23   1
   4  -5  -8 10916.1 1365.67   6
   4  -5  -9 544.231 348.325   6
  -4   5   9 250.024 185.158   4
   4  -5  -9 251.173 305.275   3
  -4   5   9 583.785 398.701   1
  -4   5  10 358.520 402.197   1
   4  -5 -10 714.814 501.377   3
   4  -5 -10 480.523 270.500   6
   5  -6  10 996.659 459.185   2
  -5   6  -9 1025.96 489.053  12
   5  -6   9 1190.16 487.626   2
  -5   6  -8 1622.49 634.610  12
   5  -6   8 1621.57 538.823   2
   5  -6   7 1669.64 521.434   2
   5  -6   7 1263.29 647.125  10
  -5   6  -7 1151.94 440.949  12
   5  -6   7 609.853 315.051  11
   5  -6   6 62058.8 3089.61   2
   5  -6   6 59989.4 3121.57  11
  -5   6  -6 57311.5 3168.50  12
   5  -6   6 69431.3 4016.79  10
   5  -6   5 6893.86 1202.94  10
  -5   6  -5 6067.02 811.600   4
   5  -6   5 6241.02 858.295   2
  -5   6  -5 5599.64 917.256  12
   5  -6   5 5843.72 911.729  11
   5  -6   4 902.066 450.759  10
  -5   6  -4 952.757 339.358   4
  -5   6  -4 172.839 193.274  12
   5  -6   3 47984.6 3114.36  10
  -5   6  -3 43111.5 2427.06  12
  -5   6  -3 45782.5 2401.67   4
   5  -6   2 14004.0 1341.31   3
  -5   6  -2 12273.0 1191.13  12
   5  -6   2 12063.6 1502.69  10
  -5   6  -2 12912.7 1257.76   4
   5  -6   1 2865.22 705.653  10
   5  -6   1 2730.58 598.754   3
  -5   6  -1 1948.07 515.401   4
  -5   6  -1 2486.43 522.469  12
   5  -6   0 24668.2 1879.73   3
  -5   6   0 24244.7 1531.99  12
   5  -6   0 22748.5 2047.52  10
  -5   6   0 23265.9 1786.24   4
  -5   6   1 31611.4 2137.12   4
   5  -6  -1 32680.3 2267.37   3
  -5   6   1 29897.8 1612.08  12
   5  -6  -1 29909.9 2395.87  10
   5  -6  -2 4455.34 915.622  10
   5  -6  -2 5833.95 949.214   3
  -5   6   2 6340.88 952.016   4
   5  -6  -3 4290.94 863.277   3
   5  -6  -3 5711.81 1056.13  10
  -5   6   3 3836.40 781.736   4
   5  -6  -4 463.724 366.793   3
  -5   6   4 18.1914 130.706   1
  -5   6   4 173.446 149.514   4
  -5   6   5 10487.9 1438.08   1
   5  -6  -5 10344.9 1403.45   3
  -5   6   5 10621.5 1311.28   4
   5  -6  -5 9892.46 1113.79   6
   5  -6  -6 6745.57 986.937   6
  -5   6   6 6720.17 1223.73   1
  -5   6   6 6551.69 1032.49   4
   5  -6  -6 7551.17 1261.63   3
  -5   6   7 31106.2 2346.56   4
  -5   6   7 30487.8 2749.86   1
   5  -6  -7 33908.7 2391.88   6
   5  -6  -7 31591.5 2704.97   3
   5  -6  -8 2348.58 750.845   3
  -5   6   8 4568.41 1111.36   1
  -5   6   8 2471.89 653.707   4
   5  -6  -8 2307.09 640.541   6
  -5   6   9 13526.4 1572.43   4
   5  -6  -9 16708.7 1861.28   6
  -6   7  -7 8697.33 1370.98  12
   6  -7   7 7981.51 1514.47  10
  -6   7  -6 2468.40 706.296  12
   6  -7   6 3172.78 941.828  10
   6  -7   6 2568.81 674.637  11
   6  -7   5 50048.0 3098.60  11
   6  -7   5 51470.0 3697.83  10
  -6   7  -5 48795.1 3089.62  12
   6  -7   4 690.059 456.919  10
  -6   7  -4 296.316 201.928  12
  -6   7  -4 252.196 291.818   4
  -6   7  -3 4023.06 783.216   4
  -6   7  -3 4236.46 827.234  12
   6  -7   3 5235.10 1125.42  10
  -6   7  -2 2281.71 613.412   4
  -6   7  -2 2690.06 603.924  12
   6  -7   2 2689.86 763.126  10
   6  -7   1 932.708 480.869  10
  -6   7  -1 1079.58 385.312  12
  -6   7  -1 1150.19 478.098   4
   6  -7   0 17998.9 1980.29  10
  -6   7   0 19843.2 1867.79   4
   6  -7  -1 18351.5 1988.78  10
   6  -7  -1 16097.4 1664.90   3
  -6   7   1 18274.4 1839.01   4
   6  -7  -2 9842.99 1470.35  10
  -6   7   2 8871.14 1321.89   4
   6  -7  -2 10584.8 1400.66   3
  -6   7   3 5790.58 1071.42   4
   6  -7  -3 6048.98 1195.58  10
   6  -7  -3 4456.83 930.353   3
  -6   7   4 64176.2 3725.25   4
   6  -7  -4 55230.4 3765.33  10
   6  -7  -4 58416.6 3676.21   3
   6  -7  -5 4102.84 1042.79  10
  -6   7   5 4395.34 943.312   4
   6  -7  -5 6191.01 1200.22   3
   6  -7  -6 7649.86 1390.81   3
  -6   7   6 6140.93 1241.10   1
  -6   7   6 7300.86 1225.17   4
   6  -7  -7 14387.5 1967.43   3
  -6   7   7 13763.7 1884.51   1
  -6   7   7 14767.6 1787.47   4
  -7   8  -4 12817.3 1701.18  12
   7  -8   4 11373.1 1574.21  11
  -7   8  -4 11002.1 1430.88   4
  -7   8  -3 457.573 317.015   4
   7  -8   2 3838.96 998.996  10
  -7   8  -2 3301.27 807.216   4
   7  -8   1 11256.0 1718.88  10
  -7   8  -1 10601.0 1521.12   4
   7  -8   0 548.625 407.998  10
  -7   8   0 974.967 464.942   4
  -7   8   1 3134.93 860.092   4
   7  -8  -1 2206.71 753.088  10
   7  -8  -2-443.976 339.999  10
  -7   8   2 139.254 256.195   4
  -8   6   6 11082.0 1485.50   4
  -8   6   5 15997.5 1767.45   4
   8  -6  -5 20362.2 2327.68  10
  -8   6   4 586.303 411.686   4
   8  -6  -4-174.718 230.348  10
  -8   6   3 17443.7 1820.20   4
   8  -6  -3 16966.2 2075.33  10
   8  -6  -2 20208.6 2265.41  10
  -8   6   2 20802.0 1966.07   4
   8  -6  -1 1268.20 514.135  10
  -8   6   1 1565.59 542.721   4
  -8   6   0 22429.0 2003.03   4
   8  -6   0 20384.2 2272.94  10
  -8   6  -1 3250.79 724.472   4
   8  -6   1 3724.93 846.550  11
   8  -6   1 5103.17 1154.58  10
   8  -6   2-41.1634 230.335  11
   8  -6   2 338.686 454.295  10
  -8   6  -2-28.2035 86.0052   4
  -8   6  -2-84.4542 125.757  12
  -8   6  -3 115.084 150.861  12
   8  -6   3 303.489 181.718  11
   8  -6   3 539.049 376.651  10
  -8   6  -3 508.803 283.547   4
   8  -6   4 5185.84 1039.52  11
   8  -6   4 6563.05 1334.69  10
  -8   6  -4 4371.91 926.229  12
  -8   6  -4 4162.62 802.383   4
  -7   5   9 36515.1 2600.65   4
   7  -5  -9 41510.0 3201.57   3
   7  -5  -9 39963.5 2779.85   6
   7  -5  -8 16936.4 1919.41   3
  -7   5   8 15603.0 1660.93   4
   7  -5  -7 12823.1 1590.53   3
  -7   5   7 12369.4 1451.78   4
  -7   5   6 30688.8 2284.88   4
   7  -5  -6 29859.3 2324.70   3
  -7   5   5 7468.57 1116.52   4
   7  -5  -5 8837.29 1443.52  10
   7  -5  -5 9677.78 1227.86   3
  -7   5   4 20110.0 1794.34   4
   7  -5  -4 21833.4 2239.16  10
   7  -5  -3 1873.86 631.796  10
  -7   5   3 2292.03 613.642   4
   7  -5  -2 408.352 298.930  10
  -7   5   2 15.3816 141.988   4
  -7   5   1 21704.1 1818.68   4
   7  -5  -1 22331.6 2178.59  10
  -7   5   0 12432.9 1344.94   4
   7  -5   0 11659.6 1547.81  10
  -7   5   0 11296.1 1111.78  12
  -7   5  -1 215.685 212.419   4
  -7   5  -1 182.999 221.782  12
   7  -5   1 130.116 289.390  10
  -7   5  -2 1553.24 463.786  12
  -7   5  -2 1709.02 496.870   4
   7  -5   2 1642.50 641.862  10
   7  -5   2 2024.34 620.821  11
  -7   5  -3 51303.5 2730.00   4
   7  -5   3 50599.9 3044.78  11
   7  -5   3 56549.6 3569.60  10
  -7   5  -3 52525.6 2864.48  12
  -7   5  -4 3472.26 676.912   4
   7  -5   4 3646.58 817.112  11
   7  -5   4 4553.70 1015.18  10
  -7   5  -4 2849.25 665.768  12
   7  -5   5 1638.60 594.000  11
   7  -5   5 2138.88 756.613  10
  -7   5  -5 2047.94 603.654  12
   7  -5   6 19552.4 1969.36  11
   7  -5   6 16560.6 2066.88  10
  -7   5  -6 16444.9 1770.46  12
   7  -5   7 2189.51 614.969  11
  -7   5  -7 3028.33 794.189  12
   7  -5   8 1183.40 532.691  11
  -6   4  10 23177.9 2914.25   1
   6  -4 -10 25019.1 2231.64   6
  -6   4   9 17030.7 1584.57   4
   6  -4  -9 15185.0 1631.56   6
  -6   4   9 13702.7 2111.23   1
  -6   4   8 402.286 252.934   1
   6  -4  -8 74.0991 87.7460   6
  -6   4   8 38.6802 156.564   4
  -6   4   7 30013.6 2071.75   4
   6  -4  -7 33090.4 2155.17   6
   6  -4  -6 14075.8 1319.71   6
  -6   4   6 15010.2 1431.82   4
  -6   4   6 12245.0 1661.71   1
   6  -4  -5 5287.64 742.498   6
   6  -4  -5 3658.25 693.216   3
  -6   4   5 4465.15 767.103   4
  -6   4   4 1290.55 447.838   4
   6  -4  -4 1310.48 377.295   3
   6  -4  -4 1271.58 343.711   6
   6  -4  -3 493.019 205.612   3
   6  -4  -3-2.79963 86.6382  10
   6  -4  -3 434.335 193.241   6
  -6   4   3 177.415 173.466   4
  -6   4   2 16048.0 1421.23   4
   6  -4  -2 14952.0 1213.90   3
   6  -4  -2 12885.4 1517.86  10
  -6   4   2 14639.0 986.726  12
   6  -4  -1 24471.5 2069.63  10
  -6   4   1 25319.7 1444.03  12
  -6   4   1 26238.9 1811.08   4
   6  -4   0 1383.03 477.331  10
  -6   4   0 2265.77 510.012   4
  -6   4   0 1836.99 406.517  12
  -6   4  -1 15412.1 1256.96  12
   6  -4   1 14313.7 1534.65  10
  -6   4  -1 14193.6 1289.52   4
   6  -4   2 1421.93 563.790  10
   6  -4   2 605.436 213.449   2
  -6   4  -2 547.344 250.634  12
  -6   4  -2 546.825 272.680   4
   6  -4   2 435.753 242.974  11
   6  -4   3 6455.62 945.211  11
  -6   4  -3 6065.72 801.045   4
  -6   4  -3 5454.51 828.530  12
   6  -4   3 5801.53 1018.81  10
  -6   4  -4 1522.56 469.956  12
  -6   4  -4 1363.46 392.049   4
   6  -4   4 2276.68 661.393  10
   6  -4   4 2324.22 582.086  11
   6  -4   4 1803.95 443.866   2
   6  -4   5 24365.1 1952.11  11
   6  -4   5 22773.6 1764.83   2
   6  -4   5 22962.8 2098.02  10
  -6   4  -5 22554.6 1874.85  12
   6  -4   6 10491.8 1267.60   2
   6  -4   6 10479.5 1433.45  10
  -6   4  -6 10619.9 1325.97  12
   6  -4   6 9549.66 1264.81  11
  -6   4  -7 123.490 129.308  12
   6  -4   7 457.541 333.236  11
   6  -4   7-349.340 246.760   2
  -6   4  -8 76456.9 4030.75  12
   6  -4   8 74787.7 3896.85  11
   6  -4   9 5528.54 1083.16   2
  -5   3  11 3732.37 1112.62   1
   5  -3 -11 4619.43 991.169   6
   5  -3 -10 30718.5 2381.96   6
  -5   3  10 31615.3 3164.30   1
  -5   3   9 16991.7 2169.78   1
  -5   3   9 18705.2 1493.01   4
   5  -3  -9 17532.2 1683.93   6
  -5   3   8 3661.27 652.340   4
   5  -3  -8 4311.84 772.573   6
  -5   3   8 3283.71 872.720   1
  -5   3   7 40651.7 2198.10   4
   5  -3  -7 43976.7 2405.25   6
   5  -3  -6 4271.25 683.365   6
  -5   3   6 4064.78 847.637   1
  -5   3   6 5122.07 734.640   4
  -5   3   5 501.447 245.259   4
  -5   3   5 576.862 303.013   1
   5  -3  -5 640.020 285.801   6
   5  -3  -4 29823.1 1612.88   6
  -5   3   4 30137.8 1817.64   4
   5  -3  -4 30979.4 1361.97   7
  -5   3   3 10763.8 1058.35   4
   5  -3  -3 10925.2 936.493   3
  -5   3   3 10623.2 647.479  12
   5  -3  -3 10588.8 853.909   6
  -5   3   2-29.3564 70.2812  12
   5  -3  -2-16.1564 52.7794   3
   5  -3  -2 84.4577 152.740  10
   5  -3  -2 23.7366 67.7221   6
  -5   3   2 226.219 202.357   4
   5  -3  -1 18000.4 1559.14  10
  -5   3   1 19252.3 1382.22   4
  -5   3   1 19838.9 1141.75  12
   5  -3  -1 19913.4 1176.79   3
   5  -3  -1 19014.5 951.114   6
   5  -3   0 10667.2 1193.97  10
  -5   3   0 12237.1 958.975  12
   5  -3   0 13248.3 854.304   3
  -5   3   0 12650.6 1100.24   4
   5  -3   0 13657.1 691.988   6
  -5   3  -1 396.776 201.194  12
  -5   3  -1 204.232 161.141   4
   5  -3   1 287.874 262.206  10
   5  -3   2 71953.6 3046.41  11
   5  -3   2 74975.8 3313.90  10
  -5   3  -2 71298.9 2733.91   4
  -5   3  -2 77765.2 2953.79  12
   5  -3   3 6376.43 920.568  10
  -5   3  -3 3918.06 584.106   4
   5  -3   3 4657.20 723.132  11
  -5   3  -3 4372.05 672.935  12
  -5   3  -4 1094.47 314.071   4
  -5   3  -4 1609.97 447.197  12
   5  -3   4 1566.06 449.164  10
   5  -3   4 1438.09 420.437  11
   5  -3   5 82491.7 3757.22  10
  -5   3  -5 79006.9 3469.56  12
   5  -3   5 79258.8 3399.96  11
   5  -3   6 4847.51 874.288  11
  -5   3  -6 4567.20 808.152  12
  -5   3  -7 98.0834 260.079  12
   5  -3   7 285.883 246.188  11
  -5   3  -8 53080.4 3155.56  12
   5  -3   8 54959.0 3101.32  11
  -5   3  -9 1915.58 591.084  12
   5  -3   9 3290.00 784.838   2
   5  -3   9 2632.49 676.112  11
  -5   3 -10 1299.73 553.903  12
   5  -3  10 2367.98 690.627   2
  -4   2  12 13077.1 2012.48   1
   4  -2 -12 13244.7 1665.92   6
   4  -2 -11 22119.7 2049.97   6
  -4   2  11 22233.3 2538.22   1
  -4   2  10 14073.7 1914.01   1
   4  -2 -10 13902.1 1525.89   6
  -4   2   9 29574.8 1648.87   4
  -4   2   9 24537.8 2403.55   1
   4  -2  -9 25854.6 1997.66   6
  -4   2   8 43106.6 2026.17   4
  -4   2   8 37454.4 2797.25   1
   4  -2  -8 39576.3 2343.72   6
  -4   2   7 5610.48 683.065   4
  -4   2   7 5798.50 987.809   1
   4  -2  -7 5642.60 805.192   6
  -4   2   7 5853.88 700.952   2
  -4   2   6 3774.53 746.450   1
  -4   2   6 3751.32 551.976   4
   4  -2  -6 4317.85 442.186   7
   4  -2  -6 4259.48 645.063   6
  -4   2   6 3700.30 508.649   2
  -4   2   5 1151.74 418.991   1
  -4   2   5 973.700 225.961   2
   4  -2  -5 1050.37 289.685   6
   4  -2  -5 1134.18 224.491   7
  -4   2   5 885.570 273.691   4
  -4   2   4 107118. 3289.37   4
   4  -2  -4 101771. 2805.47   7
  -4   2   4 99007.1 3653.09   1
   4  -2  -4 100330. 3124.55   6
  -4   2   4 98920.1 3332.14   5
  -4   2   3 27893.6 1507.31   4
  -4   2   3 25871.6 1448.10   5
   4  -2  -3 27030.8 965.646   8
   4  -2  -3 24463.7 722.232   2
   4  -2  -3 26270.6 1319.17   6
  -4   2   3 27777.1 1697.55   1
  -4   2   3 27179.1 938.786  12
  -4   2   2 208.349 214.063   4
  -4   2   2 229.236 124.804   5
   4  -2  -2 149.578 60.8688   2
  -4   2   2 117.402 42.7031  12
  -4   2   1 153643. 3739.67   5
  -4   2   1 154707. 4036.18   4
  -4   2   1 150552. 3567.18  12
   4  -2  -1 149070. 3415.54   3
   4  -2  -1 144286. 4502.55  10
   4  -2   0 87754.7 3149.59  10
  -4   2   0 87396.2 2609.67  12
  -4   2   0 90531.9 2433.68   5
   4  -2   0 86761.3 2239.16   3
  -4   2   0 87689.3 2788.67   4
  -4   2  -1 38471.0 1693.90   4
   4  -2   1 40156.0 1989.56  10
  -4   2  -1 40986.9 1757.94  12
  -4   2  -1 40457.7 1324.37   5
  -4   2  -2 106175. 3280.20  12
   4  -2   2 102145. 2255.46   5
  -4   2  -2 102860. 3019.88   4
   4  -2   2 103488. 3351.12  11
  -4   2  -2 100133. 2149.31   3
   4  -2   2 109767. 3574.14  10
   4  -2   3 84422.0 3219.21  10
  -4   2  -3 87904.4 2732.90   4
   4  -2   3 87562.0 3087.65  11
  -4   2  -3 90346.0 3120.41  12
  -4   2  -4 9769.73 986.180  12
   4  -2   4 10846.1 1032.43  11
   4  -2   4 10032.3 1065.75  10
   4  -2   5 9887.69 1033.52  11
  -4   2  -5 9038.53 1005.05  12
   4  -2   6 11185.1 1155.79  11
  -4   2  -6 11576.5 1195.63  12
  -4   2  -7 633.431 327.338  12
   4  -2   7 698.931 382.449  11
   4  -2   8 2732.06 639.150  11
  -4   2  -8 2339.25 621.103  12
  -4   2  -9 8333.79 1174.22  12
   4  -2   9 6320.15 1038.17  11
   4  -2  10 12343.1 1581.22   2
  -4   2 -10 12496.2 1506.65  12
   4  -2  11 792.761 428.803   2
  -4   2 -11 1197.55 476.360  12
  -3   1  13 400.560 290.276   1
   3  -1 -13 215.575 229.195   6
  -3   1  12 70.8147 313.223   1
   3  -1 -12 181.890 106.744   6
  -3   1  11 211.041 129.289   2
  -3   1  11 39.0104 210.551   1
   3  -1 -11 145.163 234.421   6
  -3   1  10 535.423 250.040   2
  -3   1  10 344.016 278.601   1
   3  -1 -10 383.221 248.120   6
  -3   1   9 7378.35 884.015   2
  -3   1   9 7166.68 1188.71   1
   3  -1  -9 8310.78 1060.01   6
   3  -1  -8 29591.3 1955.89   6
  -3   1   8 31544.8 1434.93   4
  -3   1   8 30163.6 1697.10   2
  -3   1   8 31273.6 2325.54   1
   3  -1  -7 2138.32 491.648   6
  -3   1   7 2088.45 512.942   1
  -3   1   7 1980.87 379.969   2
  -3   1   7 2211.12 367.560   4
  -3   1   6 5312.21 778.271   1
   3  -1  -6 5770.15 715.059   6
  -3   1   6 6582.38 607.153   4
  -3   1   6 6645.13 639.219   2
   3  -1  -6 5776.05 562.551   7
  -3   1   6 6462.11 747.036   5
  -3   1   5 198924. 5426.37   1
   3  -1  -5 204302. 3948.38   9
  -3   1   5 208433. 4644.78   4
  -3   1   5 199966. 4573.02   2
   3  -1  -5 194984. 4428.51   7
   3  -1  -5 204479. 5080.37   6
  -3   1   5 202312. 5061.48   5
  -3   1   4 3789.48 503.519   5
  -3   1   4 4012.87 441.819   2
   3  -1  -4 3404.46 414.505   7
  -3   1   4 4067.81 464.808   4
   3  -1  -4 3549.83 482.937   6
  -3   1   4 3636.18 551.757   1
   3  -1  -4 3379.69 190.421  12
   3  -1  -3 20343.3 668.316  12
  -3   1   3 18723.3 1076.03   5
  -3   1   3 18860.6 1188.68   1
  -3   1   3 20547.8 943.749   2
   3  -1  -3 18840.2 806.527   8
  -3   1   3 19096.5 1035.93   4
  -3   1   3 18832.6 684.093  12
  -3   1   2 8418.47 644.161   4
  -3   1   2 8856.56 502.470  12
   3  -1  -2 9089.75 534.826   2
  -3   1   2 8618.09 667.838   5
  -3   1   1 9387.59 618.146   5
  -3   1   1 8953.76 657.521   4
   3  -1  -1 9271.50 804.541  10
  -3   1   1 8366.10 542.302  12
  -3   1   0 135023. 3147.23  12
  -3   1   0 132553. 2928.45   5
   3  -1   0 132401. 3481.48  10
   3  -1   0 128519. 2487.94   3
  -3   1   0 132226. 3226.23   4
   3  -1   1 80706.4 2476.47  11
  -3   1  -1 78028.3 2262.45   4
   3  -1   1 80836.0 2501.13  10
  -3   1  -1 76141.4 1858.30   5
  -3   1  -1 82216.9 2379.81  12
  -3   1  -2 5897.51 327.869   5
   3  -1   2 5784.44 612.132  11
  -3   1  -2 6093.69 331.386   3
  -3   1  -2 6182.44 538.558   4
   3  -1   2 5825.10 621.555  10
  -3   1  -2 6109.06 608.960  12
  -3   1  -3 60944.6 2244.31  12
   3  -1   3 62802.3 2303.25  11
   3  -1   3 62101.1 2348.85  10
  -3   1  -3 58259.1 1276.41   5
  -3   1  -4 534636. 9151.46   5
  -3   1  -4 534329. 9145.42   5
   3  -1   4 558486. 11092.6  11
  -3   1  -4 552249. 10991.4  12
  -3   1  -5 905.678 262.619  12
   3  -1   5 991.917 330.578  11
  -3   1  -5 936.485 117.165   5
  -3   1  -6 39117.1 2091.31  12
   3  -1   6 47076.0 2317.93  11
  -3   1  -7 129981. 4367.86  12
   3  -1   7 136317. 4528.41  11
  -3   1  -8 32816.5 2087.61  12
   3  -1   8 32428.7 2144.62  11
   3  -1   9 6271.69 977.482  11
  -3   1  -9 5435.24 867.505  12
  -3   1 -10 8186.65 1130.84  12
   3  -1  10 10000.4 1296.01  11
  -3   1 -11 5482.92 959.672  12
   3  -1  11 5211.64 1050.75   2
   3  -1  12 1978.85 1037.46   1
  -3   1 -12 1934.31 571.139  12
  -2   0  14 21204.1 2150.25   2
  -2   0  14 29673.0 2860.08   1
  -2   0  13 40853.8 2884.49   2
  -2   0  13 43978.6 3384.03   1
   2   0 -13 44011.4 3055.15   6
  -2   0  12 2382.65 724.843   1
   2   0 -12 2116.07 629.709   6
  -2   0  12 1177.40 436.396   2
  -2   0  11 15621.3 1843.20   1
  -2   0  11 15786.8 1541.09   2
   2   0 -11 16765.2 1647.76   6
  -2   0  10 19489.3 1597.53   2
   2   0 -10 21382.1 1773.39   6
  -2   0  10 25215.9 2232.15   1
  -2   0   9 6434.05 1029.83   1
   2   0  -9 6925.12 934.202   6
  -2   0   9 4743.28 737.259   2
   2   0  -8 1705.65 281.823  12
  -2   0   8 1695.29 234.513   4
  -2   0   8 1832.36 506.725   1
  -2   0   8 1352.81 373.465   2
   2   0  -8 1850.70 448.247   6
  -2   0   7 655.499 242.191   5
   2   0  -7 751.634 185.031  12
   2   0  -7 815.733 279.290   6
  -2   0   7 763.463 165.491   4
  -2   0   7 463.225 301.936   1
  -2   0   7 666.327 243.488   2
   2   0  -6 16624.7 1045.97   7
  -2   0   6 17560.1 799.591   4
   2   0  -6 17168.1 945.618   9
  -2   0   6 17830.5 1358.93   1
  -2   0   6 15489.8 1071.23   5
   2   0  -6 17130.9 1216.04   6
   2   0  -6 16892.0 767.369  12
  -2   0   6 16393.4 1070.52   2
  -2   0   5 263204. 5037.41   4
   2   0  -5 258454. 5931.42   6
   2   0  -5 252552. 5493.71   7
  -2   0   5 255235. 5705.62   5
   2   0  -5 256770. 5210.15   9
  -2   0   5 262107. 6088.55   1
  -2   0   5 249253. 5520.77   2
  -2   0   4 231.850 122.333   5
  -2   0   4 450.756 136.817   1
  -2   0   4 264.132 115.446   2
  -2   0   4 288.037 100.717   4
   2   0  -4 491.960 142.093   7
   2   0  -3 7342.32 626.828   7
  -2   0   3 7462.57 562.624   2
   2   0  -3 7950.32 402.504  12
  -2   0   3 7964.87 590.152   5
  -2   0   3 7420.82 495.408   4
  -2   0   3 7226.11 590.723   1
  -2   0   2 967997. 14649.0   4
  -2   0   2 772420. 14227.7  12
  -2   0   2 853146. 14799.1   1
  -2   0   2 733680. 14694.0   2
  -2   0   2 939750. 14765.6   5
  -2   0   1 14416.2 689.005   5
  -2   0   1 14026.0 690.592   4
   2   0  -1 14734.0 698.080  11
  -2   0   1 15623.7 679.586  12
  -2   0   0 104672. 2347.90   5
   2   0   0 103837. 2399.02  10
   2   0   0 104623. 2538.27  11
  -2   0   0 116576. 2597.84  10
  -2   0   0 107480. 2509.52  12
   2   0   1 533660. 9680.81  11
   2   0   1 518190. 9457.22  10
  -2   0  -1 507185. 8787.67   3
  -2   0  -1 536524. 9169.06   5
  -2   0  -1 535783. 9581.95  12
   2   0   2 20327.8 1063.30  11
  -2   0  -2 19149.4 983.717  12
   2   0   3 65239.3 2285.03  11
  -2   0  -3 62956.1 2108.45  12
  -2   0  -4 133947. 3670.41  12
   2   0   4 144489. 3940.18  11
  -2   0  -4 139765. 3731.91   6
   2   0   5 20862.6 1373.16  11
  -2   0  -5 20510.4 1291.76   6
  -2   0  -5 19300.3 1231.59  12
  -2   0  -6 24405.3 1523.42   6
  -2   0  -6 23876.4 1470.91  12
   2   0   6 24310.0 1584.68  11
  -2   0  -7 122.842 119.828  12
  -2   0  -7 112.662 150.563   6
   2   0   7 235.266 267.909  11
   2   0   8 67775.8 3124.26  11
  -2   0  -8 68765.7 3068.74   6
  -2   0  -8 63958.9 2838.67  12
   2   0   9 3624.36 733.520  11
  -2   0  -9 3332.04 710.439   6
  -2   0  -9 3623.17 668.386  12
   2   0  10 8082.33 1174.72  11
  -2   0 -10 6862.39 1050.43   6
  -2   0 -10 7840.72 1028.67  12
   2   0  11 37912.4 3653.70   1
  -2   0 -11 40257.2 2535.90  12
  -2   0 -11 41042.0 2806.49   6
   2   0  12 280.807 349.082   1
  -2   0 -12 526.899 357.497   6
   2   0  12 85.5429 147.366   2
  -1  -1  14 711.665 422.182   1
  -1  -1  14-276.916 253.389   2
  -1  -1  13 8416.89 1310.95   2
  -1  -1  13 7621.65 1318.14   1
   1   1 -13 8413.78 1267.04   6
  -1  -1  12 5158.84 1042.16   1
  -1  -1  12 4384.37 892.936   2
   1   1 -12 3128.80 732.359   6
  -1  -1  11 11093.0 1333.59   2
  -1  -1  11 11319.8 1511.01   1
   1   1 -11 9133.16 1162.21   6
   1   1 -10-31.3077 58.1908  12
  -1  -1  10 239.719 201.513   2
   1   1 -10-4.53349 137.946   6
  -1  -1  10-18.6544 194.789   1
  -1  -1   9 43568.1 2409.72   2
   1   1  -9 47044.6 2013.16  12
  -1  -1   9 49405.2 2900.86   1
   1   1  -9 40984.6 2282.88   6
  -1  -1   8 100101. 4054.10   1
   1   1  -8 90293.5 2834.68  12
  -1  -1   8 93725.1 3062.97   5
  -1  -1   8 89247.4 3389.22   2
   1   1  -8 87949.6 3321.41   6
   1   1  -7 377.596 162.245  12
   1   1  -7 726.010 237.384   9
  -1  -1   7 733.493 222.707   5
  -1  -1   7 952.720 352.497   1
   1   1  -7 492.398 238.974   6
  -1  -1   7 665.834 264.690   2
  -1  -1   6 122876. 3304.27   5
   1   1  -6 122022. 2567.78  11
   1   1  -6 123924. 3406.45   9
  -1  -1   6 130835. 4096.61   1
  -1  -1   6 124528. 3655.08   2
   1   1  -6 121162. 3576.73   6
   1   1  -5 81769.2 2588.26   7
   1   1  -5 87538.4 1780.11  11
   1   1  -5 82223.5 2475.04   9
  -1  -1   5 83313.1 2411.68   5
  -1  -1   5 90879.3 2911.47   1
  -1  -1   5 81992.4 2652.63   2
   1   1  -5 83029.2 2629.57   6
   1   1  -5 84588.8 1722.43   4
   1   1  -4 2156.61 186.006   4
  -1  -1   4 1807.39 264.865   5
  -1  -1   4 2206.37 337.439   1
  -1  -1   4 1738.24 296.439   2
   1   1  -4 2106.13 324.293   7
   1   1  -3 105053. 2122.14   4
  -1  -1   3 105481. 2381.26   1
   1   1  -3 102087. 2754.80   7
  -1  -1   3 105316. 2643.71   2
  -1  -1   3 99247.8 2471.70   5
  -1  -1   2 23126.2 896.568   5
   1   1  -2 25177.4 633.975  11
   1   1  -2 22677.0 1024.62   8
  -1  -1   2 24818.2 615.129  11
  -1  -1   2 23591.8 1039.24   2
   1   1  -2 22180.2 1078.79   7
   1   1  -2 24942.2 806.732   1
  -1  -1   2 24449.3 754.218   1
  -1  -1   1 11424.9 484.737  11
   1   1  -1 12356.8 594.476   3
   1   1  -1 11410.4 497.607  11
  -1  -1   1 11041.6 694.936   2
   1   1  -1 10785.0 640.078   8
  -1  -1   1 10602.7 567.550   5
   1   1   0 606.619 131.257  11
  -1  -1   0 495.363 131.914   3
  -1  -1   0 423.948 114.733  12
   1   1   0 500.774 127.395   3
   1   1   1 440.191 133.402  11
  -1  -1  -1 572.887 124.943   3
  -1  -1  -1 394.409 118.160  12
   1   1   2 53861.2 1832.70  11
  -1  -1  -2 58225.4 1736.32  12
   1   1   3 58408.5 2070.77  11
  -1  -1  -3 61433.3 1909.57  12
  -1  -1  -3 58182.3 2012.61   6
   1   1   4 373.520 175.608  11
  -1  -1  -4 64.9989 92.5363   6
  -1  -1  -4 203.768 83.4317  12
  -1  -1  -5 26562.2 1516.99   6
  -1  -1  -5 25667.4 1329.59  12
   1   1   5 26120.7 1522.01  11
  -1  -1  -6 23084.6 1534.40   6
   1   1   6 25946.8 1641.98  11
  -1  -1  -6 27693.1 1478.57  12
  -1  -1  -7 7890.33 823.658  12
  -1  -1  -7 8296.32 969.316   6
   1   1   7 8726.50 1010.81  11
  -1  -1  -8 34193.3 1859.79  12
  -1  -1  -8 32697.1 2123.51   6
   1   1   8 33324.3 2214.45  11
   1   1   9 37408.3 2546.68  11
   1   1   9 33952.8 3060.70   1
  -1  -1  -9 41517.2 2167.75  12
  -1  -1  -9 36466.2 2394.70   6
  -1  -1 -10 10578.2 1120.78  12
   1   1  10 10674.8 1802.00   1
   1   1  10 11053.8 1456.97  11
  -1  -1 -10 11030.9 1363.05   6
  -1  -1 -11 10947.2 1437.74   6
   1   1  11 8268.46 1631.11   1
   1   1  12 475.876 487.593   1
  -1  -1 -12-383.257 288.150   6
   1   1  12 103.641 150.830   2
   0   2 -14 424.223 304.122   6
   0   2 -13 4697.22 917.251   6
   0  -2  13 4502.69 999.433   2
   0   2 -12 18601.5 1591.04  12
   0  -2  12 16534.8 1815.76   2
   0  -2  12 19084.6 2012.00   1
   0   2 -12 17046.9 1665.34   6
   0  -2  11 362.408 303.671   1
   0  -2  11-42.0753 195.278   2
   0   2 -11 159.671 232.096   6
   0   2 -11 375.385 226.628  12
   0  -2  10 14175.6 1607.82   1
   0  -2  10 13286.4 1432.13   2
   0   2 -10 15102.0 1375.05   6
   0   2 -10 14485.5 1279.03  12
   0  -2   9 18254.5 1767.66   1
   0   2  -9 17020.9 1362.89   6
   0   2  -9 14683.5 1216.00  12
   0   2  -8 2300.52 467.555   6
   0  -2   8 2377.91 668.645   1
   0  -2   8 2551.51 552.094   2
   0  -2   8 2133.07 369.652   5
   0   2  -8 2021.65 409.538  12
   0  -2   8 2266.07 397.259  11
   0   2  -7 83476.8 2854.97  12
   0  -2   7 86788.8 2545.55   5
   0  -2   7 84750.5 3222.92   2
   0  -2   7 91982.3 3738.78   1
   0   2  -7 85935.5 3050.12   9
   0   2  -7 79994.1 2842.42   6
   0  -2   7 87606.4 2388.39  11
   0   2  -6 33890.0 1594.02   6
   0  -2   6 34270.9 1362.31   5
   0   2  -6 36852.3 1740.96   9
   0  -2   6 38104.9 2126.94   1
   0  -2   6 34669.6 1818.27   2
   0  -2   6 35180.5 1161.55  11
   0  -2   5 39775.1 1103.78  11
   0   2  -5 40125.7 1590.38   6
   0  -2   5 39630.1 1387.08   5
   0  -2   5 40994.4 1840.13   2
   0   2  -5 40008.3 1716.05   9
   0  -2   4 105922. 2125.33  11
   0   2  -4 102718. 2908.29   9
   0   2  -4 108311. 2216.06   4
   0   2  -4 103618. 3030.50   7
   0  -2   4 101183. 2487.26   5
   0  -2   4 108393. 3064.22   2
   0  -2   3 212364. 4512.71  10
   0   2  -3 222263. 4780.68   7
   0  -2   3 214682. 4652.69   2
   0  -2   2 202233. 4186.08  10
   0  -2   2 204255. 4354.37   2
   0  -2   2 204166. 4160.82   5
   0   2  -2 209178. 4494.71   7
   0   2  -1 8631.73 609.288   7
   0  -2   1 9261.01 551.931  10
   0  -2   1 9781.06 666.127   2
   0  -2   1 10340.0 718.420   3
   0   2   0 603535. 10845.0   8
   0  -2   0 600475. 11120.6   3
   0   2   0 629847. 10907.8   1
   0  -2  -1 147014. 3579.22   3
   0   2   1 161178. 4082.81   1
   0   2   2 483.611 205.274  11
   0  -2  -2 414.334 114.785  12
   0  -2  -2 548.391 169.505   6
   0   2   3 147890. 4217.47  11
   0  -2  -3 144260. 3769.48   6
   0  -2  -3 142809. 3313.19  12
   0  -2  -4 209259. 4532.07  12
   0   2   4 208193. 6301.80   1
   0  -2  -4 202152. 5088.51   6
   0   2   4 206620. 5597.94  11
   0   2   5 1671.32 407.120  11
   0  -2  -5 1806.00 312.530  12
   0  -2  -5 2207.07 449.423   6
   0   2   5 1560.52 549.598   1
   0   2   5 2418.11 446.911   4
   0   2   6 31305.6 2469.22   1
   0  -2  -6 34861.7 1549.96  12
   0  -2  -6 33059.6 1929.54   6
   0   2   6 35487.9 1696.16   4
   0   2   7 81163.1 4327.39   1
   0   2   7 87000.0 2791.77   4
   0  -2  -7 79253.1 2667.73  12
   0  -2  -7 81095.0 3408.89   6
   0   2   8 4821.61 1062.35   1
   0  -2  -8 6660.28 975.526   6
   0  -2  -8 6437.52 713.470  12
   0   2   9 52435.3 3701.86   1
   0  -2  -9 52689.8 3034.03   6
   0   2  10 18181.5 2219.75   1
   0  -2 -10 18611.0 1862.19   6
   0  -2 -11 2199.61 687.140   6
   0   2  11 1575.75 715.898   1
   0   2  12 26323.5 2875.67   1
   0   2  12 21397.8 2115.79   2
   0  -2 -12 29047.7 2605.72   6
  -1   3 -13 472.425 281.541  12
   1  -3  13 295.497 261.348   2
  -1   3 -12 9754.22 1244.07  12
   1  -3  12 10769.8 1500.04   2
  -1   3 -11 22703.6 1822.69  12
   1  -3  11 20725.0 2074.71   1
  -1   3 -11 21548.1 1742.81   6
   1  -3  11 19713.3 1936.22   2
   1  -3  10 6710.75 1138.80   1
  -1   3 -10 5527.61 843.020  12
  -1   3 -10 6478.08 879.137   6
   1  -3  10 5447.31 951.752   2
   1  -3   9 75118.6 3527.10   2
  -1   3  -9 80827.5 3301.14  12
  -1   3  -9 81533.3 3089.10   6
   1  -3   8 17504.1 1503.75   2
  -1   3  -8 16026.8 1315.92  12
  -1   3  -8 16731.3 1194.18   6
   1  -3   7 1119.06 212.276   5
   1  -3   7 787.920 218.084  11
  -1   3  -7 830.991 316.806   9
  -1   3  -7 643.978 214.564   6
  -1   3  -7 445.267 258.336  12
   1  -3   7 659.645 298.250   2
  -1   3  -6 98422.5 2038.72   4
   1  -3   6 99630.3 3453.84   2
   1  -3   6 98955.3 2618.97  11
  -1   3  -6 98343.7 2809.46   6
  -1   3  -6 95955.5 3312.51   9
   1  -3   6 98934.1 2431.20   5
   1  -3   5 28942.1 1670.75  10
   1  -3   5 28901.6 1599.87   2
  -1   3  -5 30086.0 1591.11   9
   1  -3   5 28004.6 1156.21  11
  -1   3  -5 28851.2 972.297   4
   1  -3   5 30400.4 1077.81   5
  -1   3  -5 29340.5 1214.18   6
   1  -3   4 32312.7 1564.98   2
  -1   3  -4 30495.5 1516.22   9
   1  -3   4 31527.0 1623.31  10
   1  -3   4 30552.7 1084.39   5
  -1   3  -4 30988.3 1109.32   4
   1  -3   3 81439.7 2189.25   5
  -1   3  -3 80983.6 2232.01   4
   1  -3   3 87515.7 2763.00  10
   1  -3   3 83532.4 2532.48   2
  -1   3  -3 84249.9 2594.43   9
   1  -3   2 49.3752 65.1695  10
   1  -3   2 53.2220 77.6807   2
   1  -3   2 128.098 71.1231   1
   1  -3   2 61.3058 47.7626   3
  -1   3  -2 352.411 154.931   4
   1  -3   1 13461.9 955.824  10
  -1   3  -1 13489.6 916.862   4
  -1   3  -1 14738.3 820.158   7
   1  -3   1 12126.9 771.491   2
   1  -3   1 12356.5 962.400   3
  -1   3   0 10561.0 700.643   1
  -1   3   0 13428.8 995.401   4
  -1   3   0 11478.3 642.046   7
   1  -3   0 11031.8 896.802   3
  -1   3   1 72973.9 2609.95   4
  -1   3   1 71187.2 2048.95   8
   1  -3  -1 71286.9 2445.78   3
  -1   3   1 69702.5 2284.32   1
   1  -3  -2 32940.1 1632.61   3
  -1   3   2 34679.2 1740.36   1
  -1   3   2 37082.9 1815.06   4
  -1   3   2 32855.4 1227.86   8
   1  -3  -2 32168.9 1443.20   6
   1  -3  -3 21282.3 1349.13   3
  -1   3   3 20013.8 1347.79   4
   1  -3  -3 21654.3 1263.81   6
  -1   3   3 23353.2 1604.07   1
  -1   3   4 128558. 4541.72   1
   1  -3  -4 118722. 3706.39   6
  -1   3   4 122799. 3789.47   4
   1  -3  -5 111518. 3775.44   6
  -1   3   5 114273. 3624.66   4
   1  -3  -5 111679. 2934.08  12
  -1   3   6 11809.6 1039.95   4
  -1   3   6 11873.3 1466.25   1
   1  -3  -6 13180.4 860.725  12
   1  -3  -6 11281.5 1147.03   6
  -1   3   7 86027.6 3075.37   4
  -1   3   7 89890.9 4391.94   1
   1  -3  -7 81640.3 3547.86   6
  -1   3   8 43633.7 2093.31   4
  -1   3   8 49233.6 3324.11   1
   1  -3  -8 46441.2 2746.39   6
  -1   3   9 6444.00 1262.14   1
   1  -3  -9 7817.06 1171.42   6
  -1   3  10 36087.4 3104.85   1
   1  -3 -10 38718.4 2809.33   6
  -1   3  11 2208.88 833.070   1
   1  -3 -11 3366.78 879.053   6
  -2   4 -13 24530.1 2201.89  12
  -2   4 -12 9914.97 1332.23  12
   2  -4  12 9942.58 1483.61   2
  -2   4 -11 541.018 280.934  12
   2  -4  11 82.6448 168.611   2
  -2   4 -10 61612.6 3182.09  12
   2  -4  10 57548.7 3323.87   2
  -2   4  -9 19687.1 1655.16  12
   2  -4   9 17875.8 1687.61   2
  -2   4  -8 989.806 330.921  12
   2  -4   8 705.453 313.222   2
   2  -4   7 25262.3 1376.72  11
  -2   4  -7 26245.8 1348.10   6
   2  -4   7 23388.4 1713.06   2
  -2   4  -7 24563.6 1701.57  12
   2  -4   6 5430.99 598.235  11
   2  -4   6 6797.74 966.563  10
  -2   4  -6 6572.25 524.534   4
   2  -4   6 6404.49 815.603   2
  -2   4  -6 4686.25 700.319   9
  -2   4  -6 6917.37 575.491   6
  -2   4  -6 5348.74 742.350  12
   2  -4   5 22314.3 876.591   5
  -2   4  -5 23615.9 943.931   6
   2  -4   5 20939.6 1417.73   2
  -2   4  -5 23324.8 1088.72   4
  -2   4  -5 21139.2 1444.18   9
   2  -4   5 23504.3 1673.06  10
  -2   4  -4 2526.50 463.827   9
   2  -4   4 2086.56 293.647   5
   2  -4   4 2508.68 528.500  10
   2  -4   4 1934.69 392.972   2
  -2   4  -4 2227.78 224.070   6
  -2   4  -4 2847.84 391.254   4
   2  -4   3 14576.4 1227.28  10
   2  -4   3 14298.7 988.288   2
  -2   4  -3 15430.0 1097.50   9
  -2   4  -3 15821.5 989.679   4
   2  -4   2 16220.0 1238.88   3
   2  -4   2 15700.7 1241.09  10
  -2   4  -2 16500.2 1076.01   9
   2  -4   2 16413.1 993.741   2
  -2   4  -2 16615.5 646.865   6
  -2   4  -2 17462.8 1103.89   4
   2  -4   1 154143. 4530.78  10
   2  -4   1 157741. 4543.41   3
  -2   4  -1 156210. 4210.97   4
  -2   4  -1 154324. 3903.37   9
   2  -4   1 145628. 3658.79   2
   2  -4   0 17455.9 1320.98   3
   2  -4   0 19836.8 1441.28  10
  -2   4   0 18021.7 1132.58   1
  -2   4   0 21784.4 1390.89   4
   2  -4  -1 136210. 4183.26   3
  -2   4   1 144891. 4226.19   4
   2  -4  -2 3660.36 604.137   3
  -2   4   2 3485.94 557.442   1
   2  -4  -2 3551.02 473.519   6
  -2   4   2 3711.72 586.498   4
   2  -4  -3 66022.7 2829.09   3
   2  -4  -3 63451.8 2445.77   6
  -2   4   3 69024.0 2928.10   1
   2  -4  -4 107465. 3960.75   3
  -2   4   4 114877. 3978.50   4
  -2   4   4 117207. 2765.50   8
   2  -4  -4 113637. 3717.24   6
  -2   4   5 902.474 350.229   4
   2  -4  -5 1232.52 394.528   6
  -2   4   5 1177.63 434.966   1
  -2   4   6 11003.6 1107.93   4
  -2   4   6 10368.8 1358.89   1
   2  -4  -6 11054.2 1192.01   6
  -2   4   7 32561.7 1968.28   4
  -2   4   7 37814.2 2783.96   1
   2  -4  -7 34014.9 2246.99   6
  -2   4   8 11124.6 1129.36   4
  -2   4   8 11908.9 1611.67   1
   2  -4  -8 11182.5 1356.57   6
  -2   4   9 27584.4 2583.68   1
   2  -4  -9 28411.4 2313.74   6
  -2   4  10 93.2394 176.984   1
   2  -4 -10-136.725 116.999   6
   2  -4 -11 27389.7 2544.80   6
  -2   4  11 30868.8 2954.50   1
  -3   5 -11 463.930 332.095  12
   3  -5  11 1340.94 525.782   2
   3  -5  10 8630.12 1285.06   2
  -3   5 -10 10649.5 1360.63  12
  -3   5  -9 4631.49 867.479  12
   3  -5   9 3686.30 781.598   2
  -3   5  -8 1528.89 473.757  12
   3  -5   8 2611.05 635.368   2
   3  -5   7 79722.8 3929.29  10
   3  -5   7 77642.9 3434.41   2
  -3   5  -7 79640.0 3508.19  12
   3  -5   7 80865.4 3033.65  11
   3  -5   6 21777.1 1458.63  11
   3  -5   6 23322.4 1680.87   2
  -3   5  -6 21378.5 1657.48  12
  -3   5  -6 23750.9 1278.14   4
   3  -5   6 23132.6 1939.49  10
   3  -5   5-15.0623 94.0529   2
   3  -5   5 60.4137 192.435  10
  -3   5  -5 65.0740 72.0415   4
  -3   5  -5-51.7404 98.2831  12
  -3   5  -4 102852. 3238.75   4
  -3   5  -4 107967. 3712.32   9
   3  -5   4 108759. 3511.57   2
   3  -5   4 106912. 4228.63  10
   3  -5   3 20059.6 1662.09  10
  -3   5  -3 19885.3 1306.80   4
   3  -5   3 19345.4 1253.28   2
  -3   5  -3 20508.9 1393.47   9
   3  -5   2 2297.09 551.976  10
  -3   5  -2 2075.21 440.722   9
  -3   5  -2 2420.98 473.366   4
   3  -5   2 2706.40 433.376   2
   3  -5   2 2639.35 535.815   3
   3  -5   1 16590.3 1002.20   2
   3  -5   1 19187.6 1578.12  10
   3  -5   1 16704.4 1405.34   3
  -3   5  -1 16218.9 1095.49   9
  -3   5  -1 17183.8 1319.98   4
   3  -5   0 29485.5 1940.31   3
  -3   5   0 32551.4 1922.19   4
   3  -5   0 30578.9 2054.53  10
  -3   5   0 31001.7 1448.91   9
   3  -5  -1 363.726 234.919   3
   3  -5  -1 214.620 192.166  10
  -3   5   1 291.619 246.890   1
  -3   5   1 345.929 138.005   9
  -3   5   1 254.432 239.780   4
  -3   5   2 34847.5 1238.36   9
   3  -5  -2 32273.5 2098.55   3
  -3   5   2 35643.2 2167.47   4
  -3   5   2 33661.7 2004.76   1
   3  -5  -2 32525.0 1592.74   6
  -3   5   3 19652.6 1613.65   4
   3  -5  -3 17279.7 1535.90   3
   3  -5  -3 15853.6 1192.06   6
  -3   5   3 18496.0 1537.95   1
   3  -5  -4 715.238 364.223   3
  -3   5   4 229.567 134.606   1
  -3   5   4 824.951 336.895   4
   3  -5  -4 575.298 258.930   6
  -3   5   5 71818.2 3287.63   4
   3  -5  -5 62323.4 3286.96   3
   3  -5  -5 68262.5 3005.93   6
  -3   5   5 69162.9 3475.22   1
   3  -5  -6 9232.32 1262.34   3
  -3   5   6 9494.08 1310.42   1
  -3   5   6 8886.73 1107.13   4
   3  -5  -6 10110.7 1169.01   6
   3  -5  -7 383.191 211.316   3
  -3   5   7 64.0210 113.739   1
  -3   5   7 437.790 310.048   4
   3  -5  -7-45.3192 189.371   6
   3  -5  -8 13148.8 1665.86   3
  -3   5   8 13539.4 1400.31   4
   3  -5  -8 12300.1 1463.60   6
  -3   5   8 13090.9 1734.52   1
  -3   5   9 8099.26 1401.74   1
   3  -5  -9 7460.50 1344.71   3
   3  -5  -9 8194.28 1239.90   6
   3  -5 -10 3346.61 932.449   3
  -3   5  10 4103.06 1031.68   1
   3  -5 -10 2393.00 739.957   6
   4  -6  10 18670.1 1993.39   2
  -4   6 -10 18748.0 1977.68  12
   4  -6   9 12117.3 1518.53   2
  -4   6  -9 11038.6 1457.39  12
   4  -6   8 19098.5 1805.10   2
  -4   6  -8 18594.6 1828.46  12
   4  -6   7 455.029 301.631  11
   4  -6   7 774.002 468.336  10
  -4   6  -7 1209.32 432.445  12
   4  -6   7 181.467 151.308   2
   4  -6   6 1903.49 507.063   2
   4  -6   6 1323.03 427.024  11
   4  -6   6 1703.74 622.310  10
  -4   6  -6 1849.24 536.146  12
   4  -6   5 1486.49 532.299  10
   4  -6   5 1902.98 479.574   2
  -4   6  -5 2561.80 502.263   4
  -4   6  -5 2395.43 592.338  12
  -4   6  -4 11097.3 1075.33   4
  -4   6  -4 11131.8 1223.77  12
   4  -6   4 11021.0 1423.16  10
   4  -6   4 13813.3 1187.13   2
   4  -6   3 6921.46 1091.29  10
  -4   6  -3 7036.88 879.662   4
   4  -6   3 9017.21 907.992   2
  -4   6  -3 9317.41 1075.26  12
  -4   6  -2 5653.03 827.919   4
   4  -6   2 3941.58 792.667  10
   4  -6   2 5084.18 820.195   3
  -4   6  -2 5146.18 760.090  12
   4  -6   1 24179.9 1990.25  10
  -4   6  -1 24523.3 1809.69   4
   4  -6   1 24458.5 1854.59   3
  -4   6   0 91096.4 3785.09   4
   4  -6   0 86186.0 3765.96   3
   4  -6   0 83968.1 3940.38  10
  -4   6   1 48274.1 2773.89   4
   4  -6  -1 47891.4 2913.15  10
   4  -6  -1 48121.1 2808.31   3
   4  -6  -2 4585.19 922.685  10
  -4   6   2 3914.42 756.570   1
   4  -6  -2 3283.52 734.049   3
  -4   6   2 4591.28 859.300   4
   4  -6  -3 70901.8 3676.28   3
  -4   6   3 72610.4 3464.30   1
  -4   6   3 77603.3 3735.47   4
  -4   6   4 82343.2 3924.20   4
   4  -6  -4 81914.9 4024.21   3
  -4   6   4 75447.5 3713.29   1
   4  -6  -4 78855.7 3175.13   6
  -4   6   5 12924.0 1486.91   4
   4  -6  -5 10800.0 1180.70   6
  -4   6   5 11188.4 1416.58   1
   4  -6  -5 10412.4 1425.43   3
  -4   6   6 38040.7 2628.53   4
   4  -6  -6 35958.4 2346.05   6
  -4   6   6 34455.9 2662.49   1
   4  -6  -6 37918.4 2842.74   3
   4  -6  -7 3466.37 848.347   3
  -4   6   7 2609.75 692.413   4
   4  -6  -7 2487.78 640.458   6
  -4   6   7 2775.36 776.474   1
   4  -6  -8 31680.7 2465.86   6
  -4   6   8 27702.5 2262.81   4
  -4   6   8 34596.5 2890.80   1
   4  -6  -8 32987.6 2872.17   3
   4  -6  -9 6204.74 1274.00   3
  -4   6   9 7292.23 1157.66   4
  -4   6   9 8344.70 1444.83   1
   4  -6  -9 7361.08 1228.59   6
  -5   7  -8 28568.2 2489.75  12
   5  -7   8 27316.1 2745.84  10
   5  -7   7 1498.24 640.309  10
  -5   7  -7 1781.39 602.146  12
  -5   7  -6 4543.03 925.109  12
   5  -7   6 3338.44 722.060  11
   5  -7   6 5042.82 1132.37  10
   5  -7   5 79905.8 4432.44  10
  -5   7  -5 77287.7 3374.13   4
  -5   7  -5 78541.5 3889.73  12
   5  -7   4 19164.6 2041.36  10
  -5   7  -4 16477.2 1508.99   4
  -5   7  -4 16274.9 1643.87  12
   5  -7   3 14418.7 1741.73  10
  -5   7  -3 13879.4 1411.88   4
  -5   7  -3 13670.3 1460.92  12
   5  -7   2 22367.0 1907.03   3
   5  -7   2 22695.6 2166.34  10
  -5   7  -2 26129.5 2007.96   4
  -5   7  -2 25884.1 1957.02  12
   5  -7   1 43810.3 2991.45  10
  -5   7  -1 46433.6 2811.44   4
   5  -7   1 44599.7 2737.49   3
  -5   7  -1 47288.9 2599.67  12
  -5   7   0 46884.9 2940.55   4
   5  -7   0 40259.3 2865.14  10
   5  -7   0 41114.7 2685.25   3
  -5   7   0 43702.6 2367.95  12
   5  -7  -1 3929.74 849.794   3
  -5   7   1 5677.52 1065.79   4
   5  -7  -1 4632.36 935.505  10
   5  -7  -2 27069.8 2391.24  10
  -5   7   2 27372.0 2352.56   4
   5  -7  -2 26763.4 2319.26   3
   5  -7  -3 28843.1 2471.92   3
   5  -7  -3 25993.1 2425.27  10
   5  -7  -4 25219.9 2383.85   3
   5  -7  -4 24665.4 2410.84  10
  -5   7   4 23844.8 2273.38   4
  -5   7   4 21427.6 2002.69   1
  -5   7   5 6256.80 1118.47   1
   5  -7  -5 9372.46 1460.21   3
  -5   7   5 8517.76 1353.59   4
   5  -7  -6 7189.95 1336.36   3
  -5   7   6 5907.73 1129.78   1
  -5   7   6 7186.81 1260.21   4
  -5   7   7 25791.2 2383.24   4
  -5   7   7 23242.2 2340.18   1
   5  -7  -7 27319.1 2707.79   3
  -5   7   8-45.3671 323.020   4
  -6   8  -6 13228.0 1800.83  12
   6  -8   5 20490.4 2054.72  11
   6  -8   5 24738.2 2560.66  10
   6  -8   4 20726.7 2315.05  10
  -6   8  -4 19115.2 1859.21   4
  -6   8  -4 24220.9 2289.78  12
   6  -8   3 20477.7 2236.58  10
  -6   8  -3 20681.5 2045.73  12
  -6   8  -3 20581.4 1976.51   4
  -6   8  -2 70472.4 3727.40  12
   6  -8   2 65234.6 4069.12  10
  -6   8  -2 64433.3 3722.40   4
   6  -8   1 2078.06 676.542  10
  -6   8  -1 3603.78 911.799   4
   6  -8   0 35510.6 2900.20  10
  -6   8   0 40271.5 3052.58   4
  -6   8   1 52674.9 3614.57   4
   6  -8  -1 46657.4 3110.36   3
   6  -8  -1 50990.0 3522.56  10
  -6   8   2 1037.81 592.351   4
   6  -8  -2 738.367 424.573  10
   6  -8  -2 440.290 285.982   3
   6  -8  -3 7968.41 1387.46  10
  -6   8   3 11090.3 1705.04   4
   6  -8  -3 7602.86 1322.39   3
   6  -8  -4 3027.47 941.442  10
  -6   8   4 1218.86 621.785   4
   6  -8  -4 2336.33 861.961   3
   6  -8  -5-343.935 314.099   3
   9  -6  -2 5771.60 1250.71  10
   9  -6  -1 19188.8 2287.87  10
  -9   6   0 39027.5 2794.91   4
   9  -6   0 36233.9 3181.38  10
  -9   6  -1 11088.9 1464.07   4
  -9   6  -3 35021.1 2637.29  12
  -8   5   8 689.985 390.444   4
   8  -5  -7 5850.81 1284.50  10
  -8   5   7 5395.64 1012.13   4
   8  -5  -6 29718.3 2810.56  10
  -8   5   6 35190.0 2571.98   4
  -8   5   5 2511.08 667.402   4
   8  -5  -5 1375.81 570.014  10
   8  -5  -4 3205.25 939.299  10
  -8   5   4 4062.71 861.604   4
  -8   5   3 22493.4 1968.69   4
   8  -5  -3 18364.8 2113.27  10
  -8   5   2 6924.34 1071.80   4
   8  -5  -2 4969.31 1046.19  10
   8  -5  -1 2476.33 721.708  10
  -8   5   1 1494.49 502.598   4
   8  -5   0 391.466 369.459  11
  -8   5   0 594.485 336.914   4
   8  -5   0 719.058 402.854  10
   8  -5   1 84.8063 138.069  10
   8  -5   1 267.970 250.822  11
  -8   5  -1 280.096 354.907   4
  -8   5  -1 44.6823 113.399  12
  -8   5  -2-55.6920 94.2644  12
   8  -5   2 273.235 358.506  11
   8  -5   2 566.751 392.722  10
  -8   5  -2 174.745 261.283   4
   8  -5   3 6506.74 1123.96  11
   8  -5   3 7488.34 1328.53  10
  -8   5  -3 6444.87 1029.11  12
  -8   5  -3 7613.02 1094.25   4
   8  -5   4 10278.6 1455.52  11
   8  -5   4 9914.45 1531.45  10
  -8   5  -4 7864.59 1190.82  12
  -8   5  -5 3402.50 822.906  12
   8  -5   5 2862.02 764.305  11
   8  -5   5 3450.32 933.544  10
   7  -4 -10 6006.95 1098.36   6
  -7   4   9 455.557 312.256   4
  -7   4   9 31.4499 150.801   1
   7  -4  -9 475.252 290.993   6
   7  -4  -8 795.870 429.098   6
  -7   4   8 477.449 270.865   4
   7  -4  -7-110.048 142.363   3
  -7   4   7 162.613 216.961   4
   7  -4  -7-48.8826 116.307   6
   7  -4  -6 22234.1 1831.87   3
  -7   4   6 19718.9 1775.60   4
   7  -4  -6 21000.1 1629.25   6
   7  -4  -5 9754.28 1496.52  10
  -7   4   5 11053.7 1313.56   4
   7  -4  -5 11299.7 1203.24   3
   7  -4  -4 26012.3 2367.29  10
  -7   4   4 26491.1 1999.11   4
   7  -4  -3 34201.2 2688.42  10
  -7   4   3 39171.2 2428.27   4
  -7   4   2 23565.6 1836.69   4
   7  -4  -2 20704.4 2019.28  10
  -7   4   1 186728. 5110.31  12
  -7   4   1 191057. 5878.24   4
   7  -4   0 17723.6 1812.41  10
  -7   4   0 18827.7 1626.13   4
  -7   4   0 20405.0 1494.99  12
   7  -4   1 38381.5 2703.45  10
  -7   4  -1 38898.4 2332.73   4
  -7   4  -1 37471.7 2183.33  12
   7  -4   1 34689.4 2411.39  11
   7  -4   2 98314.0 4312.16  11
  -7   4  -2 102262. 3960.52   4
  -7   4  -2 104188. 4024.38  12
   7  -4   2 103924. 4664.77  10
  -7   4  -3 7803.12 1009.00   4
  -7   4  -3 9139.58 1151.69  12
   7  -4   3 8368.88 1253.43  10
   7  -4   3 7778.88 1130.96  11
   7  -4   4 9704.01 1387.82  10
   7  -4   4 13431.5 1524.44  11
  -7   4  -4 11061.7 1331.30  12
   7  -4   5 50200.8 3361.46  10
   7  -4   5 56304.2 3303.51  11
  -7   4  -5 50504.7 3061.58  12
   7  -4   6 8066.83 1259.32  11
   7  -4   6 8056.77 1161.13   2
  -7   4  -6 7240.52 1196.67  12
   7  -4   7 1112.39 480.740  11
  -7   4  -7 1476.27 523.810  12
   7  -4   7 942.195 364.514   2
   7  -4   8 10184.6 1440.32   2
   7  -4   8 9698.03 1481.76  11
  -6   3  11 3059.84 978.066   1
   6  -3 -11 2534.77 724.968   6
  -6   3  10 10229.1 1770.87   1
   6  -3 -10 11722.3 1479.46   6
  -6   3   9 6558.51 924.570   4
  -6   3   9 5161.16 1187.74   1
   6  -3  -9 6141.08 1000.88   6
  -6   3   8 7143.54 1299.30   1
   6  -3  -8 6708.84 1002.26   6
  -6   3   8 6783.43 936.665   4
  -6   3   7 89931.6 4568.51   1
  -6   3   7 91812.7 3670.01   4
   6  -3  -7 88448.6 3679.67   6
  -6   3   6 168.228 173.985   4
   6  -3  -6 584.018 257.239   6
  -6   3   5 18166.7 1525.26   4
   6  -3  -5 17106.9 1344.06   6
  -6   3   4 111722. 4053.82   4
   6  -3  -4 113750. 3650.38   6
   6  -3  -3 2804.72 462.981   3
  -6   3   3 2927.23 402.764  12
   6  -3  -3 2946.11 476.918   6
   6  -3  -3 3470.51 776.934  10
  -6   3   3 2414.37 531.655   4
  -6   3   2 22865.2 1646.87   4
   6  -3  -2 20829.4 1200.41   6
   6  -3  -2 22088.2 1263.61   3
  -6   3   2 21054.2 1228.24  12
   6  -3  -2 19016.1 1742.57  10
  -6   3   1 40745.2 2201.56   4
  -6   3   1 43112.5 1931.45  12
   6  -3  -1 38151.9 2455.64  10
  -6   3   0 19792.5 1488.94   4
  -6   3   0 21476.6 1420.31  12
   6  -3   0 19873.2 1689.98  10
   6  -3   1 4061.77 750.518  10
   6  -3   1 2707.95 580.829  11
  -6   3  -1 3223.93 592.242   4
  -6   3  -1 2392.61 488.163  12
   6  -3   2 1581.86 477.839  10
   6  -3   2 1535.13 433.998  11
  -6   3  -2 1974.21 462.464   4
  -6   3  -2 1653.20 429.720  12
  -6   3  -3 36889.8 2024.75   4
   6  -3   3 39019.6 2478.52  10
   6  -3   3 35540.6 2273.02  11
  -6   3  -3 36204.3 2203.44  12
   6  -3   4 884.494 376.362  11
   6  -3   4 1786.56 584.886  10
  -6   3  -4 1297.70 448.769  12
   6  -3   5 9848.09 1315.30  10
  -6   3  -5 10912.8 1299.76  12
   6  -3   5 10904.2 1299.27  11
  -6   3  -6 6173.79 1034.55  12
   6  -3   6 5964.85 986.295  11
  -6   3  -7 1900.60 587.882  12
   6  -3   7 2342.25 671.768  11
   6  -3   8 1194.40 543.264  11
  -6   3  -8 845.039 402.576  12
   6  -3   9 1160.82 490.808   2
   6  -3   9 1460.77 572.571  11
  -5   2  12-49.8656 145.402   1
   5  -2 -12 606.524 357.051   6
  -5   2  11 3836.87 1026.36   1
   5  -2 -11 2892.59 740.369   6
   5  -2 -10 18732.0 1816.42   6
  -5   2  10 17983.7 2142.86   1
   5  -2  -9 121.301 76.1701   6
  -5   2   9 262.679 244.577   1
  -5   2   9 24.7401 68.8530   4
  -5   2   8 6074.74 771.828   4
  -5   2   8 6038.24 1069.00   1
   5  -2  -8 5582.43 878.904   6
  -5   2   7-110.651 215.669   1
   5  -2  -7 215.290 100.770   6
  -5   2   7 59.9207 129.022   4
  -5   2   6 20880.0 1793.49   1
   5  -2  -6 19373.8 1465.69   6
  -5   2   6 21580.1 1466.85   4
   5  -2  -6 21754.6 1185.65   7
  -5   2   6 19674.1 1548.15   5
  -5   2   5 42643.3 2089.44   4
  -5   2   5 38680.0 2093.24   5
   5  -2  -5 37886.9 1760.78   7
   5  -2  -5 40439.0 2035.78   6
  -5   2   5 39751.3 2367.52   1
   5  -2  -4 33316.4 1204.10   8
  -5   2   4 31716.2 1784.24   4
  -5   2   4 34087.4 1209.32  12
  -5   2   4 32092.1 1803.09   5
   5  -2  -4 34062.1 1755.21   6
  -5   2   3 56626.5 1841.52  12
  -5   2   3 57585.2 2362.48   5
  -5   2   3 57721.3 2429.59   4
   5  -2  -2 28054.7 1222.18   3
  -5   2   2 29045.1 1516.14   5
   5  -2  -2 27174.4 1881.38  10
  -5   2   2 28159.8 1618.07   4
  -5   2   2 27852.2 1305.45  12
   5  -2  -1 14813.7 779.323   3
   5  -2  -1 12040.9 1178.79  10
  -5   2   1 13375.0 1090.28   4
  -5   2   1 14468.3 976.855  12
  -5   2   1 14636.5 977.091   5
  -5   2   0 4716.79 592.343  12
   5  -2   0 5011.61 711.750  10
  -5   2   0 4777.40 635.609   4
  -5   2   0 5490.68 543.714   5
   5  -2   0 5252.52 728.382  11
   5  -2   1 24612.2 1608.58  11
   5  -2   1 22005.9 1554.10  10
  -5   2  -1 23940.4 1457.78  12
  -5   2  -1 22267.8 1394.78   4
  -5   2  -1 24349.8 1077.77   5
   5  -2   2 2957.87 565.941  11
  -5   2  -2 3793.88 559.368   4
  -5   2  -2 3055.94 530.948  12
   5  -2   2 3419.89 625.963  10
  -5   2  -2 3216.66 318.915   5
  -5   2  -3 89.0866 161.296  12
   5  -2   3-13.7402 114.682  10
   5  -2   4 76927.2 3261.51  11
   5  -2   4 70755.2 3212.26  10
  -5   2  -4 75988.5 3206.25  12
   5  -2   5 79465.9 3436.23  11
  -5   2  -5 76298.3 3377.84  12
  -5   2  -6 3355.56 714.353  12
   5  -2   6 2284.15 575.736  11
  -5   2  -7 11752.6 1376.40  12
   5  -2   7 14929.3 1522.55  11
   5  -2   8 167893. 6012.18  11
  -5   2  -8 168568. 6022.56  12
  -5   2  -9 11930.4 1497.23  12
   5  -2   9 10918.6 1443.20  11
  -5   2 -10 183.719 227.603  12
  -4   1  13 10997.1 1734.21   1
   4  -1 -13 7159.80 1247.01   6
  -4   1  12 13868.9 1877.11   1
   4  -1 -12 14835.4 1720.40   6
  -4   1  11 8488.47 1375.44   1
   4  -1 -11 8281.62 1202.67   6
  -4   1  10 19454.2 2012.42   1
   4  -1 -10 20376.1 1821.87   6
  -4   1   9 5687.29 644.366   4
  -4   1   9 7194.14 921.277   2
  -4   1   9 5582.74 1014.48   1
   4  -1  -9 5797.95 924.309   6
  -4   1   8 66136.1 2428.01   4
  -4   1   8 72536.5 2955.89   2
   4  -1  -8 64767.6 3063.08   6
  -4   1   8 68066.2 3386.50   1
  -4   1   8 66677.3 3047.41   5
  -4   1   7 7850.89 921.962   5
   4  -1  -7 7808.93 934.348   6
   4  -1  -7 7754.08 547.976   9
  -4   1   7 7320.83 831.171   2
   4  -1  -7 6892.46 694.240   7
  -4   1   7 7635.93 1000.76   1
  -4   1   7 7979.54 758.178   4
  -4   1   6 5559.41 628.261   4
   4  -1  -6 5209.17 421.366   9
  -4   1   6 5503.50 800.840   1
   4  -1  -6 5036.17 588.217   7
  -4   1   6 5473.03 691.055   2
  -4   1   6 5040.40 713.381   5
   4  -1  -6 5597.94 730.083   6
  -4   1   5 345909. 7658.53   5
  -4   1   5 340852. 7159.85   4
   4  -1  -5 332119. 7225.39   7
   4  -1  -5 341434. 7569.70   6
  -4   1   5 314272. 7218.94   2
   4  -1  -5 328193. 5833.77  12
  -4   1   5 343374. 7900.31   1
  -4   1   4 2253.21 458.378   1
   4  -1  -4 2590.93 343.531   8
  -4   1   4 2394.52 398.945   4
  -4   1   4 2146.79 408.988   5
  -4   1   3 44455.6 1869.83   5
  -4   1   3 44263.8 1816.30   4
   4  -1  -3 44188.9 1636.32   8
  -4   1   3 44259.3 1461.29  12
  -4   1   2 283538. 6000.20   5
   4  -1  -2 266069. 6617.40  10
  -4   1   2 278640. 5645.78  12
  -4   1   2 275664. 6079.90   4
   4  -1  -1 213381. 5272.29  10
  -4   1   1 213561. 4737.82   5
  -4   1   1 214712. 5017.34   4
  -4   1   1 218855. 4797.10  12
   4  -1   0 27342.7 1440.49  10
  -4   1   0 25879.4 1293.70  12
  -4   1   0 25730.4 1108.45   5
  -4   1   0 27731.7 1375.40   4
   4  -1   0 25913.8 1431.36  11
  -4   1  -1 27901.4 1060.06   5
  -4   1  -1 27580.2 1382.94   4
   4  -1   1 24645.2 1440.22  11
   4  -1   1 26502.3 1439.46  10
  -4   1  -1 25810.8 1373.49  12
   4  -1   2 158088. 4313.14  10
  -4   1  -2 152286. 3210.34   5
   4  -1   2 154815. 4346.05  11
  -4   1  -2 156382. 4251.20  12
  -4   1  -3 5860.52 367.849   5
   4  -1   3 6012.84 752.690  11
   4  -1   3 6431.92 773.370  10
  -4   1  -3 5743.81 724.593  12
   4  -1   4 615.616 305.723  11
  -4   1  -4 739.657 274.162  12
   4  -1   5 51336.9 2579.40  11
  -4   1  -5 53526.2 2550.31  12
   4  -1   6 10346.5 1161.49  11
  -4   1  -6 9989.44 1112.06  12
   4  -1   7 4684.36 827.384  11
  -4   1  -7 3614.76 693.830  12
  -4   1  -8 14388.2 1453.68  12
   4  -1   8 13667.6 1496.39  11
  -4   1  -9 9213.26 1235.31  12
   4  -1   9 11348.7 1434.60  11
   4  -1  10 346.850 370.992  11
  -4   1 -10 585.719 322.956  12
  -4   1 -11-157.162 182.464  12
  -3   0  14 43330.5 3327.95   1
  -3   0  13 5360.09 1138.44   1
   3   0 -13 4604.02 966.495   6
  -3   0  12 8633.73 1191.92   2
  -3   0  12 8023.54 1306.23   1
   3   0 -12 8261.85 1234.55   6
  -3   0  11 118372. 5051.40   1
   3   0 -11 110818. 4575.69   6
   3   0 -10 437.527 291.659   6
  -3   0  10 127.181 98.3419   1
  -3   0  10 376.748 263.060   2
  -3   0   9 11382.3 1159.05   5
  -3   0   9 10048.3 1062.36   2
  -3   0   9 12698.2 1371.47   1
   3   0  -9 9993.34 1158.93   6
   3   0  -8 202417. 4748.63   9
  -3   0   8 191462. 4341.64   4
  -3   0   8 186345. 5367.48   5
  -3   0   8 190150. 5761.66   1
   3   0  -8 186447. 5581.87   6
   3   0  -8 198020. 4098.12  12
  -3   0   8 189878. 5227.09   2
   3   0  -7 610.326 269.056   6
  -3   0   7 244.993 202.611   5
  -3   0   7 686.163 261.052   1
   3   0  -7 694.783 207.666   9
  -3   0   7 599.707 189.315   4
   3   0  -7 823.941 264.924   7
  -3   0   7 399.842 207.631   2
  -3   0   6 39334.6 1903.67   5
   3   0  -6 39263.0 1510.72   9
   3   0  -6 41403.5 1826.54   7
  -3   0   6 40165.4 1522.77   4
   3   0  -6 38860.3 1964.64   6
  -3   0   6 39496.9 1970.41   1
  -3   0   6 39769.0 1808.77   2
  -3   0   5 66240.7 2059.12   4
  -3   0   5 66904.5 2378.93   2
   3   0  -5 67102.4 2432.11   7
  -3   0   5 63694.4 2382.23   5
  -3   0   5 68414.4 2493.93   1
  -3   0   4 90368.6 2482.62   4
  -3   0   4 88068.4 2825.46   2
   3   0  -4 86361.6 2915.28   7
  -3   0   4 87515.3 2771.19   1
  -3   0   4 84884.5 2686.31   5
  -3   0   3 99.4957 93.7302   2
  -3   0   3-85.2238 82.7795   4
  -3   0   3 211.306 117.760   5
   3   0  -3 23.4360 78.1221   8
  -3   0   2 10063.0 704.410   4
  -3   0   2 10054.0 702.478   5
  -3   0   2 9643.15 619.297  12
   3   0  -2 9741.28 671.616  11
   3   0  -1 136641. 3270.42  10
  -3   0   1 140934. 3303.34  12
   3   0  -1 137808. 3361.92  11
  -3   0   1 136816. 3252.21   5
  -3   0   0 18388.3 880.618   5
   3   0   0 18643.9 1018.15  11
  -3   0   0 18802.3 994.314  12
   3   0   0 18459.3 909.777  10
  -3   0  -1 4626.42 408.909   5
   3   0   1 5725.84 603.168  11
   3   0   1 4960.02 489.726  10
  -3   0  -1 5137.57 545.147  12
   3   0   2 61850.8 2299.13  11
   3   0   2 60758.9 2133.55  10
  -3   0  -2 61407.8 2202.34  12
  -3   0  -2 63556.7 1758.07   5
  -3   0  -2 62291.8 1502.93   3
  -3   0  -3 8597.59 566.088   5
   3   0   3 9051.64 871.664  11
  -3   0  -3 8990.25 824.899  12
  -3   0  -4 56805.7 2330.96  12
   3   0   4 58572.2 2524.01  11
   3   0   5 11467.9 1116.20  11
  -3   0  -5 10873.0 1009.49  12
   3   0   6 12029.0 1213.36  11
  -3   0  -6 11474.1 1107.79  12
  -3   0  -7 50024.1 2536.53  12
   3   0   7 53277.3 2804.43  11
  -3   0  -8 6935.18 950.299  12
   3   0   8 5244.11 892.725  11
   3   0   9 669.066 377.721  11
  -3   0  -9 345.396 221.125  12
  -3   0 -10 36262.3 2457.55  12
   3   0  10 35538.2 2671.50  11
  -3   0 -11-236.861 209.480  12
  -2  -1  14 10621.9 1521.61   2
  -2  -1  13 437.988 236.407   1
   2   1 -13 508.481 310.147   6
  -2  -1  13 51.8337 160.740   2
  -2  -1  12 1657.01 540.300   1
  -2  -1  12 582.142 361.777   2
   2   1 -12 819.802 397.657   6
  -2  -1  11 36.9653 150.473   2
   2   1 -11 54.2414 140.451   6
   2   1 -10 917.078 342.397   6
  -2  -1  10 1647.98 521.081   1
  -2  -1  10 855.742 335.803   2
   2   1  -9 11610.1 898.508  12
  -2  -1   9 13040.8 1251.15   2
  -2  -1   9 12742.8 1137.59   5
   2   1  -9 9734.01 1086.51   6
  -2  -1   9 11211.1 1205.85   1
  -2  -1   8 20619.3 1381.92   5
   2   1  -8 20504.9 1302.75   9
  -2  -1   8 20280.9 1496.84   1
   2   1  -8 18129.8 1415.70   6
  -2  -1   8 18993.7 1422.85   2
   2   1  -8 19841.8 1122.94  12
  -2  -1   7 308.413 172.693   5
   2   1  -7 316.070 159.982   9
   2   1  -7 160.052 132.430   6
   2   1  -7 74.8523 51.5831   7
  -2  -1   7 176.959 201.592   1
  -2  -1   7 128.378 113.776   2
  -2  -1   6 56778.0 2152.62   5
   2   1  -6 57784.4 2053.45   9
  -2  -1   6 54481.9 2204.33   2
   2   1  -6 59244.7 2298.51   7
  -2  -1   6 57886.7 2190.96   1
   2   1  -6 54374.0 1346.21  11
  -2  -1   5 14977.8 976.660   5
  -2  -1   5 14101.0 986.415   2
   2   1  -5 14792.0 1063.77   7
  -2  -1   5 16169.4 963.576   1
  -2  -1   4 50509.8 1813.34   5
   2   1  -4 50738.5 1219.55  11
  -2  -1   4 54134.2 1973.90   2
   2   1  -4 52289.3 2087.14   7
  -2  -1   4 52605.3 1728.90   1
   2   1  -3 15115.6 595.859  11
   2   1  -3 15505.7 994.266   8
  -2  -1   3 17604.0 1076.43   2
   2   1  -3 17194.2 1115.10   7
  -2  -1   3 17155.0 824.622   1
  -2  -1   3 17162.7 926.777   5
  -2  -1   2 62950.1 1892.95   5
   2   1  -2 59926.7 1604.65  11
   2   1  -2 64222.9 2094.57   8
  -2  -1   2 64581.2 2235.29   2
  -2  -1   1 96442.4 2479.71  12
  -2  -1   1 101204. 2537.31   5
   2   1  -1 96764.9 2404.22  11
   2   1  -1 95994.8 1863.79  10
  -2  -1   0 53513.8 1328.98  10
   2   1   0 49393.2 1679.60  11
  -2  -1   0 49417.8 1624.96   5
  -2  -1   0 48898.1 1667.61  12
  -2  -1   0 48000.8 1486.38   3
   2   1   0 54353.3 1551.42   3
  -2  -1  -1 60199.6 1956.71  12
   2   1   1 62542.3 2068.31  11
  -2  -1  -1 56577.5 1698.43   3
  -2  -1  -2 39194.5 1373.61   3
   2   1   2 39961.8 1734.87  11
  -2  -1  -2 37235.9 1567.06  12
   2   1   3 3426.88 525.976  11
  -2  -1  -3 3724.45 480.502  12
   2   1   4 373033. 8367.78  11
  -2  -1  -4 379170. 7975.85  12
   2   1   5 24877.7 1626.82  11
  -2  -1  -5 22186.8 1388.91  12
   2   1   6 4096.70 700.830  11
  -2  -1  -6 2686.52 536.696   6
  -2  -1  -6 3327.61 543.911  12
  -2  -1  -7 51949.3 2641.24   6
   2   1   7 52405.8 2744.23  11
  -2  -1  -7 53964.0 2515.05  12
  -2  -1  -8 4240.85 716.574  12
   2   1   8 4263.19 797.720  11
  -2  -1  -8 2760.27 606.286   6
   2   1   9 24568.4 2103.42  11
  -2  -1  -9 22116.3 1896.98   6
  -2  -1  -9 25318.6 1842.17  12
  -2  -1 -10 82.3479 134.235  12
   2   1  10 161.391 190.265  11
   2   1  11 5316.76 1317.63   1
   1   2 -14 7157.04 1207.96   6
  -1  -2  14 6276.75 1197.00   2
  -1  -2  13 9663.70 1433.64   2
   1   2 -13 11247.4 1439.88   6
  -1  -2  12 71570.7 3664.34   1
  -1  -2  12 67609.3 3715.76   2
   1   2 -12 68995.4 3506.66   6
  -1  -2  11 209.645 199.409   1
   1   2 -11-23.2379 90.4032   6
  -1  -2  11 195.685 242.453   2
   1   2 -11 64.8742 93.1506  12
  -1  -2  10 643.983 345.727   1
   1   2 -10 785.505 279.941  12
   1   2 -10 1015.78 371.299   6
  -1  -2  10 586.564 242.161   5
  -1  -2  10 605.982 316.840   2
   1   2  -9 136855. 4046.09  12
  -1  -2   9 143650. 4123.70   5
   1   2  -9 135539. 4356.53   9
  -1  -2   9 128107. 4635.89   2
  -1  -2   9 137746. 4590.11   1
   1   2  -9 132929. 4416.79   6
   1   2  -8 41434.5 2057.26   9
  -1  -2   8 45525.0 2378.11   2
  -1  -2   8 41037.8 1898.69   5
   1   2  -8 38833.2 2034.99   6
  -1  -2   8 44317.4 2197.24   1
  -1  -2   7 750.495 217.849   5
   1   2  -7 243.479 189.309   9
  -1  -2   7 1061.21 328.701   1
  -1  -2   7 704.889 268.672   2
   1   2  -7 396.007 194.298   6
   1   2  -6 87091.7 1809.19   4
   1   2  -6 89274.2 2919.61   9
  -1  -2   6 83619.4 3027.73   2
   1   2  -6 88246.2 3057.75   7
  -1  -2   6 88007.6 2700.08   1
  -1  -2   6 87651.1 2649.09   5
   1   2  -5 276891. 5063.03   4
  -1  -2   5 274417. 6323.14   2
   1   2  -5 282258. 6457.93   7
  -1  -2   5 279318. 5862.31   5
  -1  -2   5 286493. 5636.07   1
  -1  -2   4 6141.61 539.959   5
   1   2  -4 5103.69 626.691   7
  -1  -2   4 5604.48 395.069   1
  -1  -2   4 5153.13 589.300   2
  -1  -2   3 3153.08 368.398   5
   1   2  -3 3785.07 309.393   1
   1   2  -3 3567.26 502.638   7
  -1  -2   3 3293.05 216.247  11
  -1  -2   3 3479.82 465.484   2
  -1  -2   3 3599.65 240.929   1
   1   2  -2 336909. 5757.63  10
  -1  -2   2 319836. 6459.10   5
  -1  -2   2 334701. 6006.22  11
   1   2  -2 323861. 5652.48   1
   1   2  -2 311932. 6850.64   8
   1   2  -2 315727. 6847.61   7
  -1  -2   2 332334. 6924.45   2
   1   2  -2 314488. 6003.49  11
   1   2  -1 49536.8 1535.82  11
  -1  -2   1 47926.5 1115.38  10
   1   2  -1 53297.4 1864.18   8
  -1  -2   1 49742.7 1797.68   3
   1   2   0 61554.2 1927.00  11
  -1  -2   0 62245.6 2106.70   3
  -1  -2   0 60891.7 1890.59  12
  -1  -2  -1 150771. 3619.07   3
   1   2   1 137389. 3608.35  11
  -1  -2  -1 146550. 3465.70  12
  -1  -2  -2 138193. 3541.25   3
  -1  -2  -2 140158. 3451.90  12
   1   2   2 134683. 3698.74  11
   1   2   3 27973.5 1530.45  11
  -1  -2  -3 28382.7 1344.04  12
   1   2   4 29814.5 1712.95  11
  -1  -2  -4 28648.4 1614.15   6
  -1  -2  -4 30386.9 1466.19  12
   1   2   5 12427.6 1179.25  11
  -1  -2  -5 13166.0 1152.42   6
  -1  -2  -5 14782.7 1046.07  12
   1   2   6 110.509 276.974  11
  -1  -2  -6 582.796 273.428   6
  -1  -2  -6 319.417 165.814  12
  -1  -2  -7 587.052 256.384  12
  -1  -2  -7 244.495 200.711   6
   1   2   7 991.214 431.524  11
  -1  -2  -8 1960.49 447.362  12
  -1  -2  -8 1608.69 478.370   6
   1   2   8 1359.84 633.235   1
   1   2   8 1718.89 489.351  11
  -1  -2  -9 11592.7 1129.23  12
   1   2   9 9960.35 1634.39   1
  -1  -2  -9 11024.6 1360.90   6
   1   2  10 1156.44 618.013   1
  -1  -2 -10 1928.35 602.835   6
  -1  -2 -11 2577.74 760.587   6
   1   2  11 2253.27 892.422   1
   0  -3  13 869.521 439.515   2
   0   3 -13 1776.30 570.764   6
   0  -3  12 9502.84 1396.64   2
   0   3 -12 11213.2 1328.29   6
   0   3 -12 10430.5 1225.69  12
   0   3 -11 638.553 290.958  12
   0  -3  11 199.600 217.331   1
   0   3 -11 491.433 266.329   6
   0  -3  11 165.791 266.414   2
   0  -3  10 14234.1 1414.88   1
   0  -3  10 11340.5 1356.18   2
   0   3 -10 12677.0 1228.18   6
   0   3 -10 12636.6 1215.79  12
   0   3  -9 4513.35 708.886  12
   0  -3   9 4938.49 775.662   1
   0  -3   9 4758.55 580.114   5
   0   3  -9 4403.99 732.636   9
   0   3  -9 3917.91 627.795   6
   0  -3   9 3784.41 739.734   2
   0  -3   8 11663.4 1225.77   2
   0  -3   8 10968.6 1100.11   1
   0   3  -8 10982.5 1112.73   9
   0  -3   8 12102.6 897.866   5
   0   3  -8 12954.8 1079.51   6
   0  -3   7 4974.58 762.066   2
   0  -3   7 4913.38 529.985   5
   0   3  -7 5359.70 710.536   9
   0  -3   7 6388.67 753.568   1
   0  -3   7 5456.54 375.782  11
   0   3  -7 5485.97 656.170   6
   0  -3   6 17506.6 983.447   5
   0  -3   6 18972.0 1168.29   1
   0   3  -6 17964.4 1287.17   9
   0  -3   6 18623.8 1375.04   2
   0  -3   6 19120.6 689.407  11
   0   3  -6 17640.7 1110.68   6
   0   3  -6 16971.0 648.071   4
   0  -3   5 66865.7 2071.26   5
   0  -3   5 69067.7 1619.88  11
   0   3  -5 67931.8 2560.71   9
   0   3  -5 70928.1 1952.31   4
   0  -3   5 66219.0 2569.53   2
   0   3  -5 74107.7 2766.80   7
   0  -3   5 70589.5 2119.57   1
   0  -3   4 104652. 2724.99   5
   0  -3   4 104342. 3008.69  10
   0  -3   4 106568. 3191.16   2
   0  -3   4 98963.0 2270.40   1
   0   3  -4 108876. 3352.21   7
   0  -3   3 4884.41 499.734   5
   0  -3   3 5346.50 527.910  10
   0  -3   3 5275.51 575.113   2
   0   3  -3 4271.25 552.179   7
   0  -3   2 17820.5 1153.90   3
   0  -3   2 19400.7 978.632  10
   0   3  -2 17407.5 1083.16   7
   0  -3   2 18083.0 1104.72   2
   0  -3   1 283795. 5845.60  10
   0   3  -1 286062. 6289.16   8
   0   3  -1 284233. 6031.16   7
   0  -3   1 287967. 6279.00   2
   0   3  -1 284381. 5247.43   1
   0  -3   1 288369. 6517.35   3
   0   3   0 268055. 5903.03   8
   0   3   0 281044. 5737.49   1
   0   3   0 270937. 5628.71   7
   0  -3   0 277116. 6336.84   3
   0   3   1 1419.16 349.979   1
   0  -3  -1 942.438 264.485   3
   0   3   1 913.251 193.365   8
   0   3   2 6415.03 802.941   1
   0  -3  -2 5881.70 674.032   3
   0  -3  -3 423005. 8978.93   3
   0  -3  -3 416698. 8238.05  12
   0   3   3 425237. 9745.90   1
   0  -3  -3 413134. 8824.08   6
   0  -3  -4 79.3652 65.5407  12
   0   3   4 319.556 359.172   1
   0  -3  -4-50.1636 110.670   6
   0  -3  -5 680.645 210.180  12
   0  -3  -5 1138.48 348.794   6
   0   3   5 738.929 354.388   4
   0   3   5 171.099 108.846   1
   0   3   6 52030.4 2514.17   4
   0   3   6 55369.9 3296.80   1
   0  -3  -6 54363.7 2731.84   6
   0  -3  -6 57231.0 2234.70  12
   0  -3  -7 701.628 231.778  12
   0  -3  -7 1271.11 446.890   6
   0   3   7 931.731 344.506   4
   0   3   7 419.531 340.627   1
   0   3   8 2313.96 768.399   1
   0   3   8 2229.35 474.172   4
   0  -3  -8 2862.48 689.060   6
   0   3   9 3288.51 921.236   1
   0  -3  -9 2465.01 697.779   6
   0   3  10 115.711 111.321   1
   0  -3 -10 457.148 373.793   6
   0   3  11 4617.90 1134.30   1
   0  -3 -11 5630.03 1104.20   6
   1  -4  13 22275.5 2312.59   2
  -1   4 -13 19699.1 1907.96  12
  -1   4 -12 107.463 131.815  12
   1  -4  12 305.729 157.154   2
   1  -4  11 335.954 257.171   2
  -1   4 -11 235.812 189.452  12
   1  -4  10 49945.1 3021.15   2
  -1   4 -10 50538.7 2502.15   6
  -1   4 -10 49909.4 2712.81  12
   1  -4   9 25820.6 1865.65   1
   1  -4   9 25129.1 1989.62   2
  -1   4  -9 27639.2 1661.81   6
  -1   4  -9 22279.9 1708.94  12
  -1   4  -8 2122.25 496.556   9
   1  -4   8 2213.28 536.571   2
  -1   4  -8 2036.79 410.087   6
  -1   4  -8 2001.22 485.711  12
   1  -4   7 19192.2 984.630  11
  -1   4  -7 18315.2 1460.73   9
   1  -4   7 18445.3 1511.60   2
   1  -4   7 20067.9 1009.84   5
  -1   4  -7 18920.6 1163.82   6
  -1   4  -6 249342. 4980.38   4
  -1   4  -6 237122. 6330.54   9
   1  -4   6 245869. 5174.41  11
   1  -4   6 241151. 6373.40   2
  -1   4  -6 244357. 5436.89   6
   1  -4   6 253601. 5227.28   5
   1  -4   5 33421.7 1368.88   5
   1  -4   5 35203.8 1934.92  10
  -1   4  -5 34641.6 1378.05   4
  -1   4  -5 33392.7 1853.09   9
   1  -4   5 34015.6 1824.55   2
   1  -4   4 2938.17 402.417   5
   1  -4   4 2741.11 488.664  10
  -1   4  -4 3298.69 440.133   4
   1  -4   4 1905.24 392.940   2
  -1   4  -4 2467.72 485.826   9
  -1   4  -3 468466. 9339.58   4
   1  -4   3 453500. 9282.77   2
   1  -4   3 449468. 9471.75  10
   1  -4   3 449004. 7941.20   1
  -1   4  -2 36750.6 1882.45   4
   1  -4   2 36415.1 1761.91  10
   1  -4   2 36192.4 1927.84   3
  -1   4  -2 36190.8 1733.07   7
   1  -4   2 35794.5 1668.74   2
   1  -4   1 45893.2 2035.58  10
  -1   4  -1 40983.9 2200.43   4
  -1   4  -1 42399.1 1776.20   7
   1  -4   1 48567.1 1920.39   2
  -1   4  -1 46497.3 1552.09   1
   1  -4   1 47026.3 2251.73   3
   1  -4   0 392313. 8492.05   3
  -1   4   0 397540. 7370.62   1
   1  -4  -1 3154.67 567.309   3
  -1   4   1 4106.48 509.113   8
  -1   4   1 3814.08 389.293   7
  -1   4   1 3222.94 471.847   1
  -1   4   1 2655.35 614.299   4
   1  -4  -2 120984. 3969.72   3
  -1   4   2 117906. 3187.80   8
  -1   4   2 121244. 2677.71   7
  -1   4   2 127029. 3803.14   1
  -1   4   3 47953.0 1790.26   8
  -1   4   3 50011.0 2413.67   1
   1  -4  -3 46074.6 2121.15   6
   1  -4  -3 47660.2 2364.39   3
  -1   4   4 2308.97 538.351   1
   1  -4  -4 2114.10 496.964   3
   1  -4  -4 2346.99 474.665   6
  -1   4   4 1499.11 468.345   4
   1  -4  -5 70399.0 3206.04   3
  -1   4   5 66494.0 3067.30   4
  -1   4   5 71042.4 3436.92   1
   1  -4  -5 72605.0 3097.21   6
   1  -4  -6 18758.7 1667.80   3
   1  -4  -6 20005.1 1656.73   6
  -1   4   6 19045.9 1555.90   4
  -1   4   6 17861.1 1764.41   1
  -1   4   7 1837.70 600.053   1
  -1   4   7 3007.72 608.530   4
   1  -4  -7 1957.18 544.423   6
  -1   4   8 24159.4 1771.11   4
  -1   4   8 22563.2 2217.86   1
   1  -4  -8 28109.4 2224.61   6
  -1   4   9 31897.2 2754.83   1
   1  -4  -9 33104.2 2574.92   6
  -1   4  10 5799.91 1217.46   1
   1  -4 -10 6169.00 1151.59   6
   2  -5  12 23297.6 2317.40   2
  -2   5 -12 18426.9 1891.72  12
   2  -5  11 15957.6 1811.28   2
  -2   5 -11 12627.0 1525.70  12
  -2   5 -10 175.745 211.557  12
   2  -5  10-59.3570 189.496   2
   2  -5   9 78293.4 3800.37   2
  -2   5  -9 83011.8 3724.74  12
   2  -5   8 6261.99 956.674   2
  -2   5  -8 6253.85 934.841  12
  -2   5  -7 26278.8 1874.25  12
   2  -5   7 29058.6 1500.28  11
  -2   5  -7 26097.8 1914.21   9
   2  -5   7 25889.8 1862.37   2
   2  -5   6 21290.6 1300.80  11
   2  -5   6 20501.2 1730.16  10
  -2   5  -6 21759.6 1168.57   4
  -2   5  -6 20067.5 1584.23   9
   2  -5   6 22910.8 1644.86   2
   2  -5   5 6726.69 604.545   5
   2  -5   5 6911.27 940.650  10
  -2   5  -5 7562.30 922.606   9
  -2   5  -5 6468.53 663.846   4
   2  -5   5 6356.77 805.521   2
   2  -5   4 67235.4 2337.24   5
   2  -5   4 66600.9 3017.80  10
  -2   5  -4 68807.0 2877.72   9
  -2   5  -4 69341.3 2542.77   4
   2  -5   4 68729.5 2717.25   2
   2  -5   3 1191.16 371.852  10
  -2   5  -3 1886.62 453.813   9
   2  -5   3 1134.33 368.666   3
   2  -5   3 1823.59 398.224   2
  -2   5  -3 1954.58 440.886   4
  -2   5  -2 72194.3 2796.13   9
   2  -5   2 67661.0 2929.02  10
  -2   5  -2 71561.6 2923.75   4
   2  -5   2 67066.2 2494.97   2
   2  -5   2 66802.2 2987.81   3
   2  -5   1 94.8406 109.953  10
   2  -5   1 64.7911 176.432   3
   2  -5   1 1.99847 101.033   2
  -2   5  -1 384.277 260.043   4
   2  -5   0 750.353 272.775  10
  -2   5   0 1224.60 309.844   1
   2  -5   0 1087.52 356.775   3
  -2   5   0 1020.28 359.213   4
   2  -5  -1 20037.1 1641.71   3
  -2   5   1 23470.5 1844.42   4
  -2   5   1 22412.9 1420.58   1
   2  -5  -2 812.826 372.329   3
  -2   5   2 1339.05 371.081   1
  -2   5   2 592.550 266.606   4
   2  -5  -3-73.3251 110.326   3
  -2   5   3 112.472 185.250   4
  -2   5   3 27.1532 156.772   1
  -2   5   4 741.606 345.186   1
   2  -5  -4 1080.40 427.313   3
  -2   5   4 417.888 330.248   4
   2  -5  -4 340.423 220.541   6
  -2   5   5 35176.1 2347.17   4
  -2   5   5 31136.9 2224.52   1
   2  -5  -5 33074.4 2082.73   6
   2  -5  -5 32112.5 2300.61   3
   2  -5  -6 817.832 399.811   3
  -2   5   6 579.246 290.500   4
   2  -5  -6 236.374 170.967   6
  -2   5   6 505.073 323.522   1
   2  -5  -7 2790.51 758.051   3
  -2   5   7 3518.81 737.754   4
   2  -5  -7 2746.57 646.441   6
  -2   5   7 1748.60 609.871   1
   2  -5  -8 5382.26 1058.63   3
  -2   5   8 5772.00 930.322   4
   2  -5  -8 3987.78 872.831   6
  -2   5   8 6059.68 1151.65   1
  -2   5   9 3602.68 906.380   1
   2  -5  -9 5374.24 1124.62   3
   2  -5  -9 4273.12 925.533   6
   2  -5 -10 110.540 169.806   6
  -2   5  10 99.4813 237.514   1
  -3   6 -11 1568.45 600.157  12
   3  -6  11 1079.20 483.588   2
  -3   6 -10 683.968 392.046  12
   3  -6  10 694.348 394.282   2
   3  -6   9 11757.8 1456.93   2
  -3   6  -9 14411.8 1598.22  12
   3  -6   8 14080.6 1500.43   2
  -3   6  -8 13919.7 1537.33  12
   3  -6   7 10628.6 1448.84  10
   3  -6   7 10707.6 1235.64   2
  -3   6  -7 13124.3 1430.55  12
   3  -6   6 41981.0 2767.36  10
  -3   6  -6 40130.0 1900.35   4
   3  -6   6 39212.5 2325.39   2
  -3   6  -6 40464.6 2512.77  12
   3  -6   5 1112.32 352.011   2
   3  -6   5 2104.39 601.619  10
  -3   6  -5 1964.12 535.694   9
  -3   6  -5 2292.48 468.484   4
   3  -6   4 80264.3 3755.51  10
  -3   6  -4 81781.5 3463.01   9
  -3   6  -4 85337.6 3223.00   4
   3  -6   4 82827.9 3239.74   2
   3  -6   3 56846.6 3042.87  10
   3  -6   3 59262.6 2554.87   2
  -3   6  -3 61210.6 2854.57   9
  -3   6  -3 59687.0 2754.41   4
  -3   6  -2 12687.1 1180.25   9
  -3   6  -2 13597.5 1332.60   4
   3  -6   2 11852.3 1013.55   2
   3  -6   2 11884.3 1288.77   3
   3  -6   2 12302.4 1330.62  10
   3  -6   1 157104. 5443.70  10
  -3   6  -1 181249. 5057.19   9
  -3   6  -1 175496. 5696.16   4
   3  -6   1 166099. 5541.11   3
  -3   6   0 37621.2 2502.51   4
   3  -6   0 34607.1 2298.48  10
  -3   6   0 40833.6 2005.21   9
   3  -6   0 36537.6 2389.61   3
  -3   6   1 5450.18 756.783   1
   3  -6  -1 5074.60 879.276   3
   3  -6  -1 5225.55 906.022  10
  -3   6   1 7308.61 766.138   9
  -3   6   1 7492.52 1122.37   4
  -3   6   2 4678.99 743.748   1
   3  -6  -2 3048.30 700.378   3
  -3   6   2 4115.46 864.537   4
  -3   6   3 28076.5 2270.04   4
  -3   6   3 25632.4 1874.38   1
   3  -6  -3 29248.5 2276.68   3
   3  -6  -4 5901.66 1042.52   3
  -3   6   4 3576.00 705.881   1
  -3   6   4 5174.30 979.157   4
  -3   6   5 29106.2 2327.66   4
   3  -6  -5 28776.6 2019.10   6
  -3   6   5 28697.6 2173.64   1
   3  -6  -5 26918.4 2308.09   3
   3  -6  -6 1129.88 451.060   3
  -3   6   6 701.188 311.499   1
  -3   6   6 1829.49 619.179   4
   3  -6  -6 1208.98 446.226   6
   3  -6  -7 853.008 402.795   3
  -3   6   7 854.201 403.973   4
   3  -6  -7 1270.85 462.986   6
  -3   6   7-122.359 177.734   1
  -3   6   8 84553.0 4151.84   4
   3  -6  -8 87569.6 4315.57   6
  -3   6   8 88731.1 4599.66   1
   3  -6  -8 89347.1 4875.08   3
  -3   6   9 1930.35 702.554   1
   3  -6  -9 1215.77 550.394   3
   3  -6  -9 1521.34 571.475   6
   4  -7  10 38757.3 2974.14   2
   4  -7   9 25126.8 2260.75   2
  -4   7  -9 26650.4 2418.39  12
   4  -7   8 748.703 558.617  10
   4  -7   8 372.931 248.379   2
  -4   7  -8 195.508 175.882  12
   4  -7   7 47135.1 3366.21  10
   4  -7   7 48971.3 2904.44   2
  -4   7  -7 46479.8 3054.78  12
   4  -7   6 13076.9 1669.47  10
   4  -7   6 12538.9 1378.90   2
  -4   7  -6 13886.5 1579.60  12
   4  -7   5 1448.97 455.856   2
  -4   7  -5 887.145 372.533  12
  -4   7  -5 1168.12 367.634   4
   4  -7   5 2179.63 682.064  10
  -4   7  -4 33570.7 2394.38  12
  -4   7  -4 30299.8 2053.35   4
   4  -7   4 34138.6 2595.73  10
   4  -7   3 270.963 273.520  10
  -4   7  -3 839.621 307.883   4
   4  -7   2 2180.65 593.305   3
   4  -7   2 2265.01 609.878  10
  -4   7  -2 1876.98 547.598   4
   4  -7   1 1132.97 440.661   3
   4  -7   1 358.725 300.670  10
  -4   7  -1 749.174 424.312   4
   4  -7   0 2346.66 634.412   3
   4  -7   0 2707.37 691.729  10
  -4   7   0 3325.30 830.418   4
   4  -7  -1-81.6320 220.649   3
   4  -7  -1 93.6172 131.147  10
  -4   7   2 37685.9 2375.54   1
   4  -7  -2 39666.4 2835.74  10
  -4   7   2 38161.7 2957.02   4
   4  -7  -2 40394.8 2886.17   3
   4  -7  -3 29.2228 237.309   3
   4  -7  -3-122.431 293.347  10
  -4   7   3 239.687 148.415   1
  -4   7   3 492.935 449.994   4
   4  -7  -4 2122.29 723.944   3
  -4   7   4 3984.17 955.782   4
  -4   7   4 2591.72 658.220   1
  -4   7   5 28900.7 2303.60   1
  -4   7   5 34024.1 2795.21   4
   4  -7  -5 33909.8 2865.08   3
   4  -7  -6 4163.86 1025.71   3
  -4   7   6 3074.46 773.448   1
  -4   7   6 2169.46 704.863   4
   4  -7  -7-64.7118 187.866   3
  -4   7   7 226.198 322.132   4
  -4   7   7 87.1994 168.164   1
  -4   7   8 4800.05 1020.99   4
  -4   7   8 4521.11 1049.62   1
  -5   8  -7 1563.72 635.329  12
   5  -8   7 2125.38 798.800  10
  -5   8  -6 102.799 281.770  12
   5  -8   6 451.724 367.274  10
   5  -8   5-18.9072 152.604  10
  -5   8  -5-105.468 148.821   4
  -5   8  -5-47.1614 260.706  12
  -5   8  -4 359.738 274.872  12
  -5   8  -4-134.996 192.247   4
   5  -8   3 383.445 329.687  10
  -5   8  -3 199.921 212.664   4
   5  -8   2 1856.80 574.169   3
  -5   8  -2 2464.51 713.369  12
   5  -8   2 1602.82 572.683  10
  -5   8  -2 1970.13 585.606   4
  -5   8  -1 840.930 461.251   4
   5  -8   1 265.361 130.203  10
   5  -8   1 859.662 392.783   3
  -5   8   0 11279.3 1678.41   4
   5  -8   0 9479.37 1411.53  10
   5  -8   0 11334.0 1474.86   3
   5  -8  -1 409.979 345.040  10
  -5   8   1 1225.98 614.898   4
   5  -8  -1 397.548 289.224   3
   5  -8  -2 138.885 248.750  10
  -5   8   2 587.228 438.313   4
   5  -8  -2 58.5723 90.1190   3
   5  -8  -3 10766.5 1622.78   3
  -5   8   3 11872.4 1809.91   4
   5  -8  -3 8859.73 1462.14  10
   5  -8  -4 336.773 283.758   3
   5  -8  -4 110.373 126.197  10
  -5   8   4 636.007 554.610   4
   5  -8  -5 804.238 495.422   3
   5  -8  -5 336.591 246.353  10
  -5   8   5 321.684 257.750   1
  -5   8   5-252.900 343.377   4
  -5   8   6 1077.79 478.191   1
  -6   9  -4 2545.44 820.645  12
  -6   9  -4 2385.97 724.590   4
  -6   9  -3 2183.04 672.904   4
   6  -9   2 609.302 390.001  10
  -6   9  -2 483.842 380.058   4
   6  -9   1 528.078 364.374  10
  -6   9  -1-462.479 359.590   4
   6  -9   0 3282.80 905.453  10
  -6   9   0 3252.68 922.230   4
   6  -9  -1 21154.1 2195.29   3
   6  -9  -2 52.2619 134.544   3
   6  -9  -3 3538.00 965.484   3
   9  -5  -5 2800.21 826.987  10
   9  -5  -4 263.051 256.116  10
  -9   5   4 46.0537 244.003   4
  -9   5   3 9147.44 1332.65   4
   9  -5  -3 7179.85 1337.88  10
   9  -5  -2-91.3797 313.169  11
   9  -5  -2-9.85454 284.117  10
  -9   5   2 277.316 249.094   4
  -9   5   1 9229.74 1323.09   4
   9  -5  -1 9037.95 1481.77  10
   9  -5  -1 8431.99 1309.36  11
   9  -5   0 4147.74 1004.07  10
   9  -5   0 4878.23 992.361  11
  -9   5   0 4240.41 891.155   4
   9  -5   1 5163.32 1139.68  10
  -9   5  -1 6110.67 1055.24   4
   9  -5   1 6664.98 1202.67  11
   9  -5   2 15243.9 1958.30  10
  -9   5  -2 16698.7 1721.02  12
  -9   5  -3 33768.4 2567.03  12
  -8   4   9 7542.59 1150.82   4
  -8   4   8 19927.4 1883.78   4
   8  -4  -7 23906.2 2521.24  10
  -8   4   7 27682.8 2229.74   4
   8  -4  -6 4711.39 1074.13  10
  -8   4   6 4330.76 851.602   4
   8  -4  -5 15874.4 1938.05  10
  -8   4   5 15454.7 1630.32   4
   8  -4  -4 39245.1 2995.89  10
  -8   4   4 37931.2 2563.75   4
   8  -4  -3 10803.7 1517.75  10
  -8   4   3 14480.7 1537.53   4
   8  -4  -2 4310.61 922.674  10
  -8   4   2 5588.22 944.839   4
   8  -4  -1 36845.5 2597.63  11
   8  -4  -1 38948.0 2835.03  10
  -8   4   1 36993.7 2467.91   4
   8  -4   0 11209.9 1503.36  10
  -8   4   0 11875.3 1360.07   4
  -8   4   0 10961.5 1184.19  12
   8  -4   0 9470.82 1297.90  11
   8  -4   1 1991.25 606.991  11
   8  -4   1 2940.31 774.914  10
  -8   4  -1 2147.34 568.610   4
  -8   4  -1 2985.66 647.719  12
   8  -4   2 24549.6 2168.46  11
   8  -4   2 25945.4 2317.16  10
  -8   4  -2 27526.8 2069.00   4
  -8   4  -2 25856.8 2022.64  12
   8  -4   3 149.778 269.653  11
   8  -4   3 1.04738 211.587  10
  -8   4  -3 775.931 340.481  12
   8  -4   4 4948.24 1062.15  10
   8  -4   4 3449.16 899.844  11
  -8   4  -4 4794.60 945.351  12
   8  -4   5 6829.09 1205.31  11
   8  -4   5 8271.90 1396.88  10
  -8   4  -5 6294.09 1123.85  12
   7  -3 -11 30375.5 2567.95   6
  -7   3  10 6134.15 1334.95   1
   7  -3 -10 6428.38 1113.72   6
  -7   3   9 32685.4 2243.83   4
   7  -3  -9 33341.1 2449.12   6
   7  -3  -8 10348.3 1284.15   6
  -7   3   8 11050.1 1271.82   4
   7  -3  -7 126.338 161.439   6
  -7   3   7 403.784 244.650   4
  -7   3   6 26613.7 1985.40   4
   7  -3  -6 28366.5 1916.61   6
  -7   3   5 9732.86 1181.56   4
   7  -3  -5 6455.79 1181.87  10
   7  -3  -5 8524.21 980.746   6
   7  -3  -4 2971.41 777.458  10
  -7   3   4 2323.91 589.209   4
   7  -3  -4 2192.26 471.863   6
   7  -3  -3 736.779 347.402  10
  -7   3   3 207.814 274.567   4
   7  -3  -3 526.090 256.018   6
   7  -3  -2 1839.32 567.774  10
  -7   3   2 1653.03 481.529   4
  -7   3   2 1847.40 404.025  12
   7  -3  -1 5300.82 872.578  11
   7  -3  -1 5083.65 889.272  10
  -7   3   1 4659.61 775.122   4
  -7   3   1 4643.93 677.570  12
   7  -3   0 15812.1 1543.91  11
   7  -3   0 13580.3 1463.70  10
  -7   3   0 14372.1 1360.79   4
  -7   3   0 14814.2 1292.76  12
   7  -3   1 772.865 311.930  11
  -7   3  -1 1850.35 484.245  12
  -7   3  -1 1239.08 393.170   4
   7  -3   1 957.587 403.471  10
   7  -3   2 2819.26 660.768  11
   7  -3   2 3570.92 768.946  10
  -7   3  -2 2353.60 557.995  12
   7  -3   3 10772.2 1375.16  10
   7  -3   3 10781.1 1347.07  11
  -7   3  -3 11363.3 1296.68  12
   7  -3   4 5367.53 999.655  11
   7  -3   4 5216.23 965.868  10
  -7   3  -4 6837.09 1053.25  12
  -7   3  -5 12662.7 1505.04  12
   7  -3   5 11689.6 1474.86  11
   7  -3   6 9282.67 1339.92  11
  -7   3  -6 8829.26 1312.85  12
   7  -3   7 10411.3 1497.26  11
  -7   3  -7 12671.9 1625.21  12
   7  -3   8 14473.3 1833.93  11
  -6   2  12-287.844 305.295   1
  -6   2  11 8265.11 1489.62   1
   6  -2 -11 8341.14 1298.80   6
   6  -2 -10 20020.5 1926.71   6
  -6   2  10 24203.9 2440.88   1
   6  -2  -9 117.171 193.244   6
  -6   2   9 267.077 253.423   1
  -6   2   9 10.9256 67.1055   4
  -6   2   8 851.911 352.769   1
  -6   2   8 953.587 326.309   4
   6  -2  -8 858.037 378.398   6
  -6   2   7 121.249 132.497   5
  -6   2   7 16.7331 109.673   4
  -6   2   7 331.982 88.1779   1
   6  -2  -7 102.184 145.541   6
  -6   2   6 4451.55 764.938   5
  -6   2   6 4396.66 696.242   4
   6  -2  -6 4102.21 710.554   6
  -6   2   5 44452.9 2360.36   5
  -6   2   5 43362.7 2283.63   4
   6  -2  -5 46154.1 2320.57   7
   6  -2  -5 45023.0 2278.87   6
   6  -2  -4 30290.0 2265.52  10
  -6   2   4 35395.4 1483.83  12
  -6   2   4 33045.7 1945.87   4
  -6   2   4 31706.0 1878.77   5
  -6   2   3 16305.7 1271.11   5
   6  -2  -3 17940.2 1621.69  10
  -6   2   3 17316.0 1371.75   4
  -6   2   3 18515.9 1122.22  12
  -6   2   2 67443.3 2440.99  12
  -6   2   2 64559.5 2524.12   5
  -6   2   2 67914.7 2843.76   4
   6  -2  -2 65264.2 3060.13  10
   6  -2  -1 248040. 6703.84  10
  -6   2   1 236471. 5689.94   5
  -6   2   1 237143. 6279.47   4
   6  -2  -1 250175. 6633.00  11
  -6   2   1 253908. 6004.78  12
   6  -2   0 57414.5 2755.77  11
   6  -2   0 58421.3 2770.45  10
  -6   2   0 53867.6 2494.89   4
  -6   2   0 56947.2 2075.62   5
  -6   2   0 57327.5 2463.66  12
  -6   2  -1 52956.9 2466.11  12
   6  -2   1 50481.7 2636.63  11
   6  -2   1 55010.4 2693.28  10
  -6   2  -1 52528.7 1838.85   5
  -6   2  -1 51583.7 2430.00   4
   6  -2   2 85525.0 3574.22  11
   6  -2   2 87619.1 3573.24  10
  -6   2  -2 81460.7 3336.47  12
   6  -2   3 10269.8 1175.23  10
  -6   2  -3 8829.55 1056.36  12
   6  -2   3 10030.7 1171.93  11
   6  -2   4 369.116 287.779  10
   6  -2   4-42.6469 148.285  11
  -6   2  -4-3.44564 131.618  12
   6  -2   5 7506.93 1091.20  11
  -6   2  -5 7776.03 1099.25  12
   6  -2   6 16344.8 1676.36  11
  -6   2  -6 15189.3 1600.59  12
   6  -2   7 6040.28 1050.66  11
  -6   2  -7 6096.66 1055.81  12
   6  -2   8 15922.5 1826.80  11
  -6   2  -8 17975.1 1908.72  12
   6  -2   9 3015.02 848.271  11
  -5   1  13 2676.96 856.719   1
  -5   1  12 4577.78 1074.84   1
   5  -1 -12 3516.08 831.907   6
   5  -1 -11 20405.6 1957.47   6
  -5   1  11 22821.2 2259.41   1
   5  -1 -10 70056.0 3589.24   6
  -5   1  10 64110.4 3686.32   1
  -5   1   9 4512.01 637.223   4
  -5   1   9 4018.43 833.404   1
  -5   1   9 3998.21 771.374   5
   5  -1  -9 3554.37 741.308   6
  -5   1   8 13089.9 1083.30   4
   5  -1  -8 13069.4 1078.80   7
  -5   1   8 12073.1 1293.83   5
   5  -1  -8 11734.6 1263.09   6
  -5   1   8 13724.2 1445.00   1
  -5   1   7 115303. 4383.00   1
  -5   1   7 116616. 3666.59   4
   5  -1  -7 122351. 3760.65   7
  -5   1   7 114940. 4098.55   2
   5  -1  -7 119947. 4242.26   6
  -5   1   7 116257. 4174.86   5
  -5   1   6 85.8435 173.185   5
   5  -1  -6-6.42227 168.670   6
  -5   1   6 3.61605 167.506   1
  -5   1   6 239.807 167.635   2
  -5   1   6 225.265 181.532   4
   5  -1  -6 297.440 219.754   7
  -5   1   5 8478.36 931.737   5
  -5   1   5 8787.15 865.072   4
   5  -1  -5 10039.9 1027.97   7
  -5   1   4 72689.7 2698.74   4
  -5   1   4 77491.0 2320.59  12
   5  -1  -4 74505.5 2581.30   8
  -5   1   4 71375.1 2786.05   5
  -5   1   3 18279.3 1231.16   5
   5  -1  -3 18080.6 1445.72  10
  -5   1   3 18992.2 1269.73   4
  -5   1   3 20254.4 1105.10  12
   5  -1  -2 147.098 91.1198  11
   5  -1  -2 648.412 253.594  10
  -5   1   2 173.846 198.044   4
  -5   1   2 142.086 135.722   5
  -5   1   2 206.004 148.166  12
  -5   1   1-16.4979 84.2920   5
   5  -1  -1 72.4290 31.5972   3
   5  -1  -1 81.3720 123.968  11
   5  -1  -1 71.3137 83.2367  10
  -5   1   1 132.441 177.234   4
  -5   1   1 38.9514 95.2663  12
  -5   1   0 97.9507 93.9491   5
  -5   1   0 50.3456 155.701   4
   5  -1   0 321.543 169.277  10
   5  -1   0 297.763 226.888  11
  -5   1   0 197.259 175.760  12
   5  -1   1 2372.43 463.418  10
   5  -1   1 2336.17 505.804  11
  -5   1  -1 2527.15 345.859   5
  -5   1  -1 2738.26 481.141  12
   5  -1   2 97962.2 3561.06  11
  -5   1  -2 92921.1 3360.50  12
  -5   1  -2 94816.6 2436.27   5
   5  -1   2 97894.3 3398.64  10
   5  -1   3 2845.44 552.445  10
   5  -1   3 2766.23 598.809  11
  -5   1  -3 1930.26 465.911  12
   5  -1   4 253.080 230.647  11
  -5   1  -4 817.350 335.634  12
   5  -1   5 80344.5 3562.27  11
  -5   1  -5 70609.5 3265.52  12
   5  -1   6 360.418 322.689  11
  -5   1  -6 531.517 299.547  12
   5  -1   7 479.551 330.716  11
  -5   1  -7 343.926 226.543  12
   5  -1   8 10992.9 1447.91  11
  -5   1  -8 11066.7 1400.46  12
   5  -1   9 288.398 249.345  11
  -5   1  -9-40.6442 212.486  12
   5  -1  10-68.4114 156.577  11
  -5   1 -10 311.933 279.286  12
  -4   0  14 139.384 281.677   1
   4   0 -13 16445.0 1860.72   6
  -4   0  13 17930.4 2003.04   1
  -4   0  12 6787.44 1159.22   1
   4   0 -12 8611.47 1273.83   6
  -4   0  11 461.785 260.705   2
   4   0 -11 325.068 205.748   6
  -4   0  11 523.682 334.413   1
  -4   0  10 7460.12 1028.87   2
  -4   0  10 7621.22 1061.86   5
   4   0 -10 7733.51 1095.01   6
  -4   0  10 6425.43 995.237   1
  -4   0   9 27647.5 1921.85   5
  -4   0   9 27779.7 1911.70   2
   4   0  -9 26380.4 1684.52   7
   4   0  -9 26133.1 1983.42   6
  -4   0   9 25995.3 1929.82   1
  -4   0   8 46.0547 111.666   2
  -4   0   8-62.0543 147.676   1
  -4   0   8-48.7714 38.9947   4
   4   0  -8 76.5808 105.630   9
   4   0  -8-13.4390 106.950   7
  -4   0   8 59.9238 86.9498   5
   4   0  -8 120.634 132.199   6
  -4   0   7 17564.2 1112.00   4
  -4   0   7 19143.2 1440.55   5
   4   0  -7 18922.8 1340.44   7
  -4   0   7 19708.1 1496.98   2
  -4   0   7 18514.6 1420.24   1
   4   0  -7 18878.0 1473.40   6
  -4   0   6 24048.7 1547.11   5
  -4   0   6 25149.2 1327.01   4
   4   0  -6 25253.6 1588.98   7
  -4   0   6 24719.1 1655.00   2
  -4   0   6 25251.7 1581.94   1
  -4   0   5 127766. 3486.23   4
  -4   0   5 132227. 3874.09   5
   4   0  -5 125286. 4068.14   7
  -4   0   5 125404. 4063.47   2
  -4   0   5 118876. 3779.52   1
  -4   0   4 212786. 4933.91   4
   4   0  -4 197662. 5071.87   8
  -4   0   4 208197. 5144.54   5
  -4   0   3 2014.67 371.943   4
  -4   0   3 1794.30 348.283   5
   4   0  -3 2196.75 370.838   8
  -4   0   3 1531.11 281.618  12
   4   0  -3 1792.26 316.874  11
   4   0  -2 257127. 5709.69  11
   4   0  -2 249264. 5699.23  10
  -4   0   2 260253. 5605.56  12
  -4   0   2 259917. 5724.74   5
   4   0  -1 113548. 3301.95  11
   4   0  -1 114373. 3070.58  10
  -4   0   1 113896. 3239.16  12
   4   0  -1 116716. 2443.16   3
  -4   0   1 121124. 3176.50   5
  -4   0   0 3669.05 438.380   5
  -4   0   0 3578.70 492.751  12
   4   0   0 4290.21 586.752  11
   4   0   0 3487.76 426.717  10
  -4   0  -1 122103. 3050.45   5
   4   0   1 114981. 3600.12  11
   4   0   1 118389. 3267.08  10
  -4   0  -1 115705. 3490.45  12
  -4   0  -2 15415.3 864.858   5
   4   0   2 16977.7 1254.77  11
   4   0   2 16377.6 1097.60  10
  -4   0  -2 14555.0 1128.17  12
  -4   0  -3 1060.53 177.788   3
   4   0   3 590.747 254.862  11
  -4   0  -3 1115.77 211.053   5
  -4   0  -3 729.892 225.284  12
  -4   0  -4 61723.1 1887.33   3
  -4   0  -4 60635.6 1863.90   5
  -4   0  -4 57301.5 2602.10  12
   4   0   4 60479.9 2814.66  11
   4   0   5 462.244 259.020  11
  -4   0  -5 1428.55 409.733  12
   4   0   6 6616.12 998.948  11
  -4   0  -6 5474.55 834.652  12
   4   0   7 407.401 360.156  11
  -4   0  -7 456.907 299.442  12
   4   0   8 23219.8 2055.34  11
  -4   0  -8 19740.8 1767.81  12
   4   0   9 51592.3 3304.62  11
  -4   0  -9 55538.5 3174.04  12
   4   0  10 1578.85 552.365  11
  -4   0 -10 2286.98 642.370  12
  -4   0 -11 1623.35 565.190  12
  -3  -1  14 1115.34 483.232   2
  -3  -1  13 446.127 323.990   2
  -3  -1  13 497.240 229.881   1
   3   1 -13-12.7068 90.7209   6
  -3  -1  12 2790.57 666.743   2
   3   1 -12 3521.16 798.786   6
  -3  -1  12 3369.69 743.692   1
  -3  -1  11 25070.2 1904.59   5
  -3  -1  11 19707.1 1765.34   2
  -3  -1  11 23130.9 1875.66   1
   3   1 -11 24439.0 2019.00   6
  -3  -1  10 343.999 231.158   5
  -3  -1  10 148.223 161.894   1
   3   1 -10 257.516 167.456   6
   3   1 -10 330.416 177.098   9
  -3  -1  10 68.9755 108.065   2
   3   1  -9 9856.50 934.774   9
  -3  -1   9 9697.82 1064.91   2
  -3  -1   9 9361.46 1029.12   1
   3   1  -9 9889.36 1143.09   6
  -3  -1   9 9195.72 1031.56   5
  -3  -1   8 124145. 4025.04   5
   3   1  -8 123263. 3622.83   9
  -3  -1   8 115138. 3959.74   2
   3   1  -8 119153. 3967.01   7
   3   1  -8 115230. 4150.08   6
  -3  -1   8 116494. 3844.83   1
  -3  -1   7-166.073 126.933   5
  -3  -1   7 33.0647 172.364   2
   3   1  -7 76.6408 184.180   7
  -3  -1   7 44.6489 119.819   1
  -3  -1   6 21203.5 1420.41   2
   3   1  -6 22731.7 1501.30   7
  -3  -1   6 22772.1 1332.92   1
  -3  -1   6 21136.7 1347.51   5
  -3  -1   5 260187. 5748.92   1
   3   1  -5 261368. 4976.26  11
  -3  -1   5 261705. 6303.60   2
   3   1  -5 239568. 6336.66   7
  -3  -1   5 255950. 5953.92   5
  -3  -1   4 2739.20 424.067   5
  -3  -1   4 2417.12 485.171   2
   3   1  -4 3897.64 565.691   8
   3   1  -4 2105.32 469.112   7
   3   1  -4 2295.85 273.890  11
   3   1  -3 14744.2 777.882  11
  -3  -1   3 14516.2 1128.59   2
   3   1  -3 15222.6 1075.48   8
  -3  -1   3 14961.7 978.903   5
  -3  -1   2 29169.4 1348.48   5
   3   1  -2 26550.0 1165.66  11
   3   1  -2 28071.8 1013.21  10
  -3  -1   2 28291.1 1294.73  12
  -3  -1   1 21826.7 1131.53   5
   3   1  -1 20802.5 768.731  10
  -3  -1   1 22161.6 1156.93  12
   3   1  -1 21652.0 1114.31  11
   3   1   0 291.198 142.590  11
  -3  -1   0 237.056 122.208   5
   3   1   0 266.684 104.581  10
  -3  -1   0 262.747 102.737   3
  -3  -1   0 104.284 49.9318  12
  -3  -1  -1 52762.3 1852.40   5
  -3  -1  -1 53043.4 2054.15  12
   3   1   1 53554.1 2136.09  11
  -3  -1  -1 50222.2 1670.01   3
   3   1   2 159.070 221.646  11
  -3  -1  -2 53.3388 110.911   3
  -3  -1  -2 17.5102 76.1520   5
  -3  -1  -2-6.94054 61.0665  12
   3   1   3 30249.4 1769.93  11
  -3  -1  -3 28164.9 1595.02  12
  -3  -1  -3 29223.4 1291.26   3
  -3  -1  -4 107136. 3573.44  12
   3   1   4 108151. 3841.64  11
  -3  -1  -5 283.773 183.013  12
   3   1   5 392.298 352.674  11
   3   1   6 30552.2 2111.89  11
  -3  -1  -6 33447.5 2017.66  12
   3   1   7 39820.2 2557.05  11
  -3  -1  -7 38693.0 2290.62  12
   3   1   8 4591.42 900.104  11
  -3  -1  -8 5007.35 857.932  12
   3   1   9 9887.67 1401.66  11
  -3  -1  -9 9851.36 1237.75  12
   3   1  10 3928.13 1004.74  11
  -3  -1 -10 2694.34 657.621  12
  -2  -2  14 46493.5 3334.37   2
   2   2 -14 50458.2 3311.85   6
  -2  -2  13 4075.88 912.001   2
   2   2 -13 3313.62 784.669   6
  -2  -2  12 3180.06 693.648   1
   2   2 -12 3509.64 792.228   6
  -2  -2  12 3618.25 809.404   2
  -2  -2  11 19676.0 1801.58   2
  -2  -2  11 18394.4 1575.86   1
   2   2 -11 19705.8 1755.64   6
  -2  -2  11 21371.4 1638.01   5
  -2  -2  10 1838.47 454.849   5
   2   2 -10 1095.40 340.717  12
   2   2 -10 1023.80 344.547   9
   2   2 -10 1316.90 419.140   6
  -2  -2  10 1066.04 423.755   2
  -2  -2  10 1121.73 363.421   1
   2   2  -9 5772.90 765.133   9
  -2  -2   9 6305.24 893.996   2
  -2  -2   9 5867.70 744.345   1
   2   2  -9 5237.61 802.899   6
  -2  -2   9 5953.25 792.466   5
  -2  -2   8 152.349 140.779   1
   2   2  -8 201.785 104.118   6
  -2  -2   8 403.501 214.130   5
  -2  -2   8 254.271 184.356   2
   2   2  -8 505.287 214.300   9
   2   2  -8 437.020 183.059   7
   2   2  -7 115447. 3591.49   9
  -2  -2   7 112093. 3813.98   2
   2   2  -7 117424. 3963.95   7
  -2  -2   7 114278. 3538.19   5
  -2  -2   7 114780. 3269.75   1
  -2  -2   6 61572.3 2569.42   2
   2   2  -6 64863.4 2712.46   7
  -2  -2   6 63029.0 2091.02   1
  -2  -2   6 64475.8 2354.71   5
  -2  -2   5 38696.5 1397.78   1
  -2  -2   5 36744.0 1863.49   2
   2   2  -5 35813.0 1937.76   7
  -2  -2   5 36249.1 1647.87   5
  -2  -2   4 99544.2 2921.79   5
   2   2  -4 98600.5 2078.71  11
  -2  -2   4 104420. 3321.88   2
   2   2  -4 102577. 3437.18   7
   2   2  -3 2146.90 250.262  11
  -2  -2   3 2350.81 375.813   5
  -2  -2   3 3421.18 536.292   2
   2   2  -3 1907.30 367.833   8
   2   2  -3 2481.00 457.042   7
   2   2  -3 2549.72 227.237  10
  -2  -2   2 23687.0 1215.22   5
   2   2  -2 23124.6 1330.96   8
   2   2  -2 23581.6 1032.48  11
  -2  -2   1 72182.1 2274.23   3
  -2  -2   1 71686.8 2344.05   5
  -2  -2   1 68254.3 2260.90  12
   2   2  -1 70392.1 2191.09  11
   2   2   0 129262. 3485.04  11
  -2  -2   0 127511. 3454.35   3
  -2  -2   0 132067. 2581.13  10
  -2  -2   0 124232. 3397.60  12
  -2  -2  -1 28029.5 1376.90   3
   2   2   1 25498.0 1419.46  11
  -2  -2  -1 27761.2 1382.09  12
   2   2   2 38821.1 1876.56  11
  -2  -2  -2 36081.3 1679.01  12
  -2  -2  -2 37638.7 1625.13   3
   2   2   3 12395.1 1107.73  11
  -2  -2  -3 14489.6 1060.93  12
  -2  -2  -3 14016.1 998.490   3
  -2  -2  -4 57846.3 2332.72   3
   2   2   4 52913.1 2550.91  11
  -2  -2  -4 56900.3 2344.88  12
   2   2   5 65555.4 3038.23  11
  -2  -2  -5 70594.4 2785.93  12
   2   2   6 4858.99 827.213  11
  -2  -2  -6 3433.19 595.341  12
   2   2   7 52771.9 3000.96  11
  -2  -2  -7 56813.6 2676.21  12
   2   2   8 57512.9 3328.58  11
  -2  -2  -8 53353.5 2722.92  12
   2   2   9 21428.3 2144.97  11
  -2  -2  -9 22403.7 1770.00  12
   2   2  10 21974.5 2309.53  11
   2   2  10 26160.1 2970.37   1
   1   3 -14 606.320 382.963   6
  -1  -3  13 1885.98 631.435   2
   1   3 -13 2195.13 610.123   6
  -1  -3  12 9772.75 1379.81   2
   1   3 -12 10982.2 1333.44   6
   1   3 -12 9164.19 1098.27  12
   1   3 -11 3683.81 667.669  12
  -1  -3  11 3261.50 741.708   2
   1   3 -11 3811.81 742.594   6
   1   3 -10 18.0336 72.8554  12
  -1  -3  10 205.688 143.231   5
   1   3 -10 164.544 142.214   6
   1   3 -10 78.1522 139.993   9
  -1  -3  10 164.616 107.378   1
  -1  -3  10-85.6112 206.218   2
   1   3  -9 93038.2 3599.03   9
  -1  -3   9 88732.5 3821.23   2
  -1  -3   9 93244.2 3159.86   1
   1   3  -9 86220.8 3411.26   6
  -1  -3   9 94077.0 3211.54   5
   1   3  -8 13532.6 1223.17   9
  -1  -3   8 15190.2 1402.27   2
  -1  -3   8 15037.3 1037.09   1
   1   3  -8 15287.4 1248.90   6
  -1  -3   8 13668.8 1057.07   5
  -1  -3   7 1031.87 280.062   5
  -1  -3   7 1762.15 436.029   2
   1   3  -7 1163.07 340.647   9
   1   3  -7 1334.50 374.303   7
  -1  -3   7 1340.08 262.755   1
  -1  -3   6 303372. 7319.88   2
   1   3  -6 295443. 7421.95   7
  -1  -3   6 305638. 5905.58   1
  -1  -3   6 304424. 6569.77   5
  -1  -3   5 8513.41 733.502   5
  -1  -3   5 9272.81 909.423   2
   1   3  -5 7685.57 892.258   7
  -1  -3   5 9312.79 487.935   1
  -1  -3   4 1702.84 388.968   2
  -1  -3   4 2214.96 367.788   5
   1   3  -4 2516.04 481.132   7
  -1  -3   4 2063.74 228.897  11
  -1  -3   3 64142.8 2229.78   5
  -1  -3   3 61802.7 1783.15  10
   1   3  -3 62551.1 2483.73   7
  -1  -3   3 62457.9 2464.99   2
  -1  -3   2 18846.9 1179.17   5
  -1  -3   2 21324.0 833.044  10
   1   3  -2 21489.9 1364.94   8
   1   3  -2 19280.7 1253.53   7
  -1  -3   2 22293.7 1398.24   2
  -1  -3   2 19860.6 1263.80   3
   1   3  -1 10392.9 805.993  11
  -1  -3   1 10863.5 587.264  10
   1   3  -1 10630.3 903.011   8
  -1  -3   1 11253.8 968.415   3
   1   3   0 1057.15 279.221  11
  -1  -3   0 1047.64 310.595   3
   1   3   0 1159.21 287.357   8
  -1  -3  -1 5329.66 654.387   3
   1   3   1 5547.15 658.052  11
  -1  -3  -1 3789.54 493.799  12
   1   3   2 11314.7 1045.28  11
  -1  -3  -2 10963.4 953.594   3
  -1  -3  -2 11391.8 886.606  12
  -1  -3  -3 110198. 3292.05  12
   1   3   3 105459. 3758.47  11
  -1  -3  -3 103217. 3476.38   3
  -1  -3  -4 14959.1 1236.86   3
   1   3   4 14528.0 1354.52  11
  -1  -3  -4 15763.3 1133.60  12
  -1  -3  -5 80653.3 3262.66   3
   1   3   5 78098.7 3494.68  11
  -1  -3  -5 81784.9 2941.46  12
   1   3   6 43034.0 2678.42  11
  -1  -3  -6 46722.8 2204.01  12
   1   3   7 3207.52 837.495   1
   1   3   7 3102.09 711.821  11
   1   3   7 2434.60 542.276   4
  -1  -3  -7 3766.60 623.512  12
   1   3   8 52866.3 3710.94   1
  -1  -3  -8 57059.5 2641.48  12
   1   3   9 27433.5 2765.14   1
   1   3  10 2380.53 905.158   1
   0   4 -13 3842.54 789.494  12
   0  -4  13 5014.28 1070.22   2
   0  -4  12 103871. 4909.27   2
   0   4 -12 101963. 4264.92   6
   0   4 -12 97135.6 4160.92  12
   0   4 -11 1473.62 445.899  12
   0  -4  11 1548.27 540.246   2
   0   4 -11 2268.62 529.582   6
   0   4 -10 10014.2 1220.19   9
   0  -4  10 12168.7 1434.30   2
   0   4 -10 11636.5 1179.84   6
   0   4 -10 11746.7 1243.21  12
   0   4  -9 149879. 5114.00   9
   0  -4   9 142472. 5225.38   2
   0   4  -9 150978. 4621.40   6
   0  -4   9 155696. 4138.91   5
   0  -4   8 836.996 228.940   5
   0  -4   8 1217.52 278.880   1
   0   4  -8 1022.38 362.030   9
   0  -4   8 1148.20 402.708   2
   0   4  -8 1272.14 334.233   6
   0  -4   7 105.797 106.283   1
   0   4  -7 84.4687 72.6433   9
   0   4  -7 55.3089 121.842   6
   0   4  -7 81.0529 49.0718   4
   0  -4   7 93.0019 103.554   5
   0  -4   7-27.4209 158.581   2
   0  -4   6 22623.3 1245.32   5
   0  -4   6 24958.1 889.221  11
   0   4  -6 24459.6 1664.38   9
   0   4  -6 22973.6 1145.92   4
   0  -4   6 25508.0 1710.09   2
   0  -4   6 24910.1 935.142   1
   0  -4   5 5343.68 587.955   5
   0  -4   5 5951.98 703.438  10
   0   4  -5 4638.91 577.819   4
   0  -4   5 4842.41 688.251   2
   0   4  -5 4965.40 739.342   7
   0  -4   4 11723.9 909.411   5
   0  -4   4 12806.3 968.760  10
   0  -4   4 11427.3 1026.42   2
   0   4  -4 11599.7 1075.05   7
   0  -4   3 57397.3 2107.21  10
   0   4  -3 56961.3 2409.55   7
   0  -4   3 57999.1 2404.59   2
   0  -4   2 4952.26 533.631  10
   0   4  -2 3664.60 534.799   7
   0  -4   2 4439.27 618.818   2
   0  -4   2 5062.49 701.576   3
   0  -4   1 55052.1 2038.70  10
   0   4  -1 55902.8 2295.35   8
   0   4  -1 56501.6 2121.27   7
   0   4  -1 55105.0 1615.66   1
   0  -4   1 55012.5 2478.56   3
   0   4   0 88073.4 2953.09   8
   0  -4   0 89599.1 3362.76   3
   0   4   0 90020.2 2694.01   7
   0   4   0 93059.7 2647.41   1
   0  -4  -1 608.301 243.511   3
   0   4   1 815.912 259.259   1
   0   4   1 851.910 253.619   8
   0   4   2 156727. 4184.19   8
   0   4   2 156083. 4647.41   1
   0  -4  -2 155810. 4772.51   3
   0   4   3 7641.54 965.415   1
   0  -4  -3 8012.96 951.007   3
   0   4   4 81.8412 241.307   1
   0  -4  -4-42.7258 163.038   3
   0  -4  -5 36406.7 2262.58   3
   0   4   5 32203.0 2141.19   4
   0   4   5 30647.8 2272.43   1
   0  -4  -6 10674.8 1268.33   3
   0   4   6 9609.69 1171.55   4
   0   4   6 9872.99 1351.77   1
   0  -4  -6 10751.9 1024.65  12
   0   4   7-114.917 233.080   1
   0  -4  -7 276.867 281.208   3
   0   4   7 260.699 236.809   4
   0  -4  -8 8776.07 1257.85   3
   0   4   8 4905.00 1052.44   1
   0   4   8 7075.50 981.210   4
   0  -4  -9 32205.1 2625.01   3
   0   4   9 30341.1 2718.25   1
   0   4  10 947.119 571.170   1
   0  -4 -10 185.605 210.882   3
  -1   5 -13 588.305 333.969  12
   1  -5  12 469.987 292.009   2
  -1   5 -12 1612.73 571.442  12
   1  -5  11 8664.89 1314.40   2
  -1   5 -11 7315.62 1109.30  12
  -1   5 -10 5690.23 935.199  12
   1  -5  10 6654.20 1097.14   2
  -1   5  -9 34630.9 2377.26   9
   1  -5   9 36128.7 2476.09   2
  -1   5  -9 32996.1 2238.06  12
  -1   5  -8 11487.4 1303.50   9
   1  -5   8 10607.3 1244.18   2
  -1   5  -8 9901.29 925.503   6
   1  -5   7 212.300 112.581   5
  -1   5  -7 300.830 266.903   9
   1  -5   7-33.0783 96.1899   2
  -1   5  -7 212.026 134.987   6
   1  -5   6 23715.7 1281.65   5
   1  -5   6 21007.3 1643.25  10
  -1   5  -6 23920.6 1766.37   9
  -1   5  -6 23755.0 1295.43   4
   1  -5   6 22430.9 1669.95   2
   1  -5   5 728.183 229.253   5
   1  -5   5 795.032 353.554  10
  -1   5  -5 1217.09 424.484   9
   1  -5   5 465.982 226.263   2
  -1   5  -5 1141.68 309.961   4
   1  -5   4 1165.07 341.266   2
   1  -5   4 1595.89 364.056   5
   1  -5   4 1074.58 342.563  10
   1  -5   4 1183.75 134.859   1
  -1   5  -4 1201.27 344.692   4
   1  -5   3 854.153 165.818   1
   1  -5   3 1428.94 435.396   3
   1  -5   3 934.126 327.382  10
  -1   5  -3 693.431 269.356   7
  -1   5  -3 910.513 326.081   4
   1  -5   3 1747.94 416.230   2
  -1   5  -2 6782.88 929.944   4
  -1   5  -2 7474.71 836.016   7
   1  -5   2 7820.70 834.351   2
   1  -5   2 9243.79 1047.71   3
   1  -5   2 7999.52 850.857  10
   1  -5   1 4045.54 719.410   3
   1  -5   1 2757.70 519.425  10
  -1   5  -1 2407.59 438.560   7
  -1   5  -1 3019.05 645.858   4
  -1   5  -1 3535.90 413.175   1
   1  -5   0 44773.0 2238.20  10
  -1   5   0 41777.1 2560.72   4
  -1   5   0 48298.4 1876.91   7
  -1   5   0 41385.2 1724.60   1
   1  -5   0 43827.2 2455.27   3
  -1   5   1 402.732 169.325   1
   1  -5  -1 1715.79 494.047   3
  -1   5   1 896.497 210.792   7
  -1   5   1 1724.00 586.543   4
  -1   5   2 11967.2 1397.00   4
  -1   5   2 14441.5 1050.28   8
  -1   5   2 16726.9 840.656   7
  -1   5   2 14617.6 1170.68   1
   1  -5  -2 15672.4 1464.41   3
  -1   5   3 80072.1 2736.04   8
  -1   5   3 86299.2 3309.46   1
   1  -5  -3 83187.2 3627.87   3
  -1   5   4 49712.4 2088.05   8
  -1   5   4 52549.5 2696.83   1
   1  -5  -4 48419.6 2790.19   3
  -1   5   5 35748.9 2351.22   1
   1  -5  -5 35346.5 2434.72   3
  -1   5   6 9885.22 1264.34   4
  -1   5   6 9827.01 1306.64   1
   1  -5  -6 9339.25 1280.70   3
   1  -5  -7 31831.6 2511.11   3
  -1   5   7 35515.9 2448.29   4
  -1   5   7 30223.0 2445.23   1
   1  -5  -8 69102.8 3948.43   3
  -1   5   8 66736.3 3418.45   4
  -1   5   8 56570.8 3578.53   1
   1  -5  -9 1795.92 650.931   3
  -1   5   9 2021.81 700.143   1
   1  -5 -10 15053.6 1991.26   3
  -1   5  10 13927.5 1888.63   1
  -2   6 -11 3097.32 786.223  12
   2  -6  11 4805.51 1009.80   2
   2  -6  10 56633.2 3442.73   2
  -2   6 -10 57660.1 3349.84  12
   2  -6   9 11889.4 1452.57   2
  -2   6  -9 11953.1 1427.04  12
  -2   6  -8 4621.30 862.041  12
  -2   6  -8 6687.26 1067.04   9
   2  -6   8 5585.31 959.744   2
   2  -6   7 10814.5 1346.12  10
  -2   6  -7 11264.0 1359.62   9
   2  -6   7 8400.73 1106.18   2
   2  -6   6 28879.6 2134.93  10
  -2   6  -6 30988.8 1688.67   4
  -2   6  -6 28071.4 2091.30   9
   2  -6   6 30148.3 2052.95   2
   2  -6   5 10272.0 932.978   5
   2  -6   5 11578.3 1283.56  10
  -2   6  -5 10378.0 1229.65   9
  -2   6  -5 11231.8 1067.56   4
   2  -6   5 12359.7 1237.06   2
  -2   6  -4 17625.2 1557.80   9
  -2   6  -4 18440.9 1495.56   4
   2  -6   4 19563.4 1523.68   2
   2  -6   4 17756.8 1549.86  10
   2  -6   3 42388.3 2403.42  10
  -2   6  -3 38873.0 2318.04   9
  -2   6  -3 40470.3 2399.46   4
   2  -6   3 41916.7 2531.93   3
   2  -6   3 44026.3 2231.09   2
   2  -6   2 67950.5 3051.45  10
  -2   6  -2 63229.4 2937.10   9
  -2   6  -2 58257.2 3097.92   4
   2  -6   2 66559.6 2670.52   2
   2  -6   2 71070.0 3339.26   3
   2  -6   1 115981. 4098.72  10
   2  -6   1 114412. 4370.97   3
   2  -6   0 17231.9 1500.18  10
   2  -6   0 17149.8 1626.79   3
  -2   6   0 19208.7 1261.96   1
   2  -6  -1 70301.6 3504.04   3
   2  -6  -1 69301.1 3274.44  10
  -2   6   1 69043.5 2701.02   1
   2  -6  -2 94984.0 4238.49   3
  -2   6   2 101647. 3502.41   1
   2  -6  -3 4680.51 900.445   3
  -2   6   3 4989.24 769.026   1
  -2   6   3 2899.40 767.126   4
  -2   6   4 37773.9 2753.84   4
  -2   6   4 42565.1 2452.17   1
   2  -6  -4 44646.0 2922.11   3
  -2   6   5 11880.1 1529.59   4
  -2   6   5 13540.7 1443.25   1
   2  -6  -5 14548.1 1692.38   3
  -2   6   6 15849.4 1779.82   4
  -2   6   6 13408.4 1532.20   1
   2  -6  -6 18453.5 1975.57   3
  -2   6   7 15721.7 1748.44   4
  -2   6   7 17249.7 1833.98   1
   2  -6  -7 15153.8 1864.60   3
   2  -6  -8 913.778 518.539   3
  -2   6   8 526.815 336.184   4
  -2   6   8 815.517 425.560   1
   2  -6  -9 8797.66 1545.22   3
  -2   6   9 6465.59 1217.28   1
   3  -7  10 3865.92 892.632   2
  -3   7 -10 3482.36 919.152  12
   3  -7   9 1493.42 556.575   2
  -3   7  -9 2746.53 786.287  12
   3  -7   8 76.0736 112.155   2
  -3   7  -8 93.6889 127.926  12
   3  -7   7 38617.8 2835.06  10
   3  -7   7 38595.7 2565.70   2
  -3   7  -7 37660.6 2712.84  12
   3  -7   6 3640.49 746.845   2
   3  -7   6 3700.06 837.030  10
  -3   7  -6 4610.24 906.411   9
  -3   7  -6 3696.76 635.956   4
   3  -7   5 3853.92 732.797   2
   3  -7   5 5288.21 1000.77  10
  -3   7  -5 3703.34 807.398   9
  -3   7  -5 4277.75 742.610   4
   3  -7   4 46094.2 2847.00  10
  -3   7  -4 45127.0 2792.38   9
  -3   7  -4 49704.0 2736.56   4
   3  -7   4 45957.8 2534.94   2
   3  -7   3 12765.1 1444.44  10
  -3   7  -3 13431.4 1433.47   9
  -3   7  -3 14739.1 1528.19   4
   3  -7   3 16026.5 1641.79   3
   3  -7   3 14642.5 1297.95   2
   3  -7   2 7795.92 1093.49  10
  -3   7  -2 7695.83 1067.58   9
  -3   7  -2 8791.07 1260.29   4
   3  -7   2 8399.65 1180.71   3
   3  -7   1 2756.90 672.263   3
   3  -7   1 3427.45 717.127  10
  -3   7  -1 2291.36 550.477   9
  -3   7  -1 3630.57 886.048   4
   3  -7   0 24294.1 2001.42  10
  -3   7   0 23667.3 2282.61   4
   3  -7   0 29745.6 2313.87   3
   3  -7  -1 12533.3 1468.87  10
  -3   7   1 10332.0 1526.15   4
   3  -7  -1 12093.2 1515.66   3
  -3   7   1 13300.7 1223.42   1
   3  -7  -2 26834.6 2345.67   3
   3  -7  -2 22362.5 2064.32  10
  -3   7   2 24808.7 1779.37   1
   3  -7  -3 4914.66 1033.53   3
  -3   7   3 4950.59 1083.48   4
  -3   7   3 5195.24 841.912   1
  -3   7   4 15319.0 1875.40   4
   3  -7  -4 14915.4 1847.06   3
  -3   7   4 14708.5 1484.74   1
  -3   7   5 23473.2 2350.13   4
  -3   7   5 24750.2 2037.31   1
   3  -7  -5 27292.7 2560.70   3
   3  -7  -6 522.786 445.607   3
  -3   7   6 642.004 394.030   1
  -3   7   6 314.981 254.816   4
   3  -7  -7 6562.60 1345.89   3
  -3   7   7 5395.46 1024.76   1
  -3   7   7 5714.02 1137.07   4
  -3   7   8 226.656 236.320   1
  -3   7   8 35.7865 137.938   4
  -4   8  -8-33.0724 123.961  12
   4  -8   8 758.786 547.687  10
   4  -8   7 24527.2 2428.57  10
  -4   8  -7 24961.2 2422.16  12
  -4   8  -6 575.741 387.445  12
   4  -8   6 135.507 175.145  10
   4  -8   5 12121.5 1605.26  10
  -4   8  -5 14178.2 1500.03   4
  -4   8  -5 13209.2 1692.49  12
  -4   8  -4 55199.5 3511.83  12
   4  -8   4 53597.4 3385.56  10
  -4   8  -4 57449.7 3269.65   4
   4  -8   3 1230.27 418.726  10
  -4   8  -3 1845.13 571.060   9
  -4   8  -3 1147.31 469.113   4
   4  -8   2 67433.0 3702.60  10
  -4   8  -2 57681.8 3664.94   4
   4  -8   2 67936.8 3692.02   3
   4  -8   1 38792.0 2745.67  10
  -4   8  -1 33456.7 2830.60   4
   4  -8   1 34167.2 2599.58   3
   4  -8   0 1343.55 503.527   3
   4  -8   0 1388.57 518.750  10
  -4   8   0 1192.25 549.680   4
   4  -8  -1 60098.3 3546.54  10
   4  -8  -1 55803.0 3563.45   3
   4  -8  -2 855.245 474.603   3
   4  -8  -2 432.861 253.720  10
  -4   8   2 851.360 675.230   4
   4  -8  -3 6352.46 1275.49   3
   4  -8  -3 5774.86 1194.70  10
  -4   8   3 4968.39 1176.81   4
   4  -8  -4 49424.7 3610.42  10
  -4   8   4 42160.2 3490.06   4
  -4   8   4 55009.4 3114.62   1
   4  -8  -4 52294.7 3812.61   3
   4  -8  -5 7538.13 1464.88   3
  -4   8   5 7213.79 1157.62   1
  -4   8   5 6907.95 1404.03   4
  -4   8   6 344.711 120.647   1
  -4   8   6 684.430 406.356   4
   5  -9   5 31177.6 2798.68  10
  -5   9  -5 28734.4 2813.63  12
   5  -9   4-146.627 175.389  10
  -5   9  -4 343.211 219.572   4
  -5   9  -4-22.9106 187.860  12
   5  -9   3 27282.9 2547.66  10
  -5   9  -3 29392.8 2627.13   4
  -5   9  -3 28143.8 2675.20  12
   5  -9   2 9579.97 1486.08  10
   5  -9   2 10858.1 1518.57   3
  -5   9  -2 8944.81 1503.78   4
   5  -9   1 1916.29 658.430   3
   5  -9   1 2063.51 655.401  10
  -5   9  -1 1177.21 543.878   4
   5  -9   0 16403.9 1945.60  10
  -5   9   0 11653.9 1852.95   4
   5  -9   0 15673.1 1873.95   3
   5  -9  -1 415.477 312.627   3
   5  -9  -1 258.347 256.494  10
  -5   9   1-55.6285 232.935   4
   5  -9  -2 1061.42 499.292   3
   5  -9  -2 1775.84 687.931  10
  -5   9   2 1754.65 789.439   4
   5  -9  -3 8538.52 1542.55   3
   5  -9  -3 7733.48 1408.38  10
   9  -4  -7 4493.99 1088.59  10
  -9   4   7 3264.12 806.101   4
   9  -4  -6 2173.00 735.033  10
  -9   4   6 2449.12 692.437   4
   9  -4  -5 12594.3 1764.77  10
  -9   4   5 15003.5 1716.39   4
   9  -4  -4 109.594 143.503  11
   9  -4  -4 189.206 299.713  10
  -9   4   4 108.987 199.090   4
   9  -4  -3 55414.2 3360.39  11
   9  -4  -3 49972.0 3431.99  10
  -9   4   3 57365.1 3394.00   4
   9  -4  -2 7187.42 1192.32  11
   9  -4  -2 5521.71 1090.17  10
   9  -4  -1 303.708 251.434  11
   9  -4  -1 396.634 238.169  10
  -9   4   1 658.206 507.099   4
   9  -4   0 73646.8 4149.69  10
  -9   4   0 81703.0 4017.52   4
   9  -4   0 79985.0 4223.06  11
   9  -4   1 460.545 407.932  10
   9  -4   1 357.537 203.918  11
  -9   4  -1-51.3655 111.942  12
   9  -4   2 1321.41 568.271  11
   9  -4   2 1327.72 548.821  10
  -9   4  -2 629.614 335.480  12
   9  -4   3 37017.9 2958.11  10
  -9   4  -3 38563.5 2793.91  12
   8  -3 -10 2945.47 760.706   6
  -8   3   9 47225.5 2897.39   4
   8  -3  -9 46511.0 2958.71   6
  -8   3   8 2944.19 740.450   4
   8  -3  -8 4039.75 803.323   6
   8  -3  -7 487.368 304.708   6
   8  -3  -7-174.421 218.565  10
  -8   3   7 739.437 360.989   4
   8  -3  -6 35448.3 2891.81  10
  -8   3   6 40072.7 2623.90   4
   8  -3  -6 40064.2 2373.45   6
   8  -3  -5 2488.32 732.504  10
  -8   3   5 1922.02 551.333   4
   8  -3  -4 344.830 259.424  10
  -8   3   4-98.6399 140.612   4
   8  -3  -3 10783.6 1322.72  11
   8  -3  -3 9819.24 1344.82  10
  -8   3   3 9049.62 1197.07   4
   8  -3  -2 5396.33 934.539  11
  -8   3   2 5648.38 958.396   4
   8  -3  -2 4683.91 904.269  10
   8  -3  -1 1783.44 559.558  11
   8  -3  -1 1142.70 438.451  10
  -8   3   1 1823.18 548.690   4
  -8   3   1 1891.55 473.907  12
   8  -3   0 6588.72 1065.61  11
  -8   3   0 5064.64 861.755   4
   8  -3   0 5662.41 976.457  10
  -8   3   0 6264.64 909.468  12
   8  -3   1-60.1514 272.510  11
   8  -3   1 324.518 270.690  10
  -8   3  -1 345.594 207.774  12
   8  -3   2 2664.13 721.894  11
   8  -3   2 2532.09 675.586  10
  -8   3  -2 2519.91 620.974  12
   8  -3   3 22364.0 2098.14  10
  -8   3  -3 26766.7 2172.50  12
   8  -3   3 21655.0 2106.18  11
   8  -3   4 8415.55 1343.44  11
   8  -3   4 9345.82 1353.50  10
  -8   3  -4 9563.06 1345.73  12
   8  -3   5 1294.87 545.459  11
  -8   3  -5 1436.61 581.562  12
   7  -2 -11 16354.7 1852.23   6
  -7   2  11 16164.3 2057.14   1
   7  -2 -10 9730.96 1354.70   6
  -7   2   9 1409.22 447.343   4
   7  -2  -9 1342.57 504.081   6
  -7   2   8 32817.0 2152.11   4
   7  -2  -8 32422.2 2299.89   6
  -7   2   7 33.8555 121.372   5
  -7   2   7 216.257 254.399   4
   7  -2  -7 298.232 236.177   6
  -7   2   6 22656.0 1765.51   4
  -7   2   6 20978.7 1728.56   5
   7  -2  -6 23744.1 1788.30   6
   7  -2  -5 18788.2 1869.99  10
  -7   2   5 19081.8 1590.46   4
  -7   2   5 19384.1 1591.63   5
   7  -2  -5 22036.1 1633.17   6
   7  -2  -4 9242.13 1228.04  10
  -7   2   4 12964.2 1294.36   4
  -7   2   4 11158.0 1142.80   5
  -7   2   3 4441.58 681.192   5
   7  -2  -3 7003.75 1022.54  10
  -7   2   3 5474.21 828.169   4
  -7   2   3 6057.71 714.831  12
   7  -2  -3 6256.52 901.712  11
  -7   2   2 127.514 113.748   5
   7  -2  -2 249.577 261.451  11
   7  -2  -2 394.010 259.605  10
  -7   2   2 43.5586 93.6706   4
  -7   2   2 242.008 151.992  12
  -7   2   1 46898.2 2084.62   5
   7  -2  -1 49617.4 2659.00  10
  -7   2   1 44540.1 2455.75   4
   7  -2  -1 46168.7 2620.20  11
  -7   2   1 47781.9 2347.64  12
   7  -2   0 1151.94 412.135  11
   7  -2   0 1278.16 417.324  10
  -7   2   0 1418.59 392.060  12
   7  -2   1 7576.01 1077.02  11
   7  -2   1 9281.45 1129.13  10
  -7   2  -1 9001.89 1077.40  12
   7  -2   2 35266.6 2419.41  11
   7  -2   2 34128.7 2272.79  10
  -7   2  -2 35477.2 2285.13  12
   7  -2   3 58367.0 3100.31  10
   7  -2   3 55419.1 3191.46  11
  -7   2  -3 59095.8 3131.65  12
   7  -2   4 3256.85 753.580  11
  -7   2  -4 2932.74 708.836  12
   7  -2   5 1823.94 614.390  11
  -7   2  -5 1752.73 564.109  12
   7  -2   6 91522.2 4595.17  11
  -7   2  -6 95006.9 4584.42  12
   7  -2   7 628.125 352.866  11
  -7   2  -7-96.4802 184.415  12
  -6   1  12 939.587 493.789   1
   6  -1 -12 545.336 303.459   6
   6  -1 -11 10347.0 1428.21   6
  -6   1  11 8602.63 1363.46   1
  -6   1  10 17199.0 1841.19   1
   6  -1 -10 16279.7 1722.86   6
  -6   1   9 5214.72 748.116   4
  -6   1   9 4271.50 855.103   1
   6  -1  -9 4450.66 846.814   6
  -6   1   9 4435.33 845.957   5
  -6   1   8 1332.19 449.595   5
  -6   1   8 1860.50 468.457   4
   6  -1  -8 2022.00 531.242   6
  -6   1   7 59170.0 2665.87   4
   6  -1  -7 63573.0 2838.16   7
   6  -1  -7 60819.2 3032.77   6
  -6   1   7 59833.0 2998.43   5
  -6   1   6 385.466 236.832   4
  -6   1   6 64.0487 70.2073   5
   6  -1  -6 408.820 265.145   7
  -6   1   5 25.3343 91.8089   5
  -6   1   5-22.3682 72.6645   4
   6  -1  -5-60.7408 85.8748   8
   6  -1  -4 110976. 3732.66  11
  -6   1   4 105249. 3682.60   4
   6  -1  -4 113232. 3672.36   8
  -6   1   4 116110. 3344.62  12
  -6   1   4 112293. 3789.50   5
   6  -1  -3 13351.6 1172.50  11
   6  -1  -3 12972.1 1223.91  10
  -6   1   3 12646.2 1146.53   4
  -6   1   3 14416.7 1062.11  12
  -6   1   3 11991.0 1077.32   5
   6  -1  -2 5273.15 752.003  11
   6  -1  -2 5359.85 733.948  10
  -6   1   2 3999.45 643.401   4
  -6   1   2 4652.05 620.990   5
  -6   1   2 4361.67 594.973  12
   6  -1  -1 5932.16 800.473  11
  -6   1   1 5525.19 710.753  12
   6  -1  -1 4909.14 702.734  10
  -6   1   1 6342.39 689.890   5
   6  -1   0 100818. 3797.30  11
   6  -1   0 108103. 3646.56  10
  -6   1   0 104876. 3641.60  12
  -6   1   0 103607. 3075.96   5
  -6   1  -1 63.8567 79.2581   5
   6  -1   1 584.898 257.124  10
   6  -1   1 261.403 226.206  11
  -6   1  -1 72.4252 135.489  12
  -6   1  -2 840.290 381.141  12
   6  -1   2 377.535 198.395  11
   6  -1   2 1230.92 382.466  10
   6  -1   3 77173.1 3547.66  11
   6  -1   3 81379.1 3386.83  10
  -6   1  -3 76222.7 3415.70  12
   6  -1   4 429.966 324.026  11
  -6   1  -4-87.4059 82.8381  12
   6  -1   5 7948.62 1166.28  11
  -6   1  -5 6570.41 1025.60  12
   6  -1   6 45585.3 2975.26  11
  -6   1  -6 43090.4 2801.15  12
   6  -1   7 1684.12 593.654  11
  -6   1  -7 1926.91 609.917  12
   6  -1   8 544.733 178.707  11
  -6   1  -8 652.347 368.942  12
   6  -1   9 10185.6 1557.16  11
  -5   0  13 45814.2 3205.16   1
   5   0 -13 48922.4 3321.33   6
  -5   0  12 2944.30 758.074   1
   5   0 -12 3086.10 761.162   6
  -5   0  11 10559.8 1350.58   1
   5   0 -11 11089.2 1429.95   6
  -5   0  11 9193.37 1253.15   5
   5   0 -10 58315.2 2788.09   7
  -5   0  10 60844.6 3202.79   5
   5   0 -10 60913.0 3293.99   6
  -5   0  10 60128.8 3200.34   1
  -5   0   9 5093.71 854.040   1
   5   0  -9 7085.80 911.792   7
  -5   0   9 8235.23 1210.56   2
   5   0  -9 5677.67 949.514   6
  -5   0   9 6224.37 957.624   5
  -5   0   8 6564.92 1026.34   2
   5   0  -8 4846.88 736.956   7
  -5   0   8 4526.35 758.921   1
   5   0  -8 5910.49 915.402   6
  -5   0   8 6092.74 891.180   5
   5   0  -7 17229.2 1441.07   7
  -5   0   7 16794.7 1568.86   2
  -5   0   7 15932.5 1405.86   5
  -5   0   7 18899.7 1500.65   1
  -5   0   6 15.2610 102.971   5
  -5   0   6-28.5798 111.755   2
   5   0  -6 87.0765 162.857   7
   5   0  -5 20019.4 1230.04  11
   5   0  -5 21845.3 1444.77   8
   5   0  -5 23064.4 1731.56   7
  -5   0   5 20536.3 1442.28   5
  -5   0   4 1436.12 363.252   5
   5   0  -4 1113.33 277.030  11
   5   0  -4 1369.72 363.267   8
  -5   0   4 971.615 250.627  12
  -5   0   3 1367.42 319.040   5
   5   0  -3 1332.73 309.128  11
   5   0  -3 1304.50 346.333  10
  -5   0   3 1409.37 303.983  12
   5   0  -2 3343.34 528.495  11
   5   0  -2 4034.15 520.378  10
  -5   0   2 3754.29 529.261  12
  -5   0   2 4100.57 576.802   5
  -5   0   1 2228.01 397.682   5
   5   0  -1 1449.68 367.256  11
   5   0  -1 2182.39 371.969  10
  -5   0   1 2571.74 472.605  12
   5   0   0 59407.2 2547.55  11
   5   0   0 60498.1 2239.31  10
  -5   0   0 57334.6 2420.70  12
  -5   0   0 62921.5 2251.44   5
   5   0   1 22923.7 1594.31  11
   5   0   1 24926.8 1413.93  10
  -5   0  -1 22207.8 1514.85  12
  -5   0  -1 25808.4 1314.37   5
  -5   0  -2 40303.2 1636.01   5
   5   0   2 40447.4 1968.46  10
   5   0   2 40164.3 2217.43  11
  -5   0  -2 36100.1 2039.09  12
  -5   0  -3 68934.3 2187.77   5
   5   0   3 64835.7 3057.80  11
  -5   0  -3 62432.6 2879.73  12
   5   0   4 1977.17 578.025  11
  -5   0  -4 1108.94 360.656  12
   5   0   5 37007.9 2457.06  11
  -5   0  -5 34002.8 2235.75  12
   5   0   6 49024.3 2963.50  11
  -5   0  -6 40530.2 2558.20  12
   5   0   7 2501.88 712.892  11
  -5   0  -7 1416.30 496.327  12
   5   0   8 77525.2 4147.08  11
  -5   0  -8 74348.3 3868.11  12
   5   0   9 550.556 345.521  11
  -5   0  -9 589.191 379.593  12
   5   0  10-239.193 175.261  11
  -4  -1  13 2092.86 637.015   2
   4   1 -13 1600.17 565.174   6
  -4  -1  13 1373.29 527.174   1
  -4  -1  12 15804.5 1642.21   5
  -4  -1  12 14663.6 1661.27   2
   4   1 -12 13428.4 1609.76   6
  -4  -1  12 15291.9 1586.65   1
  -4  -1  11 1579.96 504.085   5
  -4  -1  11 688.554 354.489   2
   4   1 -11 543.740 346.522   6
  -4  -1  11 1361.93 456.864   1
   4   1 -10 21453.9 1468.86   9
   4   1 -10 23431.6 1773.78   7
  -4  -1  10 24067.0 1948.03   2
  -4  -1  10 17924.0 1627.50   5
   4   1 -10 20534.3 1797.71   6
  -4  -1  10 22031.7 1718.16   1
  -4  -1   9 8885.06 1072.53   5
   4   1  -9 10771.4 987.616   9
   4   1  -9 9061.67 1063.77   7
  -4  -1   9 9578.39 1177.19   2
   4   1  -9 9623.84 1169.77   6
  -4  -1   9 10072.2 1090.40   1
  -4  -1   8 30805.3 1935.86   5
   4   1  -8 30253.8 1967.60   7
  -4  -1   8 33725.0 2178.68   2
  -4  -1   8 29893.5 1828.62   1
   4   1  -7 2971.44 340.554  11
  -4  -1   7 2909.73 558.850   5
  -4  -1   7 3835.05 699.693   2
  -4  -1   7 2803.83 499.079   1
   4   1  -7 3158.40 655.650   7
   4   1  -6 3953.32 422.071  11
  -4  -1   6 3969.75 620.679   5
  -4  -1   6 3608.20 671.656   2
   4   1  -6 4103.85 704.719   7
   4   1  -5 60847.5 1953.60  11
   4   1  -5 61355.6 2614.09   8
   4   1  -5 62032.1 2882.01   7
  -4  -1   5 62718.9 2876.99   2
  -4  -1   5 59794.3 2474.65   5
   4   1  -4 13063.5 849.101  11
   4   1  -4 12399.1 1114.65   8
  -4  -1   4 12520.2 1029.55   5
   4   1  -3 87556.0 2516.12  10
   4   1  -3 83932.0 2586.27  11
   4   1  -3 83352.8 2991.84   8
  -4  -1   3 85263.1 2787.18  12
  -4  -1   3 90382.0 2956.98   5
  -4  -1   2 35595.8 1678.54   5
   4   1  -2 33359.7 1207.80  10
   4   1  -2 33781.4 1559.89  11
  -4  -1   2 33101.6 1619.68  12
  -4  -1   1 70749.0 2462.67   5
   4   1  -1 73349.7 2562.41  11
  -4  -1   1 74009.4 2607.29  12
   4   1  -1 73591.8 1983.91  10
  -4  -1   0 19384.5 1150.93   5
   4   1   0 19602.3 948.714  10
  -4  -1   0 19182.8 1270.59  12
   4   1   0 18451.0 1258.10  11
  -4  -1  -1-23.8819 21.1931   3
   4   1   1 90.3131 230.891  11
  -4  -1  -1 131.324 146.427   5
  -4  -1  -1 41.2396 47.5941  12
  -4  -1  -2 82366.3 2660.52   5
   4   1   2 86018.2 3295.24  11
  -4  -1  -2 87892.6 3196.33  12
  -4  -1  -2 88163.4 2482.21   3
   4   1   3 322.639 251.617  11
  -4  -1  -3 91.4150 96.6185   3
  -4  -1  -3 223.296 151.979   5
  -4  -1  -3-62.2967 105.510  12
  -4  -1  -4 25189.1 1393.64   5
   4   1   4 23936.7 1828.84  11
  -4  -1  -4 23915.8 1701.65  12
  -4  -1  -4 24260.7 1293.84   3
  -4  -1  -5 38144.7 1833.53   5
   4   1   5 34150.3 2318.75  11
  -4  -1  -5 37712.1 2243.02  12
   4   1   6 4600.73 862.677  11
  -4  -1  -6 5089.02 833.438  12
   4   1   7 14480.2 1631.69  11
  -4  -1  -7 10075.5 1239.46  12
   4   1   8 4362.36 957.757  11
  -4  -1  -8 4523.07 861.787  12
   4   1   9-101.915 314.414  11
  -4  -1  -9 49.5867 71.1843  12
   4   1  10 2363.51 771.016  11
  -4  -1 -10 2441.04 664.682  12
  -3  -2  14 37526.9 2975.66   2
   3   2 -14 38727.3 2940.31   6
  -3  -2  13-49.8776 202.827   2
   3   2 -13 126.717 178.936   6
  -3  -2  12 878.717 406.639   5
   3   2 -12 878.440 417.646   6
   3   2 -11 48610.9 2522.74   9
  -3  -2  11 47680.1 2657.74   5
  -3  -2  11 44576.4 2800.60   2
   3   2 -11 45706.0 2789.09   6
  -3  -2  11 44356.1 2436.77   1
  -3  -2  10 9860.58 1125.90   5
   3   2 -10 7334.15 910.081   9
  -3  -2  10 7698.34 1067.22   2
   3   2 -10 6057.64 961.942   6
  -3  -2  10 9084.53 989.468   1
  -3  -2   9 4897.59 806.578   2
  -3  -2   9 3650.39 641.686   5
   3   2  -9 4551.24 680.701   9
   3   2  -9 4849.62 807.034   7
  -3  -2   9 4581.09 659.044   1
   3   2  -9 4281.57 771.902   6
  -3  -2   8 27015.6 1883.39   2
   3   2  -8 28434.9 1946.41   7
  -3  -2   8 26815.9 1545.25   1
  -3  -2   8 28307.2 1749.33   5
  -3  -2   7 27049.0 1815.85   2
   3   2  -7 28066.7 1904.06   7
  -3  -2   7 29146.2 1500.25   1
  -3  -2   7 26722.4 1643.79   5
   3   2  -6 4830.70 289.847  11
  -3  -2   6 5465.27 579.605   1
  -3  -2   6 5027.66 744.136   2
   3   2  -6 4430.94 717.378   7
  -3  -2   6 5586.18 704.584   5
   3   2  -5 34940.5 1116.64  11
   3   2  -5 36817.0 2115.46   7
  -3  -2   5 37286.7 2092.81   2
  -3  -2   5 35666.0 1779.07   5
  -3  -2   4 184289. 4767.03   5
   3   2  -4 181372. 3905.75  11
   3   2  -4 186251. 5217.21   8
   3   2  -4 185315. 5336.20   7
  -3  -2   4 197314. 5499.16   2
  -3  -2   3 12165.2 952.877   5
   3   2  -3 11531.2 749.090  11
   3   2  -3 12472.8 1084.33   8
  -3  -2   2 147691. 4020.62   5
   3   2  -2 149182. 3711.79  11
   3   2  -2 152432. 4274.65   8
  -3  -2   1 363934. 7641.61   5
   3   2  -1 354797. 7484.07  11
  -3  -2   1 359810. 7671.10  12
  -3  -2   0 875.299 245.732   5
   3   2   0 989.838 290.270  11
  -3  -2   0 553.553 125.120  10
  -3  -2   0 522.639 186.039   3
  -3  -2   0 681.035 258.500  12
  -3  -2  -1 92943.8 3071.60   5
   3   2   1 91502.2 3198.64  11
  -3  -2  -1 94040.0 2958.53   3
  -3  -2  -1 92378.0 3108.14  12
   3   2   2 170048. 4982.21  11
  -3  -2  -2 175586. 4475.17   3
  -3  -2  -2 169003. 4740.17  12
   3   2   3 53851.2 2623.24  11
  -3  -2  -3 50747.1 2352.17  12
  -3  -2  -3 52631.6 2142.88   3
  -3  -2  -4 71.3743 93.3355  12
  -3  -2  -4 182.069 87.5095   3
   3   2   5 38089.6 2438.56  11
  -3  -2  -5 36952.0 2154.28  12
  -3  -2  -5 41950.5 2107.12   3
  -3  -2  -6 15645.9 1341.79   3
   3   2   6 15555.1 1614.21  11
  -3  -2  -6 15586.7 1425.19  12
  -3  -2  -7 45309.7 2506.71   3
   3   2   7 42771.5 2856.52  11
  -3  -2  -7 43453.9 2558.74  12
   3   2   8 8341.57 1290.79  11
  -3  -2  -8 9244.05 1196.12  12
   3   2   9 26744.8 2505.90  11
  -3  -2  -9 23824.8 2004.87  12
   3   2  10 5184.01 1181.23  11
  -3  -2 -10 5253.49 975.582  12
  -2  -3  14-95.1722 317.666   2
   2   3 -14 268.499 241.382   6
  -2  -3  13 108.746 150.394   2
   2   3 -13 231.957 227.693   6
   2   3 -12 199.745 218.111   6
  -2  -3  12 1130.87 464.334   2
   2   3 -11 12012.7 1289.56   9
  -2  -3  11 9014.43 1281.52   2
   2   3 -11 9650.25 1211.80   6
   2   3 -11 10907.9 1113.54  12
  -2  -3  11 10203.7 1121.93   5
  -2  -3  10 1687.89 508.977   2
  -2  -3  10 1911.25 468.594   5
  -2  -3  10 1432.42 368.763   1
   2   3 -10 1225.85 394.993   9
   2   3 -10 853.274 364.518   6
  -2  -3   9 1746.48 511.885   2
  -2  -3   9 1181.45 356.581   5
  -2  -3   9 1495.01 326.590   1
   2   3  -9 1537.88 413.820   9
   2   3  -9 1468.48 444.144   6
   2   3  -8 41517.6 2280.35   9
  -2  -3   8 42340.8 2448.96   2
   2   3  -8 44594.0 2543.36   7
  -2  -3   8 46776.6 1855.66   1
  -2  -3   8 42915.9 2111.30   5
  -2  -3   7 42428.9 2343.03   2
   2   3  -7 42372.7 2415.71   7
  -2  -3   7 45941.5 1672.56   1
  -2  -3   7 40855.7 1987.40   5
  -2  -3   6 38104.8 1356.00   1
  -2  -3   6 32996.1 1992.64   2
   2   3  -6 35448.7 2135.34   7
  -2  -3   6 34918.8 1766.00   5
  -2  -3   5 17136.0 1161.63   5
   2   3  -5 17826.6 1436.82   7
  -2  -3   5 16776.1 1381.01   2
  -2  -3   4 71854.4 2554.53   5
   2   3  -4 66092.9 1899.39  11
   2   3  -4 74579.6 2995.47   7
  -2  -3   4 72061.8 2948.39   2
  -2  -3   3 88234.6 2912.32   5
   2   3  -3 84708.2 2403.99  11
   2   3  -3 86239.1 1892.17  10
   2   3  -3 90226.0 3289.99   8
   2   3  -3 89168.4 3242.09   7
  -2  -3   3 89765.6 3362.84   2
  -2  -3   2 119271. 3611.04   5
   2   3  -2 111210. 3080.32  11
   2   3  -2 115426. 3705.34   8
  -2  -3   1 76161.9 2805.38   5
   2   3  -1 77258.7 2588.68  11
   2   3  -1 83321.1 2925.26   8
  -2  -3   1 75704.0 2781.80   3
   2   3   0 39914.3 1893.22  11
  -2  -3   0 39050.6 1854.27  12
  -2  -3   0 43350.4 2031.02   3
   2   3   1 322435. 7419.57  11
  -2  -3  -1 312584. 7131.75  12
  -2  -3  -1 314338. 7273.75   3
   2   3   2 45418.6 2310.35  11
  -2  -3  -2 47552.4 2203.40   3
  -2  -3  -2 48130.6 2154.01  12
   2   3   3 18954.9 1539.25  11
  -2  -3  -3 20071.6 1385.40  12
  -2  -3  -3 21816.5 1472.40   3
   2   3   4 214716. 6322.41  11
  -2  -3  -4 212284. 5679.92  12
  -2  -3  -4 208390. 5783.28   3
   2   3   5 1668.73 517.278  11
  -2  -3  -5 1817.27 450.191  12
  -2  -3  -5 1348.91 375.580   3
   2   3   6 41.4555 216.017  11
  -2  -3  -6 182.683 136.157   3
  -2  -3  -6 406.390 228.026  12
  -2  -3  -7 35567.1 2385.76   3
  -2  -3  -7 38053.4 2254.32  12
   2   3   7 39169.5 2814.02  11
   2   3   8 229.208 367.513  11
  -2  -3  -8 308.197 161.575  12
  -2  -3  -8-109.309 132.200   3
   2   3   8 131.729 242.245   1
   2   3   9 3408.48 1004.87   1
   2   3   9 2429.01 785.592  11
  -2  -3  -9 4663.42 925.609   3
   2   3  10 6539.03 1491.45   1
  -2  -3 -10 5304.04 1033.64   3
   1   4 -13 1252.17 428.233  12
   1   4 -13 371.351 256.313   6
  -1  -4  13 1352.52 515.996   2
  -1  -4  12 13077.6 1682.73   2
   1   4 -12 12583.3 1445.64   6
   1   4 -12 14763.4 1467.05  12
   1   4 -11 9351.21 1217.04   9
  -1  -4  11 8633.55 1296.39   2
   1   4 -11 10768.0 1266.68   6
   1   4 -11 8864.86 1109.00  12
  -1  -4  10 602.166 251.118   5
   1   4 -10 793.880 389.268   9
   1   4 -10 385.959 238.206   6
  -1  -4  10 493.177 271.225   2
   1   4  -9 32660.0 2175.15   9
  -1  -4   9 33992.4 2371.44   2
   1   4  -9 33372.4 2044.05   6
  -1  -4   9 32722.1 1811.49   5
   1   4  -8 103374. 3994.36   9
  -1  -4   8 93321.7 3957.55   2
  -1  -4   8 97619.4 3280.68   5
  -1  -4   7 44707.4 2516.47   2
   1   4  -7 42807.8 2530.60   7
  -1  -4   7 47516.2 1414.63   1
  -1  -4   7 43329.5 2012.91   5
  -1  -4   6 7302.95 758.793   5
  -1  -4   6 7508.69 952.380   2
   1   4  -6 6832.20 939.949   7
  -1  -4   5 388768. 8281.63   5
   1   4  -5 381913. 9107.58   7
  -1  -4   5 384570. 8990.33   2
  -1  -4   4 22101.5 1379.72   5
   1   4  -4 23358.7 1599.43   7
  -1  -4   4 18863.0 1458.59   2
  -1  -4   3 52411.7 2298.73   5
   1   4  -3 58151.7 2483.73   7
  -1  -4   3 50400.0 2461.02   2
  -1  -4   3 53856.4 1783.01  10
  -1  -4   2 157306. 3513.42  10
   1   4  -2 161566. 4665.53   8
   1   4  -2 166599. 4486.92   7
  -1  -4   2 163688. 4768.81   3
  -1  -4   1 29378.5 1224.19  10
   1   4  -1 29327.3 1710.28   8
   1   4  -1 29085.5 1600.89   7
  -1  -4   1 30749.1 1827.53   3
   1   4   0 180675. 4967.14   8
  -1  -4   0 181657. 5245.64   3
   1   4   1 28397.3 1655.41   8
  -1  -4  -1 28910.4 1819.46   3
   1   4   1 27464.8 1768.28  11
   1   4   2 1332.03 372.686  11
  -1  -4  -2 2454.46 539.632   3
   1   4   3 21072.9 1725.60  11
  -1  -4  -3 25577.3 1603.79  12
  -1  -4  -3 22029.6 1659.48   3
  -1  -4  -4 3128.51 546.368  12
   1   4   4 2757.63 649.606  11
   1   4   4 2489.94 648.872   1
  -1  -4  -4 2121.19 535.378   3
  -1  -4  -5 7523.90 902.824  12
  -1  -4  -5 6581.47 961.459   3
   1   4   5 5283.67 988.740   1
   1   4   6 1644.77 621.096   1
  -1  -4  -6 2311.81 519.235  12
  -1  -4  -6 2614.73 618.556   3
  -1  -4  -7 6546.45 1070.56   3
   1   4   7 7241.38 1302.88   1
   1   4   7 7197.15 1041.18   4
  -1  -4  -7 7491.51 944.217  12
  -1  -4  -8 40551.2 2827.63   3
   1   4   8 38988.6 3171.36   1
   1   4   9 6144.16 1262.74   1
  -1  -4  -9 5215.54 1036.48   3
  -1  -4 -10 10576.1 1556.44   3
   1   4  10 11117.0 1830.84   1
   0   5 -13 429.587 315.681  12
   0  -5  13 260.075 256.623   2
   0   5 -12 883.038 375.245  12
   0  -5  12 1495.92 600.523   2
   0   5 -11 5614.94 978.502  12
   0   5 -11 7641.85 1178.00   9
   0  -5  11 5616.74 1072.69   2
   0   5 -10 1344.61 468.488   9
   0   5 -10 828.839 312.181   6
   0  -5  10 623.159 368.138   2
   0   5  -9 39840.9 2581.82   9
   0  -5   9 36318.6 2546.53   2
   0   5  -9 38699.1 2141.69   6
   0  -5   8 1732.33 533.843   2
   0   5  -8 1850.19 430.092   6
   0  -5   8 1955.05 406.211   5
   0   5  -8 2093.06 601.309   9
   0  -5   7 3306.75 525.395   5
   0  -5   7 4503.67 797.241   2
   0   5  -7 3798.57 507.210   4
   0   5  -7 3791.91 766.916   9
   0  -5   6 52706.6 2227.83   5
   0   5  -6 52657.1 2249.58   4
   0   5  -6 51798.7 2824.15   7
   0  -5   6 50340.4 2688.17   2
   0  -5   5 8933.90 890.477   5
   0  -5   5 10265.0 998.017  10
   0   5  -5 12241.5 1089.16   4
   0   5  -5 11017.6 1200.05   7
   0  -5   5 9626.19 1091.58   2
   0  -5   4 53.2312 90.4562   2
   0  -5   4 161.213 189.687   5
   0  -5   4 94.2180 179.510  10
   0  -5   3-44.9915 160.738   3
   0  -5   3 137.211 172.775  10
   0  -5   3 123.279 176.054   2
   0   5  -3 218.632 197.170   7
   0  -5   2 14388.9 1032.13  10
   0   5  -2 16254.2 1208.89   7
   0  -5   2 15292.6 1375.49   3
   0   5  -2 14936.0 637.231   1
   0  -5   1 32935.6 1641.65  10
   0   5  -1 31590.3 1623.19   7
   0   5  -1 32222.8 1269.24   1
   0  -5   1 29752.7 1972.86   3
   0   5   0 37948.9 1953.23   8
   0   5   0 36944.0 1695.51   7
   0   5   0 37126.1 1575.52   1
   0  -5   0 34322.7 2183.63   3
   0   5   1 7955.73 865.532   8
   0  -5  -1 7368.58 998.156   3
   0   5   1 7216.96 702.246   7
   0   5   1 7472.36 775.272   1
   0  -5  -2 19437.1 1689.74   3
   0   5   2 17699.5 1297.64   8
   0   5   2 14193.0 1196.12   1
   0  -5  -3 145855. 5156.30   3
   0   5   3 146187. 4380.14   8
   0   5   3 136441. 4668.11   1
   0  -5  -4 1149.06 428.353   3
   0   5   4 1521.58 445.789   1
   0   5   4 1678.85 413.878   8
   0   5   4 1649.11 498.102   4
   0   5   5 9485.05 1211.95   4
   0   5   5 9913.22 1283.61   1
   0  -5  -5 9291.13 1257.27   3
   0   5   6 12834.9 1451.28   4
   0   5   6 13585.9 1582.29   1
   0  -5  -6 16305.2 1716.84   3
   0   5   7 7692.83 1124.22   4
   0   5   7 8523.98 1314.51   1
   0  -5  -7 11484.9 1500.37   3
   0  -5  -8 3925.27 938.036   3
   0   5   8 5077.63 1072.07   1
   0   5   8 3833.23 817.589   4
   0  -5  -9 3781.11 914.493   3
   0   5   9 4161.11 1005.45   1
   1  -6  12 1508.94 592.329   2
  -1   6 -12 1857.08 610.336  12
   1  -6  11 14972.6 1805.74   2
  -1   6 -11 10858.1 1476.70  12
   1  -6  10-262.351 235.598   2
  -1   6 -10 113.082 138.540  12
  -1   6 -10 256.505 266.926   9
   1  -6   9 870.595 423.598   2
  -1   6  -9 1822.62 622.702   9
  -1   6  -8 74921.6 3801.28   9
   1  -6   8 72432.1 3653.98   2
   1  -6   7 192.840 176.621   2
  -1   6  -7 223.008 195.882   9
   1  -6   6 44059.4 2091.44   5
   1  -6   6 37382.6 2306.70  10
  -1   6  -6 39808.1 2580.84   9
  -1   6  -6 41710.8 2131.31   4
   1  -6   6 39635.7 2462.76   2
   1  -6   5 125793. 4001.06   5
   1  -6   5 118834. 4220.71  10
  -1   6  -5 112515. 4537.79   9
  -1   6  -5 112943. 4077.09   4
   1  -6   5 126696. 4526.25   2
   1  -6   4 90.7823 97.2077   2
   1  -6   4 184.600 226.126   5
   1  -6   4 570.894 317.089  10
  -1   6  -4 64.3150 163.868   4
   1  -6   3 83718.7 3235.02  10
  -1   6  -3 84020.5 3637.60   4
  -1   6  -3 78019.8 3295.85   7
   1  -6   3 77659.7 3222.74   2
   1  -6   3 80412.6 3658.88   3
   1  -6   2 137859. 4398.66  10
  -1   6  -2 151249. 5254.33   4
  -1   6  -2 152162. 4577.23   7
   1  -6   2 140633. 5054.54   3
   1  -6   1 1339.24 458.776   3
   1  -6   1 828.883 294.456  10
  -1   6  -1 1269.81 335.177   7
  -1   6  -1 1079.61 248.998   1
  -1   6  -1 1693.32 519.592   4
   1  -6   0 45925.5 2430.73  10
  -1   6   0 52209.4 3012.48   4
  -1   6   0 55360.1 2131.76   7
  -1   6   0 48210.3 1971.63   1
   1  -6   0 45606.2 2761.48   3
  -1   6   1 60097.2 3282.24   4
  -1   6   1 55882.5 2290.80   1
   1  -6  -2 229.787 170.835   3
  -1   6   2 284.931 190.841   8
  -1   6   2 611.988 214.578   1
   1  -6  -3 1965.06 620.663   3
  -1   6   3 2004.85 431.064   8
  -1   6   3 1735.85 465.145   1
  -1   6   3 3545.53 816.092   4
  -1   6   4 38594.9 2677.58   4
  -1   6   4 36473.2 2273.41   1
   1  -6  -4 39004.0 2779.09   3
   1  -6  -5 133.832 104.157   3
  -1   6   5 362.094 259.297   1
  -1   6   6 42876.8 2926.91   4
  -1   6   6 39547.3 2693.87   1
   1  -6  -6 46799.8 3217.56   3
  -1   6   7 9597.98 1381.16   4
  -1   6   7 10049.3 1410.12   1
   1  -6  -8 7255.01 1346.18   3
  -1   6   8 5586.57 1094.83   1
  -1   6   8 6058.89 1092.08   4
   2  -7  11 24083.1 2404.79   2
  -2   7 -11 25340.4 2425.56  12
   2  -7  10 3836.87 924.230   2
  -2   7 -10 4169.80 949.130  12
  -2   7  -9 47976.9 3314.85   9
   2  -7   9 51626.7 3275.25   2
  -2   7  -9 46080.0 3178.08  12
  -2   7  -8 20303.1 2053.01   9
   2  -7   8 19413.7 1904.38   2
   2  -7   7 15824.6 1683.11  10
  -2   7  -7 18434.8 1902.11   9
   2  -7   7 18627.4 1795.94   2
   2  -7   6 41937.3 2691.10  10
  -2   7  -6 40843.1 2809.45   9
  -2   7  -6 44985.5 2417.83   4
   2  -7   6 45327.8 2771.30   2
   2  -7   5 16335.0 1346.08   5
   2  -7   5 14884.6 1516.55  10
  -2   7  -5 14749.8 1618.35   9
  -2   7  -5 16387.7 1511.53   4
   2  -7   5 17607.2 1637.64   2
   2  -7   4 18894.0 1657.78  10
  -2   7  -4 17242.7 1709.22   9
  -2   7  -4 14942.4 1559.73   4
   2  -7   4 19885.1 1664.88   2
   2  -7   3 2835.98 701.427   3
   2  -7   3 2814.20 626.179  10
   2  -7   3 1527.99 408.002   2
  -2   7  -3 2116.29 587.979   9
   2  -7   2 6279.91 914.127  10
  -2   7  -2 4854.16 940.245   4
   2  -7   2 6880.86 1077.05   3
   2  -7   1 1873.45 544.378   3
   2  -7   1 3006.40 650.942  10
  -2   7  -1 2744.15 719.380   4
   2  -7   0 1489.22 535.070   3
   2  -7   0 2144.96 557.760  10
  -2   7   0 1526.49 580.859   4
   2  -7  -1 899.796 443.575   3
  -2   7   1 593.334 247.351   1
   2  -7  -1 1359.87 450.071  10
  -2   7   1 1384.24 519.494   4
  -2   7   2 23110.6 2257.21   4
  -2   7   2 25017.5 1695.22   1
   2  -7  -2 22642.9 2177.64   3
   2  -7  -3 1771.54 623.698   3
  -2   7   3 1221.54 410.294   1
  -2   7   3 1794.52 639.911   4
  -2   7   4 29285.2 2571.00   4
  -2   7   4 26758.0 1972.73   1
   2  -7  -4 31291.0 2734.08   3
  -2   7   5 12986.5 1692.24   4
  -2   7   5 12180.3 1404.83   1
   2  -7  -5 13981.0 1835.32   3
  -2   7   6 1675.55 526.520   1
   2  -7  -6 2345.22 798.828   3
  -2   7   6 919.649 504.207   4
  -2   7   7 22028.5 2273.60   4
  -2   7   7 20814.1 2047.90   1
   2  -7  -7 26702.6 2725.55   3
  -2   7   8 12975.5 1730.15   4
  -2   7   8 13532.9 1726.40   1
   3  -8  10 23510.8 2385.33   2
  -3   8  -9 6251.65 1224.10  12
   3  -8   9 6940.91 1239.28   2
  -3   8  -8 6520.59 1262.61  12
   3  -8   8 7159.33 1191.65   2
   3  -8   8 7421.99 1305.53  10
   3  -8   7 824.443 394.930   2
   3  -8   7 320.325 370.481  10
  -3   8  -7 522.853 321.289   9
   3  -8   6 16319.0 1817.32  10
  -3   8  -6 14016.1 1735.14   9
   3  -8   6 14843.6 1642.45   2
   3  -8   5 14052.9 1624.85  10
  -3   8  -5 12688.5 1629.51   9
  -3   8  -5 13916.9 1535.48   4
   3  -8   4 21233.5 1957.55  10
  -3   8  -4 20664.1 2012.87   9
  -3   8  -4 19506.4 1909.12   4
   3  -8   3 3788.70 845.709   3
   3  -8   3 3284.07 762.900  10
  -3   8  -3 3435.52 779.631   9
  -3   8  -3 3916.64 901.798   4
   3  -8   2 35569.1 2476.97  10
  -3   8  -2 28580.5 2237.98   9
  -3   8  -2 29586.1 2598.18   4
   3  -8   2 34891.4 2598.85   3
   3  -8   1 31131.2 2338.64  10
  -3   8  -1 26676.1 2541.76   4
   3  -8   1 30274.1 2478.61   3
   3  -8   0 1697.60 571.051   3
   3  -8   0 360.206 232.293  10
  -3   8   0 1059.65 652.500   4
   3  -8  -1 14940.2 1699.24  10
   3  -8  -1 16752.8 1937.45   3
  -3   8   1 16319.9 2087.94   4
   3  -8  -2 1560.98 636.506   3
   3  -8  -2 1451.76 545.390  10
  -3   8   2 1714.74 690.841   4
   3  -8  -3 2418.68 797.280   3
   3  -8  -3 1898.32 672.354  10
  -3   8   3 2751.37 835.013   4
   3  -8  -4 7506.48 1417.27   3
  -3   8   4 5668.41 1212.37   4
  -3   8   5 13854.8 1912.00   4
  -3   8   5 16373.4 1682.88   1
   3  -8  -5 14093.9 1998.54   3
  -3   8   6 4140.80 1038.60   4
  -3   8   6 2724.86 720.715   1
   4  -9   7 9228.83 1501.08  10
  -4   9  -6 4790.55 1140.74  12
   4  -9   6 4680.55 1043.62  10
  -4   9  -5 1127.77 548.205  12
   4  -9   5 749.544 454.025  10
  -4   9  -5 118.881 211.017   4
   4  -9   4 2027.35 677.755  10
  -4   9  -4 2048.20 674.036   4
   4  -9   3 486.420 345.524  10
  -4   9  -3 411.775 307.100   4
   4  -9   2 359.248 280.948   3
   4  -9   2 1053.54 484.212  10
  -4   9  -2 409.480 264.794   4
   4  -9   1 6386.24 1144.28  10
  -4   9  -1 7570.28 1458.93   4
   4  -9   1 4759.39 1012.11   3
   4  -9   0 2734.16 820.165   3
   4  -9   0 3385.40 825.523  10
  -4   9   0 3191.95 1006.55   4
   4  -9  -1 2037.34 707.041   3
   4  -9  -1 1308.59 543.764  10
  -4   9   1 1785.97 769.131   4
   4  -9  -2 24520.6 2577.28   3
   4  -9  -2 25513.9 2463.58  10
  -4   9   2 28576.7 2947.45   4
   4  -9  -3 7046.81 1427.12   3
   4  -9  -3 6114.24 1224.19  10
  -4   9   3 7881.00 1568.95   4
   4  -9  -4 17365.5 2188.03  10
  10  -4  -5 22629.4 2372.50  10
  10  -4  -4 760.008 423.697  10
  10  -4  -3 19032.1 2107.00  10
  10  -4  -2 18231.9 2044.35  10
  10  -4  -1 891.811 448.590  10
  10  -4   0 8874.78 1414.32  10
   9  -3  -9 356.483 328.744  10
   9  -3  -8-213.406 247.670  10
  -9   3   8 620.086 383.555   4
   9  -3  -7 511.567 267.091  11
  -9   3   7 505.113 282.410   4
   9  -3  -6 2417.65 623.312  11
   9  -3  -6 2330.20 752.947  10
  -9   3   6 3473.17 805.115   4
   9  -3  -5 261.096 136.065  11
   9  -3  -5 478.778 313.152  10
  -9   3   5 473.628 343.806   4
   9  -3  -4 8148.65 1192.98  11
  -9   3   4 7665.75 1179.01   4
   9  -3  -4 5862.88 1090.84  10
   9  -3  -3 1759.28 559.976  11
  -9   3   3 2451.57 717.467   4
   9  -3  -3 1785.34 606.174  10
   9  -3  -2 129.125 352.125  11
   9  -3  -2 393.464 168.876  10
   9  -3  -1 2264.84 652.280  11
   9  -3  -1 2048.56 606.056  10
   9  -3   0 13547.4 1671.56  11
   9  -3   0 10625.9 1405.74  10
  -9   3   0 11216.1 1333.73  12
   9  -3   1 665.532 336.459  11
   9  -3   1 161.818 221.308  10
  -9   3  -1 583.384 341.957  12
   9  -3   2 13912.8 1801.61  11
   9  -3   2 16388.5 1822.25  10
  -9   3  -2 14498.7 1654.60  12
   9  -3   3 54248.7 3459.37  10
  -9   3  -3 57233.0 3508.20  12
   8  -2 -10 12514.2 1589.64   6
  -8   2   9 46.3108 126.880   4
   8  -2  -9 30.1486 94.2998   6
  -8   2   8 153.715 176.432   4
   8  -2  -8 110.101 150.361   6
   8  -2  -7 25741.2 1941.46  11
   8  -2  -7 19156.5 2078.81  10
  -8   2   7 26289.0 2039.86   4
   8  -2  -7 27223.6 2083.28   6
  -8   2   7 22944.8 1998.54   5
   8  -2  -6 33052.5 2227.70  11
   8  -2  -6 28474.0 2414.42  10
  -8   2   6 35081.1 2365.85   4
   8  -2  -6 34054.4 2247.88   6
  -8   2   6 34833.4 2359.76   5
  -8   2   5 5202.16 850.859   5
   8  -2  -5 2784.98 635.010  11
   8  -2  -5 3533.58 795.897  10
  -8   2   5 3562.59 763.533   4
   8  -2  -4 32992.8 2259.50  11
   8  -2  -4 33885.8 2396.75  10
  -8   2   4 34550.3 2321.45   4
  -8   2   4 30947.7 2049.49   5
   8  -2  -3 90217.1 3989.55  11
   8  -2  -3 90465.7 3974.60  10
  -8   2   3 95247.1 3620.25   5
   8  -2  -2 15073.4 1547.85  11
  -8   2   2 13991.3 1298.03  12
   8  -2  -2 12015.8 1330.80  10
  -8   2   2 12239.6 1149.63   5
   8  -2  -1 19900.3 1822.85  11
   8  -2  -1 21183.2 1789.04  10
  -8   2   1 19453.5 1605.60  12
   8  -2   0 92252.8 4202.07  11
   8  -2   0 85874.1 3830.94  10
  -8   2   0 91710.9 3855.68  12
   8  -2   1 20399.4 1938.06  11
   8  -2   1 20948.0 1813.18  10
  -8   2  -1 19303.0 1745.40  12
   8  -2   2 1750.33 542.515  10
  -8   2  -2 1496.26 479.465  12
   8  -2   3 26828.2 2362.77  11
   8  -2   3 28813.5 2268.30  10
  -8   2  -3 31000.6 2409.07  12
   8  -2   4 3065.71 835.991  11
  -8   2  -4 3022.81 782.873  12
   8  -2   5 4060.29 974.630  11
  -8   2  -5 4485.53 983.223  12
   7  -1 -11 1955.91 632.534   6
   7  -1 -10 3828.12 846.407   6
  -7   1  10 2774.63 719.526   5
   7  -1  -9 67816.6 3601.40   6
  -7   1   9 69789.9 3670.00   5
  -7   1   8 240.802 144.125   5
   7  -1  -8 1267.55 485.527   6
  -7   1   7 793.195 393.098   5
   7  -1  -7 645.054 288.556  11
   7  -1  -7 845.827 358.835   7
   7  -1  -7 470.836 275.597   6
   7  -1  -6 81532.4 3285.64  11
   7  -1  -6 79866.4 3761.88   7
  -7   1   6 85030.3 3677.83   5
  -7   1   5 162.702 214.621   5
   7  -1  -5 17.0433 99.4617  11
   7  -1  -5-44.1352 203.223  10
  -7   1   4 2606.18 569.644   5
   7  -1  -4 2886.50 582.490  11
   7  -1  -4 3226.09 640.739  10
   7  -1  -4 4031.19 684.411   8
  -7   1   4 2855.67 521.306  12
   7  -1  -3 24598.7 1764.30  11
  -7   1   3 21946.3 1578.04   5
  -7   1   3 23959.0 1569.73  12
   7  -1  -3 24850.2 1734.60  10
  -7   1   2 3051.12 539.619   5
   7  -1  -2 3397.78 665.825  11
   7  -1  -2 3199.88 598.150  10
  -7   1   2 3466.52 585.738  12
  -7   1   1 2687.25 477.747   5
   7  -1  -1 2803.67 620.399  11
   7  -1  -1 2823.13 548.948  10
  -7   1   1 3002.73 588.826  12
  -7   1   0 2316.48 431.344   5
   7  -1   0 2274.88 576.492  11
   7  -1   0 2485.43 545.686  10
  -7   1   0 2668.99 577.215  12
   7  -1   1 1983.30 553.862  11
   7  -1   1 2935.73 611.060  10
  -7   1  -1 2982.55 646.078  12
   7  -1   2 18039.7 1725.63  11
   7  -1   2 18609.7 1569.12  10
  -7   1  -2 18626.9 1671.80  12
   7  -1   3 1379.69 538.212  11
  -7   1  -3 1383.12 504.482  12
   7  -1   4 14844.8 1672.58  11
  -7   1  -4 14901.3 1606.58  12
   7  -1   5 4696.61 974.774  11
  -7   1  -5 4727.28 937.384  12
   7  -1   6 2278.87 755.179  11
  -7   1  -6 1680.87 596.847  12
   7  -1   7 11972.6 1660.26  11
  -6   0  13 1984.46 633.533   1
  -6   0  12 2174.69 637.860   1
   6   0 -12 1389.15 564.549   6
  -6   0  11 327.872 279.977   5
  -6   0  11 209.698 172.916   1
   6   0 -11 469.778 303.154   6
  -6   0  10 101.759 288.053   5
  -6   0  10 79.5559 172.130   1
   6   0 -10 138.055 210.912   6
  -6   0   9 83.7938 105.314   5
   6   0  -9 75.3400 88.1272   6
  -6   0   8-34.7910 120.478   5
   6   0  -8 343.533 202.519   7
   6   0  -7 53414.7 2246.59  11
   6   0  -7 49996.0 2835.84   7
  -6   0   7 52834.3 2810.43   5
  -6   0   6 1736.46 458.113   5
   6   0  -6 1195.56 338.317  11
   6   0  -6 970.698 350.972   7
  -6   0   5 2005.30 491.385   5
   6   0  -5 1738.96 408.395  11
   6   0  -5 1849.72 438.624   8
   6   0  -4 223261. 5761.80  11
   6   0  -4 225457. 5874.84  10
   6   0  -4 215812. 6020.42   8
  -6   0   4 223818. 5671.03  12
  -6   0   4 224289. 6046.12   5
  -6   0   3-45.8344 160.390   5
   6   0  -3 66.0741 69.8525  11
   6   0  -3 122.800 170.752  10
  -6   0   3 62.1222 98.8050  12
   6   0  -2 12677.4 1153.23  11
   6   0  -2 11856.3 972.886  10
  -6   0   2 13286.5 1139.78  12
  -6   0   2 11956.6 1061.68   5
   6   0  -1 317039. 7885.95  11
   6   0  -1 337708. 7260.99  10
  -6   0   1 312704. 7684.36  12
  -6   0   1 322281. 7370.18   5
  -6   0   0 180.737 126.488   5
   6   0   0 770.574 364.289  11
   6   0   0 300.440 207.063  10
  -6   0   0 430.214 253.836  12
  -6   0  -1 1763.64 360.791   5
   6   0   1 2052.12 562.234  11
   6   0   1 1288.11 340.111  10
  -6   0  -1 1603.83 449.174  12
   6   0   2 120951. 4570.39  11
  -6   0  -2 120289. 4400.69  12
  -6   0  -2 126500. 3555.49   5
   6   0   3 12602.4 1398.13  11
  -6   0  -3 11523.7 1277.62  12
   6   0   4 8409.23 1214.40  11
  -6   0  -4 8611.16 1138.60  12
   6   0   5 1827.43 626.622  11
  -6   0  -5 797.229 331.751  12
   6   0   6 11291.7 1487.78  11
  -6   0  -6 15126.4 1646.85  12
   6   0   7 25489.0 2390.56  11
  -6   0  -7 26027.5 2272.80  12
   6   0   8 8018.02 1363.61  11
  -6   0  -8 7957.21 1283.80  12
   5   1 -13 19808.5 2072.21   6
  -5  -1  12 2660.46 664.249   1
  -5  -1  12 1537.94 531.204   5
   5   1 -12 2642.16 712.073   6
  -5  -1  11 3052.69 794.783   2
  -5  -1  11 2369.85 600.812   1
  -5  -1  11 1758.54 543.561   5
   5   1 -11 1935.79 550.581   7
   5   1 -11 1440.30 544.127   6
  -5  -1  10 137042. 4921.63   1
   5   1 -10 149115. 5203.16   7
  -5  -1  10 161098. 6013.79   2
   5   1 -10 138624. 5313.11   6
  -5  -1  10 149975. 5361.79   5
  -5  -1   9 562.609 299.802   5
  -5  -1   9 621.728 347.127   2
   5   1  -9 823.764 295.240   9
   5   1  -9 787.733 363.342   7
  -5  -1   9 651.319 302.042   1
   5   1  -9 246.386 173.446   6
  -5  -1   8 3250.92 651.575   5
  -5  -1   8 3908.94 825.027   2
   5   1  -8 4046.15 758.634   7
   5   1  -7 109236. 3054.82  11
   5   1  -7 113306. 4375.36   7
  -5  -1   7 105210. 4407.73   2
  -5  -1   7 98862.1 3873.85   5
   5   1  -6 4902.63 556.857  11
  -5  -1   6 3836.48 673.625   5
   5   1  -6 3779.09 744.304   7
  -5  -1   5 368.169 227.664   5
   5   1  -5 472.724 174.028  11
   5   1  -5 802.187 346.933   8
   5   1  -5 537.958 334.347   7
   5   1  -4 34146.9 1669.60  11
   5   1  -4 36730.6 1671.47  10
   5   1  -4 34232.3 2012.76   8
  -5  -1   4 33643.4 1892.59   5
   5   1  -3 20552.5 1312.29  11
   5   1  -3 20988.0 1075.20  10
   5   1  -3 19837.1 1442.25   8
  -5  -1   3 21158.0 1393.15  12
  -5  -1   3 18193.3 1350.02   5
   5   1  -2 6328.86 730.059  11
   5   1  -2 8264.60 620.830  10
  -5  -1   2 7404.65 815.225  12
  -5  -1   2 6872.87 781.797   5
  -5  -1   1 11361.2 986.665   5
   5   1  -1 11640.5 1052.58  11
   5   1  -1 11885.3 763.107  10
  -5  -1   1 11179.8 1041.06  12
   5   1   0 61.1496 131.649  11
  -5  -1   0 443.892 208.120   5
   5   1   0 608.029 183.382  10
  -5  -1   0 490.609 241.676  12
  -5  -1  -1 7103.27 736.896   5
   5   1   1 6759.68 877.257  11
  -5  -1  -1 6881.16 866.574  12
  -5  -1  -2 23137.0 1344.40   5
   5   1   2 19621.0 1625.05  11
  -5  -1  -2 23234.5 1679.74  12
  -5  -1  -3 17552.6 1164.02   5
   5   1   3 16248.7 1528.87  11
  -5  -1  -3 19486.1 1583.65  12
   5   1   4 2145.70 581.584  11
  -5  -1  -4 1825.12 512.666  12
   5   1   5 30260.3 2326.19  11
  -5  -1  -5 31383.6 2229.11  12
   5   1   6 13314.3 1614.03  11
  -5  -1  -6 13835.1 1517.20  12
   5   1   7 1409.56 475.125  11
  -5  -1  -7 1545.38 484.359  12
   5   1   8 1193.34 605.244  11
  -5  -1  -8 845.188 400.058  12
   5   1   9 1.25135 123.383  11
  -5  -1  -9-204.608 210.712  12
  -4  -2  14 298.819 337.192   2
  -4  -2  13 12783.6 1530.90   5
  -4  -2  13 11265.9 1577.66   2
   4   2 -13 13152.8 1650.73   6
  -4  -2  12 791.519 402.648   5
  -4  -2  12 750.048 373.477   2
   4   2 -12 1518.06 556.308   6
  -4  -2  11 371.400 320.913   2
  -4  -2  11 58.4674 190.230   5
   4   2 -11 281.747 203.196   9
  -4  -2  11 225.413 181.012   1
   4   2 -11 530.001 327.568   6
   4   2 -10 9025.83 1024.70   9
   4   2 -10 8459.42 1166.31   7
  -4  -2  10 8960.04 1226.58   2
   4   2 -10 8886.82 1208.36   6
  -4  -2  10 8308.95 973.859   1
  -4  -2  10 9458.41 1163.78   5
   4   2  -9 15225.8 1538.46   7
  -4  -2   9 15020.9 1542.87   2
  -4  -2   9 16760.7 1336.49   1
  -4  -2   9 14519.6 1390.32   5
   4   2  -8 9519.16 1186.21   7
  -4  -2   8 6930.20 1036.33   2
  -4  -2   8 8869.74 914.513   1
  -4  -2   8 7923.29 986.217   5
  -4  -2   7 162.736 102.752   5
  -4  -2   7 501.871 318.981   2
   4   2  -7 93.8192 169.103   7
   4   2  -6 902.073 203.639  11
   4   2  -6 1062.19 400.549   7
   4   2  -5 46893.0 1668.46  11
   4   2  -5 55114.7 2672.86   8
   4   2  -5 51329.4 2723.62   7
  -4  -2   5 52949.0 2767.62   2
  -4  -2   5 49314.7 2316.25   5
   4   2  -4 2639.86 389.071  11
  -4  -2   4 2530.37 487.569   5
   4   2  -4 2707.63 548.131   8
   4   2  -3 325.500 180.600  11
  -4  -2   3 207.373 155.216   5
  -4  -2   2 195673. 5059.52   5
   4   2  -2 182258. 4747.40  11
  -4  -2   2 198309. 5180.52  12
   4   2  -1 2156.14 426.177  11
  -4  -2   1 2002.47 419.169   5
  -4  -2   1 1886.24 410.474  12
   4   2   0 3811.50 606.583  11
  -4  -2   0 3472.36 523.141   5
  -4  -2   0 4310.57 648.644  12
  -4  -2  -1 22511.8 1445.34   5
   4   2   1 25252.3 1672.24  11
  -4  -2  -1 26063.8 1668.35  12
  -4  -2  -1 23889.1 1322.80   3
  -4  -2  -2 99711.9 3432.43   5
   4   2   2 94519.3 3714.05  11
  -4  -2  -2 94993.3 3582.38  12
  -4  -2  -2 102406. 3221.74   3
   4   2   3 1155.43 400.038  11
  -4  -2  -3 1276.65 323.020   3
  -4  -2  -3 1342.80 392.377  12
  -4  -2  -3 977.310 319.474   5
   4   2   4 486.908 331.491  11
  -4  -2  -4 373.986 182.116   3
  -4  -2  -4 320.014 140.046   5
  -4  -2  -4 194.139 62.4561  12
   4   2   5 52784.0 3121.94  11
  -4  -2  -5 56794.7 2949.12  12
   4   2   6 672.165 500.750  11
  -4  -2  -6 307.752 236.972  12
   4   2   7 21827.2 2138.94  11
  -4  -2  -7 16805.4 1700.86  12
   4   2   8 51746.2 3538.61  11
  -4  -2  -8 48320.5 3041.68  12
   4   2   9 22425.0 2408.41  11
  -4  -2  -9 20455.5 2012.12  12
  -4  -2 -10 25247.7 2296.87  12
   3   3 -14 2401.57 696.267   6
  -3  -3  14 2291.36 820.214   2
  -3  -3  13 536.916 313.322   5
  -3  -3  13 577.095 369.544   2
   3   3 -13 371.706 353.796   6
  -3  -3  12-69.7912 150.307   2
   3   3 -12 284.547 161.927   9
   3   3 -12 168.419 199.148   6
   3   3 -11 42118.2 2529.72   9
  -3  -3  11 39228.3 2774.47   2
   3   3 -11 45115.7 2799.55   6
  -3  -3  11 45026.9 2582.47   5
  -3  -3  10 5036.80 940.050   2
  -3  -3  10 3413.02 650.748   5
   3   3 -10 3996.83 737.054   9
   3   3 -10 4788.65 857.089   6
   3   3 -10 4007.18 846.620   7
  -3  -3   9 4803.67 861.060   2
   3   3  -9 6843.75 938.437   9
   3   3  -9 6025.94 987.030   7
  -3  -3   9 6380.93 724.357   1
  -3  -3   9 6059.44 846.044   5
   3   3  -8 168670. 5801.26   7
  -3  -3   8 166539. 5707.15   2
  -3  -3   8 179999. 5266.33   5
   3   3  -7 15916.5 1516.16   7
  -3  -3   7 16539.7 1517.47   2
  -3  -3   7 16057.3 1303.14   5
   3   3  -6 34391.9 2220.81   7
  -3  -3   6 32995.4 2139.31   2
  -3  -3   6 34060.7 1880.75   5
  -3  -3   5 269633. 6734.55   5
   3   3  -5 288036. 5537.79  11
   3   3  -5 275057. 7433.30   7
  -3  -3   5 281757. 7531.94   2
  -3  -3   4 41274.4 2019.21   5
   3   3  -4 44039.4 1617.61  11
   3   3  -4 37423.4 1010.77  10
   3   3  -4 46518.5 2396.49   8
   3   3  -4 43023.2 2345.00   7
  -3  -3   4 43494.2 2420.41   2
  -3  -3   3 15919.9 1211.11   5
   3   3  -3 16233.9 1023.29  11
   3   3  -3 16605.4 1384.09   8
  -3  -3   2 55040.5 2394.82   5
   3   3  -2 55847.7 2183.37  11
   3   3  -2 55433.2 2569.45   8
  -3  -3   1 128274. 4074.91   5
   3   3  -1 128675. 3860.52  11
  -3  -3   1 125779. 3850.49   3
  -3  -3   0 5238.33 738.491   5
   3   3   0 6204.21 759.198  11
  -3  -3   0 4192.38 332.141  10
  -3  -3   0 6149.22 767.243  12
  -3  -3   0 5576.66 709.300   3
   3   3   1 27634.9 1784.20  11
  -3  -3  -1 25700.6 1659.76  12
  -3  -3  -1 29536.4 1722.64   3
   3   3   2 30495.2 1994.49  11
  -3  -3  -2 31593.8 1883.84  12
  -3  -3  -2 29599.7 1765.18   3
   3   3   3 14610.5 1432.87  11
  -3  -3  -3 13775.2 1260.52  12
  -3  -3  -3 13747.0 1214.51   3
   3   3   4 60824.5 3199.17  11
  -3  -3  -4 57108.4 2781.84  12
  -3  -3  -4 62958.3 2847.95   3
   3   3   5 5427.95 987.526  11
  -3  -3  -5 4833.86 808.789  12
  -3  -3  -5 5470.20 829.302   3
   3   3   6 44465.6 3017.92  11
  -3  -3  -6 46645.6 2668.39  12
  -3  -3  -6 45390.5 2610.20   3
   3   3   7 9786.06 1475.67  11
  -3  -3  -7 10439.9 1267.07  12
  -3  -3  -7 10470.6 1302.03   3
   3   3   8 3290.73 941.261  11
  -3  -3  -8 2437.03 619.436  12
   3   3   9 8933.00 1571.32  11
  -3  -3  -9 8800.38 1234.32  12
   2   4 -14 106808. 5071.99   6
  -2  -4  13 549.185 347.770   2
   2   4 -13 590.028 336.602   6
   2   4 -12-219.139 178.018  12
   2   4 -12 256.312 266.568   9
   2   4 -12 397.155 331.392   6
   2   4 -11 120027. 4804.22   9
  -2  -4  11 121237. 5282.02   2
   2   4 -11 121230. 4791.61   6
  -2  -4  11 123042. 4380.36   5
  -2  -4  10 2753.95 709.193   2
  -2  -4  10 2455.76 533.464   5
   2   4 -10 2193.89 568.950   9
   2   4 -10 2021.87 556.443   6
   2   4  -9 8535.50 1123.73   9
  -2  -4   9 8160.25 1157.14   2
   2   4  -9 8850.19 1226.74   7
  -2  -4   9 7881.30 930.958   5
   2   4  -8 37388.7 2523.64   7
  -2  -4   8 36198.4 2464.17   2
  -2  -4   8 38559.8 2089.07   5
  -2  -4   7 1025.66 376.317   2
  -2  -4   7 1831.05 453.998   5
   2   4  -7 1762.22 533.621   7
  -2  -4   6 2458.70 495.331   5
  -2  -4   6 2660.24 612.134   2
   2   4  -6 2729.62 638.736   7
  -2  -4   5 268.296 139.916   5
  -2  -4   5 658.280 342.822   2
   2   4  -5 544.678 290.818   7
  -2  -4   4 2393.60 492.947   5
  -2  -4   4 1781.14 452.392   2
   2   4  -4 2439.73 209.307   1
   2   4  -4 3342.91 652.713   7
  -2  -4   3 33707.5 1903.60   5
   2   4  -3 31864.6 1545.11  11
   2   4  -3 29430.0 1904.63   8
   2   4  -3 30695.4 1881.38   7
  -2  -4   2-24.2875 94.7232   3
   2   4  -2 311.454 153.805  11
  -2  -4   2 105.272 38.7992  10
  -2  -4   2-75.0858 92.3994   5
   2   4  -2 45.7729 133.777   8
   2   4  -2 239.679 246.176   7
   2   4  -1 46940.9 2206.33  11
  -2  -4   1 45677.8 1246.17  10
   2   4  -1 44388.0 2320.67   8
  -2  -4   1 45368.7 2323.92   3
   2   4   0 35203.4 1993.80  11
   2   4   0 33100.6 1961.24   8
  -2  -4   0 34498.6 2010.49   3
   2   4   1 58.2084 156.900  11
  -2  -4  -1 277.202 188.931   3
   2   4   2 57110.6 2938.38  11
  -2  -4  -2 56469.4 2758.84   3
  -2  -4  -2 60005.5 2717.44  12
  -2  -4  -3-13.3397 78.2128   3
  -2  -4  -3-75.5863 170.090  12
   2   4   4 10662.5 1382.84  11
  -2  -4  -4 12954.7 1257.60  12
  -2  -4  -4 12799.2 1342.87   3
   2   4   5 9315.43 1311.31  11
  -2  -4  -5 10208.6 1137.98  12
  -2  -4  -5 10173.3 1238.01   3
   2   4   6 6505.98 1168.01  11
  -2  -4  -6 5287.36 944.599   3
  -2  -4  -6 6132.21 905.698  12
   2   4   7 35546.7 2901.25  11
   2   4   7 31429.5 2909.00   1
  -2  -4  -7 36924.2 2350.27  12
  -2  -4  -7 39587.0 2726.22   3
   2   4   8 1328.28 666.887   1
  -2  -4  -8 425.591 338.002   3
   2   4   9 8223.21 1618.13   1
  -2  -4  -9 7749.06 1320.88   3
   1   5 -13 2080.71 604.757  12
  -1  -5  13 3149.38 877.312   2
  -1  -5  12 1258.13 558.645   2
   1   5 -12 1833.07 563.365  12
   1   5 -12 1937.77 628.123   9
   1   5 -12 1294.31 479.691   6
  -1  -5  11 24.6095 83.2058   2
   1   5 -11 316.217 251.954   6
  -1  -5  10 666.856 352.372   2
  -1  -5  10 1427.85 384.146   5
   1   5 -10 1125.35 484.597   9
   1   5 -10 1546.94 490.139   6
   1   5  -9 42309.2 2738.29   9
  -1  -5   9 40687.0 2786.19   2
  -1  -5   9 42170.6 2185.07   5
  -1  -5   8 1438.28 432.870   2
  -1  -5   8 3123.70 571.733   5
   1   5  -8 2967.48 691.612   9
   1   5  -8 2620.84 671.310   7
  -1  -5   7 7145.86 840.716   5
   1   5  -7 7550.54 1102.86   7
  -1  -5   7 6800.01 1020.58   2
  -1  -5   6 69883.6 2863.04   5
   1   5  -6 71777.0 3398.25   7
  -1  -5   6 73066.6 3415.74   2
  -1  -5   5 2980.75 560.227   5
  -1  -5   5 3118.73 642.482   2
   1   5  -5 2575.41 556.266   7
  -1  -5   4 8095.60 957.379   5
  -1  -5   4 8688.86 768.359  10
   1   5  -4 10066.8 1085.75   7
  -1  -5   4 8147.37 1018.85   2
  -1  -5   3 18184.3 1448.83   5
  -1  -5   3 19536.4 1071.06  10
   1   5  -3 18662.7 1418.06   7
  -1  -5   3 18791.3 1533.70   2
  -1  -5   2 29823.5 1333.12  10
   1   5  -2 29941.0 1903.66   8
   1   5  -2 28402.1 1715.77   7
   1   5  -2 29619.6 1033.24   1
  -1  -5   2 31958.9 2055.11   3
  -1  -5   1 11743.1 833.495  10
   1   5  -1 11256.3 1132.64   8
   1   5  -1 9489.89 752.997   1
   1   5  -1 11719.2 1060.99   7
  -1  -5   1 10699.3 1168.61   3
   1   5   0 10101.6 1088.85   8
   1   5   0 7853.92 796.895   1
   1   5   0 9319.14 938.639   7
  -1  -5   0 9614.23 1127.96   3
   1   5   1 37824.7 2138.04   8
   1   5   1 33648.2 1943.47   1
  -1  -5  -1 35546.0 2295.21   3
   1   5   2 2329.48 567.543   1
  -1  -5  -2 2742.25 648.622   3
   1   5   2 2338.27 514.377   8
   1   5   3 39856.0 2495.41   1
  -1  -5  -3 43060.0 2661.41   3
   1   5   4 19911.4 1856.51   1
  -1  -5  -4 22540.5 1959.39   3
   1   5   5 13252.7 1615.54   1
  -1  -5  -5 15140.8 1641.40   3
   1   5   6 62730.2 3371.41   4
   1   5   6 57704.9 3606.61   1
  -1  -5  -6 61433.2 3526.20   3
   1   5   7 403.439 380.287   1
  -1  -5  -7 97.7162 183.203   3
   1   5   7 200.558 171.279   4
   1   5   8 4888.19 1099.64   1
  -1  -5  -8 3960.91 932.917   3
   1   5   9 19012.2 2281.31   1
  -1  -5  -9 22402.0 2366.86   3
   0   6 -13 704.734 378.451  12
   0   6 -12 54420.9 3596.29   9
   0  -6  12 47989.2 3519.14   2
   0   6 -12 43961.2 3096.45  12
   0   6 -11 22650.3 2210.60   9
   0  -6  11 24692.5 2394.18   2
   0  -6  10 139.586 155.295   2
   0   6 -10 604.000 407.796   9
   0   6  -9 41399.1 2900.88   9
   0  -6   9 41301.4 2882.32   2
   0   6  -8 25616.7 2213.09   9
   0  -6   8 22983.4 2057.01   2
   0  -6   8 26782.1 1699.72   5
   0  -6   7 966.993 368.725   2
   0  -6   7 1202.93 354.443   5
   0   6  -7 1298.96 503.789   9
   0   6  -7 1281.77 348.563   4
   0  -6   6 2708.43 639.741   2
   0  -6   6 3039.78 606.949  10
   0  -6   6 3410.72 603.278   5
   0   6  -6 3358.01 764.268   7
   0   6  -6 3500.11 616.471   4
   0  -6   5 148006. 4728.52   5
   0  -6   5 140214. 4451.19  10
   0   6  -5 151364. 5160.57   7
   0  -6   5 142701. 5147.38   2
   0  -6   4 12837.4 1233.81   5
   0  -6   4 11840.7 1063.77  10
   0   6  -4 14233.9 1319.96   4
   0   6  -4 13072.7 1278.36   7
   0  -6   4 11133.5 1238.37   2
   0  -6   3 109570. 4396.63   3
   0  -6   3 108040. 3483.87  10
   0   6  -3 111513. 3880.50   7
   0  -6   3 103005. 3949.72   2
   0  -6   2 96190.6 3195.58  10
   0   6  -2 97662.6 3407.86   7
   0  -6   2 96268.3 4058.04   3
   0  -6   1 1818.26 516.106   3
   0   6  -1 1715.44 286.974   1
   0  -6   1 1527.94 354.130  10
   0   6  -1 1478.14 385.203   7
   0  -6   0 182201. 6110.66   3
   0  -6   0 197836. 5402.07  10
   0   6   0 191411. 5475.82   8
   0   6   0 189493. 4888.07   7
   0   6   0 190197. 4633.77   1
   0   6   1 19217.6 1477.24   8
   0   6   1 18472.5 1203.42   7
   0   6   1 16699.2 1217.26   1
   0  -6  -1 17649.6 1733.81   3
   0  -6  -2 3465.44 780.727   3
   0   6   2 3180.75 630.307   8
   0   6   2 3557.16 609.917   1
   0   6   2 4871.92 887.801   4
   0   6   3 14193.9 1547.04   4
   0   6   3 14779.3 1323.74   8
   0   6   3 14054.5 1333.01   1
   0  -6  -3 14079.0 1631.98   3
   0  -6  -4 108.609 264.796   3
   0   6   4-21.0471 170.782   1
   0   6   4-37.2318 110.795   8
   0   6   4 127.671 382.635   4
   0  -6  -5 831.940 480.698   3
   0   6   5 1415.63 517.078   1
   0   6   5 1498.26 553.922   4
   0  -6  -6 164.492 286.600   3
   0   6   6 544.959 404.887   1
   0   6   6 114.901 175.640   4
   0  -6  -7 51.7067 137.710   3
   0   6   7 25.3066 302.864   1
   0   6   7 38.3768 181.211   4
   0  -6  -8 465.880 382.517   3
   0   6   8 460.451 398.112   1
  -1   7 -11 4187.38 982.977  12
   1  -7  11 5294.49 1144.31   2
  -1   7 -11 4480.57 1035.30   9
   1  -7  10 3987.32 925.357   2
  -1   7 -10 6879.15 1267.24   9
  -1   7  -9 18046.5 1998.33   9
   1  -7   9 18142.0 1953.49   2
   1  -7   8 1626.13 589.139   2
  -1   7  -8 1609.34 579.131   9
   1  -7   7 18124.6 1718.49  10
  -1   7  -7 15425.3 1765.25   9
   1  -7   7 16878.0 1764.98   2
   1  -7   6 5140.44 771.527   5
   1  -7   6 4170.92 838.381   2
   1  -7   6 5275.01 868.193  10
  -1   7  -6 6371.14 1102.90   9
  -1   7  -6 4821.32 802.221   4
   1  -7   5 11634.9 1205.86   5
   1  -7   5 11216.6 1215.30  10
  -1   7  -5 11024.7 1382.69   9
  -1   7  -5 11262.8 1275.01   4
   1  -7   5 10536.2 1293.18   2
   1  -7   4 5493.40 826.584   5
   1  -7   4 5434.56 801.188  10
   1  -7   4 5440.69 879.772   2
  -1   7  -4 6041.21 956.142   4
   1  -7   3 11584.8 1164.09  10
  -1   7  -3 12602.3 1434.54   4
  -1   7  -3 13380.4 1303.89   7
   1  -7   3 12052.6 1456.47   3
   1  -7   2 12842.3 1213.06  10
  -1   7  -2 14528.7 1538.02   4
  -1   7  -2 14056.6 1242.59   7
   1  -7   2 13054.0 1505.30   3
   1  -7   1 1937.32 567.428   3
   1  -7   1 1743.33 445.786  10
  -1   7  -1 2087.01 445.564   7
  -1   7  -1 2798.51 731.232   4
   1  -7   0 49044.5 2614.79  10
  -1   7   0 52134.0 3156.82   4
   1  -7   0 47390.4 3032.43   3
   1  -7  -1 345.119 232.697   3
   1  -7  -1 554.086 279.373  10
  -1   7   1 753.847 256.878   1
  -1   7   1 1133.47 457.953   4
  -1   7   2 8250.85 1232.38   4
   1  -7  -2 8517.83 1355.66   3
  -1   7   2 8271.77 928.392   1
  -1   7   3 41420.7 2885.16   4
  -1   7   3 41036.0 2346.00   1
   1  -7  -3 43484.3 3165.99   3
   1  -7  -4 5170.19 1075.18   3
  -1   7   4 5201.20 991.535   4
  -1   7   4 4030.44 750.586   1
  -1   7   5 19254.1 2017.47   4
  -1   7   5 18065.3 1737.09   1
   1  -7  -5 20484.1 2249.76   3
  -1   7   6 31.0269 124.345   4
  -1   7   6 84.6232 131.372   1
   1  -7  -7 7006.65 1400.74   3
  -1   7   7 5809.70 1076.13   1
  -1   7   7 6250.04 1213.22   4
  -1   7   8 15561.7 1885.89   4
   2  -8  10 10665.2 1616.03   2
  -2   8  -9 32166.8 2886.21   9
   2  -8   9 34736.8 2851.68   2
   2  -8   8 3266.65 825.805   2
  -2   8  -8 4283.01 1023.11   9
   2  -8   7 8466.94 1256.03  10
  -2   8  -7 10077.1 1512.66   9
   2  -8   7 8333.43 1285.18   2
   2  -8   6 55496.7 3192.97  10
  -2   8  -6 52847.9 3423.12   9
  -2   8  -6 56720.4 3072.20   4
   2  -8   6 54241.4 3320.56   2
   2  -8   5 7111.73 1069.91  10
   2  -8   5 6284.90 1036.63   2
  -2   8  -5 4687.47 980.645   9
  -2   8  -5 5488.05 976.417   4
   2  -8   4 67864.9 3399.23  10
  -2   8  -4 68155.4 3701.79   9
  -2   8  -4 71661.8 3761.04   4
   2  -8   4 70444.8 3415.44   2
   2  -8   3 8870.98 1149.48  10
  -2   8  -3 8150.18 1185.27   9
  -2   8  -3 9695.72 1385.96   4
   2  -8   3 9744.69 1380.65   3
   2  -8   2 701.624 371.887   3
   2  -8   2 449.940 154.544  10
  -2   8  -2 972.511 475.310   4
   2  -8   1 77931.3 3665.64  10
  -2   8  -1 88486.0 4533.10   4
   2  -8   1 81314.4 4223.76   3
   2  -8   0 784.985 413.094   3
   2  -8   0 482.441 317.278  10
  -2   8   0-46.2095 156.389   4
   2  -8  -1 6697.78 1259.54   3
   2  -8  -1 7781.59 1167.41  10
  -2   8   1 8937.11 1408.87   4
   2  -8  -2 38447.1 2783.11  10
   2  -8  -2 37242.3 3048.25   3
  -2   8   2 39395.3 3069.57   4
   2  -8  -3 6229.20 1280.38   3
   2  -8  -3 6013.95 1130.39  10
  -2   8   3 7169.75 1291.83   4
   2  -8  -4 103.658 277.931   3
  -2   8   4 412.650 328.170   4
   2  -8  -5 7953.13 1518.03   3
  -2   8   5 8128.97 1414.01   4
  -2   8   6 17739.3 2118.25   4
  -2   8   6 17330.6 1817.66   1
   3  -9   8 38.0310 125.401  10
   3  -9   7 17159.4 1956.03  10
  -3   9  -7 18318.7 2157.95   9
   3  -9   6 1828.85 625.360  10
  -3   9  -6 1363.56 586.507   9
   3  -9   5 502.328 312.783  10
  -3   9  -5 862.506 492.592   9
  -3   9  -5 1029.37 465.552   4
   3  -9   4 12253.5 1528.93  10
  -3   9  -4 12704.6 1621.21   9
  -3   9  -4 12409.9 1625.82   4
   3  -9   3 163.637 186.904  10
  -3   9  -3-153.895 249.643   4
   3  -9   2 273.613 282.238   3
   3  -9   2 294.056 177.268  10
  -3   9  -2 190.611 346.110   4
   3  -9   1 1676.69 587.448   3
   3  -9   1 787.069 396.008  10
  -3   9  -1 2357.86 801.855   4
   3  -9   0 76.8542 148.706   3
   3  -9   0 157.555 261.829  10
  -3   9   0 363.312 482.980   4
   3  -9  -1 1920.94 740.614   3
   3  -9  -1 3213.03 823.496  10
  -3   9   1 4049.02 1031.79   4
   3  -9  -2 10131.4 1656.37   3
   3  -9  -2 10537.3 1540.50  10
  -3   9   2 10966.5 1749.44   4
   3  -9  -3 548.681 462.374   3
   3  -9  -3 396.081 271.724  10
  -3   9   3-38.9566 207.237   4
   3  -9  -4 341.788 304.711  10
   4 -10   5 1725.64 619.325  10
   4 -10   4 9925.52 1503.34  10
  -4  10  -4 8114.83 1393.59   4
   4 -10   3 13605.8 1740.86  10
  -4  10  -3 15615.8 2014.22   4
   4 -10   2 6905.71 1214.15  10
  -4  10  -2 8961.07 1522.00   4
   4 -10   2 6707.66 1274.12   3
   4 -10   1 560.358 371.814   3
   4 -10   1 345.333 160.408  10
   4 -10   0 1661.14 602.756  10
   4 -10  -1 14729.7 1879.78  10
  10  -3  -6 32384.3 2558.26  11
  10  -3  -5 1717.58 631.584  11
  10  -3  -4 7943.53 1261.37  11
 -10   3  -1 10142.4 1437.29  12
   9  -2  -9 8032.09 1245.25   6
   9  -2  -8 1009.32 355.297   6
   9  -2  -7 24228.7 2011.10  11
   9  -2  -7 27237.9 2152.31   6
  -9   2   7 27180.8 2292.50   5
  -9   2   6 32.3536 180.455   5
   9  -2  -6 127.527 81.2435  11
  -9   2   5 2379.53 615.334   5
   9  -2  -5 2220.18 590.876  11
  -9   2   4 429.591 237.891   5
   9  -2  -4 407.121 305.276  11
   9  -2  -3 3832.70 857.498  11
   9  -2  -2 724.254 509.476  11
   9  -2  -1 462.626 254.902  11
  -9   2   1 235.319 165.053  12
   9  -2   0 19270.3 2020.56  11
  -9   2   0 20202.8 1857.54  12
   9  -2   1 4043.88 938.318  11
  -9   2  -1 5226.47 981.020  12
   9  -2   2 230.510 187.341  11
  -9   2  -2 277.405 240.545  12
  -9   2  -3-13.8664 124.325  12
  -8   1  10 7773.40 1306.22   5
   8  -1 -10 7478.02 1244.97   6
   8  -1  -9 21560.9 2047.62   6
  -8   1   9 26620.3 2305.28   5
  -8   1   8 2971.75 753.428   5
   8  -1  -8 1829.82 600.644   6
   8  -1  -7 7306.07 973.542  11
  -8   1   7 6764.83 1086.51   5
   8  -1  -6 15731.4 1448.78  11
   8  -1  -6 17053.2 1790.62   7
  -8   1   6 18333.4 1722.29   5
  -8   1   5 2731.50 630.926   5
   8  -1  -5 2358.75 578.688  11
  -8   1   4 871.847 394.244   5
   8  -1  -4 629.865 360.022  11
   8  -1  -4 734.427 330.318  10
  -8   1   3 1423.85 429.982   5
   8  -1  -3 1134.28 412.248  11
   8  -1  -3 1019.06 337.834  10
  -8   1   3 1430.58 438.870  12
  -8   1   2 189.572 151.045   5
   8  -1  -2 54.4899 307.380  11
  -8   1   2 217.852 156.768  12
   8  -1  -1 4428.23 848.534  11
  -8   1   1 4781.20 805.774  12
   8  -1   0 15953.3 1677.34  11
  -8   1   0 14471.9 1493.62  12
   8  -1   1 1112.36 450.990  11
  -8   1  -1 1156.99 449.385  12
   8  -1   2 1833.07 592.734  11
  -8   1  -2 2024.52 607.890  12
   8  -1   3 31422.1 2607.04  11
  -8   1  -3 37796.3 2734.55  12
   8  -1   4 19876.7 2142.73  11
  -8   1  -4 24129.2 2256.39  12
   8  -1   5 751.071 540.897  11
  -8   1  -5 1135.07 520.537  12
  -7   0  11 26658.8 2373.34   5
   7   0 -11 28221.8 2439.52   6
   7   0 -10 63925.0 3608.58   6
  -7   0  10 60792.6 3542.18   5
  -7   0   9 339.761 273.426   5
   7   0  -9 578.291 404.680   7
   7   0  -9 537.982 283.202   6
   7   0  -8 15043.5 1601.61   7
  -7   0   8 15048.3 1601.52   5
   7   0  -7 49968.6 2353.43  11
   7   0  -7 45506.1 2931.07   7
  -7   0   7 49323.6 2874.80   5
   7   0  -6 29870.0 1828.89  11
   7   0  -6 31663.1 2102.53  10
   7   0  -6 32379.7 2457.65   7
  -7   0   6 29915.9 2124.39   5
  -7   0   5 254.287 264.431   5
   7   0  -5-8.74913 159.452  11
   7   0  -5 280.925 226.883  10
   7   0  -5 223.445 204.533   8
   7   0  -4 7272.65 931.004  11
  -7   0   4 7494.73 910.161  12
   7   0  -4 6053.94 782.670  10
   7   0  -4 7281.95 988.035   8
  -7   0   4 7127.11 944.258   5
   7   0  -3 10212.5 1136.46  11
   7   0  -3 10167.9 972.247  10
  -7   0   3 11328.1 1135.03  12
  -7   0   3 10739.9 1129.00   5
   7   0  -2 19552.0 1618.31  11
   7   0  -2 21117.2 1396.15  10
  -7   0   2 17567.9 1465.77  12
  -7   0   2 16924.2 1402.57   5
  -7   0   1 1150.02 337.203   5
   7   0  -1 1202.06 390.977  11
   7   0  -1 1423.16 385.669  10
  -7   0   1 949.795 368.587  12
  -7   0   0 330.247 158.638   5
   7   0   0 903.553 475.278  11
   7   0   0 651.320 283.174  10
  -7   0   0 157.856 183.476  12
   7   0   1 94590.2 4159.69  11
   7   0   1 93391.9 3448.29  10
  -7   0  -1 93197.3 3970.31  12
   7   0   2 2982.90 707.845  11
  -7   0  -2 1804.26 509.543  12
   7   0   3 8174.18 1245.78  11
  -7   0  -3 8540.30 1196.02  12
   7   0   4 44428.1 3043.71  11
  -7   0  -4 38517.1 2723.42  12
   7   0   5 695.186 465.391  11
  -7   0  -5-1.95523 189.466  12
   7   0   6 12033.1 1667.75  11
  -7   0  -6 10660.9 1492.89  12
  -6  -1  12 230.007 273.683   5
   6   1 -12 1032.77 507.611   6
   6   1 -11 10471.2 1328.29   7
   6   1 -11 8649.72 1311.49   6
  -6  -1  11 12464.1 1534.03   5
   6   1 -10 4169.17 872.003   6
  -6  -1  10 2888.16 728.252   5
   6   1 -10 2627.03 650.378   7
  -6  -1   9 1103.00 409.969   5
   6   1  -9 597.671 284.770   7
  -6  -1   8 3871.34 773.735   5
   6   1  -8 3983.21 842.852   7
  -6  -1   7 4968.52 836.517   5
   6   1  -7 5340.85 971.794   7
  -6  -1   6 544.122 289.592   5
   6   1  -6 447.533 221.219  11
   6   1  -6 877.472 401.594   8
   6   1  -6 471.276 260.908   7
   6   1  -5 5682.28 722.264  11
   6   1  -5 6189.32 721.448  10
   6   1  -5 5845.99 927.337   8
  -6  -1   5 6550.07 904.863   5
   6   1  -4 8260.76 902.665  11
   6   1  -4 8665.15 760.047  10
   6   1  -4 6486.67 920.135   8
  -6  -1   4 8303.10 984.089   5
  -6  -1   3 812.955 372.998   5
   6   1  -3 986.431 364.020  11
  -6  -1   3 555.550 242.199  12
  -6  -1   2 138.670 92.2704   5
   6   1  -2 450.553 243.360  11
  -6  -1   2 455.794 237.429  12
   6   1  -1 9737.25 1085.58  11
  -6  -1   1 9045.89 1047.73  12
  -6  -1   1 10431.0 1031.30   5
  -6  -1   0 37046.6 1939.15   5
   6   1   0 34141.1 2174.22  11
  -6  -1   0 34465.6 2133.94  12
   6   1   1 3017.80 676.326  11
  -6  -1  -1 2741.22 496.872   5
  -6  -1  -1 1259.79 428.046  12
  -6  -1  -2 44486.9 2074.11   5
   6   1   2 46520.0 2772.52  11
  -6  -1  -2 47821.1 2695.95  12
   6   1   3 39532.8 2644.55  11
  -6  -1  -3 46038.1 2728.40  12
   6   1   4 2092.81 645.487  11
  -6  -1  -4 1916.01 594.470  12
   6   1   5 14692.0 1716.28  11
  -6  -1  -5 13390.3 1551.37  12
   6   1   6 12379.5 1678.98  11
  -6  -1  -6 12783.2 1559.07  12
   6   1   7 4246.45 1022.15  11
  -6  -1  -7 2614.20 728.553  12
   5   2 -13 23427.8 2285.47   6
  -5  -2  13 21379.9 2063.37   5
  -5  -2  12 953.653 439.163   5
  -5  -2  12 1189.05 507.090   2
   5   2 -12 588.773 340.693   6
   5   2 -11 28155.8 2320.21   7
  -5  -2  11 31329.4 2654.01   2
   5   2 -11 27896.1 2306.85   6
  -5  -2  11 27776.6 2229.13   5
  -5  -2  10 621.962 302.396   5
  -5  -2  10 728.225 375.867   2
   5   2 -10 1377.39 419.485   9
   5   2 -10 1477.89 624.451   7
   5   2 -10 198.117 283.085   6
  -5  -2   9 5592.03 1046.92   2
   5   2  -9 5773.69 984.468   7
  -5  -2   9 5858.15 936.259   5
   5   2  -8 24072.4 2053.03   7
  -5  -2   8 24564.4 2128.00   2
  -5  -2   8 26798.4 1957.75   5
   5   2  -7 27552.7 2177.14   7
  -5  -2   7 28263.0 2240.74   2
  -5  -2   7 25819.7 1877.98   5
   5   2  -6 13211.7 895.888  11
   5   2  -6 11662.1 1383.40   7
  -5  -2   6 14582.7 1338.71   5
   5   2  -5 19849.5 1195.71  11
   5   2  -5 21187.5 1725.73   8
   5   2  -5 19087.5 1719.27   7
  -5  -2   5 20136.5 1562.59   5
   5   2  -4 119020. 3548.80  11
   5   2  -4 120540. 4347.11   8
  -5  -2   4 116733. 4060.35   5
  -5  -2   3 74680.1 3043.72   5
   5   2  -3 78275.7 2836.25  11
   5   2  -3 77614.3 3290.97   8
   5   2  -2 4462.08 649.119  11
  -5  -2   2 3967.01 615.721   5
  -5  -2   2 3538.13 631.118  12
  -5  -2   1 131275. 4113.57   5
   5   2  -1 133272. 4259.02  11
  -5  -2   1 129111. 4363.38  12
  -5  -2   0 89847.7 3268.64   5
   5   2   0 90766.9 3560.95  11
  -5  -2   0 94620.0 3639.61  12
  -5  -2  -1 26816.7 1645.88   5
   5   2   1 24276.0 1788.45  11
  -5  -2  -1 25559.9 1826.65  12
  -5  -2  -2 9510.96 976.917   5
   5   2   2 8452.47 1108.10  11
  -5  -2  -2 10394.1 1185.15  12
  -5  -2  -3 44416.1 2243.82   5
   5   2   3 39362.6 2601.01  11
  -5  -2  -3 45875.2 2643.09  12
  -5  -2  -4 51966.3 2514.62   5
   5   2   4 46453.4 2959.56  11
  -5  -2  -4 46630.5 2787.13  12
   5   2   5 24520.0 2206.47  11
  -5  -2  -5 23578.3 2017.22  12
   5   2   6 16873.6 1910.18  11
  -5  -2  -6 17405.7 1791.58  12
   5   2   7 48421.5 3465.02  11
  -5  -2  -7 50037.7 3202.81  12
   5   2   8 23123.5 2461.41  11
  -5  -2  -8 20437.9 2078.46  12
  -4  -3  14 28184.1 2743.84   2
  -4  -3  14 30590.3 2435.35   5
  -4  -3  13 8509.95 1443.69   2
   4   3 -13 8020.29 1313.05   6
  -4  -3  13 10409.3 1363.67   5
  -4  -3  12 7670.10 1300.60   2
   4   3 -12 7596.87 1080.68   9
   4   3 -12 9896.59 1388.33   6
  -4  -3  12 7012.84 1097.65   5
  -4  -3  11 6526.17 1150.29   2
   4   3 -11 6889.38 1004.18   9
   4   3 -11 8814.69 1320.53   7
   4   3 -11 7748.47 1197.05   6
  -4  -3  11 7698.63 1094.66   5
   4   3 -10 97742.8 4074.20   9
   4   3 -10 106077. 4713.81   7
  -4  -3  10 91709.5 4452.73   2
  -4  -3  10 106460. 4226.13   5
  -4  -3   9 2780.22 623.546   5
  -4  -3   9 3143.71 737.865   2
   4   3  -9 3370.83 778.019   7
   4   3  -8 10120.1 1319.18   7
  -4  -3   8 9516.93 1263.37   2
  -4  -3   8 10980.8 1184.05   5
   4   3  -7 47248.1 2817.85   7
  -4  -3   7 44529.6 2759.70   2
  -4  -3   7 44479.3 2426.63   5
  -4  -3   6 789.441 321.901   5
  -4  -3   6 1150.33 429.180   2
   4   3  -6 1020.27 439.447   7
  -4  -3   5 97612.2 3662.01   5
   4   3  -5 101892. 2866.25  11
   4   3  -5 103409. 4091.72   8
   4   3  -5 103294. 4171.97   7
   4   3  -4 1167.02 289.274  11
  -4  -3   4 1383.80 413.984   5
   4   3  -4 436.087 281.673   8
   4   3  -4 798.365 357.707   7
  -4  -3   3 65057.9 2791.75   5
   4   3  -3 64914.8 2439.77  11
   4   3  -3 65494.0 3042.32   8
  -4  -3   2 8622.72 963.307   5
   4   3  -2 9190.22 917.283  11
   4   3  -2 7405.92 959.993   8
  -4  -3   1 81936.1 3225.21   5
   4   3  -1 82015.5 3133.89  11
  -4  -3   1 82986.6 3344.36  12
  -4  -3   0 20859.8 1565.00   5
   4   3   0 22000.2 1598.86  11
  -4  -3   0 20067.2 1553.88  12
  -4  -3   0 19721.6 1367.43   3
  -4  -3  -1 6975.73 929.922   5
   4   3   1 7213.65 973.501  11
  -4  -3  -1 5939.80 860.670  12
  -4  -3  -1 5918.62 768.802   3
  -4  -3  -2 30342.6 2076.09   5
   4   3   2 31539.8 2169.38  11
  -4  -3  -2 28588.2 1958.23  12
  -4  -3  -2 33144.8 1912.34   3
   4   3   3 952.801 341.929  11
  -4  -3  -3 566.059 248.148   3
  -4  -3  -3 520.771 275.394   5
  -4  -3  -3 716.549 313.167  12
   4   3   4 4738.91 924.757  11
  -4  -3  -4 5819.42 911.314  12
  -4  -3  -4 4787.09 770.819   3
   4   3   5 12739.3 1592.90  11
  -4  -3  -5 12877.4 1439.09  12
   4   3   6 4241.23 1006.21  11
  -4  -3  -6 2666.08 676.475  12
   4   3   7 838.299 523.718  11
  -4  -3  -7 2256.97 673.927  12
   4   3   8 1461.66 563.936  11
  -4  -3  -8 804.058 394.095  12
  -4  -3  -9 1075.98 466.764  12
  -3  -4  13 486.914 340.710   2
   3   4 -13-111.081 205.633   9
   3   4 -13 336.364 345.183   6
  -3  -4  12 135.073 138.791   5
  -3  -4  12 617.625 406.082   2
   3   4 -12 499.229 297.689   9
   3   4 -12 236.667 216.781   6
  -3  -4  11 1671.18 511.260   5
  -3  -4  11 989.911 473.129   2
   3   4 -11 1241.27 460.018   9
   3   4 -11 1928.74 613.363   6
  -3  -4  10 1518.96 480.641   5
  -3  -4  10 2062.55 637.323   2
   3   4 -10 1744.03 532.447   9
   3   4 -10 1712.28 601.285   7
   3   4  -9 9330.00 1336.36   7
  -3  -4   9 8257.42 1222.23   2
  -3  -4   9 8766.26 1056.77   5
   3   4  -8 17699.2 1750.42   7
  -3  -4   8 16929.1 1704.00   2
  -3  -4   8 18200.4 1502.46   5
   3   4  -7 12073.9 1393.85   7
  -3  -4   7 12581.9 1426.49   2
  -3  -4   7 13266.9 1256.31   5
  -3  -4   6 5332.39 770.823   5
  -3  -4   6 4897.51 883.003   2
   3   4  -6 4904.14 861.904   7
  -3  -4   5 147629. 4640.09   5
   3   4  -5 139827. 3636.99  11
   3   4  -5 151340. 5094.38   7
  -3  -4   5 143099. 5117.92   2
  -3  -4   4 21674.3 1598.65   5
   3   4  -4 21479.4 1270.88  11
   3   4  -4 21906.1 1738.99   8
   3   4  -4 21885.9 1729.20   7
  -3  -4   3 19377.5 1517.99   5
   3   4  -3 22532.2 1386.04  11
   3   4  -3 19791.3 1645.16   8
   3   4  -3 22639.6 1735.32   7
  -3  -4   2 233763. 6577.25   5
   3   4  -2 244721. 6094.60  11
   3   4  -2 237087. 6688.25   8
  -3  -4   1 14539.3 1393.50   5
   3   4  -1 16827.8 1350.10  11
   3   4  -1 17970.1 1530.02   8
  -3  -4   1 16788.2 1386.47   3
  -3  -4   0 16908.7 1530.33   5
   3   4   0 16823.9 1448.37  11
  -3  -4   0 17996.4 1453.20   3
   3   4   1 40279.2 2395.13  11
  -3  -4  -1 35633.8 2189.06  12
  -3  -4  -1 38183.2 2207.02   3
   3   4   2 1381.08 483.586  11
  -3  -4  -2 1073.07 374.423   3
  -3  -4  -2 907.233 347.098  12
   3   4   3 41414.4 2744.10  11
  -3  -4  -3 45011.7 2543.13  12
  -3  -4  -3 42146.4 2495.69   3
   3   4   4 234.402 309.812  11
  -3  -4  -4 154.447 159.904   3
  -3  -4  -4 48.0637 98.0662  12
  -3  -4  -5 1110.46 443.875  12
   3   4   5 627.092 468.315  11
  -3  -4  -5 1035.88 421.543   3
   3   4   6 49636.4 3494.23  11
  -3  -4  -6 45403.0 2786.10  12
  -3  -4  -6 45105.7 2902.81   3
   3   4   7 38470.8 3199.36  11
  -3  -4  -7 34804.0 2485.53  12
   3   4   8 8044.25 1463.93  11
   3   4   8 6513.30 1464.31   1
  -3  -4  -8 5705.00 990.566  12
   2   5 -13 471.276 276.431  12
  -2  -5  13 730.079 439.831   2
   2   5 -13 144.811 146.472   9
   2   5 -13 194.562 240.417   6
  -2  -5  12 881.724 570.126   2
   2   5 -12 796.116 402.869   9
   2   5 -12 272.898 230.035   6
   2   5 -11 56055.6 3423.48   9
  -2  -5  11 56266.9 3689.12   2
   2   5 -11 57955.2 3307.24   6
  -2  -5  11 57054.4 2912.58   5
  -2  -5  10 563.630 283.010   5
  -2  -5  10 853.558 444.908   2
   2   5 -10 1351.32 519.094   9
  -2  -5   9 6555.53 1132.61   2
   2   5  -9 6344.91 1079.16   9
   2   5  -9 7379.10 1185.56   7
  -2  -5   9 6529.91 907.052   5
   2   5  -8 39571.7 2713.15   7
  -2  -5   8 36863.5 2646.91   2
  -2  -5   8 41761.1 2321.91   5
  -2  -5   7 2823.67 583.096   5
  -2  -5   7 3688.71 809.281   2
   2   5  -7 3505.84 748.805   7
  -2  -5   6 1501.71 439.577   5
  -2  -5   6 1790.12 551.226   2
   2   5  -6 1967.95 558.416   7
  -2  -5   5 10140.6 1109.85   5
   2   5  -5 9781.28 1155.27   7
  -2  -5   5 8181.81 1089.12   2
  -2  -5   4 39136.9 2268.52   5
   2   5  -4 43162.1 2393.05   7
  -2  -5   4 37705.2 2386.62   2
  -2  -5   3 5832.36 871.937   5
   2   5  -3 5381.54 855.521   8
   2   5  -3 6532.51 893.089   7
  -2  -5   2 20062.2 1668.78   5
   2   5  -2 21047.3 1697.32   8
   2   5  -2 21643.7 1635.14   7
  -2  -5   2 23153.0 1777.11   3
   2   5  -1 7938.34 1032.96   8
  -2  -5   1 7212.28 977.479   3
   2   5   0 21196.2 1731.47  11
   2   5   0 22230.6 1753.55   8
  -2  -5   0 21535.3 1721.10   3
  -2  -5  -1 114348. 4442.46   3
   2   5   1 117237. 4599.03  11
   2   5   1 117308. 4360.06   8
   2   5   2 6616.12 1046.65  11
  -2  -5  -2 6834.44 1024.30   3
   2   5   3 2828.20 771.055  11
  -2  -5  -3 4015.27 820.390   3
   2   5   4 81201.8 4304.29  11
  -2  -5  -4 90010.9 4204.95   3
  -2  -5  -5 1863.26 621.586   3
   2   5   5 2002.87 679.482   1
   2   5   6 8241.22 1428.66   1
  -2  -5  -6 9049.39 1218.67  12
  -2  -5  -6 11508.0 1539.25   3
   2   5   7 4262.54 1106.66   1
  -2  -5  -7 5888.61 1157.96   3
   2   5   8 1028.26 414.571   1
  -2  -5  -8 1870.64 706.031   3
   1   6 -13 2970.29 782.238  12
  -1  -6  12 1587.30 677.121   2
   1   6 -12 19.7232 106.556   9
  -1  -6  11 6015.41 1195.69   2
   1   6 -11 3718.62 896.804   9
   1   6 -10 14285.3 1748.38   9
  -1  -6  10 12746.8 1684.90   2
   1   6 -10 11725.5 1371.10   6
  -1  -6   9 5034.50 1029.63   2
   1   6  -9 3638.94 886.521   9
  -1  -6   9 5447.41 840.957   5
  -1  -6   8 6912.38 923.291   5
  -1  -6   8 6718.72 1155.98   2
   1   6  -8 6301.91 1083.38   7
  -1  -6   7 47342.5 2506.94   5
   1   6  -7 49528.3 2979.57   7
  -1  -6   7 44322.0 2926.39   2
  -1  -6   6 2890.43 606.992   5
  -1  -6   6 1938.67 592.489   2
   1   6  -6 2337.46 588.775   7
  -1  -6   5 37936.6 2273.18   5
   1   6  -5 36608.5 2304.68   7
  -1  -6   5 34485.2 2373.06   2
  -1  -6   4 52380.7 2772.74   5
  -1  -6   4 53110.7 2119.57  10
   1   6  -4 55223.3 2726.90   7
  -1  -6   4 54452.1 2916.31   2
  -1  -6   3 7030.17 974.600   5
  -1  -6   3 6523.94 646.648  10
   1   6  -3 6551.53 860.695   7
  -1  -6   3 5630.51 932.199   3
  -1  -6   2 12353.3 886.668  10
   1   6  -2 11581.5 1122.50   7
  -1  -6   2 13722.0 1446.74   3
  -1  -6   1 17671.4 1110.15  10
   1   6  -1 15990.4 1466.90   8
   1   6  -1 15695.8 1300.12   7
  -1  -6   1 17644.5 1646.95   3
  -1  -6   0 486.402 313.776   3
   1   6   0 366.026 154.231   1
  -1  -6   0 264.042 151.235  10
   1   6   0 357.392 289.773   8
   1   6   0 667.222 300.437   7
  -1  -6  -1 3286.18 736.568   3
   1   6   1 3819.07 651.809   1
   1   6   1 4190.34 753.020   8
   1   6   1 3214.12 596.094   7
   1   6   2 9482.64 1148.34   8
   1   6   2 9109.02 1078.37   1
  -1  -6  -2 7764.07 1184.49   3
   1   6   3 10503.9 1222.12   8
   1   6   3 10149.7 1221.71   1
  -1  -6  -3 10148.3 1431.53   3
   1   6   4 18029.0 1610.60   8
   1   6   4 15947.9 1682.39   1
  -1  -6  -4 17189.6 1905.98   3
  -1  -6  -5 5366.00 1081.47   3
   1   6   5 5032.28 984.080   1
   1   6   5 5160.18 860.789   8
   1   6   5 5610.93 1024.05   4
   1   6   6 46801.6 3055.75   4
   1   6   6 39314.5 2999.25   1
  -1  -6  -6 48542.6 3452.48   3
   1   6   7 7697.13 1362.45   1
   1   6   7 11741.3 1536.35   4
  -1  -6  -7 11551.6 1707.70   3
   1   6   8 25135.6 2576.74   1
  -1  -6  -8 23949.7 2580.41   3
   0  -7  11 824.783 567.485   2
   0   7 -11 826.786 462.093   9
   0  -7  10 560.238 471.145   2
   0   7 -10 568.306 355.996   9
   0   7  -9 57228.6 3683.04   9
   0  -7   9 55744.4 3622.69   2
   0  -7   8 4617.13 991.763   2
   0   7  -8 4118.49 968.583   9
   0  -7   7 867.172 376.951   5
   0  -7   7 449.848 300.553   2
   0   7  -7 1572.54 605.879   9
   0  -7   6 46558.0 2597.44   5
   0  -7   6 43908.8 2430.11  10
   0   7  -6 51491.9 2650.98   4
   0   7  -6 48381.5 2897.27   7
   0  -7   6 43810.9 2916.22   2
   0  -7   5 167.347 136.127   5
   0  -7   5-2.16734 146.649  10
   0  -7   5-109.231 248.191   2
   0   7  -5 523.351 244.599   7
   0  -7   4 17239.6 1566.44   5
   0  -7   4 19011.8 1406.93  10
   0   7  -4 20048.2 1688.68   4
   0   7  -4 18010.0 1543.22   7
   0  -7   4 18037.8 1667.66   2
   0  -7   3 379.307 338.350   3
   0  -7   3 522.982 260.864  10
   0   7  -3-118.585 125.978   7
   0   7  -3 634.737 302.188   4
   0  -7   2 1165.34 458.567   3
   0  -7   2 1419.13 384.002  10
   0   7  -2 1534.18 415.836   7
   0   7  -2 1524.88 506.016   4
   0  -7   1 21797.9 1508.42  10
   0   7  -1 23946.7 1967.85   4
   0   7  -1 21971.8 1480.48   7
   0  -7   1 22433.6 2011.21   3
   0  -7   0 51551.4 2509.22  10
   0   7   0 49981.1 2942.10   4
   0  -7   0 48021.8 3078.26   3
   0  -7  -1 207.382 270.007   3
   0  -7  -1 429.701 266.054  10
   0   7   1 895.401 339.857   8
   0   7   1 845.345 422.897   4
   0   7   2 45555.8 2906.13   4
   0   7   2 50358.5 2664.00   8
   0   7   2 47755.8 2421.66   1
   0  -7  -2 45406.6 3194.36   3
   0   7   3 49451.9 3100.67   4
   0   7   3 48257.7 2639.65   1
   0  -7  -3 48798.2 3395.75   3
   0  -7  -4 2363.61 784.618   3
   0   7   4 1705.96 544.426   1
   0   7   4 3007.01 779.085   4
   0   7   5 25770.7 2303.03   4
   0   7   5 26360.5 2193.45   1
   0  -7  -5 32669.9 2899.72   3
   0   7   6 18848.7 1996.04   4
   0   7   6 21517.2 2073.98   1
   0  -7  -6 20025.3 2333.23   3
   0  -7  -7 1501.44 667.550   3
   0   7   7 2331.85 718.646   1
   0   7   7 2360.44 670.215   4
  -1   8 -10 21165.0 2358.36   9
   1  -8  10 19646.6 2232.24   2
   1  -8   9 5643.94 1151.90   2
  -1   8  -9 4961.51 1106.21   9
  -1   8  -8 27380.6 2565.73   9
   1  -8   8 25946.9 2435.77   2
   1  -8   7 15084.2 1579.09  10
  -1   8  -7 15638.1 1884.95   9
   1  -8   7 15226.5 1787.42   2
   1  -8   6 4890.19 830.493   5
   1  -8   6 4363.85 813.212  10
   1  -8   6 4546.08 928.809   2
  -1   8  -6 5552.46 1048.05   9
  -1   8  -6 4454.84 838.044   4
   1  -8   5 4683.68 832.537   5
   1  -8   5 3827.69 729.776  10
   1  -8   5 5326.23 967.199   2
  -1   8  -5 4629.21 952.093   9
  -1   8  -5 6120.15 1001.11   4
   1  -8   4 38435.8 2438.04   5
   1  -8   4 38549.8 2320.22  10
  -1   8  -4 41993.5 2700.58   4
   1  -8   3 10456.1 1153.44  10
  -1   8  -3 12777.5 1495.33   4
   1  -8   3 10795.6 1465.99   3
   1  -8   2 424.539 379.389   3
   1  -8   2 117.316 119.583  10
  -1   8  -2 463.378 334.543   4
   1  -8   1 10858.8 1212.16  10
  -1   8  -1 11912.7 1498.12   4
   1  -8   1 10041.3 1436.37   3
   1  -8   0 13336.6 1388.51  10
  -1   8   0 12647.5 1566.29   4
   1  -8   0 15388.9 1815.19   3
   1  -8  -1 9427.36 1221.10  10
  -1   8   1 8446.06 1262.20   4
   1  -8  -1 8115.48 1375.16   3
   1  -8  -2 9643.39 1331.04  10
  -1   8   2 11286.7 1515.42   4
   1  -8  -2 13153.0 1790.06   3
   1  -8  -3 682.888 502.755   3
  -1   8   3 431.714 254.673   4
   1  -8  -4 592.590 442.445   3
  -1   8   4 1606.94 626.958   4
   1  -8  -5 3780.04 1065.96   3
  -1   8   5 3029.66 861.947   4
  -1   8   6 6288.40 1229.89   4
   2  -9   9 7880.94 1400.90   2
   2  -9   8 7029.51 1291.18   2
  -2   9  -8 5435.32 1180.37   9
   2  -9   7 6358.68 1200.16   2
  -2   9  -7 7527.67 1335.04   9
  -2   9  -6 2940.57 807.341   9
   2  -9   5 226.276 224.382  10
  -2   9  -5 932.521 387.718   9
  -2   9  -5 341.423 298.947   4
   2  -9   4 992.317 471.314   5
   2  -9   4 949.237 389.790  10
  -2   9  -4 440.377 276.759   9
  -2   9  -4 489.500 331.674   4
   2  -9   3-10.4535 99.7278  10
  -2   9  -3 194.944 246.889   9
  -2   9  -3 378.371 289.668   4
   2  -9   3 257.780 255.239   3
   2  -9   2 850.981 496.640   3
   2  -9   2 611.598 332.594  10
  -2   9  -2 605.749 453.817   4
   2  -9   1 8336.26 1178.73  10
  -2   9  -1 8768.33 1415.44   4
   2  -9   1 9391.85 1470.83   3
   2  -9   0 5992.41 1221.60   3
  -2   9   0 7748.71 1389.69   4
   2  -9  -1 3946.81 1016.70   3
  -2   9   1 5099.44 1069.56   4
  -2   9   2 58594.8 3883.94   4
   2  -9  -2 67009.8 4382.43   3
   2  -9  -3 1523.49 665.366   3
  -2   9   3 1530.10 599.815   4
  -3  10  -6 6182.47 1223.53   9
  -3  10  -5 12826.3 1668.93   4
  -3  10  -4 88245.5 4693.06   4
  -3  10  -3 334.379 438.212   4
  -3  10  -2 8239.76 1448.27   4
   3 -10   2 10361.9 1619.00   3
   3 -10   1 97064.6 5221.09   3
  10  -2  -6 2334.38 643.522  11
 -10   2   6 2926.89 755.269   5
  10  -2  -5 60151.3 3529.79  11
  10  -2  -4 10816.3 1473.79  11
  10  -2  -3 736.388 426.558  11
  10  -2  -2 68699.1 4020.24  11
 -10   2   0 1015.02 442.398  12
   9  -1  -9 2057.58 660.560   6
   9  -1  -8 15122.9 1708.48   6
  -9   1   8 19099.1 1987.22   5
  -9   1   7 15482.9 1717.87   5
   9  -1  -6 9769.45 1228.74  11
  -9   1   6 10605.7 1387.00   5
   9  -1  -5 8801.14 1177.74  11
  -9   1   5 9100.44 1240.77   5
  -9   1   4 1623.51 527.642   5
   9  -1  -4 1709.65 585.774  11
  -9   1   3 392.876 280.751   5
   9  -1  -3-92.5902 141.827  11
   9  -1  -2 1139.44 556.476  11
  -9   1   2 156.399 107.022  12
   9  -1  -1 5516.30 1051.41  11
  -9   1   1 6068.16 1010.50  12
   9  -1   0 23890.0 2240.24  11
  -9   1   0 22124.9 2025.97  12
   9  -1   1 1073.30 433.684  11
  -9   1  -1 1747.91 583.019  12
   9  -1   2 30610.8 2714.98  11
  -9   1  -2 26981.3 2421.96  12
  -8   0  10 679.146 429.853   5
   8   0 -10 640.056 468.436   6
   8   0  -9 10909.9 1444.83   6
  -8   0   9 12882.1 1617.55   5
  -8   0   8 3642.43 840.507   5
   8   0  -8 3060.22 770.075   7
  -8   0   7 1682.88 593.030   5
   8   0  -7 1017.74 462.220   7
   8   0  -6 95792.4 3830.91  11
   8   0  -6 94864.4 4715.54   7
  -8   0   6 101412. 4381.68   5
  -8   0   5 1971.34 558.977   5
   8   0  -5 1888.48 494.186  11
  -8   0   4 1897.82 534.143   5
   8   0  -4 2254.22 584.897  11
   8   0  -4 1767.83 589.288   8
  -8   0   4 1826.48 492.570  12
   8   0  -3 79035.3 3663.69  11
  -8   0   3 78255.5 3493.32  12
  -8   0   3 81513.4 3557.44   5
  -8   0   2 4970.18 795.629   5
   8   0  -2 3363.69 731.359  11
  -8   0   2 3610.20 728.054  12
  -8   0   1 3038.59 601.217   5
   8   0  -1 2618.38 692.585  11
  -8   0   1 2131.66 561.455  12
   8   0   0 50757.4 3129.47  11
  -8   0   0 50084.6 2953.41  12
   8   0   1 965.490 545.119  11
  -8   0  -1 1066.76 450.783  12
   8   0   2 3384.13 852.910  11
  -8   0  -2 2429.27 703.739  12
   8   0   3 92.5319 275.397  11
  -8   0  -3 171.051 287.626  12
   8   0   4 16772.6 1991.84  11
  -8   0  -4 16136.6 1870.63  12
  -7  -1  11-37.0979 190.320   5
   7   1 -11-120.657 239.677   6
   7   1 -10 9752.18 1370.09   7
   7   1 -10 10330.6 1423.96   6
  -7  -1  10 10615.1 1452.56   5
   7   1  -9 50833.8 3227.73   7
  -7  -1   9 51072.2 3167.09   5
  -7  -1   8 66.0571 196.568   5
   7   1  -8 247.376 382.822   7
   7   1  -7 23579.9 2198.12   7
  -7  -1   7 22487.1 1937.44   5
   7   1  -6 26681.7 1750.41  11
   7   1  -6 24107.6 1983.79   8
   7   1  -6 25017.2 2222.57   7
  -7  -1   6 25012.1 1989.14   5
  -7  -1   5 807.017 319.604   5
   7   1  -5 668.582 275.796  11
   7   1  -5 487.141 323.148   8
   7   1  -4 6267.77 871.195  11
   7   1  -4 5931.31 982.095   8
  -7  -1   4 6373.55 936.038   5
  -7  -1   3-42.4944 208.158   5
   7   1  -3 451.870 296.435  11
   7   1  -3 134.937 167.770   8
  -7  -1   3 626.990 334.702  12
  -7  -1   2 4352.12 730.891   5
   7   1  -2 4151.61 764.849  11
  -7  -1   2 3131.03 651.326  12
  -7  -1   1 1514.04 409.793   5
   7   1  -1 1478.35 491.718  11
  -7  -1   1 1011.74 348.487  12
   7   1   0 5055.77 895.786  11
  -7  -1   0 5420.93 900.681  12
  -7  -1   0 6647.07 849.782   5
   7   1   1 15503.5 1655.79  11
  -7  -1  -1 15572.5 1584.09  12
   7   1   2 9842.19 1360.75  11
  -7  -1  -2 11632.3 1424.63  12
   7   1   3 7666.24 1226.11  11
  -7  -1  -3 6147.61 1043.85  12
   7   1   4 27494.3 2464.36  11
  -7  -1  -4 29746.5 2440.59  12
   7   1   5 6129.93 1212.64  11
  -7  -1  -5 7523.08 1246.83  12
   6   2 -12 5775.60 1104.11   7
   6   2 -12 9034.49 1384.02   6
  -6  -2  12 8500.02 1325.19   5
   6   2 -11 26162.1 2339.87   7
  -6  -2  11 25400.5 2580.08   2
   6   2 -11 22996.4 2153.28   6
  -6  -2  11 23660.8 2154.01   5
  -6  -2  10 4332.77 902.499   5
  -6  -2  10 3912.10 967.052   2
   6   2 -10 4900.49 969.845   7
   6   2  -9 11545.5 1514.72   7
  -6  -2   9 12572.1 1684.13   2
  -6  -2   9 12576.2 1467.20   5
   6   2  -8 7968.97 1250.22   7
  -6  -2   8 8798.28 1184.66   5
  -6  -2   7 5276.68 905.152   5
   6   2  -7 6469.57 1111.43   7
   6   2  -6 5953.29 693.864  11
  -6  -2   6 4777.32 823.720   5
   6   2  -6 4748.63 846.705   8
   6   2  -6 4547.75 884.300   7
  -6  -2   5 3172.95 656.631   5
   6   2  -5 3249.15 550.673  11
   6   2  -5 2361.35 611.743   8
   6   2  -4 94530.1 3418.17  11
   6   2  -4 89201.6 3898.39   8
  -6  -2   4 91489.0 3711.97   5
   6   2  -3 24371.8 1677.08  11
   6   2  -3 23736.0 1882.65   8
  -6  -2   3 26070.7 1895.74  12
  -6  -2   3 24106.5 1753.22   5
  -6  -2   2 17899.7 1452.74   5
   6   2  -2 17885.3 1499.70  11
  -6  -2   2 16696.6 1505.49  12
  -6  -2   1 113058. 3995.43   5
   6   2  -1 117701. 4333.73  11
  -6  -2   1 118770. 4423.94  12
  -6  -2   0 49083.8 2430.69   5
   6   2   0 53105.4 2859.89  11
  -6  -2   0 54941.3 2905.07  12
  -6  -2  -1 28464.0 1799.15   5
   6   2   1 30109.1 2202.53  11
  -6  -2  -1 29563.2 2138.74  12
  -6  -2  -2 12339.3 1164.51   5
   6   2   2 12368.6 1468.61  11
  -6  -2  -2 12946.9 1437.38  12
   6   2   3 71434.7 3826.80  11
  -6  -2  -3 77674.9 3820.22  12
   6   2   4 2296.36 734.475  11
  -6  -2  -4 1771.44 618.423  12
   6   2   5 4863.40 1055.65  11
  -6  -2  -5 4568.47 932.950  12
   6   2   6 28857.6 2675.93  11
  -6  -2  -6 33924.5 2691.04  12
  -5  -3  13 16730.9 2103.19   2
  -5  -3  13 18570.7 1933.79   5
  -5  -3  12 7063.25 1143.86   5
  -5  -3  12 5909.72 1189.63   2
   5   3 -12 6523.08 1201.71   7
   5   3 -12 7770.85 1275.42   6
  -5  -3  11 86.6946 102.108   5
  -5  -3  11 390.550 384.599   2
   5   3 -11 42.8631 99.9933   9
   5   3 -11 174.713 386.621   7
   5   3 -11 482.555 326.606   6
   5   3 -10 102722. 4884.14   7
  -5  -3  10 108036. 5080.18   2
  -5  -3  10 109055. 4562.88   5
  -5  -3   9 7214.52 1194.06   2
   5   3  -9 7422.03 1223.23   7
  -5  -3   9 6339.11 1002.32   5
   5   3  -8 8489.58 1255.95   7
  -5  -3   8 9217.09 1337.65   2
  -5  -3   8 8629.26 1130.64   5
   5   3  -7 104438. 4566.17   7
  -5  -3   7 100056. 4078.33   5
   5   3  -6 7720.54 1156.55   7
  -5  -3   6 7101.04 1006.80   5
   5   3  -5 3616.95 517.132  11
  -5  -3   5 3504.80 669.418   5
   5   3  -5 3062.88 711.345   8
   5   3  -5 3086.47 735.423   7
  -5  -3   4 21161.7 1654.33   5
   5   3  -4 21168.5 1360.12  11
   5   3  -4 19123.9 1727.48   8
   5   3  -3 4738.87 670.427  11
  -5  -3   3 3874.66 696.654   5
   5   3  -3 6053.32 926.745   8
   5   3  -2 3032.05 568.653  11
  -5  -3   2 3698.81 657.911   5
   5   3  -2 3884.97 745.827   8
  -5  -3   1 6802.14 897.336   5
   5   3  -1 6578.81 884.082  11
  -5  -3   1 7455.68 1006.96  12
  -5  -3   0 8318.18 1017.82   5
   5   3   0 7174.57 990.598  11
  -5  -3   0 7376.08 1011.01  12
   5   3   1 681.326 392.475  11
  -5  -3  -1 1023.19 410.006   5
  -5  -3  -1 930.110 379.306  12
  -5  -3  -2 16026.6 1522.37   5
   5   3   2 15232.8 1599.46  11
  -5  -3  -2 16944.0 1626.41  12
  -5  -3  -3 42972.2 2657.78   5
   5   3   3 43698.3 2879.94  11
  -5  -3  -3 45152.5 2784.43  12
   5   3   4 1765.27 618.958  11
  -5  -3  -4 1033.38 463.577   5
  -5  -3  -4 537.570 369.272  12
   5   3   5 5140.01 1081.63  11
  -5  -3  -5 4794.68 943.588  12
   5   3   6 37631.2 3062.61  11
  -5  -3  -6 35571.2 2715.05  12
   5   3   7 6792.59 1343.71  11
  -5  -3  -7 5432.50 1081.68  12
   4   4 -13 43875.2 2944.18   9
  -4  -4  13 44094.8 3447.22   2
   4   4 -13 41514.2 3121.25   6
  -4  -4  13 45072.6 2968.90   5
  -4  -4  12 1021.46 379.966   5
  -4  -4  12 1973.06 653.450   2
   4   4 -12 989.127 448.281   9
   4   4 -12 1524.92 602.009   6
   4   4 -11 25111.0 2173.52   9
   4   4 -11 25015.4 2382.19   7
  -4  -4  11 23192.2 2309.91   2
  -4  -4  11 24456.0 2045.50   5
  -4  -4  10 8348.63 1334.34   2
   4   4 -10 6526.78 1161.54   7
  -4  -4  10 7260.22 1061.24   5
  -4  -4   9 579.673 331.702   5
  -4  -4   9 840.317 454.031   2
   4   4  -9 632.488 299.879   7
   4   4  -8 9914.88 1342.84   7
  -4  -4   8 8370.94 1246.83   2
  -4  -4   8 9767.72 1179.42   5
  -4  -4   7 1166.34 450.634   5
  -4  -4   7 929.986 420.671   2
   4   4  -7 1162.68 449.160   7
  -4  -4   6 3684.59 704.816   5
  -4  -4   6 4411.35 860.363   2
   4   4  -6 3988.93 827.640   7
   4   4  -5 225.816 179.886  11
  -4  -4   5 63.7847 140.779   5
   4   4  -5 187.785 190.757   8
   4   4  -5 89.6448 151.694   7
   4   4  -4 1469.85 382.612  11
  -4  -4   4 1255.28 418.823   5
   4   4  -4 687.561 340.026   8
   4   4  -4 761.612 364.292   7
  -4  -4   3 77107.1 3413.36   5
   4   4  -3 86259.9 3113.63  11
   4   4  -3 74734.8 3565.15   8
   4   4  -2 220.184 278.294  11
  -4  -4   2 113.502 161.124   5
   4   4  -2 401.077 294.848   8
   4   4  -1 453.168 329.772  11
  -4  -4   1 260.105 315.975   5
   4   4  -1-2.96069 143.464   8
  -4  -4   0 89331.0 3985.34   5
   4   4   0 101897. 3997.20  11
  -4  -4   0 97039.2 4031.74  12
  -4  -4   0 97391.5 3738.39   3
  -4  -4  -1 243.792 178.924   3
   4   4   1 104.459 285.088  11
  -4  -4  -1 601.823 323.319   5
  -4  -4  -1 503.328 298.057  12
   4   4   2 9075.46 1234.49  11
  -4  -4  -2 7099.58 1110.96   5
  -4  -4  -2 8796.83 1161.65  12
  -4  -4  -2 8662.81 1065.99   3
   4   4   3 53085.2 3274.67  11
  -4  -4  -3 58972.0 3184.26  12
  -4  -4  -3 57993.2 2982.55   3
   4   4   4 2759.61 759.230  11
  -4  -4  -4 3357.43 768.972  12
   4   4   5 14518.9 1860.76  11
  -4  -4  -5 16743.4 1747.06  12
   4   4   6 9883.84 1610.73  11
  -4  -4  -6 9418.54 1333.19  12
   4   4   7 5005.50 1206.79  11
  -4  -4  -7 3383.87 844.417  12
  -4  -4  -8 5613.71 1083.17  12
  -3  -5  13 4946.43 1176.47   2
   3   5 -13 5109.27 1041.73   9
   3   5 -13 3718.55 972.468   6
  -3  -5  12 2063.96 581.048   5
  -3  -5  12 1911.90 683.295   2
   3   5 -12 1617.41 569.823   9
   3   5 -12 1490.57 628.235   6
   3   5 -11 14402.5 1736.89   9
   3   5 -11 16248.9 1959.98   7
  -3  -5  11 15265.9 1945.49   2
  -3  -5  11 12476.8 1409.29   5
  -3  -5  10 1152.84 410.283   5
  -3  -5  10 750.668 447.131   2
   3   5 -10 96.2969 213.695   9
   3   5 -10 192.098 326.788   7
   3   5  -9 11325.5 1503.47   7
  -3  -5   9 10032.6 1440.27   2
  -3  -5   9 10084.6 1214.76   5
   3   5  -8 36964.5 2647.00   7
  -3  -5   8 32994.2 2591.27   2
  -3  -5   8 37085.9 2357.73   5
  -3  -5   7 9335.17 1143.76   5
   3   5  -7 12188.1 1439.16   7
  -3  -5   7 10538.0 1391.35   2
  -3  -5   6 11866.4 1264.20   5
   3   5  -6 10967.0 1327.80   7
  -3  -5   6 9245.97 1259.98   2
  -3  -5   5 69791.7 3299.17   5
   3   5  -5 67764.6 3346.41   7
  -3  -5   4 19194.6 1675.68   5
   3   5  -4 16793.8 1628.44   8
   3   5  -4 16815.7 1566.43   7
  -3  -5   3 26085.1 1975.24   5
   3   5  -3 26610.8 1733.35  11
   3   5  -3 24205.8 1958.63   8
   3   5  -3 21581.5 1807.70   7
   3   5  -2 359.723 249.410  11
  -3  -5   2 499.506 268.690   5
   3   5  -2 622.540 373.611   8
  -3  -5   1 90084.8 4062.90   5
   3   5  -1 105926. 4121.06  11
   3   5  -1 100335. 4244.04   8
  -3  -5   1 101729. 4041.95   3
  -3  -5   0 722.373 355.914   3
   3   5   0 506.949 275.845  11
   3   5   0 701.563 262.395   8
   3   5   1 22525.3 1988.23  11
   3   5   1 22144.6 1884.73   8
  -3  -5  -1 21664.2 1795.75   3
   3   5   2 55973.3 3353.99  11
  -3  -5  -2 47729.6 2825.86   3
   3   5   3 398.447 524.979  11
  -3  -5  -3 364.749 285.564   3
   3   5   4 64948.5 3981.26  11
  -3  -5  -4 57850.2 3298.90  12
  -3  -5  -4 59347.6 3416.27   3
   3   5   5 9746.43 1583.76  11
  -3  -5  -5 8250.07 1235.09  12
  -3  -5  -5 8199.37 1294.46   3
   3   5   6 185.450 293.219  11
  -3  -5  -6-121.240 174.606   3
   3   5   6 64.6254 182.238   1
  -3  -5  -6 90.5252 143.179  12
   3   5   7 3172.59 1015.88   1
  -3  -5  -7 2696.93 744.114  12
  -2  -6  12 2279.56 819.352   2
   2   6 -12 1827.07 653.776   9
   2   6 -12 2826.25 789.991   6
   2   6 -11 23100.3 2327.08   9
  -2  -6  11 24044.2 2516.45   2
   2   6 -11 22448.8 2119.48   6
   2   6 -10 21885.8 2230.31   9
   2   6 -10 25586.4 2414.20   7
  -2  -6  10 23715.7 2415.70   2
  -2  -6  10 21647.4 1833.74   5
  -2  -6   9 1371.04 436.304   5
  -2  -6   9 2672.31 785.109   2
   2   6  -9 2350.05 679.465   7
  -2  -6   8 487.052 308.430   5
  -2  -6   8 790.161 434.460   2
   2   6  -8 25.0745 270.966   7
  -2  -6   7 53319.2 2886.14   5
   2   6  -7 56846.4 3216.25   7
  -2  -6   7 53601.2 3328.31   2
  -2  -6   6 203.646 210.171   5
  -2  -6   6 218.023 211.699   2
   2   6  -6 500.025 275.412   7
  -2  -6   5 58287.8 3062.92   5
   2   6  -5 61460.3 3111.67   7
  -2  -6   5 56578.2 3189.00   2
  -2  -6   4 81171.9 3703.88   5
   2   6  -4 80978.3 3541.06   7
  -2  -6   3 19102.0 1744.04   5
   2   6  -3 19807.9 1641.46   7
  -2  -6   2 60031.3 3201.81   5
   2   6  -2 59055.3 3127.93   8
   2   6  -2 59563.2 2944.78   7
  -2  -6   2 56296.4 3103.71   3
   2   6  -1 82109.8 3824.39   8
   2   6  -1 85715.4 3630.63   7
  -2  -6   1 85645.0 3891.89   3
   2   6   0 28623.2 2192.96   8
   2   6   0 29191.9 1877.78   1
   2   6   0 33384.4 2172.24   7
  -2  -6   0 28276.2 2176.73   3
   2   6   1 1925.62 546.066   1
  -2  -6  -1 3091.24 700.454   3
   2   6   1 2749.33 664.382   8
   2   6   2 56661.4 3126.52   8
   2   6   2 50024.7 2974.80   1
  -2  -6  -2 52520.2 3203.79   3
   2   6   3 41421.9 2668.74   8
   2   6   3 41732.1 2859.71   1
  -2  -6  -3 39132.7 2835.88   3
   2   6   4 1423.03 537.101   1
  -2  -6  -4 2132.47 707.504   3
   2   6   4 2795.43 696.889   8
   2   6   5 4218.42 976.589   1
  -2  -6  -5 6323.28 1262.54   3
   2   6   6 17508.9 2144.72   1
  -2  -6  -6 19660.9 2226.90   3
  -2  -6  -7 8941.14 1540.31   3
   2   6   7 8399.99 1534.44   1
   2   6   7 8346.19 1340.48   4
  -1  -7  11 8088.40 1454.46   2
   1   7 -11 8426.61 1462.44   9
  -1  -7  10 8169.55 1455.30   2
   1   7 -10 7607.79 1374.54   9
   1   7  -9 60906.2 3855.85   9
  -1  -7   9 57047.7 3780.67   2
  -1  -7   9 58731.4 3097.45   5
  -1  -7   8 1214.54 418.629   5
  -1  -7   8 786.182 401.938   2
   1   7  -8 1252.75 472.511   7
  -1  -7   7 23371.6 1922.76   5
   1   7  -7 27902.2 1869.12   4
   1   7  -7 27998.1 2232.46   7
  -1  -7   7 22381.4 2175.92   2
  -1  -7   6 72866.8 3500.28   5
   1   7  -6 74605.6 3624.10   7
  -1  -7   6 70445.1 3812.21   2
  -1  -7   5 5175.16 926.303   5
  -1  -7   5 4680.27 900.555   2
   1   7  -5 5382.86 869.305   7
  -1  -7   4 34903.5 2405.18   5
   1   7  -4 39978.3 2366.52   7
  -1  -7   3 12600.0 1440.45   5
   1   7  -3 13098.9 1287.51   7
  -1  -7   3 13971.5 1599.18   3
   1   7  -2 31629.6 1976.78   7
  -1  -7   2 29145.0 2315.66   3
   1   7  -1 9857.39 1075.79   7
  -1  -7   1 11205.0 1414.48   3
  -1  -7   0 2401.40 638.207   3
   1   7   0 2598.51 617.681   8
   1   7   0 1428.52 419.705   7
   1   7   1 9386.18 1223.42   8
  -1  -7  -1 8876.04 1336.28   3
  -1  -7  -2 859.058 421.232   3
   1   7   2 1414.29 521.331   8
   1   7   3 16067.9 1648.23   8
  -1  -7  -3 17708.8 2035.42   3
  -1  -7  -4 1758.24 671.613   3
   1   7   4 597.576 330.782   1
   1   7   4 1868.98 667.626   4
  -1  -7  -5 6281.94 1301.12   3
   1   7   5 6301.85 1125.58   1
   1   7   5 6500.18 1155.68   4
  -1  -7  -6 5135.19 1194.49   3
   1   7   6 4730.07 1012.65   1
   1   7   6 6509.19 1204.07   4
   1   7   7 2401.93 774.237   4
   0   8 -10 11689.9 1766.25   9
   0  -8  10 14513.2 1950.50   2
   0  -8   9 2621.88 794.997   2
   0   8  -9 2041.59 723.800   9
   0   8  -8 13172.9 1756.15   9
   0  -8   8 14663.0 1863.55   2
   0  -8   7 31134.5 2248.72   5
   0   8  -7 30344.3 2577.63   9
   0  -8   7 27341.1 2480.76   2
   0  -8   6 42022.4 2643.37   5
   0   8  -6 46520.9 2701.65   4
   0   8  -6 42576.4 2739.60   7
   0  -8   6 38228.0 2824.88   2
   0  -8   5 9076.48 1226.19   5
   0   8  -5 9159.83 1176.78   4
   0   8  -5 8307.08 1112.92   7
   0  -8   4 16158.9 1620.95   5
   0   8  -4 15419.6 1573.44   4
   0   8  -4 14647.2 1422.91   7
   0   8  -3 72426.2 3622.17   4
   0   8  -3 74885.8 3239.85   7
   0  -8   3 74734.0 4064.82   3
   0   8  -2 6748.27 1072.67   4
   0  -8   2 6926.33 1177.16   3
   0  -8   1 6790.17 1184.65   3
   0   8  -1 6565.07 1093.62   4
   0   8   0 47409.9 3026.41   4
   0  -8   0 49187.1 3327.42   3
   0  -8  -1 781.253 487.254   3
   0   8   1 632.438 478.437   4
   0   8   2 14214.9 1692.15   4
   0  -8  -2 13073.4 1769.57   3
   0  -8  -3 1064.92 501.765   3
   0   8   3 128.253 93.0230   4
   0  -8  -4 8950.68 1578.84   3
   0   8   4 7918.05 1299.79   4
   0  -8  -5 3106.77 940.290   3
   0   8   5 2443.24 711.092   4
   1  -9   9 18364.8 2216.46   2
   1  -9   8 4254.83 1006.60   2
  -1   9  -8 6863.70 1291.16   9
   1  -9   7 4179.85 988.591   2
  -1   9  -7 2486.17 753.648   9
   1  -9   6 857.444 435.233   2
  -1   9  -6 398.844 296.808   9
  -1   9  -6 628.752 332.011   4
   1  -9   5 10126.9 1302.10   5
  -1   9  -5 10257.0 1425.71   9
  -1   9  -5 12910.3 1503.60   4
   1  -9   4 11434.9 1402.96   5
  -1   9  -4 8462.57 1241.89   4
  -1   9  -3 8999.84 1296.54   4
   1  -9   3 11746.0 1636.82   3
  -1   9  -2 22304.7 2110.34   4
   1  -9   2 21564.9 2237.69   3
   1  -9   1 3734.47 916.391   3
  -1   9  -1 4523.23 964.760   4
  -1   9   0 39593.4 2950.49   4
   1  -9   0 41697.6 3247.97   3
   1  -9  -1 4029.83 1026.20   3
  -1   9   1 3181.78 850.713   4
   1  -9  -2 1947.73 741.417   3
  -1   9   2 1444.93 600.845   4
  -2  10  -6 15829.8 1901.28   9
  -2  10  -5 14956.0 1782.43   9
  -2  10  -5 15607.4 1788.01   4
  -2  10  -4 3094.22 836.621   4
  -2  10  -3 37.4666 235.748   4
   2 -10   2 6112.53 1264.03   3
  -2  10  -2 5649.89 1119.57   4
  -2  10  -1 6411.09 1231.81   4
 -10   1   6 30018.0 2494.98   5
 -10   1   5 7380.70 1179.20   5
  10  -1  -5 7490.10 1191.16  11
  10  -1  -4 10193.9 1427.10  11
  10  -1  -3 18555.2 1984.28  11
  10  -1  -2 45030.8 3220.32  11
 -10   1   1 1156.73 454.890  12
 -10   1   0 3289.97 850.945  12
   9   0  -9 28244.4 2478.54   6
  -9   0   8 2857.67 773.112   5
  -9   0   7 2983.52 816.226   5
   9   0  -7 3639.19 932.221   7
  -9   0   6 3696.15 844.487   5
   9   0  -6 4214.34 1005.88   7
   9   0  -5 10182.1 1287.25  11
  -9   0   5 8795.80 1247.60   5
   9   0  -4 6813.10 1087.37  11
  -9   0   4 6853.08 1064.92   5
  -9   0   3 1214.91 471.644   5
   9   0  -3 1539.04 504.528  11
   9   0  -3 1724.55 598.814   8
  -9   0   3 1427.11 471.885  12
   9   0  -2 11343.5 1499.83  11
  -9   0   2 14231.8 1570.78  12
   9   0  -1 25948.0 2316.29  11
  -9   0   1 23003.4 2085.50  12
   9   0   0 220.524 253.438  11
  -9   0   0 312.101 249.312  12
   9   0   1 5941.99 1188.77  11
  -9   0  -1 5318.53 1051.68  12
  -9   0  -2 6318.67 1196.97  12
  -8  -1  10 1484.29 612.028   5
   8   1 -10 607.919 358.075   6
   8   1  -9 8919.91 1391.22   7
  -8  -1   9 7794.85 1317.30   5
  -8  -1   8 5063.22 1000.53   5
   8   1  -8 5584.90 1143.18   7
  -8  -1   7 528.819 346.595   5
   8   1  -7 494.814 365.164   7
  -8  -1   6 1572.86 505.882   5
   8   1  -6 1540.60 573.649   7
   8   1  -5 5289.15 905.189  11
   8   1  -5 5490.30 981.724   8
  -8  -1   5 6574.62 1037.92   5
  -8  -1   4 627.595 343.820   5
   8   1  -4 455.513 378.947  11
   8   1  -4 525.806 392.476   8
   8   1  -3 10577.3 1313.87  11
   8   1  -3 9268.40 1262.77   8
  -8  -1   3 7665.37 1113.24  12
  -8  -1   3 9739.90 1198.84   5
  -8  -1   2 4550.24 808.136   5
   8   1  -2 3547.03 789.971  11
  -8  -1   2 3555.75 760.901  12
  -8  -1   1 3739.45 707.146   5
   8   1  -1 4124.42 864.210  11
  -8  -1   1 2175.58 601.070  12
   8   1   0 44958.8 3011.26  11
  -8  -1   0 43255.6 2866.83  12
   8   1   1 328.682 260.358  11
  -8  -1  -1 454.717 332.773  12
   8   1   2 7331.37 1294.63  11
  -8  -1  -2 5204.17 1022.72  12
   8   1   3 44648.9 3305.61  11
  -8  -1  -3 38938.3 2977.27  12
   7   2 -12 861.074 474.996   7
  -7  -2  11 890.078 440.276   5
   7   2 -11 656.986 407.699   7
   7   2 -11 1190.59 487.722   6
   7   2 -10 50255.6 3438.25   7
  -7  -2  10 50505.9 3274.36   5
   7   2  -9 28188.3 2520.03   7
  -7  -2   9 31151.7 2474.30   5
  -7  -2   8 1339.96 501.190   5
   7   2  -8 1479.15 564.316   7
   7   2  -7 27181.2 2420.63   7
  -7  -2   7 26219.8 2168.12   5
   7   2  -6 175932. 6261.08   8
   7   2  -6 168440. 6524.17   7
  -7  -2   6 186114. 6161.84   5
   7   2  -5 22046.1 1654.15  11
   7   2  -5 20022.8 1894.27   8
  -7  -2   5 19202.2 1739.46   5
  -7  -2   4 1776.73 518.427   5
   7   2  -4 1223.38 402.976  11
   7   2  -4 1916.48 615.056   8
   7   2  -3 148418. 5094.89  11
   7   2  -3 137111. 5308.05   8
  -7  -2   3 142218. 5248.69  12
  -7  -2   3 139845. 4954.86   5
   7   2  -2 17985.8 1659.46  11
  -7  -2   2 14575.5 1537.12  12
  -7  -2   2 15185.4 1447.66   5
  -7  -2   1 25127.4 1827.09   5
   7   2  -1 25535.3 2061.79  11
  -7  -2   1 22648.1 1945.83  12
  -7  -2   0 37262.6 2207.70   5
   7   2   0 40749.3 2703.61  11
  -7  -2  -1 31489.3 2003.28   5
   7   2   1 34766.0 2586.85  11
  -7  -2  -1 34587.8 2525.67  12
   7   2   2 6944.52 1160.90  11
  -7  -2  -2 6614.51 1104.20  12
   7   2   3 455.987 511.991  11
  -7  -2  -3 482.151 418.236  12
   7   2   4 8004.88 1369.12  11
  -7  -2  -4 9130.27 1377.22  12
   6   3 -12 24391.1 2443.08   7
  -6  -3  12 24768.8 2645.92   2
   6   3 -12 22218.9 2257.22   6
  -6  -3  12 26187.8 2384.41   5
  -6  -3  11-0.97756 132.383   5
  -6  -3  11 149.380 208.219   2
   6   3 -11 286.229 123.338   7
  -6  -3  10 2841.64 721.692   5
  -6  -3  10 2427.85 807.430   2
   6   3 -10 3090.43 835.418   7
   6   3  -9 32757.0 2691.31   7
  -6  -3   9 32572.6 2466.18   5
  -6  -3   8 726.399 341.623   5
   6   3  -8 1978.60 730.514   7
   6   3  -7 6857.54 1164.78   7
  -6  -3   7 8615.22 1188.49   5
   6   3  -6 19923.1 1892.71   8
   6   3  -6 16041.0 1759.98   7
  -6  -3   6 19836.4 1779.40   5
   6   3  -5 2294.85 481.561  11
  -6  -3   5 2601.48 622.794   5
   6   3  -5 1579.40 521.687   8
   6   3  -5 3059.09 763.085   7
   6   3  -4 364.832 226.046  11
  -6  -3   4 298.156 258.850   5
   6   3  -4 44.4162 210.392   8
   6   3  -3 1493.30 475.883  11
  -6  -3   3 2443.67 600.181   5
   6   3  -3 3267.80 745.039   8
   6   3  -2 2920.87 668.023  11
  -6  -3   2 2852.84 622.790   5
   6   3  -2 3249.07 733.567   8
  -6  -3   2 4076.36 802.646  12
  -6  -3   1 9902.80 1151.39   5
   6   3  -1 9541.59 1174.33  11
  -6  -3   1 10108.4 1281.64  12
   6   3   0 2920.05 673.320  11
  -6  -3   0 2167.26 559.158   5
  -6  -3   0 2590.50 649.457  12
  -6  -3  -1 8109.19 1064.93   5
   6   3   1 8686.56 1237.36  11
  -6  -3  -1 7183.35 1099.74  12
  -6  -3  -2 31655.2 2199.73   5
   6   3   2 30713.8 2463.30  11
  -6  -3  -2 30586.7 2375.99  12
   6   3   3 6913.60 1226.48  11
  -6  -3  -3 4383.88 906.321  12
   6   3   4 5305.21 1102.18  11
  -6  -3  -4 4552.36 975.946  12
   6   3   5 4929.75 1138.51  11
  -6  -3  -5 2202.65 716.933  12
  -5  -4  13 938.977 482.967   5
  -5  -4  13 507.941 427.310   2
  -5  -4  12 2211.11 685.345   5
  -5  -4  12 1713.18 686.970   2
   5   4 -12 1322.33 450.952   9
   5   4 -12 1646.94 632.604   7
   5   4 -12 1418.55 587.016   6
  -5  -4  11 657.577 390.112   5
  -5  -4  11 959.121 447.186   2
   5   4 -11 1356.14 613.812   7
   5   4 -10 18134.7 2034.01   7
  -5  -4  10 14657.9 1839.79   2
  -5  -4  10 18236.7 1817.75   5
  -5  -4   9 1029.58 428.974   5
  -5  -4   9 1524.81 544.506   2
   5   4  -9 1002.20 458.825   7
  -5  -4   8 1285.08 473.924   5
  -5  -4   8 1435.82 541.721   2
   5   4  -8 1077.11 482.310   7
   5   4  -7 96371.3 4504.45   7
  -5  -4   7 91894.5 4093.08   5
  -5  -4   6 4513.12 828.402   5
   5   4  -6 5329.37 987.489   7
  -5  -4   5 8807.69 1159.60   5
   5   4  -5 8002.82 843.650  11
   5   4  -5 9633.19 1288.70   8
   5   4  -5 8612.70 1255.01   7
  -5  -4   4 91272.9 3907.26   5
   5   4  -4 91504.2 3326.21  11
   5   4  -4 94296.2 4262.02   8
   5   4  -3 5622.67 804.672  11
  -5  -4   3 5455.05 908.301   5
   5   4  -3 5129.36 908.744   8
  -5  -4   2 7829.86 1087.29   5
   5   4  -2 9181.99 1077.48  11
   5   4  -2 8283.49 1184.91   8
  -5  -4   1 47718.9 2818.22   5
   5   4  -1 48848.5 2699.06  11
   5   4  -1 51914.2 3101.65   8
   5   4   0 370.745 352.109  11
  -5  -4   0 159.449 306.493   5
  -5  -4   0 390.006 272.084  12
  -5  -4  -1 16110.3 1716.95   5
   5   4   1 18076.8 1752.30  11
  -5  -4  -1 16649.2 1709.42  12
   5   4   2-68.5697 170.187  11
  -5  -4  -2 166.738 141.795   5
  -5  -4  -2-2.67096 194.351  12
  -5  -4  -3 9068.87 1388.84   5
   5   4   3 9295.64 1389.27  11
  -5  -4  -3 10531.8 1402.49  12
  -5  -4  -4 45185.2 3297.80   5
   5   4   4 50377.5 3472.40  11
  -5  -4  -4 56722.7 3443.05  12
   5   4   5 34968.2 3043.87  11
  -5  -4  -5 36293.7 2816.97  12
  -5  -4  -6 12498.5 1675.96  12
   4   5 -13 29768.4 2631.64   9
  -4  -5  13 30490.0 2485.51   5
   4   5 -12 9959.74 1512.49   9
  -4  -5  12 11236.5 1728.79   2
   4   5 -12 11674.1 1626.96   6
  -4  -5  12 9011.68 1303.82   5
  -4  -5  11 1197.64 433.381   5
  -4  -5  11 1167.98 515.135   2
   4   5 -11 2235.00 755.443   9
   4   5 -11 1269.38 561.833   7
   4   5 -10 66735.4 3980.45   7
  -4  -5  10 60602.4 3892.62   2
  -4  -5  10 59901.9 3341.12   5
  -4  -5   9 1085.66 496.214   5
  -4  -5   9 279.274 291.111   2
   4   5  -9 872.910 383.367   7
   4   5  -8 12399.7 1552.64   7
  -4  -5   8 8919.01 1362.95   2
  -4  -5   8 9209.55 1233.39   5
  -4  -5   7 37251.8 2500.12   5
   4   5  -7 39612.9 2728.72   7
  -4  -5   7 37379.6 2741.78   2
  -4  -5   6 421.476 290.421   5
   4   5  -6 307.559 280.768   7
  -4  -5   5 33715.0 2353.99   5
   4   5  -5 32096.4 2394.33   8
   4   5  -5 32687.9 2413.52   7
   4   5  -4 795.009 310.755  11
  -4  -5   4 779.699 407.526   5
   4   5  -4 1092.11 481.857   8
   4   5  -4 737.061 398.961   7
   4   5  -3 526.371 323.835  11
  -4  -5   3 820.067 442.697   5
   4   5  -3 314.523 291.360   8
   4   5  -3 331.142 283.343   7
   4   5  -2 4614.26 813.791  11
  -4  -5   2 3217.10 743.720   5
   4   5  -2 4216.57 854.425   8
  -4  -5   1 30606.5 2394.67   5
   4   5  -1 33778.7 2288.24  11
   4   5  -1 31938.0 2447.70   8
  -4  -5   1 35189.9 2339.36   3
  -4  -5   0 731.987 345.457   3
   4   5   0 1757.01 601.418  11
  -4  -5   0 1109.12 507.697   5
   4   5   0 823.504 383.329   8
  -4  -5  -1 848.585 364.750   3
   4   5   1 876.488 365.939  11
  -4  -5  -1 1113.51 379.679   5
   4   5   1 1690.42 584.355   8
  -4  -5  -2 16957.4 1898.00   5
   4   5   2 18729.7 1971.52  11
  -4  -5  -2 16607.8 1622.86   3
   4   5   3 4435.13 1015.17  11
  -4  -5  -3 3890.48 907.386   5
  -4  -5  -3 3119.46 765.966  12
   4   5   4 1120.53 639.940  11
  -4  -5  -4 178.367 79.9195  12
   4   5   5 1122.18 581.912  11
  -4  -5  -5 870.226 463.161  12
  -4  -5  -6 2330.71 691.728  12
   3   6 -13 14414.6 1867.07   6
  -3  -6  12 8860.71 1601.12   2
   3   6 -12 7006.20 1323.17   9
   3   6 -12 7637.74 1330.46   6
  -3  -6  11 844.220 437.565   5
  -3  -6  11 381.251 457.168   2
   3   6 -11 405.550 349.212   9
   3   6 -11 149.346 238.139   7
   3   6 -10 14374.7 1810.14   7
  -3  -6  10 13399.2 1845.69   2
  -3  -6  10 13166.0 1518.15   5
  -3  -6   9 3774.92 791.146   5
  -3  -6   9 3229.93 859.419   2
   3   6  -9 4670.40 1018.01   7
  -3  -6   8 4793.43 879.629   5
  -3  -6   8 3640.70 894.202   2
   3   6  -8 5080.89 1046.45   7
  -3  -6   7 21586.0 1902.52   5
   3   6  -7 23019.8 2063.34   7
  -3  -6   7 19275.8 1985.84   2
  -3  -6   6-30.7804 129.389   5
   3   6  -6 444.546 285.655   7
  -3  -6   5 54285.6 3116.34   5
   3   6  -5 50671.9 2959.51   7
  -3  -6   4 2583.07 693.962   5
   3   6  -4 2306.67 594.284   7
  -3  -6   3 4159.31 848.192   5
   3   6  -3 3613.30 837.271   8
   3   6  -3 3703.57 757.900   7
  -3  -6   2 37846.9 2647.72   5
   3   6  -2 36431.1 2620.57   8
   3   6  -2 36802.7 2506.58   7
  -3  -6   2 38609.0 2585.15   3
  -3  -6   1 6149.52 1051.30   5
   3   6  -1 5854.21 1024.74   8
   3   6  -1 6196.07 986.346   7
  -3  -6   1 6826.67 1052.60   3
   3   6   0 1295.25 528.674  11
  -3  -6   0 1461.04 485.781   3
  -3  -6   0 1160.44 478.131   5
   3   6   0 1550.31 534.660   8
   3   6   1 1651.63 654.919  11
  -3  -6  -1 1133.03 457.075   3
   3   6   1 1222.96 462.886   8
   3   6   2 3988.33 963.952  11
  -3  -6  -2 4269.80 874.944   3
   3   6   2 3922.26 855.595   8
  -3  -6  -3 611.013 378.203   3
   3   6   3 2235.85 642.352   8
   3   6   4 44356.9 2999.01   8
   3   6   4 43601.8 3340.37   1
  -3  -6  -4 47840.7 3293.01   3
   3   6   5 268.377 347.643   1
  -3  -6  -5 475.534 334.769   3
   3   6   6 6313.33 1404.16   1
   2   7 -11 74734.5 4556.74   9
  -2  -7  11 81617.8 4979.12   2
  -2  -7  10 1299.13 482.699   5
  -2  -7  10 1162.20 557.281   2
   2   7 -10 1388.57 566.809   9
   2   7 -10 1621.43 661.270   7
  -2  -7   9 206.119 321.420   5
  -2  -7   9-180.901 218.861   2
   2   7  -9 137.330 317.529   7
  -2  -7   8 40599.8 2683.97   5
   2   7  -8 37301.3 2742.20   7
  -2  -7   8 36865.3 2971.25   2
  -2  -7   7 2267.66 660.406   5
  -2  -7   7 1791.01 602.720   2
   2   7  -7 3232.24 768.595   7
  -2  -7   6 1671.33 533.449   5
   2   7  -6 2163.42 578.535   7
  -2  -7   5 1911.44 569.553   5
   2   7  -5 2491.80 617.342   7
  -2  -7   4 10350.5 1399.24   5
   2   7  -4 11038.5 1300.53   7
  -2  -7   3 723.762 436.454   5
   2   7  -3-79.2914 125.641   7
  -2  -7   2 15518.1 1675.09   5
   2   7  -2 14827.4 1625.80   8
   2   7  -2 15378.5 1505.61   7
  -2  -7   2 15993.3 1713.61   3
  -2  -7   1 224.808 199.910   3
   2   7  -1 285.539 207.736   8
   2   7  -1 635.279 316.796   7
   2   7   0 19708.2 1922.62   8
   2   7   0 18616.5 1687.10   7
  -2  -7   0 20564.1 1991.33   3
   2   7   1 35772.1 2639.26   8
  -2  -7  -1 33638.8 2626.23   3
  -2  -7  -2 3563.80 867.480   3
   2   7   2 4420.56 928.197   8
  -2  -7  -3 5275.83 1136.30   3
   2   7   3 3718.77 823.452   8
   2   7   4 43816.9 2961.75   8
  -2  -7  -4 44009.8 3384.54   3
  -2  -7  -5 8955.70 1572.77   3
   2   7   5 5918.94 1149.96   4
  -2  -7  -6 807.814 478.838   3
  -1  -8  10 1149.98 565.541   2
   1   8 -10 943.807 550.623   9
   1   8  -9 19618.0 2195.44   9
  -1  -8   9 19977.2 2290.08   2
  -1  -8   8 775.890 400.344   5
  -1  -8   8 608.274 369.390   2
   1   8  -8 536.879 326.375   7
  -1  -8   7 541.478 349.595   5
  -1  -8   7 197.595 202.307   2
   1   8  -7 90.2142 146.570   7
   1   8  -7-22.5455 165.135   4
  -1  -8   6 7430.15 1142.31   5
   1   8  -6 6219.66 960.383   4
   1   8  -6 7879.84 1152.82   7
  -1  -8   5 13518.8 1551.32   5
   1   8  -5 13511.7 1462.40   4
   1   8  -5 14449.6 1503.41   7
  -1  -8   4 4749.19 928.836   5
   1   8  -4 5465.15 902.902   7
  -1  -8   3 1412.55 529.477   5
   1   8  -3 1281.62 414.029   7
  -1  -8   2 4876.97 964.664   3
   1   8  -2 5019.36 804.195   7
  -1  -8   1 24808.4 2282.77   3
  -1  -8   0 1822.03 616.272   3
  -1  -8  -1 224.397 349.553   3
   1   8   1 767.210 451.586   8
   1   8   1 630.112 428.247   4
   1   8   2 18384.9 1981.57   4
  -1  -8  -2 18275.2 2111.92   3
  -1  -8  -3 6355.07 1277.58   3
   1   8   3 4199.83 967.084   4
  -1  -8  -4 925.945 501.325   3
   1   8   4 1344.19 535.198   4
   0  -9   9 20641.3 2371.76   2
   0  -9   8 1342.46 590.093   2
   0   9  -8 1459.62 561.575   9
   0  -9   7 2365.32 751.166   2
   0   9  -7 2785.06 777.381   9
   0  -9   6 21687.0 1985.06   5
   0   9  -6 20542.1 1851.63   4
   0  -9   5 983.073 420.600   5
   0   9  -5 403.274 243.297   7
   0   9  -5 1350.31 485.280   4
   0  -9   4 813.736 418.832   5
   0   9  -4 90.2260 150.651   4
   0  -9   3 2499.28 697.290   5
   0   9  -3 3641.26 845.745   4
   0   9  -2 9685.86 1379.84   4
   0  -9   2 10408.1 1560.23   3
   0   9  -1 9294.77 1383.65   4
   0  -9   1 9580.14 1522.18   3
   0   9   0 66097.8 3857.73   4
   0  -9   0 72413.2 4342.68   3
   0  -9  -1-550.954 376.984   3
   0   9   1 223.728 210.447   4
   0  -9  -2 4343.09 1088.04   3
   0   9   2 5374.89 1121.48   4
  -1  10  -6 44482.4 3179.47   9
  -1  10  -5 2473.27 726.069   9
  -1  10  -5 3202.95 773.985   4
   1 -10   4 312.782 318.554   5
  -1  10  -4 36.1107 172.629   9
  -1  10  -4 223.603 272.105   4
   1 -10   3 60096.8 3611.83   5
  -1  10  -3 61826.4 3707.66   4
  -1  10  -2 5959.72 1149.28   4
 -10   0   6 8883.34 1357.83   5
  10   0  -6 8730.75 1543.57   7
  10   0  -5 32356.4 2529.03  11
 -10   0   5 33827.9 2646.52   5
  10   0  -4-9.17771 143.750  11
  10   0  -3 17053.3 1910.36  11
 -10   0   2 14040.9 1718.17  12
  -9  -1   8 2391.96 715.830   5
   9   1  -8 2339.00 738.608   7
   9   1  -7 10055.7 1621.05   7
  -9  -1   7 11557.3 1565.99   5
   9   1  -6 28214.8 2700.39   7
  -9  -1   6 29343.9 2432.39   5
  -9  -1   5 501.895 311.302   5
   9   1  -5 497.248 248.891  11
  -9  -1   4 576.483 316.637   5
   9   1  -4 853.754 359.877  11
   9   1  -4 209.100 220.981   8
  -9  -1   3 5083.30 898.642   5
   9   1  -3 5294.27 1031.65  11
   9   1  -3 4951.82 1013.74   8
  -9  -1   3 5770.81 1039.74  12
   9   1  -2 8092.40 1285.04  11
  -9  -1   2 5772.95 1059.02  12
   9   1  -1 18491.1 2007.99  11
  -9  -1   1 18726.3 1967.37  12
   9   1   0 11308.4 1632.15  11
  -9  -1   0 10727.0 1496.31  12
   8   2 -11 1170.89 532.256   7
   8   2 -10 11.0952 107.243   7
  -8  -2   9 660.087 447.758   5
   8   2  -9 383.493 347.086   7
   8   2  -8 9012.20 1463.22   7
  -8  -2   8 8468.61 1336.55   5
  -8  -2   7-70.1768 167.834   5
   8   2  -7-229.007 216.531   7
   8   2  -6 18641.0 1960.45   8
   8   2  -6 17873.1 2051.06   7
  -8  -2   6 17909.4 1828.85   5
   8   2  -5 14188.1 1456.53  11
   8   2  -5 11777.0 1557.28   8
  -8  -2   5 11304.2 1406.01   5
   8   2  -4 8999.43 1225.63  11
   8   2  -4 8121.14 1274.93   8
  -8  -2   4 9194.65 1231.08   5
   8   2  -3 11575.7 1403.57  11
   8   2  -3 8995.11 1343.34   8
  -8  -2   3 10484.6 1286.93   5
   8   2  -2 9632.25 1334.55  11
  -8  -2   2 9964.12 1360.24  12
  -8  -2   2 7764.36 1088.66   5
   8   2  -1 12836.4 1587.36  11
  -8  -2   1 14028.7 1685.72  12
  -8  -2   1 12952.1 1383.03   5
   8   2   0 363.171 444.520  11
  -8  -2   0-96.7186 128.523  12
   8   2   1 8327.41 1355.42  11
  -8  -2  -1 6893.41 1186.35  12
   8   2   2 3777.19 966.455  11
  -8  -2  -2 4369.28 974.147  12
   7   3 -11 18.9863 122.249   7
   7   3 -10 14180.9 1867.94   7
  -7  -3  10 13292.9 1681.08   5
   7   3  -9 18910.9 2142.98   7
  -7  -3   9 20054.2 2023.22   5
  -7  -3   8 1828.41 587.688   5
   7   3  -8 1840.67 655.557   7
   7   3  -7 10496.0 1553.20   7
  -7  -3   7 12984.8 1530.99   5
  -7  -3   6 581.016 423.198   5
   7   3  -6 563.378 396.498   8
   7   3  -6 191.056 271.084   7
  -7  -3   5 737.754 392.539   5
   7   3  -5 933.253 465.701   8
   7   3  -4 2001.98 541.208  11
  -7  -3   4 1211.19 455.942   5
   7   3  -4 1875.70 589.385   8
   7   3  -3 4303.75 806.912  11
  -7  -3   3 3933.58 778.097   5
   7   3  -3 4253.00 909.783   8
   7   3  -2 194.127 266.788  11
  -7  -3   2 313.637 190.584   5
   7   3  -2 204.248 337.902   8
   7   3  -1 3336.58 744.401  11
  -7  -3   1 2751.28 632.267   5
  -7  -3   1 3225.87 768.255  12
   7   3   0 6064.99 1072.58  11
  -7  -3   0 4740.40 843.904   5
  -7  -3   0 5196.57 1006.12  12
  -7  -3  -1 15107.7 1521.39   5
   7   3   1 17004.7 1873.68  11
  -7  -3  -1 18143.6 1921.26  12
   7   3   2 2196.38 732.878  11
  -7  -3  -2 1096.47 435.830  12
   7   3   3 3060.64 858.982  11
  -7  -3  -3 2942.98 799.842  12
  -6  -4  12 411.002 335.009   2
  -6  -4  11 2296.40 728.350   5
  -6  -4  11 2010.12 685.037   2
   6   4 -11 3720.91 976.888   7
   6   4 -10 21769.5 2295.24   7
  -6  -4  10 24556.5 2257.42   5
  -6  -4   9 2248.35 652.970   5
   6   4  -9 2015.19 694.839   7
  -6  -4   8 500.242 279.002   5
   6   4  -8 891.411 429.983   7
  -6  -4   7 1601.71 559.111   5
   6   4  -7 1286.77 506.232   7
  -6  -4   6 3857.87 842.423   5
   6   4  -6 3111.74 784.284   8
   6   4  -6 4326.00 961.072   7
  -6  -4   5 47961.7 2937.05   5
   6   4  -5 48337.6 3144.81   8
   6   4  -5 45559.3 3160.82   7
   6   4  -4 3987.16 682.393  11
  -6  -4   4 3533.32 767.988   5
   6   4  -4 4245.08 922.678   8
   6   4  -3 2263.66 548.473  11
  -6  -4   3 2431.09 642.774   5
   6   4  -3 1374.67 497.210   8
  -6  -4   2 46298.1 2880.33   5
   6   4  -2 47622.4 2743.22  11
   6   4  -2 52564.8 3315.16   8
  -6  -4   1 34064.6 2478.05   5
   6   4  -1 33233.5 2353.40  11
   6   4  -1 32375.3 2608.86   8
   6   4   0-171.569 229.209  11
  -6  -4   0 8.01361 108.296   5
  -6  -4   0 183.051 221.799  12
  -6  -4  -1 54167.0 3292.89   5
   6   4   1 53730.0 3310.22  11
  -6  -4  -1 51438.4 3316.84  12
   6   4   2 1072.14 564.761  11
  -6  -4  -2 751.418 388.998   5
  -6  -4  -2 1384.13 542.764  12
   6   4   3 5654.10 1200.64  11
  -6  -4  -3 7420.22 1266.49  12
   6   4   4 7961.63 1431.61  11
  -6  -4  -4 7991.85 1371.94  12
  -5  -5  12 1282.90 562.457   5
  -5  -5  12-236.461 268.158   2
   5   5 -12 923.715 465.372   9
  -5  -5  11-244.518 232.978   5
   5   5 -11-13.8591 132.511   7
   5   5 -10 43016.7 3220.47   7
  -5  -5  10 40096.4 3173.35   2
  -5  -5  10 32903.1 2592.63   5
  -5  -5   9 1183.35 495.437   5
   5   5  -9 981.907 437.091   7
  -5  -5   8 5008.01 991.797   5
   5   5  -8 4994.24 1022.29   7
  -5  -5   7 20221.9 1944.19   5
   5   5  -7 22310.3 2126.32   7
  -5  -5   6 187.365 357.859   5
   5   5  -6 53.9505 176.044   7
  -5  -5   5 5076.81 956.329   5
   5   5  -5 4811.55 968.312   8
   5   5  -5 5683.42 1078.07   7
   5   5  -4 432.640 183.983  11
  -5  -5   4 711.382 387.506   5
   5   5  -4 992.737 451.128   8
   5   5  -4 819.121 460.418   7
   5   5  -3 1528.97 477.342  11
  -5  -5   3 1631.91 569.675   5
   5   5  -3 1241.81 526.048   8
   5   5  -2 471.752 269.444  11
  -5  -5   2 94.6176 85.3589   5
   5   5  -2 350.898 199.150   8
  -5  -5   1 16708.1 1831.57   5
   5   5  -1 16626.4 1655.79  11
   5   5  -1 19289.6 2005.42   8
  -5  -5   0 21551.6 2138.56   5
   5   5   0 23746.3 2102.16  11
   5   5   0 24712.7 2313.88   8
   5   5   1 3152.38 786.197  11
  -5  -5  -1 3879.11 937.085   5
   5   5   1 5035.18 1001.25   8
  -5  -5  -2 21976.3 2324.64   5
   5   5   2 24933.8 2378.15  11
  -5  -5  -3 28132.8 2692.39   5
   5   5   3 27942.6 2664.74  11
  -5  -5  -3 27612.6 2499.36  12
  -5  -5  -4 12314.2 1839.98   5
   5   5   4 14673.3 1992.43  11
  -5  -5  -4 17141.4 1994.25  12
  -4  -6  12-169.498 206.906   5
   4   6 -12-122.866 329.788   9
   4   6 -11 25658.8 2563.66   7
  -4  -6  11 25996.2 2671.98   2
  -4  -6  11 23329.9 2181.40   5
  -4  -6  10 8165.23 1440.34   2
   4   6 -10 9280.93 1491.77   7
  -4  -6  10 7805.10 1245.88   5
   4   6  -9 17723.5 1972.26   7
  -4  -6   9 19375.9 2170.14   2
  -4  -6   9 16027.0 1765.31   5
  -4  -6   8 883.330 380.536   5
   4   6  -8 862.429 466.809   7
  -4  -6   7 62994.7 3559.39   5
   4   6  -7 68905.5 3794.11   7
  -4  -6   6 47684.6 3076.96   5
   4   6  -6 52561.6 3224.24   7
  -4  -6   5 35797.6 2652.19   5
   4   6  -5 38155.8 2739.19   7
  -4  -6   4 32029.3 2519.57   5
   4   6  -4 40263.2 2848.46   8
   4   6  -4 37572.2 2707.62   7
  -4  -6   3 63398.6 3653.14   5
   4   6  -3 66812.1 3359.80  11
   4   6  -3 72148.6 3944.78   8
   4   6  -3 66784.4 3736.31   7
  -4  -6   2 67414.6 3818.72   5
   4   6  -2 72932.6 3662.13  11
   4   6  -2 70828.9 3977.00   8
   4   6  -2 67775.4 3798.61   7
   4   6  -1 6774.15 1130.63  11
  -4  -6   1 6337.23 1165.09   5
   4   6  -1 6938.83 1172.87   8
  -4  -6   0 83220.6 4407.84   5
   4   6   0 84289.2 4328.87  11
   4   6   0 86147.5 4477.19   8
  -4  -6   0 83645.8 4000.93   3
  -4  -6  -1 38150.4 2933.25   5
   4   6   1 39735.1 3013.74  11
   4   6   1 37777.8 2883.38   8
  -4  -6  -1 39090.3 2660.64   3
  -4  -6  -2 1529.73 540.326   3
   4   6   2 1554.71 698.039  11
  -4  -6  -2 2233.33 692.089   5
   4   6   2 1252.41 507.853   8
  -4  -6  -3 16535.2 1959.36   5
   4   6   3 14465.0 1985.36  11
   4   6   3 13584.4 1743.60   8
  -4  -6  -4 25247.9 2475.21   5
   4   6   4 19923.3 2425.15  11
  -4  -6  -5 3620.37 983.672   5
   4   6   5 4076.24 1094.00   1
   3   7 -11 13363.9 1887.25   9
  -3  -7  11 11058.4 1495.70   5
  -3  -7  10 2378.12 679.434   5
  -3  -7  10 1070.46 466.900   2
   3   7 -10 2234.72 718.195   7
   3   7  -9 13715.8 1726.23   7
  -3  -7   9 15086.5 1972.77   2
  -3  -7   9 12617.8 1581.89   5
  -3  -7   8 36252.5 2694.89   5
   3   7  -8 35639.1 2739.15   7
  -3  -7   8 35991.2 2949.40   2
  -3  -7   7 285.335 239.604   5
   3   7  -7-158.144 149.020   7
  -3  -7   6 14000.8 1652.86   5
   3   7  -6 16581.5 1755.74   7
  -3  -7   5 18794.0 1913.53   5
   3   7  -5 21895.7 1970.74   7
  -3  -7   4 8278.61 1284.25   5
   3   7  -4 8436.45 1228.69   7
  -3  -7   3 10015.9 1410.70   5
   3   7  -3 8883.49 1354.34   8
   3   7  -3 8449.57 1226.78   7
  -3  -7   2 756.316 480.127   5
   3   7  -2 1085.46 455.823   8
   3   7  -2 164.090 86.7383   7
  -3  -7   1 15839.5 1807.05   5
   3   7  -1 11427.9 1553.90   8
   3   7  -1 10991.4 1424.02   7
  -3  -7   1 13039.9 1560.03   3
  -3  -7   0 968.434 406.481   3
   3   7   0 1830.24 676.689   8
   3   7   0 799.899 354.425   7
   3   7   1 10122.4 1469.74   8
  -3  -7  -1 10521.1 1444.69   3
  -3  -7  -2 6906.59 1211.60   3
   3   7   2 4481.83 962.164   8
  -3  -7  -3 1257.66 506.846   3
   3   7   3 2058.47 643.759   8
  -3  -7  -4 6694.96 1270.68   3
   3   7   4 5167.21 1063.31   8
  -2  -8  10 140.598 224.236   2
  -2  -8   9 14725.3 1707.99   5
   2   8  -9 13430.1 1721.91   7
  -2  -8   9 12878.1 1878.25   2
  -2  -8   8 15585.9 1750.07   5
   2   8  -8 17610.9 1901.40   7
  -2  -8   8 15568.0 1965.91   2
  -2  -8   7 3976.25 875.076   5
   2   8  -7 3984.73 878.994   7
  -2  -8   6 22638.2 2110.98   5
   2   8  -6 20557.4 1938.87   7
  -2  -8   5 45042.7 3003.02   5
   2   8  -5 41088.0 2716.28   7
  -2  -8   4 310.492 253.952   5
   2   8  -4 716.854 408.277   7
  -2  -8   3 16747.8 1833.89   5
   2   8  -3 17479.7 1686.10   7
  -2  -8   2 16701.2 1854.77   5
   2   8  -2 17397.3 1659.20   7
  -2  -8   2 15763.2 1843.91   3
  -2  -8   1 359.919 324.480   3
  -2  -8   1 503.336 362.980   5
   2   8  -1 623.327 393.186   8
   2   8   0 52074.8 3339.86   8
  -2  -8   0 53380.0 3487.81   3
  -2  -8  -1 4095.98 983.407   3
   2   8   1 3580.00 892.261   8
  -2  -8  -2 46.1769 283.632   3
   2   8   2 646.845 524.912   8
  -2  -8  -3 33865.2 3002.02   3
  -1  -9   8 187.098 141.530   5
  -1  -9   7 7304.92 1204.67   5
   1   9  -7 7331.24 1181.93   7
  -1  -9   6 47646.7 3128.14   5
   1   9  -6 49395.1 2998.93   4
   1   9  -6 47969.8 2996.54   7
  -1  -9   5 6567.09 1117.13   5
   1   9  -5 7276.53 1101.16   7
   1   9  -5 6657.32 1090.17   4
  -1  -9   4 26466.3 2347.07   5
   1   9  -4 27699.2 2315.92   4
  -1  -9   3 10579.3 1476.97   5
   1   9  -3 13386.7 1640.26   4
  -1  -9   2 32762.5 2655.26   5
   1   9  -2 34882.6 2741.43   4
  -1  -9   2 31105.3 2743.11   3
  -1  -9   1 5868.40 1234.71   3
   1   9  -1 6836.93 1209.41   4
  -1  -9   0 3079.28 887.459   3
   1   9   0 3492.15 901.017   4
  -1  -9  -1 19488.8 2256.86   3
   0 -10   6 2621.44 710.251   5
   0  10  -6 1587.19 512.490   4
   0 -10   5 937.599 439.488   5
   0  10  -5 2076.66 625.573   4
   0 -10   4 8203.06 1328.87   5
   0  10  -4 7097.16 1175.39   4
   0 -10   3 1549.93 599.422   5
   0  10  -3 1572.19 604.606   4
  10   1  -4 15887.0 1828.89  11
   9   2  -8 33078.3 2999.08   7
  -9  -2   7 1429.42 546.206   5
   9   2  -7 1948.85 726.647   7
  -9  -2   6 1050.11 468.688   5
   9   2  -6 526.953 381.508   7
   9   2  -5 71543.9 4236.11   8
  -9  -2   5 67947.1 3796.86   5
  -9  -2   4 3076.10 737.581   5
   9   2  -4 2543.24 676.033  11
   9   2  -4 2818.79 770.053   8
   9   2  -3 12141.0 1589.81  11
   9   2  -3 13598.6 1800.00   8
  -9  -2   3 10585.1 1361.46   5
   9   2  -2 51576.2 3419.91  11
   9   2  -2 52772.4 3634.70   8
  -9  -2   2 51610.1 3472.30  12
   9   2  -1 612.157 483.246  11
  -9  -2   1 1144.19 527.888  12
   8   3  -9 12792.3 1824.33   7
   8   3  -8 20533.3 2283.32   7
  -8  -3   8 21187.7 2179.68   5
  -8  -3   7 299.426 177.558   5
   8   3  -7 411.078 309.129   7
  -8  -3   6 433.864 376.257   5
   8   3  -6 581.369 362.419   8
   8   3  -6 3.72045 117.445   7
   8   3  -5 19982.6 2139.99   8
  -8  -3   5 18055.5 1879.61   5
   8   3  -4 817.953 364.329  11
  -8  -3   4 594.928 368.209   5
   8   3  -4 1153.90 511.508   8
   8   3  -3 12662.1 1533.86  11
   8   3  -3 13349.2 1751.82   8
  -8  -3   3 11046.0 1404.81   5
   8   3  -2 6271.39 1146.78  11
  -8  -3   2 5573.99 970.088   5
   8   3  -2 7056.45 1273.97   8
   8   3  -1 9320.03 1396.20  11
  -8  -3   1 6633.45 1067.12   5
   8   3  -1 9281.38 1468.73   8
  -8  -3   1 9578.63 1439.41  12
   8   3   0 24645.6 2400.30  11
  -8  -3   0 22674.8 2301.83  12
   8   3   1 2705.42 852.791  11
  -7  -4  10 978.158 469.881   5
   7   4 -10 592.951 335.380   7
   7   4  -9 48695.3 3539.57   7
  -7  -4   9 51820.9 3465.96   5
   7   4  -8 14857.2 1896.30   7
  -7  -4   8 12794.4 1658.84   5
  -7  -4   7 3431.96 832.809   5
   7   4  -7 3362.88 902.478   7
   7   4  -6 85179.8 4504.46   8
   7   4  -6 81172.2 4563.60   7
  -7  -4   6 86445.3 4323.03   5
  -7  -4   5 4243.55 918.620   5
   7   4  -5 4004.92 971.332   8
   7   4  -5 5933.00 1188.12   7
  -7  -4   4 7620.89 1203.73   5
   7   4  -4 10177.3 1233.37  11
   7   4  -4 9430.37 1466.12   8
  -7  -4   3 39514.0 2758.11   5
   7   4  -3 39598.9 2581.37  11
   7   4  -3 41078.2 3102.55   8
   7   4  -2 826.134 440.540  11
  -7  -4   2 678.757 363.235   5
   7   4  -2 1052.66 567.647   8
  -7  -4   1 21925.7 2071.19   5
   7   4  -1 19807.2 1969.92  11
   7   4  -1 22389.3 2299.50   8
   7   4   0 706.089 403.479  11
  -7  -4   0 416.986 413.866   5
  -7  -4   0 1324.14 599.689  12
   7   4   1 3166.45 862.564  11
  -7  -4  -1 4168.85 910.297   5
  -7  -4  -1 3222.46 878.506  12
   7   4   2 10721.0 1644.65  11
   6   5 -10 20613.0 2278.58   7
  -6  -5  10 17735.3 2003.37   5
   6   5  -9 26972.5 2563.35   7
  -6  -5   9 24058.8 2312.35   5
  -6  -5   8 1505.11 567.285   5
   6   5  -8 1000.44 508.497   7
   6   5  -7 12981.8 1727.08   7
  -6  -5   7 12937.6 1646.99   5
  -6  -5   6 3670.77 989.548   5
   6   5  -6 5287.64 1072.92   8
   6   5  -6 5422.25 1114.43   7
  -6  -5   5 7825.13 1241.32   5
   6   5  -5 7950.73 1311.76   8
   6   5  -5 5074.38 1098.47   7
  -6  -5   4-64.5951 202.664   5
   6   5  -4 562.050 473.362   8
   6   5  -4 434.746 301.326   7
   6   5  -3-87.5011 89.0501  11
   6   5  -3 277.746 353.680   8
  -6  -5   2 16706.4 1905.68   5
   6   5  -2 17674.8 1734.05  11
   6   5  -2 20222.7 2220.69   8
  -6  -5   1 24839.3 2369.10   5
   6   5  -1 24566.0 2163.11  11
   6   5  -1 28849.7 2634.64   8
   6   5   0 1719.50 530.651  11
  -6  -5   0 1297.65 542.217   5
   6   5   0 1472.75 591.979   8
  -6  -5  -1 33120.2 2891.82   5
   6   5   1 35769.8 2846.95  11
   6   5   1 37707.4 3101.94   8
  -6  -5  -2 15105.8 1994.92   5
   6   5   2 21601.4 2328.49  11
  -5  -6  11 3891.90 944.463   5
  -5  -6  10 1470.81 611.849   5
   5   6 -10 1961.18 693.994   7
   5   6  -9 44722.9 3283.79   7
  -5  -6   9 44907.0 3201.92   5
  -5  -6   8 4506.05 981.219   5
   5   6  -8 4750.42 1049.76   7
  -5  -6   7 29594.9 2549.07   5
   5   6  -7 32507.2 2676.47   7
  -5  -6   6 23086.2 2217.93   5
   5   6  -6 25874.8 2391.18   7
  -5  -6   5 17611.9 1930.05   5
   5   6  -5 15592.5 1844.66   8
   5   6  -5 18041.8 2002.69   7
  -5  -6   4 15143.4 1802.01   5
   5   6  -4 17438.8 1984.72   8
   5   6  -4 15681.7 1887.27   7
  -5  -6   3 19362.3 2061.06   5
   5   6  -3 22720.6 1970.60  11
   5   6  -3 24951.5 2419.93   8
   5   6  -3 23076.9 2309.69   7
   5   6  -2 7317.10 1163.98  11
  -5  -6   2 6152.02 1184.13   5
   5   6  -2 8768.35 1444.27   8
   5   6  -1 693.969 517.532  11
  -5  -6   1 907.083 459.657   5
   5   6  -1 459.381 257.313   8
   5   6   0 1173.26 511.290  11
  -5  -6   0 908.140 314.162   5
   5   6   0 2241.71 741.846   8
   5   6   1 9068.13 1482.30  11
  -5  -6  -1 7764.11 1417.33   5
   5   6   1 7722.71 1356.72   8
  -5  -6  -2 13228.5 1870.58   5
   5   6   2 14408.6 1953.70  11
   5   6   2 15057.5 1938.57   8
  -5  -6  -3 2215.37 840.363   5
  -4  -7  11 1465.65 552.921   5
  -4  -7  10 38141.2 3291.54   2
  -4  -7  10 33672.9 2781.09   5
  -4  -7   9 4439.67 997.126   5
   4   7  -9 5896.96 1185.39   7
  -4  -7   8 1882.98 643.118   5
   4   7  -8 3354.24 865.212   7
  -4  -7   7 6583.36 1203.67   5
   4   7  -7 6774.40 1193.74   7
  -4  -7   6 556.426 346.254   5
   4   7  -6 337.699 217.230   7
  -4  -7   5 1191.16 434.673   5
   4   7  -5 1190.08 505.518   7
  -4  -7   4 862.280 423.836   5
   4   7  -4 610.048 384.031   7
  -4  -7   3 262.996 207.711   5
   4   7  -3 1132.63 470.046   8
   4   7  -3 901.721 438.587   7
  -4  -7   2 1500.37 539.116   5
   4   7  -2 1932.93 721.935   8
   4   7  -2 798.043 433.544   7
  -4  -7   1 17445.3 2023.78   5
   4   7  -1 18349.5 2094.67   8
   4   7  -1 18214.4 1978.58   7
  -4  -7   0 3752.52 864.845   3
  -4  -7   0 5007.82 1109.49   5
   4   7   0 3262.86 887.742   8
   4   7   0 3275.20 804.459   7
  -4  -7  -1 602.047 315.298   3
  -4  -7  -1 211.397 284.916   5
   4   7   1 467.838 260.004   8
  -4  -7  -2 10680.8 1611.17   5
   4   7   2 8676.24 1437.74   8
   4   7   3 10787.7 1615.42   8
  -3  -8  10 1805.04 641.448   5
  -3  -8   9 2439.35 727.413   5
   3   8  -9 2947.68 817.814   7
  -3  -8   8-125.180 176.768   5
   3   8  -8 487.423 326.717   7
  -3  -8   7-151.633 288.016   5
   3   8  -7 598.907 356.041   7
  -3  -8   6 26106.2 2390.72   5
   3   8  -6 25128.1 2252.91   7
  -3  -8   5 11985.9 1623.44   5
   3   8  -5 11101.6 1474.79   7
  -3  -8   4-12.7912 105.811   5
   3   8  -4 1235.01 492.000   7
  -3  -8   3 43953.5 3155.25   5
   3   8  -3 44517.9 2970.57   7
  -3  -8   2 22296.7 2257.73   5
   3   8  -2 23805.2 2331.08   8
   3   8  -2 23192.9 2113.53   7
  -3  -8   1 2669.59 738.092   3
  -3  -8   1 2334.62 757.983   5
   3   8  -1 2873.64 815.299   8
  -3  -8   0 23014.6 2336.36   5
   3   8   0 26470.9 2498.73   8
  -3  -8   0 23852.2 2316.82   3
  -3  -8  -1 685.361 391.822   3
  -3  -8  -1 848.787 478.013   5
   3   8   1 660.561 540.548   8
  -3  -8  -2 375.060 268.729   3
   3   8   2 1537.69 600.766   8
  -2  -9   9 2926.85 798.607   5
  -2  -9   8 28238.7 2486.73   5
   2   9  -8 28743.6 2509.72   7
  -2  -9   7 832.656 467.183   5
   2   9  -7 987.235 476.312   7
  -2  -9   6 451.939 354.962   5
   2   9  -6 640.836 351.620   7
   2   9  -6 850.165 407.911   4
  -2  -9   5 426.356 352.789   5
   2   9  -5 874.810 398.381   7
  -2  -9   4 4338.92 955.460   5
   2   9  -4 3581.36 769.741   7
  -2  -9   3 1503.90 612.771   5
  -2  -9   2 18782.4 2063.54   5
  -2  -9   1 2192.70 732.320   3
  -2  -9   1 3209.11 880.168   5
  -2  -9   0 592.396 440.595   3
   1  10  -6 12504.0 1558.94   4
   9   3  -6 10663.9 1611.37   8
  -9  -3   5 3971.67 877.757   5
   9   3  -5 6491.12 1289.30   8
  -9  -3   4 6337.81 1127.20   5
   9   3  -4 5763.26 1179.57   8
   9   3  -3 123.630 263.042  11
  -9  -3   3 361.202 267.813   5
   9   3  -2 18105.2 2058.06  11
   8   4  -7 17328.4 2137.71   7
  -8  -4   7 13617.8 1780.71   5
  -8  -4   6 6556.48 1201.77   5
   8   4  -6 5965.79 1169.40   8
   8   4  -6 5195.65 1160.20   7
  -8  -4   5 6401.69 1173.07   5
   8   4  -5 6136.31 1247.42   8
   8   4  -5 5552.45 1171.52   7
   8   4  -4 25717.9 2564.08   8
  -8  -4   4 23985.7 2270.10   5
   8   4  -3 6535.51 1144.01  11
  -8  -4   3 4945.60 987.557   5
   8   4  -3 6150.20 1260.16   8
  -8  -4   2 9811.49 1432.65   5
   8   4  -2 10786.9 1508.85  11
   8   4  -2 11185.6 1692.50   8
  -8  -4   1 14066.3 1717.96   5
   8   4  -1 16665.9 1951.88  11
   7   5  -8 15196.7 1960.19   7
  -7  -5   8 15902.1 1957.77   5
   7   5  -7 9956.94 1589.11   7
  -7  -5   7 14371.7 1833.01   5
  -7  -5   6-397.042 304.403   5
   7   5  -6-16.5951 198.182   7
  -7  -5   5 3145.79 819.132   5
   7   5  -5 3590.72 929.903   8
   7   5  -5 2756.90 898.416   7
  -7  -5   4 4188.73 934.084   5
   7   5  -4 4974.93 1134.39   8
   7   5  -4 3930.59 1029.84   7
  -7  -5   3 18274.7 2029.78   5
   7   5  -3 16418.4 1722.30  11
   7   5  -3 18954.6 2225.23   8
   7   5  -2 3181.17 786.056  11
  -7  -5   2 1746.80 597.613   5
   7   5  -2 3014.23 911.150   8
   7   5  -1 2388.87 723.853  11
  -7  -5   1 2594.73 763.295   5
   7   5  -1 2195.41 714.304   8
   7   5   0 9162.05 1468.57  11
  -7  -5   0 7302.70 1377.80   5
  -7  -5  -1 4505.60 1097.70   5
  -6  -6   8 319.194 252.063   5
   6   6  -8 446.129 343.926   7
  -6  -6   7 10364.0 1573.52   5
   6   6  -7 9529.05 1508.29   7
  -6  -6   6 41642.3 3192.04   5
   6   6  -6 36690.4 3056.99   7
  -6  -6   5 9686.86 1495.03   5
   6   6  -5 12800.6 1760.61   8
   6   6  -5 10742.4 1645.56   7
  -6  -6   4 41024.3 3174.82   5
   6   6  -4 37823.2 3130.06   8
   6   6  -4 44511.7 3410.45   7
  -6  -6   3 22496.6 2382.96   5
   6   6  -3 28747.9 2763.96   8
   6   6  -3 27192.6 2668.46   7
  -6  -6   2 16207.0 2029.46   5
   6   6  -2 18868.0 1966.42  11
   6   6  -2 17932.0 2206.60   8
  -6  -6   1 45091.6 3531.89   5
   6   6  -1 50182.6 3398.55  11
   6   6  -1 56105.3 3962.47   8
   6   6   0 3323.41 923.238  11
  -6  -6   0 558.628 413.020   5
   6   6   0 2297.72 846.425   8
  -6  -6  -1 1712.35 595.202   5
  -5  -7   8 3143.09 876.351   5
   5   7  -8 3888.03 945.728   7
  -5  -7   7 3210.48 880.229   5
   5   7  -7 3119.94 836.646   7
  -5  -7   6 300.595 345.752   5
   5   7  -6 821.911 538.226   7
  -5  -7   5 1243.13 571.121   5
   5   7  -5 2010.00 681.106   7
  -5  -7   4 975.928 367.421   5
   5   7  -4 645.366 570.007   8
   5   7  -4 886.917 459.701   7
  -5  -7   3 5188.46 1137.55   5
   5   7  -3 5782.23 1247.41   8
   5   7  -3 5389.53 1135.37   7
  -5  -7   2 41.1742 170.905   5
   5   7  -2-463.583 340.900   7
  -5  -7   1 14534.4 1923.45   5
   5   7  -1 13659.8 1931.68   8
   5   7  -1 11521.7 1683.54   7
  -5  -7   0 1821.79 652.360   5
   5   7   0 1444.41 656.705   8
  -4  -8   8 7505.21 1335.56   5
  -4  -8   7 38985.7 3101.94   5
   4   8  -7 42223.4 3152.85   7
  -4  -8   6 741.681 419.294   5
   4   8  -6 302.765 269.488   7
  -4  -8   5 25909.5 2540.86   5
   4   8  -5 33583.2 2761.69   7
  -4  -8   4 9300.20 1507.30   5
   4   8  -4 8823.64 1402.68   7
  -4  -8   3-7.17635 230.433   5
   4   8  -3 82.0369 250.564   7
  -4  -8   2 54199.2 3739.18   5
   4   8  -2 53556.5 3769.36   8
   4   8  -2 50222.4 3410.94   7
   4   8  -1 3636.39 987.335   8
   4   8  -1 2846.01 799.536   7
  -4  -8   0 666.604 329.676   3
   3   9  -6 1076.59 436.862   7
   3   9  -5 10814.1 1499.17   7
   3   9  -4 4475.14 964.375   7
   7   6  -2 251.295 324.231  11
   0   0   0    0.00    0.00   0
;
_shelx_hkl_checksum              6123
loop_
_space_group_symop_operation_xyz
'x, y, z'
'-x, -y, -z'
loop_
_atom_site_label
_atom_site_type_symbol
_atom_site_fract_x
_atom_site_fract_y
_atom_site_fract_z
_atom_site_U_iso_or_equiv
_atom_site_adp_type
_atom_site_occupancy
_atom_site_site_symmetry_order
_atom_site_calc_flag
Mn1 Mn -0.05715(5) -0.23945(5) 0.20586(4) 0.00979(9) Uani 1 1 d
Mn2 Mn 0.68277(5) 0.20730(5) 0.51821(4) 0.00951(9) Uani 1 1 d
V2 V 0.45866(6) -0.11174(6) 0.17904(4) 0.00759(9) Uani 1 1 d
V3 V 0.16188(6) 0.23648(6) 0.45149(4) 0.00782(10) Uani 1 1 d
V1 V 0.08777(6) -0.22435(6) 0.88229(4) 0.00812(10) Uani 1 1 d
K1 K 0.45437(9) 0.39821(10) 0.18908(8) 0.02634(16) Uani 1 1 d
O1 O 0.3568(2) 0.1315(3) 0.50399(18) 0.0112(3) Uani 1 1 d
O2 O 0.0248(3) 0.1073(3) 0.25920(18) 0.0113(3) Uani 1 1 d
O3 O 0.7223(2) 0.2313(3) 0.74941(18) 0.0107(3) Uani 1 1 d
O4 O 0.0021(3) 0.2181(3) 0.56376(18) 0.0116(3) Uani 1 1 d
O5 O 0.3122(3) -0.0721(3) 0.01147(19) 0.0135(4) Uani 1 1 d
O6 O -0.3792(3) -0.2570(3) 0.14679(19) 0.0129(3) Uani 1 1 d
O7 O 0.1326(3) -0.4411(3) 0.8119(2) 0.0161(4) Uani 1 1 d
O8 O 0.5892(3) 0.1142(3) 0.28848(18) 0.0123(3) Uani 1 1 d
O9 O -0.0760(3) -0.2680(3) 0.97995(19) 0.0166(4) Uani 1 1 d
O10 O 0.2639(3) 0.4749(3) 0.4604(2) 0.0171(4) Uani 1 1 d
loop_
_atom_site_aniso_label
_atom_site_aniso_U_11
_atom_site_aniso_U_22
_atom_site_aniso_U_33
_atom_site_aniso_U_23
_atom_site_aniso_U_13
_atom_site_aniso_U_12
Mn1 0.00952(18) 0.01029(19) 0.00936(18) 0.00255(14) 0.00219(14) 0.00229(14)
Mn2 0.00880(17) 0.01070(18) 0.00832(17) 0.00215(14) 0.00138(14) 0.00199(14)
V2 0.00708(18) 0.00747(19) 0.00774(19) 0.00162(15) 0.00131(15) 0.00174(14)
V3 0.00743(19) 0.00801(19) 0.00777(19) 0.00169(15) 0.00170(15) 0.00202(14)
V1 0.00799(18) 0.00896(19) 0.00753(18) 0.00296(15) 0.00125(15) 0.00234(15)
K1 0.0154(3) 0.0207(3) 0.0455(4) 0.0194(3) 0.0040(3) 0.0034(2)
O1 0.0094(8) 0.0114(8) 0.0131(8) 0.0032(7) 0.0024(7) 0.0040(7)
O2 0.0125(8) 0.0102(8) 0.0104(8) 0.0027(7) 0.0013(7) 0.0029(7)
O3 0.0090(8) 0.0124(8) 0.0112(8) 0.0044(7) 0.0034(7) 0.0015(7)
O4 0.0108(8) 0.0145(9) 0.0093(8) 0.0018(7) 0.0029(7) 0.0034(7)
O5 0.0112(8) 0.0154(9) 0.0124(8) 0.0066(7) 0.0002(7) -0.0002(7)
O6 0.0116(8) 0.0119(9) 0.0165(9) 0.0045(7) 0.0049(7) 0.0038(7)
O7 0.0191(9) 0.0105(9) 0.0184(9) 0.0036(7) 0.0040(8) 0.0041(7)
O8 0.0152(9) 0.0094(8) 0.0100(8) 0.0018(7) 0.0013(7) 0.0004(7)
O9 0.0120(9) 0.0262(11) 0.0113(9) 0.0059(8) 0.0027(7) 0.0029(8)
O10 0.0196(9) 0.0103(9) 0.0206(10) 0.0050(7) 0.0042(8) 0.0023(7)
loop_
_atom_type_symbol
_atom_type_description
_atom_type_scat_dispersion_real
_atom_type_scat_dispersion_imag
_atom_type_scat_source
O O 0.0106 0.0060 'International Tables Vol C Tables 4.2.6.8 and 6.1.1.4'
K K 0.2009 0.2494 'International Tables Vol C Tables 4.2.6.8 and 6.1.1.4'
V V 0.3005 0.5294 'International Tables Vol C Tables 4.2.6.8 and 6.1.1.4'
Mn Mn 0.3368 0.7283 'International Tables Vol C Tables 4.2.6.8 and 6.1.1.4'
loop_
_geom_angle_atom_site_label_1
_geom_angle_atom_site_label_2
_geom_angle_atom_site_label_3
_geom_angle
_geom_angle_site_symmetry_1
_geom_angle_site_symmetry_3
O9 Mn1 O4 173.03(6) 1_554 2_556
O9 Mn1 O6 86.00(7) 1_554 .
O4 Mn1 O6 100.78(6) 2_556 .
O9 Mn1 O7 95.60(7) 1_554 2_546
O4 Mn1 O7 83.15(7) 2_556 2_546
O6 Mn1 O7 87.71(7) . 2_546
O9 Mn1 O3 90.11(6) 1_554 2_656
O4 Mn1 O3 83.07(6) 2_556 2_656
O6 Mn1 O3 175.87(6) . 2_656
O7 Mn1 O3 91.29(7) 2_546 2_656
O9 Mn1 O2 92.45(7) 1_554 .
O4 Mn1 O2 88.90(6) 2_556 .
O6 Mn1 O2 92.56(6) . .
O7 Mn1 O2 171.95(6) 2_546 .
O3 Mn1 O2 88.98(6) 2_656 .
O9 Mn1 Mn2 132.02(6) 1_554 2_656
O4 Mn1 Mn2 41.16(5) 2_556 2_656
O6 Mn1 Mn2 141.93(5) . 2_656
O7 Mn1 Mn2 86.58(5) 2_546 2_656
O3 Mn1 Mn2 41.91(5) 2_656 2_656
O2 Mn1 Mn2 88.26(4) . 2_656
O9 Mn1 K1 101.83(5) 1_554 1_445
O4 Mn1 K1 82.42(5) 2_556 1_445
O6 Mn1 K1 42.32(6) . 1_445
O7 Mn1 K1 47.62(5) 2_546 1_445
O3 Mn1 K1 137.71(6) 2_656 1_445
O2 Mn1 K1 130.09(5) . 1_445
Mn2 Mn1 K1 113.91(4) 2_656 1_445
O9 Mn1 K1 37.58(6) 1_554 2
O4 Mn1 K1 148.34(5) 2_556 2
O6 Mn1 K1 50.17(5) . 2
O7 Mn1 K1 83.35(5) 2_546 2
O3 Mn1 K1 125.73(5) 2_656 2
O2 Mn1 K1 102.98(4) . 2
Mn2 Mn1 K1 163.970(17) 2_656 2
K1 Mn1 K1 67.39(3) 1_445 2
O8 Mn2 O4 102.27(6) . 1_655
O8 Mn2 O10 97.48(7) . 2_666
O4 Mn2 O10 92.26(7) 1_655 2_666
O8 Mn2 O3 164.99(7) . .
O4 Mn2 O3 85.38(6) 1_655 .
O10 Mn2 O3 95.07(7) 2_666 .
O8 Mn2 O1 84.99(7) . .
O4 Mn2 O1 164.18(7) 1_655 .
O10 Mn2 O1 100.79(7) 2_666 .
O3 Mn2 O1 84.61(6) . .
O8 Mn2 O1 82.74(6) . 2_656
O4 Mn2 O1 84.82(6) 1_655 2_656
O10 Mn2 O1 177.05(6) 2_666 2_656
O3 Mn2 O1 85.15(6) . 2_656
O1 Mn2 O1 82.16(6) . 2_656
O8 Mn2 Mn1 141.81(5) . 2_656
O4 Mn2 Mn1 41.25(5) 1_655 2_656
O10 Mn2 Mn1 95.27(5) 2_666 2_656
O3 Mn2 Mn1 44.13(5) . 2_656
O1 Mn2 Mn1 127.50(5) . 2_656
O1 Mn2 Mn1 82.83(4) 2_656 2_656
O8 Mn2 K1 40.14(6) . .
O4 Mn2 K1 116.76(5) 1_655 .
O10 Mn2 K1 60.80(5) 2_666 .
O3 Mn2 K1 146.11(5) . .
O1 Mn2 K1 77.83(5) . .
O1 Mn2 K1 120.22(5) 2_656 .
Mn1 Mn2 K1 149.99(2) 2_656 .
O8 Mn2 K1 133.48(5) . 2_666
O4 Mn2 K1 113.29(5) 1_655 2_666
O10 Mn2 K1 53.78(6) 2_666 2_666
O3 Mn2 K1 50.97(5) . 2_666
O1 Mn2 K1 68.88(5) . 2_666
O1 Mn2 K1 127.92(5) 2_656 2_666
Mn1 Mn2 K1 82.15(4) 2_656 2_666
K1 Mn2 K1 95.41(5) . 2_666
O8 V2 O6 109.89(10) . 1_655
O8 V2 O3 112.53(9) . 2_656
O6 V2 O3 110.04(9) 1_655 2_656
O8 V2 O5 107.60(9) . .
O6 V2 O5 112.20(9) 1_655 .
O3 V2 O5 104.50(9) 2_656 .
O8 V2 K1 134.81(7) . 1_545
O6 V2 K1 47.68(6) 1_655 1_545
O3 V2 K1 62.87(6) 2_656 1_545
O5 V2 K1 117.16(6) . 1_545
O8 V2 K1 43.57(6) . .
O6 V2 K1 134.77(7) 1_655 .
O3 V2 K1 114.25(6) 2_656 .
O5 V2 K1 65.02(6) . .
K1 V2 K1 176.51(3) 1_545 .
O8 V2 K1 128.23(6) . 2_655
O6 V2 K1 48.46(6) 1_655 2_655
O3 V2 K1 119.08(7) 2_656 2_655
O5 V2 K1 63.86(7) . 2_655
K1 V2 K1 71.15(3) 1_545 2_655
K1 V2 K1 112.31(3) . 2_655
O10 V3 O1 106.93(10) . .
O10 V3 O4 111.79(9) . .
O1 V3 O4 109.89(9) . .
O10 V3 O2 108.43(9) . .
O1 V3 O2 108.69(8) . .
O4 V3 O2 110.97(9) . .
O10 V3 K1 56.00(6) . .
O1 V3 K1 84.38(7) . .
O4 V3 K1 164.35(6) . .
O2 V3 K1 68.45(7) . .
O10 V3 K1 58.04(7) . 2_666
O1 V3 K1 71.28(7) . 2_666
O4 V3 K1 82.99(8) . 2_666
O2 V3 K1 164.32(6) . 2_666
K1 V3 K1 96.15(5) . 2_666
O7 V1 O9 107.40(10) . .
O7 V1 O5 108.65(10) . 1_556
O9 V1 O5 104.64(10) . 1_556
O7 V1 O2 112.46(9) . 2_556
O9 V1 O2 108.31(9) . 2_556
O5 V1 O2 114.85(9) 1_556 2_556
O7 V1 K1 97.08(8) . 2_556
O9 V1 K1 43.43(7) . 2_556
O5 V1 K1 145.00(6) 1_556 2_556
O2 V1 K1 74.18(6) 2_556 2_556
O7 V1 K1 44.53(7) . 2_656
O9 V1 K1 137.74(7) . 2_656
O5 V1 K1 69.42(8) 1_556 2_656
O2 V1 K1 111.94(6) 2_556 2_656
K1 V1 K1 141.35(4) 2_556 2_656
O8 K1 O6 135.70(7) . 1_665
O8 K1 O9 112.21(7) . 2_556
O6 K1 O9 109.09(6) 1_665 2_556
O8 K1 O7 71.00(6) . 2_656
O6 K1 O7 66.40(6) 1_665 2_656
O9 K1 O7 143.56(7) 2_556 2_656
O8 K1 O3 147.36(6) . 2_666
O6 K1 O3 58.06(7) 1_665 2_666
O9 K1 O3 77.19(6) 2_556 2_666
O7 K1 O3 120.76(6) 2_656 2_666
O8 K1 O6 104.49(6) . 2
O6 K1 O6 82.33(6) 1_665 2
O9 K1 O6 60.53(5) 2_556 2
O7 K1 O6 83.24(5) 2_656 2
O3 K1 O6 107.05(5) 2_666 2
O8 K1 O10 87.57(6) . .
O6 K1 O10 109.98(6) 1_665 .
O9 K1 O10 87.17(7) 2_556 .
O7 K1 O10 129.03(6) 2_656 .
O3 K1 O10 61.04(5) 2_666 .
O6 K1 O10 147.69(6) 2 .
O8 K1 O5 56.35(6) . .
O6 K1 O5 137.93(6) 1_665 .
O9 K1 O5 63.21(5) 2_556 .
O7 K1 O5 95.13(5) 2_656 .
O3 K1 O5 140.20(6) 2_666 .
O6 K1 O5 57.31(5) 2 .
O10 K1 O5 110.74(5) . .
O8 K1 O10 63.05(6) . 2_666
O6 K1 O10 92.22(6) 1_665 2_666
O9 K1 O10 143.25(5) 2_556 2_666
O7 K1 O10 72.14(6) 2_656 2_666
O3 K1 O10 90.35(5) 2_666 2_666
O6 K1 O10 154.85(5) 2 2_666
O10 K1 O10 56.98(7) . 2_666
O5 K1 O10 118.78(5) . 2_666
O8 K1 V2 155.14(5) . 1_565
O6 K1 V2 28.29(4) 1_665 1_565
O9 K1 V2 91.82(5) 2_556 1_565
O7 K1 V2 93.70(4) 2_656 1_565
O3 K1 V2 29.98(4) 2_666 1_565
O6 K1 V2 92.57(4) 2 1_565
O10 K1 V2 87.38(4) . 1_565
O5 K1 V2 147.14(5) . 1_565
O10 K1 V2 94.05(4) 2_666 1_565
O8 K1 V2 26.21(4) . .
O6 K1 V2 149.12(5) 1_665 .
O9 K1 V2 87.88(5) 2_556 .
O7 K1 V2 84.50(4) 2_656 .
O3 K1 V2 152.81(4) 2_666 .
O6 K1 V2 84.26(4) 2 .
O10 K1 V2 96.07(4) . .
O5 K1 V2 30.55(4) . .
O10 K1 V2 88.25(4) 2_666 .
V2 K1 V2 176.51(3) 1_565 .
O8 K1 V1 102.49(5) . 2_556
O6 K1 V1 121.77(4) 1_665 2_556
O9 K1 V1 25.44(4) 2_556 2_556
O7 K1 V1 164.88(5) 2_656 2_556
O3 K1 V1 72.22(5) 2_666 2_556
O6 K1 V1 85.36(4) 2 2_556
O10 K1 V1 62.62(4) . 2_556
O5 K1 V1 70.27(3) . 2_556
O10 K1 V1 117.83(4) 2_666 2_556
V2 K1 V1 96.71(3) 1_565 2_556
V2 K1 V1 84.50(3) . 2_556
V3 O1 Mn2 134.27(10) . .
V3 O1 Mn2 123.39(10) . 2_656
Mn2 O1 Mn2 97.84(6) . 2_656
V1 O2 V3 126.47(10) 2_556 .
V1 O2 Mn1 117.49(9) 2_556 .
V3 O2 Mn1 115.19(8) . .
V2 O3 Mn2 123.88(10) 2_656 .
V2 O3 Mn1 129.03(9) 2_656 2_656
Mn2 O3 Mn1 93.95(6) . 2_656
V2 O3 K1 87.15(8) 2_656 2_666
Mn2 O3 K1 95.95(6) . 2_666
Mn1 O3 K1 124.85(7) 2_656 2_666
V3 O4 Mn2 129.35(9) . 1_455
V3 O4 Mn1 132.58(10) . 2_556
Mn2 O4 Mn1 97.59(7) 1_455 2_556
V1 O5 V2 130.36(11) 1_554 .
V1 O5 K1 134.09(8) 1_554 .
V2 O5 K1 84.43(7) . .
V2 O6 Mn1 138.97(11) 1_455 .
V2 O6 K1 104.03(9) 1_455 1_445
Mn1 O6 K1 104.24(7) . 1_445
V2 O6 K1 107.46(7) 1_455 2
Mn1 O6 K1 97.53(6) . 2
K1 O6 K1 97.67(6) 1_445 2
V1 O7 Mn1 144.61(11) . 2_546
V1 O7 K1 111.34(9) . 2_656
Mn1 O7 K1 97.89(6) 2_546 2_656
V2 O8 Mn2 129.12(9) . .
V2 O8 K1 110.22(9) . .
Mn2 O8 K1 108.71(8) . .
V1 O9 Mn1 135.78(11) . 1_556
V1 O9 K1 111.13(10) . 2_556
Mn1 O9 K1 113.08(8) 1_556 2_556
V3 O10 Mn2 164.34(11) . 2_666
V3 O10 K1 98.26(8) . .
Mn2 O10 K1 93.22(6) 2_666 .
V3 O10 K1 97.12(7) . 2_666
Mn2 O10 K1 85.35(6) 2_666 2_666
K1 O10 K1 123.02(7) . 2_666
loop_
_geom_bond_atom_site_label_1
_geom_bond_atom_site_label_2
_geom_bond_distance
_geom_bond_site_symmetry_2
Mn1 O9 2.122(2) 1_554
Mn1 O4 2.142(2) 2_556
Mn1 O6 2.147(2) .
Mn1 O7 2.160(2) 2_546
Mn1 O3 2.248(2) 2_656
Mn1 O2 2.306(2) .
Mn1 Mn2 3.2202(15) 2_656
Mn1 K1 3.778(2) 1_445
Mn1 K1 3.9834(19) 2
Mn2 O8 2.094(2) .
Mn2 O4 2.138(2) 1_655
Mn2 O10 2.143(2) 2_666
Mn2 O3 2.156(2) .
Mn2 O1 2.184(2) .
Mn2 O1 2.293(2) 2_656
Mn2 K1 3.8347(16) .
Mn2 K1 3.9285(18) 2_666
V2 O8 1.672(2) .
V2 O6 1.6817(18) 1_655
V2 O3 1.7227(18) 2_656
V2 O5 1.8145(18) .
V2 K1 3.443(3) 1_545
V2 K1 3.553(3) .
V2 K1 3.9323(18) 2_655
V3 O10 1.663(2) .
V3 O1 1.6830(18) .
V3 O4 1.7144(18) .
V3 O2 1.8400(19) .
V3 K1 3.7892(16) .
V3 K1 3.9280(17) 2_666
V1 O7 1.643(2) .
V1 O9 1.6498(19) .
V1 O5 1.758(2) 1_556
V1 O2 1.8364(18) 2_556
V1 K1 3.583(3) 2_556
V1 K1 3.742(2) 2_656
K1 O8 2.610(2) .
K1 O6 2.624(2) 1_665
K1 O9 2.641(2) 2_556
K1 O7 2.817(3) 2_656
K1 O3 3.068(2) 2_666
K1 O6 3.086(2) 2
K1 O10 3.174(2) .
K1 O5 3.236(3) .
K1 O10 3.359(2) 2_666
