#------------------------------------------------------------------------------
#$Date: 2020-11-24 07:07:10 +0200 (Tue, 24 Nov 2020) $
#$Revision: 259224 $
#$URL: file:///home/coder/svn-repositories/cod/cif/2/10/86/2108692.cif $
#------------------------------------------------------------------------------
#
# This file is available in the Crystallography Open Database (COD),
# http://www.crystallography.net/. The original data for this entry
# were provided by IUCr Journals, http://journals.iucr.org/.
#
# The file may be used within the scientific community so long as
# proper attribution is given to the journal article from which the
# data were obtained.
#
data_2108692
loop_
_publ_author_name
'Lindenthal, Lorenz'
'Ruh, Thomas'
'Rameshan, Raffael'
'Summerer, Harald'
'Nenning, Andreas'
'Herzig, Christopher'
'L\"offler, Stefan'
'Limbeck, Andreas'
'Opitz, Alexander Karl'
'Blaha, Peter'
'Rameshan, Christoph'
_publ_section_title
;
 Ca-doped rare earth perovskite materials for tailored exsolution of metal
 nanoparticles
;
_journal_issue                   6
_journal_name_full               'Acta Crystallographica Section B'
_journal_page_first
;
;
_journal_paper_doi               10.1107/S2052520620013475
_journal_volume                  76
_journal_year                    2020
_chemical_formula_structural     'La0.9 Ca0.1 Fe O3'
_chemical_formula_sum            'Ca0.1 Fe La0.9 O3'
_chemical_formula_weight         232.87
_chemical_name_common
;
Lanthanum calcium ferrite
;
_chemical_name_systematic
;
Lanthanum calcium iron oxide
;
_space_group_crystal_system      orthorhombic
_space_group_IT_number           62
_space_group_name_Hall           '-P 2ac 2n'
_space_group_name_H-M_alt        'P n m a'
_symmetry_Int_Tables_number      62
_symmetry_space_group_name_H-M   'P n m a'
_cell_angle_alpha                90
_cell_angle_beta                 90
_cell_angle_gamma                90
_cell_formula_units_Z            4
_cell_length_a                   5.558528
_cell_length_b                   7.837216
_cell_length_c                   5.547272
_cell_measurement_temperature    295
_cell_volume                     241.658
_computing_structure_refinement  'HighScore Plus 4.8.0'
_diffrn_ambient_temperature      295
_diffrn_measurement_device_type  'PANalytical X'Pert Pro'
_diffrn_radiation_probe          x-ray
_diffrn_radiation_type           'Cu K\a~1+2~'
_diffrn_radiation_wavelength     1.540598
_diffrn_source                   'sealed X-ray tube'
_diffrn_source_target            Cu
_exptl_crystal_density_diffrn    6.38720164
_exptl_crystal_density_method    'not measured'
_exptl_crystal_F_000             412.52164549
_pd_instr_cons_illum_flag        no
_pd_meas_2theta_range_inc        0.02000000
_pd_meas_2theta_range_max        119.96302676
_pd_meas_2theta_range_min        15.00302676
_pd_meas_datetime_initiated      '9/5/2018 10:06:54 AM'
_pd_meas_number_of_points        5249
_pd_meas_scan_method             step
_pd_proc_2theta_range_inc        0.02000000
_pd_proc_2theta_range_max        119.96302676
_pd_proc_2theta_range_min        15.00302676
_pd_proc_ls_background_function  'Vorhandenen Untergrund benutzen'
_pd_proc_ls_pref_orient_corr     'March/Dollase Modell'
_pd_proc_ls_profile_function     Pseudo-Voigt
_pd_proc_ls_prof_R_factor        0.02943028
_pd_proc_ls_prof_wR_expected     0.02410055
_pd_proc_ls_prof_wR_factor       0.03867273
_pd_proc_number_of_points        5249
_pd_spec_mounting                'Si single crystal'
_pd_spec_mount_mode              reflection
_pd_spec_shape                   irregular
_refine_ls_goodness_of_fit_all   1.60464128
_refine_ls_matrix_type           full
_refine_ls_R_I_factor            0.04601438
_refine_ls_weighting_details     1/[Y~i~+\s(Y~i~)]
_refine_ls_weighting_scheme      sigma
_reflns_d_resolution_high        0.893
_reflns_d_resolution_low         4.490
_reflns_limit_h_max              6
_reflns_limit_h_min              0
_reflns_limit_k_max              8
_reflns_limit_k_min              0
_reflns_limit_l_max              6
_reflns_limit_l_min              0
_reflns_number_observed          197
_cod_data_source_file            je5034sup1.cif
_cod_data_source_block           La0.9_Rietveld
_cod_original_cell_volume        241.657900
_cod_original_formula_sum        'La0.9 Ca0.1 Fe O3'
_cod_database_code               2108692
_xact_pref_orient_vector_h       0.00000000
_xact_pref_orient_vector_k       0.00000000
_xact_pref_orient_vector_l       1.00000000
_xact_pref_orient_param          1.000000
_xact_scale_factor               0.000880
_xact_cagliotti_u                0.143924
_xact_cagliotti_v                0.000000
_xact_cagliotti_w                0.055017
_xact_shape_param_1              0.600000
_xact_shape_param_2              0.000000
_xact_shape_param_3              0.000000
_xact_asym_param_1               0.025000
_xact_asym_param_2               0.025000
loop_
_symmetry_equiv_pos_as_xyz
'x, y, z'
'-x+1/2, -y, z+1/2'
'x+1/2, -y+1/2, -z+1/2'
'-x, y+1/2, -z'
'-x, -y, -z'
'x+1/2, y, -z+1/2'
'-x+1/2, y+1/2, z+1/2'
'x, -y+1/2, z'
loop_
_atom_site_label
_atom_site_type_symbol
_atom_site_fract_x
_atom_site_fract_y
_atom_site_fract_z
_atom_site_U_iso_or_equiv
_atom_site_thermal_displace_type
_atom_site_occupancy
_atom_site_symmetry_multiplicity
_atom_site_Wyckoff_symbol
_atom_site_calc_flag
O1 O 0.210583 0.029665 0.287018 0.006333 Uiso 1.000000 8 d d
LA1 La 0.477631 0.250000 0.006999 0.006333 Uiso 0.895417 4 c d
CA1 Ca 0.477631 0.250000 0.006999 0.006333 Uiso 0.104583 4 c d
FE1 Fe 0.000000 0.000000 0.000000 0.006333 Uiso 1.000000 4 a d
O2 O 0.514273 0.250000 0.571874 0.006333 Uiso 1.000000 4 c d
loop_
_pd_meas_intensity_total
_pd_proc_ls_weight
_pd_proc_intensity_bgk_calc
_pd_calc_intensity_total
1716.4419 0.000583 1716.4419 1716.4419
1724.3318 0.000580 1715.2696 1715.2696
1737.9756 0.000575 1714.0972 1714.0972
1729.7548 0.000578 1712.9249 1712.9249
1724.6407 0.000580 1711.7526 1711.7526
1750.9849 0.000571 1710.5803 1710.5803
1667.7404 0.000600 1709.4080 1709.4080
1669.8248 0.000599 1708.2356 1708.2356
1720.7321 0.000581 1707.0633 1707.0633
1756.2855 0.000569 1705.8910 1705.8910
1754.8287 0.000570 1704.7187 1704.7187
1709.7940 0.000585 1703.5463 1703.5463
1711.9973 0.000584 1702.3740 1702.3740
1704.6434 0.000587 1701.2017 1701.2017
1754.4471 0.000570 1700.0294 1700.0294
1716.1956 0.000583 1698.8571 1698.8571
1679.9095 0.000595 1697.6847 1697.6847
1713.3970 0.000584 1696.5124 1696.5124
1690.5180 0.000592 1695.3401 1695.3401
1636.8539 0.000611 1694.1678 1694.1678
1693.7129 0.000590 1692.9955 1692.9955
1711.7195 0.000584 1691.8231 1691.8231
1712.3637 0.000584 1690.6508 1690.6508
1730.7040 0.000578 1689.4785 1689.4785
1696.1657 0.000590 1688.3062 1688.3062
1635.9612 0.000611 1687.1338 1687.1338
1664.7245 0.000601 1685.9615 1685.9615
1710.9756 0.000584 1684.7892 1684.7892
1722.5767 0.000581 1683.6169 1683.6169
1735.0885 0.000576 1682.4446 1682.4446
1708.3260 0.000585 1681.2722 1681.2722
1665.0045 0.000601 1680.0999 1680.0999
1651.0000 0.000606 1678.9276 1678.9276
1618.9479 0.000618 1677.7553 1677.7553
1562.9345 0.000640 1676.5830 1676.5830
1597.8975 0.000626 1675.4106 1675.4106
1635.2524 0.000612 1674.2383 1674.2383
1679.0555 0.000596 1673.0660 1673.0660
1659.1969 0.000603 1671.8937 1671.8937
1679.3426 0.000595 1670.7213 1670.7213
1705.5649 0.000586 1669.5490 1669.5490
1695.7370 0.000590 1668.3767 1668.3767
1654.6243 0.000604 1667.2044 1667.2044
1669.7150 0.000599 1666.0321 1666.0321
1697.7183 0.000589 1664.8597 1664.8597
1648.4484 0.000607 1663.5804 1663.5804
1695.9218 0.000590 1662.3011 1662.3011
1689.0074 0.000592 1661.0218 1661.0218
1615.4318 0.000619 1659.7424 1659.7424
1625.0624 0.000615 1658.4631 1658.4631
1655.3600 0.000604 1657.1838 1657.1838
1638.1944 0.000610 1655.9045 1655.9045
1630.4937 0.000613 1654.6252 1654.6252
1628.0597 0.000614 1653.3458 1653.3458
1638.2824 0.000610 1652.0665 1652.0665
1666.7645 0.000600 1650.7872 1650.7872
1685.0344 0.000593 1649.5079 1649.5079
1644.0917 0.000608 1648.2285 1648.2285
1625.4464 0.000615 1646.9492 1646.9492
1633.4652 0.000612 1645.6699 1645.6699
1662.0060 0.000602 1644.3906 1644.3906
1667.3574 0.000600 1643.1112 1643.1112
1651.2467 0.000606 1641.8319 1641.8319
1667.9677 0.000600 1640.5526 1640.5526
1658.4998 0.000603 1639.2733 1639.2733
1642.5661 0.000609 1637.9940 1637.9940
1622.0850 0.000616 1636.7146 1636.7146
1627.2845 0.000615 1635.4353 1635.4353
1605.7668 0.000623 1634.1560 1634.1560
1620.5882 0.000617 1632.8767 1632.8767
1656.6075 0.000604 1631.5973 1631.5973
1651.4403 0.000606 1630.3180 1630.3180
1631.0994 0.000613 1629.0387 1629.0387
1611.0402 0.000621 1627.7594 1627.7594
1617.7999 0.000618 1626.4800 1626.4800
1633.5347 0.000612 1625.2007 1625.2007
1669.0000 0.000599 1623.9214 1623.9214
1660.1587 0.000602 1622.6421 1622.6421
1620.8524 0.000617 1621.3628 1621.3628
1597.5798 0.000626 1620.0834 1620.0834
1652.9883 0.000605 1618.8041 1618.8041
1640.8032 0.000609 1617.5248 1617.5248
1601.1587 0.000625 1616.2455 1616.2455
1657.5808 0.000603 1614.9661 1614.9661
1638.1616 0.000610 1613.6868 1613.6868
1606.5434 0.000622 1612.4075 1612.4075
1619.6761 0.000617 1611.1282 1611.1282
1604.8408 0.000623 1609.8488 1609.8488
1604.1309 0.000623 1608.5695 1608.5695
1624.1334 0.000616 1607.2902 1607.2902
1615.6793 0.000619 1606.0109 1606.0109
1617.5550 0.000618 1604.7315 1604.7315
1595.1488 0.000627 1603.4522 1603.4522
1525.4045 0.000656 1602.1729 1602.1729
1502.9397 0.000665 1600.8936 1600.8936
1554.5707 0.000643 1599.6143 1599.6143
1584.0990 0.000631 1598.3349 1598.3349
1548.0660 0.000646 1597.0556 1597.0556
1586.1434 0.000630 1595.7763 1595.7763
1574.2513 0.000635 1594.4970 1594.4970
1562.1627 0.000640 1593.2176 1593.2176
1612.5860 0.000620 1591.9383 1591.9383
1624.3358 0.000616 1590.6590 1590.6590
1598.1528 0.000626 1589.3797 1589.3797
1530.5509 0.000653 1588.1003 1588.1003
1552.6094 0.000644 1586.8210 1586.8210
1591.9566 0.000628 1585.5417 1585.5417
1624.5645 0.000616 1584.2624 1584.2624
1584.0344 0.000631 1582.9831 1582.9831
1579.5236 0.000633 1581.7037 1581.7037
1563.4493 0.000640 1580.4244 1580.4244
1562.2742 0.000640 1579.1451 1579.1451
1551.2902 0.000645 1577.8658 1577.8658
1553.0138 0.000644 1576.5864 1576.5864
1539.4528 0.000650 1575.3071 1575.3071
1621.7159 0.000617 1574.0278 1574.0278
1595.7225 0.000627 1572.7485 1572.7653
1595.9243 0.000627 1571.4691 1571.4863
1590.4410 0.000629 1570.1898 1570.2072
1572.3434 0.000636 1568.9105 1568.9367
1563.6202 0.000640 1567.6312 1567.6578
1598.8284 0.000625 1566.3519 1566.3790
1597.5247 0.000626 1565.0725 1565.1001
1546.4914 0.000647 1563.7932 1563.8213
1550.6544 0.000645 1562.5139 1562.5424
1578.2790 0.000634 1561.2346 1561.2636
1547.9235 0.000646 1559.9552 1559.9848
1530.2272 0.000653 1558.6759 1558.7060
1588.2179 0.000630 1557.3966 1557.4272
1588.0606 0.000630 1556.1173 1556.1485
1562.9265 0.000640 1554.8379 1554.8697
1578.8307 0.000633 1553.5586 1553.5910
1535.3918 0.000651 1552.2793 1552.3123
1528.2168 0.000654 1551.2652 1551.2988
1578.7361 0.000633 1550.2512 1550.2854
1569.9684 0.000637 1549.2371 1549.2720
1576.6900 0.000634 1548.2231 1548.2587
1568.5259 0.000638 1547.2090 1547.2453
1563.2269 0.000640 1546.1949 1546.2320
1548.3973 0.000646 1545.1809 1545.2186
1541.0888 0.000649 1544.1668 1544.2054
1491.9384 0.000670 1543.1528 1543.1921
1515.8926 0.000660 1542.1387 1542.1788
1573.8546 0.000635 1541.1246 1541.1656
1539.9889 0.000649 1540.1106 1540.1524
1521.7687 0.000657 1539.0965 1539.1393
1513.9338 0.000661 1538.0824 1538.1261
1548.1140 0.000646 1537.0684 1537.1130
1545.2076 0.000647 1536.0543 1536.0999
1537.6485 0.000650 1535.0403 1535.0869
1559.8934 0.000641 1534.0262 1534.0739
1556.1618 0.000643 1533.0121 1533.0609
1533.0606 0.000652 1531.9981 1532.0480
1526.5505 0.000655 1530.9840 1531.0351
1517.9273 0.000659 1529.9700 1530.0223
1552.5426 0.000644 1528.9559 1529.0095
1516.4515 0.000659 1527.9418 1527.9967
1552.7699 0.000644 1526.9278 1526.9840
1586.1632 0.000630 1525.9137 1525.9713
1631.6840 0.000613 1524.8997 1524.9587
1538.5124 0.000650 1523.8856 1523.9462
1538.9291 0.000650 1522.8715 1522.9337
1532.3614 0.000653 1521.8575 1521.9212
1493.6506 0.000670 1520.8434 1520.9089
1504.3619 0.000665 1519.8293 1519.8965
1530.0660 0.000654 1518.8153 1518.8843
1577.7288 0.000634 1517.8012 1517.8722
1633.5923 0.000612 1516.7872 1516.8601
1578.2163 0.000634 1515.7731 1515.8481
1556.2417 0.000643 1514.7590 1514.8362
1533.9337 0.000652 1513.7450 1513.8244
1471.9256 0.000679 1512.7309 1512.8127
1476.9068 0.000677 1511.7169 1511.8011
1556.6459 0.000642 1510.7028 1510.7896
1562.9301 0.000640 1509.6887 1509.7782
1517.6336 0.000659 1508.6747 1508.7670
1555.5374 0.000643 1507.6606 1507.7559
1510.1984 0.000662 1506.5642 1506.6625
1510.0212 0.000662 1505.4677 1505.5693
1509.0895 0.000663 1504.3713 1504.4763
1530.9499 0.000653 1503.2749 1503.3834
1558.4858 0.000642 1502.1784 1502.2908
1522.4393 0.000657 1501.0820 1501.1983
1552.8726 0.000644 1499.9855 1500.1061
1499.7646 0.000667 1498.8891 1499.0140
1494.3851 0.000669 1497.7927 1497.9222
1537.6512 0.000650 1496.6962 1496.8307
1529.6456 0.000654 1495.5998 1495.7395
1499.1691 0.000667 1494.5033 1494.6486
1508.3201 0.000663 1493.4069 1493.5580
1545.0880 0.000647 1492.3105 1492.4678
1515.0070 0.000660 1491.2140 1491.3779
1486.6241 0.000673 1490.1176 1490.2885
1483.9665 0.000674 1489.0211 1489.1995
1523.0004 0.000657 1487.9247 1488.1111
1444.6620 0.000692 1486.8283 1487.0231
1472.6249 0.000679 1485.7318 1485.9358
1483.0153 0.000674 1484.6354 1484.8491
1494.4105 0.000669 1483.5390 1483.7632
1521.6909 0.000657 1482.4425 1482.6780
1485.9851 0.000673 1481.3461 1481.5937
1464.0438 0.000683 1480.2496 1480.5103
1443.4195 0.000693 1479.1532 1479.4280
1446.5488 0.000691 1478.0568 1478.3468
1528.6488 0.000654 1476.9603 1477.2670
1461.5260 0.000684 1475.8639 1476.1886
1447.3888 0.000691 1474.7674 1475.1118
1472.0000 0.000679 1473.6710 1474.0368
1476.9747 0.000677 1472.5746 1472.9639
1505.7322 0.000664 1471.4781 1471.8934
1442.3800 0.000693 1470.3817 1470.8254
1516.9232 0.000659 1469.2852 1469.7604
1511.1504 0.000662 1468.1888 1468.6989
1530.0170 0.000654 1467.0924 1467.6412
1461.2958 0.000684 1465.9959 1466.5882
1467.0825 0.000682 1464.8995 1465.5405
1416.7170 0.000706 1463.8030 1464.4992
1467.5002 0.000681 1462.7066 1463.4657
1519.4190 0.000658 1461.6102 1462.4420
1489.3741 0.000671 1460.5137 1461.4307
1449.9960 0.000690 1459.4173 1460.4362
1445.9655 0.000692 1458.3208 1459.4644
1527.7414 0.000655 1457.2244 1458.5242
1557.8816 0.000642 1456.1280 1457.6282
1529.2265 0.000654 1455.0315 1456.7937
1491.2576 0.000671 1453.9351 1456.0433
1452.9029 0.000688 1452.8386 1455.4053
1429.7182 0.000699 1451.7422 1454.9122
1515.7387 0.000660 1450.6458 1454.5993
1567.4672 0.000638 1449.5493 1454.5000
1495.6012 0.000669 1448.4529 1454.6409
1485.3073 0.000673 1447.3565 1455.0348
1424.7694 0.000702 1446.2600 1455.6729
1489.4951 0.000671 1445.1636 1456.5149
1406.1667 0.000711 1444.0671 1457.4781
1489.7750 0.000671 1442.9707 1458.4253
1444.6044 0.000692 1441.8743 1459.1608
1524.4818 0.000656 1440.7778 1459.4518
1415.6664 0.000706 1439.6814 1459.0881
1540.1876 0.000649 1438.5849 1457.9558
1487.2725 0.000672 1437.4885 1456.0739
1497.3255 0.000668 1436.3921 1453.5760
1542.6031 0.000648 1435.2956 1450.6622
1486.3070 0.000673 1434.1992 1447.5463
1413.2745 0.000708 1433.1027 1444.4126
1477.1863 0.000677 1432.0063 1441.3955
1487.2295 0.000672 1430.9099 1438.5782
1434.7540 0.000697 1429.8134 1436.0013
1499.4644 0.000667 1428.7170 1433.6743
1550.1421 0.000645 1427.6205 1431.5847
1414.1330 0.000707 1426.5241 1429.7063
1450.9667 0.000689 1425.4277 1428.0062
1415.0628 0.000707 1424.3312 1426.4499
1464.7793 0.000683 1423.2348 1425.0055
1428.2621 0.000700 1422.1383 1423.6451
1540.8883 0.000649 1421.0419 1422.3464
1481.7577 0.000675 1419.9455 1421.0923
1525.3210 0.000656 1418.8490 1419.8701
1435.6338 0.000697 1417.7526 1418.6711
1407.5515 0.000710 1416.6562 1417.4889
1469.5218 0.000680 1415.5597 1416.3195
1411.5717 0.000708 1414.4633 1415.1599
1538.2466 0.000650 1413.3668 1414.0081
1331.7495 0.000751 1412.2704 1412.8629
1402.2982 0.000713 1411.1740 1411.7230
1437.7610 0.000696 1410.8343 1411.3445
1436.1173 0.000696 1410.4947 1410.9700
1436.0000 0.000696 1410.1551 1412.4045
1462.7554 0.000684 1409.8155 1412.0661
1467.8115 0.000681 1409.4759 1412.6224
1495.5562 0.000669 1409.1363 1413.2102
1457.2031 0.000686 1408.7967 1412.9111
1459.7244 0.000685 1408.4571 1413.0621
1491.0928 0.000671 1408.1174 1412.7770
1427.2324 0.000701 1407.7778 1412.4952
1476.4015 0.000677 1407.4382 1412.2166
1379.1065 0.000725 1407.0986 1411.9412
1424.1657 0.000702 1406.7590 1411.6690
1465.1545 0.000683 1406.4194 1411.3998
1475.4095 0.000678 1406.0798 1411.1336
1453.8354 0.000688 1405.7402 1410.8706
1428.9786 0.000700 1405.4006 1410.6106
1445.3637 0.000692 1405.0609 1410.3537
1412.2104 0.000708 1404.7213 1410.1000
1449.1653 0.000690 1404.3817 1409.8495
1463.0120 0.000684 1404.0421 1409.6022
1465.8150 0.000682 1403.7025 1409.3582
1411.7096 0.000708 1403.3629 1409.1176
1431.2608 0.000699 1403.0233 1408.8805
1388.1254 0.000720 1402.6837 1408.6469
1380.3095 0.000724 1402.3441 1408.4170
1456.0040 0.000687 1402.0044 1408.1908
1453.4106 0.000688 1401.6648 1407.9685
1405.7810 0.000711 1401.3252 1407.7502
1397.3415 0.000716 1400.9856 1407.5360
1319.2530 0.000758 1400.6460 1407.3261
1451.6928 0.000689 1400.3064 1407.1207
1432.3614 0.000698 1399.9668 1406.9199
1435.7548 0.000696 1399.6272 1406.7238
1409.0700 0.000710 1399.2875 1406.5327
1422.4029 0.000703 1398.9479 1406.3467
1440.6145 0.000694 1398.6083 1406.1662
1441.2704 0.000694 1398.2687 1405.9912
1378.9262 0.000725 1397.9291 1405.8221
1442.9142 0.000693 1397.5895 1405.6591
1443.0048 0.000693 1397.2499 1405.5024
1392.3146 0.000718 1396.9103 1405.3524
1444.4537 0.000692 1396.5707 1405.2093
1477.9174 0.000677 1396.2310 1405.0735
1486.2306 0.000673 1395.8009 1404.8547
1443.1404 0.000693 1395.3708 1404.6440
1389.5976 0.000720 1394.9406 1404.4416
1417.8771 0.000705 1394.5105 1404.2480
1465.1014 0.000683 1394.0804 1404.0637
1363.9061 0.000733 1393.6503 1403.8890
1442.4432 0.000693 1393.2201 1403.7245
1471.2744 0.000680 1392.7900 1403.5707
1411.1422 0.000709 1392.3599 1403.4283
1443.2156 0.000693 1391.9297 1403.2977
1457.9166 0.000686 1391.4996 1403.1797
1419.7953 0.000704 1391.0695 1403.0749
1390.6476 0.000719 1390.6393 1402.9841
1477.6911 0.000677 1390.2092 1402.9082
1414.0805 0.000707 1389.7791 1402.8479
1451.2322 0.000689 1389.3489 1402.8041
1447.3248 0.000691 1388.9188 1402.7780
1411.7708 0.000708 1388.4887 1402.7705
1456.6733 0.000686 1388.0585 1402.7828
1424.6615 0.000702 1387.6284 1402.8161
1384.4613 0.000722 1387.1983 1402.8718
1412.5533 0.000708 1386.7682 1402.9513
1407.8267 0.000710 1386.3380 1403.0563
1411.8474 0.000708 1385.9079 1403.1884
1403.8331 0.000712 1385.4778 1403.3494
1435.2935 0.000697 1385.0476 1403.5414
1451.9906 0.000689 1384.6175 1403.7665
1407.5564 0.000710 1384.1874 1404.0271
1404.7995 0.000712 1383.7572 1404.3259
1398.7753 0.000715 1383.3271 1404.6657
1428.1742 0.000700 1382.8970 1405.0495
1391.4336 0.000719 1382.4668 1405.4808
1392.2143 0.000718 1382.0367 1405.9634
1458.4017 0.000686 1381.6066 1406.5013
1391.1317 0.000719 1381.1764 1407.0990
1344.1823 0.000744 1380.7463 1407.7617
1404.7535 0.000712 1380.3162 1408.4948
1445.6842 0.000692 1379.8861 1409.3045
1432.6378 0.000698 1379.4559 1410.1976
1446.0349 0.000692 1379.0258 1411.1818
1456.6968 0.000686 1378.5957 1412.2654
1421.9020 0.000703 1378.1655 1413.4580
1412.6701 0.000708 1377.7354 1414.7702
1386.2085 0.000721 1377.3053 1416.2140
1407.3335 0.000711 1376.8018 1417.7295
1429.8903 0.000699 1376.2983 1419.4054
1386.9823 0.000721 1375.7949 1421.2587
1427.3751 0.000701 1375.2914 1423.3093
1398.3032 0.000715 1374.7879 1425.5795
1382.2921 0.000723 1374.2845 1428.0950
1370.4592 0.000730 1373.7810 1430.8851
1387.0101 0.000721 1373.2776 1433.9672
1437.7328 0.000696 1372.7741 1437.4143
1440.2020 0.000694 1372.2706 1441.2469
1414.3441 0.000707 1371.7672 1445.5355
1412.2940 0.000708 1371.2637 1450.3353
1409.4267 0.000710 1370.7602 1455.7225
1487.5028 0.000672 1370.2568 1461.7901
1467.0030 0.000682 1369.7533 1468.6548
1517.0631 0.000659 1369.2498 1476.4673
1451.5325 0.000689 1368.7464 1485.4300
1410.7832 0.000709 1368.2429 1495.8240
1496.0387 0.000668 1367.7395 1508.0514
1495.6774 0.000669 1367.2360 1522.6965
1531.0246 0.000653 1366.7325 1540.6111
1565.0717 0.000639 1366.2291 1563.0229
1601.8285 0.000624 1365.7256 1591.6621
1642.6901 0.000609 1365.2221 1628.8886
1666.9634 0.000600 1364.7187 1677.7912
1719.3374 0.000582 1364.2152 1742.2159
1809.5886 0.000553 1363.7118 1826.6740
1903.0962 0.000525 1363.2083 1936.0834
2065.4450 0.000484 1362.7048 2075.3082
2216.4108 0.000451 1362.2014 2248.4885
2416.3167 0.000414 1361.6979 2458.1687
2668.9465 0.000375 1361.1944 2704.2252
2916.0303 0.000343 1360.6910 2982.5670
3120.5129 0.000320 1360.1875 3283.5845
3323.5194 0.000301 1359.6840 3590.5912
3616.9926 0.000276 1359.1806 3879.2754
3819.4428 0.000262 1358.6771 4120.0205
4033.1924 0.000248 1358.1737 4284.0436
4072.4098 0.000246 1357.6702 4350.8901
4026.3819 0.000248 1357.1667 4313.1864
3853.9454 0.000259 1356.6633 4177.5083
3691.0742 0.000271 1356.1598 3962.2361
3358.8869 0.000298 1355.6563 3692.8239
2975.2481 0.000336 1355.1529 3396.1415
2741.4198 0.000365 1354.6494 3096.0887
2486.7738 0.000402 1354.1459 2811.1250
2210.0685 0.000452 1353.6425 2553.4759
2027.7685 0.000493 1353.1390 2329.6230
1862.0918 0.000537 1352.6356 2141.8034
1757.1047 0.000569 1352.1321 1988.0627
1685.8096 0.000593 1351.6286 1865.3481
1627.2973 0.000615 1351.1252 1769.2230
1619.2586 0.000618 1350.6217 1695.0923
1571.5620 0.000636 1350.1182 1638.0859
1506.5256 0.000664 1349.6148 1594.3467
1541.1160 0.000649 1349.1113 1560.5422
1548.1427 0.000646 1348.6079 1534.0463
1495.5957 0.000669 1348.1044 1512.8760
1479.7389 0.000676 1347.6009 1495.5857
1436.0178 0.000696 1347.0975 1481.1498
1389.1976 0.000720 1346.5940 1468.8529
1422.3091 0.000703 1346.0905 1458.1991
1415.7018 0.000706 1345.5871 1448.8430
1384.8789 0.000722 1345.0836 1440.5390
1419.7038 0.000704 1344.5801 1433.1081
1429.1231 0.000700 1344.0767 1426.4148
1414.5525 0.000707 1343.5732 1420.3535
1384.7575 0.000722 1343.0698 1414.8393
1374.2271 0.000728 1342.5663 1409.8023
1368.5752 0.000731 1342.0628 1405.1841
1373.5069 0.000728 1341.5594 1400.9350
1402.4013 0.000713 1341.0559 1397.0128
1386.1740 0.000721 1340.5524 1393.3810
1387.0233 0.000721 1340.0490 1390.0081
1370.2861 0.000730 1339.5455 1386.8668
1331.1864 0.000751 1339.0420 1383.9332
1345.9821 0.000743 1338.5386 1381.1864
1368.7086 0.000731 1338.0351 1378.6080
1385.4921 0.000722 1337.5317 1376.1821
1395.4465 0.000717 1337.0282 1373.8943
1371.3326 0.000729 1336.5247 1371.7320
1373.5749 0.000728 1336.0213 1369.6840
1356.7431 0.000737 1335.5178 1367.7404
1329.1432 0.000752 1335.0143 1365.8921
1328.9102 0.000752 1334.5109 1364.1313
1320.5055 0.000757 1334.0074 1362.4507
1366.9238 0.000732 1333.5039 1360.8441
1400.5809 0.000714 1333.0005 1359.3055
1342.5813 0.000745 1332.4237 1357.7565
1334.7829 0.000749 1331.8469 1356.2656
1366.7189 0.000732 1331.2701 1354.8287
1353.1135 0.000739 1330.6933 1353.4417
1358.1797 0.000736 1330.1165 1352.1013
1367.0391 0.000732 1329.5397 1350.8042
1370.3002 0.000730 1328.9629 1349.5475
1362.1714 0.000734 1328.3861 1348.3286
1314.4551 0.000761 1327.8093 1347.1450
1310.3554 0.000763 1327.2325 1345.9945
1331.1835 0.000751 1326.6557 1344.8751
1330.5783 0.000752 1326.0789 1343.7849
1323.8310 0.000755 1325.5021 1342.7223
1312.1195 0.000762 1324.9254 1341.6856
1299.1147 0.000770 1324.3486 1340.6735
1284.8571 0.000778 1323.7718 1339.6847
1315.2333 0.000760 1323.1950 1338.7180
1307.0000 0.000765 1322.6182 1337.7722
1308.7831 0.000764 1322.0414 1336.8464
1307.8983 0.000765 1321.4646 1335.9396
1316.3322 0.000760 1320.8878 1335.0511
1317.5537 0.000759 1320.3110 1334.1801
1307.7020 0.000765 1319.7342 1333.3259
1324.6216 0.000755 1319.1574 1332.4878
1340.1654 0.000746 1318.5806 1331.6654
1334.7706 0.000749 1318.0038 1330.8581
1341.4363 0.000745 1317.4270 1330.0655
1376.2042 0.000727 1316.8502 1329.2872
1367.6473 0.000731 1316.2734 1328.5230
1359.6687 0.000735 1315.6966 1327.7725
1390.5821 0.000719 1315.1198 1327.0355
1400.3034 0.000714 1314.5430 1326.3120
1330.5646 0.000752 1313.9662 1325.6017
1303.8565 0.000767 1313.3894 1324.9047
1280.5355 0.000781 1312.8126 1324.2209
1278.0100 0.000782 1312.2359 1323.5505
1298.1705 0.000770 1311.6591 1322.8936
1347.8767 0.000742 1311.0823 1322.2504
1382.9629 0.000723 1310.5055 1321.6211
1332.5439 0.000750 1309.9287 1321.0062
1324.7741 0.000755 1309.3519 1320.4061
1315.2372 0.000760 1308.7751 1319.8212
1294.9463 0.000772 1308.1983 1319.2524
1311.6058 0.000762 1307.6215 1318.7002
1326.6755 0.000754 1307.3444 1318.4653
1292.2526 0.000774 1307.0673 1318.2490
1304.3575 0.000767 1306.7903 1318.0525
1328.1051 0.000753 1306.5132 1317.8771
1295.6238 0.000772 1306.2361 1317.7244
1265.7689 0.000790 1305.9590 1317.5962
1310.7927 0.000763 1305.6819 1317.4946
1301.2193 0.000769 1305.4049 1317.4219
1329.7218 0.000752 1305.1278 1317.3810
1339.6401 0.000746 1304.8507 1317.3750
1275.3559 0.000784 1304.5736 1317.4077
1279.6570 0.000781 1304.2965 1317.4833
1311.0000 0.000763 1304.0195 1317.6068
1311.6834 0.000762 1303.7424 1317.7842
1320.1193 0.000758 1303.4653 1318.0223
1362.2530 0.000734 1303.1882 1318.3296
1367.9486 0.000731 1302.9112 1318.7159
1279.9163 0.000781 1302.6341 1319.1938
1306.9550 0.000765 1302.3570 1319.7791
1288.5748 0.000776 1302.0799 1320.4927
1256.4110 0.000796 1301.8028 1321.3632
1319.0248 0.000758 1301.5258 1322.4310
1356.3405 0.000737 1301.2487 1323.7544
1348.4195 0.000742 1300.9716 1325.4187
1392.5014 0.000718 1300.6945 1327.5475
1376.4717 0.000726 1300.4174 1330.3172
1360.9816 0.000735 1300.1404 1333.9727
1382.6518 0.000723 1299.8633 1338.8412
1401.5577 0.000713 1299.5862 1343.5638
1414.3398 0.000707 1299.3091 1352.2281
1392.3336 0.000718 1299.0320 1363.5997
1396.1908 0.000716 1298.7550 1376.5157
1396.5319 0.000716 1298.4779 1395.0704
1459.9555 0.000685 1298.2008 1417.4498
1494.4265 0.000669 1297.9237 1444.7107
1520.6401 0.000658 1297.6467 1476.1891
1548.4089 0.000646 1297.3696 1511.1280
1564.1698 0.000639 1297.0925 1548.0351
1551.7496 0.000644 1296.8154 1584.4953
1580.2386 0.000633 1296.5383 1617.1483
1639.1570 0.000610 1296.2613 1642.1237
1658.8815 0.000603 1295.9842 1656.0601
1693.8286 0.000590 1295.7071 1657.2102
1682.9071 0.000594 1295.4300 1645.8100
1660.6865 0.000602 1295.0840 1623.5682
1599.1360 0.000625 1294.7380 1593.2794
1555.4928 0.000643 1294.3919 1558.1454
1537.1872 0.000651 1294.0459 1521.3276
1494.6963 0.000669 1293.6998 1485.4488
1510.3864 0.000662 1293.3538 1452.3430
1474.1247 0.000678 1293.0078 1423.0722
1427.5129 0.000701 1292.6617 1398.0760
1414.1278 0.000707 1292.3157 1377.3429
1432.0666 0.000698 1291.9697 1360.5613
1389.7553 0.000720 1291.6236 1347.2443
1320.2189 0.000757 1291.2776 1336.8287
1370.9656 0.000729 1290.9316 1328.7491
1349.4667 0.000741 1290.5855 1322.4881
1354.4547 0.000738 1290.2395 1317.6036
1342.2189 0.000745 1289.8934 1313.7390
1324.1871 0.000755 1289.5474 1310.6197
1257.0679 0.000796 1289.2014 1308.0423
1284.4102 0.000779 1288.8553 1305.8611
1350.5520 0.000740 1288.5093 1303.9739
1283.5951 0.000779 1288.1633 1302.3097
1336.3479 0.000748 1287.8172 1300.8194
1317.7952 0.000759 1287.4712 1299.4686
1301.5927 0.000768 1287.1252 1298.2325
1308.8722 0.000764 1286.7791 1297.0926
1321.3112 0.000757 1286.4331 1296.0347
1271.5614 0.000786 1286.0870 1295.0475
1229.8911 0.000813 1285.7410 1294.1219
1347.7629 0.000742 1285.3950 1293.2502
1240.1755 0.000806 1285.0489 1292.4260
1261.3254 0.000793 1284.7029 1291.6437
1282.7485 0.000780 1284.3569 1290.8986
1338.9002 0.000747 1284.0108 1290.1867
1357.9440 0.000736 1283.6648 1289.5044
1316.0184 0.000760 1283.3188 1288.8486
1323.5171 0.000756 1282.9727 1288.2166
1302.8570 0.000768 1282.6267 1287.6061
1268.8494 0.000788 1282.2806 1287.0149
1298.0283 0.000770 1281.9346 1286.4414
1243.2912 0.000804 1281.5886 1285.8837
1283.3471 0.000779 1281.2425 1285.3405
1230.5787 0.000813 1280.8965 1284.8105
1274.0207 0.000785 1280.5505 1284.2925
1303.3771 0.000767 1280.2044 1283.7856
1277.9245 0.000783 1279.8584 1283.2888
1314.3375 0.000761 1279.5124 1282.8012
1241.5915 0.000805 1279.1663 1282.3222
1247.1436 0.000802 1278.8203 1281.8511
1300.3925 0.000769 1278.4742 1281.3872
1302.3592 0.000768 1278.1282 1280.9301
1295.9921 0.000772 1277.7822 1280.4792
1287.0358 0.000777 1277.4361 1280.0340
1311.8254 0.000762 1277.0901 1279.5941
1233.4071 0.000811 1276.7441 1279.1593
1259.0000 0.000794 1276.3980 1278.7291
1266.0654 0.000790 1276.0520 1278.3031
1323.2043 0.000756 1275.7060 1277.8812
1327.3390 0.000753 1275.3599 1277.4631
1282.8119 0.000780 1275.0139 1277.0485
1305.9853 0.000766 1274.6678 1276.6372
1302.9283 0.000768 1274.3218 1276.2289
1347.6748 0.000742 1273.9758 1275.8236
1264.0191 0.000791 1273.6297 1275.4209
1298.5509 0.000770 1273.2837 1275.0209
1260.5215 0.000793 1272.9377 1274.6232
1327.8291 0.000753 1272.5916 1274.2278
1318.4660 0.000758 1272.2456 1273.8345
1239.3266 0.000807 1271.8996 1273.4432
1292.5628 0.000774 1271.5535 1273.0539
1328.4938 0.000753 1271.2075 1272.6663
1246.1971 0.000802 1270.8614 1272.2804
1226.6112 0.000815 1270.5154 1271.8962
1270.2589 0.000787 1270.1694 1271.5134
1210.0902 0.000826 1269.8233 1271.1321
1299.3072 0.000770 1269.4773 1270.7522
1301.8255 0.000768 1269.1313 1270.3736
1269.4123 0.000788 1268.7852 1269.9962
1310.4809 0.000763 1268.4392 1269.6199
1316.2588 0.000760 1268.0932 1269.2448
1265.1924 0.000790 1267.7471 1268.8707
1270.9533 0.000787 1267.4011 1268.4977
1310.2470 0.000763 1267.0550 1268.1256
1271.9621 0.000786 1266.7090 1267.7544
1295.1871 0.000772 1266.3630 1267.3841
1297.6718 0.000771 1266.0169 1267.0147
1233.4812 0.000811 1265.6709 1266.6460
1250.2940 0.000800 1265.3249 1266.2781
1324.8501 0.000755 1264.9788 1265.9109
1283.3852 0.000779 1264.5638 1265.4755
1296.4529 0.000771 1264.1488 1265.0407
1180.8243 0.000847 1263.7338 1264.6065
1224.0161 0.000817 1263.3189 1264.1730
1225.3617 0.000816 1262.9039 1263.7401
1252.1180 0.000799 1262.4889 1263.3077
1263.1451 0.000792 1262.0739 1262.8758
1281.1186 0.000781 1261.6589 1262.4445
1302.8857 0.000768 1261.2439 1262.0136
1261.0015 0.000793 1260.8289 1261.5833
1289.9241 0.000775 1260.4139 1261.1533
1243.2484 0.000804 1259.9989 1260.7239
1232.0875 0.000812 1259.5839 1260.2948
1290.3732 0.000775 1259.1689 1259.8662
1246.5982 0.000802 1258.7539 1259.4379
1261.7446 0.000793 1258.3389 1259.0100
1214.8943 0.000823 1257.9239 1258.5825
1252.1693 0.000799 1257.5089 1258.1553
1240.3116 0.000806 1257.0939 1257.7285
1251.6803 0.000799 1256.6790 1257.3019
1180.1687 0.000847 1256.2640 1256.8757
1178.9680 0.000848 1255.8490 1256.4498
1285.1890 0.000778 1255.4340 1256.0242
1291.8881 0.000774 1255.0190 1255.5989
1271.8396 0.000786 1254.6040 1255.1738
1215.4738 0.000823 1254.1890 1254.7490
1297.0118 0.000771 1253.7740 1254.3244
1230.5513 0.000813 1253.3590 1253.9001
1189.9757 0.000840 1252.9440 1253.4760
1206.9334 0.000829 1252.5290 1253.0522
1213.6640 0.000824 1252.1140 1252.6285
1231.8853 0.000812 1251.6990 1252.2051
1296.8292 0.000771 1251.2840 1251.7819
1258.8802 0.000794 1250.8690 1251.3589
1225.2002 0.000816 1250.4540 1250.6203
1286.2847 0.000777 1250.0391 1250.2026
1248.3125 0.000801 1249.6241 1249.7850
1236.6721 0.000809 1249.2091 1249.2091
1269.2154 0.000788 1248.7941 1248.7941
1319.8391 0.000758 1248.3791 1248.3791
1302.9018 0.000768 1247.9641 1247.9641
1271.7314 0.000786 1247.5491 1247.5491
1276.2958 0.000784 1247.1341 1247.1341
1185.1601 0.000844 1246.7191 1246.7191
1266.6637 0.000789 1246.9810 1246.9810
1290.4635 0.000775 1247.2429 1247.2429
1209.9818 0.000826 1247.5049 1247.5049
1246.8301 0.000802 1247.7668 1247.7668
1295.0061 0.000772 1248.0287 1248.0287
1237.4695 0.000808 1248.2906 1248.2906
1215.7500 0.000823 1248.5525 1248.5525
1230.8711 0.000812 1248.8145 1248.8145
1299.3964 0.000770 1249.0764 1249.0764
1255.9256 0.000796 1249.3383 1249.3383
1281.5580 0.000780 1249.6002 1249.6002
1194.7631 0.000837 1249.8622 1249.8622
1272.0848 0.000786 1250.1241 1250.1241
1223.0922 0.000818 1250.3860 1250.3860
1280.0646 0.000781 1250.6479 1250.6479
1246.6699 0.000802 1250.9098 1250.9098
1203.7148 0.000831 1251.1718 1251.1718
1244.5083 0.000804 1251.4337 1251.4337
1252.0000 0.000799 1251.6956 1251.6956
1285.3811 0.000778 1251.9575 1251.9575
1307.2119 0.000765 1252.2194 1252.2194
1284.4824 0.000779 1252.4814 1252.4814
1234.2124 0.000810 1252.7433 1252.7433
1236.9883 0.000808 1253.0052 1253.0052
1220.4632 0.000819 1253.2671 1253.2671
1285.0329 0.000778 1253.5290 1253.5290
1226.8343 0.000815 1253.7910 1253.7910
1261.4053 0.000793 1254.0529 1254.0529
1250.2024 0.000800 1254.3148 1254.3148
1223.6106 0.000817 1254.5767 1254.5767
1280.1660 0.000781 1254.8387 1254.8387
1288.8805 0.000776 1255.1006 1255.1006
1191.0949 0.000840 1255.3625 1255.3625
1213.3837 0.000824 1255.6244 1255.6244
1256.4515 0.000796 1255.8863 1255.8863
1213.5802 0.000824 1256.1483 1256.1483
1216.5900 0.000822 1256.4102 1256.4102
1266.0494 0.000790 1256.6721 1256.6721
1312.4295 0.000762 1256.9340 1256.9340
1290.5032 0.000775 1257.1959 1257.1959
1252.6047 0.000798 1257.4579 1257.4579
1274.4967 0.000785 1257.7198 1257.7198
1336.8232 0.000748 1257.9817 1257.9817
1324.0764 0.000755 1258.2436 1258.2436
1266.4911 0.000790 1258.5055 1258.5055
1255.3596 0.000797 1258.7675 1258.7675
1271.6773 0.000786 1259.0294 1259.0294
1293.1863 0.000773 1259.2913 1259.2913
1282.4295 0.000780 1259.5532 1259.5532
1191.1041 0.000840 1259.8151 1259.8151
1234.8137 0.000810 1260.0771 1260.0771
1261.9347 0.000792 1260.3390 1260.3390
1308.5353 0.000764 1260.6009 1260.6009
1282.9758 0.000779 1260.8628 1260.8628
1259.5623 0.000794 1261.1248 1261.1248
1230.1654 0.000813 1261.3867 1261.3867
1234.1148 0.000810 1261.6486 1261.6486
1322.5045 0.000756 1261.9105 1261.9105
1307.8972 0.000765 1262.1724 1262.1724
1280.5150 0.000781 1262.4344 1262.4344
1237.1821 0.000808 1262.6963 1262.6963
1283.5063 0.000779 1262.9582 1262.9582
1324.7525 0.000755 1263.2201 1263.2201
1306.1528 0.000766 1263.4820 1263.4820
1254.3223 0.000797 1263.7440 1263.7440
1307.9163 0.000765 1264.0059 1264.0059
1327.1561 0.000753 1264.2678 1264.2678
1357.0238 0.000737 1264.5297 1264.5297
1279.0819 0.000782 1264.7916 1264.7916
1240.6651 0.000806 1265.0536 1265.0536
1264.9131 0.000791 1265.3155 1265.3155
1228.3860 0.000814 1265.5774 1265.5774
1286.4483 0.000777 1265.8393 1265.8393
1237.9901 0.000808 1266.1013 1266.1013
1236.4927 0.000809 1266.3632 1266.3632
1227.8061 0.000814 1266.6251 1266.6251
1288.6756 0.000776 1266.8870 1266.8870
1257.7033 0.000795 1267.1489 1270.8351
1287.8765 0.000776 1267.4109 1271.1547
1277.2107 0.000783 1267.6728 1271.4756
1291.8041 0.000774 1267.9347 1286.3294
1329.8562 0.000752 1268.1966 1292.3192
1278.4120 0.000782 1268.4585 1292.9616
1254.1107 0.000797 1268.7205 1293.6131
1223.9252 0.000817 1268.9824 1294.2740
1247.0673 0.000802 1269.2443 1304.1068
1294.7926 0.000772 1269.5062 1304.9312
1249.6497 0.000800 1269.7681 1305.7692
1274.7413 0.000784 1269.9317 1306.5231
1293.6399 0.000773 1270.0953 1307.2916
1258.0115 0.000795 1270.2589 1308.0752
1265.8953 0.000790 1270.4225 1308.8745
1292.5440 0.000774 1270.5861 1309.6899
1280.9058 0.000781 1270.7497 1310.5220
1263.1310 0.000792 1270.9133 1311.3713
1287.7356 0.000777 1271.0769 1312.2386
1269.8289 0.000788 1271.2405 1313.1244
1257.8297 0.000795 1271.4041 1314.0293
1258.4197 0.000795 1271.5677 1314.9541
1172.2023 0.000853 1271.7313 1315.8994
1195.3712 0.000837 1271.8949 1316.8660
1238.8224 0.000807 1272.0585 1317.8547
1249.2472 0.000800 1272.2221 1318.8663
1261.5808 0.000793 1272.3857 1319.9017
1255.9350 0.000796 1272.5493 1320.9617
1247.4944 0.000802 1272.7129 1322.0473
1243.5051 0.000804 1272.8765 1323.1595
1261.8738 0.000792 1273.0401 1324.2993
1249.8829 0.000800 1273.2037 1325.4678
1323.0475 0.000756 1273.3673 1326.6661
1286.0428 0.000778 1273.5309 1327.8953
1256.0774 0.000796 1273.6945 1329.1569
1248.4762 0.000801 1273.8581 1330.4520
1279.7982 0.000781 1274.0217 1331.7820
1303.7715 0.000767 1274.1853 1333.1485
1247.4255 0.000802 1274.3489 1334.5529
1260.1657 0.000794 1274.5125 1335.9968
1277.7352 0.000783 1274.6761 1337.4820
1263.2664 0.000792 1274.8397 1339.0102
1282.3830 0.000780 1275.0033 1340.5833
1279.8229 0.000781 1275.1669 1342.2033
1297.9355 0.000770 1275.3305 1343.8723
1285.7198 0.000778 1275.4941 1345.5926
1263.8918 0.000791 1275.6577 1347.3664
1263.6973 0.000791 1275.8213 1349.1963
1290.0776 0.000775 1275.9849 1351.0848
1301.3042 0.000768 1276.1485 1353.0349
1272.4283 0.000786 1276.3121 1355.0493
1272.9502 0.000786 1276.4757 1357.1313
1287.1247 0.000777 1276.6393 1359.2842
1312.6254 0.000762 1276.8029 1361.5115
1337.5700 0.000748 1276.9665 1363.8170
1287.1213 0.000777 1277.0311 1366.1057
1273.8930 0.000785 1277.0958 1368.4807
1305.0389 0.000766 1277.1604 1370.9467
1305.0831 0.000766 1277.2251 1373.5085
1326.5517 0.000754 1277.2897 1376.1711
1393.9837 0.000717 1277.3543 1378.9402
1365.7105 0.000732 1277.4190 1381.8216
1350.3161 0.000741 1277.4836 1384.8215
1357.6862 0.000737 1277.5482 1387.9468
1365.4095 0.000732 1277.6129 1391.2045
1342.2360 0.000745 1277.6775 1394.6026
1283.9756 0.000779 1277.7422 1398.1493
1301.1597 0.000769 1277.8068 1401.8536
1293.2631 0.000773 1277.8714 1405.7251
1311.0777 0.000763 1277.9361 1409.7741
1369.3717 0.000730 1278.0007 1414.0119
1361.5350 0.000734 1278.0654 1418.4505
1329.7850 0.000752 1278.1300 1423.1030
1339.7704 0.000746 1278.1946 1427.9836
1334.3082 0.000749 1278.2593 1433.1076
1296.9791 0.000771 1278.3239 1438.4915
1332.3402 0.000751 1278.3886 1444.1536
1391.8859 0.000718 1278.4532 1450.1134
1372.9587 0.000728 1278.5178 1456.3923
1346.3736 0.000743 1278.5825 1463.0139
1353.9752 0.000739 1278.6471 1470.0035
1415.1321 0.000707 1278.7118 1477.3892
1463.5674 0.000683 1278.7764 1485.2018
1423.0201 0.000703 1278.8410 1493.4747
1404.1539 0.000712 1278.9057 1502.2453
1413.4228 0.000708 1278.9703 1511.5542
1381.5170 0.000724 1279.0350 1521.4467
1395.1125 0.000717 1279.0996 1531.9726
1443.6749 0.000693 1279.1642 1543.1874
1420.9468 0.000704 1279.2289 1555.1525
1426.3584 0.000701 1279.2935 1567.9363
1484.7432 0.000674 1279.3581 1581.6154
1521.5331 0.000657 1279.4228 1596.2753
1511.3767 0.000662 1279.4874 1612.0117
1497.9952 0.000668 1279.5521 1628.9326
1504.9028 0.000664 1279.6167 1647.1594
1524.7755 0.000656 1279.6813 1666.8295
1548.9762 0.000646 1279.7460 1688.0988
1563.2196 0.000640 1279.8106 1711.1445
1588.2429 0.000630 1279.7762 1736.0698
1646.9208 0.000607 1279.7418 1763.3937
1619.5800 0.000617 1279.7074 1793.0093
1632.5999 0.000613 1279.6730 1825.4104
1741.5395 0.000574 1279.6386 1860.9563
1771.9860 0.000564 1279.6043 1900.1627
1744.6166 0.000573 1279.5699 1943.3467
1819.6745 0.000550 1279.5355 1991.2088
1905.9428 0.000525 1279.5011 2044.5026
1955.4662 0.000511 1279.4667 2104.1871
1966.7123 0.000508 1279.4323 2171.5200
2086.4248 0.000479 1279.3979 2248.1998
2199.7942 0.000455 1279.3635 2336.5776
2310.3406 0.000433 1279.3291 2439.9588
2460.5321 0.000406 1279.2947 2563.0167
2622.8002 0.000381 1279.2603 2712.3254
2801.8589 0.000357 1279.2259 2897.0000
2981.0450 0.000335 1279.1915 3129.3946
3228.7108 0.000310 1279.1571 3425.7595
3564.8188 0.000281 1279.1227 3806.7022
4060.3921 0.000246 1279.0883 4297.2454
4757.0195 0.000210 1279.0539 4926.2405
5531.8208 0.000181 1279.0195 5724.9005
6414.0711 0.000156 1278.9851 6724.2555
7400.3396 0.000135 1278.9508 7951.4038
8742.3377 0.000114 1278.9164 9424.4937
10384.0509 0.000096 1278.8820 11146.4493
12186.2827 0.000082 1278.8476 13097.6656
14317.0226 0.000070 1278.8132 15228.5543
16493.1315 0.000061 1278.7788 17453.9242
18572.2345 0.000054 1278.7444 19651.5757
20705.9772 0.000048 1278.7100 21666.1801
22461.8384 0.000045 1278.6756 23320.2680
23488.2652 0.000043 1278.6412 24440.3163
23913.0390 0.000042 1278.6068 24901.9280
23705.4864 0.000042 1278.5724 24670.3979
22921.7392 0.000044 1278.5380 23800.5133
21355.5118 0.000047 1278.5036 22399.5301
19467.7869 0.000051 1278.4692 20595.0667
17203.8574 0.000058 1278.4348 18526.8007
14976.0531 0.000067 1278.4004 16341.8941
12814.2693 0.000078 1278.3660 14178.1832
10851.6233 0.000092 1278.3316 12144.6173
9186.6825 0.000109 1278.2972 10312.3127
7806.4861 0.000128 1278.2629 8717.0897
6778.1575 0.000148 1278.2285 7367.3864
5747.3259 0.000174 1278.1941 6252.7089
5032.1457 0.000199 1278.1597 5350.7721
4482.3254 0.000223 1278.1253 4633.0837
4054.6776 0.000247 1278.0909 4069.1430
3627.1115 0.000276 1278.0565 3629.4321
3296.6153 0.000303 1278.0221 3287.3446
3010.4874 0.000332 1277.9877 3020.2079
2897.2752 0.000345 1277.9533 2809.5894
2698.4357 0.000371 1277.9189 2641.0945
2472.6109 0.000404 1277.8845 2503.8601
2424.6756 0.000412 1277.8501 2389.9146
2247.8553 0.000445 1277.8157 2293.5281
2126.4849 0.000470 1277.7813 2210.6329
2087.2794 0.000479 1277.7469 2138.3477
2055.6197 0.000486 1277.7125 2074.6146
1933.1762 0.000517 1277.6781 2017.9360
1843.5853 0.000542 1277.6437 1967.1929
1852.6502 0.000540 1277.6094 1921.5228
1794.1463 0.000557 1277.5750 1880.2413
1757.7174 0.000569 1277.5406 1842.7906
1680.1407 0.000595 1277.5062 1808.7068
1651.1944 0.000606 1277.4718 1777.5979
1712.2043 0.000584 1277.4374 1749.1290
1639.5273 0.000610 1277.4030 1723.0119
1638.4978 0.000610 1277.3686 1698.9965
1609.0417 0.000621 1277.3342 1676.8654
1582.8058 0.000632 1277.2998 1656.4283
1532.7065 0.000652 1277.2654 1637.5182
1522.8149 0.000657 1277.2310 1619.9883
1544.0578 0.000648 1277.1966 1603.7089
1500.7656 0.000666 1277.1622 1588.5652
1475.8005 0.000678 1277.1278 1574.4551
1512.9416 0.000661 1277.0934 1561.2880
1500.5749 0.000666 1277.0590 1548.9828
1483.1169 0.000674 1277.0246 1537.4673
1472.8748 0.000679 1276.9902 1526.6764
1429.7591 0.000699 1276.9559 1516.5518
1441.7240 0.000694 1276.9215 1507.0412
1413.3778 0.000708 1276.8871 1498.0971
1462.6584 0.000684 1276.8527 1489.6770
1424.5619 0.000702 1276.8183 1481.7421
1436.2686 0.000696 1276.7839 1474.2574
1402.6867 0.000713 1276.6504 1467.0922
1358.3987 0.000736 1276.5170 1460.3166
1380.2586 0.000725 1276.3836 1453.9046
1442.6283 0.000693 1276.2502 1447.8321
1357.0433 0.000737 1276.1167 1442.0777
1356.7736 0.000737 1275.9833 1436.6215
1369.0938 0.000730 1275.8499 1431.4458
1345.9498 0.000743 1275.7164 1426.5665
1313.9412 0.000761 1275.5830 1421.9047
1301.3241 0.000768 1275.4496 1417.5194
1337.4280 0.000748 1275.3162 1413.3185
1293.5325 0.000773 1275.1827 1409.3470
1337.8802 0.000747 1275.0493 1405.5636
1329.0831 0.000752 1274.9159 1401.9759
1408.4781 0.000710 1274.7824 1398.5969
1286.6134 0.000777 1274.6490 1395.3805
1326.6373 0.000754 1274.5156 1392.3419
1323.7340 0.000755 1274.3822 1389.4779
1298.0070 0.000770 1274.2487 1386.7866
1336.5528 0.000748 1274.1153 1384.2682
1304.5136 0.000767 1273.9819 1381.9254
1294.5403 0.000772 1273.8484 1379.7642
1288.1496 0.000776 1273.7150 1377.7956
1295.6558 0.000772 1273.5816 1376.0376
1270.8641 0.000787 1273.4482 1374.5185
1317.4293 0.000759 1273.3147 1373.2814
1304.3157 0.000767 1273.1813 1372.3893
1323.9206 0.000755 1273.0479 1371.9318
1313.6914 0.000761 1272.9144 1372.0318
1337.0060 0.000748 1272.7810 1372.8508
1313.4876 0.000761 1272.6476 1374.5918
1250.1292 0.000800 1272.5141 1377.4964
1294.2972 0.000773 1272.3807 1381.8353
1343.5952 0.000744 1272.2473 1387.8894
1353.5519 0.000739 1272.1139 1395.9208
1338.1271 0.000747 1271.9804 1406.1353
1369.6693 0.000730 1271.8470 1418.6360
1353.8210 0.000739 1271.7136 1433.3682
1389.3138 0.000720 1271.5801 1450.0525
1410.7835 0.000709 1271.4467 1468.1026
1422.3821 0.000703 1271.3133 1486.5354
1465.7593 0.000682 1271.1799 1503.9228
1482.1007 0.000675 1271.0464 1518.4977
1466.7175 0.000682 1270.9130 1528.5198
1405.7369 0.000711 1270.6805 1532.7098
1462.4885 0.000684 1270.4479 1530.8809
1522.7320 0.000657 1270.2154 1523.5009
1506.9279 0.000664 1269.9828 1511.3970
1497.6956 0.000668 1269.7503 1495.5287
1538.9418 0.000650 1269.5178 1477.0054
1474.7829 0.000678 1269.2852 1457.0884
1498.4728 0.000667 1269.0527 1437.0302
1485.3721 0.000673 1268.8202 1417.8660
1404.7861 0.000712 1268.5876 1400.3044
1449.7369 0.000690 1268.3551 1384.7349
1474.9624 0.000678 1268.1225 1371.2921
1421.5809 0.000703 1267.8900 1359.9301
1394.7028 0.000717 1267.6575 1350.4864
1368.9611 0.000730 1267.4249 1342.7322
1348.3119 0.000742 1267.1924 1336.4107
1352.9477 0.000739 1266.9599 1331.2653
1304.9020 0.000766 1266.7273 1327.0587
1278.8040 0.000782 1266.4948 1323.5843
1300.4743 0.000769 1266.2622 1320.6707
1312.2212 0.000762 1266.0297 1318.1815
1258.4269 0.000795 1265.7972 1316.0121
1304.7752 0.000766 1265.5646 1314.0849
1222.9488 0.000818 1265.3321 1312.3429
1303.7270 0.000767 1265.0996 1310.7457
1243.0714 0.000804 1264.8670 1309.2644
1248.1395 0.000801 1264.6345 1307.8781
1321.7620 0.000757 1264.4019 1306.5718
1302.1524 0.000768 1264.1694 1301.6916
1217.5318 0.000821 1263.9369 1300.5696
1290.6747 0.000775 1263.7043 1299.4996
1219.0795 0.000820 1263.4718 1280.4240
1261.9647 0.000792 1263.2393 1277.8931
1259.0105 0.000794 1263.0067 1277.2459
1285.8337 0.000778 1262.7742 1276.6269
1266.1765 0.000790 1262.5416 1276.0331
1269.9540 0.000787 1262.3091 1266.5580
1290.7025 0.000775 1262.0766 1266.1428
1249.7070 0.000800 1261.8440 1265.7437
1274.4929 0.000785 1261.6115 1265.3594
1231.9756 0.000812 1261.3789 1264.9884
1216.3726 0.000822 1261.1464 1264.6297
1307.4140 0.000765 1260.9139 1264.2823
1237.2635 0.000808 1260.6813 1263.9454
1290.1276 0.000775 1260.5906 1263.7599
1211.9479 0.000825 1260.4998 1263.5835
1300.3723 0.000769 1260.4090 1263.4157
1254.1245 0.000797 1260.3182 1263.2558
1278.7813 0.000782 1260.2274 1263.1037
1270.4619 0.000787 1260.1366 1262.9588
1259.5375 0.000794 1260.0459 1262.8209
1293.1449 0.000773 1259.9551 1262.6898
1288.3794 0.000776 1259.8643 1262.5653
1290.8294 0.000775 1259.7735 1262.4655
1248.6792 0.000801 1259.6827 1262.3542
1286.3251 0.000777 1259.5920 1262.4476
1277.7785 0.000783 1259.5012 1262.3522
1251.8237 0.000799 1259.4104 1262.3240
1202.5809 0.000832 1259.3196 1262.2521
1279.6592 0.000781 1259.2288 1262.1782
1258.2666 0.000795 1259.1381 1262.2109
1291.0276 0.000775 1259.0473 1262.1535
1269.1840 0.000788 1258.9565 1262.1345
1300.9083 0.000769 1258.8657 1262.0944
1227.2432 0.000815 1258.7749 1262.0635
1230.0221 0.000813 1258.6841 1262.0428
1292.7735 0.000774 1258.5934 1262.0330
1264.5809 0.000791 1258.5026 1262.0353
1247.4536 0.000802 1258.4118 1262.0509
1227.9915 0.000814 1258.3210 1262.0814
1260.1148 0.000794 1258.2302 1262.1286
1293.5379 0.000773 1258.1395 1262.1950
1238.9927 0.000807 1258.0487 1262.2833
1234.6693 0.000810 1257.9579 1262.3977
1305.0795 0.000766 1257.8671 1262.5435
1260.9352 0.000793 1257.7763 1262.7279
1234.6016 0.000810 1257.6856 1262.9615
1295.2934 0.000772 1257.5948 1263.2590
1268.9438 0.000788 1257.5040 1263.6412
1305.9394 0.000766 1257.4132 1264.1368
1257.9938 0.000795 1257.3224 1264.7848
1226.5532 0.000815 1257.2316 1265.6365
1254.1663 0.000797 1257.1409 1266.7565
1232.2451 0.000812 1257.0501 1268.2234
1260.6949 0.000793 1256.9593 1270.1275
1304.5975 0.000767 1256.8685 1272.5662
1299.0292 0.000770 1256.7777 1275.6370
1256.9379 0.000796 1256.6870 1279.4261
1244.0520 0.000804 1256.5962 1283.9952
1299.7521 0.000769 1256.5054 1289.3635
1221.3403 0.000819 1256.4146 1295.4872
1231.0930 0.000812 1256.3238 1302.2337
1228.4486 0.000814 1256.2331 1309.3549
1283.0369 0.000779 1256.1423 1316.4682
1237.3083 0.000808 1256.0515 1323.0687
1292.4826 0.000774 1255.9607 1328.5933
1301.8582 0.000768 1255.8699 1332.5294
1290.2660 0.000775 1255.7791 1334.5240
1351.3730 0.000740 1255.6884 1334.4477
1333.0061 0.000750 1255.5976 1332.3919
1293.2925 0.000773 1255.5068 1328.6100
1252.5842 0.000798 1255.4160 1323.4427
1269.3705 0.000788 1255.3252 1317.2719
1279.8581 0.000781 1255.2345 1310.5020
1334.2628 0.000749 1255.1437 1303.5395
1236.0007 0.000809 1255.0529 1296.7515
1235.4552 0.000809 1254.9621 1290.4231
1310.7144 0.000763 1254.8713 1284.7371
1289.7759 0.000775 1254.7806 1279.7818
1270.4760 0.000787 1254.6898 1275.5712
1235.5691 0.000809 1254.5990 1272.0684
1190.7369 0.000840 1254.5082 1269.2053
1248.5668 0.000801 1254.4174 1266.8973
1190.2669 0.000840 1254.3266 1265.0552
1246.2519 0.000802 1254.2359 1263.5927
1233.7833 0.000811 1254.1451 1262.4318
1210.8253 0.000826 1254.0543 1261.5055
1193.8706 0.000838 1253.9635 1260.7588
1246.9538 0.000802 1253.8727 1260.1480
1254.7963 0.000797 1253.7820 1259.6397
1211.4917 0.000825 1253.6912 1259.2090
1202.0466 0.000832 1253.6004 1258.8377
1269.0304 0.000788 1253.5096 1258.5127
1258.9917 0.000794 1253.4188 1258.2248
1241.4637 0.000806 1253.3280 1257.9671
1275.7972 0.000784 1253.2373 1257.7349
1226.6399 0.000815 1253.1465 1257.5245
1243.2813 0.000804 1253.0557 1257.3334
1232.2254 0.000812 1252.9649 1257.1593
1226.2209 0.000816 1252.8741 1257.0006
1238.8019 0.000807 1252.7834 1256.8559
1257.6990 0.000795 1252.6926 1256.5406
1276.9133 0.000783 1252.9904 1256.8125
1226.5495 0.000815 1253.2881 1257.0957
1253.2512 0.000798 1253.5859 1257.3897
1195.6756 0.000836 1253.8837 1257.6017
1198.7506 0.000834 1254.1815 1257.9176
1213.1568 0.000824 1254.4793 1258.2433
1275.5989 0.000784 1254.7771 1258.5786
1283.5873 0.000779 1255.0749 1258.9237
1246.4301 0.000802 1255.3726 1260.8743
1253.8313 0.000798 1255.6704 1261.2628
1269.0559 0.000788 1255.9682 1261.6618
1255.1299 0.000797 1256.2660 1263.6324
1225.5919 0.000816 1256.5638 1264.0770
1299.0124 0.000770 1256.8616 1265.3303
1239.7967 0.000807 1257.1593 1265.8122
1227.7666 0.000814 1257.4571 1266.3081
1248.5853 0.000801 1257.7549 1267.5975
1241.6964 0.000805 1258.0527 1268.1358
1266.4222 0.000790 1258.3505 1268.6912
1269.0949 0.000788 1258.6483 1269.2653
1261.9633 0.000792 1258.9460 1269.8593
1262.3525 0.000792 1259.2438 1270.4751
1277.1448 0.000783 1259.5416 1271.1145
1270.5821 0.000787 1259.8394 1271.7797
1259.3224 0.000794 1260.1372 1272.4733
1302.9233 0.000768 1260.4350 1273.1981
1286.2268 0.000777 1260.7327 1273.9575
1243.5526 0.000804 1261.0305 1274.7552
1220.1641 0.000820 1261.3283 1275.5958
1234.3013 0.000810 1261.6261 1276.4845
1252.8265 0.000798 1261.9239 1277.4274
1280.3835 0.000781 1262.2217 1278.4321
1297.5281 0.000771 1262.5194 1279.5079
1271.0108 0.000787 1262.8172 1280.6665
1245.3770 0.000803 1263.1150 1281.9233
1259.8048 0.000794 1263.4128 1283.2991
1282.4515 0.000780 1263.7106 1284.8226
1245.2866 0.000803 1264.0084 1286.5340
1222.5234 0.000818 1264.3061 1288.4896
1271.1142 0.000787 1264.6039 1290.7687
1296.4979 0.000771 1264.9017 1293.4801
1273.8230 0.000785 1265.1995 1296.7705
1305.0330 0.000766 1265.4973 1300.8316
1298.0368 0.000770 1265.7951 1305.9046
1287.4524 0.000777 1266.0067 1312.1943
1303.1826 0.000767 1266.2183 1320.1199
1296.8099 0.000771 1266.4300 1330.0407
1292.0342 0.000774 1266.6416 1342.3142
1318.1667 0.000759 1266.8532 1357.2575
1337.6090 0.000748 1267.0649 1375.0973
1374.1333 0.000728 1267.2765 1395.9091
1433.3659 0.000698 1267.4881 1419.5437
1455.0325 0.000687 1267.6998 1445.5396
1476.6329 0.000677 1267.9114 1473.0272
1537.6998 0.000650 1268.1230 1500.6503
1526.2595 0.000655 1268.3347 1526.5737
1500.0797 0.000667 1268.5463 1548.6750
1532.5875 0.000652 1268.7579 1564.9643
1570.1694 0.000637 1268.9696 1574.0924
1561.3069 0.000640 1269.1812 1575.6315
1547.7164 0.000646 1269.3928 1569.9606
1547.8611 0.000646 1269.6045 1557.9332
1531.6963 0.000653 1269.8161 1540.6302
1471.4845 0.000680 1270.0277 1519.2992
1437.9303 0.000695 1270.2394 1495.3514
1381.2089 0.000724 1270.4510 1470.2718
1349.0154 0.000741 1270.6626 1445.4472
1382.5849 0.000723 1270.8743 1422.0038
1341.6164 0.000745 1271.0859 1400.7212
1346.0714 0.000743 1271.2975 1382.0333
1341.0003 0.000746 1271.5092 1366.0853
1308.0562 0.000764 1271.7208 1352.8114
1295.0961 0.000772 1271.9324 1342.0074
1292.9735 0.000773 1272.1441 1333.3904
1231.2011 0.000812 1272.3557 1326.6438
1245.7517 0.000803 1272.5673 1321.4503
1274.7628 0.000784 1272.7789 1317.5142
1274.2934 0.000785 1272.9906 1314.5746
1319.6266 0.000758 1273.2022 1312.4119
1298.1071 0.000770 1273.4138 1310.8482
1248.3246 0.000801 1273.6255 1309.7447
1251.1276 0.000799 1273.8371 1308.9958
1320.8289 0.000757 1274.0487 1308.5239
1322.0106 0.000756 1274.2604 1308.2725
1276.4919 0.000783 1274.4720 1308.2016
1287.6246 0.000777 1274.6836 1308.2828
1304.0275 0.000767 1274.8953 1308.4964
1281.9958 0.000780 1275.1069 1308.8285
1290.8134 0.000775 1275.2250 1309.1757
1323.0421 0.000756 1275.3431 1309.6249
1272.7453 0.000786 1275.4612 1310.1715
1226.4682 0.000815 1275.5793 1310.8125
1231.8939 0.000812 1275.6974 1311.5464
1259.2351 0.000794 1275.8155 1312.3728
1260.4116 0.000793 1275.9336 1313.4192
1246.4894 0.000802 1276.0517 1314.4351
1275.6620 0.000784 1276.1698 1315.5162
1258.4959 0.000795 1276.2879 1316.7298
1230.2973 0.000813 1276.4061 1318.0079
1248.1485 0.000801 1276.5242 1319.4994
1268.4268 0.000788 1276.6423 1321.0442
1302.1203 0.000768 1276.7604 1322.6961
1310.4989 0.000763 1276.8785 1324.4951
1271.8444 0.000786 1276.9966 1326.4147
1254.2770 0.000797 1277.1147 1328.5058
1278.0407 0.000782 1277.2328 1330.7606
1306.5253 0.000765 1277.3509 1333.1932
1301.6448 0.000768 1277.4690 1335.8195
1307.6305 0.000765 1277.5871 1338.6578
1349.8210 0.000741 1277.7052 1341.7288
1303.8339 0.000767 1277.8233 1345.0561
1257.1801 0.000795 1277.9414 1348.6666
1295.1016 0.000772 1278.0595 1352.5914
1331.5250 0.000751 1278.1776 1356.8659
1324.9922 0.000755 1278.2957 1361.5313
1350.8645 0.000740 1278.4138 1366.6353
1336.1137 0.000748 1278.5319 1372.2338
1299.3803 0.000770 1278.6500 1378.3936
1321.5827 0.000757 1278.7681 1385.1950
1326.8054 0.000754 1278.8862 1392.7377
1322.2280 0.000756 1279.0043 1401.1479
1329.3786 0.000752 1279.1224 1410.5911
1385.5198 0.000722 1279.2405 1421.2897
1429.3518 0.000700 1279.3586 1433.5495
1448.7894 0.000690 1279.4767 1447.7968
1467.5207 0.000681 1279.5949 1464.6284
1467.3612 0.000681 1279.7130 1484.8744
1461.3781 0.000684 1279.8311 1509.6723
1570.3771 0.000637 1279.9492 1540.5459
1612.3606 0.000620 1280.0673 1579.4778
1629.8339 0.000614 1280.1854 1628.9583
1710.7238 0.000585 1280.3035 1691.9898
1789.6571 0.000559 1280.4216 1772.0224
1894.4850 0.000528 1280.5397 1872.8001
1998.0860 0.000500 1280.6578 1998.1019
2159.8514 0.000463 1280.7759 2151.3708
2337.7263 0.000428 1280.8940 2335.2298
2461.8568 0.000406 1281.0121 2550.8771
2718.9934 0.000368 1281.1302 2797.3420
2979.6580 0.000336 1281.2483 3070.5777
3284.7106 0.000304 1281.3664 3362.4431
3645.6166 0.000274 1281.4845 3659.8892
3962.1645 0.000252 1281.6026 3945.0870
4278.7545 0.000234 1281.7207 4197.3543
4465.7726 0.000224 1281.8388 4396.7993
4496.6285 0.000222 1281.9569 4528.0547
4644.9531 0.000215 1282.0750 4582.4091
4596.2440 0.000218 1282.1931 4558.2904
4511.8413 0.000222 1282.3112 4460.7061
4354.3841 0.000230 1282.4293 4299.7086
4115.3828 0.000243 1282.5474 4088.2587
3892.8300 0.000257 1282.6655 3840.4341
3695.0594 0.000271 1282.7837 3570.5524
3392.8348 0.000295 1282.9018 3292.7640
3141.1718 0.000318 1283.0199 3020.2298
2836.7076 0.000353 1283.1380 2763.8071
2643.2819 0.000378 1283.2561 2531.0514
2413.7598 0.000414 1283.3742 2326.0761
2228.8023 0.000449 1283.4923 2150.0974
2012.0479 0.000497 1283.6104 2002.2272
1897.4121 0.000527 1283.7285 1880.2201
1815.4402 0.000551 1283.8466 1781.0708
1743.8004 0.000573 1283.9647 1701.4625
1683.9310 0.000594 1284.0828 1638.0871
1581.6968 0.000632 1284.2009 1587.8616
1619.4264 0.000618 1284.3190 1548.0588
1524.1815 0.000656 1284.4371 1516.3685
1512.2275 0.000661 1284.5552 1490.9055
1480.3173 0.000676 1284.6733 1470.1812
1493.6282 0.000670 1284.7914 1453.0528
1410.9861 0.000709 1284.9095 1438.6636
1377.5847 0.000726 1285.0276 1426.3825
1337.1142 0.000748 1285.1457 1415.8102
1384.9861 0.000722 1285.2638 1406.4927
1418.6606 0.000705 1285.3819 1398.2853
1397.7616 0.000715 1285.5000 1390.9291
1340.2861 0.000746 1285.5246 1384.2328
1328.5921 0.000753 1285.5492 1378.2141
1383.5452 0.000723 1285.5738 1372.7289
1382.6927 0.000723 1285.5983 1367.7575
1295.2816 0.000772 1285.6229 1363.2036
1319.4629 0.000758 1285.6475 1359.0381
1338.7155 0.000747 1285.6721 1355.2192
1282.7335 0.000780 1285.6966 1351.7112
1260.5120 0.000793 1285.7212 1348.4828
1289.5866 0.000775 1285.7458 1345.5069
1325.0188 0.000755 1285.7704 1342.7594
1353.3318 0.000739 1285.7949 1340.2195
1343.7118 0.000744 1285.8195 1337.8686
1285.3165 0.000778 1285.8441 1335.6725
1297.4110 0.000771 1285.8687 1333.6530
1317.4072 0.000759 1285.8932 1331.7791
1227.1900 0.000815 1285.9178 1329.8444
1277.6918 0.000783 1285.9424 1328.2318
1298.0784 0.000770 1285.9670 1326.6658
1306.6302 0.000765 1285.9915 1325.2773
1247.8564 0.000801 1286.0161 1323.9896
1262.7729 0.000792 1286.0407 1322.6993
1241.3184 0.000806 1286.0653 1321.5975
1268.0115 0.000789 1286.0898 1320.5509
1291.0846 0.000775 1286.1144 1319.6163
1325.7611 0.000754 1286.1390 1318.7603
1226.4983 0.000815 1286.1636 1317.9807
1261.8095 0.000793 1286.1881 1317.2759
1277.3391 0.000783 1286.2127 1316.6452
1335.2256 0.000749 1286.2373 1316.0890
1283.7442 0.000779 1286.2619 1315.6086
1295.6505 0.000772 1286.2864 1315.2069
1254.2399 0.000797 1286.3110 1314.8889
1262.9658 0.000792 1286.3356 1314.6625
1272.1898 0.000786 1286.3601 1314.5396
1254.5811 0.000797 1286.3847 1314.5382
1287.8259 0.000777 1286.4093 1314.6843
1301.1129 0.000769 1286.4339 1315.0153
1225.8002 0.000816 1286.4584 1315.5825
1266.6159 0.000790 1286.4830 1316.4554
1309.9147 0.000763 1286.5076 1317.7240
1247.2679 0.000802 1286.5322 1319.5001
1291.7965 0.000774 1286.5567 1321.9170
1288.8420 0.000776 1286.5813 1325.1248
1313.6118 0.000761 1286.5050 1329.1807
1335.5519 0.000749 1286.4287 1334.3393
1371.0866 0.000729 1286.3523 1340.7316
1349.0564 0.000741 1286.2760 1348.4447
1356.6230 0.000737 1286.1997 1357.4964
1323.4493 0.000756 1286.1233 1367.8046
1339.7126 0.000746 1286.0470 1379.1500
1388.0341 0.000720 1285.9707 1391.1307
1410.2375 0.000709 1285.8943 1403.1177
1421.3005 0.000704 1285.8180 1414.2461
1434.6845 0.000697 1285.7417 1423.5036
1413.4723 0.000707 1285.6653 1429.9581
1436.7209 0.000696 1285.5890 1433.0452
1404.8173 0.000712 1285.5127 1432.7179
1367.1742 0.000731 1285.4363 1429.3275
1459.4896 0.000685 1285.3600 1423.3569
1387.5120 0.000721 1285.2837 1415.2455
1386.9138 0.000721 1285.2073 1405.4073
1340.8059 0.000746 1285.1310 1394.3356
1348.1559 0.000742 1285.0547 1382.6341
1435.2662 0.000697 1284.9783 1370.9317
1421.2320 0.000704 1284.9020 1359.7643
1350.7042 0.000740 1284.8257 1349.5084
1334.9071 0.000749 1284.7493 1340.3767
1312.4863 0.000762 1284.6730 1332.4486
1320.7432 0.000757 1284.5967 1325.7083
1351.0316 0.000740 1284.5203 1320.0773
1325.6853 0.000754 1284.4440 1315.4401
1306.8889 0.000765 1284.3677 1311.6633
1277.9845 0.000782 1284.2913 1308.6093
1268.7473 0.000788 1284.2150 1306.1472
1333.1959 0.000750 1284.1387 1304.1586
1279.7607 0.000781 1284.0623 1302.5416
1333.9248 0.000750 1283.9860 1301.2119
1253.1526 0.000798 1283.9097 1300.1022
1306.2426 0.000766 1283.8333 1299.1604
1274.9804 0.000784 1283.7570 1298.3473
1292.9803 0.000773 1283.6807 1297.6338
1273.5725 0.000785 1283.6044 1296.9988
1304.4320 0.000767 1283.5280 1296.4270
1222.2269 0.000818 1283.4517 1295.9073
1252.8216 0.000798 1283.3754 1295.4316
1249.9142 0.000800 1283.2990 1294.9938
1306.5764 0.000765 1283.2227 1294.5893
1323.6720 0.000755 1283.0597 1294.1279
1276.4001 0.000783 1282.8968 1293.6932
1253.2903 0.000798 1282.7339 1293.2830
1266.3735 0.000790 1282.5709 1292.8952
1284.4393 0.000779 1282.4080 1292.5283
1251.4415 0.000799 1282.2451 1292.1810
1213.4195 0.000824 1282.0821 1291.8522
1248.9012 0.000801 1281.9192 1291.5411
1238.2905 0.000808 1281.7562 1291.2470
1283.8834 0.000779 1281.5933 1290.9694
1252.0293 0.000799 1281.4304 1290.7080
1281.9492 0.000780 1281.2674 1290.4628
1217.2835 0.000822 1281.1045 1290.2337
1305.3743 0.000766 1280.9415 1290.0210
1323.8254 0.000755 1280.7786 1289.8251
1241.0390 0.000806 1280.6157 1289.6464
1244.9248 0.000803 1280.4527 1287.9198
1322.6012 0.000756 1280.2898 1287.8010
1376.8997 0.000726 1280.1268 1287.7022
1257.8345 0.000795 1279.9639 1286.1027
1255.9743 0.000796 1279.8010 1286.0713
1297.7795 0.000771 1279.6380 1285.2810
1177.8815 0.000849 1279.4751 1285.3162
1242.6058 0.000805 1279.3122 1285.3851
1233.4367 0.000811 1279.1492 1284.7311
1297.3831 0.000771 1278.9863 1284.8994
1203.2145 0.000831 1278.8233 1285.1279
1249.6470 0.000800 1278.6604 1285.4333
1323.4701 0.000756 1278.4975 1285.8389
1320.3481 0.000757 1278.3345 1286.3767
1243.2447 0.000804 1278.1716 1287.0899
1250.3391 0.000800 1278.0086 1288.0348
1264.1916 0.000791 1277.8457 1289.2828
1260.3021 0.000793 1277.6828 1290.9209
1261.8738 0.000792 1277.5198 1293.0502
1333.0031 0.000750 1277.3569 1295.7824
1282.1051 0.000780 1277.1939 1299.2325
1251.9904 0.000799 1277.0310 1303.5096
1259.2624 0.000794 1276.8681 1308.7033
1264.6179 0.000791 1276.7051 1314.8681
1266.8418 0.000789 1276.5422 1322.0043
1314.7483 0.000761 1276.3793 1330.0347
1304.3509 0.000767 1276.2163 1338.7768
1257.3550 0.000795 1276.0534 1347.9117
1302.1524 0.000768 1275.8335 1356.9041
1296.1093 0.000772 1275.6135 1365.1873
1294.0951 0.000773 1275.3936 1372.0736
1335.5023 0.000749 1275.1737 1376.9596
1313.0134 0.000762 1274.9538 1379.4779
1293.8561 0.000773 1274.7338 1379.5607
1311.6728 0.000762 1274.5139 1377.3832
1346.9873 0.000742 1274.2940 1373.2415
1361.6665 0.000734 1274.0741 1367.4551
1329.3240 0.000752 1273.8541 1360.3459
1312.6304 0.000762 1273.6342 1352.2669
1326.8557 0.000754 1273.4143 1343.6195
1321.9744 0.000756 1273.1944 1334.8268
1219.4381 0.000820 1272.9744 1326.2789
1238.1689 0.000808 1272.7545 1318.2819
1276.0674 0.000784 1272.5346 1311.0360
1259.3118 0.000794 1272.3147 1304.6416
1291.4592 0.000774 1272.0947 1302.9373
1258.2015 0.000795 1271.8748 1298.3079
1278.6451 0.000782 1271.6549 1294.4480
1256.4376 0.000796 1271.4350 1291.2681
1233.2080 0.000811 1271.2151 1288.6710
1252.9908 0.000798 1270.9951 1288.6406
1252.7558 0.000798 1270.7752 1288.8618
1283.3085 0.000779 1270.5553 1287.5196
1267.0689 0.000789 1270.3354 1286.4263
1289.0659 0.000776 1270.1154 1285.5259
1281.4275 0.000780 1269.8955 1284.7737
1287.3550 0.000777 1269.6756 1285.1746
1280.6717 0.000781 1269.4557 1284.6392
1235.0015 0.000810 1269.2357 1284.1729
1230.9649 0.000812 1269.0158 1283.7615
1318.6064 0.000758 1268.7959 1283.3949
1305.7582 0.000766 1268.5760 1283.0656
1292.4441 0.000774 1268.3560 1282.7680
1301.6186 0.000768 1268.1361 1282.4979
1314.5839 0.000761 1267.9162 1282.2523
1277.2376 0.000783 1267.6963 1282.0285
1243.7357 0.000804 1267.4764 1281.8245
1303.2973 0.000767 1267.2564 1281.6388
1319.8035 0.000758 1267.0365 1281.4698
1204.6846 0.000830 1266.8166 1281.3165
1224.6861 0.000817 1266.5967 1281.1779
1298.2507 0.000770 1266.3767 1281.0532
1293.3873 0.000773 1266.7859 1281.5707
1270.6172 0.000787 1267.1951 1282.1009
1275.4495 0.000784 1267.6043 1282.6431
1284.2783 0.000779 1268.0135 1283.1971
1217.9557 0.000821 1268.4227 1283.7624
1269.9299 0.000787 1268.8319 1284.3388
1277.5715 0.000783 1269.2410 1284.9262
1287.1599 0.000777 1269.6502 1285.5243
1324.9435 0.000755 1270.0594 1286.1331
1278.1107 0.000782 1270.4686 1286.7525
1276.3221 0.000784 1270.8778 1287.3825
1258.0969 0.000795 1271.2870 1288.0232
1261.6507 0.000793 1271.6962 1288.6745
1309.7278 0.000764 1272.1053 1289.3366
1291.5166 0.000774 1272.5145 1290.0097
1304.3356 0.000767 1272.9237 1290.6938
1267.7446 0.000789 1273.3329 1291.3892
1279.1598 0.000782 1273.7421 1291.9706
1319.2796 0.000758 1274.1513 1292.6910
1275.0858 0.000784 1274.5605 1293.4235
1277.4430 0.000783 1274.9696 1294.1683
1285.7367 0.000778 1275.3788 1294.9257
1295.5430 0.000772 1275.7880 1295.6962
1295.3430 0.000772 1276.1972 1296.4178
1273.5953 0.000785 1276.6064 1297.2165
1293.5907 0.000773 1277.0156 1298.0295
1313.4042 0.000761 1277.4248 1298.8574
1298.9817 0.000770 1277.8339 1299.7006
1299.8987 0.000769 1278.2431 1300.5598
1297.9922 0.000770 1278.6523 1301.4356
1283.1710 0.000779 1279.0615 1302.3287
1296.4615 0.000771 1279.4707 1303.2397
1290.5596 0.000775 1279.8799 1304.1695
1253.9924 0.000797 1280.2891 1305.1187
1297.1639 0.000771 1280.6983 1306.0884
1278.3378 0.000782 1281.1074 1307.0793
1324.7941 0.000755 1281.5166 1308.0925
1303.7230 0.000767 1281.9258 1309.1290
1306.8894 0.000765 1282.3350 1310.1899
1307.6694 0.000765 1282.7442 1311.2764
1297.5117 0.000771 1283.1534 1312.3897
1311.4008 0.000763 1283.5626 1313.5311
1321.0421 0.000757 1283.9717 1314.7022
1331.4924 0.000751 1284.3809 1315.9044
1342.7536 0.000745 1284.6939 1317.0431
1338.6004 0.000747 1285.0068 1318.2163
1307.5291 0.000765 1285.3198 1319.4258
1319.3594 0.000758 1285.6327 1320.8670
1333.3294 0.000750 1285.9457 1322.2795
1361.8046 0.000734 1286.2586 1323.6152
1314.0216 0.000761 1286.5716 1324.9962
1317.4605 0.000759 1286.8845 1326.4252
1342.5401 0.000745 1287.1975 1327.9051
1342.7433 0.000745 1287.5104 1329.5351
1357.2167 0.000737 1287.8234 1331.1879
1342.0980 0.000745 1288.1363 1332.8420
1284.6102 0.000778 1288.4493 1334.5607
1278.5792 0.000782 1288.7622 1336.3484
1273.6882 0.000785 1289.0752 1338.2094
1300.5782 0.000769 1289.3881 1340.1487
1349.4695 0.000741 1289.7011 1342.1715
1348.9904 0.000741 1290.0140 1344.2838
1345.9005 0.000743 1290.3269 1346.4916
1331.2606 0.000751 1290.6399 1348.8020
1293.8769 0.000773 1290.9528 1351.2223
1326.3062 0.000754 1291.2658 1353.7606
1355.3834 0.000738 1291.5787 1356.4260
1358.6838 0.000736 1291.8917 1359.2282
1356.7209 0.000737 1292.2046 1362.1780
1379.5626 0.000725 1292.5176 1365.2871
1402.0597 0.000713 1292.8305 1368.5686
1390.3143 0.000719 1293.1435 1372.0369
1396.2169 0.000716 1293.4564 1375.7080
1379.4939 0.000725 1293.7694 1379.5993
1380.6445 0.000724 1294.0823 1383.7306
1395.1852 0.000717 1294.3953 1388.1237
1375.3517 0.000727 1294.7082 1392.8029
1363.3491 0.000733 1295.0212 1397.7954
1351.5539 0.000740 1295.3341 1403.1317
1383.9000 0.000723 1295.6471 1408.8461
1405.3109 0.000712 1295.9600 1414.9774
1395.5404 0.000717 1296.2730 1421.5692
1419.9751 0.000704 1296.5859 1428.6711
1480.5600 0.000675 1296.8989 1436.3397
1480.2956 0.000676 1297.2118 1444.6397
1451.9066 0.000689 1297.5248 1453.6457
1465.4611 0.000682 1297.8377 1463.4445
1454.8945 0.000687 1298.1507 1474.1383
1486.2131 0.000673 1298.3674 1485.7533
1501.5688 0.000666 1298.5842 1498.5352
1485.3155 0.000673 1298.8010 1512.6712
1530.8935 0.000653 1299.0178 1528.4024
1571.4725 0.000636 1299.2345 1546.0466
1611.9422 0.000620 1299.4513 1566.0330
1645.2515 0.000608 1299.6681 1588.9479
1683.0506 0.000594 1299.8849 1615.5981
1768.8034 0.000565 1300.1016 1647.0887
1798.8473 0.000556 1300.3184 1684.9167
1810.0929 0.000552 1300.5352 1731.0130
1840.8713 0.000543 1300.7520 1788.0790
1893.8047 0.000528 1300.9687 1859.2663
2011.8678 0.000497 1301.1855 1948.6050
2194.4815 0.000456 1301.4023 2060.6742
2330.5912 0.000429 1301.6191 2200.6279
2493.9571 0.000401 1301.8358 2373.8824
2687.1441 0.000372 1302.0526 2585.8688
2900.9052 0.000345 1302.2694 2841.3421
3185.4979 0.000314 1302.4862 3143.9571
3542.9900 0.000282 1302.7029 3495.3529
3937.6636 0.000254 1302.9197 3894.2672
4292.2164 0.000233 1303.1365 4335.2978
4759.4877 0.000210 1303.3533 4807.4638
5290.5380 0.000189 1303.5700 5292.9332
5698.5691 0.000175 1303.7868 5766.9680
6158.6751 0.000162 1304.0036 6200.6011
6726.3364 0.000149 1304.2204 6566.5267
7109.8526 0.000141 1304.4371 6845.6027
7382.9751 0.000135 1304.6539 7029.1675
7565.6014 0.000132 1304.8707 7115.3230
7561.6948 0.000132 1305.0875 7103.3806
7443.9916 0.000134 1305.3042 6992.4120
7172.0712 0.000139 1305.5210 6785.0678
6828.6848 0.000146 1305.7378 6492.1302
6426.7196 0.000156 1305.9546 6132.6899
5994.4931 0.000167 1306.1713 5729.5077
5537.2313 0.000181 1306.3881 5303.5563
5074.7689 0.000197 1306.6049 4871.5296
4667.0288 0.000214 1306.8217 4446.5732
4278.9951 0.000234 1307.0384 4039.8410
3911.2931 0.000256 1307.2552 3660.8808
3522.3571 0.000284 1307.4720 3316.9124
3222.5845 0.000310 1307.6888 3012.1371
2970.8415 0.000337 1307.8139 2747.6525
2686.9883 0.000372 1307.9391 2522.3099
2493.3384 0.000401 1308.0643 2333.2145
2342.3706 0.000427 1308.1895 2176.5216
2218.7641 0.000451 1308.3147 2047.9800
2140.1200 0.000467 1308.4399 1943.3152
2052.5239 0.000487 1308.5651 1858.4840
1952.1797 0.000512 1308.6902 1789.8296
1883.8086 0.000531 1308.8154 1734.1638
1843.8497 0.000542 1308.9406 1688.7920
1778.6205 0.000562 1309.0658 1651.5003
1735.0881 0.000576 1309.1910 1620.5141
1706.3662 0.000586 1309.3162 1594.4420
1712.1158 0.000584 1309.4413 1572.2135
1692.5565 0.000591 1309.5665 1553.0169
1632.7851 0.000612 1309.6917 1536.2427
1620.9557 0.000617 1309.8169 1521.4352
1570.1768 0.000637 1309.9421 1508.2526
1514.8144 0.000660 1310.0673 1496.4367
1517.1948 0.000659 1310.1924 1485.7888
1456.0655 0.000687 1310.3176 1476.1539
1482.7048 0.000674 1310.4428 1467.4079
1430.9828 0.000699 1310.5680 1459.4496
1428.2357 0.000700 1310.6932 1452.1951
1443.1178 0.000693 1310.8184 1445.5737
1440.0000 0.000694 1310.9435 1439.5254
1451.1328 0.000689 1311.0687 1433.9986
1467.7895 0.000681 1311.1939 1428.9494
1453.7588 0.000688 1311.3191 1424.3399
1439.2678 0.000695 1311.4443 1420.1377
1447.8833 0.000691 1311.5695 1416.3158
1454.0732 0.000688 1311.6947 1412.8515
1443.5722 0.000693 1311.8198 1409.7269
1436.8585 0.000696 1311.9450 1406.9290
1444.6657 0.000692 1312.0702 1404.4497
1400.4881 0.000714 1312.1954 1402.2873
1386.8339 0.000721 1312.3206 1400.4480
1395.1120 0.000717 1312.4458 1398.9478
1435.7641 0.000696 1312.5709 1397.8163
1418.0699 0.000705 1312.6961 1397.1008
1384.3610 0.000722 1312.8213 1396.8718
1410.1433 0.000709 1312.9465 1397.2287
1388.3602 0.000720 1313.0717 1398.3066
1425.4399 0.000702 1313.1969 1400.2811
1441.5211 0.000694 1313.3220 1403.3714
1498.5242 0.000667 1313.4472 1407.8393
1462.4732 0.000684 1313.5724 1413.9825
1401.1346 0.000714 1313.6976 1422.1206
1471.6248 0.000680 1313.8228 1432.5731
1481.6718 0.000675 1313.9480 1445.6294
1482.5777 0.000675 1314.0731 1461.5117
1463.8277 0.000683 1314.1983 1480.3310
1533.4986 0.000652 1314.3235 1502.0355
1568.0194 0.000638 1314.4487 1526.3489
1569.4108 0.000637 1314.5739 1552.6937
1612.1676 0.000620 1314.6991 1580.1051
1651.1550 0.000606 1314.8242 1607.1636
1700.4843 0.000588 1314.9494 1632.0227
1694.7125 0.000590 1315.0746 1652.6329
1733.0566 0.000577 1315.1998 1667.2115
1710.4306 0.000585 1315.3250 1674.7279
1715.9911 0.000583 1315.4502 1675.0460
1769.4496 0.000565 1315.5754 1668.9696
1721.2978 0.000581 1315.7005 1657.5489
1684.2475 0.000594 1315.8257 1641.7125
1732.8262 0.000577 1315.9509 1622.1752
1772.8183 0.000564 1316.0761 1599.5823
1698.0485 0.000589 1316.2013 1574.8147
1617.8561 0.000618 1316.3265 1548.8976
1595.7469 0.000627 1316.4516 1523.0182
1561.6878 0.000640 1316.5768 1498.2076
1546.2391 0.000647 1316.7020 1475.2273
1521.1142 0.000657 1316.8272 1454.5390
1477.8608 0.000677 1316.9524 1436.3458
1492.7667 0.000670 1317.0776 1420.6578
1458.4728 0.000686 1317.2027 1407.3535
1445.9905 0.000692 1317.3279 1396.2295
1452.8360 0.000688 1317.4531 1387.0366
1425.7877 0.000701 1317.5783 1379.5078
1434.5407 0.000697 1317.7035 1373.3783
1423.0134 0.000703 1317.8287 1368.3997
1378.0093 0.000726 1317.9538 1364.3499
1341.7730 0.000745 1318.0790 1361.0371
1379.3115 0.000725 1318.2042 1358.3021
1460.2865 0.000685 1318.3294 1356.0164
1339.1733 0.000747 1318.4546 1354.0790
1312.2820 0.000762 1318.5798 1352.4126
1354.9148 0.000738 1318.7050 1350.9588
1380.4764 0.000724 1318.7385 1349.5827
1350.8232 0.000740 1318.7721 1348.3438
1302.1989 0.000768 1318.8057 1347.2183
1307.6948 0.000765 1318.8393 1346.1884
1340.0759 0.000746 1318.8729 1345.2404
1338.9595 0.000747 1318.9065 1344.3639
1378.3639 0.000725 1318.9401 1343.5502
1345.5136 0.000743 1318.9737 1342.7926
1333.1863 0.000750 1319.0073 1342.0852
1364.8184 0.000733 1319.0409 1341.4231
1348.4334 0.000742 1319.0745 1340.8021
1292.8632 0.000773 1319.1081 1340.2184
1365.2641 0.000732 1319.1417 1339.6689
1368.7934 0.000731 1319.1752 1339.1505
1403.1180 0.000713 1319.2088 1338.6609
1294.4707 0.000773 1319.2424 1338.1977
1322.7019 0.000756 1319.2760 1337.7589
1349.2759 0.000741 1319.3096 1337.3426
1326.9637 0.000754 1319.3432 1336.9473
1298.8709 0.000770 1319.3768 1336.5715
1377.8687 0.000726 1319.4104 1336.2138
1361.3634 0.000735 1319.4440 1335.8730
1327.6551 0.000753 1319.4776 1335.5480
1287.0192 0.000777 1319.5112 1335.2379
1305.2287 0.000766 1319.5448 1334.9416
1346.0556 0.000743 1319.5784 1334.6585
1359.9598 0.000735 1319.6120 1334.3876
1325.0618 0.000755 1319.6455 1334.1284
1305.8691 0.000766 1319.6791 1333.8802
1307.4361 0.000765 1319.7127 1333.6423
1325.0044 0.000755 1319.7463 1333.4142
1334.3347 0.000749 1319.7799 1333.1955
1345.4704 0.000743 1319.8135 1332.9857
1303.1194 0.000767 1319.8471 1332.7843
1291.4123 0.000774 1319.8807 1332.5909
1311.9074 0.000762 1319.9143 1332.4052
1328.5335 0.000753 1319.9479 1332.3267
1335.9774 0.000749 1319.9815 1332.1566
1292.3329 0.000774 1320.0151 1328.2317
1287.8480 0.000776 1320.0487 1328.4340
1363.5326 0.000733 1320.0823 1328.5403
1269.2921 0.000788 1320.1158 1328.4524
1360.8565 0.000735 1320.1494 1328.7800
1313.5438 0.000761 1320.1830 1326.6619
1334.6792 0.000749 1320.1296 1324.6522
1291.7957 0.000774 1320.0762 1324.5551
1312.3255 0.000762 1320.0228 1324.6150
1326.7595 0.000754 1319.9694 1324.6274
1322.9149 0.000756 1319.9159 1324.5433
1314.1160 0.000761 1319.8625 1323.6191
1359.7318 0.000735 1319.8091 1323.5576
1292.4170 0.000774 1319.7557 1323.4988
1298.4678 0.000770 1319.7023 1323.4427
1307.3097 0.000765 1319.6489 1323.3893
1340.0776 0.000746 1319.5954 1323.3384
1328.0588 0.000753 1319.5420 1323.2902
1359.9331 0.000735 1319.4886 1323.2446
1342.6418 0.000745 1319.4352 1323.2015
1351.9674 0.000740 1319.3818 1323.1611
1311.3520 0.000763 1319.3284 1323.1233
1262.5472 0.000792 1319.2749 1323.0881
1336.1867 0.000748 1319.2215 1323.0557
1318.0000 0.000759 1319.1681 1323.0259
1317.0633 0.000759 1319.1147 1322.9990
1294.1484 0.000773 1319.0613 1322.9748
1326.2892 0.000754 1319.0079 1322.9536
1335.5303 0.000749 1318.9545 1322.9354
1353.2947 0.000739 1318.9010 1322.9203
1363.8311 0.000733 1318.8476 1322.9083
1357.4935 0.000737 1318.7942 1322.8997
1378.8916 0.000725 1318.7408 1322.8945
1321.1773 0.000757 1318.6874 1322.8929
1332.4976 0.000750 1318.6340 1322.8950
1368.1268 0.000731 1318.5805 1322.9011
1288.2109 0.000776 1318.5271 1322.9114
1314.2830 0.000761 1318.4737 1322.9260
1365.8447 0.000732 1318.4203 1322.9453
1309.9989 0.000763 1318.3669 1322.9694
1299.0282 0.000770 1318.3135 1322.9989
1321.8796 0.000756 1318.2600 1323.0339
1346.8024 0.000742 1318.2066 1323.0750
1356.8943 0.000737 1318.1532 1323.1225
1290.8872 0.000775 1318.0998 1323.1769
1314.6022 0.000761 1318.0464 1323.2389
1331.6842 0.000751 1317.9930 1323.3090
1341.7875 0.000745 1317.9395 1323.3880
1299.0524 0.000770 1317.8861 1323.4767
1290.2127 0.000775 1317.8327 1323.5760
1335.6250 0.000749 1317.8983 1323.8061
1349.5850 0.000741 1317.9639 1324.0492
1322.9686 0.000756 1318.0296 1324.3067
1269.0494 0.000788 1318.0952 1324.5805
1332.2847 0.000751 1318.1608 1324.8727
1309.1502 0.000764 1318.2264 1325.1862
1339.5061 0.000747 1318.2921 1325.5243
1305.7737 0.000766 1318.3577 1325.8920
1301.1518 0.000769 1318.4233 1326.2956
1343.6026 0.000744 1318.4889 1326.7437
1351.6643 0.000740 1318.5545 1327.2482
1336.9378 0.000748 1318.6202 1327.8251
1327.5515 0.000753 1318.6858 1328.4959
1339.1686 0.000747 1318.7514 1329.2890
1327.8661 0.000753 1318.8170 1330.2405
1270.2267 0.000787 1318.8827 1331.7144
1356.0200 0.000737 1318.9483 1333.1309
1354.6717 0.000738 1319.0139 1334.8670
1359.5362 0.000736 1319.0795 1336.9909
1328.7188 0.000753 1319.1451 1339.5733
1364.5293 0.000733 1319.2108 1342.7277
1397.2703 0.000716 1319.2764 1346.4217
1358.9588 0.000736 1319.3420 1350.9002
1338.6316 0.000747 1319.4076 1355.8598
1328.8398 0.000753 1319.4733 1361.4322
1366.8729 0.000732 1319.5389 1367.5394
1385.4216 0.000722 1319.6045 1374.0352
1386.1013 0.000721 1319.6701 1380.5201
1424.5286 0.000702 1319.7357 1387.0110
1413.8132 0.000707 1319.8014 1392.8147
1373.7010 0.000728 1319.8670 1397.7435
1368.1120 0.000731 1319.9326 1401.3136
1375.0827 0.000727 1319.9982 1403.3227
1459.8535 0.000685 1320.0639 1403.7754
1390.0401 0.000719 1320.1295 1402.7484
1442.1678 0.000693 1320.1951 1400.6114
1365.2832 0.000732 1320.2607 1397.6012
1324.2243 0.000755 1320.3263 1393.8108
1424.3188 0.000702 1320.3920 1389.3627
1366.3344 0.000732 1320.4576 1384.4011
1379.1916 0.000725 1320.5232 1379.1215
1367.4963 0.000731 1320.5888 1373.7582
1371.0105 0.000729 1320.6545 1368.5424
1281.2663 0.000780 1320.7201 1363.6632
1293.3059 0.000773 1321.1100 1359.5736
1345.6359 0.000743 1321.4998 1356.0198
1398.9425 0.000715 1321.8897 1353.0252
1416.2983 0.000706 1322.2796 1350.5798
1349.7467 0.000741 1322.6695 1348.6515
1336.1600 0.000748 1323.0594 1347.1948
1337.6746 0.000748 1323.4492 1346.1573
1349.6848 0.000741 1323.8391 1345.4845
1353.6639 0.000739 1324.2290 1345.1235
1393.8058 0.000717 1324.6189 1345.0254
1368.9352 0.000730 1325.0088 1345.1473
1341.4012 0.000745 1325.3986 1345.4526
1353.4256 0.000739 1325.7885 1345.9116
1409.3912 0.000710 1326.1784 1346.5012
1377.7550 0.000726 1326.5683 1347.2041
1338.7221 0.000747 1326.9582 1348.0083
1321.4621 0.000757 1327.3480 1348.9058
1319.0000 0.000758 1327.7379 1349.8923
1359.2634 0.000736 1328.1278 1350.9663
1389.0650 0.000720 1328.5177 1352.1288
1356.4033 0.000737 1328.9076 1353.3826
1269.6657 0.000788 1329.2974 1354.7323
1389.0535 0.000720 1329.6873 1356.1841
1385.4039 0.000722 1330.0772 1357.7462
1321.3308 0.000757 1330.4671 1359.4280
1354.1951 0.000738 1330.8570 1361.2415
1414.0349 0.000707 1331.2468 1363.2010
1370.7503 0.000730 1331.6367 1365.3239
1365.9001 0.000732 1332.0266 1367.6319
1387.6218 0.000721 1332.4165 1370.1523
1389.9070 0.000719 1332.8064 1372.9202
1436.0048 0.000696 1333.1962 1375.9814
1399.3185 0.000715 1333.5861 1379.3966
1385.5305 0.000722 1333.9760 1383.2472
1383.7123 0.000723 1334.3659 1387.6422
1394.3984 0.000717 1334.7558 1392.7273
1371.4971 0.000729 1335.1456 1398.6956
1409.7825 0.000709 1335.5355 1405.7994
1427.2557 0.000701 1335.9254 1414.3616
1460.9656 0.000684 1336.3153 1424.7870
1418.9950 0.000705 1336.7052 1437.5689
1472.4125 0.000679 1337.0950 1453.2906
1471.7988 0.000679 1337.4849 1472.6172
1563.4418 0.000640 1337.8748 1496.2765
1612.9816 0.000620 1338.1859 1524.9453
1612.8676 0.000620 1338.4970 1559.4349
1594.1977 0.000627 1338.8080 1600.3854
1692.8128 0.000591 1339.1191 1648.2542
1663.8314 0.000601 1339.4302 1703.2077
1797.6788 0.000556 1339.7413 1764.9978
1989.2946 0.000503 1340.0523 1832.8381
2045.0203 0.000489 1340.3634 1905.3049
2134.1716 0.000469 1340.6745 1980.2881
2111.3399 0.000474 1340.9856 2055.0024
2102.1837 0.000476 1341.2966 2126.0650
2228.1075 0.000449 1341.6077 2189.6985
2357.5346 0.000424 1341.9188 2242.1430
2330.6988 0.000429 1342.2299 2280.2390
2330.8448 0.000429 1342.5409 2301.9619
2344.0875 0.000427 1342.8520 2306.6918
2288.1601 0.000437 1343.1631 2295.1598
2304.4300 0.000434 1343.4742 2269.1140
2275.5396 0.000439 1343.7853 2230.8048
2193.7057 0.000456 1344.0963 2182.5193
2166.6825 0.000462 1344.4074 2126.3791
2111.9342 0.000473 1344.7185 2064.3938
2035.8905 0.000491 1345.0296 1998.6012
1972.8798 0.000507 1345.3406 1931.1442
1907.6446 0.000524 1345.6517 1864.2168
1856.8958 0.000539 1345.9628 1799.8769
1737.6962 0.000575 1346.2739 1739.8149
1647.8266 0.000607 1346.5849 1685.1997
1614.4549 0.000619 1346.8960 1636.6579
1591.8551 0.000628 1347.2071 1594.3533
1565.6375 0.000639 1347.5182 1558.1058
1557.9594 0.000642 1347.8292 1527.5058
1540.7870 0.000649 1348.1403 1502.0070
1518.6919 0.000658 1348.4514 1480.9962
1502.3231 0.000666 1348.7625 1463.8445
1458.4525 0.000686 1349.0735 1449.9440
1456.1937 0.000687 1349.3846 1438.7330
1456.8061 0.000686 1349.6957 1429.7114
1443.3866 0.000693 1350.0068 1422.4489
1465.5349 0.000682 1350.3179 1416.5854
1450.8025 0.000689 1350.6289 1411.8282
1421.7240 0.000703 1350.9400 1407.9449
1401.9007 0.000713 1351.2511 1404.7553
1365.4291 0.000732 1351.5622 1402.1219
1411.0807 0.000709 1351.8732 1399.9417
1463.5469 0.000683 1352.1843 1398.1385
1424.7913 0.000702 1352.4954 1396.6563
1366.9202 0.000732 1352.8065 1395.4544
1375.7415 0.000727 1353.1175 1394.5039
1432.9361 0.000698 1353.4286 1393.7842
1427.6740 0.000700 1353.7397 1393.2822
1420.1946 0.000704 1354.0508 1392.9906
1401.5340 0.000714 1354.3618 1392.9081
1406.1823 0.000711 1354.6729 1393.0396
1410.1650 0.000709 1354.9840 1393.3977
1409.0689 0.000710 1355.2951 1394.0044
1382.3339 0.000723 1355.6061 1394.8940
1361.1675 0.000735 1355.9172 1396.1171
1356.1893 0.000737 1356.2283 1397.7450
1379.1849 0.000725 1356.5394 1399.8749
1383.4552 0.000723 1356.8504 1402.6354
1363.4040 0.000733 1357.1615 1406.1910
1357.5704 0.000737 1357.4726 1410.7452
1451.6749 0.000689 1357.7837 1416.5404
1485.7062 0.000673 1358.0948 1423.8532
1443.5027 0.000693 1358.4058 1432.9847
1429.0820 0.000700 1358.7169 1444.2439
1480.5910 0.000675 1359.0280 1457.9256
1502.9335 0.000665 1359.3391 1474.2807
1484.3449 0.000674 1359.6501 1493.4829
1539.0025 0.000650 1359.9612 1515.5883
1565.3305 0.000639 1360.2723 1540.4888
1538.6696 0.000650 1360.5834 1567.8542
1586.8089 0.000630 1360.8944 1597.0614
1597.3142 0.000626 1361.2055 1627.1181
1620.7127 0.000617 1361.5166 1656.6139
1656.7403 0.000604 1361.8277 1683.7735
1710.1737 0.000585 1362.1387 1706.6948
1776.4985 0.000563 1362.4498 1723.7741
1830.6770 0.000546 1362.7609 1734.1395
1835.9576 0.000545 1363.0720 1737.8070
1778.0551 0.000562 1363.3830 1735.4399
1795.3273 0.000557 1363.6941 1727.9020
1830.9426 0.000546 1364.0052 1715.9134
1797.2760 0.000556 1364.3163 1699.9727
1792.4505 0.000558 1364.6273 1680.5039
1806.3669 0.000554 1364.9384 1658.0719
1760.2394 0.000568 1365.2495 1633.4964
1746.0421 0.000573 1365.4818 1607.7061
1749.5583 0.000572 1365.7140 1581.7983
1700.7732 0.000588 1365.9463 1556.6288
1671.4650 0.000598 1366.1786 1532.9017
1687.2388 0.000593 1366.4109 1511.0099
1622.4872 0.000616 1366.6431 1491.3408
1583.6489 0.000631 1366.8754 1473.9679
1602.9901 0.000624 1367.1077 1458.8897
1552.8954 0.000644 1367.3399 1446.0054
1519.0294 0.000658 1367.5722 1435.1360
1485.6560 0.000673 1367.8045 1426.0626
1470.4896 0.000680 1368.0368 1418.6013
1476.2482 0.000677 1368.2690 1412.4937
1514.9001 0.000660 1368.5013 1407.5204
1518.1000 0.000659 1368.7336 1403.4810
1476.0632 0.000677 1368.9658 1400.1992
1456.4608 0.000687 1369.1981 1397.5248
1455.8172 0.000687 1369.4304 1395.3327
1463.8573 0.000683 1369.6627 1393.5216
1410.8948 0.000709 1369.8949 1392.0110
1375.4855 0.000727 1370.1272 1390.7383
1394.2797 0.000717 1370.3595 1389.6550
1411.0024 0.000709 1370.5918 1388.7243
1358.2754 0.000736 1370.8240 1387.9183
1402.5774 0.000713 1371.0563 1387.2157
1429.7204 0.000699 1371.2886 1386.6002
1425.7385 0.000701 1371.5208 1386.0591
1398.2353 0.000715 1371.7531 1385.5826
1334.9195 0.000749 1371.9854 1385.1626
1379.5689 0.000725 1372.2177 1384.7927
1387.3231 0.000721 1372.4499 1384.4674
1365.3844 0.000732 1372.6822 1384.1821
1403.1173 0.000713 1372.9145 1383.9328
1384.9911 0.000722 1373.1467 1383.7161
1343.9744 0.000744 1373.3790 1383.5289
1401.0477 0.000714 1373.6113 1385.4203
1429.9262 0.000699 1373.8436 1385.3110
1388.8200 0.000720 1374.0758 1385.2247
1396.9413 0.000716 1374.3081 1385.1595
1420.6695 0.000704 1374.5404 1385.1137
1337.2791 0.000748 1374.7726 1388.7911
1358.6146 0.000736 1375.0049 1388.8278
1372.0000 0.000729 1375.2372 1390.0271
1383.5871 0.000723 1375.4695 1391.1387
1392.4108 0.000718 1375.7924 1391.3403
1367.8585 0.000731 1376.1154 1391.5560
1369.6421 0.000730 1376.4384 1391.7849
1395.8733 0.000716 1376.7614 1393.8598
1379.4573 0.000725 1377.0844 1394.1367
1364.2555 0.000733 1377.4074 1394.9925
1384.4106 0.000722 1377.7304 1395.2998
1395.2840 0.000717 1378.0533 1395.6180
1386.1492 0.000721 1378.3763 1395.9469
1346.3373 0.000743 1378.6993 1396.2859
1351.2639 0.000740 1379.0223 1396.6348
1385.2270 0.000722 1379.3453 1396.9934
1368.9285 0.000730 1379.6683 1397.3613
1393.2783 0.000718 1379.9913 1397.7384
1356.2280 0.000737 1380.3142 1398.1244
1333.4895 0.000750 1380.6372 1398.5192
1372.4990 0.000729 1380.9602 1398.9226
1388.0146 0.000720 1381.2832 1399.3346
1384.2961 0.000722 1381.6062 1399.7549
1367.0086 0.000732 1381.9292 1400.1836
1388.0187 0.000720 1382.2522 1400.6205
1429.4536 0.000700 1382.5751 1401.0657
1382.8473 0.000723 1382.8981 1401.5190
1377.2801 0.000726 1383.2211 1401.9805
1356.6146 0.000737 1383.5441 1402.4503
1384.3958 0.000722 1383.8671 1402.9282
1365.4866 0.000732 1384.1901 1403.3161
1366.5416 0.000732 1384.5131 1403.8118
1365.2494 0.000732 1384.8360 1404.3159
1324.1829 0.000755 1385.1590 1404.8284
1328.2993 0.000753 1385.4820 1405.0482
1372.5124 0.000729 1385.8050 1405.3830
1404.4674 0.000712 1386.1280 1405.9278
1407.7217 0.000710 1386.4510 1406.0744
1324.5749 0.000755 1386.7740 1406.6423
1400.0621 0.000714 1387.0969 1407.2192
1393.3260 0.000718 1387.4199 1407.8052
1362.5381 0.000734 1387.7429 1408.2500
1370.6606 0.000730 1388.0659 1408.7576
1339.3712 0.000747 1388.3889 1409.3756
1375.9551 0.000727 1388.7119 1409.8246
1392.3983 0.000718 1389.0349 1410.4652
1441.5263 0.000694 1389.3578 1411.1162
1391.6672 0.000719 1389.6808 1411.7781
1369.5323 0.000730 1389.9195 1412.3667
1377.8500 0.000726 1390.1581 1412.9667
1399.8687 0.000714 1390.3968 1413.5785
1396.3844 0.000716 1390.6355 1414.2025
1368.8755 0.000731 1390.8741 1414.8390
1376.8997 0.000726 1391.1128 1415.4885
1365.2571 0.000732 1391.3514 1416.1515
1401.5970 0.000713 1391.5901 1416.8283
1384.9942 0.000722 1391.8288 1417.5196
1404.5681 0.000712 1392.0674 1418.2257
1365.0848 0.000733 1392.3061 1418.9473
1401.8717 0.000713 1392.5448 1419.6849
1379.8121 0.000725 1392.7834 1420.4391
1410.1882 0.000709 1393.0221 1421.2107
1367.4054 0.000731 1393.2607 1422.0536
1387.4173 0.000721 1393.4994 1422.8626
1386.4685 0.000721 1393.7381 1423.6909
1393.6112 0.000718 1393.9767 1424.5396
1361.1648 0.000735 1394.2154 1425.4094
1364.5715 0.000733 1394.4540 1426.3012
1406.7665 0.000711 1394.6927 1427.2160
1383.9916 0.000723 1394.9314 1428.1547
1400.0371 0.000714 1395.1700 1429.1452
1406.0474 0.000711 1395.4087 1430.1356
1410.7668 0.000709 1395.6474 1431.1533
1394.4107 0.000717 1395.8860 1432.1996
1387.0825 0.000721 1396.1247 1433.2760
1413.6712 0.000707 1396.3633 1434.3837
1404.3828 0.000712 1396.6020 1435.5244
1407.6986 0.000710 1396.8407 1436.6997
1419.6515 0.000704 1397.0793 1437.9112
1430.8304 0.000699 1397.3180 1439.1609
1390.7229 0.000719 1397.5566 1440.4506
1396.6708 0.000716 1397.7953 1441.7824
1416.0154 0.000706 1398.0340 1443.1585
1443.3004 0.000693 1398.2726 1444.5813
1417.0203 0.000706 1398.5113 1446.0534
1429.5320 0.000700 1398.7499 1447.5773
1460.5763 0.000685 1398.9886 1449.1561
1428.0000 0.000700 1399.2273 1450.7928
1429.9125 0.000699 1399.4659 1452.4907
1436.7093 0.000696 1399.7046 1454.2534
1415.7653 0.000706 1399.9433 1456.0847
1409.8064 0.000709 1400.1819 1457.9888
1466.9296 0.000682 1400.3356 1459.8850
1423.4695 0.000703 1400.4892 1461.8632
1470.4196 0.000680 1400.6428 1463.9284
1444.1670 0.000692 1400.7965 1466.0863
1379.6562 0.000725 1400.9501 1468.3429
1399.4745 0.000715 1401.1038 1470.7047
1458.5405 0.000686 1401.2574 1473.1787
1445.7497 0.000692 1401.4111 1475.7727
1430.7492 0.000699 1401.5647 1478.4950
1479.1195 0.000676 1401.7183 1481.3546
1491.9259 0.000670 1401.8720 1484.0471
1476.6420 0.000677 1402.0256 1487.2160
1468.4000 0.000681 1402.1793 1490.5547
1432.8399 0.000698 1402.3329 1494.0760
1480.7675 0.000675 1402.4866 1497.7492
1444.7590 0.000692 1402.6402 1501.6803
1494.0138 0.000669 1402.7938 1505.8410
1510.5867 0.000662 1402.9475 1510.0925
1510.7242 0.000662 1403.1011 1514.7729
1535.7693 0.000651 1403.2548 1519.7455
1466.1002 0.000682 1403.4084 1525.0361
1521.8691 0.000657 1403.5621 1530.6506
1506.3986 0.000664 1403.7157 1536.6659
1562.8335 0.000640 1403.8693 1543.0947
1583.6928 0.000631 1404.0230 1549.9766
1601.8361 0.000624 1404.1766 1557.3562
1599.8414 0.000625 1404.3303 1565.2838
1595.7777 0.000627 1404.4839 1573.8162
1569.2219 0.000637 1404.6376 1583.0224
1579.9137 0.000633 1404.7912 1592.9696
1679.5001 0.000595 1404.9448 1603.7485
1632.7255 0.000612 1405.0985 1615.4713
1651.9868 0.000605 1405.2521 1628.2419
1779.1806 0.000562 1405.4058 1642.2234
1693.0565 0.000591 1405.5594 1657.6019
1760.3820 0.000568 1405.7131 1674.6104
1787.6302 0.000559 1405.8667 1693.5634
1856.8456 0.000539 1406.0203 1714.8695
1925.7454 0.000519 1406.1740 1739.0633
1841.7396 0.000543 1406.3276 1766.8642
1880.0064 0.000532 1406.4813 1799.2032
1912.3061 0.000523 1406.6349 1837.3147
2137.9871 0.000468 1406.7886 1882.7767
2088.4946 0.000479 1406.9422 1937.5911
2194.0018 0.000456 1407.0958 2004.2236
2383.8883 0.000419 1407.2495 2085.6541
2518.2552 0.000397 1407.4031 2185.3699
2607.0692 0.000384 1407.5568 2307.3247
2780.9228 0.000360 1407.7104 2455.8353
2927.0762 0.000342 1407.8641 2635.4084
3314.8171 0.000302 1408.0177 2850.4870
3308.5462 0.000302 1408.1713 3105.1076
3748.0819 0.000267 1408.3250 3402.4600
4157.9109 0.000241 1408.4786 3744.3335
4422.0288 0.000226 1408.6323 4130.4401
4864.8343 0.000206 1408.7859 4557.6249
5302.6626 0.000189 1408.9396 5019.0622
5981.6590 0.000167 1409.0932 5503.6879
6278.1925 0.000159 1409.2468 5996.2743
6934.2081 0.000144 1409.4005 6478.4580
7250.4064 0.000138 1409.5541 6930.4886
7741.0279 0.000129 1409.7078 7332.8335
8276.9710 0.000121 1409.8614 7667.0272
8498.7790 0.000118 1410.0151 7916.4043
8503.0000 0.000118 1410.1687 8067.9404
8617.0996 0.000116 1410.3224 8115.0608
8552.8946 0.000117 1410.4760 8059.5494
8489.8980 0.000118 1410.6296 7910.9514
8181.3965 0.000122 1410.7833 7683.6995
7759.1438 0.000129 1410.9369 7393.4364
7416.0038 0.000135 1411.0906 7054.0603
7029.8725 0.000142 1411.2442 6676.5871
6731.8244 0.000149 1411.3979 6270.0688
6205.8241 0.000161 1411.5515 5843.5874
5909.9110 0.000169 1411.7051 5407.6729
5440.7101 0.000184 1411.8588 4974.1651
4949.6952 0.000202 1412.0124 4554.8378
4642.8748 0.000215 1412.1661 4159.7857
4226.2817 0.000237 1412.3197 3796.3691
3960.9118 0.000252 1412.4734 3468.9472
3648.5493 0.000274 1412.6270 3179.2042
3339.8555 0.000299 1412.7806 2926.7453
3130.2430 0.000319 1412.9343 2709.7127
2935.2021 0.000341 1413.0879 2525.3091
2720.3836 0.000368 1413.2416 2370.2016
2551.8979 0.000392 1413.3952 2240.8249
2521.5359 0.000397 1413.5489 2133.6054
2360.5303 0.000424 1413.7025 2045.1244
2251.8762 0.000444 1413.7711 1972.1473
2154.6180 0.000464 1413.8397 1911.9495
2157.8103 0.000463 1413.9084 1862.1190
2112.8033 0.000473 1413.9770 1820.5592
2024.9104 0.000494 1414.0456 1785.6040
2016.9005 0.000496 1414.1142 1755.8857
1986.4745 0.000503 1414.1829 1730.3304
1924.8159 0.000520 1414.2515 1708.1068
1860.8818 0.000537 1414.3201 1688.5580
1913.6168 0.000523 1414.3887 1671.2112
1880.1918 0.000532 1414.4574 1655.6760
1831.6612 0.000546 1414.5260 1641.6568
1717.5391 0.000582 1414.5946 1628.9430
1716.1869 0.000583 1414.6632 1617.3626
1747.7996 0.000572 1414.7319 1606.7754
1678.6017 0.000596 1414.8005 1597.0720
1712.4271 0.000584 1414.8691 1588.1651
1664.2876 0.000601 1414.9377 1579.9744
1692.3628 0.000591 1415.0064 1572.4490
1614.2781 0.000619 1415.0750 1565.5270
1652.6266 0.000605 1415.1436 1559.1768
1584.6580 0.000631 1415.2122 1553.3705
1591.6674 0.000628 1415.2809 1548.0900
1563.4598 0.000640 1415.3495 1543.3263
1599.6386 0.000625 1415.4181 1539.0795
1552.7857 0.000644 1415.4867 1535.3568
1590.2881 0.000629 1415.5554 1532.1719
1551.8614 0.000644 1415.6240 1529.5415
1525.3791 0.000656 1415.6926 1527.4834
1604.8059 0.000623 1415.7612 1526.0119
1593.4861 0.000628 1415.8299 1525.1341
1617.0880 0.000618 1415.8985 1524.8450
1558.3836 0.000642 1415.9671 1525.1221
1564.8179 0.000639 1416.0357 1525.9193
1620.8539 0.000617 1416.1044 1527.1589
1595.0816 0.000627 1416.1730 1528.7232
1548.5662 0.000646 1416.2416 1530.4447
1556.3014 0.000643 1416.3102 1532.1036
1533.1907 0.000652 1416.3789 1533.4390
1552.9115 0.000644 1416.4475 1534.1865
1523.4892 0.000656 1416.5161 1534.1370
1480.4110 0.000675 1416.5847 1533.1943
1581.8365 0.000632 1416.6534 1531.3949
1553.0660 0.000644 1416.7220 1528.8739
1538.2036 0.000650 1416.7049 1525.7140
1564.9864 0.000639 1416.6878 1522.1409
1494.4771 0.000669 1416.6707 1518.2380
1461.3859 0.000684 1416.6536 1514.0396
1568.7854 0.000637 1416.6365 1509.5644
1566.8952 0.000638 1416.6195 1504.8537
1567.3645 0.000638 1416.6024 1499.9905
1509.3390 0.000663 1416.5853 1495.0926
1528.4267 0.000654 1416.5682 1490.2862
1508.8777 0.000663 1416.5511 1485.6817
1518.4728 0.000659 1416.5340 1481.3592
1522.4659 0.000657 1416.5169 1477.3675
1496.0118 0.000668 1416.4998 1473.7286
1485.7149 0.000673 1416.4828 1470.4446
1507.0116 0.000664 1416.4657 1467.5034
1571.4828 0.000636 1416.4486 1464.8838
1520.6611 0.000658 1416.4315 1462.5587
1501.7551 0.000666 1416.4144 1460.4980
1446.1257 0.000692 1416.3973 1458.6703
1451.6073 0.000689 1416.3802 1457.0450
1445.8828 0.000692 1416.3631 1455.5929
1451.3647 0.000689 1416.3461 1454.2876
1488.9328 0.000672 1416.3290 1453.1058
1462.0449 0.000684 1416.3119 1452.0275
1461.1820 0.000684 1416.2948 1451.0360
1425.1389 0.000702 1416.2777 1450.1176
1390.3712 0.000719 1416.2606 1449.2616
1375.7567 0.000727 1416.2435 1448.4594
1406.9178 0.000711 1416.2264 1447.7043
1435.8177 0.000696 1416.2094 1446.9915
1435.5531 0.000697 1416.1923 1446.3170
1455.8368 0.000687 1416.1752 1445.6781
1506.9478 0.000664 1416.1581 1445.0730
1444.6691 0.000692 1416.1410 1444.5004
1467.7457 0.000681 1416.1239 1443.9600
1467.0989 0.000682 1416.1068 1443.4520
1421.2845 0.000704 1416.0897 1442.9775
1468.7872 0.000681 1416.0727 1442.5385
1480.0158 0.000676 1416.0556 1442.1383
1426.6161 0.000701 1416.0385 1441.7812
1409.4481 0.000709 1416.0214 1441.4731
1442.6001 0.000693 1416.0043 1441.2214
1404.3096 0.000712 1415.9872 1441.0353
1412.7178 0.000708 1415.9701 1440.9253
1432.0737 0.000698 1415.9184 1440.8686
1413.7115 0.000707 1415.8666 1440.9126
1439.0279 0.000695 1415.8148 1441.0703
1482.1669 0.000675 1415.7631 1441.3539
1436.1917 0.000696 1415.7113 1441.7738
1455.5893 0.000687 1415.6596 1442.3372
1402.4362 0.000713 1415.6078 1443.0464
1460.0596 0.000685 1415.5560 1443.8970
1488.9568 0.000672 1415.5043 1444.8756
1460.3169 0.000685 1415.4525 1445.9572
1454.2613 0.000688 1415.4007 1447.1037
1442.3585 0.000693 1415.3490 1448.2633
1437.5877 0.000696 1415.2972 1449.3724
1413.2298 0.000708 1415.2455 1450.3613
1409.2654 0.000710 1415.1937 1451.1621
1406.0552 0.000711 1415.1419 1451.7186
1421.9962 0.000703 1415.0902 1451.9938
1458.7096 0.000686 1415.0384 1451.9745
1433.2526 0.000698 1414.9867 1451.6686
1400.5764 0.000714 1414.9349 1451.1002
1427.5298 0.000701 1414.8831 1450.3019
1470.0474 0.000680 1414.8314 1449.3086
1473.4560 0.000679 1414.7796 1448.1530
1453.4136 0.000688 1414.7278 1446.8641
1449.3043 0.000690 1414.6761 1445.4691
1418.3275 0.000705 1414.6243 1443.9960
1386.0279 0.000721 1414.5726 1442.4751
1434.8338 0.000697 1414.5208 1440.9393
1456.4987 0.000687 1414.4690 1439.4218
1423.5395 0.000702 1414.4173 1437.9542
1393.6268 0.000718 1414.3655 1436.5629
1399.5016 0.000715 1414.3138 1435.2681
1428.3999 0.000700 1414.2620 1434.0818
1433.3186 0.000698 1414.2102 1433.0092
1407.4128 0.000711 1414.1585 1432.0501
1459.1657 0.000685 1414.1067 1431.3431
1473.3594 0.000679 1414.0549 1430.5956
1396.6216 0.000716 1414.0032 1429.9405
1394.9620 0.000717 1413.9514 1429.3678
1481.7856 0.000675 1413.8997 1428.8722
1436.7380 0.000696 1413.8479 1428.4350
1394.4895 0.000717 1413.7961 1426.0305
1395.9944 0.000716 1413.7444 1425.7192
1428.6990 0.000700 1413.6926 1425.4468
1435.9242 0.000696 1413.7017 1425.3401
1396.6757 0.000716 1413.7107 1421.5464
1423.6010 0.000702 1413.7198 1421.4678
1427.2175 0.000701 1413.7289 1420.2802
1425.4828 0.000702 1413.7379 1420.2590
1462.1860 0.000684 1413.7470 1419.2407
1462.7259 0.000684 1413.7560 1419.2719
1404.4020 0.000712 1413.7651 1419.3169
1429.1993 0.000700 1413.7742 1419.3824
1465.2626 0.000682 1413.7832 1417.6532
1423.2587 0.000703 1413.7923 1417.7919
1415.9647 0.000706 1413.8014 1417.3987
1434.7654 0.000697 1413.8104 1417.6158
1465.3410 0.000682 1413.8195 1417.8814
1458.5993 0.000686 1413.8285 1418.2069
1436.2148 0.000696 1413.8376 1418.6067
1484.0615 0.000674 1413.8467 1419.0973
1452.7722 0.000688 1413.8557 1419.6981
1395.2425 0.000717 1413.8648 1420.4304
1420.3458 0.000704 1413.8738 1421.3167
1427.3617 0.000701 1413.8829 1422.3802
1441.7460 0.000694 1413.8920 1423.6429
1445.8992 0.000692 1413.9010 1425.1247
1408.4949 0.000710 1413.9101 1426.8403
1437.7512 0.000696 1413.9192 1428.7980
1449.3958 0.000690 1413.9282 1430.9955
1440.5274 0.000694 1413.9373 1433.4169
1471.0000 0.000680 1413.9463 1436.0274
1455.9097 0.000687 1413.9554 1438.7694
1479.6975 0.000676 1413.9645 1441.5601
1497.9277 0.000668 1413.9735 1444.2956
1493.0662 0.000670 1413.9826 1446.8640
1521.2372 0.000657 1413.9916 1449.1658
1505.2218 0.000664 1414.0007 1451.1329
1443.3383 0.000693 1414.0098 1452.7333
1416.9155 0.000706 1414.0188 1453.9590
1463.3914 0.000683 1414.0279 1454.8050
1471.9363 0.000679 1414.0370 1455.2530
1437.0986 0.000696 1414.0460 1455.2703
1429.9149 0.000699 1414.0551 1454.8242
1430.0905 0.000699 1414.0641 1453.9040
1441.2064 0.000694 1414.0732 1452.5379
1452.4046 0.000689 1414.0823 1450.7949
1448.8935 0.000690 1414.0913 1448.7695
1420.6907 0.000704 1414.1004 1446.5588
1425.0513 0.000702 1414.1094 1444.2438
1487.5298 0.000672 1414.1185 1441.8830
1458.7008 0.000686 1414.1276 1439.5161
1437.8056 0.000696 1414.1366 1437.1742
1452.2792 0.000689 1414.1457 1434.8883
1449.8138 0.000690 1414.1548 1432.6945
1471.3491 0.000680 1414.1638 1430.6235
1440.7637 0.000694 1414.1729 1428.7075
1445.7994 0.000692 1414.1819 1426.9667
1452.9391 0.000688 1414.1910 1425.4114
1464.3644 0.000683 1414.2001 1424.0419
1424.5081 0.000702 1414.2091 1422.8513
1420.7102 0.000704 1414.2182 1421.8274
1458.4777 0.000686 1414.2272 1420.9554
1418.6867 0.000705 1414.2363 1420.2200
1387.9518 0.000720 1414.2454 1419.6024
1416.4398 0.000706 1414.2544 1419.0874
1483.4753 0.000674 1414.2635 1418.6600
1432.6630 0.000698 1414.2725 1418.3059
1371.6093 0.000729 1414.2816 1418.0130
1382.2529 0.000723 1414.2907 1417.7703
1407.7073 0.000710 1414.2997 1417.5687
1403.1615 0.000713 1414.3088 1417.3479
1409.8222 0.000709 1414.3179 1417.2075
1437.8304 0.000695 1414.3269 1417.0891
1384.7569 0.000722 1414.3360 1416.9886
1389.9729 0.000719 1414.3450 1416.9030
1420.8920 0.000704 1414.3541 1416.8298
1419.3667 0.000705 1414.3632 1416.7670
1425.8242 0.000701 1414.3722 1416.7131
1458.7646 0.000686 1414.3813 1416.6408
1503.3041 0.000665 1414.3903 1416.6020
1470.7715 0.000680 1414.3994 1416.5694
1402.9467 0.000713 1414.4085 1416.5424
1417.2600 0.000706 1414.4175 1416.5205
1422.8240 0.000703 1414.4266 1416.5034
1414.3093 0.000707 1414.4357 1416.4907
1403.0629 0.000713 1414.4447 1416.4821
1395.5597 0.000717 1414.4538 1416.4775
1427.1077 0.000701 1414.4628 1416.4765
1428.6020 0.000700 1414.4719 1416.4791
1407.6194 0.000710 1414.4810 1416.4850
1421.1206 0.000704 1414.4900 1416.4943
1405.5730 0.000711 1414.7612 1416.7688
1413.0561 0.000708 1415.0324 1417.0465
1420.5671 0.000704 1415.3036 1417.3273
1438.3086 0.000695 1415.5748 1417.6111
1420.5243 0.000704 1415.8459 1417.8979
1419.2660 0.000705 1416.1171 1418.1877
1423.9917 0.000702 1416.3883 1418.4806
1439.1077 0.000695 1416.6595 1418.7765
1474.3431 0.000678 1416.9307 1419.0756
1394.9732 0.000717 1417.2018 1419.3778
1452.3983 0.000689 1417.4730 1419.6832
1463.5411 0.000683 1417.7442 1419.9921
1421.4023 0.000704 1418.0154 1420.3043
1416.4665 0.000706 1418.2866 1420.6202
1437.0000 0.000696 1418.5577 1420.9398
1431.5544 0.000699 1418.8289 1421.2633
1429.6416 0.000699 1419.1001 1421.5910
1457.0311 0.000686 1419.3713 1421.9229
1438.0698 0.000695 1419.6425 1422.2594
1422.6951 0.000703 1419.9136 1422.6007
1455.4120 0.000687 1420.1848 1422.9471
1393.9411 0.000717 1420.4560 1423.2989
1404.1663 0.000712 1420.7272 1423.6566
1443.6972 0.000693 1420.9984 1424.0205
1406.3921 0.000711 1421.2696 1424.3911
1439.5814 0.000695 1421.5407 1424.7688
1421.3405 0.000704 1421.8119 1425.1542
1399.9084 0.000714 1422.0831 1425.5480
1399.8629 0.000714 1422.3543 1425.9508
1452.7236 0.000688 1422.6255 1426.3635
1462.2329 0.000684 1422.8966 1426.7868
1414.1708 0.000707 1423.1678 1427.2217
1420.8639 0.000704 1423.4390 1427.6694
1395.7316 0.000716 1423.7102 1428.1311
1375.5438 0.000727 1423.9814 1428.6081
1455.1723 0.000687 1424.2525 1429.1020
1413.6917 0.000707 1424.5237 1429.6148
1433.3198 0.000698 1424.7949 1430.1485
1483.2163 0.000674 1425.0661 1430.7058
1443.6527 0.000693 1425.3373 1431.2897
1397.3671 0.000716 1425.6084 1431.9039
1367.2462 0.000731 1425.8796 1432.5497
1440.0801 0.000694 1426.1508 1433.2407
1455.4061 0.000687 1426.4220 1433.9811
1430.0170 0.000699 1426.6136 1434.6925
1462.1394 0.000684 1426.8053 1435.4874
1382.6116 0.000723 1426.9969 1436.3719
1395.8649 0.000716 1427.1885 1437.3761
1456.4710 0.000687 1427.3802 1438.5240
1508.7846 0.000663 1427.5718 1439.8648
1445.2053 0.000692 1427.7634 1441.4419
1484.7600 0.000674 1427.9551 1443.3204
1466.7743 0.000682 1428.1467 1445.5660
1508.8516 0.000663 1428.3383 1448.2714
1442.4216 0.000693 1428.5300 1451.5227
1424.8627 0.000702 1428.7216 1455.4211
1531.6940 0.000653 1428.9132 1460.0621
1566.1056 0.000639 1429.1049 1465.5442
1479.9048 0.000676 1429.2965 1471.9465
1506.4961 0.000664 1429.4881 1479.3281
1453.9961 0.000688 1429.6798 1487.7165
1487.9261 0.000672 1429.8714 1497.0958
1546.4289 0.000647 1430.0630 1507.3932
1493.3629 0.000670 1430.2547 1518.4623
1563.6749 0.000640 1430.4463 1530.0637
1592.6759 0.000628 1430.6379 1541.8449
1619.6216 0.000617 1430.8296 1553.3300
1633.2005 0.000612 1431.0212 1563.9383
1507.4671 0.000663 1431.2128 1573.0501
1577.8497 0.000634 1431.4045 1580.1251
1591.6444 0.000628 1431.5961 1584.8339
1570.8629 0.000637 1431.7878 1587.1348
1578.2031 0.000634 1431.9794 1587.2460
1621.1143 0.000617 1432.1710 1585.5276
1556.0000 0.000643 1432.3627 1582.3435
1564.2206 0.000639 1432.5543 1578.3363
1622.7332 0.000616 1432.7459 1572.9164
1634.6366 0.000612 1432.9376 1566.5123
1629.9861 0.000614 1433.1292 1559.1654
1610.4840 0.000621 1433.3208 1550.9694
1578.8281 0.000633 1433.5125 1542.1110
1598.5700 0.000626 1433.7041 1532.8573
1577.3832 0.000634 1433.8957 1525.5253
1566.7331 0.000638 1434.0874 1516.3771
1590.5122 0.000629 1434.2790 1507.8145
1583.7248 0.000631 1434.4706 1499.6289
1482.6798 0.000674 1434.6623 1492.1075
1490.7000 0.000671 1434.8539 1485.3102
1507.7342 0.000663 1435.0455 1479.2613
1518.1187 0.000659 1435.2372 1473.9554
1546.1104 0.000647 1435.4288 1469.3640
1500.6441 0.000666 1435.6204 1465.4407
1457.2982 0.000686 1435.8121 1463.1424
1501.4511 0.000666 1436.0037 1460.3856
1448.2273 0.000690 1436.1953 1458.1066
1452.5349 0.000688 1436.3870 1456.2391
1471.5070 0.000680 1436.5786 1454.7207
1465.6098 0.000682 1436.7702 1453.4944
1473.8698 0.000678 1436.9619 1452.5097
1471.5007 0.000680 1437.1535 1451.7229
1463.5220 0.000683 1437.3451 1451.0972
1457.0274 0.000686 1437.5368 1450.6022
1471.0620 0.000680 1437.7284 1450.2129
1419.4826 0.000704 1437.9201 1449.9097
1410.4907 0.000709 1438.1117 1449.6768
1420.7424 0.000704 1438.3033 1449.5020
1432.8513 0.000698 1438.4950 1449.3760
1368.8454 0.000731 1438.6866 1449.2701
1479.0053 0.000676 1438.8782 1449.2219
1407.8226 0.000710 1439.0699 1449.2028
1508.3225 0.000663 1439.2615 1449.2156
1429.8177 0.000699 1439.4531 1449.2552
1422.3924 0.000703 1439.6448 1449.3140
1368.0540 0.000731 1439.8364 1449.4038
1447.8657 0.000691 1440.0280 1449.5179
1440.3837 0.000694 1440.2197 1449.6326
1362.1132 0.000734 1440.4113 1449.7959
1483.3101 0.000674 1440.6029 1449.9843
1435.6606 0.000697 1440.7946 1450.1966
1406.7922 0.000711 1440.9862 1450.4359
1384.2419 0.000722 1441.1778 1450.7008
1422.0924 0.000703 1441.3695 1450.9877
1446.9383 0.000691 1441.5611 1451.3015
1387.0985 0.000721 1441.7527 1451.6305
1435.7888 0.000696 1441.9444 1451.9845
1418.1256 0.000705 1442.1360 1452.3522
1422.9518 0.000703 1442.3276 1452.7270
1395.3449 0.000717 1442.5193 1453.1007
1439.3256 0.000695 1442.7109 1453.4637
1393.8298 0.000717 1442.9025 1453.8066
1438.0651 0.000695 1443.0942 1454.1216
1419.4599 0.000704 1443.2858 1454.4046
1506.6904 0.000664 1443.3979 1454.6654
1519.6884 0.000658 1443.5100 1454.8113
1440.5420 0.000694 1443.6221 1454.9362
1410.9427 0.000709 1443.7342 1455.0459
1382.0538 0.000724 1443.8463 1455.1453
1395.4149 0.000717 1443.9583 1455.2366
1404.6249 0.000712 1444.0704 1455.3208
1426.0244 0.000701 1444.1825 1455.3984
1401.2694 0.000714 1444.2946 1455.4702
1434.2114 0.000697 1444.4067 1455.5495
1422.7329 0.000703 1444.5188 1455.6627
1439.0096 0.000695 1444.6309 1455.7365
1505.9617 0.000664 1444.7430 1455.8191
1371.8727 0.000729 1444.8550 1455.9140
1486.6803 0.000673 1444.9671 1456.0239
1407.1755 0.000711 1445.0792 1456.1504
1464.3511 0.000683 1445.1913 1456.2944
1410.4752 0.000709 1445.3034 1456.4562
1345.7907 0.000743 1445.4155 1456.6409
1419.5083 0.000704 1445.5276 1456.8373
1490.4671 0.000671 1445.6397 1457.0500
1414.2723 0.000707 1445.7517 1457.2781
1399.6750 0.000714 1445.8638 1457.5209
1473.8620 0.000678 1445.9759 1457.7774
1457.3327 0.000686 1446.0880 1458.0468
1450.4619 0.000689 1446.2001 1458.3283
1450.0000 0.000690 1446.3122 1458.6214
1436.4659 0.000696 1446.4243 1458.9256
1470.0846 0.000680 1446.5364 1459.2403
1460.5459 0.000685 1446.6484 1459.5654
1441.1146 0.000694 1446.7605 1459.9008
1416.7100 0.000706 1446.8726 1460.2463
1400.6660 0.000714 1446.9847 1460.6020
1400.7725 0.000714 1447.0968 1460.9681
1423.9734 0.000702 1447.2089 1461.3448
1462.2369 0.000684 1447.3210 1461.7322
1485.4433 0.000673 1447.4331 1462.1308
1424.9579 0.000702 1447.5451 1462.5409
1483.2146 0.000674 1447.6572 1462.9629
1460.8008 0.000685 1447.7693 1463.3973
1430.8402 0.000699 1447.8814 1463.8445
1459.0016 0.000685 1447.9935 1464.3051
1441.5817 0.000694 1448.1056 1464.7797
1473.2424 0.000679 1448.2177 1465.2688
1436.1549 0.000696 1448.4621 1465.9056
1428.1458 0.000700 1448.7065 1466.5582
1438.2188 0.000695 1448.9509 1467.2276
1432.3599 0.000698 1449.1953 1467.9145
1488.5434 0.000672 1449.4397 1468.6199
1455.9786 0.000687 1449.6841 1469.3445
1514.4302 0.000660 1449.9286 1470.0895
1440.6634 0.000694 1450.1730 1470.8559
1410.6312 0.000709 1450.4174 1471.6449
1420.4932 0.000704 1450.6618 1472.4577
1496.8889 0.000668 1450.9062 1473.2955
1434.2109 0.000697 1451.1506 1474.1599
1368.5075 0.000731 1451.3950 1475.0524
1448.4426 0.000690 1451.6394 1475.9868
1441.7748 0.000694 1451.8839 1476.9406
1410.6771 0.000709 1452.1283 1477.9278
1448.9667 0.000690 1452.3727 1478.9504
1439.5233 0.000695 1452.6171 1480.0106
1427.7203 0.000700 1452.8615 1481.1109
1555.7968 0.000643 1453.1059 1482.2539
1518.7006 0.000658 1453.3503 1483.4511
1472.3684 0.000679 1453.5947 1484.6882
1427.4853 0.000701 1453.8392 1485.9772
1414.0224 0.000707 1454.0836 1487.3277
1397.1431 0.000716 1454.3280 1488.7316
1430.9285 0.000699 1454.5724 1490.1992
1478.8004 0.000676 1454.8168 1491.7351
1518.8239 0.000658 1455.0612 1493.3446
1449.5651 0.000690 1455.3056 1495.0332
1438.9130 0.000695 1455.5500 1496.8071
1487.0563 0.000672 1455.7945 1498.6775
1440.3894 0.000694 1456.0389 1500.6432
1477.7761 0.000677 1456.2833 1502.7167
1533.2101 0.000652 1456.5277 1504.9072
1497.4983 0.000668 1456.7721 1507.2249
1506.6681 0.000664 1457.0165 1509.6811
1434.1140 0.000697 1457.2609 1512.2885
1479.5079 0.000676 1457.5053 1515.0613
1430.9848 0.000699 1457.7498 1518.0158
1453.1687 0.000688 1457.9942 1521.1703
1522.7604 0.000657 1458.2386 1524.5463
1532.7778 0.000652 1458.4830 1528.1687
1570.9643 0.000637 1458.7274 1532.0670
1570.8994 0.000637 1458.9718 1536.2768
1543.0765 0.000648 1459.1128 1540.7378
1596.1542 0.000627 1459.2538 1545.6071
1613.5952 0.000620 1459.3949 1550.9513
1552.0203 0.000644 1459.5359 1556.8546
1589.0321 0.000629 1459.6769 1563.4232
1570.3372 0.000637 1459.8179 1570.7918
1612.8762 0.000620 1459.9589 1579.1304
1614.0973 0.000620 1460.0999 1588.6524
1570.0943 0.000637 1460.2409 1599.6241
1670.4713 0.000599 1460.3819 1612.3740
1683.9250 0.000594 1460.5229 1627.3026
1668.8697 0.000599 1460.6639 1644.8918
1682.1488 0.000594 1460.8050 1665.7128
1736.6291 0.000576 1460.9460 1690.4313
1795.6155 0.000557 1461.0870 1719.8094
1860.2608 0.000538 1461.2280 1754.7009
1853.1295 0.000540 1461.3690 1795.8962
1979.8188 0.000505 1461.5100 1844.6718
2072.1141 0.000483 1461.6510 1901.8895
2033.6546 0.000492 1461.7920 1968.5164
2099.1913 0.000476 1461.9330 2045.3952
2247.2966 0.000445 1462.0741 2133.1598
2301.0845 0.000435 1462.2151 2232.0754
2381.6573 0.000420 1462.3561 2341.9768
2512.2067 0.000398 1462.4971 2462.1168
2698.9485 0.000371 1462.6381 2591.1302
2816.9153 0.000355 1462.7791 2727.4043
3018.5295 0.000331 1462.9201 2868.7873
3108.3295 0.000322 1463.0611 3012.9283
3297.0267 0.000303 1463.2021 3157.0277
3434.5420 0.000291 1463.3431 3297.4679
3597.1965 0.000278 1463.4842 3429.3041
3710.2435 0.000270 1463.6252 3546.3385
3761.6153 0.000266 1463.7662 3641.6358
3810.4361 0.000262 1463.9072 3708.7655
3826.0618 0.000261 1464.0482 3743.6737
3837.8677 0.000261 1464.1892 3745.7618
3793.1022 0.000264 1464.3302 3718.0670
3775.4848 0.000265 1464.4712 3666.0550
3717.1916 0.000269 1464.6122 3595.8773
3633.1797 0.000275 1464.7533 3512.8030
3476.2122 0.000288 1464.8943 3420.2853
3424.4674 0.000292 1465.0353 3319.9301
3342.7962 0.000299 1465.1763 3212.0687
3246.4341 0.000308 1465.2339 3096.6146
3119.5665 0.000321 1465.2915 2974.3754
3010.3647 0.000332 1465.3490 2847.2768
2924.8958 0.000342 1465.4066 2718.2602
2815.0260 0.000355 1465.4642 2590.7373
2677.9145 0.000373 1465.5218 2467.8834
2546.0659 0.000393 1465.5794 2352.2073
2441.2853 0.000410 1465.6370 2245.4058
2337.9253 0.000428 1465.6946 2148.4256
2201.9064 0.000454 1465.7522 2061.6123
2103.0888 0.000475 1465.8097 1984.8684
2084.5194 0.000480 1465.8673 1917.7852
2041.7997 0.000490 1465.9249 1859.7437
1973.7600 0.000507 1465.9825 1809.9899
1910.9968 0.000523 1466.0401 1767.6929
1893.8939 0.000528 1466.0977 1731.9914
1830.9014 0.000546 1466.1553 1702.0311
1793.2631 0.000558 1466.2129 1676.9960
1793.2422 0.000558 1466.2704 1656.1314
1751.1495 0.000571 1466.3280 1638.7602
1744.3341 0.000573 1466.3856 1624.2927
1733.5308 0.000577 1466.4432 1612.2299
1703.8604 0.000587 1466.5008 1602.1612
1657.8762 0.000603 1466.5584 1593.7594
1619.0724 0.000618 1466.6160 1586.7718
1619.7743 0.000617 1466.6736 1581.0102
1606.1051 0.000623 1466.7311 1576.3405
1581.2005 0.000632 1466.7887 1572.6715
1594.2501 0.000627 1466.8463 1569.9450
1563.6172 0.000640 1466.9039 1568.1258
1588.4934 0.000630 1466.9615 1567.1922
1613.3389 0.000620 1467.0191 1567.1280
1608.3917 0.000622 1467.0767 1567.9145
1612.6511 0.000620 1467.1343 1569.5225
1601.0000 0.000625 1467.1918 1571.9055
1592.5421 0.000628 1467.2494 1574.9890
1594.4671 0.000627 1467.3070 1578.6698
1634.9200 0.000612 1467.3646 1582.7930
1590.0735 0.000629 1467.4222 1587.1977
1576.9017 0.000634 1467.4798 1591.5254
1583.1714 0.000632 1467.5374 1595.5057
1527.1597 0.000655 1467.5949 1598.8861
1550.7152 0.000645 1467.6525 1601.2187
1605.7833 0.000623 1467.7101 1602.4775
1606.3300 0.000623 1467.7677 1602.4694
1600.5482 0.000625 1467.8253 1601.4328
1631.4725 0.000613 1467.8829 1599.6045
1615.7354 0.000619 1467.9405 1596.9640
1591.3723 0.000628 1467.9981 1593.8120
1596.1050 0.000627 1468.0556 1590.3000
1593.4201 0.000628 1468.1132 1586.2973
1540.6342 0.000649 1468.1708 1581.8752
1563.1514 0.000640 1468.2284 1576.9232
1598.6174 0.000626 1468.2860 1571.5367
1570.6743 0.000637 1468.3436 1565.7233
1615.7819 0.000619 1468.4012 1559.6671
1613.5150 0.000620 1468.4588 1553.5641
1572.8546 0.000636 1468.5163 1547.5967
1546.6639 0.000647 1468.5739 1541.7765
1574.6610 0.000635 1468.6315 1536.2832
1587.3673 0.000630 1468.6891 1531.1211
1553.1932 0.000644 1468.7467 1526.3368
1530.7599 0.000653 1468.8043 1521.9388
1523.6238 0.000656 1468.8619 1517.9276
1550.2438 0.000645 1468.9195 1514.2989
1535.0134 0.000651 1468.9770 1511.0431
1496.4588 0.000668 1469.0346 1508.1449
1487.3741 0.000672 1469.0922 1505.5829
1472.5243 0.000679 1469.1498 1503.3311
1498.4557 0.000667 1469.2074 1501.3603
1511.6383 0.000662 1469.2650 1499.6404
1513.7616 0.000661 1469.3226 1498.1417
1489.4164 0.000671 1469.3802 1496.8363
1450.0492 0.000690 1469.4377 1495.6986
1452.9153 0.000688 1469.4953 1494.7059
1450.4042 0.000689 1469.5529 1493.8386
1477.5307 0.000677 1469.6105 1493.0800
1448.2424 0.000690 1469.6681 1492.4166
1480.0692 0.000676 1469.7257 1491.8374
1468.6087 0.000681 1469.7833 1491.3344
1489.2597 0.000671 1469.8409 1490.9017
1554.6818 0.000643 1469.8984 1490.5359
1543.6477 0.000648 1469.9560 1490.2357
1491.3702 0.000671 1470.0136 1490.0017
1450.4303 0.000689 1470.0712 1489.8366
1470.0568 0.000680 1470.1288 1489.7444
1487.0952 0.000672 1470.1864 1489.7303
1473.1185 0.000679 1470.2440 1489.8008
1491.1576 0.000671 1470.2181 1489.8791
1460.3829 0.000685 1470.1923 1490.0557
1469.3818 0.000681 1470.1665 1490.3366
1466.2085 0.000682 1470.1406 1490.7269
1459.6235 0.000685 1470.1148 1491.2296
1430.9639 0.000699 1470.0890 1491.8449
1409.2379 0.000710 1470.0631 1492.5688
1425.8382 0.000701 1470.0373 1493.3922
1406.9724 0.000711 1470.0114 1494.2990
1437.1113 0.000696 1469.9856 1495.3419
1439.8376 0.000695 1469.9598 1496.3338
1482.7706 0.000674 1469.9339 1497.3095
1485.0463 0.000673 1469.9081 1498.2237
1500.4916 0.000666 1469.8823 1499.0342
1481.4444 0.000675 1469.8564 1499.7101
1496.5701 0.000668 1469.8306 1500.2362
1503.0226 0.000665 1469.8048 1500.6114
1497.6824 0.000668 1469.7789 1500.8413
1447.0000 0.000691 1469.7531 1500.9298
1464.8318 0.000683 1469.7273 1500.9119
1477.9705 0.000677 1469.7014 1500.7017
1451.2178 0.000689 1469.6756 1500.3268
1494.5395 0.000669 1469.6497 1499.7835
1467.6949 0.000681 1469.6239 1499.0799
1430.9277 0.000699 1469.5981 1498.2366
1504.0230 0.000665 1469.5722 1497.2845
1441.0568 0.000694 1469.5464 1496.2580
1483.1357 0.000674 1469.5206 1495.1895
1440.5029 0.000694 1469.4947 1494.1044
1449.2418 0.000690 1469.4689 1493.0198
1515.2597 0.000660 1469.4431 1491.9464
1477.1293 0.000677 1469.4172 1490.8920
1473.8455 0.000678 1469.3914 1489.8656
1477.0459 0.000677 1469.3656 1488.8782
1445.8534 0.000692 1469.3397 1487.9425
1450.0063 0.000690 1469.3139 1487.0703
1448.4787 0.000690 1469.2880 1486.2712
1467.6550 0.000681 1469.2622 1485.5510
1461.1436 0.000684 1469.2364 1484.9121
1454.2778 0.000688 1469.2105 1484.3543
1398.3476 0.000715 1469.1847 1483.8750
1436.8908 0.000696 1469.1589 1483.4704
1433.0306 0.000698 1469.1330 1483.1359
1489.1939 0.000672 1469.1072 1482.8667
1481.0715 0.000675 1469.1989 1482.7752
1501.9592 0.000666 1469.2906 1482.7396
1423.9425 0.000702 1469.3822 1482.7556
1423.3555 0.000703 1469.4739 1482.8199
1436.4762 0.000696 1469.5656 1482.9301
1442.6938 0.000693 1469.6573 1483.0848
1416.6410 0.000706 1469.7490 1483.2837
1447.0083 0.000691 1469.8406 1483.5283
1464.4251 0.000683 1469.9323 1483.8215
1505.6340 0.000664 1470.0240 1484.1686
1491.7322 0.000670 1470.1157 1484.5771
1410.4787 0.000709 1470.2074 1485.0576
1499.7948 0.000667 1470.2990 1485.6238
1511.5481 0.000662 1470.3907 1486.2931
1472.4062 0.000679 1470.4824 1487.0873
1528.4985 0.000654 1470.5741 1488.0323
1529.7576 0.000654 1470.6658 1489.1584
1433.8591 0.000697 1470.7574 1490.5059
1432.3106 0.000698 1470.8491 1492.1014
1474.1986 0.000678 1470.9408 1493.9910
1492.5049 0.000670 1471.0325 1496.2159
1441.9231 0.000694 1471.1242 1498.8161
1448.7890 0.000690 1471.2158 1501.8275
1437.9998 0.000695 1471.3075 1505.2791
1417.6875 0.000705 1471.3992 1508.8311
1473.4141 0.000679 1471.4909 1513.2073
1429.4089 0.000700 1471.5826 1518.0290
1453.1743 0.000688 1471.6743 1523.2550
1470.7746 0.000680 1471.7659 1528.8163
1510.6541 0.000662 1471.8576 1534.5996
1521.4483 0.000657 1471.9493 1540.4611
1501.6260 0.000666 1472.0410 1546.2174
1502.3961 0.000666 1472.1327 1549.6624
1520.8108 0.000658 1472.2243 1554.4022
1556.0000 0.000643 1472.3160 1558.5798
1552.4738 0.000644 1472.4077 1561.8445
1534.4372 0.000652 1472.4994 1564.0854
1530.9323 0.000653 1472.5911 1565.2826
1545.6241 0.000647 1472.6827 1565.4914
1517.8716 0.000659 1472.7744 1564.8280
1486.1852 0.000673 1472.8661 1563.4388
1495.6251 0.000669 1472.9578 1560.4659
1550.1340 0.000645 1473.0495 1558.0469
1468.8326 0.000681 1473.1411 1555.2507
1519.2843 0.000658 1473.1612 1552.0570
1518.8335 0.000658 1473.1813 1548.5701
1455.4621 0.000687 1473.2013 1544.8216
1523.2985 0.000656 1473.2214 1540.8570
1513.1568 0.000661 1473.2415 1536.7443
1410.1409 0.000709 1473.2615 1532.5720
1446.9059 0.000691 1473.2816 1528.4406
1481.2065 0.000675 1473.3017 1524.4502
1492.3107 0.000670 1473.3217 1520.6895
1434.6699 0.000697 1473.3418 1517.2286
1480.0000 0.000676 1473.3619 1514.1164
1481.8439 0.000675 1473.3819 1511.3825
1486.8223 0.000673 1473.4020 1509.0398
1431.8212 0.000698 1473.4221 1507.0896
1463.4031 0.000683 1473.4421 1505.5244
1429.4593 0.000700 1473.4622 1504.3316
1440.3425 0.000694 1473.4822 1503.4966
1442.8048 0.000693 1473.5023 1503.0045
1508.2085 0.000663 1473.5224 1502.8431
1512.4379 0.000661 1473.5424 1503.0045
1535.5825 0.000651 1473.5625 1503.4877
1545.9579 0.000647 1473.5826 1504.3002
1505.2865 0.000664 1473.6026 1505.4605
1479.2727 0.000676 1473.6227 1506.9996
1484.4705 0.000674 1473.6428 1508.9635
1508.3743 0.000663 1473.6628 1511.4139
1491.2487 0.000671 1473.6829 1514.4301
1503.2259 0.000665 1473.7030 1518.1093
1602.5628 0.000624 1473.7230 1522.5665
1523.7534 0.000656 1473.7431 1527.9337
1498.3832 0.000667 1473.7632 1534.3571
1531.9211 0.000653 1473.7832 1541.9934
1571.1338 0.000636 1473.8033 1551.0046
1572.6147 0.000636 1473.8234 1561.5504
1566.7538 0.000638 1473.8434 1573.7789
1564.3541 0.000639 1473.8635 1587.8148
1591.1146 0.000628 1473.8836 1603.7449
1676.1970 0.000597 1473.9036 1621.6011
1663.9838 0.000601 1473.9237 1641.3410
1698.3009 0.000589 1473.9437 1662.8274
1646.8667 0.000607 1473.9638 1685.8111
1690.2002 0.000592 1473.9839 1709.8327
1783.6785 0.000561 1474.0039 1734.5806
1776.4878 0.000563 1474.0240 1759.3754
1790.3941 0.000559 1474.0441 1783.5587
1830.6092 0.000546 1474.0641 1806.4439
1877.1406 0.000533 1474.0842 1827.3582
1817.5034 0.000550 1474.1043 1845.6806
1872.9429 0.000534 1474.1243 1860.8687
1910.2472 0.000523 1474.1444 1872.4761
1875.9812 0.000533 1474.1645 1880.1607
1874.7575 0.000533 1474.1845 1883.7150
1859.3385 0.000538 1474.2046 1883.2144
1811.2275 0.000552 1474.2247 1878.8105
1832.4653 0.000546 1474.2447 1870.8733
1888.8187 0.000529 1474.2648 1859.8857
1855.9322 0.000539 1474.2849 1846.3683
1832.0037 0.000546 1474.3049 1830.8167
1855.9397 0.000539 1474.3250 1813.6617
1805.2643 0.000554 1474.3451 1795.2543
1806.9843 0.000553 1474.3651 1775.8693
1805.0210 0.000554 1474.3852 1755.7552
1713.2266 0.000584 1474.4052 1735.1421
1769.0802 0.000565 1474.4253 1714.2962
1739.5743 0.000575 1474.4454 1693.5254
1686.1446 0.000593 1474.4654 1673.1636
1731.8545 0.000577 1474.4855 1653.5389
1701.8491 0.000588 1474.5056 1634.9409
1606.8327 0.000622 1474.5256 1617.5969
1626.2669 0.000615 1474.5457 1601.6613
1603.8290 0.000624 1474.5658 1587.2166
1578.9303 0.000633 1474.5858 1574.2829
1576.0798 0.000634 1474.6059 1562.8305
1570.2553 0.000637 1474.6260 1552.7930
1556.6330 0.000642 1474.6460 1544.0796
1578.8507 0.000633 1474.6661 1536.5839
1486.9544 0.000673 1474.6862 1530.1924
1599.4002 0.000625 1474.7062 1524.7904
1542.7448 0.000648 1474.7263 1520.2669
1586.0719 0.000630 1474.7464 1516.5185
1566.4695 0.000638 1474.7664 1513.4524
1476.0705 0.000677 1474.7865 1510.9885
1524.1390 0.000656 1474.8065 1509.3717
1562.4382 0.000640 1474.8266 1507.9322
1529.7325 0.000654 1474.8467 1506.9407
1508.4915 0.000663 1474.8667 1506.9949
1548.5240 0.000646 1474.8868 1506.8493
1517.9568 0.000659 1474.9069 1507.4371
1534.2658 0.000652 1474.8553 1508.0592
1545.1475 0.000647 1474.8038 1509.1159
1566.0657 0.000639 1474.7522 1510.6216
1524.3483 0.000656 1474.7007 1512.5893
1559.8966 0.000641 1474.6491 1515.7380
1535.0697 0.000651 1474.5976 1518.8051
1575.2673 0.000635 1474.5460 1522.1719
1549.4430 0.000645 1474.4945 1525.9595
1525.3905 0.000656 1474.4429 1530.1132
1581.9641 0.000632 1474.3914 1534.8629
1550.6987 0.000645 1474.3398 1539.6275
1559.3209 0.000641 1474.2883 1544.2420
1596.4156 0.000626 1474.2367 1548.6641
1605.4136 0.000623 1474.1852 1552.6620
1611.2803 0.000621 1474.1336 1555.9963
1572.5178 0.000636 1474.0821 1558.4478
1514.5172 0.000660 1474.0305 1560.2696
1507.0000 0.000664 1473.9790 1560.7147
1530.4731 0.000653 1473.9274 1560.2241
1542.6671 0.000648 1473.8759 1558.9598
1556.9606 0.000642 1473.8243 1557.1101
1559.8614 0.000641 1473.7728 1554.8446
1590.9132 0.000629 1473.7212 1552.2754
1537.7900 0.000650 1473.6697 1549.4819
1528.0000 0.000654 1473.6181 1546.4597
1564.5798 0.000639 1473.5666 1543.2010
1501.4621 0.000666 1473.5150 1539.6770
1507.5978 0.000663 1473.4635 1535.8901
1553.1343 0.000644 1473.4119 1531.8826
1625.6812 0.000615 1473.3604 1527.7347
1537.5183 0.000650 1473.3088 1523.5486
1546.3791 0.000647 1473.2573 1519.4279
1575.2963 0.000635 1473.2057 1515.4582
1527.7516 0.000655 1473.1542 1511.7165
1519.4800 0.000658 1473.1026 1508.2440
1537.3040 0.000650 1473.0511 1505.0669
1513.0747 0.000661 1472.9995 1502.1958
1486.5334 0.000673 1472.9480 1499.6297
1444.4642 0.000692 1472.8964 1497.3591
1453.0799 0.000688 1472.8449 1495.3686
1489.4263 0.000671 1472.7933 1493.6386
1497.8080 0.000668 1472.7418 1492.1469
1494.7787 0.000669 1472.6902 1490.8696
1547.7776 0.000646 1472.6387 1489.7828
1449.0026 0.000690 1472.4986 1488.7746
1462.4602 0.000684 1472.3585 1487.9115
1485.7143 0.000673 1472.2185 1487.1735
1539.6864 0.000649 1472.0784 1486.5430
1518.2706 0.000659 1471.9384 1486.0981
1524.7327 0.000656 1471.7983 1485.6759
1492.1535 0.000670 1471.6582 1485.2897
1429.6530 0.000699 1471.5182 1484.9668
1477.2903 0.000677 1471.3781 1484.7022
1481.8087 0.000675 1471.2380 1484.5212
1467.1739 0.000682 1471.0980 1484.3668
1443.1932 0.000693 1470.9579 1484.2669
1470.7899 0.000680 1470.8179 1484.2655
1435.0829 0.000697 1470.6778 1484.2795
1465.9943 0.000682 1470.5377 1484.3537
1495.9589 0.000668 1470.3977 1484.4904
1460.1070 0.000685 1470.2576 1484.7382
1406.2511 0.000711 1470.1175 1485.0227
1499.7754 0.000667 1469.9775 1485.3551
1458.5744 0.000686 1469.8374 1485.7505
1438.9728 0.000695 1469.6974 1486.2041
1447.6954 0.000691 1469.5573 1486.7220
1498.9234 0.000667 1469.4172 1487.2642
1460.6054 0.000685 1469.2772 1487.8288
1496.1944 0.000668 1469.1371 1488.4181
1505.0012 0.000664 1468.9970 1488.9693
1508.3059 0.000663 1468.8570 1489.4844
1492.0741 0.000670 1468.7169 1489.9484
1515.4605 0.000660 1468.5769 1490.3505
1470.6387 0.000680 1468.4368 1490.6829
1464.8381 0.000683 1468.2967 1490.9387
1538.4208 0.000650 1468.1567 1491.1092
1493.5427 0.000670 1468.0166 1491.1846
1476.3905 0.000677 1467.8765 1491.1565
1471.0707 0.000680 1467.7365 1491.0207
1454.9884 0.000687 1467.5964 1490.7800
1504.2001 0.000665 1467.4564 1490.4251
1487.7312 0.000672 1467.3163 1490.0102
1475.1914 0.000678 1467.1762 1489.5321
1482.5671 0.000675 1467.0362 1488.9747
1471.8288 0.000679 1466.8961 1488.4162
1491.5504 0.000670 1466.7560 1487.8519
1452.0966 0.000689 1466.6160 1487.2598
1467.3720 0.000681 1466.4759 1486.6803
1462.4760 0.000684 1466.6705 1486.4325
1477.1554 0.000677 1466.8652 1486.1859
1453.7852 0.000688 1467.0598 1485.9374
1436.3255 0.000696 1467.2544 1485.7149
1470.9372 0.000680 1467.4490 1485.5185
1472.6084 0.000679 1467.6436 1485.3373
1440.3383 0.000694 1467.8382 1485.2124
1442.6050 0.000693 1468.0329 1485.1397
1481.0761 0.000675 1468.2275 1485.1073
1459.4641 0.000685 1468.4221 1485.1341
1440.6559 0.000694 1468.6167 1485.2104
1479.5380 0.000676 1468.8113 1485.3346
1471.3772 0.000680 1469.0059 1485.5045
1461.1828 0.000684 1469.2006 1485.7175
1525.9372 0.000655 1469.3952 1485.9709
1526.5894 0.000655 1469.5898 1486.2616
1502.8813 0.000665 1469.7844 1486.5870
1519.7524 0.000658 1469.9790 1486.9444
1518.3099 0.000659 1470.1736 1487.3312
1474.9854 0.000678 1470.3683 1487.7468
1486.0875 0.000673 1470.5629 1488.1863
1486.8316 0.000673 1470.7575 1488.6536
1490.9719 0.000671 1470.9521 1489.1396
1449.0650 0.000690 1471.1467 1489.6471
1473.0456 0.000679 1471.3413 1490.1757
1497.7627 0.000668 1471.5360 1490.7249
1510.3946 0.000662 1471.7306 1491.2945
1500.6331 0.000666 1471.9252 1491.8847
1487.6078 0.000672 1472.1198 1492.4957
1532.1756 0.000653 1472.3144 1493.1281
1473.0385 0.000679 1472.5090 1493.7822
1457.5863 0.000686 1472.7037 1494.4598
1489.5828 0.000671 1472.8983 1495.1601
1501.5115 0.000666 1473.0929 1495.8868
1561.8538 0.000640 1473.2875 1496.6372
1536.5521 0.000651 1473.4821 1497.4144
1488.8948 0.000672 1473.6767 1498.2198
1545.5469 0.000647 1473.8714 1499.0547
1537.4422 0.000650 1474.0660 1499.9209
1485.3817 0.000673 1474.2606 1500.8201
1502.7893 0.000665 1474.4552 1501.7541
1517.1226 0.000659 1474.6498 1502.7250
1518.8454 0.000658 1474.8444 1503.7350
1513.7800 0.000661 1475.0391 1504.7865
1461.9214 0.000684 1475.1307 1505.7792
1477.4948 0.000677 1475.2223 1506.8189
1512.6414 0.000661 1475.3140 1507.9087
1536.7409 0.000651 1475.4056 1509.0520
1535.2682 0.000651 1475.4973 1510.2065
1534.6565 0.000652 1475.5889 1511.4685
1536.3708 0.000651 1475.6806 1512.7960
1548.9499 0.000646 1475.7722 1514.1153
1531.0245 0.000653 1475.8638 1515.5895
1540.0406 0.000649 1475.9555 1517.0666
1597.1521 0.000626 1476.0471 1518.7107
1557.5316 0.000642 1476.1388 1520.4494
1511.3308 0.000662 1476.2304 1522.2408
1573.2846 0.000636 1476.3220 1524.0535
1610.2787 0.000621 1476.4137 1526.1281
1574.8967 0.000635 1476.5053 1528.3113
1548.7759 0.000646 1476.5970 1530.6157
1573.1053 0.000636 1476.6886 1533.1232
1606.7219 0.000622 1476.7802 1535.7652
1587.7944 0.000630 1476.8719 1538.6387
1551.2068 0.000645 1476.9635 1541.6877
1548.6722 0.000646 1477.0552 1545.0169
1590.4091 0.000629 1477.1468 1548.6193
1595.3027 0.000627 1477.2384 1552.4399
1611.5896 0.000621 1477.3301 1556.7190
1667.9548 0.000600 1477.4217 1561.4238
1624.9927 0.000615 1477.5134 1566.6072
1612.8534 0.000620 1477.6050 1572.4141
1627.1447 0.000615 1477.6967 1578.9443
1604.7050 0.000623 1477.7883 1586.3508
1649.0126 0.000606 1477.8799 1594.8229
1686.8590 0.000593 1477.9716 1604.6196
1703.9520 0.000587 1478.0632 1615.9635
1751.8693 0.000571 1478.1549 1629.2144
1807.0258 0.000553 1478.2465 1644.7555
1817.5661 0.000550 1478.3381 1663.0299
1853.9026 0.000539 1478.4298 1684.5331
1870.1578 0.000535 1478.5214 1709.8083
1850.7207 0.000540 1478.6131 1739.4338
1920.7968 0.000521 1478.7047 1774.0106
1944.9573 0.000514 1478.7963 1814.1385
1992.2885 0.000502 1478.8880 1860.3900
2062.9904 0.000485 1478.9796 1913.2771
2119.1149 0.000472 1479.0713 1973.2251
2236.4302 0.000447 1479.0796 2040.3854
2251.2200 0.000444 1479.0879 2114.9133
2306.0614 0.000434 1479.0962 2196.5947
2385.4743 0.000419 1479.1045 2284.8777
2430.3969 0.000411 1479.1128 2378.8049
2550.7046 0.000392 1479.1211 2476.9717
2696.3459 0.000371 1479.1294 2577.5271
2839.3634 0.000352 1479.1377 2678.2349
2983.3690 0.000335 1479.1460 2776.5954
3070.1632 0.000326 1479.1543 2870.0144
3148.3109 0.000318 1479.1626 2956.0029
3190.4183 0.000313 1479.1709 3032.3969
3203.4694 0.000312 1479.1792 3097.5618
3257.3420 0.000307 1479.1875 3150.5096
3364.3916 0.000297 1479.1958 3190.8515
3439.5160 0.000291 1479.2041 3218.5749
3431.7851 0.000291 1479.2124 3233.7475
3405.8619 0.000294 1479.2207 3236.3147
3411.9614 0.000293 1479.2290 3226.1124
3381.3167 0.000296 1479.2373 3203.0827
3296.9613 0.000303 1479.2456 3167.5482
3322.9483 0.000301 1479.2540 3120.3719
3170.9351 0.000315 1479.2623 3062.9319
3130.8093 0.000319 1479.2706 2996.8861
3135.6340 0.000319 1479.2789 2924.2837
3013.0001 0.000332 1479.2872 2846.9266
2988.5131 0.000335 1479.2955 2766.5263
2903.1069 0.000344 1479.3038 2684.5056
2720.0787 0.000368 1479.3121 2601.9417
2703.1734 0.000370 1479.3204 2519.6077
2727.0650 0.000367 1479.3287 2438.1075
2588.5584 0.000386 1479.3370 2358.0401
2490.4225 0.000402 1479.3453 2280.1088
2435.3110 0.000411 1479.3536 2205.2341
2371.3659 0.000422 1479.3619 2133.9870
2284.0674 0.000438 1479.3702 2067.2844
2207.8075 0.000453 1479.3785 2005.6328
2221.7553 0.000450 1479.3868 1949.3558
2099.6073 0.000476 1479.3951 1898.5666
2039.4719 0.000490 1479.4034 1853.3297
1998.7041 0.000500 1479.4117 1813.2063
1946.7060 0.000514 1479.4200 1778.0427
1937.2346 0.000516 1479.4283 1747.5942
1911.9949 0.000523 1479.4366 1721.3329
1892.9204 0.000528 1479.4449 1699.0666
1827.5178 0.000547 1479.4532 1680.2674
1803.0759 0.000555 1479.4616 1664.7406
1790.8776 0.000558 1479.4699 1652.0657
1761.0632 0.000568 1479.4782 1642.0192
1738.9433 0.000575 1479.4865 1634.3560
1765.2293 0.000566 1479.4948 1628.8634
1764.7889 0.000567 1479.5031 1625.4218
1752.3469 0.000571 1479.5114 1623.7504
1680.1819 0.000595 1479.5197 1623.7747
1684.3023 0.000594 1479.5280 1625.4131
1746.2651 0.000573 1479.5363 1628.4602
1761.0219 0.000568 1479.5446 1632.8751
1709.7605 0.000585 1479.5529 1638.4282
1785.0423 0.000560 1479.5612 1644.9887
1762.4510 0.000567 1479.5695 1652.3408
1752.7734 0.000571 1479.5778 1660.2153
1743.9287 0.000573 1479.5861 1668.2860
1804.0000 0.000554 1479.5944 1676.1790
1793.6575 0.000558 1479.6027 1683.5015
1784.1652 0.000560 1479.6110 1689.8887
1810.9035 0.000552 1479.6193 1695.0571
1768.4304 0.000565 1479.6276 1698.8421
1778.4295 0.000562 1479.6359 1701.2033
1780.1077 0.000562 1479.6442 1702.1943
1821.6351 0.000549 1479.6525 1701.9136
1807.3499 0.000553 1479.6608 1700.4608
1752.1962 0.000571 1479.6691 1697.9117
1804.7489 0.000554 1479.6775 1694.3149
1889.3127 0.000529 1479.6858 1689.7030
1851.7579 0.000540 1479.6941 1684.1088
1861.0125 0.000537 1479.7024 1677.5820
1778.3275 0.000562 1479.7107 1670.2022
1777.4130 0.000563 1479.7190 1662.0857
1791.0801 0.000558 1479.7273 1653.3826
1731.9473 0.000577 1479.7356 1644.2625
1728.9120 0.000578 1479.7439 1634.8882
1708.3055 0.000585 1479.7522 1625.4206
1703.4830 0.000587 1479.7605 1615.9750
1690.7032 0.000591 1479.7688 1606.6474
1659.4626 0.000603 1479.7771 1597.5174
1622.7561 0.000616 1479.7854 1588.6586
1690.3283 0.000592 1479.7937 1580.1441
1667.1989 0.000600 1479.8020 1572.0377
1645.0830 0.000608 1479.7270 1564.3353
1618.2310 0.000618 1479.6519 1557.1631
1662.0461 0.000602 1479.5769 1550.6204
1586.5055 0.000630 1479.5019 1544.5838
1614.5106 0.000619 1479.4268 1539.1878
1627.6770 0.000614 1479.3518 1534.2775
1547.6509 0.000646 1479.2768 1529.8901
1663.6468 0.000601 1479.2017 1526.0064
1572.7026 0.000636 1479.1267 1522.5521
1574.3269 0.000635 1479.0517 1519.5022
1607.5526 0.000622 1478.9766 1516.8109
1550.6397 0.000645 1478.9016 1514.4449
1579.1994 0.000633 1478.8266 1512.3617
1496.3154 0.000668 1478.7515 1510.5256
1528.9296 0.000654 1478.6765 1508.9042
1612.9955 0.000620 1478.6015 1507.5021
1524.3814 0.000656 1478.5264 1506.2603
1538.1766 0.000650 1478.4514 1505.1240
1551.6362 0.000644 1478.3764 1504.1081
1563.7033 0.000640 1478.3013 1503.1971
1553.0144 0.000644 1478.2263 1502.3876
1524.0055 0.000656 1478.1513 1501.6524
1492.5564 0.000670 1478.0762 1500.9926
1550.5490 0.000645 1478.0012 1500.4020
1522.2312 0.000657 1477.9262 1499.8762
1532.5167 0.000653 1477.8512 1499.4116
1505.2366 0.000664 1477.7761 1499.0052
1440.3999 0.000694 1477.7011 1498.6545
1515.6609 0.000660 1477.6261 1498.3567
1557.7701 0.000642 1477.5510 1498.1089
1595.1597 0.000627 1477.4760 1497.9076
1552.1876 0.000644 1477.4010 1497.7481
1525.9876 0.000655 1477.3259 1497.6247
1564.2560 0.000639 1477.2509 1497.5301
1538.4089 0.000650 1477.1759 1497.4550
1500.0735 0.000667 1477.1008 1497.3884
1556.6120 0.000642 1477.0258 1497.3175
1485.1852 0.000673 1476.9508 1497.2288
1541.0000 0.000649 1476.8757 1497.1095
1536.4341 0.000651 1476.8007 1496.9490
1502.2873 0.000666 1476.7257 1496.7414
1524.9347 0.000656 1476.6506 1496.4857
1484.7261 0.000674 1476.5756 1496.1863
1505.6475 0.000664 1476.5006 1495.8514
1403.8255 0.000712 1476.8296 1495.8950
1513.1264 0.000661 1477.1587 1495.9225
1485.8103 0.000673 1477.4877 1495.9414
1497.3197 0.000668 1477.8167 1495.9563
1532.3388 0.000653 1478.1458 1495.9690
1531.3247 0.000653 1478.4748 1495.9791
1483.1264 0.000674 1478.8039 1495.9852
1522.7948 0.000657 1479.1329 1495.9857
1427.5527 0.000700 1479.4620 1495.9806
1474.2117 0.000678 1479.7910 1495.9715
1500.5963 0.000666 1480.1201 1495.9621
1471.1024 0.000680 1480.4491 1495.9574
1517.1535 0.000659 1480.7782 1495.9630
1547.5439 0.000646 1481.1072 1495.9841
1529.3501 0.000654 1481.4363 1496.0250
1594.5221 0.000627 1481.7653 1496.0892
1502.8432 0.000665 1482.0944 1496.1799
1534.2002 0.000652 1482.4234 1496.2974
1503.1235 0.000665 1482.7525 1496.4425
1561.4004 0.000640 1483.0815 1496.6162
1462.4542 0.000684 1483.4106 1496.8188
1452.0052 0.000689 1483.7396 1497.0505
1500.2304 0.000667 1484.0687 1497.3114
1483.6699 0.000674 1484.3977 1497.6021
1584.2740 0.000631 1484.7268 1497.9234
1469.6588 0.000680 1485.0558 1498.2765
1491.8701 0.000670 1485.3849 1498.6633
1486.9767 0.000673 1485.7139 1499.0867
1487.0524 0.000672 1486.0430 1499.5502
1536.2993 0.000651 1486.3720 1500.0590
1497.6941 0.000668 1486.7011 1500.6184
1479.7553 0.000676 1487.0301 1501.2352
1615.5957 0.000619 1487.3592 1501.9179
1476.3062 0.000677 1487.6882 1502.6758
1517.9723 0.000659 1488.0173 1503.5187
1512.0996 0.000661 1488.3463 1504.4572
1562.9635 0.000640 1488.6754 1505.5021
1512.1727 0.000661 1489.0044 1506.6635
1551.7578 0.000644 1489.3334 1507.9506
1424.1253 0.000702 1489.6625 1509.3708
1596.9949 0.000626 1489.9915 1510.9288
1508.2937 0.000663 1490.3206 1512.6259
1566.9794 0.000638 1490.6496 1514.4590
1509.1640 0.000663 1490.9787 1516.4200
1506.0441 0.000664 1491.2267 1518.4135
1500.1484 0.000667 1491.4746 1520.4992
1565.1638 0.000639 1491.7226 1522.6478
1569.9098 0.000637 1491.9706 1524.8206
1463.6019 0.000683 1492.2185 1526.9687
1567.0691 0.000638 1492.4665 1529.0330
1544.0663 0.000648 1492.7145 1530.9466
1563.1442 0.000640 1492.9624 1532.6418
1543.9118 0.000648 1493.2104 1534.0593
1457.1481 0.000686 1493.4583 1535.1604
1536.7092 0.000651 1493.7063 1535.9350
1516.3371 0.000659 1493.9543 1536.4037
1543.3771 0.000648 1494.2022 1536.6112
1567.6376 0.000638 1494.4502 1536.6157
1476.8246 0.000677 1494.6982 1536.4761
1508.5159 0.000663 1494.9461 1536.2429
1475.4614 0.000678 1495.1941 1535.9518
1514.9651 0.000660 1495.4421 1535.6225
1584.9520 0.000631 1495.6900 1535.2600
1511.1863 0.000662 1495.9380 1534.8596
1547.5294 0.000646 1496.1860 1534.4133
1567.5939 0.000638 1496.4339 1533.9174
1550.6157 0.000645 1496.6819 1533.3783
1579.2460 0.000633 1496.9299 1532.5085
1496.0957 0.000668 1497.1778 1531.9519
1525.3595 0.000656 1497.4258 1531.4344
1559.8903 0.000641 1497.6738 1530.3729
1521.3300 0.000657 1497.9217 1530.0469
1470.9368 0.000680 1498.1697 1529.5434
1496.6180 0.000668 1498.4177 1529.5274
1614.9263 0.000619 1498.6656 1529.7024
1513.4153 0.000661 1498.9136 1530.0920
1547.3038 0.000646 1499.1616 1530.7203
1609.0608 0.000621 1499.4095 1531.6145
1573.4151 0.000636 1499.6575 1531.9449
1561.8084 0.000640 1499.9055 1533.4782
1523.0806 0.000657 1500.1534 1535.3879
1560.2006 0.000641 1500.4014 1537.7250
1564.2470 0.000639 1500.6494 1540.2415
1617.3043 0.000618 1500.8973 1543.6235
1536.1405 0.000651 1501.1453 1547.4797
1505.6299 0.000664 1501.3933 1552.2118
1544.5600 0.000647 1501.6412 1557.7522
1614.0110 0.000620 1501.8892 1564.1974
1609.3716 0.000621 1502.1372 1571.6457
1582.9809 0.000632 1502.3851 1579.8393
1603.7996 0.000624 1502.6331 1589.5815
1613.1149 0.000620 1502.8811 1600.5923
1651.3921 0.000606 1503.1290 1612.9308
1681.7202 0.000595 1503.3770 1626.6287
1655.5987 0.000604 1503.6250 1641.6797
1690.4070 0.000592 1503.8729 1658.0279
1697.1609 0.000589 1504.1209 1675.5563
1686.9623 0.000593 1504.3689 1694.0772
1659.1520 0.000603 1504.6168 1713.3290
1666.4671 0.000600 1504.8648 1732.9846
1697.1679 0.000589 1505.1127 1752.6717
1764.9349 0.000567 1505.3607 1772.0041
1829.8572 0.000546 1505.6087 1790.6105
1822.1294 0.000549 1505.8566 1808.1507
1900.5970 0.000526 1506.1046 1824.3132
1820.3701 0.000549 1506.3526 1838.8025
1881.6827 0.000531 1506.6005 1851.3300
1833.7879 0.000545 1506.8485 1861.6193
1901.9400 0.000526 1507.0965 1869.4234
1864.0798 0.000536 1507.3444 1874.5468
1864.4320 0.000536 1507.5924 1876.8656
1852.8169 0.000540 1507.8404 1876.3478
1845.0178 0.000542 1508.0883 1873.0705
1831.2997 0.000546 1508.3363 1867.2279
1828.7911 0.000547 1508.5843 1859.3972
1821.9041 0.000549 1508.8322 1849.3968
1797.2128 0.000556 1509.0802 1837.8899
1769.8564 0.000565 1509.3282 1825.2330
1767.1217 0.000566 1509.5761 1811.7160
1839.5536 0.000544 1509.8241 1797.5538
1789.4670 0.000559 1510.0721 1782.8979
1712.6134 0.000584 1510.3200 1768.1516
1769.8960 0.000565 1510.5680 1752.8263
1699.9503 0.000588 1510.8160 1737.3115
1684.2306 0.000594 1511.0639 1721.7286
1710.0905 0.000585 1511.3119 1706.2293
1659.3104 0.000603 1511.5599 1690.9013
1648.5640 0.000607 1511.8078 1676.2280
1639.6940 0.000610 1512.0558 1662.0991
1673.5534 0.000598 1512.3038 1648.7814
1753.3558 0.000570 1512.5517 1636.4027
1682.0381 0.000595 1512.7997 1625.0216
1634.3957 0.000612 1512.9666 1614.6610
1670.4619 0.000599 1513.1335 1605.3891
1600.8997 0.000625 1513.3003 1597.3003
1648.1806 0.000607 1513.4672 1590.1624
1626.9303 0.000615 1513.6341 1584.0399
1667.3772 0.000600 1513.8010 1578.8434
1613.3872 0.000620 1513.9679 1574.6045
1607.4557 0.000622 1514.1348 1571.2690
1643.4249 0.000608 1514.3016 1568.7816
1640.3383 0.000610 1514.4685 1567.1110
1596.3160 0.000626 1514.6354 1566.2332
1613.1165 0.000620 1514.8023 1566.1181
1624.5779 0.000616 1514.9692 1566.7846
1658.0014 0.000603 1515.1361 1568.2157
1630.3640 0.000613 1515.3029 1570.3913
1583.4729 0.000632 1515.4698 1573.3560
1546.4875 0.000647 1515.6367 1577.0890
1618.3271 0.000618 1515.8036 1581.5853
1590.7533 0.000629 1515.9705 1586.8303
1615.6185 0.000619 1516.1374 1592.7952
1627.2754 0.000615 1516.3042 1599.4319
1628.8701 0.000614 1516.4711 1606.6676
1662.1111 0.000602 1516.6380 1614.3979
1607.8327 0.000622 1516.8049 1622.4801
1651.3695 0.000606 1516.9718 1630.7268
1688.3527 0.000592 1517.1387 1638.9032
1693.7157 0.000590 1517.3055 1646.7315
1679.2251 0.000596 1517.4724 1653.9059
1651.6185 0.000605 1517.6393 1660.1224
1628.6868 0.000614 1517.8062 1665.1177
1722.1115 0.000581 1517.9731 1668.7102
1740.6443 0.000574 1518.1400 1670.8280
1700.3245 0.000588 1518.3068 1671.5149
1675.5553 0.000597 1518.4737 1670.9122
1681.3940 0.000595 1518.6406 1669.3141
1713.9858 0.000583 1518.8075 1666.7615
1719.5893 0.000582 1518.9744 1663.5532
1765.2560 0.000566 1519.1413 1659.8555
1723.0614 0.000580 1519.3081 1655.7791
1659.7192 0.000603 1519.4750 1651.4020
1659.9986 0.000602 1519.6419 1646.6808
1688.9098 0.000592 1519.8088 1641.6190
1721.8218 0.000581 1519.9757 1636.1941
1669.2858 0.000599 1520.1426 1630.4048
1657.9018 0.000603 1520.2092 1624.1860
1680.2296 0.000595 1520.2759 1617.7108
1628.7945 0.000614 1520.3425 1611.0809
1641.3213 0.000609 1520.4092 1604.4584
1598.0510 0.000626 1520.4758 1597.8692
1575.6543 0.000635 1520.5425 1591.4643
1617.4325 0.000618 1520.6091 1585.3324
1605.2599 0.000623 1520.6758 1579.5422
1617.4222 0.000618 1520.7424 1574.1421
1585.0589 0.000631 1520.8091 1569.1746
1563.1766 0.000640 1520.8757 1564.6289
1558.8822 0.000641 1520.9424 1560.5180
1547.0320 0.000646 1521.0091 1556.8325
1551.5002 0.000645 1521.0757 1553.5547
1571.2947 0.000636 1521.1424 1550.6598
1588.4415 0.000630 1521.2090 1548.1229
1585.4220 0.000631 1521.2757 1545.9084
1560.2715 0.000641 1521.3423 1543.9929
1515.3881 0.000660 1521.4090 1542.3406
1505.0732 0.000664 1521.4756 1540.9207
1539.7510 0.000649 1521.5423 1539.7040
1535.0778 0.000651 1521.6089 1538.6633
1533.4403 0.000652 1521.6756 1537.7738
1514.9669 0.000660 1521.7422 1537.0135
1517.3937 0.000659 1521.8089 1536.3632
1545.8246 0.000647 1521.8756 1535.8056
1578.1428 0.000634 1521.9422 1535.3282
1535.8940 0.000651 1522.0089 1534.9186
1507.0357 0.000664 1522.0755 1534.5652
1552.4112 0.000644 1522.1422 1534.2642
1571.1811 0.000636 1522.2088 1534.0071
1540.3128 0.000649 1522.2755 1533.7891
1515.3794 0.000660 1522.3421 1533.6058
1495.1858 0.000669 1522.4088 1533.4540
1542.6506 0.000648 1522.4754 1533.3307
1575.1150 0.000635 1522.5421 1533.2335
1533.2888 0.000652 1522.6087 1533.1601
1526.6449 0.000655 1522.6754 1533.1083
1531.7096 0.000653 1522.7420 1533.0758
1512.9617 0.000661 1522.8087 1533.0602
1513.9716 0.000661 1522.8754 1533.0588
1556.9717 0.000642 1522.9420 1533.0686
1530.0256 0.000654 1523.0087 1533.0860
1496.4126 0.000668 1523.0753 1533.1128
1527.1965 0.000655 1523.2839 1533.2769
1540.0110 0.000649 1523.4925 1533.4375
1569.1596 0.000637 1523.7010 1533.5925
1592.9985 0.000628 1523.9096 1533.7405
1550.1940 0.000645 1524.1182 1533.8815
1491.2063 0.000671 1524.3268 1534.0203
1485.2731 0.000673 1524.5354 1534.1519
1508.3216 0.000663 1524.7439 1534.2821
1542.3155 0.000648 1524.9525 1534.4132
1533.6558 0.000652 1525.1611 1534.5468
1515.7414 0.000660 1525.3697 1534.6841
1525.0293 0.000656 1525.5782 1534.8255
1500.5721 0.000666 1525.7868 1534.9707
1506.9397 0.000664 1525.9954 1535.1218
1528.4708 0.000654 1526.2040 1535.2731
1553.3440 0.000644 1526.4125 1535.4262
1570.2939 0.000637 1526.6211 1535.5814
1558.0000 0.000642 1526.8297 1535.7391
1518.4274 0.000659 1527.0383 1535.9003
1508.5982 0.000663 1527.2469 1536.0679
1538.8105 0.000650 1527.4554 1536.2396
1529.3300 0.000654 1527.6640 1536.4186
1550.9336 0.000645 1527.8726 1536.6057
1559.9576 0.000641 1528.0812 1536.8017
1550.4441 0.000645 1528.2897 1537.0061
1532.9000 0.000652 1528.4983 1537.2216
1526.2354 0.000655 1528.7069 1537.4472
1551.3613 0.000645 1528.9155 1537.6830
1531.8595 0.000653 1529.1240 1537.9291
1485.6456 0.000673 1529.3326 1538.1854
1511.2400 0.000662 1529.5412 1538.4518
1560.9165 0.000641 1529.7498 1538.7003
1528.4382 0.000654 1529.9583 1538.9871
1544.7922 0.000647 1530.1669 1539.2836
1621.3582 0.000617 1530.3755 1539.5886
1597.2783 0.000626 1530.5841 1539.9047
1548.5389 0.000646 1530.7927 1540.2298
1548.2131 0.000646 1531.0012 1540.5652
1553.6940 0.000644 1531.2098 1540.9104
1598.2123 0.000626 1531.4184 1541.2654
1560.6600 0.000641 1531.6270 1541.6305
1545.4648 0.000647 1531.8355 1542.0058
1576.1440 0.000634 1532.0441 1542.3917
1535.9829 0.000651 1532.2527 1542.7745
1544.2774 0.000648 1532.3582 1543.0797
1504.6554 0.000665 1532.4637 1543.3966
1497.9790 0.000668 1532.5692 1543.7252
1511.5286 0.000662 1532.6747 1544.0673
1479.5832 0.000676 1532.7802 1544.4229
1494.8100 0.000669 1532.8857 1544.7927
1483.2463 0.000674 1532.9912 1545.1778
1503.5342 0.000665 1533.0967 1545.5785
1551.4439 0.000645 1533.2022 1545.9961
1577.2626 0.000634 1533.3077 1546.4483
1539.8203 0.000649 1533.4132 1546.9028
1550.2279 0.000645 1533.5187 1547.3801
1543.2701 0.000648 1533.6242 1547.8797
1516.5453 0.000659 1533.7297 1548.4035
1562.0379 0.000640 1533.8352 1548.9473
1561.9373 0.000640 1533.9407 1549.5175
1485.7556 0.000673 1534.0462 1550.1159
1551.6144 0.000644 1534.1518 1550.7480
1577.8031 0.000634 1534.2573 1551.4096
1566.0403 0.000639 1534.3628 1552.1067
1555.4930 0.000643 1534.4683 1552.8423
1534.3635 0.000652 1534.5738 1553.6195
1561.2853 0.000640 1534.6793 1554.4425
1566.8968 0.000638 1534.7848 1555.3240
1550.2154 0.000645 1534.8903 1556.2525
1586.9272 0.000630 1534.9958 1557.2440
1563.5010 0.000640 1535.1013 1558.3049
1576.3083 0.000634 1535.2068 1559.4445
1605.3548 0.000623 1535.3123 1560.6709
1553.0926 0.000644 1535.4178 1561.9998
1551.5440 0.000645 1535.5233 1563.4481
1590.2913 0.000629 1535.6288 1565.0380
1577.2902 0.000634 1535.7343 1566.7917
1623.7625 0.000616 1535.8398 1568.7422
1598.9996 0.000625 1535.9453 1570.9278
1570.2441 0.000637 1536.0508 1573.3949
1597.0814 0.000626 1536.1563 1576.1991
1602.3480 0.000624 1536.2618 1579.4066
1546.1573 0.000647 1536.3673 1582.9844
1563.9064 0.000639 1536.4728 1587.2427
1611.7917 0.000620 1536.5783 1592.1715
1612.2742 0.000620 1536.6838 1597.8831
1564.8991 0.000639 1536.7893 1604.5005
1626.1756 0.000615 1536.8948 1612.1552
1656.2060 0.000604 1536.9168 1620.7778
1692.7662 0.000591 1536.9387 1630.8390
1706.4444 0.000586 1536.9607 1642.3512
1690.5510 0.000592 1536.9826 1655.4436
1683.3638 0.000594 1537.0046 1670.1457
1704.8184 0.000587 1537.0265 1686.6338
1745.7135 0.000573 1537.0485 1705.0010
1734.1063 0.000577 1537.0704 1725.2909
1727.1258 0.000579 1537.0924 1747.4136
1778.2409 0.000562 1537.1143 1771.2668
1800.5780 0.000555 1537.1363 1796.6776
1839.2440 0.000544 1537.1582 1823.3328
1852.3058 0.000540 1537.1802 1850.7852
1907.7034 0.000524 1537.2021 1878.6456
1953.4496 0.000512 1537.2241 1906.2399
1964.6922 0.000509 1537.2460 1932.8987
2059.3999 0.000486 1537.2680 1957.9155
2005.4268 0.000499 1537.2899 1980.7888
2079.8022 0.000481 1537.3119 2001.0498
2068.8593 0.000483 1537.3338 2018.3358
2022.4162 0.000494 1537.3558 2032.5396
2074.1281 0.000482 1537.3777 2043.4349
2099.7300 0.000476 1537.3997 2050.9751
2123.3171 0.000471 1537.4216 2055.1503
2065.8370 0.000484 1537.4436 2055.7817
2059.7033 0.000486 1537.4655 2052.9831
2043.9845 0.000489 1537.4875 2046.9361
2137.8991 0.000468 1537.5094 2037.9296
2175.7796 0.000460 1537.5314 2026.3275
2065.9674 0.000484 1537.5533 2012.5214
2023.7241 0.000494 1537.5753 1996.8953
1976.2334 0.000506 1537.5972 1979.8076
1959.1063 0.000510 1537.6192 1961.5821
2043.2214 0.000489 1537.6411 1942.5333
2028.9917 0.000493 1537.6631 1922.8366
2013.8833 0.000497 1537.6850 1902.6319
1966.8588 0.000508 1537.7070 1882.0497
1883.7606 0.000531 1537.7289 1861.2105
1907.9059 0.000524 1537.7509 1840.1430
1892.8308 0.000528 1537.7728 1819.0353
1882.0065 0.000531 1537.7948 1798.0971
1832.4917 0.000546 1537.8167 1777.5804
1828.0676 0.000547 1537.8387 1757.7485
1785.6580 0.000560 1537.8606 1738.8452
1749.3500 0.000572 1537.8826 1721.0721
1745.5717 0.000573 1537.9045 1704.5789
1796.3223 0.000557 1537.9265 1689.4637
1755.0702 0.000570 1537.9484 1675.7799
1769.4685 0.000565 1537.9704 1663.5449
1779.4388 0.000562 1537.9923 1652.7494
1747.3844 0.000572 1538.0143 1643.3649
1707.7497 0.000586 1538.0362 1635.3496
1635.6547 0.000611 1538.0582 1628.6534
1628.1867 0.000614 1538.0801 1623.2212
1654.0868 0.000605 1538.1021 1618.9948
1756.3890 0.000569 1538.1240 1615.9147
1615.7981 0.000619 1538.1460 1613.8544
1596.5718 0.000626 1538.1679 1612.8879
1719.0223 0.000582 1538.1899 1612.8206
1680.6098 0.000595 1538.2118 1613.7233
1668.7550 0.000599 1538.2338 1615.4634
1659.0000 0.000603 1538.2557 1617.9705
1662.7744 0.000601 1538.2777 1621.2554
1682.5364 0.000594 1538.2996 1625.0505
1602.4253 0.000624 1538.3216 1629.3393
1748.0117 0.000572 1538.3435 1633.9970
1688.2064 0.000592 1538.3655 1638.8753
1715.3541 0.000583 1538.3874 1643.8005
1693.0302 0.000591 1538.4094 1648.5760
1719.0771 0.000582 1538.4313 1652.9594
1683.7568 0.000594 1538.4533 1656.8124
1730.3120 0.000578 1538.4752 1659.8919
1693.0025 0.000591 1538.4972 1662.1419
1726.2937 0.000579 1538.5191 1663.4662
1716.7870 0.000582 1538.5411 1663.8788
1707.8514 0.000586 1538.5630 1663.4396
1782.0000 0.000561 1538.5850 1662.2710
1776.6434 0.000563 1538.6069 1660.5474
1701.6973 0.000588 1538.6289 1658.2677
1683.8745 0.000594 1538.6508 1655.5999
1694.2493 0.000590 1538.6728 1652.6293
1657.0557 0.000603 1538.6947 1649.4132
1755.9653 0.000569 1538.7167 1645.9801
1737.1713 0.000576 1538.7386 1642.3343
1722.3930 0.000581 1538.7605 1638.4656
1726.9806 0.000579 1538.7825 1634.3637
1667.1016 0.000600 1538.8044 1630.0304
1714.1923 0.000583 1538.8264 1625.4882
1737.8863 0.000575 1538.7648 1620.6926
1636.4311 0.000611 1538.7032 1615.7843
1673.6095 0.000598 1538.6416 1610.8272
1634.1567 0.000612 1538.5800 1605.8862
1670.7223 0.000599 1538.5184 1601.0275
1661.8032 0.000602 1538.4568 1596.3002
1693.4262 0.000591 1538.3952 1591.7578
1710.0039 0.000585 1538.3336 1587.4411
1610.8120 0.000621 1538.2720 1583.3817
1600.6058 0.000625 1538.2104 1579.6011
1641.9177 0.000609 1538.1488 1576.1118
1635.0273 0.000612 1538.0871 1572.9180
1638.3273 0.000610 1538.0255 1570.0173
1688.7076 0.000592 1537.9639 1567.4016
1610.9795 0.000621 1537.9023 1565.0590
1592.0302 0.000628 1537.8407 1562.9746
1564.1192 0.000639 1537.7791 1561.1315
1668.2727 0.000599 1537.7175 1559.5120
1593.7293 0.000627 1537.6559 1558.0978
1589.0491 0.000629 1537.5943 1556.8711
1568.3136 0.000638 1537.5327 1555.8146
1621.0494 0.000617 1537.4711 1554.9123
1593.5879 0.000628 1537.4095 1554.1495
1662.3712 0.000602 1537.3479 1553.5128
1622.1012 0.000616 1537.2863 1552.9902
1499.5349 0.000667 1537.2247 1552.5715
1572.5551 0.000636 1537.1631 1552.2472
1627.1847 0.000615 1537.1015 1552.0093
1544.1932 0.000648 1537.0399 1551.8504
1570.7924 0.000637 1536.9783 1551.7635
1552.8325 0.000644 1536.9167 1551.7512
1487.0119 0.000672 1536.8551 1551.7881
1536.4171 0.000651 1536.7935 1551.8748
1602.6747 0.000624 1536.7319 1552.0094
1563.3535 0.000640 1536.6703 1552.1713
1594.0761 0.000627 1536.6087 1552.3547
1609.1931 0.000621 1536.5470 1552.5461
1626.9145 0.000615 1536.4854 1552.7317
1588.6450 0.000629 1536.4238 1552.8976
1539.2822 0.000650 1536.3622 1553.0312
1485.6889 0.000673 1536.3006 1553.1225
1506.1544 0.000664 1536.2390 1553.1649
1539.4958 0.000650 1536.1774 1553.1554
1517.9843 0.000659 1536.1158 1553.0940
1543.6303 0.000648 1536.3549 1553.2832
1593.7537 0.000627 1536.5940 1553.4296
1664.8441 0.000601 1536.8331 1553.5282
1559.6136 0.000641 1537.0722 1553.5878
1549.0000 0.000646 1537.3113 1553.6149
1577.1376 0.000634 1537.5504 1553.6098
1555.5651 0.000643 1537.7895 1553.5793
1619.7722 0.000617 1538.0286 1553.5273
1497.4492 0.000668 1538.2677 1553.4572
1520.6735 0.000658 1538.5068 1553.3714
1547.3580 0.000646 1538.7459 1553.2726
1587.4494 0.000630 1538.9850 1553.1635
1600.0008 0.000625 1539.2241 1553.0470
1533.6402 0.000652 1539.4632 1552.9266
1495.8397 0.000669 1539.7023 1552.8055
1554.5492 0.000643 1539.9414 1552.6869
1565.6349 0.000639 1540.1805 1552.5740
1580.0102 0.000633 1540.4196 1552.4702
1565.4136 0.000639 1540.6587 1552.3793
1522.9662 0.000657 1540.8978 1552.3055
1482.2948 0.000675 1541.1369 1552.2534
1560.0363 0.000641 1541.3760 1552.2273
1543.6821 0.000648 1541.6151 1552.2315
1556.1925 0.000643 1541.8542 1552.2698
1572.7113 0.000636 1542.0933 1552.3457
1547.6629 0.000646 1542.3324 1552.4626
1494.4579 0.000669 1542.5715 1552.6236
1581.0821 0.000632 1542.8106 1552.8320
1551.4547 0.000645 1543.0497 1553.0913
1506.7248 0.000664 1543.2888 1553.4054
1489.0678 0.000672 1543.5279 1553.7787
1533.9432 0.000652 1543.7670 1554.2160
1555.5340 0.000643 1544.0061 1554.7227
1553.0024 0.000644 1544.2452 1555.3044
1566.1145 0.000639 1544.4843 1555.9671
1596.3106 0.000626 1544.7234 1556.7171
1554.1543 0.000643 1544.9625 1557.5603
1560.4451 0.000641 1545.2016 1558.5023
1535.3144 0.000651 1545.4407 1559.5478
1539.6200 0.000650 1545.6798 1560.7007
1516.7582 0.000659 1545.9189 1561.9631
1522.3621 0.000657 1546.1580 1563.3350
1573.5347 0.000636 1546.3971 1564.8139
1584.1938 0.000631 1546.6362 1566.3942
1528.5534 0.000654 1546.7955 1567.9863
1559.0498 0.000641 1546.9548 1569.6558
1627.4730 0.000614 1547.1140 1571.3827
1541.7585 0.000649 1547.2733 1573.1412
1532.6509 0.000652 1547.4326 1574.8991
1540.9511 0.000649 1547.5919 1576.6190
1518.3732 0.000659 1547.7511 1578.2598
1524.5583 0.000656 1547.9104 1579.7802
1581.9734 0.000632 1548.0697 1581.1431
1604.0160 0.000623 1548.2290 1582.3194
1534.5266 0.000652 1548.3882 1583.2914
1621.6160 0.000617 1548.5475 1584.0537
1575.8453 0.000635 1548.7068 1584.6124
1556.8444 0.000642 1548.8661 1584.9828
1591.7132 0.000628 1549.0253 1585.1866
1603.5271 0.000624 1549.1846 1585.2480
1620.7392 0.000617 1549.3439 1585.1913
1582.0243 0.000632 1549.5032 1585.0381
1620.8873 0.000617 1549.6624 1584.8059
1572.5009 0.000636 1549.8217 1584.5071
1584.7588 0.000631 1549.9810 1584.1499
1545.9158 0.000647 1550.1403 1583.7390
1581.8848 0.000632 1550.2995 1583.2780
1653.4375 0.000605 1550.4588 1582.7706
1603.9643 0.000623 1550.6181 1582.2229
1599.1581 0.000625 1550.7774 1581.6438
1641.9749 0.000609 1550.9366 1581.0457
1591.3585 0.000628 1551.0959 1580.4434
1565.8135 0.000639 1551.2552 1579.8542
1567.1785 0.000638 1551.4145 1579.2964
1547.7419 0.000646 1551.5737 1578.7890
1568.1126 0.000638 1551.7330 1578.3513
1599.1087 0.000625 1551.8923 1578.0023
1554.7687 0.000643 1552.0515 1577.7611
1506.1997 0.000664 1552.2108 1577.6471
1551.8128 0.000644 1552.3701 1577.6800
1562.9727 0.000640 1552.5294 1577.8801
1558.0000 0.000642 1552.6886 1578.2686
1596.6184 0.000626 1552.8479 1578.8680
1552.1449 0.000644 1553.0072 1579.7023
1576.8675 0.000634 1553.1665 1580.7976
1588.5878 0.000629 1553.3257 1582.1822
1607.5102 0.000622 1553.4850 1584.1190
1640.0418 0.000610 1553.6443 1586.1795
1630.1020 0.000613 1553.8036 1588.6295
1592.2943 0.000628 1553.9628 1591.5065
1591.2544 0.000628 1554.1221 1594.8491
1564.4497 0.000639 1554.2814 1599.0075
1575.3431 0.000635 1554.4407 1603.3967
1594.0551 0.000627 1554.5999 1608.3583
1584.9378 0.000631 1554.7592 1613.9183
1675.1136 0.000597 1554.9185 1620.0937
1692.4198 0.000591 1555.0778 1627.9319
1684.9454 0.000593 1555.2370 1635.0781
1698.8917 0.000589 1555.3963 1643.0952
1686.2669 0.000593 1555.5556 1651.6703
1700.5480 0.000588 1555.7149 1661.1417
1671.9592 0.000598 1555.8741 1670.6648
1653.2439 0.000605 1556.0334 1680.6536
1724.1331 0.000580 1556.1927 1690.7607
1734.3323 0.000577 1556.3520 1700.6634
1704.2624 0.000587 1556.5112 1710.7608
1728.5429 0.000579 1556.6705 1720.5358
1720.3120 0.000581 1556.8298 1729.8905
1657.5431 0.000603 1556.9891 1738.2421
1626.2195 0.000615 1557.1483 1745.4841
1674.8211 0.000597 1557.3076 1751.2538
1707.4990 0.000586 1557.4669 1755.6654
1711.4883 0.000584 1557.6262 1759.0233
1737.7766 0.000575 1557.7854 1760.2971
1721.5460 0.000581 1557.9447 1760.1028
1714.8956 0.000583 1558.1040 1758.8030
1723.0000 0.000580 1558.2633 1756.2261
1766.8291 0.000566 1558.4225 1752.7964
1746.5145 0.000573 1558.5818 1748.5890
1738.5326 0.000575 1558.7411 1744.0771
1758.2051 0.000569 1558.9004 1739.2470
1753.2252 0.000570 1559.0596 1734.1755
1754.5493 0.000570 1559.2189 1728.8906
1718.6948 0.000582 1559.3782 1723.3851
1741.7447 0.000574 1559.5375 1717.6356
1714.7371 0.000583 1559.6967 1711.6220
1618.9602 0.000618 1559.8560 1705.3426
1651.2637 0.000606 1560.0153 1698.8251
1683.0392 0.000594 1560.1746 1692.1300
1638.2809 0.000610 1560.3338 1685.3483
1659.7752 0.000602 1560.4931 1678.5941
1683.2867 0.000594 1560.6524 1671.9943
1685.6680 0.000593 1560.7318 1665.5978
1675.4529 0.000597 1560.8113 1659.6059
1660.3099 0.000602 1560.8907 1654.1255
1636.5722 0.000611 1560.9702 1649.2463
1620.6741 0.000617 1561.0496 1645.0400
1651.4340 0.000606 1561.1291 1641.5606
1665.0516 0.000601 1561.2085 1638.8465
1643.7995 0.000608 1561.2880 1636.9219
1649.9679 0.000606 1561.3674 1635.7977
1678.1617 0.000596 1561.4469 1635.4721
1672.1136 0.000598 1561.5263 1635.9314
1632.1902 0.000613 1561.6058 1637.1493
1664.1308 0.000601 1561.6852 1639.1249
1670.4835 0.000599 1561.7647 1641.7288
1679.0383 0.000596 1561.8441 1644.9309
1688.9806 0.000592 1561.9236 1648.6458
1689.7740 0.000592 1562.0030 1652.7691
1692.0668 0.000591 1562.0825 1657.1745
1649.0496 0.000606 1562.1619 1661.7126
1666.3674 0.000600 1562.2414 1666.2120
1670.5346 0.000599 1562.3208 1670.4960
1642.0506 0.000609 1562.4003 1674.3484
1645.0200 0.000608 1562.4797 1677.5097
1656.1463 0.000604 1562.5592 1680.0182
1710.9136 0.000584 1562.6386 1681.6947
1698.7784 0.000589 1562.7181 1682.5212
1666.4675 0.000600 1562.7975 1682.5491
1691.4899 0.000591 1562.8770 1681.8852
1690.0362 0.000592 1562.9564 1680.6631
1655.5567 0.000604 1563.0359 1679.0399
1682.6133 0.000594 1563.1153 1677.1415
1713.8983 0.000583 1563.1948 1675.0704
1697.4320 0.000589 1563.2742 1672.8922
1700.5812 0.000588 1563.3537 1670.6339
1685.9559 0.000593 1563.4331 1668.2874
1725.0231 0.000580 1563.5126 1665.8222
1742.8964 0.000574 1563.5920 1663.1287
1729.1586 0.000578 1563.6715 1660.2482
1739.7945 0.000575 1563.7509 1657.0922
1710.3755 0.000585 1563.8304 1653.6430
1711.1024 0.000584 1563.9098 1649.9151
1694.9391 0.000590 1563.9893 1645.9413
1651.5246 0.000606 1564.0687 1641.8152
1646.8492 0.000607 1564.1482 1637.6055
1654.6501 0.000604 1564.1291 1633.2953
1701.5888 0.000588 1564.1100 1629.0571
1690.8384 0.000591 1564.0908 1624.9519
1635.2094 0.000612 1564.0717 1621.0260
1604.4207 0.000623 1564.0526 1617.3118
1659.4717 0.000603 1564.0335 1613.8291
1675.8380 0.000597 1564.0144 1610.5879
1658.7641 0.000603 1563.9952 1607.5905
1667.9435 0.000600 1563.9761 1604.8332
1677.7525 0.000596 1563.9570 1602.3086
1677.1456 0.000596 1563.9379 1600.0072
1662.2538 0.000602 1563.9188 1597.9184
1684.2376 0.000594 1563.8996 1596.0320
1611.2532 0.000621 1563.8805 1594.3384
1587.8610 0.000630 1563.8614 1592.8287
1598.0381 0.000626 1563.8423 1591.4944
1636.1169 0.000611 1563.8232 1590.3272
1647.8526 0.000607 1563.8040 1589.3191
1603.9678 0.000623 1563.7849 1588.4620
1585.4340 0.000631 1563.7658 1587.7481
1623.1937 0.000616 1563.7467 1587.1698
1620.6526 0.000617 1563.7276 1586.7201
1595.9427 0.000627 1563.7085 1586.3924
1576.5774 0.000634 1563.6893 1586.1809
1581.4813 0.000632 1563.6702 1586.0796
1568.0000 0.000638 1563.6511 1586.0829
1556.5438 0.000642 1563.6320 1586.1856
1554.6850 0.000643 1563.6129 1586.3817
1615.1351 0.000619 1563.5937 1586.6649
1643.4555 0.000608 1563.5746 1587.0280
1600.4848 0.000625 1563.5555 1587.4628
1610.3706 0.000621 1563.5364 1587.9592
1623.7317 0.000616 1563.5173 1588.5055
1628.6319 0.000614 1563.4981 1589.0875
1627.4290 0.000614 1563.4790 1589.6889
1611.8529 0.000620 1563.4599 1590.2905
1627.1799 0.000615 1563.4408 1590.8717
1659.1799 0.000603 1563.4217 1591.4057
1624.2631 0.000616 1563.4025 1591.8827
1574.5548 0.000635 1563.3834 1592.2796
1593.6127 0.000628 1563.3643 1592.5854
1597.0101 0.000626 1563.3452 1592.7941
1553.0065 0.000644 1563.3261 1592.9075
1553.3516 0.000644 1563.3070 1592.9338
1586.9402 0.000630 1563.7002 1593.2946
1546.4084 0.000647 1564.0934 1593.6006
1605.9619 0.000623 1564.4867 1593.8643
1604.7506 0.000623 1564.8799 1594.1005
1639.8193 0.000610 1565.2731 1594.3211
1541.6410 0.000649 1565.6664 1594.5342
1550.6276 0.000645 1566.0596 1594.7441
1567.6303 0.000638 1566.4528 1594.9488
1570.8749 0.000637 1566.8461 1595.1513
1572.8313 0.000636 1567.2393 1595.3459
1571.3786 0.000636 1567.6325 1595.5288
1572.6061 0.000636 1568.0258 1595.6976
1548.9459 0.000646 1568.4190 1595.8523
1568.9815 0.000637 1568.8123 1595.9952
1633.5746 0.000612 1569.2055 1596.1295
1577.5092 0.000634 1569.5987 1596.2656
1622.8734 0.000616 1569.9920 1596.4094
1606.2502 0.000623 1570.3852 1596.5689
1572.0032 0.000636 1570.7784 1596.7516
1609.0780 0.000621 1571.1717 1596.9640
1583.2495 0.000632 1571.5649 1597.2115
1500.7228 0.000666 1571.9581 1597.4981
1562.5936 0.000640 1572.3514 1597.8305
1550.0618 0.000645 1572.7446 1598.2032
1607.7343 0.000622 1573.1379 1598.6211
1568.4790 0.000638 1573.5311 1599.0846
1591.6444 0.000628 1573.9243 1599.5947
1607.6384 0.000622 1574.3176 1600.1491
1623.4497 0.000616 1574.7108 1600.7489
1611.0523 0.000621 1575.1040 1601.3981
1630.0130 0.000613 1575.4973 1602.0831
1591.0350 0.000629 1575.8905 1602.8131
1625.4338 0.000615 1576.2837 1603.5797
1658.9660 0.000603 1576.6770 1604.3870
1641.1776 0.000609 1577.0702 1605.2410
1587.4354 0.000630 1577.4635 1606.1227
1625.8477 0.000615 1577.8567 1607.0452
1549.0524 0.000646 1578.2499 1608.0036
1566.8870 0.000638 1578.6432 1608.9966
1549.7703 0.000645 1579.0364 1610.0240
1576.9299 0.000634 1579.4296 1611.0880
1675.8149 0.000597 1579.8229 1612.1891
1685.2305 0.000593 1580.2161 1613.3280
1660.1705 0.000602 1580.6093 1614.5063
1627.9542 0.000614 1580.9055 1615.6277
1646.2607 0.000607 1581.2016 1616.7902
1585.2212 0.000631 1581.4977 1617.9995
1621.6305 0.000617 1581.7939 1619.2526
1670.5820 0.000599 1582.0900 1620.5515
1577.5082 0.000634 1582.3861 1621.9011
1650.7862 0.000606 1582.6823 1623.3025
1625.5588 0.000615 1582.9784 1624.7649
1632.5883 0.000613 1583.2745 1626.2834
1618.7366 0.000618 1583.5706 1627.8477
1689.1897 0.000592 1583.8668 1629.4935
1658.3907 0.000603 1584.1629 1631.2101
1556.0299 0.000643 1584.4590 1632.9997
1687.0157 0.000593 1584.7552 1634.8693
1589.0257 0.000629 1585.0513 1636.8242
1643.8181 0.000608 1585.3474 1638.8767
1683.9578 0.000594 1585.6435 1641.0294
1669.0807 0.000599 1585.9397 1643.2902
1633.1215 0.000612 1586.2358 1645.6683
1694.8225 0.000590 1586.5319 1648.1709
1698.9465 0.000589 1586.8281 1650.8166
1674.7638 0.000597 1587.1242 1653.6163
1689.5187 0.000592 1587.4203 1656.5862
1714.3497 0.000583 1587.7165 1659.7374
1699.8162 0.000588 1588.0126 1663.1093
1756.1085 0.000569 1588.3087 1666.7206
1736.7930 0.000576 1588.6048 1670.6023
1749.3917 0.000572 1588.9010 1674.7938
1724.0334 0.000580 1589.1971 1679.3409
1701.3900 0.000588 1589.4932 1684.3011
1713.8171 0.000583 1589.7894 1689.7367
1743.6136 0.000574 1590.0855 1695.7244
1783.2747 0.000561 1590.3816 1702.3541
1803.0752 0.000555 1590.6777 1709.7291
1804.4498 0.000554 1590.9739 1717.9746
1894.5466 0.000528 1591.2700 1727.2289
1824.6922 0.000548 1591.5661 1737.6520
1865.8233 0.000536 1591.8623 1749.4245
1919.6444 0.000521 1592.1584 1762.7483
1940.4492 0.000515 1592.4545 1777.8472
1945.3156 0.000514 1592.7507 1794.9659
1971.2963 0.000507 1593.0468 1814.3684
2096.7054 0.000477 1593.3429 1836.3359
2080.4554 0.000481 1593.6390 1861.1628
2107.0416 0.000475 1593.8298 1889.0460
2083.9993 0.000480 1594.0206 1920.3942
2215.0814 0.000451 1594.2113 1955.5026
2295.2690 0.000436 1594.4021 1994.6471
2219.5008 0.000451 1594.5929 2038.0706
2235.4281 0.000447 1594.7836 2085.9664
2249.3729 0.000445 1594.9744 2138.4598
2359.3419 0.000424 1595.1652 2195.5878
2437.6654 0.000410 1595.3559 2257.2795
2519.6132 0.000397 1595.5467 2323.3388
2698.6991 0.000371 1595.7374 2393.4336
2680.3296 0.000373 1595.9282 2467.0948
2677.4104 0.000373 1596.1190 2543.7243
2942.7947 0.000340 1596.3097 2622.6115
2870.9420 0.000348 1596.5005 2702.9502
2939.0728 0.000340 1596.6913 2783.8495
3071.3191 0.000326 1596.8820 2864.3188
3136.3778 0.000319 1597.0728 2943.3118
3299.6577 0.000303 1597.2636 3019.6331
3259.9565 0.000307 1597.4543 3091.9873
3338.8660 0.000300 1597.6451 3158.9773
3357.7295 0.000298 1597.8359 3219.1412
3373.7183 0.000296 1598.0266 3271.0219
3372.0724 0.000297 1598.2174 3313.2747
3499.6265 0.000286 1598.4081 3344.8026
3436.3210 0.000291 1598.5989 3364.8259
3507.7444 0.000285 1598.7897 3373.2724
3566.1297 0.000280 1598.9804 3370.3385
3603.4142 0.000278 1599.1712 3356.9462
3457.5339 0.000289 1599.3620 3334.2490
3388.4687 0.000295 1599.5527 3303.6134
3257.8435 0.000307 1599.7435 3266.7202
3309.5150 0.000302 1599.9343 3224.9332
3347.0218 0.000299 1600.1250 3179.4989
3347.6692 0.000299 1600.3158 3131.3885
3186.4288 0.000314 1600.5066 3081.2663
3084.0489 0.000324 1600.6973 3029.4997
3100.9786 0.000322 1600.8881 2976.2049
2998.2535 0.000334 1601.0788 2921.3221
3097.4870 0.000323 1601.2696 2864.7619
2890.6301 0.000346 1601.4604 2806.3126
2867.2303 0.000349 1601.6511 2746.0000
2777.1955 0.000360 1601.8419 2684.0585
2767.1423 0.000361 1602.0327 2620.8396
2608.9745 0.000383 1602.1423 2556.7762
2610.8943 0.000383 1602.2520 2492.6928
2700.8092 0.000370 1602.3617 2429.2759
2438.2032 0.000410 1602.4714 2367.2594
2497.0177 0.000400 1602.5810 2307.2476
2392.5002 0.000418 1602.6907 2249.8185
2341.6900 0.000427 1602.8004 2195.3876
2322.6688 0.000431 1602.9101 2144.2750
2223.1022 0.000450 1603.0197 2096.6822
2203.6799 0.000454 1603.1294 2052.7136
2175.3098 0.000460 1603.2391 2012.3930
2188.2825 0.000457 1603.3488 1975.6782
2085.5049 0.000480 1603.4585 1942.5174
1955.0187 0.000512 1603.5681 1912.6910
2010.3145 0.000497 1603.6778 1886.0752
2075.1968 0.000482 1603.7875 1862.4808
1940.0545 0.000515 1603.8972 1841.7028
2001.2114 0.000500 1604.0068 1823.5263
2013.4679 0.000497 1604.1165 1807.7310
1935.8116 0.000517 1604.2262 1794.0967
1862.2454 0.000537 1604.3359 1782.4166
1790.3657 0.000559 1604.4455 1772.4573
1898.5052 0.000527 1604.5552 1764.0292
1918.1215 0.000521 1604.6649 1756.9288
1872.2091 0.000534 1604.7746 1750.9734
1814.0268 0.000551 1604.8842 1745.9846
1894.7403 0.000528 1604.9939 1741.7926
1833.8809 0.000545 1605.1036 1738.2359
1796.1690 0.000557 1605.2133 1735.1623
1821.0278 0.000549 1605.3229 1732.4318
1787.0404 0.000560 1605.4326 1729.8143
1809.0648 0.000553 1605.5423 1727.4185
1759.1291 0.000568 1605.6520 1725.0583
1850.3858 0.000540 1605.7616 1722.6805
1800.5363 0.000555 1605.8713 1720.2561
1833.8531 0.000545 1605.9810 1717.7760
1822.1766 0.000549 1606.0907 1715.2445
1780.2753 0.000562 1606.2003 1712.6728
1803.1633 0.000555 1606.3100 1710.0740
1774.5349 0.000564 1606.4197 1707.4601
1762.1271 0.000567 1606.5294 1704.8405
1748.7907 0.000572 1606.6390 1702.2191
1768.7357 0.000565 1606.7487 1699.6042
1758.1319 0.000569 1606.8584 1696.9930
1739.5823 0.000575 1606.8885 1694.3027
1749.0599 0.000572 1606.9186 1691.5542
1722.6612 0.000580 1606.9488 1688.8472
1722.2804 0.000581 1606.9789 1686.1150
1719.5863 0.000582 1607.0090 1683.3725
1673.0598 0.000598 1607.0391 1680.6162
1698.9230 0.000589 1607.0692 1677.8552
1675.4108 0.000597 1607.0993 1675.1026
1678.4274 0.000596 1607.1295 1672.3729
1745.5253 0.000573 1607.1596 1669.6805
1699.3821 0.000588 1607.1897 1667.0380
1702.1904 0.000587 1607.2198 1664.4585
1628.4504 0.000614 1607.2499 1661.9467
1671.0574 0.000598 1607.2801 1659.5158
1753.2715 0.000570 1607.3102 1657.1730
1691.3630 0.000591 1607.3403 1654.9257
1670.8931 0.000598 1607.3704 1652.7808
1653.6257 0.000605 1607.4005 1650.7440
1710.3875 0.000585 1607.4306 1648.8150
1737.8274 0.000575 1607.4608 1647.0039
1681.0075 0.000595 1607.4909 1645.3065
1597.5085 0.000626 1607.5210 1643.7214
1614.0202 0.000620 1607.5511 1642.2457
1680.5973 0.000595 1607.5812 1640.8753
1668.5989 0.000599 1607.6114 1639.6052
1690.7051 0.000591 1607.6415 1638.4300
1634.4244 0.000612 1607.6716 1637.3436
1621.1681 0.000617 1607.7017 1636.3401
1614.8958 0.000619 1607.7318 1635.4140
1611.4266 0.000621 1607.7619 1634.5574
1612.5680 0.000620 1607.7921 1633.7655
1590.3408 0.000629 1607.8222 1633.0324
1612.8112 0.000620 1607.8523 1632.3529
1652.0405 0.000605 1607.8824 1631.7219
1677.2402 0.000596 1607.9125 1631.1347
1677.3760 0.000596 1607.9427 1630.5871
1637.5997 0.000611 1607.9728 1630.0753
1632.8880 0.000612 1608.0029 1629.5957
1609.0693 0.000621 1608.0330 1629.1452
1597.2000 0.000626 1608.0631 1628.7211
1643.7117 0.000608 1608.0932 1628.3208
1647.6801 0.000607 1608.1234 1627.9422
1628.2082 0.000614 1608.1535 1627.5832
1623.0000 0.000616 1608.1836 1627.2421
1619.2667 0.000618 1608.2137 1626.9175
1603.8643 0.000623 1608.2438 1626.6080
1591.5868 0.000628 1608.2740 1626.3125
1621.5004 0.000617 1608.3041 1626.0302
1595.4652 0.000627 1608.3342 1625.7605
1619.3987 0.000618 1608.3643 1625.4937
1649.0741 0.000606 1608.3944 1625.2478
1612.7777 0.000620 1608.4245 1625.0133
1615.8578 0.000619 1608.4547 1624.7855
1602.7663 0.000624 1608.4848 1624.5735
1595.7200 0.000627 1608.5149 1624.3725
1611.7805 0.000620 1608.5450 1624.1825
1658.0190 0.000603 1608.5751 1624.0035
1649.7935 0.000606 1608.6053 1623.8354
1590.3499 0.000629 1608.6354 1623.6784
1603.9177 0.000623 1608.6655 1623.5326
1644.0461 0.000608 1608.6956 1623.3982
1601.7027 0.000624 1608.7257 1623.2755
1579.0000 0.000633 1608.7558 1623.1651
1620.7565 0.000617 1608.7860 1623.0677
1571.0592 0.000637 1608.8161 1622.9796
1546.5248 0.000647 1608.8462 1622.9111
1573.0777 0.000636 1608.8763 1622.8590
1600.4464 0.000625 1608.9064 1622.8225
1589.5699 0.000629 1608.9366 1622.8081
1593.2387 0.000628 1608.9667 1622.8157
1614.5770 0.000619 1608.9968 1622.8476
1617.2779 0.000618 1609.0269 1622.9066
1592.1547 0.000628 1609.0570 1622.9956
1600.4083 0.000625 1609.0871 1623.1180
1608.6668 0.000622 1609.1173 1623.2774
1617.9587 0.000618 1609.1474 1623.4777
1605.8076 0.000623 1609.1775 1623.7229
1611.4887 0.000621 1609.2076 1624.0175
1637.3654 0.000611 1609.2377 1624.3657
1635.8949 0.000611 1609.2679 1624.7721
1618.9403 0.000618 1609.2980 1625.2409
1628.5496 0.000614 1609.3281 1625.7764
1582.8005 0.000632 1609.3582 1626.3820
1583.2004 0.000632 1609.3883 1627.0608
1600.0000 0.000625 1609.4184 1627.8148
1605.7350 0.000623 1609.4486 1628.6451
1669.2828 0.000599 1609.4787 1629.5510
1633.8606 0.000612 1609.5088 1630.5304
1586.7078 0.000630 1609.4594 1631.4998
1586.1327 0.000630 1609.4099 1632.5330
1569.9075 0.000637 1609.3605 1633.6226
1611.1817 0.000621 1609.3110 1634.7596
1644.2371 0.000608 1609.2616 1635.9332
1612.9746 0.000620 1609.2122 1637.1318
1602.1981 0.000624 1609.1627 1638.3418
1568.3152 0.000638 1609.1133 1639.5479
1639.0428 0.000610 1609.0638 1640.7329
1705.2364 0.000586 1609.0144 1641.8775
1629.6714 0.000614 1608.9650 1642.9606
1615.7911 0.000619 1608.9155 1643.9601
1679.8173 0.000595 1608.8661 1644.8542
1676.2740 0.000597 1608.8166 1645.6222
1665.4696 0.000600 1608.7672 1646.2456
1604.2440 0.000623 1608.7178 1646.7097
1612.7188 0.000620 1608.6683 1647.0038
1642.0746 0.000609 1608.6189 1647.1224
1632.0941 0.000613 1608.5695 1647.0660
1605.1242 0.000623 1608.5200 1646.8412
1581.8175 0.000632 1608.4706 1646.4608
1576.8537 0.000634 1608.4211 1645.9426
1596.5380 0.000626 1608.3717 1645.4383
1604.6182 0.000623 1608.3223 1644.7095
1602.9561 0.000624 1608.2728 1643.9068
1598.1251 0.000626 1608.2234 1643.0482
1628.9484 0.000614 1608.1739 1642.1478
1665.8002 0.000600 1608.1245 1641.2153
1640.9488 0.000609 1608.0751 1640.2566
1616.0000 0.000619 1608.0256 1639.2745
1639.6134 0.000610 1607.9762 1638.2698
1678.6732 0.000596 1607.9267 1637.2419
1635.7247 0.000611 1607.8773 1636.1902
1547.0379 0.000646 1607.8279 1635.1146
1557.6162 0.000642 1607.7784 1634.0165
1629.2914 0.000614 1607.7290 1632.9894
1654.7349 0.000604 1607.6795 1631.8594
1635.6165 0.000611 1607.6301 1630.7238
1641.5284 0.000609 1607.5807 1629.5920
1674.2287 0.000597 1607.5312 1628.4742
1626.8724 0.000615 1607.4818 1627.4461
1623.4987 0.000616 1607.4323 1626.3870
1635.8016 0.000611 1607.3829 1625.3699
1612.8035 0.000620 1607.3335 1624.4015
1592.8049 0.000628 1607.2278 1623.4302
1560.9453 0.000641 1607.1222 1622.5155
1591.4253 0.000628 1607.0166 1621.6592
1594.2773 0.000627 1606.9110 1620.8617
1582.5387 0.000632 1606.8054 1620.1226
1598.0063 0.000626 1606.6998 1619.4405
1621.7799 0.000617 1606.5941 1618.8137
1627.7829 0.000614 1606.4885 1618.2397
1582.4785 0.000632 1606.3829 1617.7159
1590.6555 0.000629 1606.2773 1617.2391
1575.5504 0.000635 1606.1717 1616.8518
1582.3029 0.000632 1606.0660 1616.4602
1647.4798 0.000607 1605.9604 1616.1063
1638.9354 0.000610 1605.8548 1615.7870
1619.5117 0.000617 1605.7492 1615.4992
1602.8673 0.000624 1605.6436 1615.2402
1596.0000 0.000627 1605.5379 1615.0073
1568.0155 0.000638 1605.4323 1614.7981
1577.7366 0.000634 1605.3267 1614.6105
1607.0961 0.000622 1605.2211 1614.4427
1568.9559 0.000637 1605.1155 1614.2929
1548.1771 0.000646 1605.0098 1614.1598
1559.1389 0.000641 1604.9042 1614.0424
1562.3889 0.000640 1604.7986 1613.9395
1591.3249 0.000628 1604.6930 1613.8507
1617.5163 0.000618 1604.5874 1613.7755
1588.1934 0.000630 1604.4817 1613.7135
1597.3192 0.000626 1604.3761 1613.6649
1629.1565 0.000614 1604.2705 1613.6297
1656.2717 0.000604 1604.1649 1613.6084
1614.2338 0.000619 1604.0593 1613.3707
1591.0132 0.000629 1603.9537 1613.4301
1621.9231 0.000617 1603.8480 1613.4575
1619.5436 0.000617 1603.7424 1613.5315
1579.7372 0.000633 1603.6368 1613.5971
1569.5102 0.000637 1603.5312 1613.6850
1564.6860 0.000639 1603.4256 1613.4884
1594.7159 0.000627 1603.3199 1613.6327
1632.2509 0.000613 1603.2143 1613.8192
1605.4846 0.000623 1603.1087 1614.0342
1599.0393 0.000625 1603.0031 1614.2928
1611.7859 0.000620 1602.8975 1614.6089
1647.4092 0.000607 1602.7918 1613.9456
1592.6806 0.000628 1602.6862 1614.3902
1567.9420 0.000638 1602.5251 1614.8576
1607.9914 0.000622 1602.3639 1615.0287
1588.5539 0.000630 1602.2028 1615.5778
1604.3394 0.000623 1602.0416 1616.3601
1623.4328 0.000616 1601.8805 1617.2750
1595.0480 0.000627 1601.7194 1618.3632
1602.6483 0.000624 1601.5582 1619.5930
1631.4181 0.000613 1601.3971 1620.8645
1666.4051 0.000600 1601.2359 1622.4785
1647.0012 0.000607 1601.0748 1624.3089
1603.5287 0.000624 1600.9136 1626.3710
1603.6234 0.000624 1600.7525 1628.6783
1657.2754 0.000603 1600.5914 1631.2420
1623.1491 0.000616 1600.4302 1633.5574
1652.9954 0.000605 1600.2691 1636.6588
1662.8508 0.000601 1600.1079 1640.0318
1643.7803 0.000608 1599.9468 1643.6637
1643.6774 0.000608 1599.7856 1647.3528
1662.8483 0.000601 1599.6245 1651.4644
1656.8800 0.000604 1599.4633 1655.7746
1670.9618 0.000598 1599.3022 1660.2426
1721.1852 0.000581 1599.1411 1664.8150
1655.3219 0.000604 1598.9799 1669.4254
1667.9820 0.000600 1598.8188 1673.9939
1709.2481 0.000585 1598.6576 1678.4289
1699.1693 0.000589 1598.4965 1682.6307
1652.6731 0.000605 1598.3353 1686.4985
1682.5451 0.000594 1598.1742 1689.9389
1693.8354 0.000590 1598.0130 1692.8760
1708.9728 0.000585 1597.8519 1695.2595
1702.9435 0.000587 1597.6908 1697.0702
1672.2688 0.000598 1597.5296 1698.3189
1732.2598 0.000577 1597.3685 1699.0413
1761.5981 0.000568 1597.2073 1699.2887
1697.1252 0.000589 1597.0462 1699.1184
1729.9866 0.000578 1596.8850 1698.5849
1778.8938 0.000562 1596.7239 1697.7352
1729.1763 0.000578 1596.5628 1696.6061
1707.4443 0.000586 1596.4016 1695.2252
1734.9005 0.000576 1596.2405 1693.6120
1740.4179 0.000575 1596.0793 1691.7797
1675.7318 0.000597 1595.9182 1689.7368
1667.9030 0.000600 1595.7570 1687.4870
1681.8493 0.000595 1595.5959 1685.0322
1674.0304 0.000597 1595.4347 1682.3739
1707.3409 0.000586 1595.2736 1679.5161
1742.4442 0.000574 1595.1125 1676.4693
1754.9159 0.000570 1594.9513 1673.2520
1731.3311 0.000578 1594.7902 1669.8906
1629.9070 0.000614 1594.6290 1666.4181
1666.6102 0.000600 1594.4679 1662.8700
1708.2582 0.000585 1594.3067 1659.2811
1718.9668 0.000582 1594.1456 1655.6442
1719.9293 0.000581 1593.9844 1652.0619
1645.0071 0.000608 1593.8233 1648.5169
1679.8923 0.000595 1593.6622 1645.0268
1722.3055 0.000581 1593.5010 1641.6076
1751.9689 0.000571 1593.3399 1638.2743
1722.1824 0.000581 1593.1787 1635.0424
1645.4776 0.000608 1593.0176 1631.9272
1728.8475 0.000578 1592.8564 1628.9315
1685.3732 0.000593 1592.6953 1626.0916
1619.8869 0.000617 1592.5342 1623.4061
1698.8096 0.000589 1592.3730 1620.8824
1696.2823 0.000590 1592.2119 1618.5246
1653.1900 0.000605 1592.0507 1616.3340
1620.6552 0.000617 1591.8896 1614.3089
1661.2585 0.000602 1591.7284 1612.4453
1631.6544 0.000613 1591.5673 1610.7187
1603.6556 0.000624 1591.4061 1609.1601
1669.3774 0.000599 1591.2450 1607.7422
1654.0946 0.000605 1591.0839 1606.4563
1619.3656 0.000618 1590.9227 1605.2934
1674.2142 0.000597 1590.7616 1604.2441
1641.3548 0.000609 1590.6004 1603.2994
1595.5923 0.000627 1590.4393 1602.4500
1579.3411 0.000633 1590.2781 1601.6817
1622.2447 0.000616 1590.1170 1600.9973
1617.3245 0.000618 1589.9559 1600.3831
1601.9262 0.000624 1589.7947 1599.8313
1568.8932 0.000637 1589.6336 1599.3349
1586.2758 0.000630 1589.4724 1598.8870
1613.1950 0.000620 1589.3113 1598.4813
1637.8406 0.000611 1589.1501 1598.1120
1612.3763 0.000620 1588.9890 1597.7738
1684.4144 0.000594 1588.8278 1597.4619
1588.1001 0.000630 1588.6667 1597.1718
1551.7558 0.000644 1588.5056 1596.8994
1595.4053 0.000627 1588.5321 1596.8286
1585.1183 0.000631 1588.5587 1596.7693
1573.6128 0.000635 1588.5852 1596.7157
1578.1174 0.000634 1588.6118 1596.6658
1640.9408 0.000609 1588.6383 1596.6167
1617.6991 0.000618 1588.6649 1596.5662
1644.6877 0.000608 1588.6914 1596.5124
1611.9277 0.000620 1588.7180 1596.4544
1637.8563 0.000611 1588.7445 1596.3920
1609.6973 0.000621 1588.7711 1596.3256
1600.8425 0.000625 1588.7976 1596.2610
1629.8919 0.000614 1588.8242 1596.1896
1572.0587 0.000636 1588.8507 1596.1176
1591.6274 0.000628 1588.8773 1596.0463
1577.3599 0.000634 1588.9038 1595.9767
1558.5717 0.000642 1588.9304 1595.9099
1660.0447 0.000602 1588.9569 1595.8486
1612.9462 0.000620 1588.9835 1595.7887
1593.7684 0.000627 1589.0101 1595.7324
1570.7191 0.000637 1589.0366 1595.6797
1594.1670 0.000627 1589.0632 1595.6305
1600.8972 0.000625 1589.0897 1595.5834
1575.2091 0.000635 1589.1163 1595.5382
1593.8470 0.000627 1589.1428 1595.4946
1664.0916 0.000601 1589.1694 1595.4524
1643.2175 0.000609 1589.1959 1595.4118
1616.8107 0.000619 1589.2225 1595.3727
1619.0560 0.000618 1589.2490 1595.3363
1558.3559 0.000642 1589.2756 1595.3030
1571.1123 0.000636 1589.3021 1595.2761
1550.7941 0.000645 1589.3287 1595.2515
1563.7601 0.000639 1589.3552 1595.2322
1615.5179 0.000619 1589.3818 1595.2188
1689.0034 0.000592 1589.4083 1595.2120
1583.2130 0.000632 1589.4349 1595.2120
1560.2551 0.000641 1589.4614 1595.2203
1578.6339 0.000633 1589.4880 1595.2347
1592.3113 0.000628 1589.5146 1595.2567
1654.9943 0.000604 1589.5411 1595.2861
1592.8246 0.000628 1589.5677 1595.3230
1635.4649 0.000611 1589.5942 1595.3675
1538.9027 0.000650 1589.6208 1595.4195
1595.3739 0.000627 1589.6473 1595.4788
1621.4799 0.000617 1589.6739 1595.5456
1587.7809 0.000630 1589.8772 1595.7966
1560.9449 0.000641 1590.0806 1596.0548
1584.2202 0.000631 1590.2840 1596.3202
1590.1021 0.000629 1590.4873 1596.5929
1593.4391 0.000628 1590.6907 1596.8726
1604.9627 0.000623 1590.8940 1597.1596
1537.3793 0.000650 1591.0974 1597.4538
1589.1401 0.000629 1591.3008 1597.7552
1595.2896 0.000627 1591.5041 1598.0639
1608.5495 0.000622 1591.7075 1598.3857
1584.0767 0.000631 1591.9108 1598.7278
1588.3026 0.000630 1592.1142 1599.0598
1534.7709 0.000652 1592.3176 1599.3998
1611.1836 0.000621 1592.5209 1599.7715
1635.8458 0.000611 1592.7243 1600.1289
1603.0220 0.000624 1592.9276 1600.4955
1613.9927 0.000620 1593.1310 1600.9075
1608.0200 0.000622 1593.3344 1601.2941
1623.9040 0.000616 1593.5377 1601.6916
1581.3729 0.000632 1593.7411 1602.1005
1600.7732 0.000625 1593.9445 1602.5217
1626.6357 0.000615 1594.1478 1603.0236
1574.8840 0.000635 1594.3512 1603.4727
1603.4196 0.000624 1594.5545 1603.9599
1612.8018 0.000620 1594.7579 1604.4415
1571.0615 0.000637 1594.9613 1604.9416
1583.6170 0.000631 1595.1646 1605.5069
1611.1593 0.000621 1595.3680 1606.0507
1559.7654 0.000641 1595.5713 1606.6228
1623.5954 0.000616 1595.7747 1607.2212
1593.2930 0.000628 1595.9781 1607.8614
1606.3895 0.000623 1596.1814 1608.5262
1614.6531 0.000619 1596.3848 1609.2376
1573.0257 0.000636 1596.5881 1610.0097
1626.1750 0.000615 1596.7915 1610.8268
1643.2294 0.000609 1596.9949 1611.7173
1604.2699 0.000623 1597.1982 1612.6835
1592.5671 0.000628 1597.4016 1613.7277
1633.3872 0.000612 1597.6050 1614.8702
1631.3103 0.000613 1597.8083 1616.1276
1625.3883 0.000615 1598.0117 1617.5417
1581.1673 0.000632 1598.2150 1619.0733
1596.5988 0.000626 1598.4184 1620.7750
1608.2000 0.000622 1598.6218 1622.6753
1611.7738 0.000620 1598.7324 1624.6786
1669.1599 0.000599 1598.8429 1626.9366
1631.7138 0.000613 1598.9535 1629.4165
1587.6698 0.000630 1599.0641 1632.1770
1664.4256 0.000601 1599.1747 1635.2389
1622.7920 0.000616 1599.2853 1638.6244
1686.1442 0.000593 1599.3959 1642.3495
1648.6099 0.000607 1599.5065 1646.4314
1617.8057 0.000618 1599.6171 1650.8841
1676.2396 0.000597 1599.7277 1655.7171
1663.2459 0.000601 1599.8383 1660.9367
1708.4480 0.000585 1599.9489 1666.5414
1792.5466 0.000558 1600.0595 1672.5215
1693.4314 0.000591 1600.1701 1678.8676
1653.3829 0.000605 1600.2807 1685.5493
1688.9210 0.000592 1600.3912 1692.5333
1682.5353 0.000594 1600.5018 1699.7671
1664.2946 0.000601 1600.6124 1707.1868
1770.6936 0.000565 1600.7230 1714.7700
1747.5487 0.000572 1600.8336 1722.2988
1700.1813 0.000588 1600.9442 1729.7246
1701.8170 0.000588 1601.0548 1736.9230
1749.7578 0.000572 1601.1654 1743.7755
1757.8632 0.000569 1601.2760 1750.1677
1759.7211 0.000568 1601.3866 1756.0082
1754.8527 0.000570 1601.4972 1761.2620
1694.1353 0.000590 1601.6078 1765.8587
1770.1066 0.000565 1601.7184 1769.8404
1717.0103 0.000582 1601.8290 1773.2580
1795.6507 0.000557 1601.9395 1776.1838
1859.2939 0.000538 1602.0501 1778.7220
1761.9251 0.000568 1602.1607 1780.8981
1751.2312 0.000571 1602.2713 1782.7911
1754.6731 0.000570 1602.3819 1784.4303
1819.2070 0.000550 1602.4925 1785.8125
1777.9727 0.000562 1602.6031 1786.9056
1795.9982 0.000557 1602.7137 1787.6506
1843.2925 0.000543 1602.8243 1787.9699
1878.3418 0.000532 1602.9349 1787.8107
1712.5128 0.000584 1603.0455 1787.0286
1776.4126 0.000563 1603.1561 1785.5929
1745.1985 0.000573 1603.2667 1783.4688
1807.7505 0.000553 1603.3772 1780.6562
1747.2557 0.000572 1603.4878 1777.1915
1790.3447 0.000559 1603.5232 1773.0693
1722.9411 0.000580 1603.5586 1768.4738
1787.9940 0.000559 1603.5940 1763.4937
1791.4185 0.000558 1603.6294 1758.2607
1778.2386 0.000562 1603.6647 1752.8904
1793.4641 0.000558 1603.7001 1747.4865
1764.7715 0.000567 1603.7355 1742.1473
1800.9436 0.000555 1603.7709 1736.9141
1761.9220 0.000568 1603.8063 1731.8440
1706.4932 0.000586 1603.8416 1726.9627
1779.2916 0.000562 1603.8770 1722.2799
1797.5553 0.000556 1603.9124 1717.7954
1740.1899 0.000575 1603.9478 1713.5035
1752.5814 0.000571 1603.9832 1709.3998
1645.5297 0.000608 1604.0185 1705.4854
1690.0147 0.000592 1604.0539 1701.7707
1682.6570 0.000594 1604.0893 1698.2759
1711.8515 0.000584 1604.1247 1695.0299
1747.5329 0.000572 1604.1601 1692.0672
1728.5240 0.000579 1604.1954 1689.4239
1659.6970 0.000603 1604.2308 1687.1343
1646.0090 0.000608 1604.2662 1685.2278
1706.3791 0.000586 1604.3016 1683.7268
1790.8829 0.000558 1604.3370 1682.6456
1746.1199 0.000573 1604.3723 1681.9902
1665.2455 0.000601 1604.4077 1681.7578
1692.9553 0.000591 1604.4431 1681.9372
1704.1192 0.000587 1604.4785 1682.5088
1679.2945 0.000595 1604.5139 1683.4442
1723.5432 0.000580 1604.5492 1684.7063
1691.3760 0.000591 1604.5846 1686.2484
1668.3779 0.000599 1604.6200 1688.0148
1746.3936 0.000573 1604.6554 1689.9398
1774.8427 0.000563 1604.6908 1691.9496
1740.3282 0.000575 1604.7261 1693.9638
1739.8476 0.000575 1604.7615 1695.8986
1735.0448 0.000576 1604.7969 1697.6714
1728.8748 0.000578 1604.8323 1699.2068
1728.0000 0.000579 1604.8676 1700.4416
1768.7785 0.000565 1604.9030 1701.3300
1748.8784 0.000572 1604.9384 1701.8467
1708.5791 0.000585 1604.9738 1701.9872
1766.1169 0.000566 1605.0092 1701.7649
1743.3775 0.000574 1605.0445 1701.2090
1736.5536 0.000576 1605.0799 1700.3580
1768.7343 0.000565 1605.1153 1699.2552
1738.2520 0.000575 1605.1507 1697.9443
1749.6776 0.000572 1605.1861 1696.4662
1765.3581 0.000566 1605.2214 1694.8563
1708.5071 0.000585 1605.2568 1693.1435
1695.8218 0.000590 1605.2922 1691.3491
1751.3155 0.000571 1605.3276 1689.4864
1750.9383 0.000571 1605.3630 1687.5611
1694.3974 0.000590 1605.3983 1685.5716
1719.7390 0.000581 1605.4337 1683.5110
1733.4340 0.000577 1605.4691 1681.3696
1667.4912 0.000600 1605.5045 1679.1371
1679.8874 0.000595 1605.5399 1676.8060
1708.8713 0.000585 1605.5752 1674.3740
1736.0388 0.000576 1605.6106 1671.8449
1790.4098 0.000559 1605.6460 1669.2291
1727.3002 0.000579 1605.6814 1666.5425
1715.2930 0.000583 1605.7168 1663.8050
1713.9123 0.000583 1605.7521 1661.0384
1736.9994 0.000576 1605.7875 1658.1817
1665.1159 0.000601 1605.8229 1655.4242
1677.6255 0.000596 1605.8583 1652.7018
1726.0535 0.000579 1605.8937 1650.0330
1673.1864 0.000598 1605.9290 1647.4340
1648.5911 0.000607 1605.9644 1644.9195
1623.3627 0.000616 1605.9998 1642.5021
1641.0602 0.000609 1606.0352 1640.1925
1640.0150 0.000610 1606.0706 1637.9991
1591.3218 0.000628 1606.1059 1635.9067
1584.0222 0.000631 1606.1413 1633.9632
1618.4937 0.000618 1606.1767 1632.1409
1631.9784 0.000613 1606.2121 1630.4560
1625.1868 0.000615 1606.2475 1628.8990
1619.6041 0.000617 1606.2828 1627.4670
1631.1190 0.000613 1606.3182 1626.1558
1692.8347 0.000591 1606.3536 1624.9181
1687.6314 0.000593 1606.3890 1623.8326
1676.6493 0.000596 1606.4244 1622.8504
1645.0769 0.000608 1606.4597 1621.9648
1596.5108 0.000626 1606.4951 1621.1687
1611.2743 0.000621 1606.5305 1620.4551
1663.3475 0.000601 1606.5659 1619.8172
1657.1018 0.000603 1606.6013 1619.2481
1651.5966 0.000605 1606.5614 1618.6662
1630.9616 0.000613 1606.5216 1618.1406
1569.7147 0.000637 1606.4818 1617.6544
1541.4357 0.000649 1606.4419 1617.2242
1571.8891 0.000636 1606.4021 1616.8301
1592.6463 0.000628 1606.3623 1616.4752
1623.9332 0.000616 1606.3224 1616.1516
1647.1247 0.000607 1606.2826 1615.8554
1632.9811 0.000612 1606.2427 1615.5832
1619.6138 0.000617 1606.2029 1615.3321
1623.6385 0.000616 1606.1631 1615.0995
1618.5983 0.000618 1606.1232 1614.8832
1617.1040 0.000618 1606.0834 1614.6813
1594.4320 0.000627 1606.0436 1614.4923
1563.1158 0.000640 1606.0037 1614.3149
1564.3871 0.000639 1605.9639 1614.1482
1583.2398 0.000632 1605.9241 1613.9913
1618.7116 0.000618 1605.8842 1613.8436
1619.0298 0.000618 1605.8444 1613.7046
1613.0396 0.000620 1605.8046 1613.5738
1595.9407 0.000627 1605.7647 1613.4509
1561.7725 0.000640 1605.7249 1613.3356
1592.4912 0.000628 1605.6851 1613.2276
1625.4455 0.000615 1605.6452 1613.1266
1635.7060 0.000611 1605.6054 1613.0325
1642.9443 0.000609 1605.5656 1612.9449
1652.5842 0.000605 1605.5257 1612.8639
1623.4797 0.000616 1605.4859 1612.7892
1593.9318 0.000627 1605.4461 1612.7209
1604.5357 0.000623 1605.4062 1612.6588
1564.0830 0.000639 1605.3664 1612.6031
1560.2690 0.000641 1605.3266 1612.5539
1599.8951 0.000625 1605.2867 1612.5115
1600.1262 0.000625 1605.2469 1612.4761
1581.5535 0.000632 1605.2071 1612.4483
1606.7049 0.000622 1605.1672 1612.4278
1621.4748 0.000617 1605.1274 1612.4164
1580.9498 0.000633 1605.0876 1612.4139
1558.8155 0.000642 1605.0477 1612.4212
1569.7513 0.000637 1605.0079 1612.4388
1645.5537 0.000608 1604.9681 1612.4675
1662.8963 0.000601 1604.9282 1612.5507
1581.4229 0.000632 1604.8884 1612.6042
1557.8765 0.000642 1604.8486 1612.6713
1626.3923 0.000615 1605.0540 1612.9979
1648.4163 0.000607 1605.2593 1613.3379
1592.5239 0.000628 1605.4647 1613.6957
1600.7483 0.000625 1605.6701 1614.2775
1627.6768 0.000614 1605.8755 1614.6710
1606.0000 0.000623 1606.0809 1615.0826
1599.8561 0.000625 1606.2862 1615.5131
1582.4041 0.000632 1606.4916 1615.9627
1583.4388 0.000632 1606.6970 1616.4315
1611.3402 0.000621 1606.9024 1616.9198
1631.8507 0.000613 1607.1078 1617.7078
1611.2149 0.000621 1607.3131 1618.2355
1571.8457 0.000636 1607.5185 1618.7809
1611.6551 0.000620 1607.7239 1619.6132
1597.3658 0.000626 1607.9293 1620.1918
1539.9195 0.000649 1608.1347 1620.7838
1571.8043 0.000636 1608.3400 1621.3872
1584.7678 0.000631 1608.5454 1621.9999
1624.6591 0.000616 1608.7508 1622.7585
1634.6067 0.000612 1608.9562 1623.4041
1677.3422 0.000596 1609.1616 1624.1715
1626.4820 0.000615 1609.3669 1624.7983
1601.6380 0.000624 1609.5723 1625.4205
1630.5413 0.000613 1609.7777 1626.0346
1618.0230 0.000618 1609.9831 1626.7402
1606.6898 0.000622 1610.1885 1627.3279
1623.7488 0.000616 1610.3938 1627.8972
1597.5161 0.000626 1610.5992 1628.4459
1586.9827 0.000630 1610.8046 1628.9727
1597.3578 0.000626 1611.0100 1629.4775
1618.1110 0.000618 1611.2154 1629.9614
1653.3018 0.000605 1611.4207 1630.5665
1642.7389 0.000609 1611.6261 1631.0171
1627.1279 0.000615 1611.8315 1631.4561
1596.1794 0.000626 1612.0369 1631.8881
1596.2530 0.000626 1612.2423 1632.4540
1606.3053 0.000623 1612.4476 1632.8886
1629.3126 0.000614 1612.6530 1633.3327
1652.7587 0.000605 1612.8584 1633.7922
1613.7815 0.000620 1613.0638 1634.2734
1590.1139 0.000629 1613.2692 1634.8519
1646.4005 0.000607 1613.4745 1635.3950
1646.7388 0.000607 1613.6799 1636.0484
1638.6099 0.000610 1613.8853 1636.6780
1586.2209 0.000630 1614.0025 1637.2723
1613.9659 0.000620 1614.1198 1637.9268
1610.2872 0.000621 1614.2370 1638.6495
1618.5291 0.000618 1614.3542 1639.4499
1606.5654 0.000622 1614.4715 1640.3387
1630.2589 0.000613 1614.5887 1641.3281
1617.8555 0.000618 1614.7059 1642.4318
1689.0561 0.000592 1614.8231 1643.6969
1704.8447 0.000587 1614.9404 1645.0760
1705.6721 0.000586 1615.0576 1646.6184
1687.7853 0.000592 1615.1748 1648.3429
1688.1710 0.000592 1615.2921 1650.2689
1698.0114 0.000589 1615.4093 1652.4163
1647.6973 0.000607 1615.5265 1654.8056
1640.0986 0.000610 1615.6438 1657.4567
1615.3757 0.000619 1615.7610 1660.3893
1622.4091 0.000616 1615.8782 1663.6220
1694.7172 0.000590 1615.9955 1667.2053
1720.5496 0.000581 1616.1127 1671.0874
1746.5804 0.000573 1616.2299 1675.3139
1732.8328 0.000577 1616.3471 1679.8936
1687.0648 0.000593 1616.4644 1684.8310
1706.9677 0.000586 1616.5816 1690.1257
1718.3751 0.000582 1616.6988 1695.7711
1698.2663 0.000589 1616.8161 1701.7537
1715.3630 0.000583 1616.9333 1708.0524
1746.9600 0.000572 1617.0505 1714.6376
1682.3938 0.000594 1617.1678 1721.4713
1744.4503 0.000573 1617.2850 1728.5067
1726.0826 0.000579 1617.4022 1735.7053
1772.2865 0.000564 1617.5194 1742.9737
1700.9780 0.000588 1617.6367 1750.2611
1772.4637 0.000564 1617.7539 1757.4974
1752.0182 0.000571 1617.8711 1764.6109
1750.9810 0.000571 1617.9884 1771.5301
1795.6513 0.000557 1618.1056 1778.1846
1750.3095 0.000571 1618.2228 1784.5066
1764.3746 0.000567 1618.3401 1790.4313
1765.2041 0.000567 1618.4573 1795.8976
1798.2667 0.000556 1618.5745 1800.8647
1801.8494 0.000555 1618.6917 1805.2466
1784.6119 0.000560 1618.8090 1809.0133
1811.9572 0.000552 1618.9262 1812.1257
1827.8867 0.000547 1619.0434 1814.5547
1819.6002 0.000550 1619.0892 1816.2117
1819.6471 0.000550 1619.1350 1817.1651
1860.7598 0.000537 1619.1808 1817.4270
1791.6451 0.000558 1619.2266 1817.0242
1737.3951 0.000576 1619.2724 1815.9977
1731.7787 0.000577 1619.3182 1814.4004
1776.1841 0.000563 1619.3640 1812.2945
1770.5843 0.000565 1619.4098 1809.7484
1759.0136 0.000569 1619.4556 1806.8329
1768.0492 0.000566 1619.5014 1803.6175
1828.9149 0.000547 1619.5472 1800.1681
1802.0566 0.000555 1619.5930 1796.5435
1841.8575 0.000543 1619.6388 1792.7944
1796.3619 0.000557 1619.6846 1788.9626
1754.8279 0.000570 1619.7304 1785.0810
1838.6446 0.000544 1619.7762 1781.1742
1758.7230 0.000569 1619.8220 1777.2601
1785.6039 0.000560 1619.8678 1773.3522
1818.4478 0.000550 1619.9136 1769.4617
1766.6332 0.000566 1619.9594 1765.5975
1803.6685 0.000554 1620.0052 1761.7730
1773.5573 0.000564 1620.0510 1758.0044
1752.4520 0.000571 1620.0968 1754.3129
1748.2742 0.000572 1620.1426 1750.7252
1808.5626 0.000553 1620.1884 1747.2731
1726.5326 0.000579 1620.2342 1743.9922
1733.4940 0.000577 1620.2800 1740.9210
1723.2249 0.000580 1620.3258 1738.0986
1707.0444 0.000586 1620.3716 1735.5624
1692.6753 0.000591 1620.4174 1733.2172
1803.8476 0.000554 1620.4632 1731.3507
1725.4705 0.000580 1620.5090 1729.8537
1739.3850 0.000575 1620.5548 1728.7384
1739.5530 0.000575 1620.6006 1728.0094
1795.0417 0.000557 1620.6464 1727.6568
1699.9874 0.000588 1620.6922 1727.6647
1702.7885 0.000587 1620.7380 1728.0054
1769.0903 0.000565 1620.7838 1728.6410
1751.0828 0.000571 1620.8296 1729.5239
1768.6687 0.000565 1620.8754 1730.5983
1726.4148 0.000579 1620.9211 1731.8021
1718.6435 0.000582 1620.9669 1733.0687
1753.6264 0.000570 1621.0127 1734.3323
1736.1045 0.000576 1621.0585 1735.5309
1765.9988 0.000566 1621.1043 1736.5203
1870.3008 0.000535 1621.1501 1737.4375
1853.3063 0.000540 1621.1959 1738.1609
1751.5418 0.000571 1621.2417 1738.6070
1736.5446 0.000576 1621.2875 1738.8974
1823.5871 0.000548 1621.3333 1738.9669
1842.0384 0.000543 1621.3791 1738.8207
1764.7097 0.000567 1621.4249 1738.4667
1833.5339 0.000545 1621.4707 1737.9143
1790.0679 0.000559 1621.5165 1737.1722
1863.3653 0.000537 1621.5623 1736.2492
1750.6113 0.000571 1621.6081 1735.1534
1805.9674 0.000554 1621.6539 1733.8912
1771.7000 0.000564 1621.6997 1732.4694
1848.6962 0.000541 1621.7455 1730.8941
1822.6853 0.000549 1621.7913 1729.1709
1716.5311 0.000583 1621.8371 1727.3051
1771.4854 0.000564 1621.8829 1725.3018
1766.4888 0.000566 1621.9287 1723.1213
1823.4229 0.000548 1621.9745 1720.8600
1758.7376 0.000569 1622.0203 1718.4802
1773.7441 0.000564 1622.0661 1715.9915
1789.3069 0.000559 1622.1119 1713.4059
1794.4357 0.000557 1622.1577 1710.7373
1757.3840 0.000569 1622.2035 1708.0010
1741.0326 0.000574 1622.2493 1705.2127
1716.1274 0.000583 1622.2951 1702.3875
1751.1344 0.000571 1622.3409 1699.5392
1816.8021 0.000550 1622.3867 1696.6803
1737.5602 0.000576 1622.4325 1693.8215
1644.6413 0.000608 1622.4783 1690.9723
1716.8124 0.000582 1622.5241 1688.1417
1755.3540 0.000570 1622.5699 1685.3382
1662.6214 0.000601 1622.6157 1682.5708
1773.2716 0.000564 1622.6615 1679.8487
1794.4738 0.000557 1622.7073 1677.1820
1629.7311 0.000614 1622.7531 1674.5813
1742.1748 0.000574 1622.7989 1672.0572
1788.0113 0.000559 1622.8447 1669.6205
1797.9846 0.000556 1622.8905 1667.2810
1673.5258 0.000598 1622.9363 1665.0474
1667.0413 0.000600 1622.9820 1662.9264
1651.1527 0.000606 1623.0278 1660.9233
1727.0596 0.000579 1623.0736 1659.0539
1611.7561 0.000620 1623.0480 1657.2357
1627.6841 0.000614 1623.0224 1655.5329
1674.0497 0.000597 1622.9967 1653.8984
1731.6724 0.000577 1622.9711 1652.4341
1681.3546 0.000595 1622.9455 1651.0826
1638.2138 0.000610 1622.9198 1649.8124
1724.2194 0.000580 1622.8942 1648.6764
1668.0475 0.000600 1622.8686 1647.6406
1655.3986 0.000604 1622.8429 1646.6993
1620.4005 0.000617 1622.8173 1645.8467
1682.2562 0.000594 1622.7917 1645.0771
1642.9466 0.000609 1622.7660 1644.3753
1718.2003 0.000582 1622.7404 1643.7543
1636.4621 0.000611 1622.7148 1643.1992
1595.0377 0.000627 1622.6891 1642.6980
1644.9796 0.000608 1622.6635 1642.2590
1653.6545 0.000605 1622.6379 1641.8707
1739.5168 0.000575 1622.6122 1641.5286
1639.1104 0.000610 1622.5866 1641.2284
1661.9010 0.000602 1622.5609 1640.9662
1654.6826 0.000604 1622.5353 1640.7141
1673.5105 0.000598 1622.5097 1640.5176
1654.6192 0.000604 1622.4840 1640.3553
1655.7712 0.000604 1622.4584 1640.2040
1644.0262 0.000608 1622.4328 1640.0863
1731.1657 0.000578 1622.4071 1639.9872
1618.1244 0.000618 1622.3815 1639.9084
1548.5645 0.000646 1622.3559 1639.8457
1572.1324 0.000636 1622.3302 1639.7985
1562.2920 0.000640 1622.3046 1639.7612
1658.7452 0.000603 1622.2790 1639.7422
1680.7309 0.000595 1622.2533 1639.7359
1724.2864 0.000580 1622.2277 1639.7385
1711.9562 0.000584 1622.2021 1639.7560
1622.3515 0.000616 1622.1764 1639.7847
1720.7878 0.000581 1622.1508 1639.8246
1685.1031 0.000593 1622.1252 1639.8753
1687.8637 0.000592 1622.0995 1639.9368
1626.2576 0.000615 1622.0739 1640.0090
1664.6944 0.000601 1622.0483 1640.1013
1701.7425 0.000588 1622.0226 1640.1952
1675.3509 0.000597 1621.9970 1640.2998
1600.2854 0.000625 1621.9714 1640.4152
1592.6111 0.000628 1621.9457 1640.5416
1650.2670 0.000606 1622.1362 1640.8949
1620.9394 0.000617 1622.3267 1641.2593
1659.8419 0.000602 1622.5172 1641.6348
1643.7888 0.000608 1622.7078 1642.0215
1610.8618 0.000621 1622.8983 1642.4196
1660.6776 0.000602 1623.0888 1642.8291
1679.3684 0.000595 1623.2793 1643.2504
1658.0770 0.000603 1623.4698 1643.6837
1566.8280 0.000638 1623.6603 1644.1695
1644.6464 0.000608 1623.8508 1644.6279
1717.5055 0.000582 1624.0413 1645.0993
1664.2874 0.000601 1624.2318 1645.6041
1640.3008 0.000610 1624.4224 1646.1029
1648.8288 0.000606 1624.6129 1646.6629
1638.5453 0.000610 1624.8034 1647.1914
1688.9694 0.000592 1624.9939 1647.7355
1706.5998 0.000586 1625.1844 1648.2957
1686.6200 0.000593 1625.3749 1648.8727
1628.7234 0.000614 1625.5654 1649.4672
1641.5091 0.000609 1625.7559 1650.0845
1630.7140 0.000613 1625.9464 1650.7161
1663.5235 0.000601 1626.1370 1651.3673
1689.7972 0.000592 1626.3275 1652.0390
1682.7119 0.000594 1626.5180 1652.7322
1671.1601 0.000598 1626.7085 1653.4478
1655.3837 0.000604 1626.8990 1654.1866
1699.0990 0.000589 1627.0895 1654.9500
1643.3723 0.000609 1627.2800 1655.7390
1671.1982 0.000598 1627.4705 1656.5550
1675.0972 0.000597 1627.6610 1657.3992
1672.2124 0.000598 1627.8515 1658.2733
1672.0000 0.000598 1628.0421 1659.1988
1709.5492 0.000585 1628.2326 1660.1376
1722.3388 0.000581 1628.4231 1661.1115
1638.3139 0.000610 1628.6136 1662.1227
1681.3613 0.000595 1628.8041 1663.1838
1738.0367 0.000575 1628.9946 1664.2773
1702.0953 0.000588 1629.1851 1665.4397
1670.3760 0.000599 1629.3756 1666.6277
1683.3262 0.000594 1629.5661 1667.8684
1663.1286 0.000601 1629.7567 1669.1662
1723.2428 0.000580 1629.9472 1670.5261
1775.9790 0.000563 1630.1377 1671.9538
1740.8251 0.000574 1630.3282 1673.4557
1748.5074 0.000572 1630.4334 1674.9539
1725.3493 0.000580 1630.5387 1676.5424
1746.2862 0.000573 1630.6439 1678.2309
1670.9002 0.000598 1630.7491 1680.0305
1707.5614 0.000586 1630.8544 1681.9541
1681.6276 0.000595 1630.9596 1684.0162
1699.9774 0.000588 1631.0648 1686.2336
1742.9941 0.000574 1631.1701 1688.6250
1735.0487 0.000576 1631.2753 1691.2119
1739.6196 0.000575 1631.3805 1694.0182
1736.0409 0.000576 1631.4858 1697.0711
1745.9760 0.000573 1631.5910 1700.4005
1733.0445 0.000577 1631.6962 1704.0925
1719.5601 0.000582 1631.8015 1708.0793
1688.4848 0.000592 1631.9067 1712.5123
1778.5603 0.000562 1632.0119 1717.3189
1769.0569 0.000565 1632.1172 1722.6053
1783.2437 0.000561 1632.2224 1728.4231
1813.4485 0.000551 1632.3276 1734.8274
1825.5963 0.000548 1632.4329 1741.8912
1796.6410 0.000557 1632.5381 1749.6469
1851.0314 0.000540 1632.6433 1758.1730
1889.2983 0.000529 1632.7486 1767.5352
1886.8003 0.000530 1632.8538 1777.8008
1889.4895 0.000529 1632.9590 1789.0371
1885.1648 0.000530 1633.0643 1801.3112
1877.9149 0.000533 1633.1695 1814.6877
1938.3929 0.000516 1633.2747 1829.2283
1965.2979 0.000509 1633.3800 1844.9898
1910.1723 0.000524 1633.4852 1862.0222
1952.3580 0.000512 1633.5904 1880.3664
1990.0050 0.000503 1633.6957 1900.0524
2045.8519 0.000489 1633.8009 1921.0966
2054.4592 0.000487 1633.9061 1943.4993
2074.0180 0.000482 1634.0114 1967.2421
2052.2174 0.000487 1634.1166 1992.2847
2101.6871 0.000476 1634.2218 2018.5933
2123.0156 0.000471 1634.3271 2046.0280
2162.3642 0.000462 1634.4323 2074.5320
2154.3999 0.000464 1634.5375 2103.9100
2168.8178 0.000461 1634.6428 2134.0299
2200.4572 0.000454 1634.7480 2164.7084
2263.5189 0.000442 1634.8532 2195.7434
2315.9708 0.000432 1634.9585 2226.9253
2317.2422 0.000432 1634.9784 2257.9272
2313.5206 0.000432 1634.9984 2288.6038
2373.3550 0.000421 1635.0184 2318.7297
2425.4945 0.000412 1635.0384 2348.0645
2446.5763 0.000409 1635.0583 2376.3727
2521.7607 0.000397 1635.0783 2403.4182
2523.2914 0.000396 1635.0983 2428.9638
2514.5815 0.000398 1635.1183 2452.7727
2534.7833 0.000395 1635.1382 2474.6108
2618.3163 0.000382 1635.1582 2494.2631
2647.3919 0.000378 1635.1782 2511.5294
2661.7588 0.000376 1635.1982 2526.2460
2634.9413 0.000380 1635.2181 2538.2885
2602.6075 0.000384 1635.2381 2547.5796
2727.8298 0.000367 1635.2581 2554.0897
2675.8832 0.000374 1635.2781 2557.8342
2589.8516 0.000386 1635.2980 2558.8682
2664.7302 0.000375 1635.3180 2557.2800
2648.6754 0.000378 1635.3380 2553.1900
2609.4031 0.000383 1635.3580 2546.7270
2576.9164 0.000388 1635.3779 2538.0525
2610.5600 0.000383 1635.3979 2527.3493
2605.0539 0.000384 1635.4179 2514.8093
2545.7145 0.000393 1635.4379 2500.6396
2566.5378 0.000390 1635.4578 2485.0537
2533.8627 0.000395 1635.4778 2468.2624
2561.9345 0.000390 1635.4978 2450.4647
2552.7102 0.000392 1635.5178 2431.8385
2521.7651 0.000397 1635.5377 2412.5328
2486.2360 0.000402 1635.5577 2392.6694
2415.2575 0.000414 1635.5777 2372.3374
2385.3991 0.000419 1635.5977 2351.6024
2364.6727 0.000423 1635.6176 2330.5123
2357.9921 0.000424 1635.6376 2309.1057
2358.1214 0.000424 1635.6576 2287.4228
2368.5637 0.000422 1635.6776 2265.4950
2309.0786 0.000433 1635.6975 2243.3719
2212.8203 0.000452 1635.7175 2221.1066
2252.0806 0.000444 1635.7375 2198.7594
2258.5418 0.000443 1635.7575 2176.3969
2239.4589 0.000447 1635.7774 2154.0914
2182.2589 0.000458 1635.7974 2131.9203
2150.2606 0.000465 1635.8174 2109.9661
2222.6007 0.000450 1635.8374 2088.3185
2161.2940 0.000463 1635.8573 2067.0634
2102.1480 0.000476 1635.8773 2046.2957
2102.5182 0.000476 1635.8973 2026.1058
2126.6926 0.000470 1635.9172 2006.5787
2112.4361 0.000473 1635.9372 1987.7894
2114.7497 0.000473 1635.9572 1969.7999
2103.5926 0.000475 1635.9772 1952.6567
2017.5893 0.000496 1635.9971 1936.3900
1999.5538 0.000500 1636.0171 1921.0080
2018.0936 0.000496 1636.0371 1906.5210
2021.9639 0.000495 1636.0571 1892.8919
1989.8216 0.000503 1636.0770 1880.1337
1941.7490 0.000515 1636.0970 1868.1980
1904.4420 0.000525 1636.1170 1857.0265
1927.9884 0.000519 1636.1370 1846.6272
1946.7713 0.000514 1636.1569 1836.9388
1936.2733 0.000516 1636.1769 1827.8993
1918.7799 0.000521 1636.1969 1819.4811
1918.5527 0.000521 1636.2169 1811.6621
1924.7067 0.000520 1636.2368 1804.3777
1901.0641 0.000526 1636.2568 1797.5822
1886.9187 0.000530 1636.2768 1791.2303
1874.3003 0.000534 1636.2968 1785.2118
1891.5951 0.000529 1636.3167 1779.6211
1917.1065 0.000522 1636.3367 1774.3549
1908.4217 0.000524 1636.3567 1769.3815
1879.8617 0.000532 1636.3767 1764.6517
1853.4956 0.000540 1636.3966 1760.1877
1870.6620 0.000535 1636.4166 1755.9443
1864.1975 0.000536 1636.4366 1751.8652
1909.9538 0.000524 1636.4566 1748.0104
1918.9565 0.000521 1636.4765 1744.3381
1850.2117 0.000540 1636.4965 1740.8237
1842.2195 0.000543 1636.5165 1737.4414
1875.8217 0.000533 1636.5365 1734.2004
1848.0871 0.000541 1636.5564 1731.0769
1828.1575 0.000547 1636.5764 1728.0515
1824.6707 0.000548 1636.5964 1725.1211
1771.4140 0.000565 1636.6164 1722.2880
1778.9918 0.000562 1636.6363 1719.5341
1800.8498 0.000555 1636.6563 1716.8517
1805.4157 0.000554 1636.6763 1714.2330
1790.6295 0.000558 1636.6963 1711.6374
1756.3398 0.000569 1636.7162 1709.1252
1718.8867 0.000582 1636.6509 1706.5722
1762.2770 0.000567 1636.5857 1704.0484
1792.9189 0.000558 1636.5204 1701.5750
1785.5853 0.000560 1636.4551 1699.1410
1727.9311 0.000579 1636.3898 1696.7271
1721.6149 0.000581 1636.3245 1694.3822
1726.3061 0.000579 1636.2592 1692.0896
1739.3405 0.000575 1636.1940 1689.8558
1778.0790 0.000562 1636.1287 1687.6870
1778.3220 0.000562 1636.0634 1685.5892
1763.3363 0.000567 1635.9981 1683.5675
1689.6858 0.000592 1635.9328 1681.6258
1712.8319 0.000584 1635.8675 1679.7672
1737.2778 0.000576 1635.8022 1677.9936
1717.1011 0.000582 1635.7370 1676.3059
1706.3792 0.000586 1635.6717 1674.7041
1722.8686 0.000580 1635.6064 1673.1875
1713.7115 0.000584 1635.5411 1671.7546
1726.0435 0.000579 1635.4758 1670.4034
1769.7778 0.000565 1635.4105 1669.1315
1744.3342 0.000573 1635.3453 1667.9360
1680.5298 0.000595 1635.2800 1666.8137
1703.2437 0.000587 1635.2147 1665.7612
1754.2013 0.000570 1635.1494 1664.7748
1729.3372 0.000578 1635.0841 1663.8508
1734.9936 0.000576 1635.0188 1662.9854
1713.3447 0.000584 1634.9535 1662.1746
1676.0798 0.000597 1634.8883 1661.4148
1690.9198 0.000591 1634.8230 1660.6386
1669.8330 0.000599 1634.7577 1659.9703
1663.8608 0.000601 1634.6924 1659.3426
1665.5872 0.000600 1634.6271 1658.7522
1665.6885 0.000600 1634.5618 1658.1965
1691.9578 0.000591 1634.4966 1657.6728
1703.0000 0.000587 1634.4313 1657.1786
1719.4443 0.000582 1634.3660 1656.7116
1732.8515 0.000577 1634.3007 1656.2450
1700.3366 0.000588 1634.2354 1655.8260
1725.0517 0.000580 1634.1701 1655.4278
1667.2232 0.000600 1634.1048 1655.0483
1690.5558 0.000592 1634.0396 1654.6855
1674.9047 0.000597 1633.9743 1654.3376
1697.2903 0.000589 1633.9090 1653.9785
1688.7361 0.000592 1633.8437 1653.6547
1618.2692 0.000618 1633.6932 1653.2551
1681.3933 0.000595 1633.5427 1652.8637
1721.0404 0.000581 1633.3921 1652.4787
1672.7326 0.000598 1633.2416 1652.1001
1662.4759 0.000602 1633.0911 1651.6950
1658.0930 0.000603 1632.9405 1651.3271
1625.7714 0.000615 1632.7900 1650.9643
1689.1235 0.000592 1632.6395 1650.6068
1648.9634 0.000606 1632.4890 1650.2551
1639.5879 0.000610 1632.3384 1649.9097
1631.1526 0.000613 1632.1879 1649.5714
1663.2603 0.000601 1632.0374 1649.2408
1668.7576 0.000599 1631.8869 1648.9064
1665.7374 0.000600 1631.7363 1648.5935
1682.1020 0.000594 1631.5858 1648.2906
1711.5719 0.000584 1631.4353 1647.9983
1642.9334 0.000609 1631.2848 1647.7172
1579.5809 0.000633 1631.1342 1647.4478
1631.4346 0.000613 1630.9837 1647.1788
1690.1490 0.000592 1630.8332 1646.9349
1688.5490 0.000592 1630.6827 1646.7045
1673.1424 0.000598 1630.5321 1646.4883
1674.9068 0.000597 1630.3816 1646.2869
1653.5176 0.000605 1630.2311 1646.1017
1676.0651 0.000597 1630.0806 1645.9336
1629.2685 0.000614 1629.9300 1645.7840
1663.3888 0.000601 1629.7795 1645.6545
1679.7442 0.000595 1629.6290 1645.5469
1640.2924 0.000610 1629.4784 1645.4633
1660.5148 0.000602 1629.3279 1645.4061
1682.9848 0.000594 1629.1774 1645.3777
1657.5709 0.000603 1629.0269 1645.3808
1662.3422 0.000602 1628.8763 1645.4181
1654.2017 0.000605 1628.7258 1645.4925
1697.6959 0.000589 1628.5753 1645.6067
1620.3545 0.000617 1628.4248 1645.7635
1667.8235 0.000600 1628.2742 1645.9657
1693.6380 0.000590 1628.1237 1646.2157
1667.0158 0.000600 1627.9732 1646.5160
1642.4093 0.000609 1627.8227 1646.8687
1666.0541 0.000600 1627.6721 1647.2756
1620.8430 0.000617 1627.5216 1647.7382
1649.1162 0.000606 1627.3711 1648.2575
1616.7131 0.000619 1627.2206 1648.8340
1593.7528 0.000627 1627.3636 1649.7613
1691.9248 0.000591 1627.5066 1650.7451
1696.6372 0.000589 1627.6496 1651.7841
1671.4113 0.000598 1627.7927 1652.8758
1686.0378 0.000593 1627.9357 1654.0173
1654.2680 0.000604 1628.0787 1655.2042
1618.4111 0.000618 1628.2217 1656.4312
1717.1390 0.000582 1628.3648 1657.6916
1635.2834 0.000612 1628.5078 1658.9775
1641.3105 0.000609 1628.6508 1660.2791
1667.1817 0.000600 1628.7938 1661.5853
1655.9831 0.000604 1628.9369 1662.8833
1624.6003 0.000616 1629.0799 1664.1588
1672.6893 0.000598 1629.2229 1665.3960
1669.5702 0.000599 1629.3659 1666.5789
1740.3905 0.000575 1629.5090 1667.6908
1628.9811 0.000614 1629.6520 1668.7158
1673.2914 0.000598 1629.7950 1669.6396
1636.2280 0.000611 1629.9380 1670.4505
1729.7979 0.000578 1630.0811 1671.1405
1666.8647 0.000600 1630.2241 1671.7056
1679.3245 0.000595 1630.3671 1672.1463
1663.9915 0.000601 1630.5101 1672.4682
1711.3915 0.000584 1630.6532 1672.6803
1605.8417 0.000623 1630.7962 1672.7955
1660.5415 0.000602 1630.9392 1672.8288
1676.4988 0.000596 1631.0822 1672.7967
1690.3630 0.000592 1631.2253 1672.7162
1683.2933 0.000594 1631.3683 1672.6038
1674.1153 0.000597 1631.5113 1672.4749
1659.4779 0.000603 1631.6543 1672.3433
1717.9918 0.000582 1631.7974 1672.2205
1693.9128 0.000590 1631.9404 1672.1161
1677.6254 0.000596 1632.0834 1672.0374
1634.1196 0.000612 1632.2264 1671.9895
1609.0249 0.000621 1632.3695 1671.9755
1599.2822 0.000625 1632.5125 1671.9967
1645.7075 0.000608 1632.6555 1672.0532
1656.9863 0.000604 1632.7985 1672.1438
1672.2359 0.000598 1632.9416 1672.2671
1677.8582 0.000596 1633.0846 1672.4221
1701.8123 0.000588 1633.2276 1672.6082
1577.3956 0.000634 1633.3706 1672.8267
1622.3381 0.000616 1633.5137 1673.0803
1632.2399 0.000613 1634.5966 1674.3137
1703.0074 0.000587 1635.6796 1675.5943
1763.6335 0.000567 1636.7625 1676.9309
1616.5903 0.000619 1637.8455 1678.3343
1733.6504 0.000577 1638.9284 1679.8164
1721.9659 0.000581 1640.0114 1681.3898
1661.8886 0.000602 1641.0943 1683.0673
1689.9490 0.000592 1642.1773 1684.8611
1653.0683 0.000605 1643.2603 1686.7831
1696.0216 0.000590 1644.3432 1688.8438
1695.7687 0.000590 1645.4262 1691.0523
1633.3507 0.000612 1646.5091 1693.4161
1714.5511 0.000583 1647.5921 1695.9410
1683.1592 0.000594 1648.6750 1698.6309
1787.9421 0.000559 1649.7580 1701.4876
1780.4347 0.000562 1650.8409 1704.5114
1680.1142 0.000595 1651.9239 1707.7002
1719.0013 0.000582 1653.0068 1711.0505
1723.9880 0.000580 1654.0898 1714.5569
1681.2184 0.000595 1655.1728 1718.2126
1724.6591 0.000580 1656.2557 1722.0092
1564.6875 0.000639 1657.3387 1725.9365
1734.7231 0.000576 1658.4216 1729.9827
1753.7322 0.000570 1659.5046 1734.1337
1689.2159 0.000592 1660.5875 1738.3726
1714.4305 0.000583 1661.6705 1742.6795
1738.4297 0.000575 1662.7534 1747.0306
1657.2202 0.000603 1663.8364 1751.3984
1669.5635 0.000599 1664.9193 1755.7507
1758.1091 0.000569 1666.0023 1760.0515
1710.7907 0.000585 1667.0853 1764.2611
1744.6271 0.000573 1668.1682 1768.3375
1682.6252 0.000594 1669.2512 1772.2372
1775.7556 0.000563 1670.3341 1775.9172
1807.6917 0.000553 1671.4171 1779.3371
1770.9113 0.000565 1672.5000 1782.4605
1722.4721 0.000581 1673.5830 1785.2577
1755.0345 0.000570 1674.6659 1787.7067
1738.1158 0.000575 1675.7489 1789.7950
1753.0062 0.000570 1676.8319 1791.5204
1749.3056 0.000572 1677.9148 1792.8910
1735.8931 0.000576 1678.9978 1793.9253
1763.9396 0.000567 1680.0807 1794.6511
1732.4888 0.000577 1681.1637 1795.1035
1759.7023 0.000568 1681.6402 1794.7171
1740.7129 0.000574 1682.1167 1794.1426
1833.1316 0.000546 1682.5932 1793.4253
1749.9012 0.000571 1683.0697 1792.6089
1742.0000 0.000574 1683.5462 1791.7344
1728.2772 0.000579 1684.0227 1790.8380
1724.2635 0.000580 1684.4992 1789.9504
1795.8516 0.000557 1684.9757 1789.0961
1745.8688 0.000573 1685.4522 1788.2935
1685.7495 0.000593 1685.9287 1787.5551
1677.2955 0.000596 1686.4052 1786.8881
1718.3465 0.000582 1686.8817 1786.2950
1687.1532 0.000593 1687.3582 1785.7754
1712.4855 0.000584 1687.8347 1785.3264
1728.4716 0.000579 1688.3112 1784.9443
1758.4212 0.000569 1688.7877 1784.6259
1693.8171 0.000590 1689.2642 1784.3693
1772.3996 0.000564 1689.7407 1784.1750
1737.3518 0.000576 1690.2172 1784.0468
1725.7351 0.000579 1690.6937 1783.9919
1757.3682 0.000569 1691.1702 1784.0211
1724.4976 0.000580 1691.6467 1784.1485
1748.5623 0.000572 1692.1232 1784.3910
1766.8690 0.000566 1692.5997 1784.7672
1737.8909 0.000575 1693.0762 1785.2967
1805.3636 0.000554 1693.5527 1785.9982
1715.6613 0.000583 1694.0292 1786.8891
1719.5472 0.000582 1694.5057 1787.9840
1713.6119 0.000584 1694.9822 1789.2939
1794.5272 0.000557 1695.4587 1790.8256
1753.0236 0.000570 1695.9352 1792.5809
1780.2001 0.000562 1696.4117 1794.5565
1785.3144 0.000560 1696.8882 1796.7435
1745.5144 0.000573 1697.3647 1799.1269
1781.5474 0.000561 1697.8412 1801.6860
1749.9305 0.000571 1698.3177 1804.3935
1735.3431 0.000576 1698.7942 1807.2158
1739.8061 0.000575 1699.2707 1810.1130
1760.0158 0.000568 1699.7472 1813.0394
1780.4821 0.000562 1700.2237 1815.9437
1791.3929 0.000558 1700.7002 1818.7286
1861.7765 0.000537 1701.1767 1821.4214
1843.5399 0.000542 1701.6532 1823.9221
1773.3659 0.000564 1702.1297 1826.1761
1777.6475 0.000563 1702.6062 1828.1345
1816.7480 0.000550 1703.0827 1829.7573
1820.1675 0.000549 1703.5592 1830.8103
1841.4771 0.000543 1704.0357 1831.6895
1827.7980 0.000547 1704.5122 1832.1862
1803.8620 0.000554 1704.9887 1832.3112
1807.7422 0.000553 1705.4652 1832.0871
1794.1584 0.000557 1705.9417 1831.5460
1820.7870 0.000549 1706.4182 1830.7270
1814.0519 0.000551 1706.8947 1829.6729
1778.6372 0.000562 1707.3712 1828.4282
1771.5628 0.000564 1707.8477 1826.7589
1802.3706 0.000555 1708.3242 1825.2623
1770.6447 0.000565 1708.8007 1823.6953
1838.6597 0.000544 1709.2772 1822.0889
1796.4883 0.000557 1709.7537 1820.1991
1793.8973 0.000557 1710.2302 1818.5822
1796.7038 0.000557 1710.7067 1816.9578
1791.4237 0.000558 1711.1832 1815.3724
1812.8015 0.000552 1711.6597 1813.8022
1796.5212 0.000557 1712.1362 1812.2391
1801.0754 0.000555 1712.6127 1810.5320
1741.0763 0.000574 1713.0892 1808.9424
1840.6492 0.000543 1713.5657 1807.0710
1849.6384 0.000541 1714.0422 1805.3872
1808.4945 0.000553 1714.5187 1803.6313
1824.6892 0.000548 1714.9952 1801.7914
1752.7432 0.000571 1715.4717 1799.8605
1794.6588 0.000557 1715.9482 1797.8367
1784.0653 0.000561 1716.4247 1795.7238
1773.9228 0.000564 1716.9012 1793.5306
1741.5110 0.000574 1717.3777 1791.2702
1762.3662 0.000567 1717.8542 1788.8199
1761.9917 0.000568 1718.3307 1786.4773
1764.9202 0.000567 1718.8072 1784.1217
1760.8265 0.000568 1719.2837 1781.7728
1697.9671 0.000589 1719.7602 1779.3146
1727.4006 0.000579 1720.2367 1777.0349
1767.4428 0.000566 1720.7132 1774.8141
1738.9598 0.000575 1721.1897 1772.6664
1776.0961 0.000563 1721.6662 1770.6038
1739.0881 0.000575 1722.1427 1768.6364
1755.2211 0.000570 1722.6192 1766.7725
1759.7761 0.000568 1723.0957 1764.9492
1738.0535 0.000575 1723.5722 1763.3094
1733.7626 0.000577 1724.0487 1761.7169
1741.8799 0.000574 1724.5252 1760.3127
1760.7623 0.000568 1725.0017 1759.0267
1720.2145 0.000581 1725.4782 1757.8573
1731.3190 0.000578 1725.9547 1756.8022
1761.2235 0.000568 1726.4312 1755.8576
1738.3157 0.000575 1726.9077 1755.0190
1730.7197 0.000578 1727.3842 1754.2813
1761.4415 0.000568 1727.8607 1753.6384
1713.6695 0.000584 1728.3372 1753.0843
1728.8137 0.000578 1728.3372 1752.1357
loop_
_pd_peak_id
_pd_peak_2theta_centroid
_pd_peak_d_spacing
_pd_peak_pk_height
_pd_peak_pk_intensity
_pd_peak_width_2theta
PK1 19.7566 4.490 13.4 4.3023 0.2435
PK2 22.7932 3.898 1418.8 461.6017 0.2465
PK3 22.8393 3.891 703.5 228.9317 0.2466
PK4 25.5158 3.488 253.4 83.4827 0.2496
PK5 32.3453 2.766 2918.8 996.9908 0.2588
PK6 32.4121 2.760 11558.0 3949.5030 0.2589
PK7 32.4124 2.760 2819.4 963.4165 0.2589
PK8 34.3670 2.607 147.9 51.1491 0.2620
PK9 36.2812 2.474 25.5 8.9193 0.2652
PK10 36.3267 2.471 31.9 11.1649 0.2653
PK11 38.1186 2.359 14.4 5.0836 0.2684
PK12 38.1622 2.356 157.0 55.6336 0.2685
PK13 38.2053 2.354 48.1 17.0331 0.2686
PK14 39.8902 2.258 1260.7 451.9812 0.2717
PK15 39.9461 2.255 1228.2 440.4953 0.2718
PK16 41.6453 2.167 100.4 36.4421 0.2751
PK17 43.2309 2.091 47.6 17.4974 0.2783
PK18 43.2701 2.089 31.0 11.3719 0.2783
PK19 46.3625 1.957 3015.1 1133.8990 0.2850
PK20 46.4608 1.953 1638.9 616.8110 0.2852
PK21 47.8766 1.898 152.7 58.1026 0.2884
PK22 47.9004 1.898 96.1 36.5778 0.2884
PK23 50.8185 1.795 15.2 5.9327 0.2954
PK24 50.8420 1.794 1.0 0.3896 0.2955
PK25 50.8532 1.794 42.5 16.5763 0.2955
PK26 52.1505 1.752 78.5 30.9297 0.2987
PK27 52.2183 1.750 242.2 95.5359 0.2989
PK28 52.2411 1.750 159.4 62.9044 0.2990
PK29 52.2858 1.748 286.0 112.8704 0.2991
PK30 53.5418 1.710 253.0 100.9324 0.3023
PK31 53.6308 1.708 35.9 14.3198 0.3026
PK32 57.5754 1.600 1630.8 674.3997 0.3134
PK33 57.6597 1.597 912.9 377.8013 0.3136
PK34 57.6602 1.597 1999.1 827.3473 0.3136
PK35 57.7021 1.596 901.3 373.1620 0.3137
PK36 58.9417 1.566 42.1 17.6269 0.3173
PK37 60.1499 1.537 3.0 1.2785 0.3209
PK38 60.2015 1.536 7.6 3.2079 0.3211
PK39 60.2421 1.535 2.4 1.0349 0.3212
PK40 60.2730 1.534 3.6 1.5255 0.3213
PK41 61.4196 1.508 17.2 7.3556 0.3248
PK42 61.4705 1.507 2.3 0.9698 0.3249
PK43 61.5313 1.506 5.0 2.1486 0.3251
PK44 61.5715 1.505 10.4 4.4770 0.3253
PK45 63.9291 1.455 114.1 50.0875 0.3328
PK46 64.0087 1.453 3.6 1.6004 0.3330
PK47 64.0480 1.453 8.2 3.5912 0.3331
PK48 65.1415 1.431 1.7 0.7525 0.3368
PK49 65.1908 1.430 0.2 0.1041 0.3369
PK50 67.4782 1.387 293.7 133.6167 0.3448
PK51 67.6325 1.384 1299.7 592.2567 0.3453
PK52 67.6331 1.384 303.1 138.1091 0.3453
PK53 68.6722 1.366 70.5 32.4687 0.3490
PK54 68.8441 1.363 8.6 3.9663 0.3496
PK55 69.8518 1.345 9.7 4.5379 0.3533
PK56 69.9946 1.343 7.0 3.2451 0.3538
PK57 71.0271 1.326 0.1 0.0637 0.3577
PK58 71.1119 1.325 15.4 7.2791 0.3580
PK59 71.1591 1.324 1.3 0.6228 0.3582
PK60 71.1689 1.324 30.0 14.1857 0.3582
PK61 71.1964 1.323 8.6 4.0723 0.3583
PK62 71.2247 1.323 14.5 6.8389 0.3584
PK63 72.1987 1.307 36.6 17.4684 0.3621
PK64 72.2552 1.307 62.7 29.9640 0.3623
PK65 72.2922 1.306 62.6 29.9304 0.3625
PK66 72.3489 1.305 39.6 18.9727 0.3627
PK67 72.3673 1.305 111.7 53.4862 0.3628
PK68 72.4229 1.304 36.2 17.3551 0.3630
PK69 73.4141 1.289 60.8 29.4601 0.3669
PK70 74.5057 1.273 4.5 2.2151 0.3712
PK71 74.6448 1.270 5.8 2.8698 0.3718
PK72 76.7778 1.240 245.8 123.4508 0.3806
PK73 76.8511 1.239 493.4 248.0297 0.3810
PK74 76.8880 1.239 253.1 127.2931 0.3811
PK75 76.9969 1.237 565.7 284.8473 0.3816
PK76 77.9124 1.225 73.9 37.6208 0.3855
PK77 77.9304 1.225 27.6 14.0570 0.3856
PK78 78.0221 1.224 22.3 11.3560 0.3860
PK79 78.0761 1.223 33.8 17.2067 0.3862
PK80 79.1373 1.209 1.1 0.5806 0.3909
PK81 79.1828 1.209 3.1 1.6128 0.3911
PK82 80.1809 1.196 0.9 0.4686 0.3956
PK83 80.3169 1.194 22.3 11.6455 0.3962
PK84 80.3618 1.194 1.1 0.5496 0.3964
PK85 81.2890 1.183 87.9 46.4683 0.4007
PK86 81.3975 1.181 98.7 52.2585 0.4012
PK87 81.4687 1.180 67.9 35.9801 0.4015
PK88 81.5049 1.180 68.4 36.2689 0.4017
PK89 82.4790 1.169 53.2 28.5268 0.4063
PK90 82.5146 1.168 52.9 28.3574 0.4065
PK91 82.5867 1.167 13.6 7.3153 0.4068
PK92 83.6965 1.155 0.8 0.4177 0.4122
PK93 83.7235 1.154 0.4 0.2167 0.4123
PK94 85.7629 1.132 219.9 122.6094 0.4225
PK95 85.9062 1.130 231.8 129.4961 0.4233
PK96 86.8540 1.121 72.6 41.0461 0.4282
PK97 86.9614 1.119 19.7 11.1289 0.4287
PK98 87.9396 1.109 0.1 0.0365 0.4339
PK99 87.9748 1.109 4.3 2.4402 0.4341
PK100 88.0022 1.109 0.4 0.2334 0.4343
PK101 88.1089 1.108 2.9 1.6503 0.4348
PK102 89.0464 1.099 0.2 0.1168 0.4400
PK103 89.1089 1.098 13.3 7.7147 0.4403
PK104 89.1618 1.097 2.1 1.2320 0.4406
PK105 89.1893 1.097 2.7 1.5641 0.4407
PK106 89.2064 1.097 3.7 2.1504 0.4408
PK107 89.2950 1.096 2.6 1.5426 0.4413
PK108 90.0679 1.089 10.7 6.2934 0.4456
PK109 90.2461 1.087 56.6 33.3900 0.4466
PK110 90.2823 1.087 41.8 24.6574 0.4468
PK111 90.3348 1.086 58.4 34.4387 0.4471
PK112 91.1743 1.078 84.5 50.3854 0.4519
PK113 91.3887 1.076 2.0 1.1922 0.4532
PK114 91.4944 1.075 6.2 3.6939 0.4538
PK115 92.3659 1.068 7.3 4.4399 0.4589
PK116 92.4284 1.067 3.7 2.2289 0.4593
PK117 94.4973 1.049 184.2 114.7049 0.4718
PK118 94.6044 1.048 247.7 154.4821 0.4725
PK119 94.7113 1.047 254.8 159.1426 0.4732
PK120 94.7119 1.047 259.7 162.1932 0.4732
PK121 94.7123 1.047 312.6 195.1873 0.4732
PK122 94.7830 1.047 307.9 192.4412 0.4736
PK123 95.7326 1.039 30.4 19.2679 0.4796
PK124 95.8935 1.037 9.2 5.8303 0.4807
PK125 96.7068 1.031 0.0 0.0121 0.4860
PK126 96.8956 1.029 0.1 0.0845 0.4872
PK127 97.8217 1.022 3.0 1.9268 0.4934
PK128 97.9206 1.021 0.8 0.5332 0.4940
PK129 97.9561 1.021 0.8 0.5511 0.4943
PK130 97.9837 1.021 5.4 3.5422 0.4945
PK131 98.0110 1.021 2.9 1.8740 0.4946
PK132 98.0649 1.020 1.1 0.7467 0.4950
PK133 98.0914 1.020 7.8 5.0903 0.4952
PK134 98.1177 1.020 3.2 2.0858 0.4954
PK135 98.1448 1.020 2.7 1.7784 0.4955
PK136 100.0741 1.005 67.0 45.0121 0.5089
PK137 100.2550 1.004 17.3 11.6821 0.5102
PK138 100.2919 1.003 6.3 4.2351 0.5105
PK139 101.1858 0.997 0.4 0.2504 0.5169
PK140 101.3770 0.996 1.4 0.9663 0.5183
PK141 101.4033 0.995 0.0 0.0149 0.5185
PK142 101.4488 0.995 0.1 0.0595 0.5189
PK143 103.5184 0.981 103.6 73.0885 0.5345
PK144 103.8104 0.979 71.7 50.7772 0.5368
PK145 104.6583 0.973 38.6 27.6943 0.5435
PK146 104.7129 0.973 22.7 16.2660 0.5439
PK147 104.8237 0.972 7.4 5.3466 0.5448
PK148 104.8784 0.972 5.3 3.8208 0.5452
PK149 105.8362 0.966 0.1 0.0645 0.5530
PK150 105.9011 0.965 0.1 0.0962 0.5535
PK151 106.8862 0.959 1.0 0.7078 0.5618
PK152 107.0823 0.958 3.9 2.9354 0.5634
PK153 107.2117 0.957 1.8 1.3559 0.5645
PK154 108.0220 0.952 4.4 3.2857 0.5715
PK155 108.0590 0.952 14.4 10.8944 0.5718
PK156 108.1158 0.951 18.4 13.8651 0.5723
PK157 108.1723 0.951 12.9 9.7761 0.5728
PK158 108.1898 0.951 15.4 11.6280 0.5730
PK159 108.2845 0.950 53.4 40.4376 0.5738
PK160 108.3403 0.950 18.0 13.6695 0.5743
PK161 108.3958 0.950 35.3 26.7757 0.5748
PK162 109.1883 0.945 51.0 39.1382 0.5819
PK163 109.3396 0.944 19.6 15.0636 0.5832
PK164 109.4516 0.944 19.2 14.7676 0.5842
PK165 109.5273 0.943 0.3 0.2615 0.5849
PK166 110.5285 0.937 0.1 0.0545 0.5942
PK167 110.6716 0.937 0.2 0.1473 0.5955
PK168 112.6238 0.926 33.8 27.4182 0.6143
PK169 112.7398 0.925 163.8 133.0489 0.6155
PK170 112.8947 0.924 221.9 180.7080 0.6170
PK171 112.9711 0.924 171.1 139.5257 0.6178
PK172 112.9724 0.924 43.4 35.3843 0.6178
PK173 113.0865 0.923 110.3 90.0673 0.6190
PK174 113.1254 0.923 111.2 90.9260 0.6193
PK175 113.8265 0.919 25.6 21.1375 0.6265
PK176 114.0410 0.918 26.6 22.0685 0.6287
PK177 115.0355 0.913 0.6 0.5432 0.6391
PK178 115.1827 0.912 0.0 0.0333 0.6407
PK179 115.3807 0.911 0.8 0.7069 0.6428
PK180 115.3900 0.911 0.3 0.2292 0.6429
PK181 115.5069 0.911 0.0 0.0145 0.6442
PK182 115.5366 0.911 0.0 0.0012 0.6445
PK183 116.2613 0.907 0.0 0.0091 0.6524
PK184 116.5195 0.906 0.2 0.1466 0.6553
PK185 116.5893 0.905 9.8 8.5191 0.6561
PK186 116.6101 0.905 9.5 8.2348 0.6563
PK187 116.6484 0.905 3.7 3.2458 0.6567
PK188 116.6792 0.905 2.3 2.0028 0.6571
PK189 116.6983 0.905 0.6 0.4924 0.6573
PK190 117.5052 0.901 7.4 6.4851 0.6664
PK191 117.7861 0.900 32.0 28.2504 0.6697
PK192 117.8679 0.899 15.9 14.0800 0.6706
PK193 117.9072 0.899 37.0 32.8005 0.6711
PK194 118.8802 0.895 41.6 37.4701 0.6826
PK195 118.9204 0.894 46.4 41.8493 0.6831
PK196 119.0434 0.894 11.5 10.3847 0.6845
PK197 119.1653 0.893 0.2 0.1666 0.6860
loop_
_refln_index_h
_refln_index_k
_refln_index_l
_pd_refln_peak_id
0 1 1 PK1
1 0 1 PK2
0 2 0 PK3
1 1 1 PK4
2 0 0 PK5
1 2 1 PK6
0 0 2 PK7
2 1 0 PK8
2 0 1 PK9
1 0 2 PK10
2 1 1 PK11
1 1 2 PK12
0 3 1 PK13
2 2 0 PK14
0 2 2 PK15
1 3 1 PK16
2 2 1 PK17
1 2 2 PK18
2 0 2 PK19
0 4 0 PK20
2 1 2 PK21
2 3 0 PK22
2 3 1 PK23
0 1 3 PK24
1 3 2 PK25
3 0 1 PK26
2 2 2 PK27
1 0 3 PK28
1 4 1 PK29
3 1 1 PK30
1 1 3 PK31
3 2 1 PK32
2 4 0 PK33
1 2 3 PK34
0 4 2 PK35
2 3 2 PK36
3 0 2 PK37
2 0 3 PK38
2 4 1 PK39
1 4 2 PK40
3 1 2 PK41
2 1 3 PK42
0 3 3 PK43
0 5 1 PK44
3 3 1 PK45
1 3 3 PK46
1 5 1 PK47
3 2 2 PK48
2 2 3 PK49
4 0 0 PK50
2 4 2 PK51
0 0 4 PK52
4 1 0 PK53
2 5 0 PK54
4 0 1 PK55
1 0 4 PK56
4 1 1 PK57
3 3 2 PK58
2 3 3 PK59
1 1 4 PK60
2 5 1 PK61
1 5 2 PK62
4 2 0 PK63
3 0 3 PK64
3 4 1 PK65
0 2 4 PK66
1 4 3 PK67
0 6 0 PK68
3 1 3 PK69
4 2 1 PK70
1 2 4 PK71
4 0 2 PK72
3 2 3 PK73
2 0 4 PK74
1 6 1 PK75
4 1 2 PK76
4 3 0 PK77
2 1 4 PK78
2 5 2 PK79
3 4 2 PK80
2 4 3 PK81
4 3 1 PK82
1 3 4 PK83
0 5 3 PK84
4 2 2 PK85
2 2 4 PK86
2 6 0 PK87
0 6 2 PK88
3 3 3 PK89
3 5 1 PK90
1 5 3 PK91
2 6 1 PK92
1 6 2 PK93
4 4 0 PK94
0 4 4 PK95
4 3 2 PK96
2 3 4 PK97
4 0 3 PK98
4 4 1 PK99
3 0 4 PK100
1 4 4 PK101
4 1 3 PK102
3 1 4 PK103
3 5 2 PK104
0 1 5 PK105
2 5 3 PK106
0 7 1 PK107
5 0 1 PK108
3 4 3 PK109
1 0 5 PK110
2 6 2 PK111
5 1 1 PK112
1 1 5 PK113
1 7 1 PK114
4 2 3 PK115
3 2 4 PK116
5 2 1 PK117
4 4 2 PK118
3 6 1 PK119
2 4 4 PK120
1 2 5 PK121
1 6 3 PK122
4 5 0 PK123
2 7 0 PK124
5 0 2 PK125
2 0 5 PK126
5 1 2 PK127
4 3 3 PK128
4 5 1 PK129
3 3 4 PK130
2 1 5 PK131
0 3 5 PK132
1 5 4 PK133
2 7 1 PK134
1 7 2 PK135
5 3 1 PK136
3 5 3 PK137
1 3 5 PK138
5 2 2 PK139
2 2 5 PK140
3 6 2 PK141
2 6 3 PK142
4 0 4 PK143
0 8 0 PK144
4 1 4 PK145
4 5 2 PK146
2 5 4 PK147
2 7 2 PK148
4 4 3 PK149
3 4 4 PK150
5 3 2 PK151
2 3 5 PK152
0 7 3 PK153
5 0 3 PK154
5 4 1 PK155
4 2 4 PK156
3 0 5 PK157
4 6 0 PK158
1 4 5 PK159
0 6 4 PK160
1 8 1 PK161
5 1 3 PK162
3 1 5 PK163
3 7 1 PK164
1 7 3 PK165
4 6 1 PK166
1 6 4 PK167
6 0 0 PK168
5 2 3 PK169
3 2 5 PK170
3 6 3 PK171
0 0 6 PK172
2 8 0 PK173
0 8 2 PK174
6 1 0 PK175
4 3 4 PK176
6 0 1 PK177
5 4 2 PK178
1 0 6 PK179
2 4 5 PK180
2 8 1 PK181
1 8 2 PK182
6 1 1 PK183
4 5 3 PK184
3 5 4 PK185
1 1 6 PK186
3 7 2 PK187
0 5 5 PK188
2 7 3 PK189
6 2 0 PK190
4 6 2 PK191
0 2 6 PK192
2 6 4 PK193
5 3 3 PK194
5 5 1 PK195
3 3 5 PK196
1 5 5 PK197
