#------------------------------------------------------------------------------
#$Date: 2019-08-01 07:03:08 +0300 (Thu, 01 Aug 2019) $
#$Revision: 217345 $
#$URL: file:///home/coder/svn-repositories/cod/cif/2/10/84/2108456.cif $
#------------------------------------------------------------------------------
#
# This file is available in the Crystallography Open Database (COD),
# http://www.crystallography.net/. The original data for this entry
# were provided by IUCr Journals, http://journals.iucr.org/.
#
# The file may be used within the scientific community so long as
# proper attribution is given to the journal article from which the
# data were obtained.
#
data_2108456
loop_
_publ_author_name
'Fukui, Hiroshi'
'Fujimoto, Manato'
'Akahama, Yuichi'
'Sano-Furukawa, Asami'
'Hattori, Takanori'
_publ_section_title
;
 Structure change of monoclinic ZrO~2~ baddeleyite involving softenings of
 bulk modulus and atom vibrations
;
_journal_issue                   4
_journal_name_full               'Acta Crystallographica Section B'
_journal_page_first
;
;
_journal_paper_doi               10.1107/S2052520619007923
_journal_volume                  75
_journal_year                    2019
_chemical_formula_sum            'O2 Zr'
_chemical_formula_weight         123.22
_space_group_IT_number           14
_space_group_name_Hall           '-P 2ybc'
_space_group_name_H-M_alt        'P 1 21/c 1'
_symmetry_cell_setting           monoclinic
_symmetry_space_group_name_Hall  '-P 2ybc'
_symmetry_space_group_name_H-M   'P 1 21/c 1'
_audit_creation_date             2019-05-07T13:24
_audit_creation_method           'from EXP file using GSAS2CIF'
_audit_update_record
' 2019-05-07T13:24  Initial CIF as created by GSAS2CIF'
_cell_angle_alpha                90.0
_cell_angle_beta                 98.276(6)
_cell_angle_gamma                90.0
_cell_formula_units_Z            4
_cell_length_a                   5.05900(33)
_cell_length_b                   5.2097(4)
_cell_length_c                   5.1763(4)
_cell_volume                     135.005(17)
_computing_structure_refinement  GSAS
_diffrn_radiation_probe          neutron
_exptl_absorpt_correction_T_max  1.00000
_exptl_absorpt_correction_T_min  1.00000
_exptl_absorpt_process_details
;   GSAS Absorption/surface roughness correction: function number 0
 No correction is applied.
;
_pd_block_id                     2019-05-07T13:24|34897|FUKUI,_Hiroshi|PLANET
_pd_calc_method                  'Rietveld Refinement'
_pd_instr_location               ' ?'
_pd_meas_2theta_fixed            90.00
_pd_meas_number_of_points        3712
_pd_phase_name
'from Z:/2017A/Fukui/61p0ton/gsas34883/34883.EXP'
_pd_proc_info_datetime           2019-05-07T13:24:05
_pd_proc_info_excluded_regions   ' ?'
_pd_proc_ls_background_function
;   GSAS Background function number 1 with 16 terms.
 Shifted Chebyshev function of 1st kind
      1:   0.225697     2:   4.059960E-02 3:  -1.636550E-02 4:  -2.162990E-02
      5:  -1.428920E-02 6:   1.774470E-03 7:  -5.329060E-03 8:   7.147440E-03
      9:   5.132650E-0310:  -6.506340E-0411:  -1.463580E-0312:  -2.705860E-04
     13:   1.180440E-0414:  -1.575590E-0315:   2.213210E-0416:   3.227220E-03
;
_pd_proc_ls_peak_cutoff          0.00100
_pd_proc_ls_profile_function
;
 TOF Profile function number 3 with  21 terms
 Profile coefficients for exponential pseudovoigt
  convolution Von Dreele, 1990 (unpublished)
 #1 (alp  ) = ******** #2 (bet-0) = 0.015258 #3 (bet-1) = 0.731691
 #4 (sig-0) =      2.8 #5 (sig-1) =    447.5 #6 (sig-2) =    132.0
 #7 (gam-0) =     0.00 #8 (gam-1) =    42.19 #9 (gam-2) =     0.93
 #10(gsf  ) =     0.00 #11(g1ec ) =     0.00 #12(g2ec ) =     0.00
 #13(rstr ) =    0.000 #14(rsta ) =    0.000 #15(rsca ) =    0.000
 #16(L11)   =    0.000 #17(L22)   =    0.000 #18(L33)   =    0.000
 #19(L12)   =    0.000 #20(L13)   =    0.000 #21(L23)   =    0.000
 Peak tails are ignored  where the intensity is below 0.0010 times the peak
   Aniso. broadening axis   0.0   0.0   1.0
;
_pd_proc_ls_prof_R_factor        0.0198
_pd_proc_ls_prof_wR_expected     0.0147
_pd_proc_ls_prof_wR_factor       0.0221
_pd_proc_number_of_points        3712
_pd_spec_mounting                ' ?'
_refine_ls_goodness_of_fit_all   1.52
_refine_ls_matrix_type           full
_refine_ls_number_parameters     33
_refine_ls_number_restraints     0
_refine_ls_R_Fsqd_factor         0.09108
_refine_ls_shift/su_max          0.07
_refine_ls_shift/su_mean         0.01
_reflns_d_resolution_high        0.701
_reflns_d_resolution_low         3.106
_reflns_limit_h_max              7
_reflns_limit_h_min              0
_reflns_limit_k_max              7
_reflns_limit_k_min              0
_reflns_limit_l_max              7
_reflns_limit_l_min              -7
_reflns_number_total             415
_cod_data_source_file            xk5055sup1.cif
_cod_data_source_block           34897
_cod_depositor_comments
;
The following automatic conversions were performed:

'_geom_bond_publ_flag' value 'N' changed to 'n' according to
/home/data/users/saulius/crontab/automatic-downloads/rss-feeds/IUCr/lib/dictionaries/cif_core.dic
dictionary named 'cif_core.dic' version 2.4.2 from 2011-04-26 (21
time).

'_geom_angle_publ_flag' value 'N' changed to 'n' according to
/home/data/users/saulius/crontab/automatic-downloads/rss-feeds/IUCr/lib/dictionaries/cif_core.dic
dictionary named 'cif_core.dic' version 2.4.2 from 2011-04-26 (30
times).

Automatic conversion script
Id: cif_fix_values 4973 2017-02-22 13:04:09Z antanas 
;
_cod_original_cell_volume        135.006(11)
_cod_database_code               2108456
_gsas_exptl_extinct_corr_t_min   1.00000
_gsas_exptl_extinct_corr_t_max   1.00000
loop_
_symmetry_equiv_pos_site_id
_symmetry_equiv_pos_as_xyz
1 +x,+y,+z
2 -x,+y+1/2,-z+1/2
-1 -x,-y,-z
-2 +x,-y+1/2,+z+1/2
loop_
_atom_site_type_symbol
_atom_site_label
_atom_site_fract_x
_atom_site_fract_y
_atom_site_fract_z
_atom_site_occupancy
_atom_site_thermal_displace_type
_atom_site_U_iso_or_equiv
_atom_site_symmetry_multiplicity
Zr Zr 0.2753(6) 0.0365(4) 0.2101(5) 1.0 Uiso 0.002 4
O O1 0.0827(7) 0.3585(5) 0.3176(7) 1.0 Uiso 0.002 4
O O2 0.4436(7) 0.7595(6) 0.4903(7) 1.0 Uiso 0.002 4
loop_
_atom_type_symbol
_atom_type_number_in_cell
_atom_type_scat_length_neutron
_atom_type_scat_source
Zr 4.0 0.7160 International_Tables_Vol_C
O 8.0 0.5803 International_Tables_Vol_C
loop_
_geom_angle_atom_site_label_1
_geom_angle_atom_site_label_2
_geom_angle_atom_site_label_3
_geom_angle
_geom_angle_site_symmetry_1
_geom_angle_site_symmetry_3
_geom_angle_publ_flag
O1 Zr O1 86.50(13) 1_555 2_545 n
O1 Zr O1 83.26(15) 1_555 -2_565 n
O1 Zr O2 121.75(19) 1_555 1_545 n
O1 Zr O2 93.45(18) 1_555 2_645 n
O1 Zr O2 72.61(16) 1_555 -1_666 n
O1 Zr O2 164.10(20) 1_555 -2_565 n
O1 Zr O1 76.98(17) 2_545 -2_565 n
O1 Zr O2 90.21(15) 2_545 1_545 n
O1 Zr O2 147.07(17) 2_545 2_645 n
O1 Zr O2 138.33(18) 2_545 -1_666 n
O1 Zr O2 92.99(17) 2_545 -2_565 n
O1 Zr O2 151.51(15) -2_565 1_545 n
O1 Zr O2 70.34(14) -2_565 2_645 n
O1 Zr O2 133.08(14) -2_565 -1_666 n
O1 Zr O2 81.15(14) -2_565 -2_565 n
O2 Zr O2 117.01(16) 1_545 2_645 n
O2 Zr O2 72.30(17) 1_545 -1_666 n
O2 Zr O2 74.13(12) 1_545 -2_565 n
O2 Zr O2 71.64(10) 2_645 -1_666 n
O2 Zr O2 78.40(13) 2_645 -2_565 n
O2 Zr O2 116.62(15) -1_666 -2_565 n
Zr O1 Zr 144.06(19) 1_555 2_555 n
Zr O1 Zr 106.83(18) 1_555 -2_555 n
Zr O1 Zr 103.02(17) 2_555 -2_555 n
Zr O2 Zr 104.93(19) 1_565 2_655 n
Zr O2 Zr 107.70(17) 1_565 -1_666 n
Zr O2 Zr 133.70(24) 1_565 -2_555 n
Zr O2 Zr 100.90(15) 2_655 -1_666 n
Zr O2 Zr 101.60(13) 2_655 -2_555 n
Zr O2 Zr 103.59(15) -1_666 -2_555 n
loop_
_geom_bond_atom_site_label_1
_geom_bond_atom_site_label_2
_geom_bond_distance
_geom_bond_site_symmetry_2
_geom_bond_publ_flag
Zr Zr 3.443(4) 2_645 n
Zr Zr 3.443(4) 2_655 n
Zr Zr 3.300(6) -1_555 n
Zr Zr 3.387(5) -1_655 n
Zr Zr 3.515(6) -1_656 n
Zr Zr 3.4126(30) -2_554 n
Zr Zr 3.4126(30) -2_555 n
Zr O1 2.056(5) 1_555 n
Zr O1 2.022(4) 2_545 n
Zr O1 2.193(5) -2_554 n
Zr O2 2.134(4) 1_545 n
Zr O2 2.207(4) 2_645 n
Zr O2 2.218(4) -1_666 n
Zr O2 2.163(5) -2_554 n
O1 Zr 2.056(5) 1_555 n
O1 Zr 2.022(4) 2_555 n
O1 Zr 2.193(5) -2_555 n
O2 Zr 2.134(4) 1_565 n
O2 Zr 2.207(4) 2_655 n
O2 Zr 2.218(4) -1_666 n
O2 Zr 2.163(5) -2_555 n
loop_
_pd_meas_time_of_flight
_pd_proc_d_spacing
_pd_meas_intensity_total
_pd_proc_ls_weight
_pd_proc_intensity_bkg_calc
_pd_calc_intensity_total
2855.00 . 0.1827(23) . . .
2865.00 . 0.1864(23) . . .
2875.00 . 0.1816(23) . . .
2885.00 . 0.1814(23) . . .
2895.00 . 0.1836(23) . . .
2905.00 . 0.1787(23) . . .
2915.00 . 0.1792(23) . . .
2925.00 . 0.1753(22) . . .
2935.00 . 0.1735(22) . . .
2945.00 . 0.1800(22) . . .
2955.00 . 0.1765(22) . . .
2965.00 . 0.1735(22) . . .
2975.00 . 0.1725(22) . . .
2985.00 . 0.1733(22) . . .
2995.00 . 0.1748(22) . . .
3005.00 . 0.1728(22) . . .
3015.00 . 0.1740(21) . . .
3025.00 . 0.1705(21) . . .
3035.00 . 0.1708(21) . . .
3045.00 . 0.1735(21) . . .
3055.00 . 0.1681(21) . . .
3065.00 . 0.1709(21) . . .
3075.00 . 0.1716(21) . . .
3085.00 . 0.1691(21) . . .
3095.00 . 0.1670(20) . . .
3105.00 . 0.1681(20) . . .
3115.00 . 0.1679(20) . . .
3125.00 . 0.1771(21) . . .
3135.00 . 0.1734(20) . . .
3145.00 . 0.1750(20) . . .
3155.00 . 0.1751(20) . . .
3165.00 . 0.1726(20) . . .
3175.00 . 0.1685(20) . . .
3185.00 . 0.1706(20) . . .
3195.00 . 0.1718(20) . . .
3205.00 . 0.1705(20) . . .
3215.00 . 0.1675(20) . . .
3225.00 . 0.1678(20) . . .
3235.00 . 0.1695(20) . . .
3245.00 . 0.1692(20) . . .
3255.00 . 0.1703(20) . . .
3265.00 . 0.1683(20) . . .
3275.00 . 0.1695(19) . . .
3285.00 . 0.1709(19) . . .
3295.00 . 0.1737(19) . . .
3305.00 . 0.1716(19) . . .
3315.00 . 0.1653(19) . . .
3325.00 . 0.1695(19) . . .
3335.00 . 0.1695(19) . . .
3345.00 . 0.1682(19) . . .
3355.00 . 0.1709(19) . . .
3365.00 . 0.1730(19) . . .
3375.00 . 0.1688(19) . . .
3385.00 . 0.1635(19) . . .
3395.00 . 0.1610(18) . . .
3405.00 . 0.1578(18) . . .
3415.00 . 0.1585(18) . . .
3425.00 . 0.1611(18) . . .
3435.00 . 0.1584(18) . . .
3445.00 . 0.1568(18) . . .
3455.00 . 0.1508(18) . . .
3465.00 . 0.1515(18) . . .
3475.00 . 0.1513(18) . . .
3485.00 . 0.1545(18) . . .
3495.00 . 0.1553(18) . . .
3505.00 . 0.1542(18) . . .
3515.0 . 0.1585(18) . . .
3525.0 . 0.1556(17) . . .
3535.0 . 0.1566(17) . . .
3545.0 . 0.1581(17) . . .
3555.0 . 0.1586(17) . . .
3565.0 . 0.1559(17) . . .
3575.0 . 0.1577(17) . . .
3585.0 . 0.1561(17) . . .
3595.0 . 0.1574(17) . . .
3605.0 . 0.1597(17) . . .
3615.0 . 0.1574(17) . . .
3625.0 . 0.1569(17) . . .
3635.0 . 0.1607(17) . . .
3645.0 . 0.1592(17) . . .
3655.0 . 0.1617(17) . . .
3665.0 . 0.1639(17) . . .
3675.0 . 0.1596(17) . . .
3685.0 . 0.1596(17) . . .
3695.0 . 0.1626(17) . . .
3705.0 . 0.1592(17) . . .
3715.0 . 0.1606(17) . . .
3725.0 . 0.1607(17) . . .
3735.0 . 0.1644(17) . . .
3745.0 . 0.1632(17) . . .
3755.0 . 0.1634(17) . . .
3765.0 . 0.1632(17) . . .
3775.0 . 0.1625(17) . . .
3785.0 . 0.1626(17) . . .
3795.0 . 0.1611(16) . . .
3805.0 . 0.1637(17) . . .
3815.0 . 0.1636(16) . . .
3825.0 . 0.1636(16) . . .
3835.0 . 0.1686(17) . . .
3845.0 . 0.1646(16) . . .
3855.0 . 0.1653(16) . . .
3865.0 . 0.1672(16) . . .
3875.0 . 0.1641(16) . . .
3885.0 . 0.1656(16) . . .
3895.0 . 0.1651(16) . . .
3905.0 . 0.1648(16) . . .
3915.0 . 0.1637(16) . . .
3925.0 . 0.1619(16) . . .
3935.0 . 0.1617(16) . . .
3945.0 . 0.1619(16) . . .
3955.0 . 0.1614(16) . . .
3965.0 . 0.1636(16) . . .
3975.0 . 0.1641(16) . . .
3985.0 . 0.1617(16) . . .
3995.0 . 0.1636(16) . . .
4005.0 . 0.1642(16) . . .
4015.0 . 0.1614(16) . . .
4025.0 . 0.1620(16) . . .
4035.0 . 0.1610(16) . . .
4045.0 . 0.1621(16) . . .
4055.0 . 0.1624(16) . . .
4065.0 . 0.1631(16) . . .
4075.0 . 0.1655(16) . . .
4085.0 . 0.1623(16) . . .
4095.0 . 0.1583(16) . . .
4105.0 . 0.1623(16) . . .
4115.0 . 0.1641(16) . . .
4125.0 . 0.1631(16) . . .
4135.0 . 0.1615(16) . . .
4145.0 . 0.1639(16) . . .
4155.0 . 0.1642(16) . . .
4165.0 . 0.1622(16) . . .
4175.0 . 0.1648(16) . . .
4185.0 . 0.1669(16) . . .
4195.0 . 0.1672(16) . . .
4205.0 . 0.1662(16) . . .
4215.0 . 0.1618(16) . . .
4225.0 . 0.1646(16) . . .
4235.0 . 0.1640(16) . . .
4245.0 . 0.1615(16) . . .
4255.0 . 0.1644(16) . . .
4265.0 . 0.1623(16) . . .
4275.0 . 0.1637(16) . . .
4285.0 . 0.1666(16) . . .
4295.0 . 0.1696(16) . . .
4305.0 . 0.1701(16) . . .
4315.0 . 0.1672(16) . . .
4325.0 . 0.1681(16) . . .
4335.0 . 0.1673(16) . . .
4345.0 . 0.1674(16) . . .
4355.0 . 0.1696(16) . . .
4365.0 . 0.1677(16) . . .
4375.0 . 0.1663(16) . . .
4385.0 . 0.1675(16) . . .
4395.0 . 0.1673(16) . . .
4405.0 . 0.1739(16) . . .
4415.0 . 0.1713(16) . . .
4425.0 . 0.1712(16) . . .
4435.0 . 0.1732(16) . . .
4445.0 . 0.1739(16) . . .
4455.0 . 0.1741(16) . . .
4465.0 . 0.1731(16) . . .
4475.0 . 0.1723(16) . . .
4485.0 . 0.1730(16) . . .
4495.0 . 0.1744(16) . . .
4505.0 . 0.1756(16) . . .
4515.0 . 0.1758(16) . . .
4525.0 . 0.1786(16) . . .
4535.0 . 0.1821(16) . . .
4545.0 . 0.1793(16) . . .
4555.0 . 0.1814(16) . . .
4565.0 . 0.1765(16) . . .
4575.0 . 0.1769(16) . . .
4585.0 . 0.1769(16) . . .
4595.0 . 0.1696(16) . . .
4605.0 . 0.1711(16) . . .
4615.0 . 0.1689(16) . . .
4625.0 . 0.1732(16) . . .
4635.0 . 0.1695(16) . . .
4645.0 . 0.1734(16) . . .
4655.0 . 0.1736(16) . . .
4665.0 . 0.1729(16) . . .
4675.0 . 0.1741(16) . . .
4685.0 . 0.1751(16) . . .
4695.0 . 0.1754(16) . . .
4705.0 . 0.1791(17) . . .
4715.0 . 0.1735(16) . . .
4725.0 . 0.1708(16) . . .
4735.0 . 0.1696(16) . . .
4745.0 . 0.1728(16) . . .
4755.0 . 0.1721(16) . . .
4765.0 . 0.1733(16) . . .
4775.0 . 0.1754(17) . . .
4785.0 . 0.1797(17) . . .
4795.0 . 0.1775(17) . . .
4805.0 . 0.1776(17) . . .
4815.0 . 0.1790(17) . . .
4825.0 . 0.1779(17) . . .
4835.0 . 0.1792(17) . . .
4845.0 . 0.1784(17) . . .
4855.0 . 0.1786(17) . . .
4865.0 . 0.1770(17) . . .
4875.0 . 0.1771(17) . . .
4885.0 . 0.1768(17) . . .
4895.0 . 0.1765(17) . . .
4905.0 . 0.1746(17) . . .
4915.0 . 0.1763(17) . . .
4925.0 . 0.1764(17) . . .
4935.0 . 0.1798(17) . . .
4945.0 . 0.1812(17) . . .
4955.0 . 0.1795(17) . . .
4965.0 . 0.1799(17) . . .
4975.0 . 0.1789(17) . . .
4985.0 . 0.1765(17) . . .
4995.0 . 0.1734(17) . . .
5005.0 . 0.1716(17) . . .
5015.0 . 0.1748(17) . . .
5025.0 . 0.1695(17) . . .
5035.0 . 0.1713(17) . . .
5045.0 . 0.1719(17) . . .
5055.0 . 0.1716(17) . . .
5065.0 . 0.1738(17) . . .
5075.0 . 0.1749(17) . . .
5085.0 . 0.1750(17) . . .
5095.0 . 0.1701(17) . . .
5105.0 . 0.1707(17) . . .
5115.0 . 0.1729(17) . . .
5125.0 . 0.1713(17) . . .
5135.0 . 0.1728(17) . . .
5145.0 . 0.1717(17) . . .
5155.0 . 0.1754(17) . . .
5165.0 . 0.1726(17) . . .
5175.0 . 0.1686(17) . . .
5185.0 . 0.1706(17) . . .
5195.0 . 0.1710(17) . . .
5205.0 . 0.1636(17) . . .
5215.0 . 0.1651(17) . . .
5225.0 . 0.1662(17) . . .
5235.0 . 0.1638(17) . . .
5245.0 . 0.1671(17) . . .
5255.0 . 0.1696(17) . . .
5265.0 . 0.1718(18) . . .
5275.0 . 0.1733(18) . . .
5285.0 . 0.1722(18) . . .
5295.0 . 0.1765(18) . . .
5305.0 . 0.1730(18) . . .
5315.0 . 0.1737(18) . . .
5325.0 . 0.1719(18) . . .
5335.0 . 0.1701(18) . . .
5345.0 . 0.1662(18) . . .
5355.0 . 0.1641(18) . . .
5365.0 . 0.1686(18) . . .
5375.0 . 0.1661(18) . . .
5385.0 . 0.1675(18) . . .
5395.0 . 0.1668(18) . . .
5405.0 . 0.1679(18) . . .
5415.0 . 0.1676(18) . . .
5425.0 . 0.1686(18) . . .
5435.0 . 0.1678(18) . . .
5445.0 . 0.1680(18) . . .
5455.0 . 0.1640(18) . . .
5465.0 . 0.1621(18) . . .
5475.0 . 0.1584(18) . . .
5485.0 . 0.1629(18) . . .
5495.0 . 0.1604(18) . . .
5505.0 . 0.1610(18) . . .
5515.0 . 0.1597(18) . . .
5525.0 . 0.1642(18) . . .
5535.0 . 0.1650(18) . . .
5545.0 . 0.1720(18) . . .
5555.0 . 0.1740(19) . . .
5565.0 . 0.1783(19) . . .
5575.0 . 0.1817(19) . . .
5585.0 . 0.1861(19) . . .
5595.0 . 0.1858(19) . . .
5605.0 . 0.1811(19) . . .
5615.0 . 0.1795(19) . . .
5625.0 . 0.1752(19) . . .
5635.0 . 0.1801(19) . . .
5645.0 . 0.1786(19) . . .
5655.0 . 0.1787(19) . . .
5665.0 . 0.1755(19) . . .
5675.0 . 0.1760(19) . . .
5685.0 . 0.1728(19) . . .
5695.0 . 0.1736(19) . . .
5705.0 . 0.1733(19) . . .
5715.0 . 0.1730(19) . . .
5725.0 . 0.1773(19) . . .
5735.0 . 0.1784(19) . . .
5745.0 . 0.1776(19) . . .
5755.0 . 0.1768(19) . . .
5765.0 . 0.1759(19) . . .
5775.0 . 0.1732(19) . . .
5785.0 . 0.1789(19) . . .
5795.0 . 0.1747(19) . . .
5805.0 . 0.1737(19) . . .
5815.0 . 0.1724(19) . . .
5825.0 . 0.1675(19) . . .
5835.0 . 0.1694(19) . . .
5845.0 . 0.1720(19) . . .
5855.0 . 0.1757(20) . . .
5865.0 . 0.1788(20) . . .
5875.0 . 0.1831(20) . . .
5885.0 . 0.1853(20) . . .
5895.0 . 0.1881(20) . . .
5905.0 . 0.1879(20) . . .
5915.0 . 0.1925(20) . . .
5925.0 . 0.1925(20) . . .
5935.0 . 0.1935(21) . . .
5945.0 . 0.1914(21) . . .
5955.0 . 0.1876(20) . . .
5965.0 . 0.1880(20) . . .
5975.0 . 0.1880(20) . . .
5985.0 . 0.1838(20) . . .
5995.0 . 0.1799(20) . . .
6005.0 . 0.1857(21) . . .
6015.0 . 0.1815(20) . . .
6025.0 . 0.1800(20) . . .
6035.0 . 0.1778(20) . . .
6045.0 . 0.1837(21) . . .
6055.0 . 0.1830(21) . . .
6065.0 . 0.1909(21) . . .
6075.0 . 0.1922(21) . . .
6085.0 . 0.1975(21) . . .
6095.0 . 0.1977(21) . . .
6105.0 . 0.2027(22) . . .
6115.0 . 0.2021(22) . . .
6125.0 . 0.2030(22) . . .
6135.0 . 0.1931(21) . . .
6145.0 . 0.1988(22) . . .
6155.0 . 0.1930(21) . . .
6165.0 . 0.1876(21) . . .
6175.0 . 0.1857(21) . . .
6185.0 . 0.1969(22) . . .
6195.0 . 0.1944(22) . . .
6205.0 . 0.1966(22) . . .
6215.0 . 0.2030(22) . . .
6225.0 . 0.2039(22) . . .
6235.0 . 0.2025(22) . . .
6245.0 . 0.1994(22) . . .
6255.0 . 0.1982(22) . . .
6265.0 . 0.1927(22) . . .
6275.0 . 0.1950(22) . . .
6285.0 . 0.1922(22) . . .
6295.0 . 0.1959(22) . . .
6305.0 . 0.1863(21) . . .
6315.0 . 0.1901(22) . . .
6325.0 . 0.1927(22) . . .
6335.0 . 0.1914(22) . . .
6345.0 . 0.1931(22) . . .
6355.0 . 0.1909(22) . . .
6365.0 . 0.1944(22) . . .
6375.0 . 0.1987(22) . . .
6385.0 . 0.1992(22) . . .
6395.0 . 0.1985(22) . . .
6405.0 . 0.1998(22) . . .
6415.0 . 0.1948(22) . . .
6425.0 . 0.1941(22) . . .
6435.0 . 0.1934(22) . . .
6445.0 . 0.1972(23) . . .
6455.0 . 0.1904(22) . . .
6465.0 . 0.1928(22) . . .
6475.0 . 0.1939(22) . . .
6485.0 . 0.1886(22) . . .
6495.0 . 0.1881(22) . . .
6505.0 . 0.1958(23) . . .
6515.0 . 0.1908(22) . . .
6525.0 . 0.1939(23) . . .
6535.0 . 0.1931(23) . . .
6545.0 . 0.1972(23) . . .
6555.0 . 0.1985(23) . . .
6565.0 . 0.1986(23) . . .
6575.0 . 0.1981(23) . . .
6585.0 . 0.1985(23) . . .
6595.0 0.69726 0.1871(22) 0.0 0.16370 .
6605.0 0.69832 0.1903(23) 0.0 0.16441 .
6615.0 0.69938 0.1904(23) 195574. 0.16510 0.18696
6625.0 0.70044 0.1919(23) 193681. 0.16576 0.19015
6635.0 0.70150 0.1953(23) 190589. 0.16640 0.19430
6645.0 0.70256 0.1989(23) 187420. 0.16701 0.19713
6655.0 0.70362 0.2008(23) 185335. 0.16761 0.19762
6665.0 0.70467 0.1967(23) 188484. 0.16818 0.19682
6675.0 0.70573 0.1998(23) 185570. 0.16873 0.19641
6685.0 0.70679 0.1982(23) 186268. 0.16926 0.19696
6695.0 0.70785 0.2009(23) 183912. 0.16978 0.19767
6705.0 0.70891 0.1996(23) 184532. 0.17027 0.19740
6715.0 0.70997 0.1965(23) 186487. 0.17075 0.19624
6725.0 0.71102 0.1959(23) 186610. 0.17121 0.19503
6735.0 0.71208 0.1940(23) 187771. 0.17165 0.19402
6745.0 0.71314 0.1948(23) 186623. 0.17208 0.19307
6755.0 0.71420 0.1962(23) 185032. 0.17249 0.19233
6765.0 0.71526 0.1915(23) 188011. 0.17289 0.19214
6775.0 0.71632 0.1931(23) 186188. 0.17328 0.19323
6785.0 0.71738 0.1985(23) 181516. 0.17365 0.19598
6795.0 0.71843 0.2011(24) 179029. 0.17401 0.19923
6805.0 0.71949 0.2068(24) 174415. 0.17436 0.20147
6815.0 0.72055 0.1996(24) 179113. 0.17469 0.20143
6825.0 0.72161 0.1987(24) 179695. 0.17502 0.19967
6835.0 0.72267 0.1994(24) 178676. 0.17533 0.19778
6845.0 0.72373 0.1917(23) 184340. 0.17564 0.19644
6855.0 0.72479 0.1878(23) 186929. 0.17593 0.19531
6865.0 0.72584 0.1889(23) 185478. 0.17622 0.19422
6875.0 0.72690 0.1920(23) 183052. 0.17649 0.19337
6885.0 0.72796 0.1925(23) 182370. 0.17676 0.19333
6895.0 0.72902 0.1934(23) 181188. 0.17702 0.19435
6905.0 0.73008 0.1926(23) 181541. 0.17727 0.19572
6915.0 0.73114 0.1915(23) 182152. 0.17752 0.19624
6925.0 0.73220 0.1913(23) 181980. 0.17776 0.19558
6935.0 0.73325 0.1935(24) 180060. 0.17799 0.19465
6945.0 0.73431 0.1904(23) 182127. 0.17821 0.19415
6955.0 0.73537 0.1898(23) 182295. 0.17844 0.19390
6965.0 0.73643 0.1911(24) 181018. 0.17865 0.19359
6975.0 0.73749 0.1899(23) 181561. 0.17886 0.19348
6985.0 0.73855 0.1906(24) 180507. 0.17906 0.19434
6995.0 0.73960 0.1908(24) 180076. 0.17926 0.19640
7005.0 0.74066 0.1917(24) 179332. 0.17946 0.19914
7015.0 0.74172 0.1956(24) 176438. 0.17965 0.20106
7025.0 0.74278 0.1959(24) 175775. 0.17984 0.20084
7035.0 0.74384 0.1972(24) 174627. 0.18002 0.19908
7045.0 0.74490 0.1923(24) 178060. 0.18021 0.19704
7055.0 0.74596 0.1952(24) 175715. 0.18038 0.19584
7065.0 0.74701 0.1927(24) 177357. 0.18056 0.19619
7075.0 0.74807 0.1995(24) 171882. 0.18073 0.19813
7085.0 0.74913 0.2047(24) 168067. 0.18090 0.20122
7095.0 0.75019 0.2085(25) 165099. 0.18107 0.20477
7105.0 0.75125 0.2075(25) 165601. 0.18124 0.20804
7115.0 0.75231 0.2080(25) 164903. 0.18140 0.20998
7125.0 0.75337 0.2132(25) 161254. 0.18156 0.20954
7135.0 0.75442 0.2113(25) 162191. 0.18172 0.20687
7145.0 0.75548 0.2058(25) 165570. 0.18188 0.20353
7155.0 0.75654 0.2007(24) 168961. 0.18204 0.20111
7165.0 0.75760 0.2016(24) 168065. 0.18220 0.20004
7175.0 0.75866 0.1999(24) 168823. 0.18236 0.20014
7185.0 0.75972 0.1983(24) 169514. 0.18251 0.20032
7195.0 0.76078 0.1977(24) 169510. 0.18267 0.20021
7205.0 0.76183 0.2014(25) 166546. 0.18282 0.19993
7215.0 0.76289 0.2002(24) 167056. 0.18297 0.19977
7225.0 0.76395 0.1996(24) 167030. 0.18313 0.19979
7235.0 0.76501 0.1962(24) 169142. 0.18328 0.19987
7245.0 0.76607 0.1977(24) 167549. 0.18343 0.19987
7255.0 0.76713 0.2046(25) 162537. 0.18359 0.19977
7265.0 0.76819 0.2039(25) 162848. 0.18374 0.19986
7275.0 0.76924 0.2036(25) 162561. 0.18389 0.20015
7285.0 0.77030 0.2037(25) 162188. 0.18405 0.20060
7295.0 0.77136 0.2032(25) 162200. 0.18420 0.20100
7305.0 0.77242 0.2031(25) 162034. 0.18436 0.20131
7315.0 0.77348 0.2011(25) 163381. 0.18451 0.20117
7325.0 0.77454 0.1948(24) 167651. 0.18466 0.20011
7335.0 0.77560 0.1958(24) 166631. 0.18482 0.19829
7345.0 0.77665 0.1968(25) 165758. 0.18498 0.19635
7355.0 0.77771 0.1948(24) 167062. 0.18513 0.19479
7365.0 0.77877 0.1918(24) 168841. 0.18529 0.19390
7375.0 0.77983 0.1941(24) 166913. 0.18545 0.19399
7385.0 0.78089 0.1987(25) 163304. 0.18560 0.19499
7395.0 0.78195 0.1971(25) 164251. 0.18576 0.19668
7405.0 0.78300 0.1981(25) 163086. 0.18592 0.19897
7415.0 0.78406 0.2017(25) 160308. 0.18608 0.20143
7425.0 0.78512 0.2016(25) 159807. 0.18624 0.20353
7435.0 0.78618 0.2016(25) 159613. 0.18641 0.20468
7445.0 0.78724 0.2014(25) 159985. 0.18657 0.20440
7455.0 0.78830 0.1994(25) 161002. 0.18673 0.20317
7465.0 0.78936 0.2021(25) 158893. 0.18689 0.20199
7475.0 0.79041 0.2069(25) 155523. 0.18706 0.20146
7485.0 0.79147 0.2018(25) 158641. 0.18723 0.20139
7495.0 0.79253 0.2003(25) 159359. 0.18739 0.20161
7505.0 0.79359 0.2046(25) 156284. 0.18756 0.20218
7515.0 0.79465 0.2079(26) 153777. 0.18773 0.20314
7525.0 0.79571 0.2069(25) 154279. 0.18790 0.20439
7535.0 0.79677 0.2092(26) 152531. 0.18807 0.20568
7545.0 0.79782 0.2126(26) 150042. 0.18824 0.20709
7555.0 0.79888 0.2156(26) 147826. 0.18841 0.20908
7565.0 0.79994 0.2131(26) 148877. 0.18858 0.21210
7575.0 0.80100 0.2217(26) 143352. 0.18875 0.21623
7585.0 0.80206 0.2275(27) 139935. 0.18892 0.22112
7595.0 0.80312 0.2269(27) 139999. 0.18910 0.22609
7605.0 0.80418 0.2345(27) 135965. 0.18927 0.23032
7615.0 0.80523 0.2365(27) 134657. 0.18945 0.23350
7625.0 0.80629 0.2383(27) 133445. 0.18962 0.23634
7635.0 0.80735 0.2376(27) 133464. 0.18980 0.23881
7645.0 0.80841 0.2395(28) 132143. 0.18997 0.23926
7655.0 0.80947 0.2336(27) 134673. 0.19015 0.23690
7665.0 0.81053 0.2372(27) 132638. 0.19033 0.23263
7675.0 0.81159 0.2311(27) 135430. 0.19051 0.22790
7685.0 0.81264 0.2259(27) 138069. 0.19068 0.22375
7695.0 0.81370 0.2301(27) 135737. 0.19086 0.22107
7705.0 0.81476 0.2263(27) 137349. 0.19104 0.22022
7715.0 0.81582 0.2282(27) 136231. 0.19122 0.22109
7725.0 0.81688 0.2247(27) 137894. 0.19140 0.22290
7735.0 0.81794 0.2230(27) 138326. 0.19158 0.22455
7745.0 0.81900 0.2250(27) 137089. 0.19176 0.22530
7755.0 0.82005 0.2222(27) 138350. 0.19194 0.22517
7765.0 0.82111 0.2231(27) 137866. 0.19212 0.22470
7775.0 0.82217 0.2209(27) 139081. 0.19230 0.22375
7785.0 0.82323 0.2210(27) 138914. 0.19248 0.22203
7795.0 0.82429 0.2272(27) 135391. 0.19266 0.21968
7805.0 0.82535 0.2226(27) 137680. 0.19284 0.21678
7815.0 0.82641 0.2155(27) 141331. 0.19302 0.21414
7825.0 0.82746 0.2153(27) 141214. 0.19320 0.21277
7835.0 0.82852 0.2181(27) 139545. 0.19338 0.21305
7845.0 0.82958 0.2165(27) 140207. 0.19356 0.21498
7855.0 0.83064 0.2195(27) 138456. 0.19374 0.21795
7865.0 0.83170 0.2247(27) 135395. 0.19392 0.22122
7875.0 0.83276 0.2237(27) 135771. 0.19410 0.22388
7885.0 0.83382 0.2193(27) 138137. 0.19427 0.22517
7895.0 0.83488 0.2269(27) 134014. 0.19445 0.22440
7905.0 0.83593 0.2243(27) 135172. 0.19463 0.22211
7915.0 0.83699 0.2180(27) 138326. 0.19480 0.21923
7925.0 0.83805 0.2182(27) 137940. 0.19498 0.21642
7935.0 0.83911 0.2162(27) 138811. 0.19516 0.21395
7945.0 0.84017 0.2157(27) 138938. 0.19533 0.21201
7955.0 0.84123 0.2209(27) 136070. 0.19551 0.21071
7965.0 0.84229 0.2093(26) 142541. 0.19568 0.21004
7975.0 0.84334 0.2103(27) 141657. 0.19585 0.20976
7985.0 0.84440 0.2117(27) 140703. 0.19602 0.20960
7995.0 0.84546 0.2081(26) 143043. 0.19619 0.20958
8005.0 0.84652 0.2115(27) 140919. 0.19636 0.20994
8015.0 0.84758 0.2099(27) 141737. 0.19653 0.21111
8025.0 0.84864 0.2177(27) 137075. 0.19670 0.21354
8035.0 0.84970 0.2203(27) 135753. 0.19687 0.21672
8045.0 0.85075 0.2202(27) 135529. 0.19703 0.22034
8055.0 0.85181 0.2224(27) 134134. 0.19720 0.22427
8065.0 0.85287 0.2265(28) 131720. 0.19736 0.22805
8075.0 0.85393 0.2331(28) 128320. 0.19753 0.23093
8085.0 0.85499 0.2332(28) 128158. 0.19769 0.23195
8095.0 0.85605 0.2311(28) 128959. 0.19785 0.23026
8105.0 0.85711 0.2270(28) 130588. 0.19801 0.22648
8115.0 0.85816 0.2251(28) 131524. 0.19817 0.22226
8125.0 0.85922 0.2242(28) 132122. 0.19832 0.21892
8135.0 0.86028 0.2189(27) 134585. 0.19848 0.21730
8145.0 0.86134 0.2152(27) 136563. 0.19863 0.21751
8155.0 0.86240 0.2213(27) 133276. 0.19878 0.21959
8165.0 0.86346 0.2250(28) 131556. 0.19893 0.22298
8175.0 0.86452 0.2224(27) 132691. 0.19908 0.22679
8185.0 0.86557 0.2344(28) 127036. 0.19923 0.22997
8195.0 0.86663 0.2287(28) 129507. 0.19938 0.23134
8205.0 0.86769 0.2275(28) 130207. 0.19952 0.23047
8215.0 0.86875 0.2240(28) 131901. 0.19966 0.22816
8225.0 0.86981 0.2208(27) 133637. 0.19981 0.22574
8235.0 0.87087 0.2185(27) 134602. 0.19995 0.22393
8245.0 0.87193 0.2195(27) 134083. 0.20008 0.22280
8255.0 0.87298 0.2157(27) 136050. 0.20022 0.22194
8265.0 0.87404 0.2198(27) 133753. 0.20035 0.22123
8275.0 0.87510 0.2248(28) 131032. 0.20049 0.22079
8285.0 0.87616 0.2219(27) 132312. 0.20062 0.22114
8295.0 0.87722 0.2201(27) 133137. 0.20075 0.22265
8305.0 0.87828 0.2245(28) 130807. 0.20087 0.22560
8315.0 0.87934 0.2301(28) 127880. 0.20100 0.23048
8325.0 0.88040 0.2357(28) 125175. 0.20112 0.23704
8335.0 0.88145 0.2399(28) 123362. 0.20124 0.24482
8345.0 0.88251 0.2529(29) 117699. 0.20136 0.25197
8355.0 0.88357 0.2540(29) 117023. 0.20148 0.25605
8365.0 0.88463 0.2540(29) 116879. 0.20160 0.25599
8375.0 0.88569 0.2543(29) 116383. 0.20171 0.25325
8385.0 0.88675 0.2483(29) 118603. 0.20182 0.24986
8395.0 0.88781 0.2484(29) 118285. 0.20193 0.24674
8405.0 0.88886 0.2456(29) 119437. 0.20204 0.24353
8415.0 0.88992 0.2386(29) 122394. 0.20214 0.23916
8425.0 0.89098 0.2308(28) 125778. 0.20225 0.23367
8435.0 0.89204 0.2236(28) 129160. 0.20235 0.22797
8445.0 0.89310 0.2260(28) 127735. 0.20245 0.22305
8455.0 0.89416 0.2183(28) 131633. 0.20255 0.21947
8465.0 0.89522 0.2151(27) 133277. 0.20264 0.21724
8475.0 0.89627 0.2237(28) 128717. 0.20273 0.21626
8485.0 0.89733 0.2144(27) 133378. 0.20282 0.21613
8495.0 0.89839 0.2228(28) 128915. 0.20291 0.21661
8505.0 0.89945 0.2204(28) 129962. 0.20300 0.21750
8515.0 0.90051 0.2209(28) 129738. 0.20308 0.21865
8525.0 0.90157 0.2223(28) 128929. 0.20316 0.21982
8535.0 0.90263 0.2233(28) 128455. 0.20324 0.22088
8545.0 0.90369 0.2182(28) 130838. 0.20332 0.22181
8555.0 0.90474 0.2198(28) 129852. 0.20340 0.22314
8565.0 0.90580 0.2212(28) 129042. 0.20347 0.22504
8575.0 0.90686 0.2210(28) 128996. 0.20354 0.22764
8585.0 0.90792 0.2261(28) 126248. 0.20361 0.23081
8595.0 0.90898 0.2351(29) 121837. 0.20368 0.23484
8605.0 0.91004 0.2326(29) 122772. 0.20374 0.24009
8615.0 0.91110 0.2447(29) 117680. 0.20380 0.24673
8625.0 0.91215 0.2501(29) 115304. 0.20386 0.25419
8635.0 0.91321 0.2585(30) 111977. 0.20392 0.26076
8645.0 0.91427 0.2633(30) 110145. 0.20398 0.26526
8655.0 0.91533 0.2601(30) 111305. 0.20403 0.26648
8665.0 0.91639 0.2618(30) 110469. 0.20408 0.26449
8675.0 0.91745 0.2562(30) 112629. 0.20413 0.26020
8685.0 0.91851 0.2481(29) 115816. 0.20418 0.25487
8695.0 0.91956 0.2429(29) 117779. 0.20422 0.24934
8705.0 0.92062 0.2385(29) 119839. 0.20426 0.24420
8715.0 0.92168 0.2272(28) 124987. 0.20430 0.23957
8725.0 0.92274 0.2253(28) 125789. 0.20434 0.23582
8735.0 0.92380 0.2266(28) 124944. 0.20437 0.23299
8745.0 0.92486 0.2267(28) 124844. 0.20441 0.23102
8755.0 0.92592 0.2271(28) 124597. 0.20444 0.22958
8765.0 0.92698 0.2235(28) 126200. 0.20447 0.22844
8775.0 0.92803 0.2186(28) 128568. 0.20449 0.22731
8785.0 0.92909 0.2222(28) 126476. 0.20452 0.22608
8795.0 0.93015 0.2234(28) 125734. 0.20454 0.22507
8805.0 0.93121 0.2213(28) 126604. 0.20456 0.22455
8815.0 0.93227 0.2259(28) 124072. 0.20458 0.22499
8825.0 0.93333 0.2223(28) 125589. 0.20460 0.22597
8835.0 0.93439 0.2257(28) 123726. 0.20461 0.22719
8845.0 0.93544 0.2249(28) 124156. 0.20462 0.22809
8855.0 0.93650 0.2285(29) 122326. 0.20463 0.22818
8865.0 0.93756 0.2291(29) 121872. 0.20464 0.22738
8875.0 0.93862 0.2298(29) 121652. 0.20465 0.22587
8885.0 0.93968 0.2260(28) 123394. 0.20465 0.22406
8895.0 0.94074 0.2198(28) 126387. 0.20465 0.22213
8905.0 0.94180 0.2249(28) 123852. 0.20465 0.22026
8915.0 0.94286 0.2189(28) 126571. 0.20465 0.21879
8925.0 0.94391 0.2182(28) 126962. 0.20464 0.21798
8935.0 0.94497 0.2193(28) 126286. 0.20464 0.21835
8945.0 0.94603 0.2248(28) 123541. 0.20463 0.21963
8955.0 0.94709 0.2243(28) 123600. 0.20462 0.22243
8965.0 0.94815 0.2262(29) 122601. 0.20461 0.22612
8975.0 0.94921 0.2278(29) 121756. 0.20459 0.23030
8985.0 0.95027 0.2280(29) 121811. 0.20457 0.23390
8995.0 0.95132 0.2268(29) 122430. 0.20456 0.23611
9005.0 0.95238 0.2293(29) 121180. 0.20454 0.23654
9015.0 0.95344 0.2311(29) 120459. 0.20452 0.23568
9025.0 0.95450 0.2270(29) 122330. 0.20449 0.23454
9035.0 0.95556 0.2314(29) 120214. 0.20447 0.23370
9045.0 0.95662 0.2317(29) 120058. 0.20444 0.23321
9055.0 0.95768 0.2325(29) 119610. 0.20441 0.23315
9065.0 0.95874 0.2341(29) 118870. 0.20438 0.23354
9075.0 0.95979 0.2346(29) 118404. 0.20435 0.23489
9085.0 0.96085 0.2391(29) 116575. 0.20431 0.23730
9095.0 0.96191 0.2336(29) 118970. 0.20428 0.24045
9105.0 0.96297 0.2409(29) 115865. 0.20424 0.24360
9115.0 0.96403 0.2383(29) 116849. 0.20420 0.24534
9125.0 0.96509 0.2363(29) 117753. 0.20416 0.24455
9135.0 0.96615 0.2346(29) 118402. 0.20412 0.24126
9145.0 0.96720 0.2313(29) 119956. 0.20407 0.23643
9155.0 0.96826 0.2239(28) 123367. 0.20403 0.23127
9165.0 0.96932 0.2200(28) 125234. 0.20398 0.22681
9175.0 0.97038 0.2251(29) 122579. 0.20393 0.22332
9185.0 0.97144 0.2232(28) 123493. 0.20388 0.22103
9195.0 0.97250 0.2238(29) 123091. 0.20383 0.21994
9205.0 0.97356 0.2213(28) 124304. 0.20378 0.21989
9215.0 0.97462 0.2223(28) 123637. 0.20372 0.22044
9225.0 0.97567 0.2273(29) 121050. 0.20367 0.22177
9235.0 0.97673 0.2228(28) 123116. 0.20361 0.22418
9245.0 0.97779 0.2277(29) 120761. 0.20355 0.22803
9255.0 0.97885 0.2429(30) 114132. 0.20349 0.23339
9265.0 0.97991 0.2359(29) 117155. 0.20343 0.24012
9275.0 0.98097 0.2454(30) 113247. 0.20337 0.24770
9285.0 0.98203 0.2553(30) 109383. 0.20331 0.25476
9295.0 0.98309 0.2597(30) 107679. 0.20324 0.26005
9305.0 0.98414 0.2674(31) 104952. 0.20317 0.26252
9315.0 0.98520 0.2629(31) 106589. 0.20311 0.26189
9325.0 0.98626 0.2648(31) 105880. 0.20304 0.25857
9335.0 0.98732 0.2544(30) 109748. 0.20297 0.25327
9345.0 0.98838 0.2483(30) 112051. 0.20290 0.24756
9355.0 0.98944 0.2489(30) 111953. 0.20283 0.24263
9365.0 0.99050 0.2431(30) 114654. 0.20275 0.23943
9375.0 0.99155 0.2365(29) 117689. 0.20268 0.23816
9385.0 0.99261 0.2348(29) 118534. 0.20260 0.23849
9395.0 0.99367 0.2382(29) 117243. 0.20253 0.23954
9405.0 0.99473 0.2313(29) 120478. 0.20245 0.24027
9415.0 0.99579 0.2417(29) 115769. 0.20237 0.24035
9425.0 0.99685 0.2414(29) 115853. 0.20229 0.23973
9435.0 0.99791 0.2384(29) 117239. 0.20221 0.23883
9445.0 0.99897 0.2376(29) 117585. 0.20213 0.23830
9455.0 1.00002 0.2399(29) 116568. 0.20205 0.23857
9465.0 1.00108 0.2396(29) 116704. 0.20197 0.23960
9475.0 1.00214 0.2420(29) 115865. 0.20189 0.24118
9485.0 1.00320 0.2425(29) 115606. 0.20180 0.24295
9495.0 1.00426 0.2457(30) 114583. 0.20172 0.24441
9505.0 1.00532 0.2450(30) 114797. 0.20163 0.24488
9515.0 1.00638 0.2467(30) 114012. 0.20155 0.24435
9525.0 1.00744 0.2460(30) 114071. 0.20146 0.24293
9535.0 1.00849 0.2398(29) 116617. 0.20137 0.24078
9545.0 1.00955 0.2374(29) 117743. 0.20129 0.23814
9555.0 1.01061 0.2394(29) 116887. 0.20120 0.23510
9565.0 1.01167 0.2390(29) 117123. 0.20111 0.23232
9575.0 1.01273 0.2363(29) 118337. 0.20102 0.23027
9585.0 1.01379 0.2311(29) 120767. 0.20093 0.22911
9595.0 1.01485 0.2337(29) 119477. 0.20084 0.22896
9605.0 1.01591 0.2385(29) 117280. 0.20075 0.22959
9615.0 1.01696 0.2316(29) 120393. 0.20065 0.23070
9625.0 1.01802 0.2415(29) 115988. 0.20056 0.23161
9635.0 1.01908 0.2346(29) 118860. 0.20047 0.23188
9645.0 1.02014 0.2338(29) 119246. 0.20038 0.23100
9655.0 1.02120 0.2418(29) 115783. 0.20028 0.22983
9665.0 1.02226 0.2282(29) 121683. 0.20019 0.22871
9675.0 1.02332 0.2303(29) 120816. 0.20010 0.22790
9685.0 1.02437 0.2312(29) 120359. 0.20000 0.22714
9695.0 1.02543 0.2246(28) 123417. 0.19991 0.22623
9705.0 1.02649 0.2308(29) 120702. 0.19981 0.22503
9715.0 1.02755 0.2276(29) 122128. 0.19972 0.22346
9725.0 1.02861 0.2254(29) 123071. 0.19962 0.22159
9735.0 1.02967 0.2235(28) 123734. 0.19953 0.21954
9745.0 1.03073 0.2188(28) 126035. 0.19943 0.21748
9755.0 1.03179 0.2185(28) 126182. 0.19933 0.21565
9765.0 1.03284 0.2148(28) 127931. 0.19924 0.21417
9775.0 1.03390 0.2112(28) 129780. 0.19914 0.21302
9785.0 1.03496 0.2130(28) 128843. 0.19905 0.21196
9795.0 1.03602 0.2194(28) 125535. 0.19895 0.21094
9805.0 1.03708 0.2091(28) 130826. 0.19885 0.21022
9815.0 1.03814 0.2142(28) 128153. 0.19876 0.20977
9825.0 1.03920 0.2108(28) 130238. 0.19866 0.20982
9835.0 1.04026 0.2143(28) 128360. 0.19857 0.21040
9845.0 1.04131 0.2162(28) 127143. 0.19847 0.21169
9855.0 1.04237 0.2229(28) 123865. 0.19837 0.21363
9865.0 1.04343 0.2169(28) 126744. 0.19828 0.21574
9875.0 1.04449 0.2184(28) 125926. 0.19818 0.21802
9885.0 1.04555 0.2258(29) 122054. 0.19809 0.22025
9895.0 1.04661 0.2257(29) 121974. 0.19799 0.22210
9905.0 1.04767 0.2267(29) 121561. 0.19789 0.22355
9915.0 1.04873 0.2276(29) 121225. 0.19780 0.22463
9925.0 1.04978 0.2237(29) 122858. 0.19770 0.22505
9935.0 1.05084 0.2249(29) 122399. 0.19761 0.22537
9945.0 1.05190 0.2290(29) 120421. 0.19751 0.22572
9955.0 1.05296 0.2252(29) 122503. 0.19742 0.22587
9965.0 1.05402 0.2277(29) 121369. 0.19733 0.22542
9975.0 1.05508 0.2282(29) 121098. 0.19723 0.22451
9985.0 1.05614 0.2248(29) 122448. 0.19714 0.22298
9995.0 1.05720 0.2183(28) 125476. 0.19704 0.22074
10005.0 1.05825 0.2192(28) 124992. 0.19695 0.21818
10015.0 1.05931 0.2211(28) 123767. 0.19686 0.21582
10025.0 1.06037 0.2122(28) 128286. 0.19677 0.21386
10035.0 1.06143 0.2111(28) 128939. 0.19667 0.21244
10045.0 1.06249 0.2116(28) 128530. 0.19658 0.21167
10055.0 1.06355 0.2121(28) 128283. 0.19649 0.21137
10065.0 1.06461 0.2154(28) 126507. 0.19640 0.21147
10075.0 1.06567 0.2126(28) 127863. 0.19631 0.21204
10085.0 1.06672 0.2081(28) 130457. 0.19622 0.21318
10095.0 1.06778 0.2227(29) 123033. 0.19613 0.21499
10105.0 1.06884 0.2188(28) 124771. 0.19604 0.21741
10115.0 1.06990 0.2274(29) 120492. 0.19595 0.22027
10125.0 1.07096 0.2308(29) 118908. 0.19587 0.22336
10135.0 1.07202 0.2254(29) 121409. 0.19578 0.22644
10145.0 1.07308 0.2328(29) 118119. 0.19569 0.22934
10155.0 1.07414 0.2325(29) 118364. 0.19561 0.23240
10165.0 1.07519 0.2376(29) 116193. 0.19552 0.23603
10175.0 1.07625 0.2453(30) 113016. 0.19543 0.24041
10185.0 1.07731 0.2490(30) 111607. 0.19535 0.24524
10195.0 1.07837 0.2557(30) 108896. 0.19527 0.24965
10205.0 1.07943 0.2602(31) 107362. 0.19518 0.25254
10215.0 1.08049 0.2567(30) 108560. 0.19510 0.25299
10225.0 1.08155 0.2609(31) 107008. 0.19502 0.25117
10235.0 1.08261 0.2532(30) 109953. 0.19494 0.24810
10245.0 1.08366 0.2540(30) 109658. 0.19485 0.24541
10255.0 1.08472 0.2439(30) 113580. 0.19477 0.24391
10265.0 1.08578 0.2503(30) 110862. 0.19469 0.24400
10275.0 1.08684 0.2442(30) 113359. 0.19462 0.24547
10285.0 1.08790 0.2466(30) 112229. 0.19454 0.24765
10295.0 1.08896 0.2463(30) 112194. 0.19446 0.24970
10305.0 1.09002 0.2466(30) 112109. 0.19438 0.25037
10315.0 1.09108 0.2432(30) 113386. 0.19431 0.24913
10325.0 1.09213 0.2435(30) 113134. 0.19423 0.24614
10335.0 1.09319 0.2397(30) 114573. 0.19416 0.24242
10345.0 1.09425 0.2340(29) 117024. 0.19408 0.23841
10355.0 1.09531 0.2276(29) 119873. 0.19401 0.23452
10365.0 1.09637 0.2311(29) 118179. 0.19394 0.23098
10375.0 1.09743 0.2289(29) 119360. 0.19386 0.22786
10385.0 1.09849 0.2212(29) 122951. 0.19379 0.22496
10395.0 1.09955 0.2184(28) 124304. 0.19372 0.22196
10405.0 1.10060 0.2183(28) 124268. 0.19365 0.21880
10415.0 1.10166 0.2111(28) 127776. 0.19358 0.21536
10425.0 1.10272 0.2074(28) 129547. 0.19352 0.21218
10435.0 1.10378 0.2114(28) 127289. 0.19345 0.20950
10445.0 1.10484 0.2080(28) 129160. 0.19338 0.20750
10455.0 1.10590 0.2049(28) 130918. 0.19332 0.20622
10465.0 1.10696 0.2070(28) 129586. 0.19325 0.20565
10475.0 1.10802 0.2030(28) 131742. 0.19319 0.20561
10485.0 1.10907 0.2037(28) 131517. 0.19312 0.20612
10495.0 1.11013 0.2113(28) 127427. 0.19306 0.20680
10505.0 1.11119 0.2045(28) 131191. 0.19300 0.20749
10515.0 1.11225 0.2109(28) 127965. 0.19294 0.20791
10525.0 1.11331 0.2100(28) 128464. 0.19288 0.20811
10535.0 1.11437 0.2094(28) 128764. 0.19282 0.20762
10545.0 1.11543 0.2059(28) 130764. 0.19276 0.20671
10555.0 1.11649 0.2045(28) 131633. 0.19270 0.20541
10565.0 1.11755 0.2048(28) 131427. 0.19265 0.20402
10575.0 1.11860 0.2033(27) 132287. 0.19259 0.20269
10585.0 1.11966 0.2011(27) 133544. 0.19254 0.20137
10595.0 1.12072 0.2023(27) 132939. 0.19248 0.20073
10605.0 1.12178 0.1973(27) 135774. 0.19243 0.20053
10615.0 1.12284 0.2000(27) 133845. 0.19238 0.20076
10625.0 1.12390 0.1961(27) 136077. 0.19232 0.20139
10635.0 1.12496 0.2003(27) 133582. 0.19227 0.20234
10645.0 1.12602 0.2005(27) 133664. 0.19222 0.20348
10655.0 1.12707 0.2037(28) 131887. 0.19217 0.20463
10665.0 1.12813 0.2043(28) 131364. 0.19213 0.20571
10675.0 1.12919 0.2027(27) 132525. 0.19208 0.20664
10685.0 1.13025 0.2076(28) 129746. 0.19203 0.20723
10695.0 1.13131 0.2090(28) 129030. 0.19199 0.20815
10705.0 1.13237 0.2055(28) 130890. 0.19194 0.20914
10715.0 1.13343 0.2125(28) 127255. 0.19190 0.21013
10725.0 1.13449 0.2076(28) 129766. 0.19185 0.21103
10735.0 1.13554 0.2077(28) 129636. 0.19181 0.21178
10745.0 1.13660 0.2095(28) 128681. 0.19177 0.21245
10755.0 1.13766 0.2081(28) 129542. 0.19173 0.21312
10765.0 1.13872 0.2153(28) 125864. 0.19169 0.21401
10775.0 1.13978 0.2110(28) 128329. 0.19165 0.21492
10785.0 1.14084 0.2165(28) 125350. 0.19161 0.21558
10795.0 1.14190 0.2170(28) 124858. 0.19157 0.21554
10805.0 1.14296 0.2194(28) 123524. 0.19154 0.21486
10815.0 1.14402 0.2167(28) 124723. 0.19150 0.21358
10825.0 1.14507 0.2196(28) 123351. 0.19147 0.21206
10835.0 1.14613 0.2160(28) 125224. 0.19143 0.21070
10845.0 1.14719 0.2127(28) 126849. 0.19140 0.20981
10855.0 1.14825 0.2120(28) 127437. 0.19137 0.20958
10865.0 1.14931 0.2165(28) 125013. 0.19133 0.21010
10875.0 1.15037 0.2072(28) 129993. 0.19130 0.21150
10885.0 1.15143 0.2156(28) 125435. 0.19127 0.21369
10895.0 1.15249 0.2179(28) 124476. 0.19124 0.21644
10905.0 1.15354 0.2200(28) 123495. 0.19121 0.21931
10915.0 1.15460 0.2218(29) 122666. 0.19119 0.22184
10925.0 1.15566 0.2255(29) 120839. 0.19116 0.22328
10935.0 1.15672 0.2162(28) 125389. 0.19113 0.22339
10945.0 1.15778 0.2210(28) 123238. 0.19111 0.22203
10955.0 1.15884 0.2185(28) 124271. 0.19108 0.21972
10965.0 1.15990 0.2136(28) 126828. 0.19106 0.21686
10975.0 1.16096 0.2121(28) 127798. 0.19103 0.21363
10985.0 1.16201 0.2110(28) 128156. 0.19101 0.21029
10995.0 1.16307 0.2095(28) 128679. 0.19099 0.20706
11005.0 1.16413 0.2066(28) 130304. 0.19097 0.20416
11015.0 1.16519 0.2070(28) 130209. 0.19095 0.20172
11025.0 1.16625 0.2005(27) 133829. 0.19093 0.19977
11035.0 1.16731 0.1986(27) 135141. 0.19091 0.19822
11045.0 1.16837 0.2055(28) 131240. 0.19089 0.19710
11055.0 1.16943 0.2001(27) 134330. 0.19087 0.19628
11065.0 1.17049 0.1935(27) 138240. 0.19086 0.19605
11075.0 1.17154 0.1959(27) 136899. 0.19084 0.19564
11085.0 1.17260 0.1865(26) 142986. 0.19082 0.19534
11095.0 1.17366 0.1969(27) 136476. 0.19081 0.19511
11105.0 1.17472 0.1911(27) 140163. 0.19079 0.19498
11115.0 1.17578 0.1909(27) 140180. 0.19078 0.19484
11125.0 1.17684 0.1938(27) 138195. 0.19077 0.19483
11135.0 1.17790 0.1883(27) 141729. 0.19075 0.19486
11145.0 1.17896 0.1961(27) 136840. 0.19074 0.19491
11155.0 1.18001 0.1966(27) 136729. 0.19073 0.19495
11165.0 1.18107 0.1935(27) 138709. 0.19072 0.19494
11175.0 1.18213 0.1904(27) 140721. 0.19071 0.19484
11185.0 1.18319 0.1897(27) 140995. 0.19070 0.19464
11195.0 1.18425 0.1941(27) 138428. 0.19069 0.19455
11205.0 1.18531 0.1947(27) 137812. 0.19068 0.19451
11215.0 1.18637 0.1933(27) 138652. 0.19068 0.19453
11225.0 1.18743 0.1897(27) 140895. 0.19067 0.19467
11235.0 1.18849 0.1926(27) 139119. 0.19066 0.19492
11245.0 1.18954 0.1942(27) 138403. 0.19066 0.19531
11255.0 1.19060 0.1918(27) 139913. 0.19065 0.19583
11265.0 1.19166 0.1871(26) 142977. 0.19065 0.19650
11275.0 1.19272 0.1930(27) 139347. 0.19064 0.19733
11285.0 1.19378 0.1984(27) 135946. 0.19064 0.19832
11295.0 1.19484 0.1923(27) 139720. 0.19064 0.19952
11305.0 1.19590 0.1991(27) 135767. 0.19063 0.20082
11315.0 1.19696 0.2030(27) 133500. 0.19063 0.20266
11325.0 1.19802 0.1976(27) 136640. 0.19063 0.20490
11335.0 1.19907 0.2023(27) 134024. 0.19063 0.20760
11345.0 1.20013 0.2102(28) 129835. 0.19063 0.21051
11355.0 1.20119 0.2076(28) 131309. 0.19063 0.21366
11365.0 1.20225 0.2211(28) 124172. 0.19063 0.21676
11375.0 1.20331 0.2174(28) 126107. 0.19063 0.21948
11385.0 1.20437 0.2228(28) 123273. 0.19063 0.22157
11395.0 1.20543 0.2223(28) 123501. 0.19063 0.22286
11405.0 1.20649 0.2244(29) 122535. 0.19063 0.22356
11415.0 1.20754 0.2277(29) 120995. 0.19063 0.22417
11425.0 1.20860 0.2325(29) 118900. 0.19063 0.22526
11435.0 1.20966 0.2288(29) 120630. 0.19064 0.22707
11445.0 1.21072 0.2288(29) 120620. 0.19064 0.22973
11455.0 1.21178 0.2338(29) 118352. 0.19064 0.23333
11465.0 1.21284 0.2373(29) 116743. 0.19065 0.23689
11475.0 1.21390 0.2364(29) 116973. 0.19065 0.24029
11485.0 1.21496 0.2376(29) 116567. 0.19066 0.24260
11495.0 1.21602 0.2411(29) 115157. 0.19066 0.24330
11505.0 1.21707 0.2391(29) 115947. 0.19067 0.24189
11515.0 1.21813 0.2379(29) 116417. 0.19067 0.23834
11525.0 1.21919 0.2330(29) 118767. 0.19068 0.23322
11535.0 1.22025 0.2267(29) 121646. 0.19069 0.22734
11545.0 1.22131 0.2215(28) 124235. 0.19069 0.22142
11555.0 1.22237 0.2202(28) 124845. 0.19070 0.21595
11565.0 1.22343 0.2155(28) 127565. 0.19071 0.21118
11575.0 1.22449 0.2088(28) 131326. 0.19071 0.20722
11585.0 1.22555 0.1996(27) 136831. 0.19072 0.20407
11595.0 1.22660 0.2035(27) 134635. 0.19073 0.20180
11605.0 1.22766 0.2080(28) 132186. 0.19074 0.20005
11615.0 1.22872 0.2028(27) 134860. 0.19074 0.19882
11625.0 1.22978 0.2035(27) 134614. 0.19075 0.19801
11635.0 1.23084 0.1956(27) 139632. 0.19076 0.19752
11645.0 1.23190 0.1913(26) 142511. 0.19077 0.19730
11655.0 1.23296 0.1983(27) 138280. 0.19078 0.19731
11665.0 1.23402 0.1949(27) 140413. 0.19079 0.19754
11675.0 1.23508 0.1964(27) 139368. 0.19080 0.19799
11685.0 1.23613 0.1962(27) 139320. 0.19081 0.19879
11695.0 1.23719 0.1997(27) 137167. 0.19082 0.19973
11705.0 1.23825 0.2004(27) 137053. 0.19082 0.20093
11715.0 1.23931 0.1989(27) 138084. 0.19083 0.20237
11725.0 1.24037 0.1965(27) 139673. 0.19084 0.20401
11735.0 1.24143 0.2094(27) 132470. 0.19085 0.20578
11745.0 1.24249 0.2073(27) 133733. 0.19086 0.20774
11755.0 1.24355 0.2020(27) 136921. 0.19087 0.20943
11765.0 1.24460 0.2096(27) 132468. 0.19089 0.21098
11775.0 1.24566 0.2118(28) 131352. 0.19090 0.21241
11785.0 1.24672 0.2161(28) 129213. 0.19091 0.21382
11795.0 1.24778 0.2103(27) 132311. 0.19092 0.21524
11805.0 1.24884 0.2181(28) 128155. 0.19093 0.21657
11815.0 1.24990 0.2138(28) 130477. 0.19094 0.21827
11825.0 1.25096 0.2233(28) 125758. 0.19095 0.22029
11835.0 1.25202 0.2251(28) 124958. 0.19096 0.22282
11845.0 1.25308 0.2249(28) 125104. 0.19097 0.22604
11855.0 1.25413 0.2316(29) 122088. 0.19098 0.23019
11865.0 1.25519 0.2381(29) 118926. 0.19099 0.23526
11875.0 1.25625 0.2403(29) 118151. 0.19100 0.24116
11885.0 1.25731 0.2477(29) 115145. 0.19101 0.24748
11895.0 1.25837 0.2478(29) 115312. 0.19102 0.25349
11905.0 1.25943 0.2587(30) 111133. 0.19103 0.25818
11915.0 1.26049 0.2670(30) 108195. 0.19104 0.26055
11925.0 1.26155 0.2659(30) 108685. 0.19105 0.25967
11935.0 1.26261 0.2629(30) 109926. 0.19107 0.25635
11945.0 1.26366 0.2566(30) 112414. 0.19108 0.25101
11955.0 1.26472 0.2539(30) 113795. 0.19109 0.24467
11965.0 1.26578 0.2395(29) 119987. 0.19110 0.23851
11975.0 1.26684 0.2362(29) 121397. 0.19111 0.23289
11985.0 1.26790 0.2305(28) 123964. 0.19112 0.22849
11995.0 1.26896 0.2248(28) 126720. 0.19113 0.22543
12005.0 1.27002 0.2262(28) 126266. 0.19114 0.22378
12015.0 1.27108 0.2226(28) 128158. 0.19115 0.22335
12025.0 1.27214 0.2235(28) 127769. 0.19116 0.22383
12035.0 1.27319 0.2201(28) 129625. 0.19117 0.22481
12045.0 1.27425 0.2223(28) 128567. 0.19117 0.22589
12055.0 1.27531 0.2252(28) 127104. 0.19118 0.22682
12065.0 1.27637 0.2260(28) 126723. 0.19119 0.22759
12075.0 1.27743 0.2291(28) 125220. 0.19120 0.22829
12085.0 1.27849 0.2219(28) 128778. 0.19121 0.22897
12095.0 1.27955 0.2259(28) 126807. 0.19122 0.22955
12105.0 1.28061 0.2245(28) 127542. 0.19123 0.22993
12115.0 1.28167 0.2196(28) 130491. 0.19124 0.22994
12125.0 1.28272 0.2174(28) 131828. 0.19125 0.22957
12135.0 1.28378 0.2199(28) 130690. 0.19125 0.22876
12145.0 1.28484 0.2140(27) 133913. 0.19126 0.22739
12155.0 1.28590 0.2146(27) 133584. 0.19127 0.22532
12165.0 1.28696 0.2166(27) 132725. 0.19128 0.22254
12175.0 1.28802 0.2123(27) 135012. 0.19128 0.21926
12185.0 1.28908 0.2143(27) 133990. 0.19129 0.21579
12195.0 1.29014 0.2091(27) 136830. 0.19130 0.21245
12205.0 1.29120 0.2084(27) 137157. 0.19130 0.20941
12215.0 1.29226 0.2084(27) 137057. 0.19131 0.20690
12225.0 1.29331 0.2080(27) 137546. 0.19132 0.20500
12235.0 1.29437 0.2093(27) 137059. 0.19132 0.20363
12245.0 1.29543 0.2044(27) 139767. 0.19133 0.20282
12255.0 1.29649 0.2024(27) 140894. 0.19133 0.20247
12265.0 1.29755 0.2037(27) 140370. 0.19134 0.20267
12275.0 1.29861 0.2072(27) 138604. 0.19134 0.20331
12285.0 1.29967 0.2081(27) 138102. 0.19135 0.20429
12295.0 1.30073 0.2030(27) 141469. 0.19135 0.20569
12305.0 1.30179 0.2087(27) 138004. 0.19136 0.20729
12315.0 1.30284 0.2093(27) 137695. 0.19136 0.20913
12325.0 1.30390 0.2122(27) 136204. 0.19137 0.21082
12335.0 1.30496 0.2168(27) 133699. 0.19137 0.21288
12345.0 1.30602 0.2150(27) 134698. 0.19137 0.21529
12355.0 1.30708 0.2185(27) 132750. 0.19138 0.21769
12365.0 1.30814 0.2176(27) 133258. 0.19138 0.21981
12375.0 1.30920 0.2219(28) 131037. 0.19138 0.22129
12385.0 1.31026 0.2210(28) 131604. 0.19138 0.22184
12395.0 1.31132 0.2204(28) 131943. 0.19139 0.22135
12405.0 1.31237 0.2141(27) 135662. 0.19139 0.21993
12415.0 1.31343 0.2151(27) 135058. 0.19139 0.21783
12425.0 1.31449 0.2160(27) 134673. 0.19139 0.21527
12435.0 1.31555 0.2127(27) 136604. 0.19139 0.21247
12445.0 1.31661 0.2116(27) 137619. 0.19139 0.20961
12455.0 1.31767 0.2027(26) 142910. 0.19139 0.20686
12465.0 1.31873 0.2068(27) 140321. 0.19139 0.20422
12475.0 1.31979 0.2064(27) 140837. 0.19139 0.20209
12485.0 1.32085 0.1994(26) 145205. 0.19139 0.20035
12495.0 1.32190 0.1982(26) 146039. 0.19139 0.19899
12505.0 1.32296 0.1922(26) 150153. 0.19139 0.19800
12515.0 1.32402 0.1977(26) 146420. 0.19139 0.19732
12525.0 1.32508 0.2025(26) 143537. 0.19138 0.19691
12535.0 1.32614 0.1942(26) 148634. 0.19138 0.19673
12545.0 1.32720 0.1917(26) 150272. 0.19138 0.19670
12555.0 1.32826 0.1958(26) 147665. 0.19138 0.19667
12565.0 1.32932 0.1958(26) 147449. 0.19137 0.19680
12575.0 1.33038 0.2003(26) 144440. 0.19137 0.19691
12585.0 1.33144 0.1991(26) 145286. 0.19137 0.19695
12595.0 1.33249 0.1995(26) 145243. 0.19136 0.19692
12605.0 1.33355 0.2011(26) 144048. 0.19136 0.19681
12615.0 1.33461 0.1976(26) 146210. 0.19135 0.19656
12625.0 1.33567 0.1938(26) 148706. 0.19135 0.19651
12635.0 1.33673 0.2006(26) 144428. 0.19134 0.19656
12645.0 1.33779 0.1994(26) 144819. 0.19134 0.19677
12655.0 1.33885 0.1962(26) 146853. 0.19133 0.19716
12665.0 1.33991 0.1946(26) 147829. 0.19132 0.19774
12675.0 1.34097 0.1963(26) 146689. 0.19132 0.19852
12685.0 1.34202 0.2023(26) 142993. 0.19131 0.19947
12695.0 1.34308 0.2067(27) 140302. 0.19130 0.20052
12705.0 1.34414 0.1971(26) 146064. 0.19130 0.20161
12715.0 1.34520 0.2013(26) 143663. 0.19129 0.20258
12725.0 1.34626 0.2050(27) 140979. 0.19128 0.20341
12735.0 1.34732 0.2047(27) 141085. 0.19127 0.20401
12745.0 1.34838 0.2082(27) 139146. 0.19126 0.20438
12755.0 1.34944 0.2054(27) 140772. 0.19126 0.20454
12765.0 1.35050 0.2082(27) 139197. 0.19125 0.20450
12775.0 1.35156 0.2086(27) 138863. 0.19124 0.20421
12785.0 1.35261 0.2098(27) 138246. 0.19123 0.20365
12795.0 1.35367 0.2115(27) 137306. 0.19122 0.20292
12805.0 1.35473 0.1988(26) 145311. 0.19121 0.20180
12815.0 1.35579 0.2078(27) 139809. 0.19120 0.20056
12825.0 1.35685 0.2027(26) 143266. 0.19119 0.19926
12835.0 1.35791 0.1969(26) 147173. 0.19117 0.19783
12845.0 1.35897 0.1973(26) 146973. 0.19116 0.19664
12855.0 1.36003 0.1980(26) 146522. 0.19115 0.19565
12865.0 1.36109 0.1929(26) 150060. 0.19114 0.19483
12875.0 1.36214 0.1951(26) 148513. 0.19113 0.19414
12885.0 1.36320 0.1991(26) 146110. 0.19111 0.19359
12895.0 1.36426 0.1967(26) 147829. 0.19110 0.19317
12905.0 1.36532 0.1924(26) 150769. 0.19109 0.19284
12915.0 1.36638 0.1930(26) 150498. 0.19108 0.19260
12925.0 1.36744 0.1986(26) 147008. 0.19106 0.19241
12935.0 1.36850 0.1947(26) 149745. 0.19105 0.19227
12945.0 1.36956 0.1952(26) 149652. 0.19103 0.19235
12955.0 1.37062 0.1907(26) 153121. 0.19102 0.19228
12965.0 1.37168 0.1937(26) 151111. 0.19101 0.19222
12975.0 1.37273 0.1926(26) 152000. 0.19099 0.19218
12985.0 1.37379 0.1908(26) 153300. 0.19098 0.19219
12995.0 1.37485 0.1931(26) 151697. 0.19096 0.19217
13005.0 1.37591 0.1956(26) 150130. 0.19095 0.19216
13015.0 1.37697 0.1946(26) 150844. 0.19093 0.19216
13025.0 1.37803 0.1950(26) 150968. 0.19092 0.19217
13035.0 1.37909 0.1937(26) 151807. 0.19090 0.19218
13045.0 1.38015 0.1951(26) 150944. 0.19088 0.19221
13055.0 1.38121 0.1933(26) 152075. 0.19087 0.19224
13065.0 1.38226 0.1925(26) 152779. 0.19085 0.19227
13075.0 1.38332 0.1950(26) 150905. 0.19084 0.19233
13085.0 1.38438 0.1949(26) 151373. 0.19082 0.19241
13095.0 1.38544 0.1962(26) 150518. 0.19080 0.19250
13105.0 1.38650 0.1929(26) 152669. 0.19078 0.19263
13115.0 1.38756 0.1891(25) 155250. 0.19077 0.19279
13125.0 1.38862 0.1979(26) 149288. 0.19075 0.19300
13135.0 1.38968 0.1958(26) 150662. 0.19073 0.19327
13145.0 1.39074 0.1943(26) 151991. 0.19071 0.19364
13155.0 1.39180 0.1972(26) 150203. 0.19070 0.19412
13165.0 1.39285 0.1940(26) 152384. 0.19068 0.19496
13175.0 1.39391 0.1931(26) 153098. 0.19066 0.19578
13185.0 1.39497 0.1968(26) 150776. 0.19064 0.19674
13195.0 1.39603 0.1980(26) 150179. 0.19062 0.19801
13205.0 1.39709 0.2024(26) 147445. 0.19061 0.19952
13215.0 1.39815 0.2052(26) 145804. 0.19059 0.20129
13225.0 1.39921 0.2041(26) 146617. 0.19057 0.20327
13235.0 1.40027 0.2057(26) 145518. 0.19055 0.20542
13245.0 1.40133 0.2164(27) 139187. 0.19053 0.20763
13255.0 1.40239 0.2166(27) 139185. 0.19051 0.20982
13265.0 1.40344 0.2216(27) 136540. 0.19049 0.21170
13275.0 1.40450 0.2236(27) 135384. 0.19048 0.21355
13285.0 1.40556 0.2166(27) 139496. 0.19046 0.21444
13295.0 1.40662 0.2186(27) 138496. 0.19044 0.21475
13305.0 1.40768 0.2186(27) 138473. 0.19042 0.21462
13315.0 1.40874 0.2199(27) 137773. 0.19040 0.21427
13325.0 1.40980 0.2189(27) 138481. 0.19038 0.21391
13335.0 1.41086 0.2205(27) 137721. 0.19036 0.21375
13345.0 1.41192 0.2174(27) 139312. 0.19034 0.21389
13355.0 1.41298 0.2211(27) 137412. 0.19032 0.21441
13365.0 1.41403 0.2184(27) 138998. 0.19030 0.21529
13375.0 1.41509 0.2133(27) 142135. 0.19029 0.21645
13385.0 1.41615 0.2212(27) 137753. 0.19027 0.21771
13395.0 1.41721 0.2183(27) 139570. 0.19025 0.21883
13405.0 1.41827 0.2175(27) 140174. 0.19023 0.21953
13415.0 1.41933 0.2191(27) 139180. 0.19021 0.21961
13425.0 1.42039 0.2165(27) 140542. 0.19019 0.21899
13435.0 1.42145 0.2112(26) 143702. 0.19017 0.21777
13445.0 1.42251 0.2125(26) 143034. 0.19015 0.21614
13455.0 1.42357 0.2077(26) 146039. 0.19013 0.21431
13465.0 1.42462 0.2114(26) 143702. 0.19012 0.21247
13475.0 1.42568 0.2132(26) 142685. 0.19010 0.21071
13485.0 1.42674 0.2050(26) 147898. 0.19008 0.20912
13495.0 1.42780 0.2087(26) 145498. 0.19006 0.20776
13505.0 1.42886 0.2039(26) 148670. 0.19004 0.20669
13515.0 1.42992 0.2050(26) 148099. 0.19002 0.20602
13525.0 1.43098 0.2021(26) 150012. 0.19001 0.20575
13535.0 1.43204 0.2090(26) 145509. 0.18999 0.20597
13545.0 1.43310 0.1999(26) 151539. 0.18997 0.20669
13555.0 1.43416 0.2046(26) 148759. 0.18995 0.20792
13565.0 1.43521 0.2018(26) 150663. 0.18994 0.20959
13575.0 1.43627 0.2041(26) 149443. 0.18992 0.21164
13585.0 1.43733 0.2098(26) 145911. 0.18990 0.21393
13595.0 1.43839 0.2113(26) 145007. 0.18988 0.21630
13605.0 1.43945 0.2116(26) 144874. 0.18987 0.21850
13615.0 1.44051 0.2109(26) 145578. 0.18985 0.22027
13625.0 1.44157 0.2162(27) 142255. 0.18983 0.22138
13635.0 1.44263 0.2202(27) 139796. 0.18982 0.22173
13645.0 1.44369 0.2158(26) 142453. 0.18980 0.22139
13655.0 1.44475 0.2197(27) 140095. 0.18979 0.22061
13665.0 1.44580 0.2172(27) 141651. 0.18977 0.21971
13675.0 1.44686 0.2164(27) 142175. 0.18976 0.21948
13685.0 1.44792 0.2173(27) 141839. 0.18974 0.21926
13695.0 1.44898 0.2235(27) 138186. 0.18973 0.21972
13705.0 1.45004 0.2208(27) 139683. 0.18971 0.22100
13715.0 1.45110 0.2197(27) 140397. 0.18970 0.22315
13725.0 1.45216 0.2258(27) 137308. 0.18969 0.22622
13735.0 1.45322 0.2297(27) 135050. 0.18967 0.23008
13745.0 1.45428 0.2337(27) 133088. 0.18966 0.23456
13755.0 1.45534 0.2383(28) 130711. 0.18965 0.23932
13765.0 1.45639 0.2434(28) 128308. 0.18963 0.24439
13775.0 1.45745 0.2485(28) 125939. 0.18962 0.24936
13785.0 1.45851 0.2549(28) 123262. 0.18961 0.25398
13795.0 1.45957 0.2539(28) 123821. 0.18960 0.25783
13805.0 1.46063 0.2586(29) 122002. 0.18959 0.26040
13815.0 1.46169 0.2584(29) 122222. 0.18958 0.26119
13825.0 1.46275 0.2629(29) 120262. 0.18956 0.25986
13835.0 1.46381 0.2579(29) 122529. 0.18955 0.25644
13845.0 1.46487 0.2531(28) 124936. 0.18955 0.25136
13855.0 1.46593 0.2453(28) 128634. 0.18954 0.24517
13865.0 1.46698 0.2405(28) 130958. 0.18953 0.23850
13875.0 1.46804 0.2328(27) 135005. 0.18952 0.23185
13885.0 1.46910 0.2266(27) 138605. 0.18951 0.22557
13895.0 1.47016 0.2186(26) 143386. 0.18950 0.21986
13905.0 1.47122 0.2112(26) 147802. 0.18950 0.21480
13915.0 1.47228 0.2126(26) 147126. 0.18949 0.21072
13925.0 1.47334 0.2042(26) 152669. 0.18948 0.20744
13935.0 1.47440 0.2057(26) 151866. 0.18948 0.20489
13945.0 1.47546 0.1981(25) 157284. 0.18947 0.20296
13955.0 1.47652 0.1954(25) 159461. 0.18947 0.20165
13965.0 1.47758 0.1969(25) 158539. 0.18946 0.20080
13975.0 1.47863 0.1974(25) 157957. 0.18946 0.20034
13985.0 1.47969 0.1945(25) 160011. 0.18945 0.20019
13995.0 1.48075 0.1951(25) 159702. 0.18945 0.20029
14005.0 1.48181 0.1937(25) 161099. 0.18945 0.20059
14015.0 1.48287 0.1982(25) 157783. 0.18945 0.20161
14025.0 1.48393 0.2039(25) 153814. 0.18945 0.20224
14035.0 1.48499 0.2020(25) 155164. 0.18944 0.20303
14045.0 1.48605 0.2031(25) 154534. 0.18944 0.20401
14055.0 1.48711 0.2068(26) 152017. 0.18944 0.20526
14065.0 1.48817 0.2048(26) 153387. 0.18945 0.20689
14075.0 1.48922 0.2073(26) 151577. 0.18945 0.20900
14085.0 1.49028 0.2124(26) 148266. 0.18945 0.21168
14095.0 1.49134 0.2136(26) 147423. 0.18945 0.21502
14105.0 1.49240 0.2177(26) 145043. 0.18945 0.21903
14115.0 1.49346 0.2217(26) 142796. 0.18946 0.22366
14125.0 1.49452 0.2326(27) 136953. 0.18946 0.22879
14135.0 1.49558 0.2303(27) 138202. 0.18947 0.23421
14145.0 1.49664 0.2318(27) 137536. 0.18947 0.23959
14155.0 1.49770 0.2340(27) 136393. 0.18948 0.24448
14165.0 1.49876 0.2367(27) 134946. 0.18949 0.24834
14175.0 1.49981 0.2360(27) 135260. 0.18949 0.25048
14185.0 1.50087 0.2374(27) 134627. 0.18950 0.25084
14195.0 1.50193 0.2363(27) 135121. 0.18951 0.24920
14205.0 1.50299 0.2355(27) 135894. 0.18952 0.24580
14215.0 1.50405 0.2324(27) 137614. 0.18953 0.24114
14225.0 1.50511 0.2299(27) 138973. 0.18954 0.23561
14235.0 1.50617 0.2255(27) 141510. 0.18955 0.22996
14245.0 1.50723 0.2270(27) 140797. 0.18956 0.22442
14255.0 1.50829 0.2215(26) 144092. 0.18958 0.21926
14265.0 1.50935 0.2234(26) 142933. 0.18959 0.21464
14275.0 1.51041 0.2153(26) 147746. 0.18961 0.21065
14285.0 1.51146 0.2210(26) 144065. 0.18962 0.20731
14295.0 1.51252 0.2161(26) 147093. 0.18964 0.20459
14305.0 1.51358 0.2101(26) 151203. 0.18965 0.20245
14315.0 1.51464 0.2116(26) 150155. 0.18967 0.20072
14325.0 1.51570 0.2064(26) 153546. 0.18969 0.19951
14335.0 1.51676 0.2092(26) 151658. 0.18971 0.19819
14345.0 1.51782 0.2048(25) 154480. 0.18973 0.19763
14355.0 1.51888 0.2068(26) 153235. 0.18975 0.19731
14365.0 1.51994 0.2051(25) 154576. 0.18977 0.19718
14375.0 1.52100 0.2011(25) 157258. 0.18979 0.19723
14385.0 1.52206 0.2046(25) 154821. 0.18981 0.19747
14395.0 1.52311 0.2043(25) 154995. 0.18983 0.19790
14405.0 1.52417 0.2052(25) 154349. 0.18986 0.19855
14415.0 1.52523 0.2064(26) 153450. 0.18988 0.19993
14425.0 1.52629 0.2080(26) 152397. 0.18991 0.20135
14435.0 1.52735 0.2104(26) 150923. 0.18993 0.20312
14445.0 1.52841 0.2106(26) 150966. 0.18996 0.20538
14455.0 1.52947 0.2152(26) 147951. 0.18999 0.20827
14465.0 1.53053 0.2160(26) 147442. 0.19002 0.21185
14475.0 1.53159 0.2206(26) 144740. 0.19005 0.21619
14485.0 1.53265 0.2227(26) 143495. 0.19008 0.22131
14495.0 1.53370 0.2288(27) 139941. 0.19011 0.22718
14505.0 1.53476 0.2384(27) 134744. 0.19014 0.23370
14515.0 1.53582 0.2374(27) 135165. 0.19018 0.24068
14525.0 1.53688 0.2467(28) 130478. 0.19021 0.24782
14535.0 1.53794 0.2550(28) 126663. 0.19024 0.25469
14545.0 1.53900 0.2586(28) 125024. 0.19028 0.26074
14555.0 1.54006 0.2643(29) 122507. 0.19032 0.26533
14565.0 1.54112 0.2658(29) 121843. 0.19035 0.26789
14575.0 1.54218 0.2701(29) 120045. 0.19039 0.26783
14585.0 1.54324 0.2670(29) 121413. 0.19043 0.26558
14595.0 1.54430 0.2598(28) 124642. 0.19047 0.26129
14605.0 1.54535 0.2631(28) 123227. 0.19051 0.25552
14615.0 1.54641 0.2568(28) 125962. 0.19055 0.24890
14625.0 1.54747 0.2452(28) 131575. 0.19060 0.24196
14635.0 1.54853 0.2391(27) 134745. 0.19064 0.23515
14645.0 1.54959 0.2356(27) 136790. 0.19068 0.22877
14655.0 1.55065 0.2260(27) 142196. 0.19073 0.22301
14665.0 1.55171 0.2194(26) 146222. 0.19078 0.21825
14675.0 1.55277 0.2166(26) 147972. 0.19082 0.21401
14685.0 1.55383 0.2146(26) 149325. 0.19087 0.21052
14695.0 1.55489 0.2128(26) 150717. 0.19092 0.20772
14705.0 1.55595 0.2083(25) 153909. 0.19097 0.20554
14715.0 1.55700 0.2058(25) 155599. 0.19102 0.20390
14725.0 1.55806 0.2078(25) 154340. 0.19107 0.20271
14735.0 1.55912 0.2091(26) 153482. 0.19113 0.20150
14745.0 1.56018 0.1977(25) 161633. 0.19118 0.20103
14755.0 1.56124 0.2046(25) 156840. 0.19123 0.20085
14765.0 1.56230 0.2054(25) 156309. 0.19129 0.20094
14775.0 1.56336 0.2059(25) 156126. 0.19135 0.20176
14785.0 1.56442 0.2027(25) 158291. 0.19140 0.20243
14795.0 1.56548 0.2053(25) 156549. 0.19146 0.20344
14805.0 1.56654 0.2024(25) 158727. 0.19152 0.20482
14815.0 1.56760 0.2121(26) 152304. 0.19158 0.20664
14825.0 1.56865 0.2149(26) 150764. 0.19164 0.20897
14835.0 1.56971 0.2168(26) 149524. 0.19170 0.21185
14845.0 1.57077 0.2168(26) 149809. 0.19177 0.21533
14855.0 1.57183 0.2183(26) 148932. 0.19183 0.21941
14865.0 1.57289 0.2219(26) 146710. 0.19190 0.22409
14875.0 1.57395 0.2313(27) 141432. 0.19196 0.22929
14885.0 1.57501 0.2358(27) 139176. 0.19203 0.23488
14895.0 1.57607 0.2406(27) 136731. 0.19210 0.24097
14905.0 1.57713 0.2446(27) 134892. 0.19217 0.24663
14915.0 1.57819 0.2473(27) 133491. 0.19223 0.25166
14925.0 1.57925 0.2496(27) 132342. 0.19231 0.25589
14935.0 1.58030 0.2492(27) 132543. 0.19238 0.25880
14945.0 1.58136 0.2467(27) 133916. 0.19245 0.26014
14955.0 1.58242 0.2511(28) 131776. 0.19252 0.25980
14965.0 1.58348 0.2506(28) 132089. 0.19260 0.25797
14975.0 1.58454 0.2440(27) 135309. 0.19267 0.25487
14985.0 1.58560 0.2467(27) 133929. 0.19275 0.25082
14995.0 1.58666 0.2426(27) 136368. 0.19283 0.24626
15005.0 1.58772 0.2405(27) 137550. 0.19291 0.24132
15015.0 1.58878 0.2368(27) 139903. 0.19299 0.23638
15025.0 1.58984 0.2328(27) 142203. 0.19307 0.23167
15035.0 1.59090 0.2300(26) 143711. 0.19315 0.22735
15045.0 1.59196 0.2217(26) 148840. 0.19323 0.22357
15055.0 1.59301 0.2181(26) 151543. 0.19331 0.22041
15065.0 1.59407 0.2169(26) 152352. 0.19340 0.21791
15075.0 1.59513 0.2193(26) 150770. 0.19348 0.21545
15085.0 1.59619 0.2161(26) 153067. 0.19357 0.21437
15095.0 1.59725 0.2145(25) 154121. 0.19366 0.21397
15105.0 1.59831 0.2154(26) 153728. 0.19374 0.21424
15115.0 1.59937 0.2127(25) 155588. 0.19383 0.21520
15125.0 1.60043 0.2149(25) 154290. 0.19392 0.21668
15135.0 1.60149 0.2172(26) 152985. 0.19401 0.21871
15145.0 1.60255 0.2221(26) 149884. 0.19411 0.22121
15155.0 1.60361 0.2243(26) 148499. 0.19420 0.22411
15165.0 1.60466 0.2255(26) 147623. 0.19429 0.22724
15175.0 1.60572 0.2252(26) 148000. 0.19439 0.23059
15185.0 1.60678 0.2293(26) 145678. 0.19448 0.23394
15195.0 1.60784 0.2330(26) 143767. 0.19458 0.23712
15205.0 1.60890 0.2359(27) 141994. 0.19468 0.23996
15215.0 1.60996 0.2346(26) 142859. 0.19478 0.24239
15225.0 1.61102 0.2418(27) 139050. 0.19487 0.24440
15235.0 1.61208 0.2355(26) 142402. 0.19497 0.24668
15245.0 1.61314 0.2426(27) 138889. 0.19508 0.24835
15255.0 1.61420 0.2471(27) 136572. 0.19518 0.25012
15265.0 1.61526 0.2458(27) 136942. 0.19528 0.25214
15275.0 1.61631 0.2488(27) 135659. 0.19539 0.25448
15285.0 1.61737 0.2524(27) 134030. 0.19549 0.25700
15295.0 1.61843 0.2554(27) 132542. 0.19560 0.25976
15305.0 1.61949 0.2586(28) 131194. 0.19570 0.26243
15315.0 1.62055 0.2583(28) 131088. 0.19581 0.26468
15325.0 1.62161 0.2644(28) 128182. 0.19592 0.26615
15335.0 1.62267 0.2607(28) 129910. 0.19603 0.26657
15345.0 1.62373 0.2609(28) 129866. 0.19614 0.26580
15355.0 1.62479 0.2585(28) 130994. 0.19625 0.26394
15365.0 1.62585 0.2556(27) 132349. 0.19637 0.26125
15375.0 1.62691 0.2594(28) 130672. 0.19648 0.25811
15385.0 1.62797 0.2545(27) 132948. 0.19659 0.25492
15395.0 1.62902 0.2487(27) 136038. 0.19671 0.25202
15405.0 1.63008 0.2482(27) 136389. 0.19682 0.24971
15415.0 1.63114 0.2554(27) 132679. 0.19694 0.24816
15425.0 1.63220 0.2468(27) 136978. 0.19706 0.24751
15435.0 1.63326 0.2562(27) 132293. 0.19718 0.24777
15445.0 1.63432 0.2524(27) 134110. 0.19730 0.24883
15455.0 1.63538 0.2631(28) 129176. 0.19742 0.25070
15465.0 1.63644 0.2633(28) 129018. 0.19754 0.25310
15475.0 1.63750 0.2612(28) 130193. 0.19766 0.25576
15485.0 1.63856 0.2633(28) 129342. 0.19778 0.25831
15495.0 1.63962 0.2679(28) 127345. 0.19791 0.26041
15505.0 1.64068 0.2724(28) 125232. 0.19803 0.26174
15515.0 1.64173 0.2690(28) 126670. 0.19816 0.26208
15525.0 1.64279 0.2704(28) 126029. 0.19828 0.26144
15535.0 1.64385 0.2726(28) 124889. 0.19841 0.25959
15545.0 1.64491 0.2685(28) 126753. 0.19854 0.25731
15555.0 1.64597 0.2637(28) 128889. 0.19867 0.25471
15565.0 1.64703 0.2598(28) 130668. 0.19880 0.25185
15575.0 1.64809 0.2517(27) 134703. 0.19893 0.24887
15585.0 1.64915 0.2547(27) 133354. 0.19906 0.24586
15595.0 1.65021 0.2424(27) 139614. 0.19919 0.24291
15605.0 1.65127 0.2394(27) 141170. 0.19932 0.24006
15615.0 1.65233 0.2344(26) 144106. 0.19946 0.23746
15625.0 1.65338 0.2382(27) 141877. 0.19959 0.23518
15635.0 1.65444 0.2367(27) 142319. 0.19973 0.23332
15645.0 1.65550 0.2285(26) 147094. 0.19986 0.23195
15655.0 1.65656 0.2273(26) 147994. 0.20000 0.23114
15665.0 1.65762 0.2294(26) 146626. 0.20014 0.23089
15675.0 1.65868 0.2270(26) 147811. 0.20027 0.23124
15685.0 1.65974 0.2268(26) 147973. 0.20041 0.23216
15695.0 1.66080 0.2255(26) 148942. 0.20055 0.23366
15705.0 1.66186 0.2346(26) 143522. 0.20069 0.23570
15715.0 1.66292 0.2382(27) 141492. 0.20083 0.23828
15725.0 1.66398 0.2355(26) 143000. 0.20098 0.24140
15735.0 1.66504 0.2439(27) 138549. 0.20112 0.24496
15745.0 1.66609 0.2454(27) 138060. 0.20126 0.24907
15755.0 1.66715 0.2498(27) 135917. 0.20141 0.25358
15765.0 1.66821 0.2583(28) 131838. 0.20155 0.25835
15775.0 1.66927 0.2653(28) 128364. 0.20170 0.26316
15785.0 1.67033 0.2723(28) 125086. 0.20184 0.26770
15795.0 1.67139 0.2763(28) 123487. 0.20199 0.27161
15805.0 1.67245 0.2743(28) 124313. 0.20214 0.27449
15815.0 1.67351 0.2756(28) 123692. 0.20228 0.27595
15825.0 1.67457 0.2797(29) 122108. 0.20243 0.27577
15835.0 1.67563 0.2767(28) 123284. 0.20258 0.27372
15845.0 1.67669 0.2732(28) 124944. 0.20273 0.27038
15855.0 1.67775 0.2599(28) 130779. 0.20288 0.26586
15865.0 1.67880 0.2655(28) 128130. 0.20303 0.26055
15875.0 1.67986 0.2534(27) 133831. 0.20318 0.25483
15885.0 1.68092 0.2495(27) 135742. 0.20334 0.24901
15895.0 1.68198 0.2456(27) 137752. 0.20349 0.24336
15905.0 1.68304 0.2407(27) 140516. 0.20364 0.23805
15915.0 1.68410 0.2312(26) 145828. 0.20380 0.23321
15925.0 1.68516 0.2283(26) 147426. 0.20395 0.22891
15935.0 1.68622 0.2201(26) 152603. 0.20411 0.22518
15945.0 1.68728 0.2172(25) 154494. 0.20426 0.22162
15955.0 1.68834 0.2149(25) 156194. 0.20442 0.21900
15965.0 1.68940 0.2177(25) 154412. 0.20458 0.21686
15975.0 1.69046 0.2183(25) 154082. 0.20473 0.21515
15985.0 1.69151 0.2112(25) 158766. 0.20489 0.21379
15995.0 1.69257 0.2110(25) 158809. 0.20505 0.21274
16005.0 1.69363 0.2131(25) 157384. 0.20521 0.21228
16015.0 1.69469 0.2119(25) 158187. 0.20537 0.21167
16025.0 1.69575 0.2087(25) 160374. 0.20553 0.21122
16035.0 1.69681 0.2068(25) 161436. 0.20569 0.21088
16045.0 1.69787 0.2082(25) 160147. 0.20585 0.21063
16055.0 1.69893 0.2123(25) 157185. 0.20601 0.21046
16065.0 1.69999 0.2115(25) 157677. 0.20617 0.20993
16075.0 1.70105 0.2119(25) 157528. 0.20633 0.20986
16085.0 1.70211 0.2102(25) 158470. 0.20650 0.20982
16095.0 1.70317 0.2127(25) 156935. 0.20666 0.20981
16105.0 1.70423 0.2081(25) 159933. 0.20682 0.20982
16115.0 1.70528 0.2095(25) 159042. 0.20699 0.20984
16125.0 1.70634 0.2120(25) 157484. 0.20715 0.20989
16135.0 1.70740 0.2184(26) 152971. 0.20732 0.20995
16145.0 1.70846 0.2127(25) 156829. 0.20748 0.21002
16155.0 1.70952 0.2115(25) 157411. 0.20765 0.21010
16165.0 1.71058 0.2155(25) 154778. 0.20781 0.21100
16175.0 1.71164 0.2118(25) 156973. 0.20798 0.21114
16185.0 1.71270 0.2140(25) 155429. 0.20814 0.21128
16195.0 1.71376 0.2151(25) 154746. 0.20831 0.21144
16205.0 1.71482 0.2099(25) 158305. 0.20848 0.21160
16215.0 1.71588 0.2125(25) 156609. 0.20865 0.21177
16225.0 1.71694 0.2058(25) 161140. 0.20881 0.21196
16235.0 1.71799 0.2045(25) 161984. 0.20898 0.21215
16245.0 1.71905 0.2131(25) 156086. 0.20915 0.21235
16255.0 1.72011 0.2060(25) 160802. 0.20932 0.21256
16265.0 1.72117 0.2100(25) 157816. 0.20949 0.21278
16275.0 1.72223 0.2070(25) 159741. 0.20966 0.21300
16285.0 1.72329 0.2126(25) 155824. 0.20983 0.21317
16295.0 1.72435 0.2064(25) 160090. 0.21000 0.21342
16305.0 1.72541 0.2099(25) 157391. 0.21017 0.21369
16315.0 1.72647 0.2164(26) 153096. 0.21034 0.21396
16325.0 1.72753 0.2081(25) 158702. 0.21051 0.21424
16335.0 1.72859 0.2105(25) 156992. 0.21068 0.21454
16345.0 1.72965 0.2142(25) 154278. 0.21085 0.21486
16355.0 1.73071 0.2065(25) 159342. 0.21102 0.21519
16365.0 1.73176 0.2121(25) 155266. 0.21119 0.21554
16375.0 1.73282 0.2130(25) 154548. 0.21136 0.21591
16385.0 1.73388 0.2112(25) 155804. 0.21153 0.21631
16395.0 1.73494 0.2113(25) 155763. 0.21170 0.21674
16405.0 1.73600 0.2198(26) 150007. 0.21187 0.21666
16415.0 1.73706 0.2170(26) 151924. 0.21205 0.21820
16425.0 1.73812 0.2137(25) 153909. 0.21222 0.21883
16435.0 1.73918 0.2146(26) 153253. 0.21239 0.21954
16445.0 1.74024 0.2145(26) 153256. 0.21256 0.22035
16455.0 1.74130 0.2174(26) 151260. 0.21273 0.22128
16465.0 1.74236 0.2210(26) 149069. 0.21291 0.22237
16475.0 1.74342 0.2178(26) 150962. 0.21308 0.22364
16485.0 1.74448 0.2205(26) 149320. 0.21325 0.22514
16495.0 1.74553 0.2160(26) 151994. 0.21342 0.22688
16505.0 1.74659 0.2232(26) 147264. 0.21360 0.22893
16515.0 1.74765 0.2301(26) 143440. 0.21377 0.23132
16525.0 1.74871 0.2239(26) 147005. 0.21394 0.23408
16535.0 1.74977 0.2381(27) 138871. 0.21411 0.23722
16545.0 1.75083 0.2345(27) 140898. 0.21429 0.24090
16555.0 1.75189 0.2458(27) 134888. 0.21446 0.24486
16565.0 1.75295 0.2466(27) 134390. 0.21463 0.24921
16575.0 1.75401 0.2505(27) 132320. 0.21480 0.25392
16585.0 1.75507 0.2633(28) 126220. 0.21498 0.25891
16595.0 1.75613 0.2543(28) 130310. 0.21515 0.26410
16605.0 1.75719 0.2702(28) 123181. 0.21532 0.26938
16615.0 1.75824 0.2719(29) 122403. 0.21549 0.27459
16625.0 1.75930 0.2728(29) 121781. 0.21567 0.27959
16635.0 1.76036 0.2807(29) 118499. 0.21584 0.28530
16645.0 1.76142 0.2829(29) 117824. 0.21601 0.28968
16655.0 1.76248 0.2910(30) 114538. 0.21618 0.29377
16665.0 1.76354 0.2967(30) 112228. 0.21635 0.29770
16675.0 1.76460 0.3007(30) 110803. 0.21653 0.30166
16685.0 1.76566 0.3116(31) 107122. 0.21670 0.30585
16695.0 1.76672 0.3082(30) 108120. 0.21687 0.31041
16705.0 1.76778 0.3130(31) 106571. 0.21704 0.31543
16715.0 1.76884 0.3208(31) 104227. 0.21721 0.32088
16725.0 1.76990 0.3270(31) 102189. 0.21738 0.32663
16735.0 1.77096 0.3348(32) 99697. 0.21755 0.33241
16745.0 1.77201 0.3363(32) 99341. 0.21772 0.33785
16755.0 1.77307 0.3416(32) 97826. 0.21789 0.34248
16765.0 1.77413 0.3467(32) 96327. 0.21806 0.34580
16775.0 1.77519 0.3529(33) 94502. 0.21823 0.34735
16785.0 1.77625 0.3496(32) 95423. 0.21840 0.34684
16795.0 1.77731 0.3465(32) 96290. 0.21857 0.34422
16805.0 1.77837 0.3316(32) 100343. 0.21874 0.33965
16815.0 1.77943 0.3282(31) 101326. 0.21891 0.33352
16825.0 1.78049 0.3235(31) 102358. 0.21908 0.32631
16835.0 1.78155 0.3211(31) 103065. 0.21925 0.31850
16845.0 1.78261 0.3074(31) 107385. 0.21942 0.31057
16855.0 1.78367 0.3023(30) 109063. 0.21958 0.30293
16865.0 1.78473 0.2916(30) 112813. 0.21975 0.29591
16875.0 1.78579 0.2861(30) 114779. 0.21992 0.28978
16885.0 1.78684 0.2845(29) 115275. 0.22009 0.28474
16895.0 1.78790 0.2782(29) 117557. 0.22025 0.28099
16905.0 1.78896 0.2797(29) 116948. 0.22042 0.27863
16915.0 1.79002 0.2754(29) 118342. 0.22059 0.27774
16925.0 1.79108 0.2760(29) 118062. 0.22075 0.27836
16935.0 1.79214 0.2728(29) 119269. 0.22092 0.28052
16945.0 1.79320 0.2847(30) 114463. 0.22108 0.28417
16955.0 1.79426 0.2920(30) 111843. 0.22125 0.28927
16965.0 1.79532 0.3021(30) 108300. 0.22141 0.29571
16975.0 1.79638 0.3049(31) 107096. 0.22157 0.30335
16985.0 1.79744 0.3195(31) 102365. 0.22174 0.31198
16995.0 1.79850 0.3269(32) 100073. 0.22190 0.32136
17005.0 1.79956 0.3415(32) 95966. 0.22206 0.33114
17015.0 1.80061 0.3518(33) 93127. 0.22222 0.34093
17025.0 1.80167 0.3639(33) 90021. 0.22238 0.35024
17035.0 1.80273 0.3792(34) 86411. 0.22255 0.35852
17045.0 1.80379 0.3805(34) 86111. 0.22271 0.36525
17055.0 1.80485 0.3849(34) 85044. 0.22287 0.36998
17065.0 1.80591 0.3922(35) 83528. 0.22303 0.37247
17075.0 1.80697 0.3878(34) 84376. 0.22319 0.37270
17085.0 1.80803 0.3841(34) 85055. 0.22334 0.37095
17095.0 1.80909 0.3861(34) 84458. 0.22350 0.36766
17105.0 1.81015 0.3726(34) 87400. 0.22366 0.36336
17115.0 1.81121 0.3687(34) 88100. 0.22382 0.35860
17125.0 1.81227 0.3564(33) 90897. 0.22397 0.35389
17135.0 1.81333 0.3574(33) 90454. 0.22413 0.34962
17145.0 1.81439 0.3498(33) 92306. 0.22429 0.34613
17155.0 1.81544 0.3384(32) 95091. 0.22444 0.34366
17165.0 1.81650 0.3352(32) 95857. 0.22460 0.34237
17175.0 1.81756 0.3392(33) 94591. 0.22475 0.34234
17185.0 1.81862 0.3426(33) 93502. 0.22490 0.34352
17195.0 1.81968 0.3402(33) 93986. 0.22506 0.34581
17205.0 1.82074 0.3490(33) 91660. 0.22521 0.34896
17215.0 1.82180 0.3540(33) 90275. 0.22536 0.35262
17225.0 1.82286 0.3645(34) 87741. 0.22551 0.35635
17235.0 1.82392 0.3686(34) 86736. 0.22566 0.35962
17245.0 1.82498 0.3693(34) 86524. 0.22581 0.36186
17255.0 1.82604 0.3693(34) 86385. 0.22596 0.36259
17265.0 1.82710 0.3765(34) 84712. 0.22611 0.36143
17275.0 1.82816 0.3698(34) 86132. 0.22626 0.35826
17285.0 1.82921 0.3579(34) 88719. 0.22640 0.35280
17295.0 1.83027 0.3552(33) 89335. 0.22655 0.34604
17305.0 1.83133 0.3417(33) 92692. 0.22670 0.33800
17315.0 1.83239 0.3360(33) 93966. 0.22684 0.32913
17325.0 1.83345 0.3244(32) 96908. 0.22699 0.31983
17335.0 1.83451 0.3126(32) 100332. 0.22713 0.31046
17345.0 1.83557 0.3088(31) 101376. 0.22727 0.30133
17355.0 1.83663 0.2891(30) 107747. 0.22742 0.29266
17365.0 1.83769 0.2836(30) 109611. 0.22756 0.28461
17375.0 1.83875 0.2752(30) 112663. 0.22770 0.27728
17385.0 1.83981 0.2696(30) 114670. 0.22784 0.27074
17395.0 1.84087 0.2665(29) 115778. 0.22798 0.26499
17405.0 1.84193 0.2560(29) 120088. 0.22812 0.26003
17415.0 1.84299 0.2497(29) 122859. 0.22826 0.25579
17425.0 1.84404 0.2503(29) 122280. 0.22840 0.25223
17435.0 1.84510 0.2420(28) 126007. 0.22853 0.24844
17445.0 1.84616 0.2414(28) 126004. 0.22867 0.24602
17455.0 1.84722 0.2454(28) 124120. 0.22881 0.24405
17465.0 1.84828 0.2341(28) 129491. 0.22894 0.24246
17475.0 1.84934 0.2368(28) 127935. 0.22907 0.24116
17485.0 1.85040 0.2369(28) 127853. 0.22921 0.24012
17495.0 1.85146 0.2332(28) 129364. 0.22934 0.23927
17505.0 1.85252 0.2332(28) 129257. 0.22947 0.23858
17515.0 1.85358 0.2324(28) 129567. 0.22960 0.23801
17525.0 1.85464 0.2371(28) 127112. 0.22973 0.23755
17535.0 1.85570 0.2324(28) 129400. 0.22986 0.23716
17545.0 1.85676 0.2319(28) 129391. 0.22999 0.23683
17555.0 1.85782 0.2322(28) 128948. 0.23012 0.23655
17565.0 1.85887 0.2375(28) 125973. 0.23025 0.23632
17575.0 1.85993 0.2313(28) 128920. 0.23037 0.23611
17585.0 1.86099 0.2402(28) 124264. 0.23050 0.23594
17595.0 1.86205 0.2353(28) 126450. 0.23062 0.23579
17605.0 1.86311 0.2363(28) 125879. 0.23075 0.23566
17615.0 1.86417 0.2331(28) 127235. 0.23087 0.23555
17625.0 1.86523 0.2371(28) 125107. 0.23099 0.23545
17635.0 1.86629 0.2405(28) 123391. 0.23111 0.23537
17645.0 1.86735 0.2364(28) 125330. 0.23123 0.23530
17655.0 1.86841 0.2375(28) 124604. 0.23135 0.23534
17665.0 1.86947 0.2424(29) 122015. 0.23147 0.23530
17675.0 1.87053 0.2435(29) 121279. 0.23159 0.23527
17685.0 1.87159 0.2392(28) 123239. 0.23171 0.23418
17695.0 1.87265 0.2460(29) 119812. 0.23182 0.23419
17705.0 1.87371 0.2505(29) 117640. 0.23194 0.23421
17715.0 1.87476 0.2482(29) 118490. 0.23205 0.23424
17725.0 1.87582 0.2499(29) 117743. 0.23217 0.23428
17735.0 1.87688 0.2470(29) 118916. 0.23228 0.23431
17745.0 1.87794 0.2479(29) 118214. 0.23239 0.23435
17755.0 1.87900 0.2487(29) 117632. 0.23250 0.23440
17765.0 1.88006 0.2497(29) 117116. 0.23261 0.23445
17775.0 1.88112 0.2501(29) 116892. 0.23272 0.23450
17785.0 1.88218 0.2446(29) 119185. 0.23283 0.23455
17795.0 1.88324 0.2411(29) 120525. 0.23294 0.23461
17805.0 1.88430 0.2440(29) 119029. 0.23305 0.23467
17815.0 1.88536 0.2409(29) 120115. 0.23315 0.23473
17825.0 1.88642 0.2401(29) 120286. 0.23326 0.23470
17835.0 1.88748 0.2406(29) 119660. 0.23336 0.23477
17845.0 1.88854 0.2382(29) 120613. 0.23347 0.23484
17855.0 1.88959 0.2366(29) 120903. 0.23357 0.23491
17865.0 1.89065 0.2355(29) 121133. 0.23367 0.23499
17875.0 1.89171 0.2324(29) 122323. 0.23377 0.23506
17885.0 1.89277 0.2305(29) 123016. 0.23387 0.23514
17895.0 1.89383 0.2364(29) 120094. 0.23397 0.23522
17905.0 1.89489 0.2354(29) 120218. 0.23407 0.23432
17915.0 1.89595 0.2352(29) 120151. 0.23416 0.23443
17925.0 1.89701 0.2303(29) 122234. 0.23426 0.23454
17935.0 1.89807 0.2321(29) 120947. 0.23436 0.23465
17945.0 1.89913 0.2342(29) 119767. 0.23445 0.23492
17955.0 1.90019 0.2315(29) 120644. 0.23454 0.23504
17965.0 1.90125 0.2300(29) 121156. 0.23464 0.23515
17975.0 1.90231 0.2338(29) 119240. 0.23473 0.23527
17985.0 1.90337 0.2340(29) 118866. 0.23482 0.23539
17995.0 1.90443 0.2304(29) 120579. 0.23491 0.23551
18005.0 1.90548 0.2308(29) 120110. 0.23500 0.23564
18015.0 1.90654 0.2320(29) 119237. 0.23508 0.23577
18025.0 1.90760 0.2304(29) 119648. 0.23517 0.23590
18035.0 1.90866 0.2302(29) 119282. 0.23526 0.23605
18045.0 1.90972 0.2326(29) 117801. 0.23534 0.23620
18055.0 1.91078 0.2306(29) 118642. 0.23543 0.23636
18065.0 1.91184 0.2319(29) 117841. 0.23551 0.23653
18075.0 1.91290 0.2328(29) 117192. 0.23559 0.23673
18085.0 1.91396 0.2312(29) 117476. 0.23567 0.23694
18095.0 1.91502 0.2287(29) 118315. 0.23576 0.23718
18105.0 1.91608 0.2305(29) 117197. 0.23584 0.23821
18115.0 1.91714 0.2327(29) 115906. 0.23591 0.23854
18125.0 1.91820 0.2335(29) 115210. 0.23599 0.23891
18135.0 1.91926 0.2352(30) 114204. 0.23607 0.23933
18145.0 1.92032 0.2303(29) 116198. 0.23615 0.23980
18155.0 1.92137 0.2388(30) 112094. 0.23622 0.24032
18165.0 1.92243 0.2308(29) 115514. 0.23629 0.24090
18175.0 1.92349 0.2363(30) 112635. 0.23637 0.24154
18185.0 1.92455 0.2406(30) 110571. 0.23644 0.24223
18195.0 1.92561 0.2421(30) 109637. 0.23651 0.24297
18205.0 1.92667 0.2387(30) 110721. 0.23658 0.24375
18215.0 1.92773 0.2437(30) 108104. 0.23665 0.24456
18225.0 1.92879 0.2419(30) 108558. 0.23672 0.24538
18235.0 1.92985 0.2429(30) 107840. 0.23679 0.24619
18245.0 1.93091 0.2513(31) 104124. 0.23686 0.24697
18255.0 1.93197 0.2422(30) 107617. 0.23692 0.24767
18265.0 1.93303 0.2437(31) 106884. 0.23699 0.24828
18275.0 1.93409 0.2424(31) 107152. 0.23705 0.24875
18285.0 1.93515 0.2396(30) 108043. 0.23712 0.24907
18295.0 1.93621 0.2475(31) 104641. 0.23718 0.24922
18305.0 1.93726 0.2435(31) 106029. 0.23724 0.24921
18315.0 1.93832 0.2423(31) 106165. 0.23730 0.24904
18325.0 1.93938 0.2412(31) 106331. 0.23736 0.24875
18335.0 1.94044 0.2396(31) 106797. 0.23742 0.24836
18345.0 1.94150 0.2403(31) 106391. 0.23748 0.24790
18355.0 1.94256 0.2429(31) 105267. 0.23754 0.24740
18365.0 1.94362 0.2467(31) 103695. 0.23759 0.24691
18375.0 1.94468 0.2442(31) 104418. 0.23765 0.24642
18385.0 1.94574 0.2404(31) 105716. 0.23770 0.24598
18395.0 1.94680 0.2386(31) 106254. 0.23776 0.24560
18405.0 1.94786 0.2356(31) 107151. 0.23781 0.24528
18415.0 1.94892 0.2432(31) 103862. 0.23786 0.24505
18425.0 1.94998 0.2366(31) 106549. 0.23791 0.24491
18435.0 1.95104 0.2432(31) 103651. 0.23796 0.24486
18445.0 1.95210 0.2437(31) 103452. 0.23801 0.24493
18455.0 1.95316 0.2437(31) 103288. 0.23806 0.24511
18465.0 1.95421 0.2395(31) 104872. 0.23811 0.24541
18475.0 1.95527 0.2398(31) 104614. 0.23816 0.24584
18485.0 1.95633 0.2456(31) 101938. 0.23820 0.24640
18495.0 1.95739 0.2519(32) 99331. 0.23825 0.24709
18505.0 1.95845 0.2392(31) 103953. 0.23829 0.24792
18515.0 1.95951 0.2493(32) 99910. 0.23834 0.24890
18525.0 1.96057 0.2504(32) 99123. 0.23838 0.25002
18535.0 1.96163 0.2471(32) 100195. 0.23842 0.25128
18545.0 1.96269 0.2517(32) 98163. 0.23846 0.25268
18555.0 1.96375 0.2518(32) 97942. 0.23850 0.25420
18565.0 1.96481 0.2539(32) 97101. 0.23854 0.25584
18575.0 1.96587 0.2538(32) 97079. 0.23858 0.25759
18585.0 1.96693 0.2552(32) 96449. 0.23862 0.25941
18595.0 1.96799 0.2626(33) 93629. 0.23866 0.26129
18605.0 1.96905 0.2536(32) 96485. 0.23869 0.26320
18615.0 1.97011 0.2628(33) 93171. 0.23873 0.26511
18625.0 1.97116 0.2646(33) 92402. 0.23876 0.26698
18635.0 1.97222 0.2687(33) 90727. 0.23880 0.26882
18645.0 1.97328 0.2677(33) 90904. 0.23883 0.27061
18655.0 1.97434 0.2684(33) 90580. 0.23886 0.27239
18665.0 1.97540 0.2654(33) 91384. 0.23890 0.27430
18675.0 1.97646 0.2708(33) 89529. 0.23893 0.27623
18685.0 1.97752 0.2779(34) 87215. 0.23896 0.27836
18695.0 1.97858 0.2731(34) 88595. 0.23899 0.28077
18705.0 1.97964 0.2812(34) 86124. 0.23902 0.28356
18715.0 1.98070 0.2873(34) 84267. 0.23904 0.28677
18725.0 1.98176 0.2876(34) 84096. 0.23907 0.29047
18735.0 1.98282 0.2904(35) 83105. 0.23910 0.29466
18745.0 1.98388 0.301(4) 80278. 0.2391 0.2993
18755.0 1.98494 0.306(4) 78904. 0.2391 0.3044
18765.0 1.98600 0.317(4) 76257. 0.2392 0.3099
18775.0 1.98706 0.318(4) 75771. 0.2392 0.3155
18785.0 1.98811 0.327(4) 73723. 0.2392 0.3212
18795.0 1.98917 0.337(4) 71494. 0.2392 0.3267
18805.0 1.99023 0.333(4) 72103. 0.2393 0.3317
18815.0 1.99129 0.340(4) 70693. 0.2393 0.3360
18825.0 1.99235 0.342(4) 70328. 0.2393 0.3393
18835.0 1.99341 0.345(4) 69672. 0.2393 0.3413
18845.0 1.99447 0.346(4) 69390. 0.2393 0.3419
18855.0 1.99553 0.347(4) 68815. 0.2394 0.3410
18865.0 1.99659 0.345(4) 69069. 0.2394 0.3386
18875.0 1.99765 0.336(4) 70779. 0.2394 0.3349
18885.0 1.99871 0.331(4) 71612. 0.2394 0.3302
18895.0 1.99977 0.327(4) 72448. 0.2394 0.3246
18905.0 2.00083 0.319(4) 73907. 0.2394 0.3184
18915.0 2.00189 0.304(4) 77295. 0.2395 0.3119
18925.0 2.00295 0.308(4) 76253. 0.2395 0.3053
18935.0 2.00401 0.299(4) 78301. 0.2395 0.2987
18945.0 2.00506 0.296(4) 78942. 0.2395 0.2924
18955.0 2.00612 0.290(4) 80000. 0.2395 0.2864
18965.0 2.00718 0.2827(35) 81756. 0.23952 0.28083
18975.0 2.00824 0.2802(35) 82223. 0.23954 0.27571
18985.0 2.00930 0.2716(34) 84440. 0.23955 0.27109
18995.0 2.01036 0.2697(34) 84823. 0.23956 0.26698
19005.0 2.01142 0.2652(34) 85988. 0.23957 0.26336
19015.0 2.01248 0.2674(34) 85221. 0.23957 0.26021
19025.0 2.01354 0.2546(33) 89219. 0.23958 0.25750
19035.0 2.01460 0.2623(34) 86618. 0.23959 0.25520
19045.0 2.01566 0.2539(34) 89063. 0.23960 0.25318
19055.0 2.01672 0.2521(33) 89445. 0.23960 0.25155
19065.0 2.01778 0.2580(34) 87361. 0.23961 0.25018
19075.0 2.01884 0.2536(34) 88718. 0.23962 0.24905
19085.0 2.01990 0.2497(33) 89985. 0.23962 0.24811
19095.0 2.02096 0.2522(34) 89106. 0.23963 0.24733
19105.0 2.02202 0.2508(33) 89449. 0.23963 0.24669
19115.0 2.02307 0.2485(33) 89773. 0.23963 0.24615
19125.0 2.02413 0.2520(34) 88525. 0.23964 0.24570
19135.0 2.02519 0.2474(33) 90110. 0.23964 0.24532
19145.0 2.02625 0.2442(33) 91152. 0.23964 0.24501
19155.0 2.02731 0.2458(33) 90659. 0.23964 0.24474
19165.0 2.02837 0.2423(33) 91846. 0.23964 0.24452
19175.0 2.02943 0.2460(33) 90248. 0.23965 0.24434
19185.0 2.03049 0.2487(33) 89205. 0.23965 0.24420
19195.0 2.03155 0.2414(33) 91642. 0.23965 0.24410
19205.0 2.03261 0.2452(33) 90157. 0.23965 0.24403
19215.0 2.03367 0.2481(34) 88941. 0.23964 0.24399
19225.0 2.03473 0.2478(34) 88824. 0.23964 0.24400
19235.0 2.03579 0.2494(34) 88011. 0.23964 0.24404
19245.0 2.03685 0.2561(34) 85695. 0.23964 0.24414
19255.0 2.03791 0.2470(34) 88645. 0.23964 0.24428
19265.0 2.03897 0.2524(34) 86757. 0.23964 0.24447
19275.0 2.04003 0.2496(34) 87564. 0.23963 0.24471
19285.0 2.04109 0.2560(34) 85359. 0.23963 0.24502
19295.0 2.04214 0.2567(34) 85078. 0.23962 0.24538
19305.0 2.04320 0.2513(34) 86730. 0.23962 0.24579
19315.0 2.04426 0.2531(34) 86042. 0.23962 0.24627
19325.0 2.04532 0.2552(34) 85022. 0.23961 0.24679
19335.0 2.04638 0.2590(35) 83749. 0.23961 0.24720
19345.0 2.04744 0.2531(34) 85539. 0.23960 0.24781
19355.0 2.04850 0.2544(34) 85072. 0.23960 0.24844
19365.0 2.04956 0.2550(34) 84739. 0.23959 0.24909
19375.0 2.05062 0.2573(35) 83776. 0.23958 0.24972
19385.0 2.05168 0.2549(34) 84386. 0.23958 0.25032
19395.0 2.05274 0.2600(35) 82702. 0.23957 0.25085
19405.0 2.05380 0.2633(35) 81433. 0.23956 0.25130
19415.0 2.05486 0.2552(35) 83787. 0.23956 0.25163
19425.0 2.05592 0.265(4) 81016. 0.2395 0.2518
19435.0 2.05698 0.265(4) 80746. 0.2395 0.2519
19445.0 2.05804 0.2575(35) 82803. 0.23953 0.25175
19455.0 2.05910 0.2581(35) 82556. 0.23952 0.25148
19465.0 2.06015 0.2573(35) 82816. 0.23952 0.25108
19475.0 2.06121 0.2603(35) 81851. 0.23951 0.25056
19485.0 2.06227 0.2555(35) 83013. 0.23950 0.24995
19495.0 2.06333 0.2578(35) 82300. 0.23949 0.24928
19505.0 2.06439 0.2514(34) 84218. 0.23948 0.24856
19515.0 2.06545 0.2516(34) 84155. 0.23947 0.24783
19525.0 2.06651 0.2522(35) 83744. 0.23946 0.24710
19535.0 2.06757 0.2460(34) 85608. 0.23945 0.24638
19545.0 2.06863 0.2488(34) 84532. 0.23944 0.24569
19555.0 2.06969 0.2464(34) 85257. 0.23943 0.24505
19565.0 2.07075 0.2473(34) 84926. 0.23942 0.24444
19575.0 2.07181 0.2406(34) 86951. 0.23941 0.24389
19585.0 2.07287 0.2505(35) 83491. 0.23940 0.24339
19595.0 2.07393 0.2436(34) 85485. 0.23939 0.24294
19605.0 2.07499 0.2421(34) 85904. 0.23938 0.24305
19615.0 2.07605 0.2465(34) 84248. 0.23937 0.24265
19625.0 2.07711 0.2397(34) 86257. 0.23936 0.24239
19635.0 2.07817 0.2382(34) 86643. 0.23935 0.24217
19645.0 2.07922 0.2403(34) 85766. 0.23933 0.24199
19655.0 2.08028 0.2378(34) 86375. 0.23932 0.24184
19665.0 2.08134 0.2383(34) 86075. 0.23931 0.24172
19675.0 2.08240 0.2438(34) 84072. 0.23930 0.24162
19685.0 2.08346 0.2413(34) 84619. 0.23929 0.24154
19695.0 2.08452 0.2350(34) 86572. 0.23928 0.24148
19705.0 2.08558 0.2454(35) 82875. 0.23927 0.24144
19715.0 2.08664 0.2430(35) 83567. 0.23926 0.24141
19725.0 2.08770 0.2421(35) 83886. 0.23924 0.24139
19735.0 2.08876 0.2437(35) 83251. 0.23923 0.24138
19745.0 2.08982 0.2443(35) 82807. 0.23922 0.24191
19755.0 2.09088 0.2421(35) 83484. 0.23921 0.24193
19765.0 2.09194 0.2386(34) 84468. 0.23920 0.24195
19775.0 2.09300 0.2392(34) 84162. 0.23919 0.24198
19785.0 2.09406 0.2413(35) 83261. 0.23918 0.24202
19795.0 2.09512 0.2396(35) 83628. 0.23916 0.24206
19805.0 2.09618 0.247(4) 81054. 0.2392 0.2421
19815.0 2.09724 0.2413(35) 82619. 0.23914 0.24216
19825.0 2.09829 0.2395(35) 83073. 0.23913 0.24222
19835.0 2.09935 0.2387(35) 83273. 0.23912 0.24228
19845.0 2.10041 0.2437(35) 81645. 0.23911 0.24235
19855.0 2.10147 0.248(4) 80077. 0.2391 0.2424
19865.0 2.10253 0.2412(35) 82282. 0.23909 0.24250
19875.0 2.10359 0.2414(35) 82153. 0.23908 0.24259
19885.0 2.10465 0.246(4) 80683. 0.2391 0.2427
19895.0 2.10571 0.2381(35) 82933. 0.23906 0.24278
19905.0 2.10677 0.2360(35) 83386. 0.23905 0.24289
19915.0 2.10783 0.242(4) 81148. 0.2390 0.2430
19925.0 2.10889 0.242(4) 81078. 0.2390 0.2431
19935.0 2.10995 0.2415(35) 81373. 0.23902 0.24326
19945.0 2.11101 0.245(4) 80238. 0.2390 0.2434
19955.0 2.11207 0.2359(35) 82929. 0.23900 0.24355
19965.0 2.11313 0.2393(35) 81689. 0.23899 0.24372
19975.0 2.11419 0.2390(35) 81768. 0.23898 0.24389
19985.0 2.11525 0.246(4) 79516. 0.2390 0.2441
19995.0 2.11631 0.242(4) 80732. 0.2390 0.2443
20005.0 2.11737 0.244(4) 80023. 0.2390 0.2445
20015.0 2.11842 0.243(4) 80186. 0.2389 0.2447
20025.0 2.11948 0.246(4) 79315. 0.2389 0.2450
20035.0 2.12054 0.240(4) 80820. 0.2389 0.2453
20045.0 2.12160 0.2378(35) 81321. 0.23892 0.24558
20055.0 2.12266 0.243(4) 79587. 0.2389 0.2459
20065.0 2.12372 0.240(4) 80301. 0.2389 0.2463
20075.0 2.12478 0.243(4) 79192. 0.2389 0.2467
20085.0 2.12584 0.243(4) 79098. 0.2389 0.2471
20095.0 2.12690 0.248(4) 77563. 0.2389 0.2477
20105.0 2.12796 0.245(4) 78153. 0.2389 0.2482
20115.0 2.12902 0.240(4) 79510. 0.2389 0.2489
20125.0 2.13008 0.241(4) 79138. 0.2389 0.2497
20135.0 2.13114 0.252(4) 75698. 0.2389 0.2506
20145.0 2.13220 0.244(4) 78184. 0.2389 0.2517
20155.0 2.13326 0.248(4) 76727. 0.2388 0.2529
20165.0 2.13432 0.250(4) 75897. 0.2388 0.2544
20175.0 2.13538 0.258(4) 73415. 0.2388 0.2560
20185.0 2.13644 0.259(4) 73044. 0.2388 0.2580
20195.0 2.13750 0.257(4) 73571. 0.2388 0.2604
20205.0 2.13856 0.268(4) 70679. 0.2388 0.2631
20215.0 2.13961 0.267(4) 70750. 0.2388 0.2664
20225.0 2.14067 0.263(4) 71388. 0.2388 0.2701
20235.0 2.14173 0.264(4) 70965. 0.2388 0.2743
20245.0 2.14279 0.277(4) 67733. 0.2388 0.2792
20255.0 2.14385 0.279(4) 67017. 0.2388 0.2846
20265.0 2.14491 0.284(4) 65734. 0.2388 0.2908
20275.0 2.14597 0.291(4) 64083. 0.2388 0.2976
20285.0 2.14703 0.307(4) 60777. 0.2388 0.3050
20295.0 2.14809 0.308(4) 60470. 0.2388 0.3131
20305.0 2.14915 0.318(4) 58540. 0.2388 0.3219
20315.0 2.15021 0.328(4) 56556. 0.2388 0.3311
20325.0 2.15127 0.340(4) 54581. 0.2388 0.3408
20335.0 2.15233 0.348(4) 53322. 0.2388 0.3508
20345.0 2.15339 0.361(4) 51284. 0.2388 0.3609
20355.0 2.15445 0.370(4) 50072. 0.2388 0.3710
20365.0 2.15551 0.385(5) 48033. 0.2388 0.3807
20375.0 2.15657 0.395(5) 46721. 0.2388 0.3899
20385.0 2.15763 0.402(5) 45797. 0.2388 0.3983
20395.0 2.15869 0.405(5) 45421. 0.2388 0.4056
20405.0 2.15974 0.411(5) 44691. 0.2388 0.4116
20415.0 2.16080 0.416(5) 44071. 0.2388 0.4162
20425.0 2.16186 0.417(5) 43813. 0.2388 0.4192
20435.0 2.16292 0.423(5) 43138. 0.2388 0.4207
20445.0 2.16398 0.426(5) 42719. 0.2388 0.4208
20455.0 2.16504 0.419(5) 43307. 0.2389 0.4194
20465.0 2.16610 0.413(5) 43786. 0.2389 0.4169
20475.0 2.16716 0.406(5) 44356. 0.2389 0.4132
20485.0 2.16822 0.412(5) 43792. 0.2389 0.4085
20495.0 2.16928 0.397(5) 45305. 0.2389 0.4030
20505.0 2.17034 0.387(5) 46310. 0.2389 0.3967
20515.0 2.17140 0.374(5) 47726. 0.2389 0.3898
20525.0 2.17246 0.370(5) 48106. 0.2389 0.3831
20535.0 2.17352 0.368(5) 48262. 0.2389 0.3752
20545.0 2.17458 0.357(4) 49468. 0.2389 0.3669
20555.0 2.17564 0.347(4) 50737. 0.2389 0.3584
20565.0 2.17670 0.346(4) 50728. 0.2390 0.3498
20575.0 2.17776 0.337(4) 51902. 0.2390 0.3413
20585.0 2.17882 0.330(4) 52806. 0.2390 0.3329
20595.0 2.17988 0.321(4) 54161. 0.2390 0.3248
20605.0 2.18094 0.311(4) 55612. 0.2390 0.3171
20615.0 2.18199 0.303(4) 56926. 0.2390 0.3098
20625.0 2.18305 0.310(4) 55541. 0.2390 0.3030
20635.0 2.18411 0.302(4) 56659. 0.2390 0.2967
20645.0 2.18517 0.289(4) 59082. 0.2391 0.2909
20655.0 2.18623 0.289(4) 58800. 0.2391 0.2857
20665.0 2.18729 0.278(4) 60860. 0.2391 0.2809
20675.0 2.18835 0.279(4) 60583. 0.2391 0.2767
20685.0 2.18941 0.271(4) 62278. 0.2391 0.2730
20695.0 2.19047 0.271(4) 61928. 0.2391 0.2697
20705.0 2.19153 0.266(4) 62922. 0.2392 0.2669
20715.0 2.19259 0.264(4) 63423. 0.2392 0.2644
20725.0 2.19365 0.262(4) 63912. 0.2392 0.2622
20735.0 2.19471 0.262(4) 63673. 0.2392 0.2604
20745.0 2.19577 0.256(4) 64993. 0.2392 0.2588
20755.0 2.19683 0.251(4) 66063. 0.2393 0.2575
20765.0 2.19789 0.258(4) 64127. 0.2393 0.2563
20775.0 2.19895 0.251(4) 65779. 0.2393 0.2553
20785.0 2.20001 0.253(4) 65384. 0.2393 0.2544
20795.0 2.20107 0.249(4) 66315. 0.2393 0.2537
20805.0 2.20213 0.253(4) 64994. 0.2394 0.2530
20815.0 2.20319 0.257(4) 64052. 0.2394 0.2524
20825.0 2.20424 0.249(4) 65610. 0.2394 0.2519
20835.0 2.20530 0.240(4) 67862. 0.2394 0.2514
20845.0 2.20636 0.253(4) 64490. 0.2395 0.2509
20855.0 2.20742 0.244(4) 66558. 0.2395 0.2505
20865.0 2.20848 0.248(4) 65290. 0.2395 0.2502
20875.0 2.20954 0.242(4) 66559. 0.2396 0.2498
20885.0 2.21060 0.250(4) 64677. 0.2396 0.2496
20895.0 2.21166 0.246(4) 65441. 0.2396 0.2493
20905.0 2.21272 0.250(4) 64238. 0.2396 0.2491
20915.0 2.21378 0.244(4) 65651. 0.2397 0.2489
20925.0 2.21484 0.251(4) 63778. 0.2397 0.2488
20935.0 2.21590 0.246(4) 64972. 0.2397 0.2486
20945.0 2.21696 0.242(4) 65779. 0.2398 0.2487
20955.0 2.21802 0.252(4) 63379. 0.2398 0.2487
20965.0 2.21908 0.249(4) 63721. 0.2398 0.2486
20975.0 2.22014 0.243(4) 65141. 0.2399 0.2487
20985.0 2.22120 0.247(4) 63945. 0.2399 0.2488
20995.0 2.22226 0.246(4) 63834. 0.2399 0.2489
21005.0 2.22332 0.250(4) 62834. 0.2400 0.2491
21015.0 2.22438 0.243(4) 64469. 0.2400 0.2493
21025.0 2.22544 0.247(4) 63533. 0.2400 0.2496
21035.0 2.22650 0.240(4) 64841. 0.2401 0.2500
21045.0 2.22755 0.246(4) 63309. 0.2401 0.2505
21055.0 2.22861 0.256(4) 60823. 0.2401 0.2512
21065.0 2.22967 0.250(4) 61932. 0.2402 0.2520
21075.0 2.23073 0.252(4) 61141. 0.2402 0.2529
21085.0 2.23179 0.246(4) 62507. 0.2403 0.2539
21095.0 2.23285 0.249(4) 61447. 0.2403 0.2552
21105.0 2.23391 0.262(4) 58461. 0.2403 0.2566
21115.0 2.23497 0.251(4) 60744. 0.2404 0.2584
21125.0 2.23603 0.263(4) 58049. 0.2404 0.2603
21135.0 2.23709 0.265(4) 57384. 0.2405 0.2626
21145.0 2.23815 0.268(4) 56784. 0.2405 0.2652
21155.0 2.23921 0.257(4) 59122. 0.2406 0.2681
21165.0 2.24027 0.268(4) 56719. 0.2406 0.2714
21175.0 2.24133 0.277(4) 54788. 0.2406 0.2750
21185.0 2.24239 0.278(4) 54433. 0.2407 0.2789
21195.0 2.24345 0.282(4) 53678. 0.2407 0.2832
21205.0 2.24451 0.284(4) 53038. 0.2408 0.2878
21215.0 2.24557 0.293(4) 51453. 0.2408 0.2927
21225.0 2.24663 0.305(4) 49414. 0.2409 0.2978
21235.0 2.24769 0.313(5) 48035. 0.2409 0.3026
21245.0 2.24875 0.313(5) 47857. 0.2410 0.3073
21255.0 2.24981 0.314(5) 47599. 0.2410 0.3126
21265.0 2.25086 0.326(5) 45789. 0.2411 0.3178
21275.0 2.25192 0.332(5) 44875. 0.2411 0.3227
21285.0 2.25298 0.340(5) 43715. 0.2412 0.3271
21295.0 2.25404 0.342(5) 43288. 0.2412 0.3310
21305.0 2.25510 0.345(5) 42896. 0.2413 0.3341
21315.0 2.25616 0.346(5) 42594. 0.2413 0.3364
21325.0 2.25722 0.346(5) 42461. 0.2414 0.3377
21335.0 2.25828 0.351(5) 41631. 0.2414 0.3380
21345.0 2.25934 0.341(5) 42645. 0.2415 0.3373
21355.0 2.26040 0.350(5) 41513. 0.2415 0.3356
21365.0 2.26146 0.339(5) 42782. 0.2416 0.3330
21375.0 2.26252 0.331(5) 43693. 0.2417 0.3292
21385.0 2.26358 0.327(5) 43964. 0.2417 0.3253
21395.0 2.26464 0.325(5) 44142. 0.2418 0.3209
21405.0 2.26570 0.320(5) 44629. 0.2418 0.3161
21415.0 2.26676 0.307(5) 46203. 0.2419 0.3111
21425.0 2.26782 0.310(5) 45599. 0.2419 0.3061
21435.0 2.26888 0.296(5) 47481. 0.2420 0.3010
21445.0 2.26994 0.302(5) 46447. 0.2421 0.2961
21455.0 2.27100 0.291(5) 47967. 0.2421 0.2914
21465.0 2.27206 0.284(5) 48987. 0.2422 0.2869
21475.0 2.27312 0.280(4) 49636. 0.2422 0.2826
21485.0 2.27418 0.286(5) 48655. 0.2423 0.2787
21495.0 2.27524 0.272(4) 50657. 0.2424 0.2752
21505.0 2.27629 0.261(4) 52517. 0.2424 0.2720
21515.0 2.27735 0.269(4) 50937. 0.2425 0.2692
21525.0 2.27841 0.271(4) 50438. 0.2426 0.2667
21535.0 2.27947 0.272(4) 50164. 0.2426 0.2646
21545.0 2.28053 0.274(4) 49683. 0.2427 0.2628
21555.0 2.28159 0.259(4) 52189. 0.2428 0.2613
21565.0 2.28265 0.256(4) 52583. 0.2428 0.2601
21575.0 2.28371 0.253(4) 53100. 0.2429 0.2592
21585.0 2.28477 0.259(4) 51793. 0.2429 0.2586
21595.0 2.28583 0.263(4) 50927. 0.2430 0.2582
21605.0 2.28689 0.262(4) 50959. 0.2431 0.2580
21615.0 2.28795 0.270(4) 49391. 0.2432 0.2580
21625.0 2.28901 0.265(4) 50016. 0.2432 0.2582
21635.0 2.29007 0.259(4) 50862. 0.2433 0.2586
21645.0 2.29113 0.257(4) 51023. 0.2434 0.2591
21655.0 2.29219 0.257(4) 50870. 0.2434 0.2598
21665.0 2.29325 0.254(4) 51507. 0.2435 0.2605
21675.0 2.29431 0.260(4) 50313. 0.2436 0.2614
21685.0 2.29537 0.260(4) 50120. 0.2436 0.2624
21695.0 2.29643 0.271(5) 48231. 0.2437 0.2635
21705.0 2.29749 0.262(4) 49891. 0.2438 0.2646
21715.0 2.29855 0.268(5) 48663. 0.2439 0.2658
21725.0 2.29961 0.271(5) 47987. 0.2439 0.2671
21735.0 2.30067 0.274(5) 47296. 0.2440 0.2683
21745.0 2.30173 0.275(5) 47007. 0.2441 0.2695
21755.0 2.30278 0.269(5) 47879. 0.2441 0.2708
21765.0 2.30384 0.268(5) 47844. 0.2442 0.2720
21775.0 2.30490 0.282(5) 45636. 0.2443 0.2732
21785.0 2.30596 0.278(5) 46272. 0.2444 0.2743
21795.0 2.30702 0.285(5) 45056. 0.2444 0.2753
21805.0 2.30808 0.277(5) 46249. 0.2445 0.2763
21815.0 2.30914 0.284(5) 45093. 0.2446 0.2771
21825.0 2.31020 0.281(5) 45480. 0.2447 0.2777
21835.0 2.31126 0.286(5) 44708. 0.2448 0.2782
21845.0 2.31232 0.291(5) 43877. 0.2448 0.2785
21855.0 2.31338 0.278(5) 45734. 0.2449 0.2786
21865.0 2.31444 0.288(5) 44063. 0.2450 0.2785
21875.0 2.31550 0.278(5) 45498. 0.2451 0.2782
21885.0 2.31656 0.274(5) 45934. 0.2451 0.2778
21895.0 2.31762 0.276(5) 45539. 0.2452 0.2771
21905.0 2.31868 0.276(5) 45495. 0.2453 0.2764
21915.0 2.31974 0.285(5) 44148. 0.2454 0.2755
21925.0 2.32080 0.283(5) 44276. 0.2455 0.2745
21935.0 2.32186 0.279(5) 44882. 0.2455 0.2734
21945.0 2.32292 0.276(5) 45113. 0.2456 0.2722
21955.0 2.32398 0.271(5) 45916. 0.2457 0.2709
21965.0 2.32504 0.274(5) 45271. 0.2458 0.2696
21975.0 2.32610 0.256(5) 48230. 0.2459 0.2683
21985.0 2.32716 0.261(5) 47158. 0.2460 0.2669
21995.0 2.32822 0.257(5) 47758. 0.2460 0.2656
22005.0 2.32928 0.267(5) 45852. 0.2461 0.2643
22015.0 2.33033 0.261(5) 46564. 0.2462 0.2630
22025.0 2.33139 0.251(5) 48277. 0.2463 0.2617
22035.0 2.33245 0.270(5) 44961. 0.2464 0.2606
22045.0 2.33351 0.255(5) 47209. 0.2465 0.2594
22055.0 2.33457 0.256(5) 46934. 0.2465 0.2584
22065.0 2.33563 0.256(5) 46793. 0.2466 0.2574
22075.0 2.33669 0.246(5) 48570. 0.2467 0.2570
22085.0 2.33775 0.257(5) 46465. 0.2468 0.2562
22095.0 2.33881 0.253(5) 46937. 0.2469 0.2555
22105.0 2.33987 0.247(5) 47910. 0.2470 0.2548
22115.0 2.34093 0.251(5) 47048. 0.2471 0.2542
22125.0 2.34199 0.254(5) 46371. 0.2471 0.2537
22135.0 2.34305 0.253(5) 46550. 0.2472 0.2533
22145.0 2.34411 0.255(5) 46138. 0.2473 0.2529
22155.0 2.34517 0.245(5) 47808. 0.2474 0.2518
22165.0 2.34623 0.249(5) 46806. 0.2475 0.2515
22175.0 2.34729 0.263(5) 44377. 0.2476 0.2513
22185.0 2.34835 0.242(5) 47869. 0.2477 0.2511
22195.0 2.34941 0.251(5) 46091. 0.2477 0.2509
22205.0 2.35047 0.240(5) 48054. 0.2478 0.2508
22215.0 2.35153 0.239(5) 48062. 0.2479 0.2507
22225.0 2.35259 0.253(5) 45502. 0.2480 0.2507
22235.0 2.35365 0.248(5) 46064. 0.2481 0.2506
22245.0 2.35471 0.255(5) 44936. 0.2482 0.2506
22255.0 2.35577 0.248(5) 45804. 0.2483 0.2506
22265.0 2.35683 0.247(5) 45721. 0.2484 0.2506
22275.0 2.35789 0.252(5) 44788. 0.2485 0.2507
22285.0 2.35894 0.246(5) 45892. 0.2485 0.2507
22295.0 2.36000 0.246(5) 45700. 0.2486 0.2507
22305.0 2.36106 0.252(5) 44683. 0.2487 0.2508
22315.0 2.36212 0.247(5) 45375. 0.2488 0.2508
22325.0 2.36318 0.254(5) 44079. 0.2489 0.2509
22335.0 2.36424 0.244(5) 45705. 0.2490 0.2510
22345.0 2.36530 0.249(5) 44825. 0.2491 0.2510
22355.0 2.36636 0.248(5) 45044. 0.2492 0.2511
22365.0 2.36742 0.244(5) 45521. 0.2493 0.2512
22375.0 2.36848 0.251(5) 44281. 0.2493 0.2513
22385.0 2.36954 0.254(5) 43515. 0.2494 0.2514
22395.0 2.37060 0.246(5) 44736. 0.2495 0.2515
22405.0 2.37166 0.250(5) 43956. 0.2496 0.2516
22415.0 2.37272 0.249(5) 44033. 0.2497 0.2517
22425.0 2.37378 0.243(5) 44997. 0.2498 0.2518
22435.0 2.37484 0.251(5) 43542. 0.2499 0.2519
22445.0 2.37590 0.251(5) 43308. 0.2500 0.2520
22455.0 2.37696 0.259(5) 41853. 0.2501 0.2522
22465.0 2.37802 0.256(5) 42344. 0.2502 0.2523
22475.0 2.37908 0.256(5) 42262. 0.2503 0.2524
22485.0 2.38014 0.249(5) 43110. 0.2503 0.2526
22495.0 2.38120 0.259(5) 41483. 0.2504 0.2527
22505.0 2.38226 0.258(5) 41493. 0.2505 0.2528
22515.0 2.38332 0.255(5) 41947. 0.2506 0.2530
22525.0 2.38438 0.254(5) 42015. 0.2507 0.2532
22535.0 2.38544 0.252(5) 42209. 0.2508 0.2533
22545.0 2.38650 0.253(5) 41954. 0.2509 0.2535
22555.0 2.38756 0.246(5) 42937. 0.2510 0.2537
22565.0 2.38862 0.253(5) 41810. 0.2511 0.2540
22575.0 2.38967 0.260(5) 40541. 0.2512 0.2542
22585.0 2.39073 0.257(5) 40831. 0.2513 0.2544
22595.0 2.39179 0.254(5) 41278. 0.2514 0.2547
22605.0 2.39285 0.254(5) 41244. 0.2514 0.2550
22615.0 2.39391 0.259(5) 40316. 0.2515 0.2554
22625.0 2.39497 0.249(5) 41606. 0.2516 0.2558
22635.0 2.39603 0.257(5) 40422. 0.2517 0.2562
22645.0 2.39709 0.258(5) 40221. 0.2518 0.2567
22655.0 2.39815 0.264(5) 39242. 0.2519 0.2572
22665.0 2.39921 0.256(5) 40307. 0.2520 0.2579
22675.0 2.40027 0.266(5) 38770. 0.2521 0.2586
22685.0 2.40133 0.267(5) 38574. 0.2522 0.2594
22695.0 2.40239 0.263(5) 39098. 0.2523 0.2603
22705.0 2.40345 0.265(5) 38736. 0.2524 0.2613
22715.0 2.40451 0.265(5) 38538. 0.2524 0.2623
22725.0 2.40557 0.264(5) 38621. 0.2525 0.2636
22735.0 2.40663 0.272(5) 37337. 0.2526 0.2650
22745.0 2.40769 0.267(5) 37851. 0.2527 0.2665
22755.0 2.40875 0.273(5) 37085. 0.2528 0.2682
22765.0 2.40981 0.269(5) 37443. 0.2529 0.2701
22775.0 2.41087 0.277(5) 36504. 0.2530 0.2721
22785.0 2.41193 0.279(5) 36169. 0.2531 0.2743
22795.0 2.41299 0.274(5) 36733. 0.2532 0.2766
22805.0 2.41405 0.280(5) 36088. 0.2533 0.2790
22815.0 2.41511 0.277(5) 36187. 0.2534 0.2815
22825.0 2.41617 0.287(5) 34857. 0.2534 0.2840
22835.0 2.41723 0.289(5) 34556. 0.2535 0.2867
22845.0 2.41829 0.289(5) 34507. 0.2536 0.2893
22855.0 2.41935 0.289(5) 34440. 0.2537 0.2920
22865.0 2.42041 0.299(5) 33345. 0.2538 0.2945
22875.0 2.42147 0.298(5) 33429. 0.2539 0.2969
22885.0 2.42252 0.293(5) 33893. 0.2540 0.2992
22895.0 2.42358 0.296(5) 33532. 0.2541 0.3012
22905.0 2.42464 0.296(5) 33469. 0.2542 0.3029
22915.0 2.42570 0.286(5) 34529. 0.2543 0.3042
22925.0 2.42676 0.292(5) 33878. 0.2543 0.3051
22935.0 2.42782 0.288(5) 34118. 0.2544 0.3056
22945.0 2.42888 0.293(5) 33545. 0.2545 0.3057
22955.0 2.42994 0.292(5) 33526. 0.2546 0.3053
22965.0 2.43100 0.270(5) 35985. 0.2547 0.3046
22975.0 2.43206 0.286(5) 33988. 0.2548 0.3034
22985.0 2.43312 0.292(5) 33349. 0.2549 0.3019
22995.0 2.43418 0.287(5) 33849. 0.2550 0.3001
23005.0 2.43524 0.284(5) 34123. 0.2550 0.2981
23015.0 2.43630 0.290(5) 33420. 0.2551 0.2959
23025.0 2.43736 0.278(5) 34599. 0.2552 0.2936
23035.0 2.43842 0.285(5) 33842. 0.2553 0.2912
23045.0 2.43948 0.277(5) 34585. 0.2554 0.2888
23055.0 2.44054 0.282(5) 34059. 0.2555 0.2864
23065.0 2.44160 0.284(5) 33679. 0.2556 0.2840
23075.0 2.44266 0.278(5) 34249. 0.2557 0.2817
23085.0 2.44372 0.279(5) 34073. 0.2557 0.2795
23095.0 2.44478 0.278(5) 34253. 0.2558 0.2774
23105.0 2.44584 0.287(5) 33102. 0.2559 0.2755
23115.0 2.44690 0.275(5) 34459. 0.2560 0.2736
23125.0 2.44796 0.281(5) 33684. 0.2561 0.2719
23135.0 2.44902 0.262(5) 35870. 0.2562 0.2704
23145.0 2.45008 0.279(5) 33717. 0.2563 0.2690
23155.0 2.45114 0.271(5) 34521. 0.2563 0.2677
23165.0 2.45220 0.269(5) 34702. 0.2564 0.2666
23175.0 2.45326 0.267(5) 34854. 0.2565 0.2656
23185.0 2.45432 0.270(5) 34533. 0.2566 0.2647
23195.0 2.45538 0.269(5) 34628. 0.2567 0.2640
23205.0 2.45643 0.266(5) 34846. 0.2568 0.2633
23215.0 2.45749 0.259(5) 35592. 0.2568 0.2627
23225.0 2.45855 0.263(5) 35027. 0.2569 0.2622
23235.0 2.45961 0.270(5) 34241. 0.2570 0.2618
23245.0 2.46067 0.266(5) 34624. 0.2571 0.2614
23255.0 2.46173 0.267(5) 34547. 0.2572 0.2611
23265.0 2.46279 0.260(5) 35245. 0.2573 0.2611
23275.0 2.46385 0.258(5) 35553. 0.2573 0.2609
23285.0 2.46491 0.267(5) 34249. 0.2574 0.2607
23295.0 2.46597 0.272(5) 33628. 0.2575 0.2606
23305.0 2.46703 0.262(5) 34630. 0.2576 0.2605
23315.0 2.46809 0.261(5) 34706. 0.2577 0.2604
23325.0 2.46915 0.261(5) 34710. 0.2578 0.2604
23335.0 2.47021 0.271(5) 33497. 0.2578 0.2603
23345.0 2.47127 0.257(5) 35031. 0.2579 0.2603
23355.0 2.47233 0.272(5) 33121. 0.2580 0.2603
23365.0 2.47339 0.271(5) 33143. 0.2581 0.2603
23375.0 2.47445 0.257(5) 34667. 0.2582 0.2603
23385.0 2.47551 0.259(5) 34365. 0.2582 0.2603
23395.0 2.47657 0.263(5) 33814. 0.2583 0.2603
23405.0 2.47763 0.258(5) 34345. 0.2584 0.2603
23415.0 2.47869 0.263(5) 33729. 0.2585 0.2603
23425.0 2.47975 0.267(5) 33252. 0.2586 0.2604
23435.0 2.48081 0.270(6) 32882. 0.2586 0.2604
23445.0 2.48187 0.265(5) 33378. 0.2587 0.2604
23455.0 2.48293 0.265(5) 33362. 0.2588 0.2605
23465.0 2.48399 0.268(6) 33007. 0.2589 0.2605
23475.0 2.48505 0.258(5) 34026. 0.2590 0.2606
23485.0 2.48611 0.263(5) 33478. 0.2590 0.2607
23495.0 2.48717 0.263(5) 33325. 0.2591 0.2607
23505.0 2.48823 0.256(5) 34022. 0.2592 0.2608
23515.0 2.48929 0.266(6) 32819. 0.2593 0.2608
23525.0 2.49035 0.269(6) 32317. 0.2593 0.2609
23535.0 2.49141 0.265(6) 32685. 0.2594 0.2610
23545.0 2.49247 0.261(5) 33162. 0.2595 0.2611
23555.0 2.49353 0.268(6) 32235. 0.2596 0.2611
23565.0 2.49459 0.269(6) 32094. 0.2596 0.2612
23575.0 2.49564 0.263(6) 32669. 0.2597 0.2613
23585.0 2.49670 0.269(6) 31811. 0.2598 0.2614
23595.0 2.49776 0.265(6) 32175. 0.2599 0.2615
23605.0 2.49882 0.259(6) 32604. 0.2599 0.2615
23615.0 2.49988 0.263(6) 32183. 0.2600 0.2616
23625.0 2.50094 0.277(6) 30589. 0.2601 0.2617
23635.0 2.50200 0.259(6) 32491. 0.2602 0.2618
23645.0 2.50306 0.270(6) 31088. 0.2602 0.2619
23655.0 2.50412 0.273(6) 30729. 0.2603 0.2619
23665.0 2.50518 0.274(6) 30484. 0.2604 0.2620
23675.0 2.50624 0.276(6) 30284. 0.2605 0.2621
23685.0 2.50730 0.265(6) 31372. 0.2605 0.2622
23695.0 2.50836 0.288(6) 28907. 0.2606 0.2622
23705.0 2.50942 0.277(6) 29872. 0.2607 0.2623
23715.0 2.51048 0.268(6) 30700. 0.2608 0.2624
23725.0 2.51154 0.290(6) 28520. 0.2608 0.2625
23735.0 2.51260 0.266(6) 30825. 0.2609 0.2625
23745.0 2.51366 0.273(6) 30040. 0.2610 0.2626
23755.0 2.51472 0.272(6) 30091. 0.2610 0.2627
23765.0 2.51578 0.276(6) 29603. 0.2611 0.2628
23775.0 2.51684 0.281(6) 29018. 0.2612 0.2629
23785.0 2.51790 0.274(6) 29738. 0.2613 0.2630
23795.0 2.51896 0.275(6) 29574. 0.2613 0.2631
23805.0 2.52002 0.285(6) 28569. 0.2614 0.2632
23815.0 2.52108 0.283(6) 28802. 0.2615 0.2633
23825.0 2.52214 0.269(6) 30218. 0.2615 0.2634
23835.0 2.52320 0.274(6) 29534. 0.2616 0.2635
23845.0 2.52426 0.278(6) 29107. 0.2617 0.2636
23855.0 2.52532 0.279(6) 28923. 0.2618 0.2638
23865.0 2.52638 0.270(6) 29863. 0.2618 0.2640
23875.0 2.52744 0.284(6) 28543. 0.2619 0.2641
23885.0 2.52850 0.279(6) 29043. 0.2620 0.2644
23895.0 2.52956 0.270(6) 29834. 0.2620 0.2646
23905.0 2.53062 0.269(6) 29879. 0.2621 0.2648
23915.0 2.53168 0.283(6) 28437. 0.2622 0.2651
23925.0 2.53274 0.271(6) 29655. 0.2622 0.2654
23935.0 2.53380 0.261(6) 30824. 0.2623 0.2658
23945.0 2.53486 0.268(6) 30054. 0.2624 0.2662
23955.0 2.53592 0.277(6) 29033. 0.2624 0.2666
23965.0 2.53698 0.274(6) 29398. 0.2625 0.2671
23975.0 2.53803 0.268(6) 30002. 0.2626 0.2673
23985.0 2.53909 0.280(6) 28812. 0.2626 0.2679
23995.0 2.54015 0.265(6) 30198. 0.2627 0.2686
24005.0 2.54121 0.283(6) 28390. 0.2628 0.2693
24015.0 2.54227 0.279(6) 28797. 0.2629 0.2701
24025.0 2.54333 0.278(6) 28947. 0.2629 0.2709
24035.0 2.54439 0.271(6) 29551. 0.2630 0.2718
24045.0 2.54545 0.267(6) 29872. 0.2631 0.2727
24055.0 2.54651 0.280(6) 28587. 0.2631 0.2738
24065.0 2.54757 0.279(6) 28646. 0.2632 0.2748
24075.0 2.54863 0.275(6) 29130. 0.2633 0.2759
24085.0 2.54969 0.275(6) 29131. 0.2633 0.2771
24095.0 2.55075 0.266(6) 30134. 0.2634 0.2783
24105.0 2.55181 0.283(6) 28366. 0.2635 0.2795
24115.0 2.55287 0.280(6) 28625. 0.2635 0.2807
24125.0 2.55393 0.294(6) 27346. 0.2636 0.2819
24135.0 2.55499 0.287(6) 28024. 0.2637 0.2830
24145.0 2.55605 0.280(6) 28637. 0.2637 0.2841
24155.0 2.55711 0.284(6) 28163. 0.2638 0.2852
24165.0 2.55817 0.291(6) 27519. 0.2639 0.2861
24175.0 2.55923 0.278(6) 28759. 0.2639 0.2869
24185.0 2.56029 0.288(6) 27782. 0.2640 0.2876
24195.0 2.56135 0.288(6) 27728. 0.2641 0.2882
24205.0 2.56241 0.273(6) 29240. 0.2641 0.2885
24215.0 2.56347 0.277(6) 28785. 0.2642 0.2887
24225.0 2.56453 0.288(6) 27864. 0.2643 0.2887
24235.0 2.56559 0.277(6) 28754. 0.2643 0.2886
24245.0 2.56665 0.283(6) 28228. 0.2644 0.2883
24255.0 2.56771 0.283(6) 28235. 0.2645 0.2878
24265.0 2.56877 0.283(6) 28249. 0.2645 0.2872
24275.0 2.56983 0.275(6) 29030. 0.2646 0.2865
24285.0 2.57089 0.272(6) 29279. 0.2647 0.2856
24295.0 2.57195 0.267(6) 29786. 0.2647 0.2847
24305.0 2.57301 0.272(6) 29319. 0.2648 0.2838
24315.0 2.57407 0.272(6) 29172. 0.2649 0.2828
24325.0 2.57513 0.275(6) 28896. 0.2649 0.2817
24335.0 2.57619 0.279(6) 28567. 0.2650 0.2807
24345.0 2.57725 0.266(6) 29859. 0.2650 0.2797
24355.0 2.57831 0.260(6) 30451. 0.2651 0.2787
24365.0 2.57937 0.279(6) 28570. 0.2652 0.2777
24375.0 2.58043 0.277(6) 28660. 0.2652 0.2767
24385.0 2.58149 0.264(6) 30069. 0.2653 0.2758
24395.0 2.58255 0.281(6) 28211. 0.2654 0.2750
24405.0 2.58361 0.267(6) 29709. 0.2654 0.2742
24415.0 2.58467 0.276(6) 28756. 0.2655 0.2735
24425.0 2.58573 0.268(6) 29595. 0.2656 0.2728
24435.0 2.58678 0.272(6) 29175. 0.2656 0.2722
24445.0 2.58784 0.263(6) 30060. 0.2657 0.2717
24455.0 2.58890 0.271(6) 29149. 0.2658 0.2712
24465.0 2.58996 0.270(6) 29179. 0.2658 0.2707
24475.0 2.59102 0.277(6) 28513. 0.2659 0.2703
24485.0 2.59208 0.269(6) 29175. 0.2660 0.2700
24495.0 2.59314 0.259(6) 30261. 0.2660 0.2697
24505.0 2.59420 0.272(6) 28851. 0.2661 0.2695
24515.0 2.59526 0.266(6) 29633. 0.2662 0.2693
24525.0 2.59632 0.269(6) 29198. 0.2663 0.2691
24535.0 2.59738 0.262(6) 29817. 0.2663 0.2689
24545.0 2.59844 0.273(6) 28712. 0.2664 0.2688
24555.0 2.59950 0.265(6) 29408. 0.2665 0.2687
24565.0 2.60056 0.263(6) 29592. 0.2665 0.2687
24575.0 2.60162 0.264(6) 29437. 0.2666 0.2686
24585.0 2.60268 0.272(6) 28584. 0.2667 0.2686
24595.0 2.60374 0.263(6) 29387. 0.2667 0.2685
24605.0 2.60480 0.251(6) 30808. 0.2668 0.2685
24615.0 2.60586 0.262(6) 29477. 0.2669 0.2685
24625.0 2.60692 0.265(6) 29120. 0.2669 0.2685
24635.0 2.60798 0.273(6) 28191. 0.2670 0.2685
24645.0 2.60904 0.274(6) 28004. 0.2671 0.2685
24655.0 2.61010 0.265(6) 28956. 0.2671 0.2685
24665.0 2.61116 0.266(6) 28861. 0.2672 0.2685
24675.0 2.61222 0.268(6) 28636. 0.2673 0.2686
24685.0 2.61328 0.259(6) 29469. 0.2674 0.2686
24695.0 2.61434 0.279(6) 27264. 0.2674 0.2686
24705.0 2.61540 0.269(6) 28226. 0.2675 0.2686
24715.0 2.61646 0.277(6) 27379. 0.2676 0.2686
24725.0 2.61752 0.270(6) 28059. 0.2676 0.2687
24735.0 2.61858 0.277(6) 27324. 0.2677 0.2687
24745.0 2.61964 0.269(6) 28031. 0.2678 0.2687
24755.0 2.62070 0.275(6) 27456. 0.2679 0.2687
24765.0 2.62176 0.272(6) 27641. 0.2679 0.2688
24775.0 2.62282 0.265(6) 28389. 0.2680 0.2688
24785.0 2.62388 0.274(6) 27472. 0.2681 0.2688
24795.0 2.62494 0.278(6) 27161. 0.2681 0.2689
24805.0 2.62600 0.266(6) 28225. 0.2682 0.2689
24815.0 2.62706 0.268(6) 27989. 0.2683 0.2690
24825.0 2.62812 0.268(6) 27984. 0.2684 0.2690
24835.0 2.62918 0.267(6) 28122. 0.2684 0.2691
24845.0 2.63024 0.258(6) 28930. 0.2685 0.2691
24855.0 2.63130 0.271(6) 27658. 0.2686 0.2692
24865.0 2.63236 0.259(6) 28894. 0.2687 0.2692
24875.0 2.63342 0.269(6) 27763. 0.2687 0.2693
24885.0 2.63448 0.276(6) 27114. 0.2688 0.2693
24895.0 2.63554 0.267(6) 27914. 0.2689 0.2694
24905.0 2.63660 0.271(6) 27527. 0.2690 0.2694
24915.0 2.63766 0.266(6) 28002. 0.2690 0.2695
24925.0 2.63872 0.273(6) 27297. 0.2691 0.2696
24935.0 2.63978 0.268(6) 27709. 0.2692 0.2696
24945.0 2.64084 0.267(6) 27845. 0.2693 0.2697
24955.0 2.64190 0.263(6) 28224. 0.2694 0.2697
24965.0 2.64296 0.288(6) 25879. 0.2694 0.2698
24975.0 2.64402 0.277(6) 26911. 0.2695 0.2699
24985.0 2.64508 0.269(6) 27709. 0.2696 0.2699
24995.0 2.64613 0.275(6) 27121. 0.2697 0.2700
25005.0 2.64719 0.266(6) 28003. 0.2698 0.2701
25015.0 2.64825 0.267(6) 27860. 0.2698 0.2702
25025.0 2.64931 0.262(6) 28380. 0.2699 0.2702
25035.0 2.65037 0.275(6) 27095. 0.2700 0.2703
25045.0 2.65143 0.264(6) 28165. 0.2701 0.2704
25055.0 2.65249 0.262(6) 28260. 0.2702 0.2705
25065.0 2.65355 0.260(6) 28514. 0.2702 0.2705
25075.0 2.65461 0.261(6) 28526. 0.2703 0.2706
25085.0 2.65567 0.260(6) 28583. 0.2704 0.2707
25095.0 2.65673 0.269(6) 27698. 0.2705 0.2708
25105.0 2.65779 0.272(6) 27333. 0.2706 0.2708
25115.0 2.65885 0.253(6) 29213. 0.2707 0.2709
25125.0 2.65991 0.264(6) 28019. 0.2707 0.2710
25135.0 2.66097 0.248(6) 29647. 0.2708 0.2711
25145.0 2.66203 0.264(6) 27908. 0.2709 0.2712
25155.0 2.66309 0.268(6) 27525. 0.2710 0.2712
25165.0 2.66415 0.268(6) 27331. 0.2711 0.2713
25175.0 2.66521 0.274(6) 26854. 0.2712 0.2714
25185.0 2.66627 0.265(6) 27786. 0.2713 0.2715
25195.0 2.66733 0.266(6) 27725. 0.2714 0.2716
25205.0 2.66839 0.265(6) 27749. 0.2714 0.2717
25215.0 2.66945 0.263(6) 27838. 0.2715 0.2717
25225.0 2.67051 0.255(6) 28648. 0.2716 0.2718
25235.0 2.67157 0.257(6) 28416. 0.2717 0.2719
25245.0 2.67263 0.265(6) 27459. 0.2718 0.2720
25255.0 2.67369 0.271(6) 26794. 0.2719 0.2721
25265.0 2.67475 0.267(6) 27152. 0.2720 0.2722
25275.0 2.67581 0.272(6) 26675. 0.2721 0.2723
25285.0 2.67687 0.276(6) 26281. 0.2722 0.2724
25295.0 2.67793 0.262(6) 27672. 0.2723 0.2724
25305.0 2.67899 0.261(6) 27664. 0.2724 0.2724
25315.0 2.68005 0.272(6) 26590. 0.2725 0.2725
25325.0 2.68111 0.273(6) 26492. 0.2725 0.2726
25335.0 2.68217 0.274(6) 26381. 0.2726 0.2726
25345.0 2.68323 0.274(6) 26254. 0.2727 0.2727
25355.0 2.68429 0.261(6) 27415. 0.2728 0.2728
25365.0 2.68535 0.269(6) 26691. 0.2729 0.2729
25375.0 2.68641 0.267(6) 26744. 0.2730 0.2730
25385.0 2.68747 0.273(6) 26220. 0.2731 0.2731
25395.0 2.68853 0.278(6) 25764. 0.2732 0.2732
25405.0 2.68959 0.274(6) 26069. 0.2733 0.2733
25415.0 2.69065 0.266(6) 26781. 0.2734 0.2734
25425.0 2.69171 0.269(6) 26405. 0.2735 0.2735
25435.0 2.69277 0.278(6) 25509. 0.2736 0.2736
25445.0 2.69383 0.282(6) 25087. 0.2737 0.2737
25455.0 2.69489 0.266(6) 26423. 0.2738 0.2738
25465.0 2.69595 0.264(6) 26540. 0.2739 0.2739
25475.0 2.69701 0.281(6) 25010. 0.2740 0.2740
25485.0 2.69807 0.269(6) 26114. 0.2741 0.2741
25495.0 2.69913 0.263(6) 26671. 0.2742 0.2742
25505.0 2.70019 0.271(6) 25861. 0.2743 0.2743
25515.0 2.70125 0.258(6) 27041. 0.2744 0.2744
25525.0 2.70231 0.279(6) 25062. 0.2745 0.2746
25535.0 2.70337 0.287(6) 24387. 0.2747 0.2750
25545.0 2.70443 0.272(6) 25693. 0.2748 0.2751
25555.0 2.70549 0.274(6) 25557. 0.2749 0.2753
25565.0 2.70655 0.278(6) 25186. 0.2750 0.2754
25575.0 2.70761 0.273(6) 25634. 0.2751 0.2755
25585.0 2.70867 0.274(6) 25491. 0.2752 0.2756
25595.0 2.70973 0.274(6) 25480. 0.2753 0.2757
25605.0 2.71079 0.271(6) 25767. 0.2754 0.2758
25615.0 2.71185 0.290(6) 24076. 0.2755 0.2759
25625.0 2.71291 0.275(6) 25264. 0.2756 0.2761
25635.0 2.71397 0.276(6) 25141. 0.2757 0.2762
25645.0 2.71503 0.272(6) 25523. 0.2758 0.2763
25655.0 2.71609 0.267(6) 25816. 0.2760 0.2764
25665.0 2.71715 0.274(6) 25180. 0.2761 0.2765
25675.0 2.71821 0.282(6) 24471. 0.2762 0.2767
25685.0 2.71927 0.285(6) 24202. 0.2763 0.2768
25695.0 2.72033 0.272(6) 25236. 0.2764 0.2769
25705.0 2.72139 0.280(6) 24448. 0.2765 0.2770
25715.0 2.72245 0.285(6) 23977. 0.2766 0.2772
25725.0 2.72351 0.287(6) 23761. 0.2768 0.2773
25735.0 2.72456 0.279(6) 24376. 0.2769 0.2774
25745.0 2.72562 0.279(6) 24310. 0.2770 0.2775
25755.0 2.72668 0.282(6) 24133. 0.2771 0.2777
25765.0 2.72774 0.281(6) 24181. 0.2772 0.2778
25775.0 2.72880 0.286(6) 23694. 0.2773 0.2779
25785.0 2.72986 0.275(6) 24593. 0.2775 0.2781
25795.0 2.73092 0.284(6) 23777. 0.2776 0.2782
25805.0 2.73198 0.287(7) 23491. 0.2777 0.2783
25815.0 2.73304 0.291(7) 23124. 0.2778 0.2785
25825.0 2.73410 0.280(6) 24087. 0.2779 0.2786
25835.0 2.73516 0.276(6) 24387. 0.2781 0.2787
25845.0 2.73622 0.283(6) 23784. 0.2782 0.2789
25855.0 2.73728 0.286(7) 23667. 0.2783 0.2790
25865.0 2.73834 0.284(6) 23867. 0.2784 0.2792
25875.0 2.73940 0.289(7) 23508. 0.2786 0.2793
25885.0 2.74046 0.278(6) 24322. 0.2787 0.2795
25895.0 2.74152 0.280(6) 24160. 0.2788 0.2796
25905.0 2.74258 0.278(6) 24255. 0.2789 0.2797
25915.0 2.74364 0.289(7) 23419. 0.2790 0.2799
25925.0 2.74470 0.278(6) 24341. 0.2792 0.2800
25935.0 2.74576 0.270(6) 24923. 0.2793 0.2802
25945.0 2.74682 0.281(6) 23923. 0.2794 0.2803
25955.0 2.74788 0.283(6) 23820. 0.2796 0.2805
25965.0 2.74894 0.280(6) 24098. 0.2797 0.2806
25975.0 2.75000 0.288(7) 23404. 0.2798 0.2808
25985.0 2.75106 0.284(6) 23681. 0.2799 0.2810
25995.0 2.75212 0.279(6) 24100. 0.2801 0.2811
26005.0 2.75318 0.283(6) 23781. 0.2802 0.2813
26015.0 2.75424 0.278(6) 24195. 0.2803 0.2814
26025.0 2.75530 0.292(7) 22994. 0.2804 0.2816
26035.0 2.75636 0.277(6) 24217. 0.2806 0.2818
26045.0 2.75742 0.269(6) 24954. 0.2807 0.2819
26055.0 2.75848 0.281(6) 23960. 0.2808 0.2821
26065.0 2.75954 0.292(7) 23121. 0.2810 0.2823
26075.0 2.76060 0.281(6) 23943. 0.2811 0.2825
26085.0 2.76166 0.284(6) 23774. 0.2812 0.2827
26095.0 2.76272 0.283(6) 23750. 0.2814 0.2828
26105.0 2.76378 0.281(6) 23907. 0.2815 0.2830
26115.0 2.76484 0.286(7) 23492. 0.2816 0.2832
26125.0 2.76590 0.282(6) 23792. 0.2818 0.2834
26135.0 2.76696 0.282(6) 23777. 0.2819 0.2836
26145.0 2.76802 0.283(6) 23733. 0.2820 0.2838
26155.0 2.76908 0.285(7) 23566. 0.2822 0.2841
26165.0 2.77014 0.276(6) 24349. 0.2823 0.2843
26175.0 2.77120 0.274(6) 24503. 0.2824 0.2845
26185.0 2.77226 0.291(7) 23078. 0.2826 0.2848
26195.0 2.77332 0.284(7) 23602. 0.2827 0.2851
26205.0 2.77438 0.283(7) 23568. 0.2828 0.2854
26215.0 2.77544 0.291(7) 22933. 0.2830 0.2857
26225.0 2.77650 0.280(6) 23846. 0.2831 0.2860
26235.0 2.77756 0.294(7) 22720. 0.2832 0.2863
26245.0 2.77862 0.272(6) 24457. 0.2834 0.2867
26255.0 2.77968 0.288(7) 23044. 0.2835 0.2871
26265.0 2.78074 0.284(7) 23306. 0.2837 0.2876
26275.0 2.78180 0.289(7) 22917. 0.2838 0.2880
26285.0 2.78286 0.283(7) 23422. 0.2839 0.2886
26295.0 2.78392 0.283(7) 23392. 0.2841 0.2891
26305.0 2.78498 0.293(7) 22530. 0.2842 0.2897
26315.0 2.78604 0.293(7) 22549. 0.2843 0.2904
26325.0 2.78710 0.284(7) 23218. 0.2845 0.2911
26335.0 2.78816 0.289(7) 22788. 0.2846 0.2919
26345.0 2.78922 0.295(7) 22286. 0.2848 0.2928
26355.0 2.79028 0.295(7) 22221. 0.2849 0.2937
26365.0 2.79134 0.297(7) 22075. 0.2850 0.2947
26375.0 2.79240 0.287(7) 22755. 0.2852 0.2958
26385.0 2.79346 0.299(7) 21877. 0.2853 0.2970
26395.0 2.79452 0.298(7) 21786. 0.2854 0.2983
26405.0 2.79558 0.301(7) 21602. 0.2856 0.2996
26415.0 2.79664 0.295(7) 21970. 0.2857 0.3010
26425.0 2.79770 0.297(7) 21650. 0.2859 0.3025
26435.0 2.79876 0.291(7) 22041. 0.2860 0.3041
26445.0 2.79982 0.303(7) 21242. 0.2861 0.3058
26455.0 2.80088 0.305(7) 21089. 0.2863 0.3075
26465.0 2.80194 0.314(7) 20512. 0.2864 0.3093
26475.0 2.80300 0.297(7) 21639. 0.2866 0.3111
26485.0 2.80406 0.315(7) 20508. 0.2867 0.3130
26495.0 2.80512 0.315(7) 20481. 0.2868 0.3149
26505.0 2.80618 0.304(7) 21180. 0.2870 0.3168
26515.0 2.80724 0.321(7) 20160. 0.2871 0.3187
26525.0 2.80830 0.313(7) 20502. 0.2873 0.3206
26535.0 2.80936 0.321(7) 20026. 0.2874 0.3224
26545.0 2.81042 0.324(7) 19820. 0.2875 0.3241
26555.0 2.81148 0.325(7) 19684. 0.2877 0.3258
26565.0 2.81254 0.329(7) 19344. 0.2878 0.3274
26575.0 2.81360 0.333(7) 19100. 0.2879 0.3288
26585.0 2.81466 0.334(7) 19085. 0.2881 0.3300
26595.0 2.81572 0.326(7) 19490. 0.2882 0.3310
26605.0 2.81678 0.330(7) 19271. 0.2884 0.3318
26615.0 2.81784 0.340(7) 18716. 0.2885 0.3324
26625.0 2.81890 0.335(7) 18913. 0.2886 0.3328
26635.0 2.81996 0.318(7) 19836. 0.2888 0.3329
26645.0 2.82102 0.337(7) 18754. 0.2889 0.3328
26655.0 2.82208 0.326(7) 19280. 0.2890 0.3325
26665.0 2.82314 0.343(7) 18280. 0.2892 0.3319
26675.0 2.82420 0.340(7) 18455. 0.2893 0.3312
26685.0 2.82526 0.337(7) 18583. 0.2894 0.3302
26695.0 2.82632 0.324(7) 19224. 0.2896 0.3292
26705.0 2.82738 0.333(7) 18743. 0.2897 0.3279
26715.0 2.82844 0.316(7) 19698. 0.2899 0.3266
26725.0 2.82950 0.316(7) 19698. 0.2900 0.3251
26735.0 2.83056 0.326(7) 19034. 0.2901 0.3236
26745.0 2.83162 0.314(7) 19691. 0.2903 0.3221
26755.0 2.83268 0.305(7) 20229. 0.2904 0.3205
26765.0 2.83374 0.300(7) 20556. 0.2905 0.3189
26775.0 2.83480 0.322(7) 19180. 0.2907 0.3173
26785.0 2.83586 0.310(7) 19811. 0.2908 0.3158
26795.0 2.83692 0.320(7) 19172. 0.2909 0.3142
26805.0 2.83798 0.303(7) 20205. 0.2910 0.3128
26815.0 2.83904 0.319(7) 19196. 0.2912 0.3113
26825.0 2.84010 0.318(7) 19168. 0.2913 0.3100
26835.0 2.84116 0.317(7) 19152. 0.2914 0.3086
26845.0 2.84222 0.325(7) 18633. 0.2916 0.3074
26855.0 2.84328 0.309(7) 19523. 0.2917 0.3063
26865.0 2.84434 0.303(7) 19892. 0.2918 0.3052
26875.0 2.84540 0.315(7) 19192. 0.2919 0.3042
26885.0 2.84646 0.304(7) 19855. 0.2921 0.3033
26895.0 2.84752 0.300(7) 20136. 0.2922 0.3024
26905.0 2.84858 0.304(7) 19848. 0.2923 0.3017
26915.0 2.84964 0.289(7) 20820. 0.2925 0.3010
26925.0 2.85070 0.307(7) 19617. 0.2926 0.3004
26935.0 2.85176 0.307(7) 19563. 0.2927 0.2998
26945.0 2.85282 0.297(7) 20236. 0.2928 0.2993
26955.0 2.85388 0.302(7) 19896. 0.2929 0.2989
26965.0 2.85494 0.307(7) 19533. 0.2931 0.2985
26975.0 2.85600 0.307(7) 19541. 0.2932 0.2982
26985.0 2.85706 0.298(7) 20160. 0.2933 0.2979
26995.0 2.85812 0.306(7) 19638. 0.2934 0.2976
27005.0 2.85918 0.302(7) 19871. 0.2935 0.2974
27015.0 2.86024 0.306(7) 19678. 0.2937 0.2972
27025.0 2.86130 0.281(7) 21311. 0.2938 0.2971
27035.0 2.86236 0.294(7) 20459. 0.2939 0.2970
27045.0 2.86342 0.305(7) 19676. 0.2940 0.2969
27055.0 2.86448 0.298(7) 20119. 0.2941 0.2968
27065.0 2.86554 0.282(7) 21091. 0.2942 0.2968
27075.0 2.86660 0.306(7) 19498. 0.2943 0.2967
27085.0 2.86766 0.300(7) 19820. 0.2945 0.2967
27095.0 2.86872 0.292(7) 20246. 0.2946 0.2967
27105.0 2.86978 0.309(7) 19142. 0.2947 0.2967
27115.0 2.87084 0.298(7) 19852. 0.2948 0.2967
27125.0 2.87190 0.300(7) 19657. 0.2949 0.2967
27135.0 2.87296 0.302(7) 19515. 0.2950 0.2967
27145.0 2.87402 0.303(7) 19407. 0.2951 0.2968
27155.0 2.87508 0.309(7) 19055. 0.2952 0.2968
27165.0 2.87614 0.300(7) 19578. 0.2953 0.2968
27175.0 2.87720 0.312(7) 18937. 0.2954 0.2969
27185.0 2.87826 0.297(7) 19766. 0.2955 0.2969
27195.0 2.87932 0.305(7) 19274. 0.2956 0.2970
27205.0 2.88038 0.300(7) 19601. 0.2957 0.2970
27215.0 2.88144 0.312(7) 18773. 0.2958 0.2971
27225.0 2.88250 0.291(7) 20075. 0.2959 0.2971
27235.0 2.88356 0.297(7) 19650. 0.2960 0.2972
27245.0 2.88462 0.303(7) 19289. 0.2961 0.2972
27255.0 2.88568 0.302(7) 19464. 0.2962 0.2973
27265.0 2.88674 0.306(7) 19244. 0.2963 0.2974
27275.0 2.88780 0.289(7) 20330. 0.2964 0.2974
27285.0 2.88886 0.301(7) 19539. 0.2965 0.2975
27295.0 2.88992 0.308(7) 19047. 0.2965 0.2975
27305.0 2.89098 0.303(7) 19420. 0.2966 0.2976
27315.0 2.89204 0.302(7) 19361. 0.2967 0.2976
27325.0 2.89310 0.295(7) 19756. 0.2968 0.2977
27335.0 2.89416 0.309(7) 18889. 0.2969 0.2978
27345.0 2.89522 0.316(7) 18515. 0.2970 0.2978
27355.0 2.89628 0.283(7) 20560. 0.2970 0.2979
27365.0 2.89734 0.307(7) 18985. 0.2971 0.2979
27375.0 2.89840 0.298(7) 19522. 0.2972 0.2980
27385.0 2.89946 0.292(7) 19868. 0.2973 0.2981
27395.0 2.90052 0.299(7) 19373. 0.2974 0.2981
27405.0 2.90158 0.311(7) 18635. 0.2974 0.2982
27415.0 2.90264 0.298(7) 19367. 0.2975 0.2982
27425.0 2.90370 0.307(7) 18748. 0.2976 0.2983
27435.0 2.90476 0.310(7) 18522. 0.2976 0.2983
27445.0 2.90582 0.305(7) 18807. 0.2977 0.2984
27455.0 2.90688 0.304(7) 18882. 0.2978 0.2984
27465.0 2.90794 0.305(7) 18773. 0.2978 0.2985
27475.0 2.90900 0.306(7) 18709. 0.2979 0.2985
27485.0 2.91006 0.309(7) 18546. 0.2980 0.2986
27495.0 2.91112 0.304(7) 18751. 0.2980 0.2986
27505.0 2.91218 0.302(7) 18867. 0.2981 0.2987
27515.0 2.91324 0.312(7) 18162. 0.2981 0.2987
27525.0 2.91430 0.303(7) 18675. 0.2982 0.2987
27535.0 2.91536 0.292(7) 19300. 0.2982 0.2988
27545.0 2.91642 0.302(7) 18655. 0.2983 0.2988
27555.0 2.91748 0.314(7) 17977. 0.2983 0.2989
27565.0 2.91854 0.303(7) 18693. 0.2984 0.2989
27575.0 2.91960 0.302(7) 18756. 0.2984 0.2989
27585.0 2.92066 0.301(7) 18768. 0.2985 0.2990
27595.0 2.92172 0.319(8) 17690. 0.2985 0.2990
27605.0 2.92278 0.303(7) 18598. 0.2986 0.2990
27615.0 2.92384 0.314(7) 17958. 0.2986 0.2991
27625.0 2.92490 0.296(7) 18985. 0.2986 0.2991
27635.0 2.92596 0.296(7) 18991. 0.2987 0.2991
27645.0 2.92702 0.302(7) 18658. 0.2987 0.2991
27655.0 2.92808 0.315(7) 17986. 0.2987 0.2992
27665.0 2.92914 0.305(7) 18572. 0.2988 0.2992
27675.0 2.93020 0.297(7) 19127. 0.2988 0.2992
27685.0 2.93126 0.297(7) 19070. 0.2988 0.2992
27695.0 2.93232 0.300(7) 18854. 0.2989 0.2992
27705.0 2.93338 0.314(7) 17991. 0.2989 0.2993
27715.0 2.93444 0.307(7) 18379. 0.2989 0.2993
27725.0 2.93550 0.312(7) 18077. 0.2989 0.2989
27735.0 2.93656 0.298(7) 18974. 0.2989 0.2989
27745.0 2.93762 0.312(7) 18130. 0.2990 0.2990
27755.0 2.93868 0.303(7) 18713. 0.2990 0.2990
27765.0 2.93974 0.301(7) 18785. 0.2990 0.2990
27775.0 2.94080 0.294(7) 19191. 0.2990 0.2990
27785.0 2.94186 0.300(7) 18731. 0.2990 0.2990
27795.0 2.94292 0.303(7) 18525. 0.2990 0.2990
27805.0 2.94398 0.300(7) 18725. 0.2990 0.2990
27815.0 2.94504 0.297(7) 18836. 0.2990 0.2990
27825.0 2.94610 0.282(7) 19780. 0.2990 0.2990
27835.0 2.94716 0.307(7) 18253. 0.2990 0.2990
27845.0 2.94822 0.304(7) 18487. 0.2990 0.2990
27855.0 2.94928 0.299(7) 18636. 0.2990 0.2990
27865.0 2.95034 0.301(7) 18537. 0.2990 0.2990
27875.0 2.95140 0.301(7) 18474. 0.2990 0.2990
27885.0 2.95246 0.299(7) 18584. 0.2990 0.2990
27895.0 2.95352 0.295(7) 18732. 0.2990 0.2990
27905.0 2.95458 0.314(8) 17601. 0.2989 0.2989
27915.0 2.95564 0.294(7) 18746. 0.2989 0.2989
27925.0 2.95670 0.313(8) 17668. 0.2989 0.2989
27935.0 2.95776 0.312(8) 17698. 0.2989 0.2989
27945.0 2.95882 0.296(7) 18557. 0.2989 0.2989
27955.0 2.95988 0.307(7) 17894. 0.2988 0.2988
27965.0 2.96094 0.308(7) 17780. 0.2988 0.2988
27975.0 2.96200 0.288(7) 18997. 0.2988 0.2988
27985.0 2.96306 0.315(8) 17429. 0.2987 0.2987
27995.0 2.96412 0.304(7) 18077. 0.2987 0.2987
28005.0 2.96518 0.303(7) 18191. 0.2987 0.2987
28015.0 2.96624 0.308(7) 17908. 0.2986 0.2986
28025.0 2.96730 0.301(7) 18309. 0.2986 0.2986
28035.0 2.96836 0.300(7) 18467. 0.2985 0.2985
28045.0 2.96942 0.300(7) 18390. 0.2985 0.2985
28055.0 2.97048 0.294(7) 18673. 0.2984 0.2984
28065.0 2.97154 0.306(7) 17926. 0.2984 0.2984
28075.0 2.97260 0.293(7) 18709. 0.2983 0.2983
28085.0 2.97366 0.301(7) 18289. 0.2983 0.2983
28095.0 2.97472 0.290(7) 18985. 0.2982 0.2982
28105.0 2.97578 0.295(7) 18707. 0.2982 0.2982
28115.0 2.97684 0.297(7) 18593. 0.2981 0.2981
28125.0 2.97790 0.303(7) 18176. 0.2981 0.2981
28135.0 2.97896 0.296(7) 18562. 0.2980 0.2980
28145.0 2.98002 0.289(7) 19026. 0.2979 0.2979
28155.0 2.98108 0.297(7) 18517. 0.2979 0.2979
28165.0 2.98214 0.311(8) 17717. 0.2978 0.2978
28175.0 2.98320 0.286(7) 19084. 0.2977 0.2977
28185.0 2.98426 0.287(7) 18953. 0.2976 0.2992
28195.0 2.98532 0.297(7) 18368. 0.2976 0.2992
28205.0 2.98638 0.297(7) 18404. 0.2975 0.2991
28215.0 2.98744 0.298(7) 18198. 0.2974 0.2990
28225.0 2.98850 0.292(7) 18443. 0.2973 0.2990
28235.0 2.98956 0.301(7) 18019. 0.2972 0.2989
28245.0 2.99062 0.292(7) 18482. 0.2971 0.2989
28255.0 2.99168 0.300(7) 17909. 0.2970 0.2988
28265.0 2.99274 0.304(8) 17637. 0.2970 0.2988
28275.0 2.99380 0.304(8) 17616. 0.2969 0.2987
28285.0 2.99486 0.286(7) 18666. 0.2968 0.2986
28295.0 2.99592 0.295(7) 18105. 0.2967 0.2986
28305.0 2.99698 0.302(8) 17666. 0.2966 0.2985
28315.0 2.99804 0.297(7) 18002. 0.2965 0.2984
28325.0 2.99910 0.306(8) 17469. 0.2964 0.2984
28335.0 3.00016 0.299(7) 17805. 0.2962 0.2983
28345.0 3.00122 0.286(7) 18538. 0.2961 0.2982
28355.0 3.00228 0.300(8) 17666. 0.2960 0.2981
28365.0 3.00334 0.286(7) 18599. 0.2959 0.2981
28375.0 3.00440 0.295(7) 18059. 0.2958 0.2980
28385.0 3.00546 0.296(7) 18080. 0.2957 0.2979
28395.0 3.00652 0.290(7) 18463. 0.2956 0.2978
28405.0 3.00758 0.293(7) 18292. 0.2954 0.2978
28415.0 3.00864 0.295(7) 18211. 0.2953 0.2977
28425.0 3.00970 0.280(7) 19080. 0.2952 0.2976
28435.0 3.01076 0.294(7) 18178. 0.2951 0.2975
28445.0 3.01182 0.294(7) 18217. 0.2949 0.2975
28455.0 3.01288 0.292(7) 18319. 0.2948 0.2974
28465.0 3.01394 0.282(7) 18926. 0.2947 0.2973
28475.0 3.01500 0.296(7) 18106. 0.2945 0.2972
28485.0 3.01606 0.286(7) 18657. 0.2944 0.2971
28495.0 3.01712 0.295(7) 18031. 0.2942 0.2971
28505.0 3.01818 0.286(7) 18578. 0.2941 0.2970
28515.0 3.01924 0.295(7) 17995. 0.2940 0.2969
28525.0 3.02030 0.288(7) 18349. 0.2938 0.2968
28535.0 3.02136 0.289(7) 18265. 0.2937 0.2967
28545.0 3.02242 0.293(7) 18006. 0.2935 0.2967
28555.0 3.02348 0.292(7) 18085. 0.2934 0.2966
28565.0 3.02454 0.287(7) 18257. 0.2932 0.2965
28575.0 3.02560 0.298(8) 17656. 0.2930 0.2964
28585.0 3.02666 0.290(7) 18080. 0.2929 0.2963
28595.0 3.02772 0.295(8) 17749. 0.2927 0.2963
28605.0 3.02878 0.292(7) 17888. 0.2926 0.2962
28615.0 3.02984 0.289(7) 18008. 0.2924 0.2961
28625.0 3.03091 0.298(8) 17399. 0.2922 0.2961
28635.0 3.03197 0.285(7) 18114. 0.2921 0.2960
28645.0 3.03303 0.298(8) 17331. 0.2919 0.2959
28655.0 3.03409 0.293(8) 17577. 0.2917 0.2959
28665.0 3.03515 0.299(8) 17320. 0.2915 0.2958
28675.0 3.03621 0.304(8) 17004. 0.2914 0.2957
28685.0 3.03727 0.300(8) 17152. 0.2912 0.2957
28695.0 3.03833 0.283(7) 18078. 0.2910 0.2956
28705.0 3.03939 0.301(8) 17004. 0.2908 0.2956
28715.0 3.04045 0.293(8) 17417. 0.2907 0.2955
28725.0 3.04151 0.302(8) 16877. 0.2905 0.2955
28735.0 3.04257 0.287(8) 17663. 0.2903 0.2955
28745.0 3.04363 0.294(8) 17311. 0.2901 0.2955
28755.0 3.04469 0.297(8) 17029. 0.2899 0.2955
28765.0 3.04575 0.304(8) 16680. 0.2897 0.2955
28775.0 3.04681 0.294(8) 17136. 0.2895 0.2955
28785.0 3.04787 0.294(8) 17154. 0.2893 0.2955
28795.0 3.04893 0.286(8) 17644. 0.2891 0.2955
28805.0 3.04999 0.283(8) 17714. 0.2889 0.2956
28815.0 3.05105 0.303(8) 16591. 0.2887 0.2957
28825.0 3.05211 0.299(8) 16783. 0.2885 0.2958
28835.0 3.05317 0.312(8) 16114. 0.2883 0.2959
28845.0 3.05423 0.301(8) 16673. 0.2881 0.2961
28855.0 3.05529 0.301(8) 16670. 0.2879 0.2963
28865.0 3.05635 0.299(8) 16752. 0.2877 0.2965
28875.0 3.05741 0.298(8) 16759. 0.2875 0.2968
28885.0 3.05847 0.323(8) 15443. 0.2873 0.2971
28895.0 3.05953 0.321(8) 15543. 0.2871 0.2975
28905.0 3.06059 0.300(8) 16524. 0.2869 0.2980
28915.0 3.06165 0.299(8) 16658. 0.2867 0.2985
28925.0 3.06271 0.290(8) 17158. 0.2864 0.2991
28935.0 3.06377 0.303(8) 16463. 0.2862 0.2997
28945.0 3.06483 0.295(8) 16894. 0.2860 0.3005
28955.0 3.06589 0.300(8) 16574. 0.2858 0.3014
28965.0 3.06695 0.300(8) 16628. 0.2856 0.3024
28975.0 3.06801 0.298(8) 16748. 0.2854 0.3035
28985.0 3.06907 0.299(8) 16775. 0.2851 0.3048
28995.0 3.07013 0.314(8) 15922. 0.2849 0.3062
29005.0 3.07119 0.316(8) 15824. 0.2847 0.3078
29015.0 3.07225 0.306(8) 16290. 0.2845 0.3095
29025.0 3.07331 0.326(8) 15284. 0.2842 0.3114
29035.0 3.07437 0.328(8) 15205. 0.2840 0.3135
29045.0 3.07543 0.320(8) 15507. 0.2838 0.3158
29055.0 3.07649 0.321(8) 15438. 0.2835 0.3184
29065.0 3.07755 0.323(8) 15262. 0.2833 0.3211
29075.0 3.07861 0.321(8) 15324. 0.2831 0.3241
29085.0 3.07967 0.320(8) 15369. 0.2828 0.3273
29095.0 3.08073 0.326(8) 15090. 0.2826 0.3307
29105.0 3.08179 0.343(8) 14344. 0.2824 0.3344
29115.0 3.08285 0.350(8) 14039. 0.2821 0.3383
29125.0 3.08391 0.339(8) 14543. 0.2819 0.3425
29135.0 3.08497 0.355(8) 13896. 0.2817 0.3469
29145.0 3.08603 0.333(8) 14758. 0.2814 0.3515
29155.0 3.08709 0.349(8) 14191. 0.2812 0.3563
29165.0 3.08815 0.354(8) 13986. 0.2809 0.3613
29175.0 3.08921 0.353(8) 14059. 0.2807 0.3665
29185.0 3.09027 0.358(8) 13864. 0.2805 0.3718
29195.0 3.09133 0.363(9) 13670. 0.2802 0.3773
29205.0 3.09239 0.379(9) 13086. 0.2800 0.3829
29215.0 3.09345 0.386(9) 12828. 0.2797 0.3886
29225.0 3.09451 0.386(9) 12822. 0.2795 0.3942
29235.0 3.09557 0.386(9) 12811. 0.2792 0.3999
29245.0 3.09663 0.390(9) 12697. 0.2790 0.4055
29255.0 3.09769 0.408(9) 12139. 0.2787 0.4110
29265.0 3.09875 0.398(9) 12384. 0.2785 0.4163
29275.0 3.09981 0.400(9) 12328. 0.2782 0.4214
29285.0 3.10087 0.414(9) 11952. 0.2780 0.4262
29295.0 3.10193 0.416(9) 11871. 0.2778 0.4307
29305.0 3.10299 0.427(9) 11586. 0.2775 0.4347
29315.0 3.10405 0.423(9) 11687. 0.2773 0.4383
29325.0 3.10511 0.443(9) 11135. 0.2770 0.4414
29335.0 3.10617 0.415(9) 11871. 0.2768 0.4439
29345.0 3.10723 0.420(9) 11731. 0.2765 0.4457
29355.0 3.10829 0.441(9) 11183. 0.2763 0.4470
29365.0 3.10935 0.425(9) 11637. 0.2760 0.4476
29375.0 3.11041 0.411(9) 11971. 0.2757 0.4474
29385.0 3.11148 0.432(9) 11409. 0.2755 0.4467
29395.0 3.11254 0.407(9) 12049. 0.2752 0.4452
29405.0 3.11360 0.431(9) 11366. 0.2750 0.4432
29415.0 3.11466 0.425(9) 11561. 0.2747 0.4405
29425.0 3.11572 0.417(9) 11784. 0.2745 0.4372
29435.0 3.11678 0.406(9) 12056. 0.2742 0.4335
29445.0 3.11784 0.417(9) 11835. 0.2740 0.4292
29455.0 3.11890 0.401(9) 12251. 0.2737 0.4246
29465.0 3.11996 0.396(9) 12354. 0.2735 0.4196
29475.0 3.12102 0.396(9) 12337. 0.2732 0.4143
29485.0 3.12208 0.377(9) 12907. 0.2730 0.4088
29495.0 3.12314 0.373(9) 13040. 0.2727 0.4031
29505.0 3.12420 0.402(9) 12077. 0.2725 0.3972
29515.0 3.12526 0.374(9) 12996. 0.2722 0.3912
29525.0 3.12632 0.368(9) 13187. 0.2720 0.3852
29535.0 3.12738 0.368(9) 13186. 0.2717 0.3792
29545.0 3.12844 0.363(9) 13364. 0.2715 0.3732
29555.0 3.12950 0.358(9) 13533. 0.2712 0.3673
29565.0 3.13056 0.359(9) 13497. 0.2710 0.3615
29575.0 3.13162 0.364(9) 13308. 0.2707 0.3558
29585.0 3.13268 0.355(9) 13499. 0.2705 0.3503
29595.0 3.13374 0.337(8) 14218. 0.2702 0.3449
29605.0 3.13480 0.338(8) 14181. 0.2700 0.3398
29615.0 3.13586 0.318(8) 14973. 0.2697 0.3348
29625.0 3.13692 0.339(8) 14030. 0.2695 0.3301
29635.0 3.13798 0.335(8) 14179. 0.2692 0.3255
29645.0 3.13904 0.321(8) 14727. 0.2690 0.3212
29655.0 3.14010 0.326(8) 14532. 0.2687 0.3172
29665.0 3.14116 0.317(8) 14956. 0.2685 0.3133
29675.0 3.14222 0.304(8) 15497. 0.2682 0.3097
29685.0 3.14328 0.320(8) 14713. 0.2680 0.3063
29695.0 3.14434 0.307(8) 15275. 0.2677 0.3032
29705.0 3.14540 0.304(8) 15360. 0.2675 0.3002
29715.0 3.14646 0.291(8) 16003. 0.2672 0.2974
29725.0 3.14752 0.304(8) 15353. 0.2670 0.2949
29735.0 3.14858 0.285(8) 16277. 0.2668 0.2925
29745.0 3.14964 0.303(8) 15342. 0.2665 0.2903
29755.0 3.15070 0.286(8) 16233. 0.2663 0.2882
29765.0 3.15176 0.297(8) 15570. 0.2660 0.2864
29775.0 3.15282 0.282(8) 16298. 0.2658 0.2846
29785.0 3.15388 0.293(8) 15656. 0.2656 0.2830
29795.0 3.15494 0.292(8) 15795. 0.2653 0.2815
29805.0 3.15600 0.283(8) 16245. 0.2651 0.2802
29815.0 3.15706 0.288(8) 15942. 0.2648 0.2789
29825.0 3.15812 0.273(8) 16669. 0.2646 0.2777
29835.0 3.15918 0.278(8) 16345. 0.2644 0.2767
29845.0 3.16024 0.285(8) 15887. 0.2641 0.2757
29855.0 3.16130 0.282(8) 16061. 0.2639 0.2747
29865.0 3.16236 0.281(8) 16082. 0.2637 0.2739
29875.0 3.16342 0.284(8) 15894. 0.2634 0.2731
29885.0 3.16448 0.280(8) 16026. 0.2632 0.2723
29895.0 3.16554 0.283(8) 15738. 0.2630 0.2716
29905.0 3.16660 0.277(8) 16045. 0.2627 0.2710
29915.0 3.16766 0.283(8) 15715. 0.2625 0.2704
29925.0 3.16873 0.271(8) 16325. 0.2623 0.2698
29935.0 3.16979 0.275(8) 16041. 0.2620 0.2692
29945.0 3.17085 0.285(8) 15458. 0.2618 0.2687
29955.0 3.17191 0.270(8) 16270. 0.2616 0.2682
29965.0 3.17297 0.276(8) 15822. 0.2614 0.2677
29975.0 3.17403 0.270(8) 16185. 0.2611 0.2672
29985.0 3.17509 0.269(8) 16214. 0.2609 0.2668
29995.0 3.17615 0.275(8) 15844. 0.2607 0.2664
30005.0 3.17721 0.276(8) 15778. 0.2605 0.2660
30015.0 3.17827 0.275(8) 15796. 0.2603 0.2656
30025.0 3.17933 0.269(8) 16022. 0.2600 0.2652
30035.0 3.18039 0.265(8) 16227. 0.2598 0.2648
30045.0 3.18145 0.280(8) 15294. 0.2596 0.2644
30055.0 3.18251 0.277(8) 15375. 0.2594 0.2641
30065.0 3.18357 0.283(8) 15077. 0.2592 0.2637
30075.0 3.18463 0.267(8) 15857. 0.2590 0.2634
30085.0 3.18569 0.276(8) 15358. 0.2588 0.2630
30095.0 3.18675 0.270(8) 15680. 0.2585 0.2627
30105.0 3.18781 0.278(8) 15165. 0.2583 0.2624
30115.0 3.18887 0.269(8) 15726. 0.2581 0.2621
30125.0 3.18993 0.282(8) 14895. 0.2579 0.2618
30135.0 3.19099 0.270(8) 15485. 0.2577 0.2615
30145.0 3.19205 0.267(8) 15576. 0.2575 0.2612
30155.0 3.19311 0.292(8) 14279. 0.2573 0.2609
30165.0 3.19417 0.265(8) 15565. 0.2571 0.2606
30175.0 3.19523 0.249(8) 16474. 0.2569 0.2603
30185.0 3.19629 0.266(8) 15428. 0.2567 0.2600
30195.0 3.19735 0.256(8) 16086. 0.2565 0.2597
30205.0 3.19841 0.272(8) 15148. 0.2563 0.2594
30215.0 3.19947 0.284(8) 14498. 0.2561 0.2592
30225.0 3.20053 0.269(8) 15269. 0.2559 0.2589
30235.0 3.20159 0.263(8) 15651. 0.2557 0.2586
30245.0 3.20265 0.259(8) 15781. 0.2555 0.2584
30255.0 3.20371 0.270(8) 15134. 0.2553 0.2581
30265.0 3.20477 0.286(8) 14286. 0.2551 0.2579
30275.0 3.20583 0.273(8) 14871. 0.2549 0.2576
30285.0 3.20689 0.257(8) 15737. 0.2547 0.2574
30295.0 3.20795 0.255(8) 15860. 0.2545 0.2571
30305.0 3.20901 0.257(8) 15700. 0.2543 0.2569
30315.0 3.21007 0.275(8) 14701. 0.2541 0.2566
30325.0 3.21113 0.260(8) 15499. 0.2539 0.2564
30335.0 3.21219 0.262(8) 15391. 0.2537 0.2561
30345.0 3.21325 0.248(8) 16250. 0.2536 0.2559
30355.0 3.21431 0.283(8) 14292. 0.2534 0.2557
30365.0 3.21537 0.265(8) 15196. 0.2532 0.2554
30375.0 3.21643 0.269(8) 14961. 0.2530 0.2552
30385.0 3.21749 0.248(8) 16191. 0.2528 0.2550
30395.0 3.21856 0.273(8) 14747. 0.2526 0.2548
30405.0 3.21962 0.268(8) 14957. 0.2524 0.2545
30415.0 3.22068 0.271(8) 14718. 0.2523 0.2543
30425.0 3.22174 0.263(8) 15164. 0.2521 0.2541
30435.0 3.22280 0.260(8) 15301. 0.2519 0.2539
30445.0 3.22386 0.268(8) 14905. 0.2517 0.2537
30455.0 3.22492 0.261(8) 15288. 0.2515 0.2534
30465.0 3.22598 0.267(8) 14971. 0.2514 0.2532
30475.0 3.22704 0.256(8) 15526. 0.2512 0.2530
30485.0 3.22810 0.266(8) 14990. 0.2510 0.2528
30495.0 3.22916 0.255(8) 15582. 0.2508 0.2526
30505.0 3.23022 0.263(8) 15172. 0.2506 0.2524
30515.0 3.23128 0.262(8) 15213. 0.2505 0.2522
30525.0 3.23234 0.270(8) 14722. 0.2503 0.2520
30535.0 3.23340 0.252(8) 15739. 0.2501 0.2518
30545.0 3.23446 0.259(8) 15246. 0.2499 0.2516
30555.0 3.23552 0.259(8) 15272. 0.2498 0.2513
30565.0 3.23658 0.249(8) 15889. 0.2496 0.2511
30575.0 3.23764 0.259(8) 15335. 0.2494 0.2509
30585.0 3.23870 0.250(8) 15838. 0.2492 0.2507
30595.0 3.23976 0.255(8) 15575. 0.2490 0.2505
30605.0 3.24082 0.233(8) 17016. 0.2489 0.2503
30615.0 3.24188 0.242(8) 16383. 0.2487 0.2501
30625.0 3.24294 0.245(8) 16262. 0.2485 0.2499
30635.0 3.24400 0.247(8) 16054. 0.2483 0.2498
30645.0 3.24506 0.251(8) 15923. 0.2482 0.2496
30655.0 3.24612 0.247(8) 16141. 0.2480 0.2494
30665.0 3.24718 0.252(8) 15839. 0.2478 0.2492
30675.0 3.24824 0.252(8) 15792. 0.2476 0.2476
30685.0 3.24930 0.241(8) 16498. 0.2475 0.2475
30695.0 3.25036 0.234(8) 17019. 0.2473 0.2473
30705.0 3.25142 0.259(8) 15370. 0.2471 0.2471
30715.0 3.25248 0.241(8) 16469. 0.2469 0.2469
30725.0 3.25354 0.250(8) 15845. 0.2468 0.2468
30735.0 3.25460 0.239(8) 16613. 0.2466 0.2466
30745.0 3.25566 0.245(8) 16212. 0.2464 0.2464
30755.0 3.25672 0.242(8) 16420. 0.2462 0.2462
30765.0 3.25778 0.227(8) 17441. 0.2461 0.2461
30775.0 3.25884 0.234(8) 16990. 0.2459 0.2459
30785.0 3.25990 0.244(8) 16354. 0.2457 0.2457
30795.0 3.26097 0.249(8) 15988. 0.2455 0.2455
30805.0 3.26203 0.231(8) 17072. 0.2453 0.2453
30815.0 3.26309 0.244(8) 16154. 0.2452 0.2452
30825.0 3.26415 0.240(8) 16439. 0.2450 0.2450
30835.0 3.26521 0.238(8) 16588. 0.2448 0.2448
30845.0 3.26627 0.241(8) 16354. 0.2446 0.2446
30855.0 3.26733 0.232(8) 17004. 0.2444 0.2444
30865.0 3.26839 0.235(8) 16820. 0.2442 0.2442
30875.0 3.26945 0.225(8) 17516. 0.2440 0.2440
30885.0 3.27051 0.247(8) 16056. 0.2439 0.2439
30895.0 3.27157 0.239(8) 16526. 0.2437 0.2437
30905.0 3.27263 0.241(8) 16452. 0.2435 0.2435
30915.0 3.27369 0.237(8) 16669. 0.2433 0.2433
30925.0 3.27475 0.234(8) 16812. 0.2431 0.2431
30935.0 3.27581 0.231(8) 17061. 0.2429 0.2429
30945.0 3.27687 0.222(8) 17717. 0.2427 0.2427
30955.0 3.27793 0.233(8) 16968. 0.2425 0.2425
30965.0 3.27899 0.226(8) 17467. 0.2423 0.2423
30975.0 3.28005 0.216(7) 18208. 0.2421 0.2421
30985.0 3.28111 0.235(8) 16807. 0.2419 0.2419
30995.0 3.28217 0.240(8) 16437. 0.2417 0.2417
31005.0 3.28323 0.237(8) 16645. 0.2415 0.2415
31015.0 3.28429 0.232(8) 16903. 0.2413 0.2413
31025.0 3.28535 0.226(8) 17268. 0.2411 0.2411
31035.0 3.28641 0.237(8) 16418. 0.2409 0.2409
31045.0 3.28747 0.239(8) 16240. 0.2407 0.2407
31055.0 3.28853 0.236(8) 16353. 0.2405 0.2405
31065.0 3.28959 0.236(8) 16354. 0.2403 0.2403
31075.0 3.29065 0.227(8) 16832. 0.2401 0.2401
31085.0 3.29171 0.240(8) 16007. 0.2399 0.2399
31095.0 3.29277 0.230(8) 16629. 0.2396 0.2396
31105.0 3.29383 0.242(8) 15800. 0.2394 0.2394
31115.0 3.29489 0.245(8) 15558. 0.2392 0.2392
31125.0 3.29595 0.231(8) 16482. 0.2390 0.2390
31135.0 3.29701 0.241(8) 15836. 0.2388 0.2388
31145.0 3.29807 0.234(8) 16218. 0.2385 0.2385
31155.0 3.29914 0.238(8) 15951. 0.2383 0.2383
31165.0 3.30020 0.228(8) 16557. 0.2381 0.2381
31175.0 3.30126 0.235(8) 16002. 0.2379 0.2379
31185.0 3.30232 0.241(8) 15625. 0.2376 0.2376
31195.0 3.30338 0.234(8) 15972. 0.2374 0.2374
31205.0 3.30444 0.229(8) 16265. 0.2372 0.2372
31215.0 3.30550 0.233(8) 16028. 0.2369 0.2369
31225.0 3.30656 0.233(8) 15956. 0.2367 0.2367
31235.0 3.30762 0.225(8) 16364. 0.2365 0.2364
31245.0 3.30868 0.229(8) 16044. 0.2362 0.2362
31255.0 3.30974 0.251(8) 14639. 0.2360 0.2360
31265.0 3.31080 0.247(8) 14826. 0.2357 0.2357
31275.0 3.31186 0.244(8) 14937. 0.2355 0.2355
31285.0 3.31292 0.242(8) 14963. 0.2352 0.2352
31295.0 3.31398 0.256(8) 14175. 0.2350 0.2350
31305.0 3.31504 0.239(8) 15032. 0.2347 0.2347
31315.0 3.31610 0.222(8) 16071. 0.2345 0.2345
31325.0 3.31716 0.240(8) 15017. 0.2342 0.2342
31335.0 3.31822 0.225(8) 15999. 0.2340 0.2340
31345.0 3.31928 0.225(8) 16067. 0.2337 0.2337
31355.0 3.32034 0.232(8) 15554. 0.2334 0.2334
31365.0 3.32140 0.224(8) 15969. 0.2332 0.2332
31375.0 3.32246 0.242(8) 14916. 0.2329 0.2329
31385.0 3.32352 0.233(8) 15472. 0.2327 0.2327
31395.0 3.32458 0.237(8) 15200. 0.2324 0.2324
31405.0 3.32564 0.234(8) 15378. 0.2321 0.2321
31415.0 3.32670 0.230(8) 15684. 0.2319 0.2319
31425.0 3.32776 0.228(8) 15732. 0.2316 0.2316
31435.0 3.32882 0.228(8) 15703. 0.2313 0.2313
31445.0 3.32988 0.217(8) 16398. 0.2311 0.2311
31455.0 3.33094 0.251(8) 14212. 0.2308 0.2308
31465.0 3.33200 0.230(8) 15512. 0.2305 0.2305
31475.0 3.33306 0.231(8) 15311. 0.2302 0.2302
31485.0 3.33413 0.215(8) 16399. 0.2300 0.2300
31495.0 3.33519 0.223(8) 15845. 0.2297 0.2297
31505.0 3.33625 0.218(8) 16155. 0.2294 0.2294
31515.0 3.33731 0.226(8) 15548. 0.2291 0.2291
31525.0 3.33837 0.223(8) 15809. 0.2289 0.2289
31535.0 3.33943 0.238(8) 14835. 0.2286 0.2286
31545.0 3.34049 0.225(8) 15591. 0.2283 0.2283
31555.0 3.34155 0.215(8) 16253. 0.2281 0.2281
31565.0 3.34261 0.230(8) 15228. 0.2278 0.2278
31575.0 3.34367 0.236(8) 14761. 0.2275 0.2275
31585.0 3.34473 0.234(8) 14789. 0.2273 0.2272
31595.0 3.34579 0.221(8) 15590. 0.2270 0.2270
31605.0 3.34685 0.234(8) 14718. 0.2267 0.2267
31615.0 3.34791 0.238(8) 14433. 0.2265 0.2265
31625.0 3.34897 0.241(8) 14302. 0.2262 0.2262
31635.0 3.35003 0.256(9) 13468. 0.2259 0.2259
31645.0 3.35109 0.249(9) 13784. 0.2257 0.2257
31655.0 3.35215 0.225(8) 15168. 0.2254 0.2254
31665.0 3.35321 0.224(8) 15285. 0.2252 0.2252
31675.0 3.35427 0.215(8) 15941. 0.2249 0.2249
31685.0 3.35533 0.227(8) 15151. 0.2247 0.2247
31695.0 3.35639 0.235(8) 14663. 0.2244 0.2244
31705.0 3.35745 0.230(8) 14955. 0.2242 0.2242
31715.0 3.35851 0.233(8) 14696. 0.2239 0.2239
31725.0 3.35957 0.231(8) 14802. 0.2237 0.2237
31735.0 3.36063 0.236(8) 14406. 0.2235 0.2235
31745.0 3.36169 0.234(8) 14535. 0.2233 0.2233
31755.0 3.36275 0.216(8) 15674. 0.2230 0.2230
31765.0 3.36381 0.237(8) 14359. 0.2228 0.2228
31775.0 3.36487 0.217(8) 15621. 0.2226 0.2226
31785.0 3.36594 0.224(8) 15121. 0.2224 0.2224
31795.0 3.36700 0.225(8) 15077. 0.2222 0.2222
31805.0 3.36806 0.214(8) 15715. 0.2221 0.2221
31815.0 3.36912 0.241(8) 13990. 0.2219 0.2219
31825.0 3.37018 0.234(8) 14374. 0.2217 0.2217
31835.0 3.37124 0.228(8) 14751. 0.2216 0.2216
31845.0 3.37230 0.213(8) 15697. 0.2214 0.2214
31855.0 3.37336 0.225(8) 14910. 0.2213 0.2213
31865.0 3.37442 0.222(8) 15073. 0.2211 0.2211
31875.0 3.37548 0.233(8) 14409. 0.2210 0.2210
31885.0 3.37654 0.222(8) 15118. 0.2209 0.2209
31895.0 3.37760 0.240(8) 13997. 0.2208 0.2208
31905.0 3.37866 0.219(8) 15277. 0.2207 0.2207
31915.0 3.37972 0.207(8) 16059. 0.2207 0.2207
31925.0 3.38078 0.240(8) 13946. 0.2206 0.2206
31935.0 3.38184 0.211(8) 15639. 0.2206 0.2206
31945.0 3.38290 0.229(8) 14492. 0.2205 0.2205
31955.0 3.38396 0.216(8) 15213. 0.2205 0.2205
31965.0 3.38502 0.212(8) 15452. 0.2205 0.2205
31975.0 3.38608 0.220(8) 14902. 0.2205 0.2205
31985.0 3.38714 0.227(8) 14529. 0.2206 0.2206
31995.0 3.38820 0.224(8) 14667. 0.2206 0.2206
32005.0 3.38926 0.213(8) 15384. 0.2207 0.2207
32015.0 3.39032 0.216(8) 15101. 0.2208 0.2208
32025.0 3.39138 0.225(8) 14494. 0.2209 0.2209
32035.0 3.39244 0.216(8) 15167. 0.2211 0.2211
32045.0 3.39350 0.224(8) 14691. 0.2212 0.2212
32055.0 3.39456 0.214(8) 15309. 0.2214 0.2214
32065.0 3.39562 0.203(8) 16089. 0.2216 0.2216
32075.0 3.39669 0.221(8) 14796. 0.2218 0.2218
32085.0 3.39775 0.218(8) 15065. 0.2221 0.2221
32095.0 3.39881 0.210(8) 15552. 0.2223 0.2223
32105.0 . 0.215(8) . . .
32115.0 . 0.215(8) . . .
32125.0 . 0.217(8) . . .
32135.0 . 0.220(8) . . .
32145.0 . 0.226(8) . . .
32155.0 . 0.230(8) . . .
32165.0 . 0.225(8) . . .
32175.0 . 0.202(8) . . .
32185.0 . 0.213(8) . . .
32195.0 . 0.219(8) . . .
32205.0 . 0.220(8) . . .
32215.0 . 0.206(8) . . .
32225.0 . 0.227(8) . . .
32235.0 . 0.207(8) . . .
32245.0 . 0.220(8) . . .
32255.0 . 0.218(8) . . .
32265.0 . 0.230(8) . . .
32275.0 . 0.211(8) . . .
32285.0 . 0.208(8) . . .
32295.0 . 0.234(9) . . .
32305.0 . 0.213(8) . . .
32315.0 . 0.203(8) . . .
32325.0 . 0.211(8) . . .
32335.0 . 0.225(8) . . .
32345.0 . 0.211(8) . . .
32355.0 . 0.213(8) . . .
32365.0 . 0.229(8) . . .
32375.0 . 0.207(8) . . .
32385.0 . 0.216(8) . . .
32395.0 . 0.202(8) . . .
32405.0 . 0.196(8) . . .
32415.0 . 0.204(8) . . .
32425.0 . 0.213(8) . . .
32435.0 . 0.198(8) . . .
32445.0 . 0.199(8) . . .
32455.0 . 0.206(8) . . .
32465.0 . 0.210(8) . . .
32475.0 . 0.225(8) . . .
32485.0 . 0.214(8) . . .
32495.0 . 0.192(8) . . .
32505.0 . 0.202(8) . . .
32515.0 . 0.203(8) . . .
32525.0 . 0.212(8) . . .
32535.0 . 0.203(8) . . .
32545.0 . 0.205(8) . . .
32555.0 . 0.203(8) . . .
32565.0 . 0.196(8) . . .
32575.0 . 0.215(8) . . .
32585.0 . 0.214(8) . . .
32595.0 . 0.195(8) . . .
32605.0 . 0.202(8) . . .
32615.0 . 0.204(8) . . .
32625.0 . 0.206(8) . . .
32635.0 . 0.226(9) . . .
32645.0 . 0.206(8) . . .
32655.0 . 0.208(8) . . .
32665.0 . 0.203(8) . . .
32675.0 . 0.213(8) . . .
32685.0 . 0.216(8) . . .
32695.0 . 0.209(8) . . .
32705.0 . 0.204(8) . . .
32715.0 . 0.201(8) . . .
32725.0 . 0.199(8) . . .
32735.0 . 0.213(8) . . .
32745.0 . 0.205(8) . . .
32755.0 . 0.201(8) . . .
32765.0 . 0.202(8) . . .
32775.0 . 0.218(9) . . .
32785.0 . 0.210(8) . . .
32795.0 . 0.191(8) . . .
32805.0 . 0.206(8) . . .
32815.0 . 0.223(9) . . .
32825.0 . 0.207(8) . . .
32835.0 . 0.206(8) . . .
32845.0 . 0.225(9) . . .
32855.0 . 0.206(8) . . .
32865.0 . 0.206(8) . . .
32875.0 . 0.202(8) . . .
32885.0 . 0.213(9) . . .
32895.0 . 0.202(8) . . .
32905.0 . 0.208(8) . . .
32915.0 . 0.214(9) . . .
32925.0 . 0.220(9) . . .
32935.0 . 0.213(9) . . .
32945.0 . 0.197(8) . . .
32955.0 . 0.209(9) . . .
32965.0 . 0.223(9) . . .
32975.0 . 0.209(9) . . .
32985.0 . 0.211(9) . . .
32995.0 . 0.218(9) . . .
33005.0 . 0.204(8) . . .
33015.0 . 0.194(8) . . .
33025.0 . 0.217(9) . . .
33035.0 . 0.207(9) . . .
33045.0 . 0.211(9) . . .
33055.0 . 0.230(9) . . .
33065.0 . 0.215(9) . . .
33075.0 . 0.209(9) . . .
33085.0 . 0.209(9) . . .
33095.0 . 0.213(9) . . .
33105.0 . 0.229(9) . . .
33115.0 . 0.206(9) . . .
33125.0 . 0.208(9) . . .
33135.0 . 0.203(9) . . .
33145.0 . 0.205(9) . . .
33155.0 . 0.222(9) . . .
33165.0 . 0.212(9) . . .
33175.0 . 0.213(9) . . .
33185.0 . 0.217(9) . . .
33195.0 . 0.211(9) . . .
33205.0 . 0.197(9) . . .
33215.0 . 0.211(9) . . .
33225.0 . 0.208(9) . . .
33235.0 . 0.206(9) . . .
33245.0 . 0.225(9) . . .
33255.0 . 0.208(9) . . .
33265.0 . 0.205(9) . . .
33275.0 . 0.196(8) . . .
33285.0 . 0.209(9) . . .
33295.0 . 0.207(9) . . .
33305.0 . 0.211(9) . . .
33315.0 . 0.207(9) . . .
33325.0 . 0.226(9) . . .
33335.0 . 0.196(8) . . .
33345.0 . 0.212(9) . . .
33355.0 . 0.208(9) . . .
33365.0 . 0.200(9) . . .
33375.0 . 0.184(8) . . .
33385.0 . 0.212(9) . . .
33395.0 . 0.186(8) . . .
33405.0 . 0.189(8) . . .
33415.0 . 0.197(9) . . .
33425.0 . 0.212(9) . . .
33435.0 . 0.208(9) . . .
33445.0 . 0.201(9) . . .
33455.0 . 0.223(9) . . .
33465.0 . 0.201(9) . . .
33475.0 . 0.212(9) . . .
33485.0 . 0.200(9) . . .
33495.0 . 0.207(9) . . .
33505.0 . 0.206(9) . . .
33515.0 . 0.193(9) . . .
33525.0 . 0.212(9) . . .
33535.0 . 0.201(9) . . .
33545.0 . 0.205(9) . . .
33555.0 . 0.199(9) . . .
33565.0 . 0.196(9) . . .
33575.0 . 0.196(9) . . .
33585.0 . 0.204(9) . . .
33595.0 . 0.195(9) . . .
33605.0 . 0.202(9) . . .
33615.0 . 0.195(9) . . .
33625.0 . 0.210(9) . . .
33635.0 . 0.206(9) . . .
33645.0 . 0.204(9) . . .
33655.0 . 0.196(9) . . .
33665.0 . 0.207(9) . . .
33675.0 . 0.207(9) . . .
33685.0 . 0.196(9) . . .
33695.0 . 0.209(9) . . .
33705.0 . 0.204(9) . . .
33715.0 . 0.211(9) . . .
33725.0 . 0.193(9) . . .
33735.0 . 0.213(9) . . .
33745.0 . 0.217(9) . . .
33755.0 . 0.203(9) . . .
33765.0 . 0.201(9) . . .
33775.0 . 0.208(9) . . .
33785.0 . 0.218(9) . . .
33795.0 . 0.214(9) . . .
33805.0 . 0.206(9) . . .
33815.0 . 0.216(9) . . .
33825.0 . 0.194(9) . . .
33835.0 . 0.227(9) . . .
33845.0 . 0.229(9) . . .
33855.0 . 0.211(9) . . .
33865.0 . 0.217(9) . . .
33875.0 . 0.203(9) . . .
33885.0 . 0.220(9) . . .
33895.0 . 0.213(9) . . .
33905.0 . 0.189(9) . . .
33915.0 . 0.212(9) . . .
33925.0 . 0.208(9) . . .
33935.0 . 0.221(9) . . .
33945.0 . 0.220(9) . . .
33955.0 . 0.209(9) . . .
33965.0 . 0.212(9) . . .
33975.0 . 0.213(9) . . .
33985.0 . 0.213(9) . . .
33995.0 . 0.223(9) . . .
34005.0 . 0.222(9) . . .
34015.0 . 0.221(9) . . .
34025.0 . 0.220(9) . . .
34035.0 . 0.242(10) . . .
34045.0 . 0.223(10) . . .
34055.0 . 0.233(10) . . .
34065.0 . 0.235(10) . . .
34075.0 . 0.227(10) . . .
34085.0 . 0.247(10) . . .
34095.0 . 0.231(10) . . .
34105.0 . 0.231(10) . . .
34115.0 . 0.244(10) . . .
34125.0 . 0.225(10) . . .
34135.0 . 0.203(9) . . .
34145.0 . 0.236(10) . . .
34155.0 . 0.226(10) . . .
34165.0 . 0.218(9) . . .
34175.0 . 0.234(10) . . .
34185.0 . 0.235(10) . . .
34195.0 . 0.244(10) . . .
34205.0 . 0.243(10) . . .
34215.0 . 0.237(10) . . .
34225.0 . 0.241(10) . . .
34235.0 . 0.231(10) . . .
34245.0 . 0.234(10) . . .
34255.0 . 0.252(10) . . .
34265.0 . 0.240(10) . . .
34275.0 . 0.247(10) . . .
34285.0 . 0.235(10) . . .
34295.0 . 0.247(10) . . .
34305.0 . 0.241(10) . . .
34315.0 . 0.234(10) . . .
34325.0 . 0.240(10) . . .
34335.0 . 0.256(10) . . .
34345.0 . 0.245(10) . . .
34355.0 . 0.245(10) . . .
34365.0 . 0.250(10) . . .
34375.0 . 0.263(11) . . .
34385.0 . 0.242(10) . . .
34395.0 . 0.249(10) . . .
34405.0 . 0.247(10) . . .
34415.0 . 0.263(11) . . .
34425.0 . 0.251(10) . . .
34435.0 . 0.248(10) . . .
34445.0 . 0.268(11) . . .
34455.0 . 0.246(10) . . .
34465.0 . 0.247(10) . . .
34475.0 . 0.259(11) . . .
34485.0 . 0.258(11) . . .
34495.0 . 0.257(11) . . .
34505.0 . 0.248(10) . . .
34515.0 . 0.248(10) . . .
34525.0 . 0.273(11) . . .
34535.0 . 0.262(11) . . .
34545.0 . 0.250(11) . . .
34555.0 . 0.249(11) . . .
34565.0 . 0.265(11) . . .
34575.0 . 0.261(11) . . .
34585.0 . 0.250(11) . . .
34595.0 . 0.259(11) . . .
34605.0 . 0.261(11) . . .
34615.0 . 0.234(10) . . .
34625.0 . 0.259(11) . . .
34635.0 . 0.235(10) . . .
34645.0 . 0.253(11) . . .
34655.0 . 0.269(11) . . .
34665.0 . 0.229(10) . . .
34675.0 . 0.239(11) . . .
34685.0 . 0.259(11) . . .
34695.0 . 0.223(10) . . .
34705.0 . 0.227(10) . . .
34715.0 . 0.253(11) . . .
34725.0 . 0.233(10) . . .
34735.0 . 0.243(11) . . .
34745.0 . 0.239(11) . . .
34755.0 . 0.237(11) . . .
34765.0 . 0.225(10) . . .
34775.0 . 0.209(10) . . .
34785.0 . 0.213(10) . . .
34795.0 . 0.225(10) . . .
34805.0 . 0.211(10) . . .
34815.0 . 0.222(10) . . .
34825.0 . 0.217(10) . . .
34835.0 . 0.210(10) . . .
34845.0 . 0.215(10) . . .
34855.0 . 0.226(10) . . .
34865.0 . 0.206(10) . . .
34875.0 . 0.235(11) . . .
34885.0 . 0.218(10) . . .
34895.0 . 0.201(10) . . .
34905.0 . 0.224(10) . . .
34915.0 . 0.222(10) . . .
34925.0 . 0.206(10) . . .
34935.0 . 0.217(10) . . .
34945.0 . 0.213(10) . . .
34955.0 . 0.208(10) . . .
34965.0 . 0.207(10) . . .
34975.0 . 0.204(10) . . .
34985.0 . 0.210(10) . . .
34995.0 . 0.197(10) . . .
35005.0 . 0.209(10) . . .
35015.0 . 0.215(10) . . .
35025.0 . 0.215(10) . . .
35035.0 . 0.194(10) . . .
35045.0 . 0.201(10) . . .
35055.0 . 0.209(10) . . .
35065.0 . 0.197(10) . . .
35075.0 . 0.190(10) . . .
35085. . 0.209(10) . . .
35095. . 0.194(10) . . .
35105. . 0.202(10) . . .
35115. . 0.198(10) . . .
35125. . 0.189(9) . . .
35135. . 0.194(10) . . .
35145. . 0.190(10) . . .
35155. . 0.184(9) . . .
35165. . 0.197(10) . . .
35175. . 0.198(10) . . .
35185. . 0.206(10) . . .
35195. . 0.184(9) . . .
35205. . 0.194(10) . . .
35215. . 0.184(9) . . .
35225. . 0.202(10) . . .
35235. . 0.178(9) . . .
35245. . 0.197(10) . . .
35255. . 0.193(10) . . .
35265. . 0.174(9) . . .
35275. . 0.188(10) . . .
35285. . 0.190(10) . . .
35295. . 0.168(9) . . .
35305. . 0.177(9) . . .
35315. . 0.185(10) . . .
35325. . 0.190(10) . . .
35335. . 0.184(10) . . .
35345. . 0.188(10) . . .
35355. . 0.184(10) . . .
35365. . 0.190(10) . . .
35375. . 0.189(10) . . .
35385. . 0.180(10) . . .
35395. . 0.193(10) . . .
35405. . 0.201(10) . . .
35415. . 0.195(10) . . .
35425. . 0.190(10) . . .
35435. . 0.185(10) . . .
35445. . 0.179(10) . . .
35455. . 0.175(9) . . .
35465. . 0.172(9) . . .
35475. . 0.185(10) . . .
35485. . 0.193(10) . . .
35495. . 0.176(10) . . .
35505. . 0.191(10) . . .
35515. . 0.190(10) . . .
35525. . 0.202(10) . . .
35535. . 0.202(10) . . .
35545. . 0.172(10) . . .
35555. . 0.184(10) . . .
35565. . 0.198(10) . . .
35575. . 0.198(10) . . .
35585. . 0.186(10) . . .
35595. . 0.205(10) . . .
35605. . 0.181(10) . . .
35615. . 0.184(10) . . .
35625. . 0.198(10) . . .
35635. . 0.195(10) . . .
35645. . 0.196(10) . . .
35655. . 0.176(10) . . .
35665. . 0.168(10) . . .
35675. . 0.181(10) . . .
35685. . 0.203(10) . . .
35695. . 0.184(10) . . .
35705. . 0.202(10) . . .
35715. . 0.179(10) . . .
35725. . 0.201(10) . . .
35735. . 0.185(10) . . .
35745. . 0.181(10) . . .
35755. . 0.200(10) . . .
35765. . 0.180(10) . . .
35775. . 0.194(10) . . .
35785. . 0.181(10) . . .
35795. . 0.192(10) . . .
35805. . 0.174(10) . . .
35815. . 0.192(10) . . .
35825. . 0.182(10) . . .
35835. . 0.178(10) . . .
35845. . 0.169(10) . . .
35855. . 0.178(10) . . .
35865. . 0.185(10) . . .
35875. . 0.177(10) . . .
35885. . 0.173(10) . . .
35895. . 0.193(10) . . .
35905. . 0.168(10) . . .
35915. . 0.172(10) . . .
35925. . 0.169(10) . . .
35935. . 0.170(10) . . .
35945. . 0.197(10) . . .
35955. . 0.167(10) . . .
35965. . 0.182(10) . . .
35975. . 0.170(10) . . .
35985. . 0.159(10) . . .
35995. . 0.174(10) . . .
36005. . 0.172(10) . . .
36015. . 0.180(10) . . .
36025. . 0.176(10) . . .
36035. . 0.203(11) . . .
36045. . 0.189(10) . . .
36055. . 0.174(10) . . .
36065. . 0.194(10) . . .
36075. . 0.167(10) . . .
36085. . 0.182(10) . . .
36095. . 0.177(10) . . .
36105. . 0.184(10) . . .
36115. . 0.181(10) . . .
36125. . 0.187(10) . . .
36135. . 0.173(10) . . .
36145. . 0.181(10) . . .
36155. . 0.177(10) . . .
36165. . 0.184(10) . . .
36175. . 0.163(10) . . .
36185. . 0.178(10) . . .
36195. . 0.167(10) . . .
36205. . 0.164(10) . . .
36215. . 0.161(10) . . .
36225. . 0.189(10) . . .
36235. . 0.179(10) . . .
36245. . 0.180(10) . . .
36255. . 0.159(10) . . .
36265. . 0.178(10) . . .
36275. . 0.169(10) . . .
36285. . 0.180(10) . . .
36295. . 0.166(10) . . .
36305. . 0.168(10) . . .
36315. . 0.176(10) . . .
36325. . 0.174(10) . . .
36335. . 0.163(10) . . .
36345. . 0.168(10) . . .
36355. . 0.180(10) . . .
36365. . 0.180(10) . . .
36375. . 0.169(10) . . .
36385. . 0.175(10) . . .
36395. . 0.162(10) . . .
36405. . 0.181(10) . . .
36415. . 0.171(10) . . .
36425. . 0.158(10) . . .
36435. . 0.175(10) . . .
36445. . 0.178(10) . . .
36455. . 0.164(10) . . .
36465. . 0.195(11) . . .
36475. . 0.184(10) . . .
36485. . 0.174(10) . . .
36495. . 0.168(10) . . .
36505. . 0.173(10) . . .
36515. . 0.179(10) . . .
36525. . 0.169(10) . . .
36535. . 0.180(10) . . .
36545. . 0.165(10) . . .
36555. . 0.169(10) . . .
36565. . 0.181(11) . . .
36575. . 0.182(11) . . .
36585. . 0.175(10) . . .
36595. . 0.168(10) . . .
36605. . 0.164(10) . . .
36615. . 0.182(11) . . .
36625. . 0.175(10) . . .
36635. . 0.175(10) . . .
36645. . 0.170(10) . . .
36655. . 0.162(10) . . .
36665. . 0.159(10) . . .
36675. . 0.201(11) . . .
36685. . 0.168(10) . . .
36695. . 0.179(10) . . .
36705. . 0.150(10) . . .
36715. . 0.160(10) . . .
36725. . 0.161(10) . . .
36735. . 0.168(10) . . .
36745. . 0.156(10) . . .
36755. . 0.152(10) . . .
36765. . 0.170(10) . . .
36775. . 0.192(11) . . .
36785. . 0.175(10) . . .
36795. . 0.164(10) . . .
36805. . 0.167(10) . . .
36815. . 0.175(10) . . .
36825. . 0.158(10) . . .
36835. . 0.156(10) . . .
36845. . 0.163(10) . . .
36855. . 0.188(11) . . .
36865. . 0.146(10) . . .
36875. . 0.197(11) . . .
36885. . 0.168(10) . . .
36895. . 0.162(10) . . .
36905. . 0.167(10) . . .
36915. . 0.175(11) . . .
36925. . 0.151(10) . . .
36935. . 0.176(11) . . .
36945. . 0.164(10) . . .
36955. . 0.173(11) . . .
36965. . 0.175(11) . . .
36975. . 0.167(10) . . .
36985. . 0.165(10) . . .
36995. . 0.167(11) . . .
37005. . 0.171(11) . . .
37015. . 0.149(10) . . .
37025. . 0.163(10) . . .
37035. . 0.155(10) . . .
37045. . 0.164(10) . . .
37055. . 0.158(10) . . .
37065. . 0.159(10) . . .
37075. . 0.164(10) . . .
37085. . 0.164(11) . . .
37095. . 0.171(11) . . .
37105. . 0.146(10) . . .
37115. . 0.144(10) . . .
37125. . 0.175(11) . . .
37135. . 0.157(10) . . .
37145. . 0.157(10) . . .
37155. . 0.159(10) . . .
37165. . 0.181(11) . . .
37175. . 0.182(11) . . .
37185. . 0.172(11) . . .
37195. . 0.154(10) . . .
37205. . 0.167(11) . . .
37215. . 0.153(10) . . .
37225. . 0.164(11) . . .
37235. . 0.162(11) . . .
37245. . 0.167(11) . . .
37255. . 0.160(11) . . .
37265. . 0.150(10) . . .
37275. . 0.160(11) . . .
37285. . 0.167(11) . . .
37295. . 0.158(11) . . .
37305. . 0.167(11) . . .
37315. . 0.165(11) . . .
37325. . 0.160(11) . . .
37335. . 0.163(11) . . .
37345. . 0.171(11) . . .
37355. . 0.169(11) . . .
37365. . 0.162(11) . . .
37375. . 0.168(11) . . .
37385. . 0.163(11) . . .
37395. . 0.156(11) . . .
37405. . 0.169(11) . . .
37415. . 0.177(12) . . .
37425. . 0.159(11) . . .
37435. . 0.172(11) . . .
37445. . 0.182(12) . . .
37455. . 0.155(11) . . .
37465. . 0.150(11) . . .
37475. . 0.152(11) . . .
37485. . 0.147(11) . . .
37495. . 0.159(11) . . .
37505. . 0.159(11) . . .
37515. . 0.160(11) . . .
37525. . 0.167(11) . . .
37535. . 0.163(11) . . .
37545. . 0.143(11) . . .
37555. . 0.155(11) . . .
37565. . 0.154(11) . . .
37575. . 0.174(12) . . .
37585. . 0.173(12) . . .
37595. . 0.171(12) . . .
37605. . 0.170(12) . . .
37615. . 0.183(12) . . .
37625. . 0.161(11) . . .
37635. . 0.152(11) . . .
37645. . 0.156(11) . . .
37655. . 0.149(11) . . .
37665. . 0.153(11) . . .
37675. . 0.159(11) . . .
37685. . 0.154(11) . . .
37695. . 0.155(11) . . .
37705. . 0.151(11) . . .
37715. . 0.177(12) . . .
37725. . 0.146(11) . . .
37735. . 0.167(12) . . .
37745. . 0.162(12) . . .
37755. . 0.164(12) . . .
37765. . 0.155(11) . . .
37775. . 0.132(11) . . .
37785. . 0.151(11) . . .
37795. . 0.165(12) . . .
37805. . 0.158(12) . . .
37815. . 0.153(11) . . .
37825. . 0.153(11) . . .
37835. . 0.171(12) . . .
37845. . 0.150(11) . . .
37855. . 0.158(12) . . .
37865. . 0.155(11) . . .
37875. . 0.148(11) . . .
37885. . 0.155(11) . . .
37895. . 0.139(11) . . .
37905. . 0.133(11) . . .
37915. . 0.150(11) . . .
37925. . 0.152(11) . . .
37935. . 0.176(12) . . .
37945. . 0.139(11) . . .
37955. . 0.157(12) . . .
37965. . 0.145(11) . . .
37975. . 0.147(11) . . .
37985. . 0.126(11) . . .
37995. . 0.142(11) . . .
38005. . 0.144(11) . . .
38015. . 0.141(11) . . .
38025. . 0.136(11) . . .
38035. . 0.146(11) . . .
38045. . 0.153(12) . . .
38055. . 0.158(12) . . .
38065. . 0.138(11) . . .
38075. . 0.157(12) . . .
38085. . 0.162(12) . . .
38095. . 0.126(11) . . .
38105. . 0.151(12) . . .
38115. . 0.139(11) . . .
38125. . 0.136(11) . . .
38135. . 0.165(13) . . .
38145. . 0.166(13) . . .
38155. . 0.160(12) . . .
38165. . 0.143(12) . . .
38175. . 0.157(12) . . .
38185. . 0.158(12) . . .
38195. . 0.150(12) . . .
38205. . 0.146(12) . . .
38215. . 0.161(12) . . .
38225. . 0.132(11) . . .
38235. . 0.144(12) . . .
38245. . 0.166(13) . . .
38255. . 0.151(12) . . .
38265. . 0.150(12) . . .
38275. . 0.149(12) . . .
38285. . 0.139(12) . . .
38295. . 0.144(12) . . .
38305. . 0.151(12) . . .
38315. . 0.141(12) . . .
38325. . 0.151(12) . . .
38335. . 0.145(12) . . .
38345. . 0.142(12) . . .
38355. . 0.141(12) . . .
38365. . 0.148(12) . . .
38375. . 0.159(13) . . .
38385. . 0.160(13) . . .
38395. . 0.160(13) . . .
38405. . 0.134(12) . . .
38415. . 0.131(12) . . .
38425. . 0.127(12) . . .
38435. . 0.146(12) . . .
38445. . 0.154(13) . . .
38455. . 0.126(12) . . .
38465. . 0.141(12) . . .
38475. . 0.148(13) . . .
38485. . 0.127(12) . . .
38495. . 0.144(12) . . .
38505. . 0.160(13) . . .
38515. . 0.142(12) . . .
38525. . 0.156(13) . . .
38535. . 0.133(12) . . .
38545. . 0.141(12) . . .
38555. . 0.130(12) . . .
38565. . 0.140(12) . . .
38575. . 0.152(13) . . .
38585. . 0.113(11) . . .
38595. . 0.139(12) . . .
38605. . 0.150(13) . . .
38615. . 0.153(13) . . .
38625. . 0.171(14) . . .
38635. . 0.132(12) . . .
38645. . 0.139(13) . . .
38655. . 0.137(12) . . .
38665. . 0.157(13) . . .
38675. . 0.151(13) . . .
38685. . 0.143(13) . . .
38695. . 0.148(13) . . .
38705. . 0.113(12) . . .
38715. . 0.148(13) . . .
38725. . 0.141(13) . . .
38735. . 0.137(13) . . .
38745. . 0.126(12) . . .
38755. . 0.146(13) . . .
38765. . 0.149(13) . . .
38775. . 0.146(13) . . .
38785. . 0.106(11) . . .
38795. . 0.136(13) . . .
38805. . 0.148(13) . . .
38815. . 0.165(14) . . .
38825. . 0.137(13) . . .
38835. . 0.144(13) . . .
38845. . 0.141(13) . . .
38855. . 0.135(13) . . .
38865. . 0.129(13) . . .
38875. . 0.160(14) . . .
38885. . 0.121(12) . . .
38895. . 0.139(13) . . .
38905. . 0.136(13) . . .
38915. . 0.128(13) . . .
38925. . 0.132(13) . . .
38935. . 0.126(13) . . .
38945. . 0.144(14) . . .
38955. . 0.143(14) . . .
38965. . 0.126(13) . . .
38975. . 0.128(13) . . .
38985. . 0.145(14) . . .
38995. . 0.147(14) . . .
39005. . 0.141(14) . . .
39015. . 0.125(13) . . .
39025. . 0.138(14) . . .
39035. . 0.134(14) . . .
39045. . 0.141(14) . . .
39055. . 0.149(14) . . .
39065. . 0.145(14) . . .
39075. . 0.129(13) . . .
39085. . 0.138(14) . . .
39095. . 0.115(13) . . .
39105. . 0.151(15) . . .
39115. . 0.095(12) . . .
39125. . 0.116(13) . . .
39135. . 0.135(14) . . .
39145. . 0.121(13) . . .
39155. . 0.112(13) . . .
39165. . 0.147(15) . . .
39175. . 0.136(14) . . .
39185. . 0.136(14) . . .
39195. . 0.126(14) . . .
39205. . 0.150(15) . . .
39215. . 0.124(14) . . .
39225. . 0.144(14) . . .
39235. . 0.135(14) . . .
39245. . 0.106(13) . . .
39255. . 0.151(15) . . .
39265. . 0.121(13) . . .
39275. . 0.132(14) . . .
39285. . 0.137(14) . . .
39295. . 0.144(15) . . .
39305. . 0.124(14) . . .
39315. . 0.124(14) . . .
39325. . 0.124(14) . . .
39335. . 0.101(13) . . .
39345. . 0.142(15) . . .
39355. . 0.139(15) . . .
39365. . 0.139(15) . . .
39375. . 0.131(15) . . .
39385. . 0.128(14) . . .
39395. . 0.116(14) . . .
39405. . 0.140(15) . . .
39415. . 0.117(14) . . .
39425. . 0.120(14) . . .
39435. . 0.117(14) . . .
39445. . 0.109(14) . . .
39455. . 0.109(14) . . .
39465. . 0.135(15) . . .
39475. . 0.146(16) . . .
39485. . 0.141(16) . . .
39495. . 0.133(15) . . .
39505. . 0.144(16) . . .
39515. . 0.104(14) . . .
39525. . 0.138(16) . . .
39535. . 0.123(15) . . .
39545. . 0.154(17) . . .
39555. . 0.159(17) . . .
39565. . 0.132(16) . . .
39575. . 0.173(18) . . .
39585. . 0.134(16) . . .
39595. . 0.136(16) . . .
39605. . 0.128(16) . . .
39615. . 0.149(17) . . .
39625. . 0.118(15) . . .
39635. . 0.117(15) . . .
39645. . 0.148(17) . . .
39655. . 0.118(15) . . .
39665. . 0.150(17) . . .
39675. . 0.129(16) . . .
39685. . 0.142(17) . . .
39695. . 0.103(15) . . .
39705. . 0.122(16) . . .
39715. . 0.133(17) . . .
39725. . 0.116(16) . . .
39735. . 0.155(18) . . .
39745. . 0.115(16) . . .
39755. . 0.141(17) . . .
39765. . 0.139(17) . . .
39775. . 0.114(16) . . .
39785. . 0.137(17) . . .
39795. . 0.114(16) . . .
39805. . 0.100(15) . . .
39815. . 0.103(15) . . .
39825. . 0.133(17) . . .
39835. . 0.128(17) . . .
39845. . 0.104(16) . . .
39855. . 0.148(18) . . .
39865. . 0.130(17) . . .
39875. . 0.129(17) . . .
39885. . 0.140(18) . . .
39895. . 0.111(17) . . .
39905. . 0.149(19) . . .
39915. . 0.113(17) . . .
39925. . 0.121(17) . . .
39935. . 0.139(19) . . .
39945. . 0.173(21) . . .
39955. . 0.124(18) . . .
39965. . 0.137(19) . . .
loop_
_refln_index_h
_refln_index_k
_refln_index_l
_refln_observed_status
_refln_F_squared_meas
_refln_F_squared_calc
_refln_phase_calc
_refln_d_spacing
_gsas_i100_meas
1 1 -1 o 6.408 6.458 0.00 3.10642 100.00
1 1 1 o 2.544 2.126 180.00 2.81629 26.83
0 2 0 o 0.000 0.046 180.00 2.60485 0.00
0 0 2 o 2.682 2.999 180.00 2.56121 9.67
2 0 0 o 0.266 0.047 0.00 2.50316 0.87
1 0 -2 o 7.448 7.195 180.00 2.42613 21.62
0 2 1 o 0.665 0.724 0.00 2.32188 3.24
1 2 0 o 1.827 1.771 0.00 2.31077 8.73
0 1 2 o 0.595 0.564 0.00 2.29847 2.78
2 1 0 o 8.332 8.041 180.00 2.25623 36.19
1 1 -2 o 0.183 0.212 0.00 2.19934 0.72
2 1 -1 o 5.644 5.931 180.00 2.17135 21.03
1 2 -1 o 7.605 7.965 180.00 2.16087 27.79
1 0 2 o 11.392 11.964 180.00 2.15769 20.69
1 2 1 o 1.930 1.196 0.00 2.05579 5.78
1 1 2 o 12.115 11.622 0.00 1.99348 32.06
2 1 1 o 1.986 2.332 0.00 1.97256 5.04
2 0 -2 o 0.791 2.545 0.00 1.93479 0.93
0 2 2 o 18.779 17.420 180.00 1.82628 35.01
2 1 -2 o 2.089 1.953 180.00 1.81375 3.79
2 2 0 o 20.188 19.166 180.00 1.80488 35.90
1 2 -2 o 17.290 17.776 0.00 1.77536 28.79
2 2 -1 o 6.808 7.415 180.00 1.76053 10.96
2 0 2 o 25.138 25.359 0.00 1.67379 16.53
3 0 0 o 0.042 0.043 0.00 1.66877 0.03
1 2 2 o 1.543 1.599 0.00 1.66166 1.97
2 2 1 o 2.929 2.808 0.00 1.64949 3.63
0 3 1 o 0.013 0.012 0.00 1.64463 0.02
1 3 0 o 10.239 9.429 180.00 1.64066 12.43
0 1 3 o 11.070 11.473 180.00 1.62255 12.86
1 1 -3 o 5.992 6.432 180.00 1.60942 6.74
2 1 2 o 0.014 0.014 0.00 1.59357 0.01
3 1 0 o 0.606 0.621 0.00 1.58923 0.65
1 3 -1 o 3.116 3.242 0.00 1.58434 3.29
3 1 -1 o 10.435 10.774 180.00 1.58041 10.91
2 2 -2 o 0.103 0.088 0.00 1.55321 0.10
1 3 1 o 19.220 17.498 180.00 1.54150 18.19
3 0 -2 o 28.628 29.245 180.00 1.50044 12.16
1 1 3 o 0.849 0.976 0.00 1.48508 0.69
3 1 1 o 15.857 16.335 0.00 1.46220 12.15
2 1 -3 o 3.671 3.804 0.00 1.45543 2.76
3 1 -2 o 6.027 6.927 0.00 1.44184 4.37
0 3 2 o 0.033 0.039 0.00 1.43733 0.02
0 2 3 o 0.085 0.094 0.00 1.42802 0.06
2 3 0 o 1.152 1.251 0.00 1.42683 0.80
1 2 -3 o 6.599 6.562 0.00 1.41905 4.48
1 3 -2 o 0.360 0.314 0.00 1.41211 0.24
2 2 2 o 0.783 0.648 0.00 1.40814 0.52
3 2 0 o 6.289 5.061 0.00 1.40515 4.11
2 3 -1 o 0.132 0.106 0.00 1.40461 0.09
3 2 -1 o 0.147 0.116 180.00 1.39904 0.09
1 3 2 o 3.697 2.786 0.00 1.35284 2.08
2 3 1 o 2.922 2.473 180.00 1.34625 1.61
1 2 3 o 1.232 1.092 0.00 1.33162 0.65
3 2 1 o 1.979 2.000 180.00 1.31504 0.99
3 0 2 o 0.801 0.810 0.00 1.31433 0.20
2 2 -3 o 8.349 8.360 0.00 1.31011 4.12
3 2 -2 o 0.168 0.158 180.00 1.30017 0.08
0 4 0 o 3.516 3.336 0.00 1.30242 0.85
2 3 -2 o 0.017 0.017 0.00 1.29235 0.01
1 0 -4 o 13.584 15.602 180.00 1.28589 3.11
2 1 3 o 0.000 0.000 0.00 1.28375 0.00
0 0 4 o 10.181 11.678 0.00 1.28061 2.29
3 1 2 o 6.566 6.948 0.00 1.27439 2.90
0 4 1 o 9.376 9.092 180.00 1.26226 3.99
1 4 0 o 17.492 17.059 180.00 1.26047 7.40
3 1 -3 o 1.940 1.969 0.00 1.25205 0.80
4 0 0 o 2.188 2.228 0.00 1.25158 0.45
1 1 -4 o 2.495 2.609 0.00 1.24843 1.02
0 1 4 o 2.795 3.084 180.00 1.24359 1.12
1 4 -1 o 0.029 0.032 0.00 1.23438 0.01
4 1 -1 o 0.452 0.430 0.00 1.22312 0.17
0 3 3 o 0.713 0.720 0.00 1.21752 0.26
4 1 0 o 16.879 17.128 180.00 1.21696 6.20
2 0 -4 o 9.510 9.717 0.00 1.21307 1.73
1 3 -3 o 0.115 0.117 180.00 1.21195 0.04
1 4 1 o 0.266 0.271 180.00 1.21379 0.10
3 3 0 o 1.754 1.957 180.00 1.20325 0.62
1 0 4 o 1.039 1.313 180.00 1.19989 0.18
2 3 2 o 8.123 8.667 0.00 1.20513 2.87
3 3 -1 o 0.000 0.000 180.00 1.19941 0.00
4 0 -2 o 0.984 1.708 180.00 1.19436 0.17
2 1 -4 o 0.253 0.462 0.00 1.18146 0.08
2 2 3 o 0.188 0.339 0.00 1.18071 0.06
3 2 2 o 0.220 0.311 0.00 1.17342 0.07
1 1 4 o 0.292 0.301 180.00 1.16928 0.09
4 1 -2 o 0.004 0.004 0.00 1.16416 0.00
0 4 2 o 4.330 4.227 0.00 1.16094 1.32
3 2 -3 o 0.560 0.559 0.00 1.15591 0.17
1 3 3 o 11.503 11.501 0.00 1.15611 3.44
1 2 -4 o 0.059 0.057 180.00 1.15305 0.02
2 4 0 o 0.974 0.969 180.00 1.15539 0.29
0 2 4 o 0.637 0.591 180.00 1.14923 0.19
4 1 1 o 0.037 0.034 180.00 1.14841 0.01
1 4 -2 o 0.799 0.731 0.00 1.14753 0.23
3 3 1 o 0.007 0.007 0.00 1.14521 0.00
2 3 -3 o 7.504 7.246 0.00 1.14195 2.14
2 4 -1 o 2.215 2.077 180.00 1.14350 0.63
3 3 -2 o 4.114 4.428 180.00 1.13535 1.15
4 2 -1 o 1.378 1.504 0.00 1.13302 0.38
4 2 0 o 3.116 3.552 0.00 1.12812 0.85
1 4 2 o 4.375 4.382 180.00 1.11504 1.13
2 4 1 o 2.999 3.003 0.00 1.11134 0.77
2 2 -4 o 8.311 8.877 180.00 1.09967 2.04
3 0 -4 o 11.218 11.880 0.00 1.09490 1.35
3 1 3 o 8.606 8.901 180.00 1.09111 2.04
1 2 4 o 15.474 15.789 0.00 1.08982 3.66
4 2 -2 o 2.332 2.251 180.00 1.08567 0.54
2 4 -2 o 26.808 24.818 0.00 1.08043 6.12
2 0 4 o 9.170 8.469 180.00 1.07885 1.04
3 1 -4 o 4.088 3.723 0.00 1.07150 0.90
4 2 1 o 7.594 6.941 180.00 1.07287 1.69
4 1 -3 o 2.972 2.798 180.00 1.06388 0.64
4 0 2 o 0.246 0.229 180.00 1.06562 0.03
2 1 4 o 8.944 8.438 180.00 1.05643 1.87
2 3 3 o 7.321 6.839 0.00 1.05319 1.51
3 3 2 o 10.875 9.690 180.00 1.04800 2.20
4 1 2 o 3.773 3.175 180.00 1.04401 0.75
3 3 -3 o 0.012 0.010 180.00 1.03547 0.00
0 4 3 o 3.665 3.134 0.00 1.03555 0.71
1 3 -4 o 0.000 0.000 0.00 1.03342 0.00
1 4 -3 o 1.543 1.355 0.00 1.03212 0.29
0 3 4 o 1.133 0.998 0.00 1.03067 0.21
2 4 2 o 6.927 6.111 0.00 1.02790 1.30
3 4 0 o 0.110 0.097 180.00 1.02673 0.02
3 2 3 o 2.547 2.252 0.00 1.02571 0.47
3 4 -1 o 5.895 5.210 0.00 1.02434 1.09
0 5 1 o 0.437 0.383 180.00 1.02103 0.08
4 3 -1 o 15.850 13.801 0.00 1.01893 2.86
1 5 0 o 0.517 0.451 180.00 1.02008 0.09
1 1 -5 o 4.358 3.867 0.00 1.01358 0.77
4 3 0 o 0.066 0.058 0.00 1.01535 0.01
3 2 -4 o 13.326 12.400 0.00 1.00936 2.32
0 1 5 o 13.568 13.091 0.00 1.00523 2.32
4 2 -3 o 2.425 2.370 0.00 1.00299 0.41
1 5 -1 o 3.088 2.964 0.00 1.00610 0.53
5 0 0 o 11.964 11.796 180.00 1.00126 1.01
2 2 4 o 7.630 7.685 180.00 0.99674 1.26
1 4 3 o 1.662 1.673 0.00 0.99697 0.28
2 3 -4 o 10.766 10.871 0.00 0.99446 1.76
1 5 1 o 0.990 1.001 180.00 0.99486 0.16
5 1 -1 o 0.029 0.029 0.00 0.99195 0.00
3 4 1 o 0.123 0.120 0.00 0.98996 0.02
2 4 -3 o 0.008 0.008 180.00 0.98785 0.00
1 3 4 o 10.669 10.321 180.00 0.98716 1.70
4 2 2 o 9.069 8.774 180.00 0.98628 1.44
2 1 -5 o 2.509 2.432 180.00 0.98202 0.39
4 3 -2 o 22.332 21.661 0.00 0.98408 3.51
3 4 -2 o 1.285 1.246 180.00 0.98357 0.20
5 1 0 o 0.744 0.722 0.00 0.98327 0.12
5 0 -2 o 10.675 10.341 0.00 0.98168 0.83
4 3 1 o 3.959 3.759 180.00 0.97451 0.60
5 1 -2 o 14.988 16.677 0.00 0.96471 2.18
4 0 -4 o 6.832 7.552 0.00 0.96739 0.50
0 5 2 o 8.465 9.444 180.00 0.96513 1.23
1 2 -5 o 1.219 1.310 180.00 0.96051 0.17
1 1 5 o 0.190 0.204 180.00 0.95975 0.03
2 5 0 o 1.438 1.562 0.00 0.96193 0.21
1 5 -2 o 9.163 9.966 0.00 0.95738 1.29
0 2 5 o 1.845 2.075 180.00 0.95340 0.26
2 5 -1 o 0.558 0.623 180.00 0.95504 0.08
4 1 -4 o 9.979 10.949 180.00 0.95113 1.37
3 0 4 o 15.558 17.307 180.00 0.95192 1.07
5 2 -1 o 0.006 0.006 180.00 0.94204 0.00
5 1 1 o 4.800 4.633 180.00 0.94132 0.63
3 3 3 o 2.467 2.440 180.00 0.93876 0.32
1 5 2 o 1.515 1.510 0.00 0.93827 0.20
3 1 4 o 8.040 8.280 0.00 0.93642 1.04
2 2 -5 o 0.771 0.839 180.00 0.93352 0.10
2 5 1 o 0.917 0.951 180.00 0.93606 0.12
5 2 0 o 3.024 3.226 180.00 0.93460 0.39
4 1 3 o 0.000 0.000 180.00 0.93132 0.00
2 4 3 o 7.524 8.913 180.00 0.92869 0.94
3 3 -4 o 1.373 1.667 180.00 0.92618 0.17
3 4 2 o 4.257 5.192 180.00 0.92513 0.52
3 1 -5 o 1.345 1.588 0.00 0.92045 0.16
4 3 -3 o 9.478 11.335 180.00 0.92125 1.14
5 2 -2 o 3.888 4.440 0.00 0.91861 0.46
3 4 -3 o 5.629 6.240 180.00 0.91648 0.67
2 5 -2 o 10.289 11.528 180.00 0.91737 1.22
2 3 4 o 0.072 0.080 0.00 0.91640 0.01
1 4 -4 o 17.935 19.675 180.00 0.91505 2.11
1 2 5 o 9.008 9.857 180.00 0.91433 1.06
0 4 4 o 9.575 10.477 0.00 0.91314 1.12
5 1 -3 o 1.485 1.651 0.00 0.90949 0.17
4 2 -4 o 1.886 2.076 180.00 0.90687 0.21
4 3 2 o 6.183 6.879 0.00 0.90825 0.71
4 4 -1 o 0.583 0.616 0.00 0.90495 0.07
4 4 0 o 7.202 7.022 0.00 0.90244 0.80
5 2 1 o 3.450 3.157 180.00 0.89836 0.38
3 2 4 o 0.042 0.041 180.00 0.89409 0.00
2 1 5 o 4.945 4.983 180.00 0.89035 0.52
5 0 2 o 12.807 12.910 0.00 0.89010 0.67
1 3 -5 o 4.049 4.088 180.00 0.88801 0.42
4 2 3 o 12.677 12.783 0.00 0.88965 1.33
0 5 3 o 0.708 0.714 180.00 0.88942 0.07
2 4 -4 o 0.008 0.008 180.00 0.88768 0.00
1 5 -3 o 0.123 0.124 0.00 0.88724 0.01
2 5 2 o 9.581 9.782 180.00 0.88455 0.98
0 3 5 o 0.474 0.489 0.00 0.88238 0.05
3 5 0 o 37.254 38.154 0.00 0.88381 3.81
1 4 4 o 0.450 0.464 0.00 0.88248 0.05
3 2 -5 o 0.642 0.664 180.00 0.88016 0.06
3 5 -1 o 0.002 0.002 0.00 0.88228 0.00
4 4 -2 o 0.308 0.319 0.00 0.88027 0.03
5 1 2 o 4.498 4.679 0.00 0.87739 0.45
5 3 -1 o 6.786 7.404 0.00 0.87335 0.66
4 4 1 o 2.999 3.269 180.00 0.87340 0.29
5 2 -3 o 1.934 2.143 0.00 0.87056 0.19
2 3 -5 o 11.532 12.018 180.00 0.86655 1.09
5 3 0 o 14.015 14.847 180.00 0.86741 1.33
0 6 0 o 0.061 0.066 180.00 0.86828 0.00
1 0 -6 o 2.220 2.170 0.00 0.86241 0.10
1 5 3 o 4.158 4.191 0.00 0.86461 0.39
2 5 -3 o 0.319 0.303 0.00 0.85864 0.03
0 0 6 o 14.088 13.604 0.00 0.85374 0.63
3 5 -2 o 1.194 1.146 180.00 0.85583 0.11
5 3 -2 o 0.509 0.491 180.00 0.85459 0.05
3 5 1 o 0.729 0.696 0.00 0.86003 0.07
0 6 1 o 18.070 17.319 180.00 0.85607 1.63
2 2 5 o 1.527 1.474 180.00 0.85373 0.14
1 6 0 o 9.130 8.772 0.00 0.85551 0.82
1 1 -6 o 2.753 2.620 180.00 0.85083 0.24
5 0 -4 o 2.009 1.906 180.00 0.85041 0.09
1 3 5 o 5.108 4.874 180.00 0.85113 0.45
2 0 -6 o 1.710 1.589 0.00 0.84610 0.07
3 4 3 o 0.934 0.874 180.00 0.84739 0.08
4 3 -4 o 0.011 0.010 180.00 0.84511 0.00
4 1 -5 o 6.932 6.287 0.00 0.84410 0.59
1 6 -1 o 0.263 0.246 0.00 0.84722 0.02
0 1 6 o 0.226 0.201 180.00 0.84250 0.02
5 2 2 o 0.198 0.175 180.00 0.84229 0.02
5 1 -4 o 1.092 0.979 0.00 0.83931 0.09
1 6 1 o 2.894 2.558 180.00 0.84047 0.24
3 4 -4 o 3.586 3.283 180.00 0.83810 0.30
5 3 1 o 4.018 3.671 180.00 0.83820 0.33
2 1 -6 o 9.644 9.164 180.00 0.83516 0.79
4 0 4 o 0.341 0.318 0.00 0.83690 0.01
4 4 -3 o 2.345 2.232 180.00 0.83444 0.19
3 3 4 o 0.241 0.230 180.00 0.83473 0.02
6 0 0 o 25.343 24.129 180.00 0.83439 1.03
6 1 -1 o 9.550 8.961 180.00 0.83219 0.77
4 3 3 o 0.473 0.438 180.00 0.83112 0.04
2 4 4 o 3.531 3.259 0.00 0.83083 0.28
6 0 -2 o 0.723 0.657 0.00 0.82928 0.03
4 1 4 o 0.990 0.897 180.00 0.82630 0.08
3 3 -5 o 1.044 0.988 180.00 0.82336 0.08
4 4 2 o 13.403 12.371 180.00 0.82474 1.04
6 1 0 o 2.077 1.947 180.00 0.82389 0.16
1 0 6 o 4.544 4.377 180.00 0.82221 0.17
0 6 2 o 11.548 11.111 180.00 0.82231 0.88
1 2 -6 o 20.202 19.225 0.00 0.81871 1.52
6 1 -2 o 1.756 1.678 180.00 0.81897 0.13
2 6 0 o 2.033 1.970 180.00 0.82033 0.15
2 5 3 o 0.248 0.237 0.00 0.81894 0.02
1 6 -2 o 1.312 1.222 0.00 0.81751 0.10
5 3 -3 o 4.139 3.739 180.00 0.81549 0.31
3 5 2 o 4.095 3.746 180.00 0.81650 0.31
2 6 -1 o 0.112 0.102 180.00 0.81604 0.01
4 2 -5 o 5.693 5.186 180.00 0.81271 0.42
1 1 6 o 3.178 2.915 0.00 0.81215 0.23
0 2 6 o 7.074 6.566 180.00 0.81128 0.51
3 1 5 o 1.545 1.423 0.00 0.81188 0.11
3 0 -6 o 30.270 28.711 180.00 0.80871 1.08
3 5 -3 o 0.410 0.384 0.00 0.81053 0.03
1 4 -5 o 4.749 4.489 180.00 0.80950 0.34
5 2 -4 o 6.776 6.428 180.00 0.80842 0.49
1 5 -4 o 7.719 7.296 180.00 0.80954 0.56
0 5 4 o 14.078 13.358 0.00 0.80822 1.01
2 2 -6 o 7.422 6.825 180.00 0.80471 0.52
0 4 5 o 0.144 0.133 180.00 0.80523 0.01
1 6 2 o 2.074 1.928 0.00 0.80551 0.15
5 1 3 o 13.320 12.193 0.00 0.80434 0.93
2 6 1 o 9.750 8.896 0.00 0.80411 0.68
6 2 -1 o 3.372 2.986 0.00 0.80206 0.23
4 5 -1 o 1.873 1.670 0.00 0.80252 0.13
2 3 5 o 2.313 2.036 180.00 0.80161 0.16
3 1 -6 o 0.058 0.050 0.00 0.79914 0.00
4 5 0 o 3.244 2.825 180.00 0.80077 0.22
5 4 -1 o 3.949 3.381 180.00 0.79835 0.27
4 2 4 o 9.176 7.897 0.00 0.79678 0.62
6 1 1 o 1.745 1.515 0.00 0.79589 0.12
6 2 0 o 0.041 0.037 0.00 0.79462 0.00
2 4 -5 o 0.048 0.044 0.00 0.79314 0.00
5 4 0 o 1.035 0.929 0.00 0.79380 0.07
5 3 2 o 0.526 0.489 180.00 0.79211 0.03
2 6 -2 o 7.259 6.738 180.00 0.79217 0.48
6 2 -2 o 0.822 0.800 0.00 0.79020 0.05
2 5 -4 o 0.026 0.026 0.00 0.79040 0.00
6 1 -3 o 15.097 15.687 0.00 0.78710 0.97
1 5 4 o 1.430 1.488 0.00 0.78672 0.09
1 2 6 o 1.356 1.371 180.00 0.78407 0.09
4 5 -2 o 3.009 3.094 180.00 0.78516 0.19
5 4 -2 o 1.873 1.890 0.00 0.78394 0.12
3 2 5 o 1.544 1.555 180.00 0.78383 0.10
1 4 5 o 0.663 0.654 180.00 0.78127 0.04
4 5 1 o 0.667 0.664 180.00 0.78027 0.04
4 4 -4 o 1.235 1.283 180.00 0.77660 0.08
5 2 3 o 1.608 1.668 0.00 0.77703 0.10
2 0 6 o 15.712 16.024 0.00 0.77468 0.47
3 2 -6 o 0.095 0.090 180.00 0.77235 0.01
1 3 -6 o 1.080 1.032 180.00 0.77241 0.06
0 6 3 o 6.646 6.656 0.00 0.77396 0.40
1 6 -3 o 0.455 0.437 0.00 0.77252 0.03
5 4 1 o 6.554 6.093 0.00 0.77123 0.39
2 6 2 o 0.239 0.221 180.00 0.77075 0.01
3 6 0 o 1.676 1.538 0.00 0.77026 0.10
6 2 1 o 0.767 0.702 180.00 0.76941 0.05
4 3 -5 o 4.473 4.222 0.00 0.76736 0.26
3 6 -1 o 3.739 3.426 0.00 0.76925 0.22
3 4 4 o 0.402 0.371 0.00 0.76853 0.02
5 1 -5 o 3.319 3.274 180.00 0.76551 0.19
0 3 6 o 0.144 0.140 180.00 0.76616 0.01
2 1 6 o 4.403 4.275 180.00 0.76626 0.25
4 4 3 o 0.565 0.555 0.00 0.76570 0.03
5 3 -4 o 6.346 6.396 180.00 0.76375 0.36
6 2 -3 o 0.241 0.245 180.00 0.76146 0.01
2 3 -6 o 3.652 3.701 180.00 0.76062 0.20
6 0 2 o 6.238 6.336 0.00 0.76172 0.18
3 5 3 o 0.455 0.462 180.00 0.76156 0.03
3 4 -5 o 10.108 10.173 0.00 0.75963 0.56
4 0 -6 o 0.346 0.341 0.00 0.75789 0.01
6 3 -1 o 1.646 1.632 180.00 0.75838 0.09
5 4 -3 o 6.101 5.873 0.00 0.75344 0.33
4 3 4 o 11.453 11.006 0.00 0.75391 0.62
6 1 2 o 10.576 10.171 180.00 0.75370 0.57
3 6 1 o 0.334 0.320 180.00 0.75436 0.02
2 6 -3 o 0.005 0.005 180.00 0.75343 0.00
1 6 3 o 0.482 0.472 0.00 0.75745 0.03
4 5 -3 o 2.981 2.893 180.00 0.75212 0.16
4 1 -6 o 4.507 4.477 180.00 0.74999 0.24
6 3 0 o 10.383 10.079 0.00 0.75208 0.56
6 0 -4 o 0.448 0.444 0.00 0.75022 0.01
3 5 -4 o 2.177 2.091 0.00 0.75479 0.12
3 6 -2 o 0.035 0.034 180.00 0.75152 0.00
2 5 4 o 5.752 5.781 180.00 0.74947 0.30
6 3 -2 o 0.971 1.009 0.00 0.74833 0.05
4 5 2 o 4.042 4.747 180.00 0.74499 0.21
6 1 -4 o 7.871 9.936 180.00 0.74256 0.40
1 3 6 o 0.726 0.903 180.00 0.74312 0.04
5 2 -5 o 7.908 10.137 180.00 0.74186 0.40
2 2 6 o 0.215 0.271 180.00 0.74254 0.01
3 3 5 o 4.536 5.674 0.00 0.74292 0.23
2 4 5 o 2.271 2.874 0.00 0.74245 0.12
5 0 4 o 0.285 0.369 0.00 0.73887 0.01
5 3 3 o 0.660 0.838 0.00 0.73712 0.03
0 7 1 o 2.395 3.020 0.00 0.73651 0.12
1 7 0 o 8.400 10.546 180.00 0.73615 0.41
3 3 -6 o 1.870 2.273 180.00 0.73311 0.09
4 1 5 o 0.089 0.110 0.00 0.73472 0.00
5 4 2 o 0.455 0.563 180.00 0.73488 0.02
1 5 -5 o 0.047 0.057 0.00 0.73370 0.00
1 1 -7 o 0.014 0.017 0.00 0.73214 0.00
5 1 4 o 6.952 8.310 0.00 0.73155 0.33
6 2 2 o 8.523 10.135 0.00 0.73110 0.41
0 5 5 o 0.002 0.003 180.00 0.73051 0.00
6 3 1 o 2.920 3.450 0.00 0.73060 0.14
1 7 -1 o 1.081 1.282 180.00 0.73085 0.05
4 2 -6 o 0.318 0.372 0.00 0.72771 0.01
2 1 -7 o 0.680 0.769 0.00 0.72420 0.03
0 1 7 o 7.285 8.357 180.00 0.72466 0.34
2 6 3 o 7.471 8.774 180.00 0.72617 0.35
1 7 1 o 0.917 1.078 0.00 0.72650 0.04
5 5 -1 o 0.738 0.859 0.00 0.72537 0.03
6 3 -3 o 0.002 0.003 0.00 0.72378 0.00
3 6 2 o 2.545 2.904 0.00 0.72447 0.12
6 2 -4 o 2.155 2.176 0.00 0.72092 0.10
2 5 -5 o 4.601 4.722 180.00 0.72146 0.21
5 5 0 o 1.852 1.932 0.00 0.72195 0.08
3 6 -3 o 22.337 22.191 180.00 0.72029 1.01
1 4 -6 o 1.879 1.827 180.00 0.71906 0.08
3 0 6 o 10.458 10.191 0.00 0.71923 0.23
1 6 -4 o 4.145 4.060 0.00 0.71960 0.19
0 6 4 o 3.492 3.378 180.00 0.71867 0.16
7 0 -2 o 0.825 0.789 0.00 0.71605 0.02
7 1 -1 o 0.293 0.280 180.00 0.71585 0.01
4 4 -5 o 0.064 0.061 180.00 0.71499 0.00
7 0 0 o 5.000 4.767 0.00 0.71519 0.11
0 4 6 o 0.046 0.044 0.00 0.71401 0.00
5 5 -2 o 0.465 0.443 0.00 0.71451 0.02
4 6 -1 o 5.242 4.990 0.00 0.71465 0.23
0 7 2 o 1.336 1.272 180.00 0.71468 0.06
4 2 5 o 3.152 3.000 180.00 0.71373 0.14
1 2 -7 o 0.256 0.244 180.00 0.71136 0.01
5 4 -4 o 8.712 8.304 180.00 0.71206 0.38
3 1 6 o 0.202 0.193 0.00 0.71247 0.01
4 6 0 o 0.274 0.260 180.00 0.71341 0.01
1 5 5 o 0.078 0.074 180.00 0.71249 0.00
2 7 0 o 5.153 4.904 0.00 0.71338 0.22
2 4 -6 o 3.031 2.869 0.00 0.70952 0.13
1 7 -2 o 2.973 2.832 0.00 0.71152 0.13
5 2 4 o 0.066 0.063 180.00 0.71082 0.00
7 1 -2 o 4.724 4.468 0.00 0.70938 0.20
2 7 -1 o 0.252 0.240 180.00 0.71055 0.01
4 5 -4 o 13.177 12.438 180.00 0.70894 0.56
7 1 0 o 6.018 5.670 0.00 0.70854 0.25
5 3 -5 o 0.011 0.010 180.00 0.70689 0.00
2 3 6 o 9.545 8.967 0.00 0.70748 0.40
6 4 -1 o 4.178 3.927 180.00 0.70770 0.18
2 6 -4 o 0.930 0.873 180.00 0.70605 0.04
2 2 -7 o 1.617 1.518 180.00 0.70408 0.07
0 2 7 o 4.096 3.846 0.00 0.70450 0.17
3 1 -7 o 8.423 7.876 180.00 0.70227 0.34
1 1 7 o 0.259 0.243 0.00 0.70312 0.01
5 5 1 o 1.427 1.340 180.00 0.70485 0.06
4 4 4 o 8.895 8.343 0.00 0.70407 0.37
6 1 3 o 0.773 0.725 0.00 0.70390 0.03
5 0 -6 o 0.293 0.273 180.00 0.70140 0.01
1 6 4 o 1.757 1.647 0.00 0.70343 0.07
1 7 2 o 2.294 2.149 0.00 0.70357 0.09
3 5 4 o 15.634 14.625 0.00 0.70278 0.64
6 4 0 o 0.004 0.004 180.00 0.70258 0.00
4 6 -2 o 1.488 1.390 180.00 0.70231 0.06
2 7 1 o 8.063 7.537 0.00 0.70263 0.33
4 5 3 o 0.055 0.051 180.00 0.70062 0.00
