#------------------------------------------------------------------------------
#$Date: 2019-08-01 07:03:08 +0300 (Thu, 01 Aug 2019) $
#$Revision: 217345 $
#$URL: file:///home/coder/svn-repositories/cod/cif/2/10/84/2108451.cif $
#------------------------------------------------------------------------------
#
# This file is available in the Crystallography Open Database (COD),
# http://www.crystallography.net/. The original data for this entry
# were provided by IUCr Journals, http://journals.iucr.org/.
#
# The file may be used within the scientific community so long as
# proper attribution is given to the journal article from which the
# data were obtained.
#
data_2108451
loop_
_publ_author_name
'Fukui, Hiroshi'
'Fujimoto, Manato'
'Akahama, Yuichi'
'Sano-Furukawa, Asami'
'Hattori, Takanori'
_publ_section_title
;
 Structure change of monoclinic ZrO~2~ baddeleyite involving softenings of
 bulk modulus and atom vibrations
;
_journal_issue                   4
_journal_name_full               'Acta Crystallographica Section B'
_journal_page_first
;
;
_journal_paper_doi               10.1107/S2052520619007923
_journal_volume                  75
_journal_year                    2019
_chemical_formula_sum            'O2 Zr'
_chemical_formula_weight         123.22
_space_group_IT_number           14
_space_group_name_Hall           '-P 2ybc'
_space_group_name_H-M_alt        'P 1 21/c 1'
_symmetry_cell_setting           monoclinic
_symmetry_space_group_name_Hall  '-P 2ybc'
_symmetry_space_group_name_H-M   'P 1 21/c 1'
_audit_creation_date             2019-05-07T13:13
_audit_creation_method           'from EXP file using GSAS2CIF'
_audit_update_record
' 2019-05-07T13:13  Initial CIF as created by GSAS2CIF'
_cell_angle_alpha                90.0
_cell_angle_beta                 99.1726(33)
_cell_angle_gamma                90.0
_cell_formula_units_Z            4
_cell_length_a                   5.14204(19)
_cell_length_b                   5.20869(21)
_cell_length_c                   5.30989(21)
_cell_volume                     140.398(10)
_computing_structure_refinement  GSAS
_diffrn_radiation_probe          neutron
_exptl_absorpt_correction_T_max  1.00000
_exptl_absorpt_correction_T_min  1.00000
_exptl_absorpt_process_details
;   GSAS Absorption/surface roughness correction: function number 0
 No correction is applied.
;
_pd_block_id                     2019-05-07T13:13|034758|FUKUI,_Hiroshi|PLANET
_pd_calc_method                  'Rietveld Refinement'
_pd_instr_location               ' ?'
_pd_meas_2theta_fixed            90.00
_pd_meas_number_of_points        3712
_pd_phase_name                   'from Z:/2017A/Fukui/gsas034744/34744.EXP'
_pd_proc_info_datetime           2019-05-07T13:13:38
_pd_proc_info_excluded_regions   ' ?'
_pd_proc_ls_background_function
;   GSAS Background function number 1 with 10 terms.
 Shifted Chebyshev function of 1st kind
      1:   0.224270     2:   8.176580E-02 3:   2.663380E-02 4:   1.104520E-02
      5:  -2.699160E-03 6:   3.827990E-03 7:  -5.643760E-03 8:   1.322710E-03
      9:  -3.198850E-0310:  -3.310250E-04
;
_pd_proc_ls_peak_cutoff          0.00100
_pd_proc_ls_profile_function
;
 TOF Profile function number 3 with  21 terms
 Profile coefficients for exponential pseudovoigt
  convolution Von Dreele, 1990 (unpublished)
 #1 (alp  ) = ******** #2 (bet-0) = 0.015258 #3 (bet-1) = 0.731691
 #4 (sig-0) =      2.8 #5 (sig-1) =    400.9 #6 (sig-2) =     99.5
 #7 (gam-0) =     0.00 #8 (gam-1) =    24.45 #9 (gam-2) =     0.93
 #10(gsf  ) =     0.00 #11(g1ec ) =     0.00 #12(g2ec ) =     0.00
 #13(rstr ) =    0.000 #14(rsta ) =    0.000 #15(rsca ) =    0.000
 #16(L11)   =    0.000 #17(L22)   =    0.000 #18(L33)   =    0.000
 #19(L12)   =    0.000 #20(L13)   =    0.000 #21(L23)   =    0.000
 Peak tails are ignored  where the intensity is below 0.0010 times the peak
   Aniso. broadening axis   0.0   0.0   1.0
;
_pd_proc_ls_prof_R_factor        0.0168
_pd_proc_ls_prof_wR_expected     0.0148
_pd_proc_ls_prof_wR_factor       0.0186
_pd_proc_number_of_points        3712
_pd_spec_mounting                ' ?'
_refine_ls_goodness_of_fit_all   1.27
_refine_ls_matrix_type           full
_refine_ls_number_parameters     27
_refine_ls_number_restraints     0
_refine_ls_R_Fsqd_factor         0.11471
_refine_ls_shift/su_max          0.03
_refine_ls_shift/su_mean         0.01
_reflns_d_resolution_high        0.700
_reflns_d_resolution_low         3.161
_reflns_limit_h_max              7
_reflns_limit_h_min              0
_reflns_limit_k_max              8
_reflns_limit_k_min              0
_reflns_limit_l_max              8
_reflns_limit_l_min              -8
_reflns_number_total             432
_cod_data_source_file            xk5055sup1.cif
_cod_data_source_block           34758
_cod_depositor_comments
;
The following automatic conversions were performed:

'_geom_bond_publ_flag' value 'N' changed to 'n' according to
/home/data/users/saulius/crontab/automatic-downloads/rss-feeds/IUCr/lib/dictionaries/cif_core.dic
dictionary named 'cif_core.dic' version 2.4.2 from 2011-04-26 (21
time).

'_geom_angle_publ_flag' value 'N' changed to 'n' according to
/home/data/users/saulius/crontab/automatic-downloads/rss-feeds/IUCr/lib/dictionaries/cif_core.dic
dictionary named 'cif_core.dic' version 2.4.2 from 2011-04-26 (30
times).

Automatic conversion script
Id: cif_fix_values 4973 2017-02-22 13:04:09Z antanas 
;
_cod_original_cell_volume        140.398(7)
_cod_database_code               2108451
_gsas_exptl_extinct_corr_t_min   1.00000
_gsas_exptl_extinct_corr_t_max   1.00000
loop_
_symmetry_equiv_pos_site_id
_symmetry_equiv_pos_as_xyz
1 +x,+y,+z
2 -x,+y+1/2,-z+1/2
-1 -x,-y,-z
-2 +x,-y+1/2,+z+1/2
loop_
_atom_site_type_symbol
_atom_site_label
_atom_site_fract_x
_atom_site_fract_y
_atom_site_fract_z
_atom_site_occupancy
_atom_site_thermal_displace_type
_atom_site_U_iso_or_equiv
_atom_site_symmetry_multiplicity
Zr Zr 0.2751(4) 0.0386(4) 0.2090(4) 1.0 Uiso 0.00204 4
O O1 0.0734(5) 0.3354(4) 0.3421(4) 1.0 Uiso 0.00363 4
O O 0.4506(4) 0.7581(5) 0.4795(4) 1.0 Uiso 0.00101 4
loop_
_atom_type_symbol
_atom_type_number_in_cell
_atom_type_scat_length_neutron
_atom_type_scat_source
Zr 4.0 0.7160 International_Tables_Vol_C
O 8.0 0.5803 International_Tables_Vol_C
loop_
_geom_angle_atom_site_label_1
_geom_angle_atom_site_label_2
_geom_angle_atom_site_label_3
_geom_angle
_geom_angle_site_symmetry_1
_geom_angle_site_symmetry_3
_geom_angle_publ_flag
O1 Zr O1 87.45(9) 1_555 2_545 n
O1 Zr O1 83.40(10) 1_555 -2_565 n
O1 Zr O2 117.71(13) 1_555 1_545 n
O1 Zr O2 99.39(13) 1_555 2_645 n
O1 Zr O2 71.66(13) 1_555 -1_666 n
O1 Zr O2 167.45(15) 1_555 -2_565 n
O1 Zr O1 75.80(11) 2_545 -2_565 n
O1 Zr O2 90.13(11) 2_545 1_545 n
O1 Zr O2 145.25(12) 2_545 2_645 n
O1 Zr O2 139.92(11) 2_545 -1_666 n
O1 Zr O2 89.49(12) 2_545 -2_565 n
O1 Zr O2 154.43(11) -2_565 1_545 n
O1 Zr O2 71.28(11) -2_565 2_645 n
O1 Zr O2 132.28(10) -2_565 -1_666 n
O1 Zr O2 84.04(11) -2_565 -2_565 n
O2 Zr O2 115.54(11) 1_545 2_645 n
O2 Zr O2 71.45(12) 1_545 -1_666 n
O2 Zr O2 74.44(8) 1_545 -2_565 n
O2 Zr O2 73.51(8) 2_645 -1_666 n
O2 Zr O2 76.48(10) 2_645 -2_565 n
O2 Zr O2 117.52(11) -1_666 -2_565 n
Zr O1 Zr 145.01(14) 1_555 2_555 n
Zr O1 Zr 110.10(15) 1_555 -2_555 n
Zr O1 Zr 104.20(11) 2_555 -2_555 n
Zr O2 Zr 106.48(12) 1_565 2_655 n
Zr O2 Zr 108.55(12) 1_565 -1_666 n
Zr O2 Zr 132.08(16) 1_565 -2_555 n
Zr O2 Zr 101.99(11) 2_655 -1_666 n
Zr O2 Zr 103.52(10) 2_655 -2_555 n
Zr O2 Zr 100.57(9) -1_666 -2_555 n
loop_
_geom_bond_atom_site_label_1
_geom_bond_atom_site_label_2
_geom_bond_distance
_geom_bond_site_symmetry_2
_geom_bond_publ_flag
Zr Zr 3.4641(27) 2_645 n
Zr Zr 3.4641(27) 2_655 n
Zr Zr 3.330(4) -1_555 n
Zr Zr 3.475(4) -1_655 n
Zr Zr 3.575(4) -1_656 n
Zr Zr 3.4491(25) -2_554 n
Zr Zr 3.4491(25) -2_555 n
Zr O1 2.049(4) 1_555 n
Zr O1 2.0615(30) 2_545 n
Zr O1 2.1582(35) -2_554 n
Zr O2 2.1447(30) 1_545 n
Zr O2 2.1791(30) 2_645 n
Zr O2 2.2588(34) -1_666 n
Zr O2 2.245(4) -2_554 n
O1 Zr 2.049(4) 1_555 n
O1 Zr 2.0615(30) 2_555 n
O1 Zr 2.1582(35) -2_555 n
O2 Zr 2.1447(30) 1_565 n
O2 Zr 2.1791(30) 2_655 n
O2 Zr 2.2588(34) -1_666 n
O2 Zr 2.245(4) -2_555 n
loop_
_pd_meas_time_of_flight
_pd_proc_d_spacing
_pd_meas_intensity_total
_pd_proc_ls_weight
_pd_proc_intensity_bkg_calc
_pd_calc_intensity_total
2855.00 . 0.1603(22) . . .
2865.00 . 0.1593(22) . . .
2875.00 . 0.1568(22) . . .
2885.00 . 0.1589(22) . . .
2895.00 . 0.1590(22) . . .
2905.00 . 0.1578(22) . . .
2915.00 . 0.1558(21) . . .
2925.00 . 0.1608(22) . . .
2935.00 . 0.1536(21) . . .
2945.00 . 0.1555(21) . . .
2955.00 . 0.1569(21) . . .
2965.00 . 0.1484(21) . . .
2975.00 . 0.1532(21) . . .
2985.00 . 0.1546(21) . . .
2995.00 . 0.1549(21) . . .
3005.00 . 0.1556(21) . . .
3015.00 . 0.1521(20) . . .
3025.00 . 0.1494(20) . . .
3035.00 . 0.1479(20) . . .
3045.00 . 0.1554(20) . . .
3055.00 . 0.1557(20) . . .
3065.00 . 0.1557(20) . . .
3075.00 . 0.1517(20) . . .
3085.00 . 0.1522(20) . . .
3095.00 . 0.1481(20) . . .
3105.00 . 0.1494(20) . . .
3115.00 . 0.1484(20) . . .
3125.00 . 0.1483(19) . . .
3135.00 . 0.1558(20) . . .
3145.00 . 0.1550(20) . . .
3155.00 . 0.1554(20) . . .
3165.00 . 0.1540(19) . . .
3175.00 . 0.1509(19) . . .
3185.00 . 0.1511(19) . . .
3195.00 . 0.1465(19) . . .
3205.00 . 0.1504(19) . . .
3215.00 . 0.1466(19) . . .
3225.00 . 0.1460(19) . . .
3235.00 . 0.1474(19) . . .
3245.00 . 0.1520(19) . . .
3255.00 . 0.1519(19) . . .
3265.00 . 0.1511(19) . . .
3275.00 . 0.1490(19) . . .
3285.00 . 0.1514(19) . . .
3295.00 . 0.1520(19) . . .
3305.00 . 0.1532(19) . . .
3315.00 . 0.1520(19) . . .
3325.00 . 0.1467(18) . . .
3335.00 . 0.1477(18) . . .
3345.00 . 0.1499(18) . . .
3355.00 . 0.1483(18) . . .
3365.00 . 0.1546(18) . . .
3375.00 . 0.1535(18) . . .
3385.00 . 0.1512(18) . . .
3395.00 . 0.1490(18) . . .
3405.00 . 0.1439(18) . . .
3415.00 . 0.1382(18) . . .
3425.00 . 0.1429(18) . . .
3435.00 . 0.1426(18) . . .
3445.00 . 0.1417(18) . . .
3455.00 . 0.1387(17) . . .
3465.00 . 0.1358(17) . . .
3475.00 . 0.1364(17) . . .
3485.00 . 0.1329(17) . . .
3495.00 . 0.1339(17) . . .
3505.00 . 0.1350(17) . . .
3515.0 . 0.1373(17) . . .
3525.0 . 0.1377(17) . . .
3535.0 . 0.1327(17) . . .
3545.0 . 0.1363(17) . . .
3555.0 . 0.1365(17) . . .
3565.0 . 0.1368(17) . . .
3575.0 . 0.1398(17) . . .
3585.0 . 0.1438(17) . . .
3595.0 . 0.1414(17) . . .
3605.0 . 0.1371(17) . . .
3615.0 . 0.1357(16) . . .
3625.0 . 0.1362(16) . . .
3635.0 . 0.1413(17) . . .
3645.0 . 0.1391(16) . . .
3655.0 . 0.1403(16) . . .
3665.0 . 0.1384(16) . . .
3675.0 . 0.1404(16) . . .
3685.0 . 0.1382(16) . . .
3695.0 . 0.1388(16) . . .
3705.0 . 0.1385(16) . . .
3715.0 . 0.1394(16) . . .
3725.0 . 0.1402(16) . . .
3735.0 . 0.1430(16) . . .
3745.0 . 0.1460(16) . . .
3755.0 . 0.1469(16) . . .
3765.0 . 0.1430(16) . . .
3775.0 . 0.1412(16) . . .
3785.0 . 0.1393(16) . . .
3795.0 . 0.1403(16) . . .
3805.0 . 0.1437(16) . . .
3815.0 . 0.1434(16) . . .
3825.0 . 0.1459(16) . . .
3835.0 . 0.1459(16) . . .
3845.0 . 0.1476(16) . . .
3855.0 . 0.1476(16) . . .
3865.0 . 0.1448(16) . . .
3875.0 . 0.1446(16) . . .
3885.0 . 0.1415(16) . . .
3895.0 . 0.1415(16) . . .
3905.0 . 0.1447(16) . . .
3915.0 . 0.1432(16) . . .
3925.0 . 0.1433(16) . . .
3935.0 . 0.1342(15) . . .
3945.0 . 0.1404(15) . . .
3955.0 . 0.1406(15) . . .
3965.0 . 0.1425(15) . . .
3975.0 . 0.1447(15) . . .
3985.0 . 0.1482(16) . . .
3995.0 . 0.1458(15) . . .
4005.0 . 0.1426(15) . . .
4015.0 . 0.1429(15) . . .
4025.0 . 0.1421(15) . . .
4035.0 . 0.1455(15) . . .
4045.0 . 0.1487(15) . . .
4055.0 . 0.1497(16) . . .
4065.0 . 0.1453(15) . . .
4075.0 . 0.1403(15) . . .
4085.0 . 0.1449(15) . . .
4095.0 . 0.1416(15) . . .
4105.0 . 0.1422(15) . . .
4115.0 . 0.1446(15) . . .
4125.0 . 0.1414(15) . . .
4135.0 . 0.1444(15) . . .
4145.0 . 0.1408(15) . . .
4155.0 . 0.1460(15) . . .
4165.0 . 0.1436(15) . . .
4175.0 . 0.1465(15) . . .
4185.0 . 0.1436(15) . . .
4195.0 . 0.1463(15) . . .
4205.0 . 0.1478(15) . . .
4215.0 . 0.1436(15) . . .
4225.0 . 0.1453(15) . . .
4235.0 . 0.1444(15) . . .
4245.0 . 0.1475(15) . . .
4255.0 . 0.1473(15) . . .
4265.0 . 0.1481(15) . . .
4275.0 . 0.1497(15) . . .
4285.0 . 0.1438(15) . . .
4295.0 . 0.1427(15) . . .
4305.0 . 0.1406(15) . . .
4315.0 . 0.1457(15) . . .
4325.0 . 0.1484(15) . . .
4335.0 . 0.1456(15) . . .
4345.0 . 0.1460(15) . . .
4355.0 . 0.1468(15) . . .
4365.0 . 0.1499(15) . . .
4375.0 . 0.1492(15) . . .
4385.0 . 0.1508(15) . . .
4395.0 . 0.1535(15) . . .
4405.0 . 0.1501(15) . . .
4415.0 . 0.1500(15) . . .
4425.0 . 0.1413(15) . . .
4435.0 . 0.1444(15) . . .
4445.0 . 0.1483(15) . . .
4455.0 . 0.1522(15) . . .
4465.0 . 0.1556(16) . . .
4475.0 . 0.1577(16) . . .
4485.0 . 0.1563(16) . . .
4495.0 . 0.1544(16) . . .
4505.0 . 0.1555(16) . . .
4515.0 . 0.1558(16) . . .
4525.0 . 0.1582(16) . . .
4535.0 . 0.1558(16) . . .
4545.0 . 0.1551(16) . . .
4555.0 . 0.1588(16) . . .
4565.0 . 0.1562(16) . . .
4575.0 . 0.1605(16) . . .
4585.0 . 0.1615(16) . . .
4595.0 . 0.1626(16) . . .
4605.0 . 0.1612(16) . . .
4615.0 . 0.1550(16) . . .
4625.0 . 0.1540(16) . . .
4635.0 . 0.1532(16) . . .
4645.0 . 0.1609(16) . . .
4655.0 . 0.1588(16) . . .
4665.0 . 0.1580(16) . . .
4675.0 . 0.1542(16) . . .
4685.0 . 0.1565(16) . . .
4695.0 . 0.1605(16) . . .
4705.0 . 0.1616(16) . . .
4715.0 . 0.1580(16) . . .
4725.0 . 0.1555(16) . . .
4735.0 . 0.1535(16) . . .
4745.0 . 0.1517(16) . . .
4755.0 . 0.1516(16) . . .
4765.0 . 0.1515(16) . . .
4775.0 . 0.1512(16) . . .
4785.0 . 0.1538(16) . . .
4795.0 . 0.1538(16) . . .
4805.0 . 0.1508(16) . . .
4815.0 . 0.1505(16) . . .
4825.0 . 0.1512(16) . . .
4835.0 . 0.1545(16) . . .
4845.0 . 0.1515(16) . . .
4855.0 . 0.1569(16) . . .
4865.0 . 0.1595(16) . . .
4875.0 . 0.1615(16) . . .
4885.0 . 0.1612(16) . . .
4895.0 . 0.1621(16) . . .
4905.0 . 0.1654(17) . . .
4915.0 . 0.1614(16) . . .
4925.0 . 0.1618(16) . . .
4935.0 . 0.1592(16) . . .
4945.0 . 0.1572(16) . . .
4955.0 . 0.1556(16) . . .
4965.0 . 0.1584(16) . . .
4975.0 . 0.1575(16) . . .
4985.0 . 0.1596(16) . . .
4995.0 . 0.1546(16) . . .
5005.0 . 0.1526(16) . . .
5015.0 . 0.1477(16) . . .
5025.0 . 0.1452(16) . . .
5035.0 . 0.1459(16) . . .
5045.0 . 0.1467(16) . . .
5055.0 . 0.1482(16) . . .
5065.0 . 0.1508(16) . . .
5075.0 . 0.1483(16) . . .
5085.0 . 0.1508(16) . . .
5095.0 . 0.1514(16) . . .
5105.0 . 0.1498(16) . . .
5115.0 . 0.1521(16) . . .
5125.0 . 0.1515(16) . . .
5135.0 . 0.1507(16) . . .
5145.0 . 0.1510(16) . . .
5155.0 . 0.1496(16) . . .
5165.0 . 0.1506(16) . . .
5175.0 . 0.1552(17) . . .
5185.0 . 0.1542(17) . . .
5195.0 . 0.1548(17) . . .
5205.0 . 0.1576(17) . . .
5215.0 . 0.1566(17) . . .
5225.0 . 0.1591(17) . . .
5235.0 . 0.1522(17) . . .
5245.0 . 0.1515(17) . . .
5255.0 . 0.1517(17) . . .
5265.0 . 0.1570(17) . . .
5275.0 . 0.1553(17) . . .
5285.0 . 0.1588(17) . . .
5295.0 . 0.1549(17) . . .
5305.0 . 0.1497(17) . . .
5315.0 . 0.1493(17) . . .
5325.0 . 0.1541(17) . . .
5335.0 . 0.1552(17) . . .
5345.0 . 0.1560(17) . . .
5355.0 . 0.1570(17) . . .
5365.0 . 0.1516(17) . . .
5375.0 . 0.1499(17) . . .
5385.0 . 0.1514(17) . . .
5395.0 . 0.1558(17) . . .
5405.0 . 0.1530(17) . . .
5415.0 . 0.1481(17) . . .
5425.0 . 0.1475(17) . . .
5435.0 . 0.1510(17) . . .
5445.0 . 0.1487(17) . . .
5455.0 . 0.1500(17) . . .
5465.0 . 0.1473(17) . . .
5475.0 . 0.1457(17) . . .
5485.0 . 0.1435(17) . . .
5495.0 . 0.1419(17) . . .
5505.0 . 0.1430(17) . . .
5515.0 . 0.1425(17) . . .
5525.0 . 0.1443(17) . . .
5535.0 . 0.1451(17) . . .
5545.0 . 0.1468(17) . . .
5555.0 . 0.1451(17) . . .
5565.0 . 0.1462(17) . . .
5575.0 . 0.1491(17) . . .
5585.0 . 0.1549(18) . . .
5595.0 . 0.1592(18) . . .
5605.0 . 0.1566(18) . . .
5615.0 . 0.1570(18) . . .
5625.0 . 0.1580(18) . . .
5635.0 . 0.1563(18) . . .
5645.0 . 0.1580(18) . . .
5655.0 . 0.1591(18) . . .
5665.0 . 0.1608(18) . . .
5675.0 . 0.1654(19) . . .
5685.0 . 0.1635(19) . . .
5695.0 . 0.1595(18) . . .
5705.0 . 0.1561(18) . . .
5715.0 . 0.1562(18) . . .
5725.0 . 0.1575(18) . . .
5735.0 . 0.1589(18) . . .
5745.0 . 0.1595(19) . . .
5755.0 . 0.1537(18) . . .
5765.0 . 0.1534(18) . . .
5775.0 . 0.1562(18) . . .
5785.0 . 0.1606(19) . . .
5795.0 . 0.1620(19) . . .
5805.0 . 0.1603(19) . . .
5815.0 . 0.1564(19) . . .
5825.0 . 0.1559(19) . . .
5835.0 . 0.1565(19) . . .
5845.0 . 0.1580(19) . . .
5855.0 . 0.1583(19) . . .
5865.0 . 0.1540(19) . . .
5875.0 . 0.1549(19) . . .
5885.0 . 0.1553(19) . . .
5895.0 . 0.1610(19) . . .
5905.0 . 0.1611(19) . . .
5915.0 . 0.1613(19) . . .
5925.0 . 0.1702(20) . . .
5935.0 . 0.1713(20) . . .
5945.0 . 0.1808(20) . . .
5955.0 . 0.1756(20) . . .
5965.0 . 0.1732(20) . . .
5975.0 . 0.1738(20) . . .
5985.0 . 0.1764(20) . . .
5995.0 . 0.1805(20) . . .
6005.0 . 0.1798(20) . . .
6015.0 . 0.1778(20) . . .
6025.0 . 0.1753(20) . . .
6035.0 . 0.1709(20) . . .
6045.0 . 0.1671(20) . . .
6055.0 . 0.1664(20) . . .
6065.0 . 0.1673(20) . . .
6075.0 . 0.1652(20) . . .
6085.0 . 0.1644(20) . . .
6095.0 . 0.1665(20) . . .
6105.0 . 0.1634(20) . . .
6115.0 . 0.1638(20) . . .
6125.0 . 0.1697(20) . . .
6135.0 . 0.1689(20) . . .
6145.0 . 0.1728(20) . . .
6155.0 . 0.1700(20) . . .
6165.0 . 0.1720(20) . . .
6175.0 . 0.1735(20) . . .
6185.0 . 0.1783(21) . . .
6195.0 . 0.1805(21) . . .
6205.0 . 0.1847(21) . . .
6215.0 . 0.1821(21) . . .
6225.0 . 0.1748(21) . . .
6235.0 . 0.1712(20) . . .
6245.0 . 0.1692(20) . . .
6255.0 . 0.1721(21) . . .
6265.0 . 0.1743(21) . . .
6275.0 . 0.1748(21) . . .
6285.0 . 0.1765(21) . . .
6295.0 . 0.1732(21) . . .
6305.0 . 0.1707(21) . . .
6315.0 . 0.1742(21) . . .
6325.0 . 0.1824(21) . . .
6335.0 . 0.1782(21) . . .
6345.0 . 0.1776(21) . . .
6355.0 . 0.1745(21) . . .
6365.0 . 0.1698(21) . . .
6375.0 . 0.1657(21) . . .
6385.0 . 0.1581(20) . . .
6395.0 . 0.1657(21) . . .
6405.0 . 0.1652(21) . . .
6415.0 . 0.1710(21) . . .
6425.0 . 0.1761(21) . . .
6435.0 . 0.1816(22) . . .
6445.0 . 0.1797(21) . . .
6455.0 . 0.1769(21) . . .
6465.0 . 0.1750(21) . . .
6475.0 . 0.1747(21) . . .
6485.0 . 0.1763(21) . . .
6495.0 . 0.1757(21) . . .
6505.0 . 0.1786(22) . . .
6515.0 . 0.1758(21) . . .
6525.0 . 0.1759(21) . . .
6535.0 . 0.1716(21) . . .
6545.0 . 0.1641(21) . . .
6555.0 . 0.1594(21) . . .
6565.0 . 0.1625(21) . . .
6575.0 . 0.1625(21) . . .
6585.0 . 0.1641(21) . . .
6595.0 0.69726 0.1655(21) 0.0 0.14069 .
6605.0 0.69832 0.1668(21) 0.0 0.14121 .
6615.0 0.69938 0.1727(21) 217254. 0.14173 0.16731
6625.0 0.70044 0.1752(22) 214350. 0.14225 0.17660
6635.0 0.70150 0.1899(22) 199692. 0.14276 0.18416
6645.0 0.70256 0.1898(22) 199434. 0.14326 0.18628
6655.0 0.70362 0.1824(22) 206024. 0.14376 0.18378
6665.0 0.70467 0.1868(22) 201663. 0.14426 0.18002
6675.0 0.70573 0.1834(22) 204343. 0.14475 0.17685
6685.0 0.70679 0.1800(22) 207351. 0.14523 0.17415
6695.0 0.70785 0.1774(22) 209596. 0.14571 0.17066
6705.0 0.70891 0.1697(21) 217021. 0.14619 0.16698
6715.0 0.70997 0.1726(22) 213602. 0.14666 0.16420
6725.0 0.71102 0.1669(21) 219023. 0.14713 0.16245
6735.0 0.71208 0.1662(21) 219408. 0.14759 0.16158
6745.0 0.71314 0.1647(21) 220723. 0.14805 0.16191
6755.0 0.71420 0.1701(22) 214330. 0.14850 0.16433
6765.0 0.71526 0.1738(22) 210056. 0.14895 0.16933
6775.0 0.71632 0.1807(22) 202662. 0.14939 0.17615
6785.0 0.71738 0.1848(22) 198604. 0.14983 0.18277
6795.0 0.71843 0.1846(22) 198443. 0.15027 0.18661
6805.0 0.71949 0.1905(23) 193099. 0.15070 0.18732
6815.0 0.72055 0.1895(23) 193341. 0.15112 0.18764
6825.0 0.72161 0.1879(23) 194157. 0.15155 0.18908
6835.0 0.72267 0.1868(23) 194546. 0.15196 0.19001
6845.0 0.72373 0.1919(23) 189888. 0.15238 0.18939
6855.0 0.72479 0.1897(23) 191228. 0.15279 0.18717
6865.0 0.72584 0.1846(23) 195086. 0.15319 0.18325
6875.0 0.72690 0.1764(22) 202526. 0.15359 0.17806
6885.0 0.72796 0.1740(22) 204399. 0.15399 0.17303
6895.0 0.72902 0.1712(22) 206738. 0.15438 0.16930
6905.0 0.73008 0.1697(22) 207750. 0.15477 0.16696
6915.0 0.73114 0.1679(22) 209340. 0.15515 0.16579
6925.0 0.73220 0.1671(22) 209547. 0.15553 0.16581
6935.0 0.73325 0.1657(22) 210611. 0.15591 0.16746
6945.0 0.73431 0.1679(22) 207844. 0.15628 0.17084
6955.0 0.73537 0.1732(22) 202109. 0.15664 0.17491
6965.0 0.73643 0.1757(22) 199490. 0.15701 0.17772
6975.0 0.73749 0.1764(22) 198328. 0.15737 0.17850
6985.0 0.73855 0.1753(22) 198818. 0.15772 0.17750
6995.0 0.73960 0.1739(22) 199738. 0.15808 0.17511
7005.0 0.74066 0.1687(22) 204661. 0.15842 0.17244
7015.0 0.74172 0.1718(22) 201308. 0.15877 0.17044
7025.0 0.74278 0.1697(22) 202970. 0.15911 0.16924
7035.0 0.74384 0.1648(22) 207441. 0.15944 0.16845
7045.0 0.74490 0.1658(22) 205991. 0.15978 0.16811
7055.0 0.74596 0.1660(22) 205271. 0.16011 0.16872
7065.0 0.74701 0.1701(22) 200829. 0.16043 0.17048
7075.0 0.74807 0.1737(23) 197061. 0.16075 0.17314
7085.0 0.74913 0.1747(23) 195747. 0.16107 0.17612
7095.0 0.75019 0.1777(23) 192777. 0.16139 0.17868
7105.0 0.75125 0.1748(23) 194833. 0.16170 0.18009
7115.0 0.75231 0.1785(23) 190876. 0.16201 0.18064
7125.0 0.75337 0.1774(23) 191414. 0.16231 0.18133
7135.0 0.75442 0.1762(23) 192366. 0.16261 0.18189
7145.0 0.75548 0.1785(23) 189842. 0.16291 0.18179
7155.0 0.75654 0.1827(23) 186015. 0.16320 0.18252
7165.0 0.75760 0.1806(23) 187551. 0.16349 0.18602
7175.0 0.75866 0.1866(23) 182384. 0.16378 0.19223
7185.0 0.75972 0.1925(24) 177070. 0.16406 0.19826
7195.0 0.76078 0.1903(24) 178110. 0.16434 0.19945
7205.0 0.76183 0.1898(24) 178315. 0.16462 0.19445
7215.0 0.76289 0.1829(23) 183616. 0.16489 0.18685
7225.0 0.76395 0.1766(23) 188750. 0.16516 0.18048
7235.0 0.76501 0.1763(23) 188704. 0.16543 0.17686
7245.0 0.76607 0.1736(23) 190678. 0.16569 0.17592
7255.0 0.76713 0.1759(23) 188265. 0.16595 0.17698
7265.0 0.76819 0.1768(23) 187531. 0.16621 0.17910
7275.0 0.76924 0.1754(23) 188299. 0.16646 0.18126
7285.0 0.77030 0.1816(23) 182852. 0.16671 0.18298
7295.0 0.77136 0.1803(23) 183487. 0.16696 0.18424
7305.0 0.77242 0.1833(24) 180886. 0.16721 0.18531
7315.0 0.77348 0.1863(24) 178256. 0.16745 0.18697
7325.0 0.77454 0.1856(24) 178473. 0.16769 0.18990
7335.0 0.77560 0.1934(24) 172253. 0.16792 0.19402
7345.0 0.77665 0.1899(24) 174734. 0.16816 0.19762
7355.0 0.77771 0.1959(24) 169760. 0.16839 0.19853
7365.0 0.77877 0.1905(24) 173603. 0.16861 0.19644
7375.0 0.77983 0.1863(24) 176707. 0.16884 0.19173
7385.0 0.78089 0.1851(24) 177541. 0.16906 0.18581
7395.0 0.78195 0.1755(23) 185457. 0.16928 0.18068
7405.0 0.78300 0.1753(23) 185613. 0.16949 0.17733
7415.0 0.78406 0.1699(23) 189984. 0.16970 0.17563
7425.0 0.78512 0.1747(23) 184916. 0.16991 0.17507
7435.0 0.78618 0.1715(23) 187598. 0.17012 0.17512
7445.0 0.78724 0.1756(23) 183722. 0.17033 0.17543
7455.0 0.78830 0.1719(23) 186782. 0.17053 0.17575
7465.0 0.78936 0.1755(23) 183263. 0.17073 0.17616
7475.0 0.79041 0.1795(24) 179403. 0.17092 0.17713
7485.0 0.79147 0.1760(23) 182484. 0.17112 0.17901
7495.0 0.79253 0.1801(24) 178760. 0.17131 0.18184
7505.0 0.79359 0.1808(24) 177892. 0.17149 0.18509
7515.0 0.79465 0.1832(24) 175437. 0.17168 0.18759
7525.0 0.79571 0.1872(24) 171977. 0.17186 0.18811
7535.0 0.79677 0.1816(24) 176388. 0.17204 0.18683
7545.0 0.79782 0.1794(24) 177784. 0.17222 0.18514
7555.0 0.79888 0.1878(24) 170386. 0.17240 0.18414
7565.0 0.79994 0.1863(24) 171462. 0.17257 0.18494
7575.0 0.80100 0.1905(24) 167718. 0.17274 0.18847
7585.0 0.80206 0.1920(25) 166530. 0.17291 0.19475
7595.0 0.80312 0.2016(25) 159491. 0.17307 0.20230
7605.0 0.80418 0.2057(25) 156376. 0.17324 0.20771
7615.0 0.80523 0.2090(25) 153988. 0.17340 0.20781
7625.0 0.80629 0.2034(25) 157244. 0.17356 0.20302
7635.0 0.80735 0.1920(25) 165151. 0.17371 0.19655
7645.0 0.80841 0.1937(25) 163675. 0.17387 0.19135
7655.0 0.80947 0.1885(24) 167179. 0.17402 0.18898
7665.0 0.81053 0.1903(25) 165547. 0.17417 0.18937
7675.0 0.81159 0.1896(25) 165922. 0.17431 0.19130
7685.0 0.81264 0.1911(25) 164770. 0.17446 0.19317
7695.0 0.81370 0.1911(25) 164490. 0.17460 0.19445
7705.0 0.81476 0.1933(25) 162608. 0.17474 0.19571
7715.0 0.81582 0.1922(25) 163293. 0.17488 0.19716
7725.0 0.81688 0.1943(25) 161467. 0.17501 0.19866
7735.0 0.81794 0.1954(25) 160436. 0.17515 0.19981
7745.0 0.81900 0.2014(25) 156155. 0.17528 0.20092
7755.0 0.82005 0.2014(25) 155971. 0.17541 0.20312
7765.0 0.82111 0.2040(25) 153966. 0.17554 0.20671
7775.0 0.82217 0.2085(26) 151046. 0.17566 0.21055
7785.0 0.82323 0.2121(26) 148607. 0.17578 0.21292
7795.0 0.82429 0.2154(26) 146491. 0.17591 0.21298
7805.0 0.82535 0.2098(26) 149720. 0.17602 0.21087
7815.0 0.82641 0.2056(26) 152318. 0.17614 0.20809
7825.0 0.82746 0.2015(25) 154890. 0.17626 0.20569
7835.0 0.82852 0.2022(25) 154512. 0.17637 0.20356
7845.0 0.82958 0.2009(25) 155165. 0.17648 0.20157
7855.0 0.83064 0.1975(25) 157276. 0.17659 0.19984
7865.0 0.83170 0.1925(25) 160811. 0.17670 0.19862
7875.0 0.83276 0.1971(25) 157310. 0.17680 0.19799
7885.0 0.83382 0.2006(25) 154451. 0.17691 0.19813
7895.0 0.83488 0.1987(25) 155783. 0.17701 0.19889
7905.0 0.83593 0.2011(25) 153899. 0.17711 0.19991
7915.0 0.83699 0.1983(25) 155531. 0.17721 0.20062
7925.0 0.83805 0.2011(26) 153500. 0.17730 0.20007
7935.0 0.83911 0.1982(25) 155427. 0.17740 0.19844
7945.0 0.84017 0.1921(25) 159336. 0.17749 0.19721
7955.0 0.84123 0.2001(26) 153616. 0.17758 0.19763
7965.0 0.84229 0.2039(26) 151093. 0.17767 0.20017
7975.0 0.84334 0.2066(26) 149302. 0.17776 0.20458
7985.0 0.84440 0.2076(26) 148437. 0.17784 0.20938
7995.0 0.84546 0.2138(26) 144345. 0.17793 0.21169
8005.0 0.84652 0.2107(26) 146090. 0.17801 0.20958
8015.0 0.84758 0.2055(26) 149042. 0.17809 0.20444
8025.0 0.84864 0.2027(26) 150725. 0.17817 0.19913
8035.0 0.84970 0.1994(26) 152633. 0.17824 0.19577
8045.0 0.85075 0.1973(25) 153862. 0.17832 0.19514
8055.0 0.85181 0.1985(26) 152901. 0.17839 0.19702
8065.0 0.85287 0.1984(26) 152733. 0.17847 0.20050
8075.0 0.85393 0.2059(26) 147802. 0.17854 0.20443
8085.0 0.85499 0.2077(26) 146387. 0.17861 0.20731
8095.0 0.85605 0.2059(26) 147444. 0.17867 0.20763
8105.0 0.85711 0.2068(26) 146733. 0.17874 0.20575
8115.0 0.85816 0.2040(26) 148311. 0.17880 0.20359
8125.0 0.85922 0.2044(26) 147997. 0.17887 0.20252
8135.0 0.86028 0.2038(26) 148350. 0.17893 0.20237
8145.0 0.86134 0.2010(26) 149831. 0.17899 0.20203
8155.0 0.86240 0.1975(26) 151892. 0.17905 0.20088
8165.0 0.86346 0.1955(26) 153234. 0.17911 0.19955
8175.0 0.86452 0.2003(26) 149693. 0.17916 0.19923
8185.0 0.86557 0.2067(26) 145511. 0.17922 0.20038
8195.0 0.86663 0.2063(26) 145580. 0.17927 0.20234
8205.0 0.86769 0.2023(26) 147900. 0.17932 0.20363
8215.0 0.86875 0.2023(26) 147702. 0.17937 0.20351
8225.0 0.86981 0.2050(26) 145799. 0.17942 0.20262
8235.0 0.87087 0.2046(26) 145891. 0.17947 0.20195
8245.0 0.87193 0.2021(26) 147360. 0.17952 0.20217
8255.0 0.87298 0.2010(26) 147894. 0.17956 0.20303
8265.0 0.87404 0.2018(26) 147259. 0.17960 0.20390
8275.0 0.87510 0.2075(26) 143623. 0.17965 0.20424
8285.0 0.87616 0.2049(26) 144979. 0.17969 0.20342
8295.0 0.87722 0.2036(26) 145606. 0.17973 0.20139
8305.0 0.87828 0.2046(26) 144905. 0.17977 0.19944
8315.0 0.87934 0.2015(26) 146684. 0.17980 0.19933
8325.0 0.88040 0.2056(26) 144085. 0.17984 0.20265
8335.0 0.88145 0.2134(27) 139514. 0.17988 0.21042
8345.0 0.88251 0.2263(27) 132234. 0.17991 0.22263
8355.0 0.88357 0.2419(28) 124528. 0.17994 0.23740
8365.0 0.88463 0.2558(29) 118173. 0.17997 0.25085
8375.0 0.88569 0.2612(29) 115855. 0.18000 0.25892
8385.0 0.88675 0.2595(29) 116475. 0.18003 0.25861
8395.0 0.88781 0.2485(29) 120827. 0.18006 0.24957
8405.0 0.88886 0.2367(28) 126172. 0.18009 0.23573
8415.0 0.88992 0.2253(28) 131850. 0.18011 0.22193
8425.0 0.89098 0.2133(27) 138368. 0.18014 0.21118
8435.0 0.89204 0.2023(26) 144830. 0.18016 0.20458
8445.0 0.89310 0.2004(26) 146023. 0.18019 0.20188
8455.0 0.89416 0.2045(26) 143345. 0.18021 0.20203
8465.0 0.89522 0.2077(27) 141225. 0.18023 0.20382
8475.0 0.89627 0.2088(27) 140534. 0.18025 0.20629
8485.0 0.89733 0.2162(27) 136182. 0.18027 0.20830
8495.0 0.89839 0.2141(27) 137127. 0.18028 0.20873
8505.0 0.89945 0.2119(27) 138261. 0.18030 0.20752
8515.0 0.90051 0.2066(27) 141162. 0.18032 0.20558
8525.0 0.90157 0.2119(27) 137883. 0.18033 0.20396
8535.0 0.90263 0.2108(27) 138482. 0.18035 0.20319
8545.0 0.90369 0.2004(26) 144639. 0.18036 0.20297
8555.0 0.90474 0.2035(26) 142619. 0.18037 0.20247
8565.0 0.90580 0.2035(26) 142414. 0.18038 0.20127
8575.0 0.90686 0.2007(26) 143786. 0.18039 0.19972
8585.0 0.90792 0.2006(26) 143786. 0.18040 0.19803
8595.0 0.90898 0.2055(27) 140776. 0.18041 0.19629
8605.0 0.91004 0.1956(26) 146988. 0.18042 0.19483
8615.0 0.91110 0.1913(26) 149720. 0.18042 0.19411
8625.0 0.91215 0.1973(26) 145881. 0.18043 0.19417
8635.0 0.91321 0.1949(26) 147409. 0.18043 0.19456
8645.0 0.91427 0.1973(26) 145914. 0.18044 0.19464
8655.0 0.91533 0.1923(26) 149223. 0.18044 0.19405
8665.0 0.91639 0.1928(26) 148675. 0.18044 0.19313
8675.0 0.91745 0.1925(26) 148664. 0.18045 0.19280
8685.0 0.91851 0.2016(26) 142865. 0.18045 0.19389
8695.0 0.91956 0.1984(26) 144812. 0.18045 0.19683
8705.0 0.92062 0.2052(27) 140681. 0.18045 0.20160
8715.0 0.92168 0.2083(27) 138592. 0.18044 0.20761
8725.0 0.92274 0.2160(27) 134357. 0.18044 0.21377
8735.0 0.92380 0.2188(27) 132763. 0.18044 0.21933
8745.0 0.92486 0.2212(28) 131365. 0.18044 0.22480
8755.0 0.92592 0.2298(28) 127038. 0.18043 0.23097
8765.0 0.92698 0.2326(28) 125765. 0.18043 0.23712
8775.0 0.92803 0.2353(28) 124403. 0.18042 0.24124
8785.0 0.92909 0.2421(29) 121187. 0.18041 0.24158
8795.0 0.93015 0.2432(29) 120590. 0.18041 0.23832
8805.0 0.93121 0.2351(28) 124231. 0.18040 0.23397
8815.0 0.93227 0.2318(28) 125709. 0.18039 0.23106
8825.0 0.93333 0.2357(28) 123954. 0.18038 0.22995
8835.0 0.93439 0.2313(28) 126015. 0.18037 0.22858
8845.0 0.93544 0.2245(28) 129414. 0.18036 0.22470
8855.0 0.93650 0.2211(28) 131275. 0.18035 0.21854
8865.0 0.93756 0.2162(27) 133914. 0.18034 0.21173
8875.0 0.93862 0.2050(27) 140325. 0.18033 0.20561
8885.0 0.93968 0.1993(26) 143613. 0.18031 0.20096
8895.0 0.94074 0.1978(26) 144650. 0.18030 0.19818
8905.0 0.94180 0.2030(27) 141258. 0.18029 0.19741
8915.0 0.94286 0.1987(26) 143874. 0.18027 0.19876
8925.0 0.94391 0.2047(27) 140361. 0.18026 0.20202
8935.0 0.94497 0.2088(27) 137926. 0.18024 0.20639
8945.0 0.94603 0.2079(27) 138328. 0.18022 0.21044
8955.0 0.94709 0.2164(27) 133667. 0.18021 0.21257
8965.0 0.94815 0.2133(27) 135233. 0.18019 0.21183
8975.0 0.94921 0.2059(27) 139514. 0.18017 0.20858
8985.0 0.95027 0.2044(27) 140348. 0.18016 0.20428
8995.0 0.95132 0.2008(26) 142781. 0.18014 0.20019
9005.0 0.95238 0.2000(26) 143265. 0.18012 0.19681
9015.0 0.95344 0.1972(26) 145210. 0.18010 0.19445
9025.0 0.95450 0.1956(26) 146302. 0.18008 0.19341
9035.0 0.95556 0.1944(26) 147125. 0.18006 0.19360
9045.0 0.95662 0.1919(26) 148612. 0.18004 0.19498
9055.0 0.95768 0.2004(26) 142926. 0.18001 0.19739
9065.0 0.95874 0.2024(27) 141738. 0.17999 0.20056
9075.0 0.95979 0.2003(26) 143032. 0.17997 0.20404
9085.0 0.96085 0.2017(27) 142120. 0.17995 0.20701
9095.0 0.96191 0.2085(27) 137953. 0.17992 0.20873
9105.0 0.96297 0.2087(27) 138125. 0.17990 0.20936
9115.0 0.96403 0.2116(27) 136527. 0.17988 0.20936
9125.0 0.96509 0.2104(27) 137068. 0.17985 0.20910
9135.0 0.96615 0.2090(27) 137843. 0.17983 0.20883
9145.0 0.96720 0.2081(27) 138432. 0.17980 0.20818
9155.0 0.96826 0.2067(27) 139005. 0.17978 0.20639
9165.0 0.96932 0.2030(27) 141035. 0.17975 0.20350
9175.0 0.97038 0.1999(26) 143047. 0.17972 0.20041
9185.0 0.97144 0.1965(26) 145209. 0.17970 0.19773
9195.0 0.97250 0.1986(26) 143623. 0.17967 0.19558
9205.0 0.97356 0.1907(26) 148761. 0.17964 0.19394
9215.0 0.97462 0.1944(26) 146172. 0.17962 0.19300
9225.0 0.97567 0.1957(26) 145423. 0.17959 0.19287
9235.0 0.97673 0.1858(26) 152144. 0.17956 0.19355
9245.0 0.97779 0.1950(26) 145655. 0.17953 0.19512
9255.0 0.97885 0.1927(26) 147095. 0.17950 0.19778
9265.0 0.97991 0.2026(27) 140662. 0.17947 0.20158
9275.0 0.98097 0.2112(27) 135622. 0.17944 0.20603
9285.0 0.98203 0.2054(27) 139032. 0.17941 0.20994
9295.0 0.98309 0.2123(27) 135028. 0.17938 0.21180
9305.0 0.98414 0.2154(27) 133299. 0.17935 0.21051
9315.0 0.98520 0.2019(27) 141130. 0.17932 0.20654
9325.0 0.98626 0.1980(26) 143607. 0.17929 0.20173
9335.0 0.98732 0.1998(27) 142329. 0.17926 0.19788
9345.0 0.98838 0.1990(26) 142764. 0.17923 0.19620
9355.0 0.98944 0.1945(26) 145646. 0.17920 0.19733
9365.0 0.99050 0.2021(27) 140823. 0.17917 0.20130
9375.0 0.99155 0.2105(27) 136019. 0.17914 0.20766
9385.0 0.99261 0.2114(27) 135521. 0.17910 0.21531
9395.0 0.99367 0.2214(28) 130167. 0.17907 0.22251
9405.0 0.99473 0.2300(28) 125845. 0.17904 0.22756
9415.0 0.99579 0.2270(28) 127418. 0.17901 0.22987
9425.0 0.99685 0.2312(28) 125207. 0.17897 0.23008
9435.0 0.99791 0.2335(28) 124146. 0.17894 0.22849
9445.0 0.99897 0.2242(28) 128746. 0.17891 0.22452
9455.0 1.00002 0.2195(28) 131230. 0.17887 0.21816
9465.0 1.00108 0.2154(27) 133448. 0.17884 0.21074
9475.0 1.00214 0.2089(27) 137172. 0.17881 0.20396
9485.0 1.00320 0.2045(27) 139961. 0.17877 0.19893
9495.0 1.00426 0.1959(26) 145585. 0.17874 0.19611
9505.0 1.00532 0.1959(26) 145466. 0.17870 0.19538
9515.0 1.00638 0.1990(26) 143480. 0.17867 0.19623
9525.0 1.00744 0.1927(26) 147541. 0.17863 0.19781
9535.0 1.00849 0.2005(27) 142271. 0.17860 0.19931
9545.0 1.00955 0.2011(27) 141696. 0.17857 0.20026
9555.0 1.01061 0.1999(27) 142358. 0.17853 0.20075
9565.0 1.01167 0.2041(27) 139701. 0.17850 0.20113
9575.0 1.01273 0.2045(27) 139380. 0.17846 0.20137
9585.0 1.01379 0.2005(27) 141713. 0.17842 0.20106
9595.0 1.01485 0.2011(27) 141338. 0.17839 0.19976
9605.0 1.01591 0.1982(26) 143181. 0.17835 0.19753
9615.0 1.01696 0.2013(27) 140974. 0.17832 0.19498
9625.0 1.01802 0.1925(26) 146655. 0.17828 0.19288
9635.0 1.01908 0.1952(26) 144778. 0.17825 0.19170
9645.0 1.02014 0.1952(26) 144801. 0.17821 0.19172
9655.0 1.02120 0.1944(26) 145380. 0.17818 0.19298
9665.0 1.02226 0.1947(26) 144941. 0.17814 0.19557
9675.0 1.02332 0.2016(27) 140347. 0.17810 0.19953
9685.0 1.02437 0.2104(27) 135120. 0.17807 0.20475
9695.0 1.02543 0.2134(27) 133412. 0.17803 0.21126
9705.0 1.02649 0.2281(28) 125899. 0.17800 0.21918
9715.0 1.02755 0.2310(28) 124554. 0.17796 0.22831
9725.0 1.02861 0.2380(29) 121220. 0.17792 0.23797
9735.0 1.02967 0.2488(29) 116349. 0.17789 0.24694
9745.0 1.03073 0.2565(30) 113251. 0.17785 0.25310
9755.0 1.03179 0.2536(30) 114480. 0.17782 0.25444
9765.0 1.03284 0.2518(29) 115126. 0.17778 0.25048
9775.0 1.03390 0.2488(29) 116452. 0.17774 0.24215
9785.0 1.03496 0.2345(29) 122783. 0.17771 0.23120
9795.0 1.03602 0.2239(28) 128045. 0.17767 0.21990
9805.0 1.03708 0.2122(27) 134372. 0.17763 0.21015
9815.0 1.03814 0.2072(27) 137388. 0.17760 0.20293
9825.0 1.03920 0.1976(26) 143215. 0.17756 0.19843
9835.0 1.04026 0.1983(26) 142758. 0.17753 0.19625
9845.0 1.04131 0.2022(27) 140270. 0.17749 0.19583
9855.0 1.04237 0.1972(26) 143357. 0.17745 0.19651
9865.0 1.04343 0.1994(27) 141863. 0.17742 0.19755
9875.0 1.04449 0.1975(26) 143132. 0.17738 0.19832
9885.0 1.04555 0.1955(26) 144119. 0.17734 0.19831
9895.0 1.04661 0.1973(26) 143045. 0.17731 0.19750
9905.0 1.04767 0.2009(27) 140770. 0.17727 0.19658
9915.0 1.04873 0.1976(26) 142640. 0.17724 0.19657
9925.0 1.04978 0.1970(26) 142940. 0.17720 0.19825
9935.0 1.05084 0.2018(27) 139982. 0.17716 0.20180
9945.0 1.05190 0.2080(27) 136123. 0.17713 0.20673
9955.0 1.05296 0.2150(28) 132129. 0.17709 0.21173
9965.0 1.05402 0.2206(28) 129291. 0.17706 0.21493
9975.0 1.05508 0.2149(28) 132090. 0.17702 0.21477
9985.0 1.05614 0.2140(27) 132554. 0.17699 0.21130
9995.0 1.05720 0.2090(27) 135244. 0.17695 0.20615
10005.0 1.05825 0.2060(27) 136839. 0.17691 0.20102
10015.0 1.05931 0.1967(26) 142446. 0.17688 0.19691
10025.0 1.06037 0.1951(26) 143454. 0.17684 0.19403
10035.0 1.06143 0.1950(26) 143602. 0.17681 0.19200
10045.0 1.06249 0.1938(26) 144179. 0.17677 0.19022
10055.0 1.06355 0.1920(26) 145207. 0.17674 0.18848
10065.0 1.06461 0.1887(26) 147173. 0.17670 0.18696
10075.0 1.06567 0.1863(26) 148874. 0.17667 0.18595
10085.0 1.06672 0.1905(26) 145960. 0.17663 0.18566
10095.0 1.06778 0.1865(26) 148633. 0.17660 0.18613
10105.0 1.06884 0.1883(26) 147190. 0.17656 0.18718
10115.0 1.06990 0.1939(26) 143604. 0.17653 0.18847
10125.0 1.07096 0.1929(26) 144282. 0.17650 0.18948
10135.0 1.07202 0.1957(26) 142565. 0.17646 0.18963
10145.0 1.07308 0.1928(26) 144224. 0.17643 0.18886
10155.0 1.07414 0.1904(26) 145708. 0.17639 0.18758
10165.0 1.07519 0.1874(26) 147691. 0.17636 0.18637
10175.0 1.07625 0.1880(26) 147267. 0.17633 0.18569
10185.0 1.07731 0.1839(26) 149947. 0.17629 0.18582
10195.0 1.07837 0.1927(26) 143901. 0.17626 0.18685
10205.0 1.07943 0.1938(26) 143195. 0.17623 0.18878
10215.0 1.08049 0.1965(27) 141421. 0.17619 0.19148
10225.0 1.08155 0.1958(27) 141738. 0.17616 0.19473
10235.0 1.08261 0.1978(27) 140374. 0.17613 0.19834
10245.0 1.08366 0.2109(27) 132385. 0.17609 0.20238
10255.0 1.08472 0.2113(28) 132203. 0.17606 0.20733
10265.0 1.08578 0.2130(28) 131237. 0.17603 0.21351
10275.0 1.08684 0.2252(28) 124851. 0.17600 0.22050
10285.0 1.08790 0.2319(29) 121630. 0.17596 0.22692
10295.0 1.08896 0.2369(29) 119286. 0.17593 0.23063
10305.0 1.09002 0.2324(29) 121370. 0.17590 0.23009
10315.0 1.09108 0.2258(28) 124468. 0.17587 0.22579
10325.0 1.09213 0.2233(28) 125721. 0.17584 0.21973
10335.0 1.09319 0.2186(28) 128224. 0.17580 0.21381
10345.0 1.09425 0.2142(28) 130548. 0.17577 0.20906
10355.0 1.09531 0.2078(27) 134429. 0.17574 0.20579
10365.0 1.09637 0.2029(27) 137336. 0.17571 0.20412
10375.0 1.09743 0.2104(27) 132971. 0.17568 0.20428
10385.0 1.09849 0.2094(27) 133605. 0.17565 0.20643
10395.0 1.09955 0.2149(28) 130503. 0.17562 0.21045
10405.0 1.10060 0.2207(28) 127396. 0.17559 0.21578
10415.0 1.10166 0.2276(28) 123982. 0.17556 0.22160
10425.0 1.10272 0.2358(29) 120078. 0.17553 0.22714
10435.0 1.10378 0.2409(29) 117691. 0.17550 0.23165
10445.0 1.10484 0.2413(29) 117570. 0.17547 0.23426
10455.0 1.10590 0.2387(29) 118806. 0.17544 0.23397
10465.0 1.10696 0.2296(29) 123072. 0.17541 0.23000
10475.0 1.10802 0.2233(28) 126252. 0.17538 0.22301
10485.0 1.10907 0.2168(28) 129740. 0.17535 0.21483
10495.0 1.11013 0.2111(27) 132963. 0.17533 0.20729
10505.0 1.11119 0.2036(27) 137287. 0.17530 0.20145
10515.0 1.11225 0.1991(27) 140265. 0.17527 0.19765
10525.0 1.11331 0.1925(26) 144458. 0.17524 0.19564
10535.0 1.11437 0.2019(27) 138462. 0.17521 0.19491
10545.0 1.11543 0.1974(27) 141139. 0.17519 0.19500
10555.0 1.11649 0.1960(27) 142135. 0.17516 0.19563
10565.0 1.11755 0.1984(27) 140871. 0.17513 0.19660
10575.0 1.11860 0.1974(27) 141670. 0.17510 0.19757
10585.0 1.11966 0.2002(27) 140037. 0.17508 0.19829
10595.0 1.12072 0.2047(27) 137374. 0.17505 0.19888
10605.0 1.12178 0.1967(26) 142430. 0.17502 0.19971
10615.0 1.12284 0.1977(27) 141745. 0.17500 0.20093
10625.0 1.12390 0.1988(27) 141110. 0.17497 0.20221
10635.0 1.12496 0.2023(27) 138892. 0.17495 0.20275
10645.0 1.12602 0.2009(27) 139920. 0.17492 0.20170
10655.0 1.12707 0.1982(27) 141859. 0.17490 0.19889
10665.0 1.12813 0.1956(26) 143594. 0.17487 0.19496
10675.0 1.12919 0.1874(26) 149390. 0.17485 0.19076
10685.0 1.13025 0.1857(26) 150635. 0.17482 0.18697
10695.0 1.13131 0.1840(26) 151894. 0.17480 0.18393
10705.0 1.13237 0.1815(26) 153636. 0.17477 0.18178
10715.0 1.13343 0.1807(25) 154295. 0.17475 0.18051
10725.0 1.13449 0.1768(25) 157318. 0.17473 0.17995
10735.0 1.13554 0.1790(25) 155560. 0.17470 0.17997
10745.0 1.13660 0.1754(25) 158340. 0.17468 0.18043
10755.0 1.13766 0.1795(25) 155261. 0.17466 0.18110
10765.0 1.13872 0.1811(25) 154230. 0.17463 0.18184
10775.0 1.13978 0.1823(26) 153534. 0.17461 0.18243
10785.0 1.14084 0.1813(25) 154248. 0.17459 0.18271
10795.0 1.14190 0.1841(26) 152179. 0.17457 0.18268
10805.0 1.14296 0.1792(25) 155955. 0.17455 0.18257
10815.0 1.14402 0.1820(25) 153889. 0.17452 0.18271
10825.0 1.14507 0.1767(25) 157818. 0.17450 0.18333
10835.0 1.14613 0.1831(26) 153097. 0.17448 0.18456
10845.0 1.14719 0.1833(26) 153126. 0.17446 0.18637
10855.0 1.14825 0.1858(26) 151421. 0.17444 0.18852
10865.0 1.14931 0.1882(26) 149691. 0.17442 0.19062
10875.0 1.15037 0.1863(26) 150929. 0.17440 0.19222
10885.0 1.15143 0.1904(26) 147965. 0.17438 0.19303
10895.0 1.15249 0.1935(26) 145894. 0.17436 0.19331
10905.0 1.15354 0.1902(26) 148266. 0.17434 0.19375
10915.0 1.15460 0.1941(26) 145720. 0.17432 0.19506
10925.0 1.15566 0.1968(26) 144021. 0.17430 0.19768
10935.0 1.15672 0.1976(26) 143504. 0.17428 0.20161
10945.0 1.15778 0.2078(27) 137145. 0.17427 0.20642
10955.0 1.15884 0.2087(27) 136699. 0.17425 0.21115
10965.0 1.15990 0.2151(27) 133134. 0.17423 0.21462
10975.0 1.16096 0.2172(28) 132024. 0.17421 0.21607
10985.0 1.16201 0.2172(28) 131929. 0.17419 0.21578
10995.0 1.16307 0.2198(28) 130502. 0.17418 0.21474
11005.0 1.16413 0.2174(28) 131718. 0.17416 0.21370
11015.0 1.16519 0.2166(27) 132236. 0.17414 0.21272
11025.0 1.16625 0.2152(27) 132976. 0.17413 0.21109
11035.0 1.16731 0.2057(27) 138648. 0.17411 0.20821
11045.0 1.16837 0.2032(27) 140187. 0.17410 0.20383
11055.0 1.16943 0.2026(27) 140706. 0.17408 0.19859
11065.0 1.17049 0.1919(26) 147676. 0.17406 0.19330
11075.0 1.17154 0.1834(25) 153796. 0.17405 0.18856
11085.0 1.17260 0.1820(25) 154912. 0.17403 0.18470
11095.0 1.17366 0.1834(25) 153849. 0.17402 0.18182
11105.0 1.17472 0.1762(25) 159211. 0.17401 0.17984
11115.0 1.17578 0.1803(25) 156295. 0.17399 0.17856
11125.0 1.17684 0.1779(25) 158014. 0.17398 0.17778
11135.0 1.17790 0.1813(25) 155478. 0.17396 0.17730
11145.0 1.17896 0.1743(25) 161146. 0.17395 0.17703
11155.0 1.18001 0.1754(25) 160233. 0.17394 0.17683
11165.0 1.18107 0.1745(25) 160945. 0.17392 0.17669
11175.0 1.18213 0.1747(25) 160890. 0.17391 0.17656
11185.0 1.18319 0.1674(24) 167060. 0.17390 0.17642
11195.0 1.18425 0.1716(25) 163536. 0.17389 0.17636
11205.0 1.18531 0.1733(25) 162429. 0.17388 0.17636
11215.0 1.18637 0.1729(25) 162692. 0.17386 0.17644
11225.0 1.18743 0.1725(25) 162891. 0.17385 0.17659
11235.0 1.18849 0.1768(25) 159412. 0.17384 0.17680
11245.0 1.18954 0.1718(25) 163452. 0.17383 0.17702
11255.0 1.19060 0.1788(25) 157935. 0.17382 0.17722
11265.0 1.19166 0.1777(25) 158737. 0.17381 0.17732
11275.0 1.19272 0.1725(25) 162922. 0.17380 0.17732
11285.0 1.19378 0.1769(25) 159394. 0.17379 0.17721
11295.0 1.19484 0.1686(25) 166381. 0.17378 0.17700
11305.0 1.19590 0.1731(25) 162545. 0.17377 0.17675
11315.0 1.19696 0.1732(25) 162657. 0.17376 0.17653
11325.0 1.19802 0.1702(25) 165271. 0.17375 0.17637
11335.0 1.19907 0.1743(25) 162180. 0.17375 0.17630
11345.0 1.20013 0.1741(25) 162509. 0.17374 0.17635
11355.0 1.20119 0.1767(25) 160275. 0.17373 0.17654
11365.0 1.20225 0.1730(25) 163244. 0.17372 0.17693
11375.0 1.20331 0.1779(25) 159408. 0.17371 0.17761
11385.0 1.20437 0.1759(25) 160956. 0.17371 0.17870
11395.0 1.20543 0.1750(25) 161660. 0.17370 0.18035
11405.0 1.20649 0.1811(25) 157065. 0.17369 0.18270
11415.0 1.20754 0.1857(26) 153681. 0.17369 0.18582
11425.0 1.20860 0.1903(26) 150569. 0.17368 0.18964
11435.0 1.20966 0.1924(26) 149241. 0.17367 0.19389
11445.0 1.21072 0.1900(26) 150997. 0.17367 0.19804
11455.0 1.21178 0.2012(26) 143626. 0.17366 0.20140
11465.0 1.21284 0.1975(26) 146122. 0.17366 0.20324
11475.0 1.21390 0.1963(26) 147166. 0.17365 0.20322
11485.0 1.21496 0.1982(26) 146126. 0.17365 0.20150
11495.0 1.21602 0.1933(26) 149391. 0.17364 0.19872
11505.0 1.21707 0.1945(26) 148752. 0.17364 0.19568
11515.0 1.21813 0.1896(26) 152460. 0.17364 0.19289
11525.0 1.21919 0.1843(25) 156582. 0.17363 0.19072
11535.0 1.22025 0.1861(25) 155470. 0.17363 0.18924
11545.0 1.22131 0.1813(25) 159632. 0.17363 0.18836
11555.0 1.22237 0.1837(25) 157958. 0.17362 0.18804
11565.0 1.22343 0.1845(25) 157271. 0.17362 0.18838
11575.0 1.22449 0.1848(25) 157187. 0.17362 0.18969
11585.0 1.22555 0.1887(25) 154142. 0.17362 0.19235
11595.0 1.22660 0.1909(26) 152955. 0.17361 0.19664
11605.0 1.22766 0.2028(26) 145077. 0.17361 0.20264
11615.0 1.22872 0.2108(27) 140371. 0.17361 0.21006
11625.0 1.22978 0.2134(27) 138927. 0.17361 0.21816
11635.0 1.23084 0.2271(28) 131617. 0.17361 0.22567
11645.0 1.23190 0.2319(28) 129208. 0.17361 0.23091
11655.0 1.23296 0.2270(28) 131820. 0.17361 0.23235
11665.0 1.23402 0.2303(28) 130138. 0.17361 0.22953
11675.0 1.23508 0.2226(27) 134216. 0.17361 0.22342
11685.0 1.23613 0.2162(27) 137853. 0.17361 0.21569
11695.0 1.23719 0.2100(27) 141537. 0.17361 0.20778
11705.0 1.23825 0.1960(26) 150687. 0.17361 0.20068
11715.0 1.23931 0.1908(25) 154499. 0.17361 0.19496
11725.0 1.24037 0.1847(25) 159135. 0.17361 0.19081
11735.0 1.24143 0.1792(25) 163601. 0.17362 0.18816
11745.0 1.24249 0.1810(25) 162200. 0.17362 0.18671
11755.0 1.24355 0.1808(25) 162485. 0.17362 0.18607
11765.0 1.24460 0.1803(25) 162936. 0.17362 0.18597
11775.0 1.24566 0.1846(25) 159739. 0.17362 0.18611
11785.0 1.24672 0.1799(25) 163577. 0.17363 0.18628
11795.0 1.24778 0.1781(25) 165109. 0.17363 0.18634
11805.0 1.24884 0.1764(25) 166424. 0.17363 0.18619
11815.0 1.24990 0.1816(25) 162250. 0.17364 0.18597
11825.0 1.25096 0.1817(25) 162326. 0.17364 0.18594
11835.0 1.25202 0.1817(25) 162221. 0.17365 0.18654
11845.0 1.25308 0.1854(25) 159498. 0.17365 0.18817
11855.0 1.25413 0.1872(25) 158135. 0.17365 0.19124
11865.0 1.25519 0.1960(26) 152080. 0.17366 0.19612
11875.0 1.25625 0.2004(26) 149341. 0.17366 0.20301
11885.0 1.25731 0.2090(26) 143862. 0.17367 0.21183
11895.0 1.25837 0.2180(27) 138525. 0.17368 0.22212
11905.0 1.25943 0.2347(28) 129707. 0.17368 0.23290
11915.0 1.26049 0.2340(28) 130171. 0.17369 0.24269
11925.0 1.26155 0.2473(28) 124098. 0.17369 0.24985
11935.0 1.26261 0.2437(28) 125900. 0.17370 0.25316
11945.0 1.26366 0.2469(28) 124476. 0.17371 0.25220
11955.0 1.26472 0.2465(28) 124737. 0.17371 0.24755
11965.0 1.26578 0.2440(28) 125953. 0.17372 0.24055
11975.0 1.26684 0.2323(28) 131810. 0.17373 0.23275
11985.0 1.26790 0.2193(27) 138772. 0.17374 0.22520
11995.0 1.26896 0.2148(27) 141457. 0.17374 0.21833
12005.0 1.27002 0.2095(26) 144679. 0.17375 0.21212
12015.0 1.27108 0.2026(26) 149278. 0.17376 0.20642
12025.0 1.27214 0.1979(26) 152681. 0.17377 0.20122
12035.0 1.27319 0.1942(25) 155330. 0.17378 0.19664
12045.0 1.27425 0.1882(25) 159800. 0.17379 0.19285
12055.0 1.27531 0.1817(25) 164945. 0.17380 0.18997
12065.0 1.27637 0.1811(25) 165250. 0.17380 0.18805
12075.0 1.27743 0.1783(24) 167618. 0.17381 0.18706
12085.0 1.27849 0.1812(25) 165183. 0.17382 0.18693
12095.0 1.27955 0.1851(25) 162349. 0.17383 0.18751
12105.0 1.28061 0.1852(25) 161979. 0.17384 0.18869
12115.0 1.28167 0.1859(25) 161622. 0.17386 0.19034
12125.0 1.28272 0.1895(25) 158965. 0.17387 0.19234
12135.0 1.28378 0.1937(25) 156130. 0.17388 0.19451
12145.0 1.28484 0.1939(25) 156230. 0.17389 0.19649
12155.0 1.28590 0.1958(25) 154865. 0.17390 0.19782
12165.0 1.28696 0.1913(25) 158321. 0.17391 0.19803
12175.0 1.28802 0.1949(25) 155798. 0.17392 0.19691
12185.0 1.28908 0.1936(25) 156821. 0.17394 0.19470
12195.0 1.29014 0.1902(25) 159458. 0.17395 0.19191
12205.0 1.29120 0.1830(25) 165116. 0.17396 0.18908
12215.0 1.29226 0.1852(25) 163479. 0.17397 0.18661
12225.0 1.29331 0.1811(24) 166879. 0.17399 0.18477
12235.0 1.29437 0.1768(24) 170644. 0.17400 0.18371
12245.0 1.29543 0.1822(25) 166016. 0.17401 0.18344
12255.0 1.29649 0.1829(25) 165518. 0.17403 0.18390
12265.0 1.29755 0.1818(25) 166495. 0.17404 0.18495
12275.0 1.29861 0.1858(25) 163318. 0.17405 0.18637
12285.0 1.29967 0.1821(25) 166258. 0.17407 0.18789
12295.0 1.30073 0.1888(25) 161221. 0.17408 0.18921
12305.0 1.30179 0.1893(25) 160910. 0.17410 0.19005
12315.0 1.30284 0.1841(25) 164977. 0.17411 0.19027
12325.0 1.30390 0.1862(25) 163514. 0.17413 0.18999
12335.0 1.30496 0.1846(25) 164862. 0.17414 0.18944
12345.0 1.30602 0.1859(25) 164019. 0.17416 0.18891
12355.0 1.30708 0.1877(25) 162670. 0.17417 0.18856
12365.0 1.30814 0.1840(25) 165744. 0.17419 0.18847
12375.0 1.30920 0.1817(24) 167649. 0.17420 0.18864
12385.0 1.31026 0.1821(24) 167475. 0.17422 0.18910
12395.0 1.31132 0.1835(25) 166520. 0.17424 0.18998
12405.0 1.31237 0.1886(25) 162762. 0.17425 0.19154
12415.0 1.31343 0.1900(25) 161597. 0.17427 0.19408
12425.0 1.31449 0.1991(25) 154983. 0.17429 0.19786
12435.0 1.31555 0.2020(26) 152813. 0.17430 0.20296
12445.0 1.31661 0.2082(26) 148685. 0.17432 0.20916
12455.0 1.31767 0.2180(26) 142732. 0.17434 0.21595
12465.0 1.31873 0.2140(26) 145360. 0.17436 0.22242
12475.0 1.31979 0.2247(27) 139175. 0.17438 0.22736
12485.0 1.32085 0.2272(27) 137772. 0.17439 0.22963
12495.0 1.32190 0.2242(27) 139571. 0.17441 0.22871
12505.0 1.32296 0.2254(27) 139000. 0.17443 0.22503
12515.0 1.32402 0.2227(27) 140654. 0.17445 0.21950
12525.0 1.32508 0.2123(26) 146940. 0.17447 0.21321
12535.0 1.32614 0.2083(26) 149656. 0.17449 0.20689
12545.0 1.32720 0.2022(26) 153701. 0.17451 0.20110
12555.0 1.32826 0.1985(25) 156334. 0.17453 0.19617
12565.0 1.32932 0.1918(25) 161150. 0.17454 0.19238
12575.0 1.33038 0.1912(25) 161735. 0.17456 0.18977
12585.0 1.33144 0.1927(25) 160912. 0.17458 0.18827
12595.0 1.33249 0.1850(24) 166944. 0.17460 0.18778
12605.0 1.33355 0.1893(25) 163611. 0.17462 0.18812
12615.0 1.33461 0.1874(25) 165087. 0.17465 0.18905
12625.0 1.33567 0.1886(25) 164247. 0.17467 0.19028
12635.0 1.33673 0.1907(25) 162642. 0.17469 0.19144
12645.0 1.33779 0.1880(25) 164785. 0.17471 0.19219
12655.0 1.33885 0.1899(25) 163406. 0.17473 0.19232
12665.0 1.33991 0.1913(25) 162526. 0.17475 0.19190
12675.0 1.34097 0.1892(25) 164345. 0.17477 0.19121
12685.0 1.34202 0.1912(25) 162982. 0.17479 0.19064
12695.0 1.34308 0.1930(25) 161698. 0.17481 0.19050
12705.0 1.34414 0.1957(25) 159777. 0.17484 0.19094
12715.0 1.34520 0.1908(25) 163450. 0.17486 0.19205
12725.0 1.34626 0.1891(25) 165044. 0.17488 0.19365
12735.0 1.34732 0.1932(25) 161979. 0.17490 0.19543
12745.0 1.34838 0.1984(25) 158068. 0.17493 0.19698
12755.0 1.34944 0.1995(25) 157440. 0.17495 0.19791
12765.0 1.35050 0.1946(25) 161051. 0.17497 0.19795
12775.0 1.35156 0.1979(25) 158675. 0.17499 0.19697
12785.0 1.35261 0.1965(25) 159788. 0.17502 0.19513
12795.0 1.35367 0.1942(25) 161508. 0.17504 0.19267
12805.0 1.35473 0.1899(25) 164968. 0.17507 0.18995
12815.0 1.35579 0.1889(25) 165825. 0.17509 0.18735
12825.0 1.35685 0.1883(25) 166157. 0.17511 0.18504
12835.0 1.35791 0.1816(24) 171458. 0.17514 0.18314
12845.0 1.35897 0.1791(24) 173457. 0.17516 0.18171
12855.0 1.36003 0.1799(24) 172775. 0.17519 0.18057
12865.0 1.36109 0.1814(24) 171340. 0.17521 0.17969
12875.0 1.36214 0.1788(24) 173756. 0.17523 0.17901
12885.0 1.36320 0.1773(24) 175157. 0.17526 0.17847
12895.0 1.36426 0.1779(24) 174845. 0.17528 0.17803
12905.0 1.36532 0.1796(24) 173249. 0.17531 0.17766
12915.0 1.36638 0.1795(24) 173392. 0.17533 0.17737
12925.0 1.36744 0.1761(24) 176446. 0.17536 0.17713
12935.0 1.36850 0.1768(24) 175803. 0.17538 0.17695
12945.0 1.36956 0.1752(24) 177084. 0.17541 0.17681
12955.0 1.37062 0.1797(24) 173030. 0.17544 0.17671
12965.0 1.37168 0.1768(24) 175673. 0.17546 0.17664
12975.0 1.37273 0.1789(24) 174034. 0.17549 0.17659
12985.0 1.37379 0.1785(24) 174368. 0.17551 0.17656
12995.0 1.37485 0.1776(24) 175185. 0.17554 0.17654
13005.0 1.37591 0.1761(24) 176754. 0.17557 0.17654
13015.0 1.37697 0.1741(24) 178625. 0.17559 0.17653
13025.0 1.37803 0.1781(24) 174997. 0.17562 0.17652
13035.0 1.37909 0.1780(24) 175001. 0.17565 0.17653
13045.0 1.38015 0.1797(24) 173673. 0.17567 0.17654
13055.0 1.38121 0.1742(24) 178716. 0.17570 0.17656
13065.0 1.38226 0.1800(24) 173848. 0.17573 0.17658
13075.0 1.38332 0.1801(24) 173881. 0.17576 0.17660
13085.0 1.38438 0.1864(24) 168785. 0.17578 0.17663
13095.0 1.38544 0.1779(24) 175719. 0.17581 0.17666
13105.0 1.38650 0.1761(24) 177304. 0.17584 0.17669
13115.0 1.38756 0.1775(24) 176176. 0.17587 0.17672
13125.0 1.38862 0.1763(24) 177623. 0.17589 0.17676
13135.0 1.38968 0.1782(24) 176032. 0.17592 0.17681
13145.0 1.39074 0.1769(24) 177196. 0.17595 0.17686
13155.0 1.39180 0.1773(24) 176798. 0.17598 0.17691
13165.0 1.39285 0.1768(24) 177370. 0.17601 0.17697
13175.0 1.39391 0.1790(24) 175283. 0.17604 0.17703
13185.0 1.39497 0.1770(24) 177230. 0.17606 0.17709
13195.0 1.39603 0.1744(24) 179743. 0.17609 0.17717
13205.0 1.39709 0.1798(24) 174917. 0.17612 0.17724
13215.0 1.39815 0.1768(24) 177767. 0.17615 0.17733
13225.0 1.39921 0.1787(24) 175986. 0.17618 0.17743
13235.0 1.40027 0.1790(24) 175866. 0.17621 0.17753
13245.0 1.40133 0.1802(24) 174866. 0.17624 0.17765
13255.0 1.40239 0.1834(24) 172012. 0.17627 0.17781
13265.0 1.40344 0.1834(24) 171706. 0.17630 0.17799
13275.0 1.40450 0.1804(24) 174167. 0.17633 0.17824
13285.0 1.40556 0.1815(24) 173431. 0.17636 0.17857
13295.0 1.40662 0.1831(24) 172293. 0.17639 0.17903
13305.0 1.40768 0.1841(24) 171376. 0.17642 0.17969
13315.0 1.40874 0.1806(24) 174329. 0.17645 0.18062
13325.0 1.40980 0.1842(24) 171188. 0.17648 0.18191
13335.0 1.41086 0.1859(24) 170262. 0.17651 0.18363
13345.0 1.41192 0.1851(24) 171207. 0.17654 0.18584
13355.0 1.41298 0.1873(24) 169466. 0.17657 0.18854
13365.0 1.41403 0.1946(25) 163906. 0.17660 0.19164
13375.0 1.41509 0.1935(25) 164872. 0.17663 0.19500
13385.0 1.41615 0.1992(25) 160903. 0.17666 0.19833
13395.0 1.41721 0.2002(25) 160354. 0.17669 0.20126
13405.0 1.41827 0.2078(25) 155248. 0.17672 0.20332
13415.0 1.41933 0.2050(25) 157196. 0.17675 0.20434
13425.0 1.42039 0.2056(25) 156744. 0.17678 0.20420
13435.0 1.42145 0.2090(25) 154543. 0.17682 0.20319
13445.0 1.42251 0.2041(25) 157932. 0.17685 0.20171
13455.0 1.42357 0.2046(25) 157658. 0.17688 0.20009
13465.0 1.42462 0.2026(25) 158994. 0.17691 0.19858
13475.0 1.42568 0.1995(25) 161510. 0.17694 0.19729
13485.0 1.42674 0.2012(25) 160434. 0.17697 0.19644
13495.0 1.42780 0.2008(25) 160797. 0.17700 0.19588
13505.0 1.42886 0.1974(25) 163474. 0.17704 0.19569
13515.0 1.42992 0.2003(25) 161467. 0.17707 0.19579
13525.0 1.43098 0.1992(25) 162387. 0.17710 0.19597
13535.0 1.43204 0.1977(25) 163521. 0.17713 0.19596
13545.0 1.43310 0.1979(25) 163510. 0.17716 0.19559
13555.0 1.43416 0.1971(25) 164281. 0.17720 0.19475
13565.0 1.43521 0.1955(25) 165653. 0.17723 0.19353
13575.0 1.43627 0.1982(25) 163642. 0.17726 0.19214
13585.0 1.43733 0.1943(24) 166874. 0.17729 0.19085
13595.0 1.43839 0.1934(24) 167652. 0.17733 0.18988
13605.0 1.43945 0.1874(24) 172562. 0.17736 0.18939
13615.0 1.44051 0.1902(24) 170458. 0.17739 0.18945
13625.0 1.44157 0.1927(24) 168521. 0.17742 0.19009
13635.0 1.44263 0.1919(24) 169262. 0.17746 0.19122
13645.0 1.44369 0.1967(25) 165639. 0.17749 0.19270
13655.0 1.44475 0.2003(25) 163127. 0.17752 0.19427
13665.0 1.44580 0.1987(25) 164501. 0.17756 0.19573
13675.0 1.44686 0.2070(25) 158608. 0.17759 0.19676
13685.0 1.44792 0.2014(25) 162715. 0.17762 0.19725
13695.0 1.44898 0.2011(25) 162775. 0.17766 0.19710
13705.0 1.45004 0.1973(25) 165842. 0.17769 0.19638
13715.0 1.45110 0.2009(25) 163271. 0.17772 0.19518
13725.0 1.45216 0.1971(25) 166263. 0.17776 0.19359
13735.0 1.45322 0.1950(24) 167939. 0.17779 0.19179
13745.0 1.45428 0.1937(24) 168992. 0.17782 0.18995
13755.0 1.45534 0.1880(24) 173783. 0.17786 0.18824
13765.0 1.45639 0.1860(24) 175748. 0.17789 0.18676
13775.0 1.45745 0.1831(24) 178377. 0.17792 0.18558
13785.0 1.45851 0.1907(24) 172117. 0.17796 0.18472
13795.0 1.45957 0.1842(24) 177749. 0.17799 0.18419
13805.0 1.46063 0.1859(24) 176351. 0.17803 0.18399
13815.0 1.46169 0.1820(24) 179931. 0.17806 0.18415
13825.0 1.46275 0.1879(24) 175158. 0.17809 0.18470
13835.0 1.46381 0.1851(24) 177654. 0.17813 0.18574
13845.0 1.46487 0.1887(24) 174904. 0.17816 0.18740
13855.0 1.46593 0.1972(24) 168177. 0.17820 0.18985
13865.0 1.46698 0.1952(24) 169823. 0.17823 0.19327
13875.0 1.46804 0.2026(25) 164238. 0.17826 0.19786
13885.0 1.46910 0.1983(24) 167631. 0.17830 0.20371
13895.0 1.47016 0.2137(25) 156685. 0.17833 0.21081
13905.0 1.47122 0.2149(25) 156021. 0.17837 0.21895
13915.0 1.47228 0.2186(25) 153804. 0.17840 0.22773
13925.0 1.47334 0.2340(26) 144501. 0.17844 0.23629
13935.0 1.47440 0.2406(27) 140828. 0.17847 0.24397
13945.0 1.47546 0.2477(27) 137314. 0.17851 0.24956
13955.0 1.47652 0.2500(27) 136207. 0.17854 0.25210
13965.0 1.47758 0.2501(27) 136276. 0.17858 0.25106
13975.0 1.47863 0.2465(27) 138145. 0.17861 0.24668
13985.0 1.47969 0.2432(27) 139894. 0.17864 0.23980
13995.0 1.48075 0.2319(26) 146077. 0.17868 0.23154
14005.0 1.48181 0.2270(26) 148983. 0.17871 0.22299
14015.0 1.48287 0.2188(25) 154272. 0.17875 0.21488
14025.0 1.48393 0.2110(25) 159591. 0.17878 0.20780
14035.0 1.48499 0.2053(25) 163620. 0.17882 0.20205
14045.0 1.48605 0.2024(25) 165909. 0.17885 0.19772
14055.0 1.48711 0.1995(24) 168347. 0.17889 0.19476
14065.0 1.48817 0.1928(24) 173900. 0.17892 0.19299
14075.0 1.48922 0.1918(24) 174845. 0.17896 0.19217
14085.0 1.49028 0.1900(24) 176368. 0.17900 0.19203
14095.0 1.49134 0.1946(24) 172433. 0.17903 0.19232
14105.0 1.49240 0.1905(24) 175735. 0.17907 0.19278
14115.0 1.49346 0.1943(24) 173054. 0.17910 0.19315
14125.0 1.49452 0.1914(24) 175551. 0.17914 0.19324
14135.0 1.49558 0.1954(24) 172383. 0.17917 0.19296
14145.0 1.49664 0.1980(24) 170436. 0.17921 0.19235
14155.0 1.49770 0.1926(24) 174694. 0.17924 0.19154
14165.0 1.49876 0.1931(24) 174478. 0.17928 0.19069
14175.0 1.49981 0.1879(24) 179166. 0.17931 0.18996
14185.0 1.50087 0.1876(24) 179731. 0.17935 0.18945
14195.0 1.50193 0.1937(24) 174718. 0.17938 0.18925
14205.0 1.50299 0.1903(24) 177559. 0.17942 0.18937
14215.0 1.50405 0.1957(24) 173163. 0.17945 0.18977
14225.0 1.50511 0.1955(24) 173518. 0.17949 0.19039
14235.0 1.50617 0.1929(24) 175690. 0.17953 0.19113
14245.0 1.50723 0.1909(24) 177534. 0.17956 0.19181
14255.0 1.50829 0.1929(24) 176016. 0.17960 0.19232
14265.0 1.50935 0.1915(24) 177304. 0.17963 0.19247
14275.0 1.51041 0.1917(24) 176980. 0.17967 0.19223
14285.0 1.51146 0.1934(24) 175769. 0.17970 0.19167
14295.0 1.51252 0.1911(24) 177506. 0.17974 0.19089
14305.0 1.51358 0.1964(24) 172978. 0.17978 0.19002
14315.0 1.51464 0.1898(24) 178683. 0.17981 0.18917
14325.0 1.51570 0.1880(24) 180512. 0.17985 0.18846
14335.0 1.51676 0.1887(24) 180153. 0.17988 0.18789
14345.0 1.51782 0.1880(24) 181026. 0.17992 0.18752
14355.0 1.51888 0.1880(23) 181256. 0.17995 0.18738
14365.0 1.51994 0.1871(23) 181988. 0.17999 0.18748
14375.0 1.52100 0.1903(24) 179338. 0.18003 0.18786
14385.0 1.52206 0.1915(24) 178378. 0.18006 0.18861
14395.0 1.52311 0.1895(24) 180228. 0.18010 0.18971
14405.0 1.52417 0.1927(24) 177584. 0.18013 0.19132
14415.0 1.52523 0.1977(24) 173561. 0.18017 0.19370
14425.0 1.52629 0.1955(24) 175367. 0.18021 0.19701
14435.0 1.52735 0.2071(25) 166519. 0.18024 0.20156
14445.0 1.52841 0.2127(25) 162673. 0.18028 0.20761
14455.0 1.52947 0.2159(25) 160423. 0.18031 0.21542
14465.0 1.53053 0.2271(26) 153118. 0.18035 0.22502
14475.0 1.53159 0.2434(26) 143705. 0.18039 0.23661
14485.0 1.53265 0.2481(27) 141118. 0.18042 0.24992
14495.0 1.53370 0.2618(27) 134435. 0.18046 0.26450
14505.0 1.53476 0.2770(28) 127748. 0.18049 0.27961
14515.0 1.53582 0.2918(29) 121788. 0.18053 0.29422
14525.0 1.53688 0.3073(29) 116119. 0.18057 0.30704
14535.0 1.53794 0.3182(30) 112493. 0.18060 0.31714
14545.0 1.53900 0.3226(30) 111146. 0.18064 0.32402
14555.0 1.54006 0.3284(30) 109356. 0.18067 0.32787
14565.0 1.54112 0.3283(30) 109374. 0.18071 0.32922
14575.0 1.54218 0.3300(30) 108803. 0.18075 0.32848
14585.0 1.54324 0.3288(30) 109236. 0.18078 0.32565
14595.0 1.54430 0.3183(30) 112652. 0.18082 0.32036
14605.0 1.54535 0.3130(30) 114538. 0.18085 0.31221
14615.0 1.54641 0.3021(29) 118461. 0.18089 0.30125
14625.0 1.54747 0.2869(28) 124373. 0.18093 0.28809
14635.0 1.54853 0.2749(28) 129377. 0.18096 0.27376
14645.0 1.54959 0.2646(27) 134146. 0.18100 0.25929
14655.0 1.55065 0.2516(27) 140749. 0.18103 0.24556
14665.0 1.55171 0.2358(26) 149453. 0.18107 0.23317
14675.0 1.55277 0.2253(25) 155899. 0.18111 0.22247
14685.0 1.55383 0.2191(25) 160127. 0.18114 0.21359
14695.0 1.55489 0.2130(25) 164416. 0.18118 0.20648
14705.0 1.55595 0.2020(24) 172542. 0.18121 0.20098
14715.0 1.55700 0.2002(24) 174056. 0.18125 0.19685
14725.0 1.55806 0.1960(24) 177727. 0.18129 0.19383
14735.0 1.55912 0.1958(24) 178097. 0.18132 0.19173
14745.0 1.56018 0.1955(24) 178380. 0.18136 0.19018
14755.0 1.56124 0.1947(24) 179023. 0.18139 0.18907
14765.0 1.56230 0.1921(23) 181523. 0.18143 0.18826
14775.0 1.56336 0.1870(23) 186078. 0.18147 0.18767
14785.0 1.56442 0.1896(23) 183906. 0.18150 0.18722
14795.0 1.56548 0.1892(23) 184406. 0.18154 0.18688
14805.0 1.56654 0.1896(23) 184177. 0.18157 0.18661
14815.0 1.56760 0.1850(23) 188431. 0.18161 0.18641
14825.0 1.56865 0.1861(23) 187614. 0.18164 0.18627
14835.0 1.56971 0.1882(23) 185765. 0.18168 0.18619
14845.0 1.57077 0.1898(23) 184396. 0.18172 0.18616
14855.0 1.57183 0.1888(23) 185415. 0.18175 0.18618
14865.0 1.57289 0.1909(23) 183774. 0.18179 0.18626
14875.0 1.57395 0.1886(23) 185916. 0.18182 0.18640
14885.0 1.57501 0.1903(23) 184417. 0.18186 0.18660
14895.0 1.57607 0.1913(23) 183686. 0.18190 0.18685
14905.0 1.57713 0.1889(23) 185892. 0.18193 0.18716
14915.0 1.57819 0.1916(23) 183640. 0.18197 0.18751
14925.0 1.57925 0.1937(23) 181861. 0.18200 0.18790
14935.0 1.58030 0.1871(23) 187725. 0.18204 0.18834
14945.0 1.58136 0.1885(23) 186757. 0.18207 0.18882
14955.0 1.58242 0.1876(23) 187807. 0.18211 0.18937
14965.0 1.58348 0.1908(23) 185095. 0.18215 0.19001
14975.0 1.58454 0.1875(23) 188118. 0.18218 0.19076
14985.0 1.58560 0.1927(23) 183423. 0.18222 0.19161
14995.0 1.58666 0.1950(23) 181461. 0.18225 0.19254
15005.0 1.58772 0.1938(23) 182506. 0.18229 0.19350
15015.0 1.58878 0.1943(23) 182179. 0.18232 0.19442
15025.0 1.58984 0.1953(23) 181341. 0.18236 0.19514
15035.0 1.59090 0.2021(24) 175763. 0.18240 0.19568
15045.0 1.59196 0.1968(24) 180119. 0.18243 0.19596
15055.0 1.59301 0.1956(24) 180867. 0.18247 0.19600
15065.0 1.59407 0.1959(24) 180626. 0.18250 0.19592
15075.0 1.59513 0.1976(24) 179333. 0.18254 0.19588
15085.0 1.59619 0.1966(24) 180166. 0.18257 0.19609
15095.0 1.59725 0.1985(24) 178640. 0.18261 0.19670
15105.0 1.59831 0.1998(24) 177626. 0.18264 0.19791
15115.0 1.59937 0.1984(24) 178927. 0.18268 0.19982
15125.0 1.60043 0.2035(24) 174876. 0.18272 0.20250
15135.0 1.60149 0.2061(24) 172865. 0.18275 0.20595
15145.0 1.60255 0.2120(24) 168475. 0.18279 0.21006
15155.0 1.60361 0.2159(25) 165743. 0.18282 0.21463
15165.0 1.60466 0.2202(25) 162855. 0.18286 0.21933
15175.0 1.60572 0.2269(25) 158296. 0.18289 0.22375
15185.0 1.60678 0.2311(25) 155727. 0.18293 0.22736
15195.0 1.60784 0.2294(25) 156878. 0.18296 0.22963
15205.0 1.60890 0.2264(25) 158957. 0.18300 0.23021
15215.0 1.60996 0.2259(25) 159418. 0.18303 0.22899
15225.0 1.61102 0.2261(25) 159476. 0.18307 0.22619
15235.0 1.61208 0.2265(25) 159429. 0.18310 0.22223
15245.0 1.61314 0.2212(25) 162907. 0.18314 0.21762
15255.0 1.61420 0.2085(24) 172108. 0.18318 0.21281
15265.0 1.61526 0.2086(24) 172202. 0.18321 0.20816
15275.0 1.61631 0.2028(24) 176720. 0.18325 0.20393
15285.0 1.61737 0.2029(24) 176699. 0.18328 0.20028
15295.0 1.61843 0.2018(24) 177685. 0.18332 0.19727
15305.0 1.61949 0.1998(24) 179336. 0.18335 0.19490
15315.0 1.62055 0.1968(23) 182019. 0.18339 0.19312
15325.0 1.62161 0.1921(23) 186292. 0.18342 0.19185
15335.0 1.62267 0.1953(23) 183336. 0.18346 0.19100
15345.0 1.62373 0.1912(23) 186775. 0.18349 0.19051
15355.0 1.62479 0.1899(23) 187975. 0.18353 0.19030
15365.0 1.62585 0.1943(23) 184033. 0.18356 0.19033
15375.0 1.62691 0.1903(23) 187748. 0.18360 0.19059
15385.0 1.62797 0.1912(23) 187085. 0.18363 0.19109
15395.0 1.62902 0.1949(23) 183889. 0.18367 0.19186
15405.0 1.63008 0.1889(23) 189379. 0.18370 0.19297
15415.0 1.63114 0.1952(23) 183779. 0.18373 0.19450
15425.0 1.63220 0.1974(23) 181912. 0.18377 0.19653
15435.0 1.63326 0.1990(24) 180633. 0.18380 0.19916
15445.0 1.63432 0.2029(24) 177506. 0.18384 0.20246
15455.0 1.63538 0.2093(24) 172666. 0.18387 0.20648
15465.0 1.63644 0.2133(24) 169666. 0.18391 0.21124
15475.0 1.63750 0.2204(25) 164702. 0.18394 0.21671
15485.0 1.63856 0.2258(25) 161158. 0.18398 0.22281
15495.0 1.63962 0.2334(25) 156295. 0.18401 0.22928
15505.0 1.64068 0.2412(26) 151627. 0.18405 0.23591
15515.0 1.64173 0.2422(26) 150943. 0.18408 0.24237
15525.0 1.64279 0.2464(26) 148778. 0.18412 0.24840
15535.0 1.64385 0.2557(26) 143843. 0.18415 0.25385
15545.0 1.64491 0.2603(27) 141394. 0.18419 0.25875
15555.0 1.64597 0.2685(27) 137467. 0.18422 0.26328
15565.0 1.64703 0.2656(27) 138813. 0.18425 0.26763
15575.0 1.64809 0.2714(27) 135915. 0.18429 0.27190
15585.0 1.64915 0.2795(28) 132116. 0.18432 0.27601
15595.0 1.65021 0.2849(28) 129781. 0.18436 0.27982
15605.0 1.65127 0.2886(28) 128181. 0.18439 0.28305
15615.0 1.65233 0.2853(28) 129678. 0.18443 0.28578
15625.0 1.65338 0.2893(28) 127989. 0.18446 0.28777
15635.0 1.65444 0.2904(28) 127514. 0.18449 0.28880
15645.0 1.65550 0.2886(28) 128181. 0.18453 0.28855
15655.0 1.65656 0.2883(28) 128332. 0.18456 0.28663
15665.0 1.65762 0.2836(28) 130306. 0.18460 0.28280
15675.0 1.65868 0.2839(28) 130203. 0.18463 0.27698
15685.0 1.65974 0.2721(27) 135556. 0.18466 0.26979
15695.0 1.66080 0.2636(27) 139672. 0.18470 0.26131
15705.0 1.66186 0.2524(26) 145456. 0.18473 0.25225
15715.0 1.66292 0.2526(26) 145470. 0.18477 0.24317
15725.0 1.66398 0.2350(25) 155943. 0.18480 0.23453
15735.0 1.66504 0.2338(25) 156773. 0.18483 0.22668
15745.0 1.66609 0.2257(25) 161891. 0.18487 0.21987
15755.0 1.66715 0.2149(24) 169353. 0.18490 0.21435
15765.0 1.66821 0.2103(24) 172590. 0.18494 0.20985
15775.0 1.66927 0.2094(24) 173325. 0.18497 0.20644
15785.0 1.67033 0.2099(24) 172899. 0.18500 0.20400
15795.0 1.67139 0.2070(24) 174993. 0.18504 0.20240
15805.0 1.67245 0.2075(24) 174662. 0.18507 0.20146
15815.0 1.67351 0.2036(24) 177923. 0.18511 0.20103
15825.0 1.67457 0.1985(23) 182261. 0.18514 0.20097
15835.0 1.67563 0.2054(24) 176723. 0.18517 0.20115
15845.0 1.67669 0.2061(24) 176105. 0.18521 0.20152
15855.0 1.67775 0.1997(23) 181241. 0.18524 0.20208
15865.0 1.67880 0.2020(24) 179388. 0.18527 0.20291
15875.0 1.67986 0.2036(24) 178100. 0.18531 0.20415
15885.0 1.68092 0.2070(24) 175354. 0.18534 0.20600
15895.0 1.68198 0.2062(24) 176244. 0.18537 0.20866
15905.0 1.68304 0.2095(24) 173766. 0.18541 0.21231
15915.0 1.68410 0.2204(25) 165743. 0.18544 0.21711
15925.0 1.68516 0.2164(24) 168801. 0.18547 0.22312
15935.0 1.68622 0.2330(25) 157571. 0.18551 0.23031
15945.0 1.68728 0.2411(26) 152590. 0.18554 0.23849
15955.0 1.68834 0.2465(26) 149288. 0.18558 0.24735
15965.0 1.68940 0.2565(26) 143797. 0.18561 0.25638
15975.0 1.69046 0.2605(27) 141829. 0.18564 0.26490
15985.0 1.69151 0.2669(27) 138682. 0.18567 0.27210
15995.0 1.69257 0.2744(27) 135176. 0.18571 0.27712
16005.0 1.69363 0.2746(27) 135135. 0.18574 0.27927
16015.0 1.69469 0.2754(27) 134595. 0.18577 0.27821
16025.0 1.69575 0.2707(27) 136754. 0.18581 0.27412
16035.0 1.69681 0.2667(27) 138674. 0.18584 0.26766
16045.0 1.69787 0.2524(26) 146191. 0.18587 0.25941
16055.0 1.69893 0.2484(26) 148365. 0.18591 0.25027
16065.0 1.69999 0.2405(26) 153166. 0.18594 0.24095
16075.0 1.70105 0.2326(25) 158314. 0.18597 0.23201
16085.0 1.70211 0.2256(25) 162952. 0.18601 0.22384
16095.0 1.70317 0.2139(24) 171143. 0.18604 0.21668
16105.0 1.70423 0.2125(24) 172363. 0.18607 0.21063
16115.0 1.70528 0.2086(24) 175412. 0.18611 0.20570
16125.0 1.70634 0.2045(24) 178626. 0.18614 0.20181
16135.0 1.70740 0.1977(23) 184287. 0.18617 0.19880
16145.0 1.70846 0.1926(23) 188711. 0.18620 0.19654
16155.0 1.70952 0.1957(23) 185884. 0.18624 0.19486
16165.0 1.71058 0.1912(23) 189893. 0.18627 0.19364
16175.0 1.71164 0.1983(23) 183379. 0.18630 0.19274
16185.0 1.71270 0.1926(23) 188126. 0.18634 0.19209
16195.0 1.71376 0.1935(23) 187125. 0.18637 0.19161
16205.0 1.71482 0.1906(23) 189669. 0.18640 0.19125
16215.0 1.71588 0.1924(23) 187940. 0.18643 0.19097
16225.0 1.71694 0.1876(23) 192508. 0.18647 0.19075
16235.0 1.71799 0.1924(23) 188069. 0.18650 0.19058
16245.0 1.71905 0.1893(23) 191042. 0.18653 0.19043
16255.0 1.72011 0.1862(23) 193820. 0.18656 0.19032
16265.0 1.72117 0.1938(23) 186515. 0.18660 0.19022
16275.0 1.72223 0.1906(23) 189467. 0.18663 0.19014
16285.0 1.72329 0.1891(23) 191084. 0.18666 0.19008
16295.0 1.72435 0.1932(23) 187196. 0.18669 0.19003
16305.0 1.72541 0.1870(23) 192998. 0.18673 0.18999
16315.0 1.72647 0.1910(23) 189385. 0.18676 0.18996
16325.0 1.72753 0.1913(23) 189014. 0.18679 0.18994
16335.0 1.72859 0.1893(23) 190751. 0.18682 0.18993
16345.0 1.72965 0.1851(23) 194719. 0.18686 0.18989
16355.0 1.73071 0.1922(23) 188010. 0.18689 0.18990
16365.0 1.73176 0.1916(23) 188218. 0.18692 0.18991
16375.0 1.73282 0.1913(23) 188543. 0.18695 0.18993
16385.0 1.73388 0.1878(23) 191854. 0.18699 0.18996
16395.0 1.73494 0.1868(23) 192718. 0.18702 0.19000
16405.0 1.73600 0.1871(23) 192750. 0.18705 0.19004
16415.0 1.73706 0.1872(23) 192651. 0.18708 0.19008
16425.0 1.73812 0.1899(23) 190221. 0.18712 0.19014
16435.0 1.73918 0.1860(23) 193840. 0.18715 0.19020
16445.0 1.74024 0.1841(23) 195535. 0.18718 0.19026
16455.0 1.74130 0.1912(23) 188672. 0.18721 0.19033
16465.0 1.74236 0.1876(23) 191825. 0.18725 0.19041
16475.0 1.74342 0.1878(23) 191730. 0.18728 0.19050
16485.0 1.74448 0.1838(23) 195555. 0.18731 0.19059
16495.0 1.74553 0.1890(23) 190373. 0.18734 0.19069
16505.0 1.74659 0.1866(23) 192595. 0.18737 0.19079
16515.0 1.74765 0.1861(23) 193151. 0.18741 0.19091
16525.0 1.74871 0.1920(23) 187657. 0.18744 0.19103
16535.0 1.74977 0.1841(23) 195359. 0.18747 0.19116
16545.0 1.75083 0.1876(23) 191828. 0.18750 0.19131
16555.0 1.75189 0.1873(23) 192129. 0.18753 0.19146
16565.0 1.75295 0.1881(23) 191242. 0.18757 0.19163
16575.0 1.75401 0.1957(23) 184292. 0.18760 0.19181
16585.0 1.75507 0.1875(23) 191653. 0.18763 0.19200
16595.0 1.75613 0.1883(23) 190742. 0.18766 0.19222
16605.0 1.75719 0.1911(23) 188114. 0.18769 0.19245
16615.0 1.75824 0.1881(23) 190806. 0.18773 0.19272
16625.0 1.75930 0.1887(23) 190275. 0.18776 0.19302
16635.0 1.76036 0.1921(23) 186869. 0.18779 0.19337
16645.0 1.76142 0.1911(23) 187759. 0.18782 0.19378
16655.0 1.76248 0.1893(23) 189357. 0.18785 0.19428
16665.0 1.76354 0.1911(23) 187705. 0.18789 0.19491
16675.0 1.76460 0.1908(23) 187835. 0.18792 0.19570
16685.0 1.76566 0.1889(23) 189483. 0.18795 0.19671
16695.0 1.76672 0.1979(23) 181331. 0.18798 0.19802
16705.0 1.76778 0.1979(23) 181197. 0.18801 0.19970
16715.0 1.76884 0.1963(23) 182444. 0.18805 0.20183
16725.0 1.76990 0.2010(24) 178320. 0.18808 0.20452
16735.0 1.77096 0.2028(24) 176819. 0.18811 0.20782
16745.0 1.77201 0.2083(24) 172467. 0.18814 0.21175
16755.0 1.77307 0.2136(24) 168118. 0.18817 0.21639
16765.0 1.77413 0.2185(25) 164441. 0.18821 0.22167
16775.0 1.77519 0.2210(25) 162592. 0.18824 0.22747
16785.0 1.77625 0.2299(25) 156450. 0.18827 0.23360
16795.0 1.77731 0.2387(26) 150852. 0.18830 0.23982
16805.0 1.77837 0.2381(26) 151103. 0.18833 0.24576
16815.0 1.77943 0.2506(26) 143712. 0.18837 0.25098
16825.0 1.78049 0.2584(27) 139403. 0.18840 0.25513
16835.0 1.78155 0.2533(27) 141986. 0.18843 0.25782
16845.0 1.78261 0.2578(27) 139564. 0.18846 0.25889
16855.0 1.78367 0.2532(27) 141930. 0.18849 0.25841
16865.0 1.78473 0.2480(26) 144434. 0.18852 0.25674
16875.0 1.78579 0.2540(27) 141146. 0.18856 0.25432
16885.0 1.78684 0.2475(26) 144474. 0.18859 0.25186
16895.0 1.78790 0.2469(26) 144639. 0.18862 0.24992
16905.0 1.78896 0.2432(26) 146598. 0.18865 0.24904
16915.0 1.79002 0.2453(26) 145261. 0.18868 0.24976
16925.0 1.79108 0.2458(26) 145003. 0.18871 0.25248
16935.0 1.79214 0.2549(27) 140065. 0.18875 0.25747
16945.0 1.79320 0.2598(27) 137486. 0.18878 0.26488
16955.0 1.79426 0.2712(28) 131705. 0.18881 0.27469
16965.0 1.79532 0.2894(28) 123583. 0.18884 0.28669
16975.0 1.79638 0.3003(29) 119132. 0.18887 0.30047
16985.0 1.79744 0.3127(30) 114525. 0.18891 0.31543
16995.0 1.79850 0.3323(30) 108048. 0.18894 0.33075
17005.0 1.79956 0.3413(31) 105159. 0.18897 0.34544
17015.0 1.80061 0.3544(31) 101262. 0.18900 0.35842
17025.0 1.80167 0.3700(32) 97176. 0.18903 0.36865
17035.0 1.80273 0.3644(32) 98535. 0.18906 0.37538
17045.0 1.80379 0.3717(32) 96530. 0.18910 0.37840
17055.0 1.80485 0.3728(32) 96189. 0.18913 0.37815
17065.0 1.80591 0.3747(32) 95592. 0.18916 0.37555
17075.0 1.80697 0.3711(32) 96462. 0.18919 0.37185
17085.0 1.80803 0.3654(32) 97842. 0.18922 0.36826
17095.0 1.80909 0.3602(32) 99171. 0.18926 0.36585
17105.0 1.81015 0.3679(32) 97070. 0.18929 0.36534
17115.0 1.81121 0.3629(32) 98284. 0.18932 0.36711
17125.0 1.81227 0.3713(32) 96063. 0.18935 0.37109
17135.0 1.81333 0.3866(33) 92322. 0.18938 0.37683
17145.0 1.81439 0.3872(33) 92176. 0.18941 0.38344
17155.0 1.81544 0.3922(33) 90873. 0.18945 0.38974
17165.0 1.81650 0.4059(34) 87883. 0.18948 0.39434
17175.0 1.81756 0.4065(34) 87697. 0.18951 0.39590
17185.0 1.81862 0.4072(34) 87539. 0.18954 0.39349
17195.0 1.81968 0.3961(33) 89794. 0.18957 0.38677
17205.0 1.82074 0.3816(33) 93022. 0.18961 0.37603
17215.0 1.82180 0.3760(33) 94323. 0.18964 0.36206
17225.0 1.82286 0.3464(31) 101954. 0.18967 0.34583
17235.0 1.82392 0.3334(31) 105736. 0.18970 0.32858
17245.0 1.82498 0.3104(30) 113227. 0.18973 0.31123
17255.0 1.82604 0.2906(29) 120565. 0.18976 0.29459
17265.0 1.82710 0.2745(28) 127245. 0.18980 0.27931
17275.0 1.82816 0.2568(27) 135420. 0.18983 0.26585
17285.0 1.82921 0.2453(27) 141301. 0.18986 0.25450
17295.0 1.83027 0.2429(27) 142382. 0.18989 0.24541
17305.0 1.83133 0.2325(26) 148222. 0.18992 0.23860
17315.0 1.83239 0.2286(26) 150387. 0.18996 0.23407
17325.0 1.83345 0.2309(26) 148796. 0.18999 0.23176
17335.0 1.83451 0.2299(26) 149173. 0.19002 0.23157
17345.0 1.83557 0.2295(26) 149296. 0.19005 0.23344
17355.0 1.83663 0.2360(26) 145204. 0.19008 0.23728
17365.0 1.83769 0.2425(27) 141443. 0.19012 0.24298
17375.0 1.83875 0.2519(27) 136336. 0.19015 0.25039
17385.0 1.83981 0.2558(27) 134257. 0.19018 0.25933
17395.0 1.84087 0.2659(28) 129237. 0.19021 0.26951
17405.0 1.84193 0.2835(29) 121581. 0.19024 0.28054
17415.0 1.84299 0.2997(29) 115152. 0.19028 0.29192
17425.0 1.84404 0.3051(30) 113222. 0.19031 0.30301
17435.0 1.84510 0.3182(30) 108672. 0.19034 0.31307
17445.0 1.84616 0.3233(31) 106975. 0.19037 0.32130
17455.0 1.84722 0.3302(31) 104775. 0.19041 0.32697
17465.0 1.84828 0.3322(31) 104024. 0.19044 0.32960
17475.0 1.84934 0.3246(31) 106283. 0.19047 0.32905
17485.0 1.85040 0.3184(30) 108148. 0.19050 0.32569
17495.0 1.85146 0.3187(30) 107935. 0.19053 0.31979
17505.0 1.85252 0.3096(30) 110806. 0.19057 0.31213
17515.0 1.85358 0.3025(30) 113205. 0.19060 0.30337
17525.0 1.85464 0.2948(29) 115944. 0.19063 0.29408
17535.0 1.85570 0.2828(29) 120408. 0.19066 0.28467
17545.0 1.85676 0.2730(28) 124361. 0.19070 0.27543
17555.0 1.85782 0.2607(28) 129721. 0.19073 0.26654
17565.0 1.85887 0.2581(28) 130817. 0.19076 0.25811
17575.0 1.85993 0.2497(27) 134842. 0.19079 0.25019
17585.0 1.86099 0.2417(27) 138937. 0.19083 0.24285
17595.0 1.86205 0.2349(26) 142690. 0.19086 0.23613
17605.0 1.86311 0.2286(26) 146265. 0.19089 0.23005
17615.0 1.86417 0.2227(26) 149712. 0.19092 0.22463
17625.0 1.86523 0.2205(26) 150907. 0.19096 0.21986
17635.0 1.86629 0.2131(25) 155469. 0.19099 0.21570
17645.0 1.86735 0.2134(25) 155182. 0.19102 0.21212
17655.0 1.86841 0.2093(25) 157781. 0.19106 0.20907
17665.0 1.86947 0.2076(25) 158654. 0.19109 0.20650
17675.0 1.87053 0.2053(25) 160040. 0.19112 0.20436
17685.0 1.87159 0.2031(25) 161357. 0.19115 0.20260
17695.0 1.87265 0.2021(25) 161725. 0.19119 0.20117
17705.0 1.87371 0.2008(25) 162515. 0.19122 0.20000
17715.0 1.87476 0.1941(24) 167736. 0.19125 0.19907
17725.0 1.87582 0.2006(25) 162358. 0.19128 0.19832
17735.0 1.87688 0.1978(25) 164309. 0.19132 0.19772
17745.0 1.87794 0.1974(25) 164478. 0.19135 0.19723
17755.0 1.87900 0.1966(25) 164722. 0.19138 0.19683
17765.0 1.88006 0.2045(25) 158236. 0.19142 0.19650
17775.0 1.88112 0.1993(25) 161835. 0.19145 0.19623
17785.0 1.88218 0.1961(25) 164000. 0.19148 0.19600
17795.0 1.88324 0.1980(25) 162322. 0.19152 0.19580
17805.0 1.88430 0.1937(25) 165477. 0.19155 0.19562
17815.0 1.88536 0.1970(25) 162634. 0.19158 0.19547
17825.0 1.88642 0.1956(25) 163496. 0.19162 0.19533
17835.0 1.88748 0.1972(25) 161987. 0.19165 0.19521
17845.0 1.88854 0.1914(25) 166248. 0.19168 0.19510
17855.0 1.88959 0.1950(25) 163005. 0.19172 0.19500
17865.0 1.89065 0.1955(25) 162301. 0.19175 0.19491
17875.0 1.89171 0.1900(25) 166265. 0.19178 0.19483
17885.0 1.89277 0.1922(25) 164033. 0.19182 0.19476
17895.0 1.89383 0.1882(24) 166868. 0.19185 0.19470
17905.0 1.89489 0.1907(25) 164471. 0.19188 0.19464
17915.0 1.89595 0.1961(25) 159970. 0.19192 0.19459
17925.0 1.89701 0.1929(25) 162271. 0.19195 0.19455
17935.0 1.89807 0.1907(25) 163713. 0.19198 0.19451
17945.0 1.89913 0.1909(25) 163181. 0.19202 0.19447
17955.0 1.90019 0.1918(25) 162206. 0.19205 0.19444
17965.0 1.90125 0.1904(25) 162861. 0.19209 0.19441
17975.0 1.90231 0.1963(25) 157852. 0.19212 0.19439
17985.0 1.90337 0.1920(25) 160891. 0.19215 0.19437
17995.0 1.90443 0.1952(25) 158190. 0.19219 0.19435
18005.0 1.90548 0.1962(25) 157037. 0.19222 0.19433
18015.0 1.90654 0.1959(25) 156893. 0.19225 0.19432
18025.0 1.90760 0.1893(25) 161760. 0.19229 0.19432
18035.0 1.90866 0.1911(25) 159911. 0.19232 0.19431
18045.0 1.90972 0.1880(25) 162308. 0.19236 0.19431
18055.0 1.91078 0.1927(25) 158240. 0.19239 0.19431
18065.0 1.91184 0.1873(25) 162260. 0.19243 0.19431
18075.0 1.91290 0.1952(25) 155675. 0.19246 0.19431
18085.0 1.91396 0.1879(25) 161028. 0.19249 0.19432
18095.0 1.91502 0.1894(25) 159666. 0.19253 0.19432
18105.0 1.91608 0.1906(25) 158624. 0.19256 0.19433
18115.0 1.91714 0.1921(25) 157260. 0.19260 0.19434
18125.0 1.91820 0.1962(25) 154051. 0.19263 0.19436
18135.0 1.91926 0.1896(25) 158584. 0.19267 0.19437
18145.0 1.92032 0.1928(25) 155706. 0.19270 0.19433
18155.0 1.92137 0.1935(25) 154846. 0.19274 0.19435
18165.0 1.92243 0.1939(25) 154116. 0.19277 0.19437
18175.0 1.92349 0.1897(25) 156870. 0.19281 0.19440
18185.0 1.92455 0.1939(26) 153485. 0.19284 0.19442
18195.0 1.92561 0.1933(26) 153600. 0.19288 0.19444
18205.0 1.92667 0.1929(26) 153619. 0.19291 0.19447
18215.0 1.92773 0.1899(25) 155667. 0.19294 0.19450
18225.0 1.92879 0.1924(26) 153551. 0.19298 0.19453
18235.0 1.92985 0.1944(26) 151744. 0.19302 0.19456
18245.0 1.93091 0.1901(25) 154610. 0.19305 0.19459
18255.0 1.93197 0.1929(26) 152213. 0.19309 0.19462
18265.0 1.93303 0.1922(26) 152561. 0.19312 0.19466
18275.0 1.93409 0.1968(26) 148880. 0.19316 0.19470
18285.0 1.93515 0.1974(26) 148006. 0.19319 0.19473
18295.0 1.93621 0.1934(26) 150581. 0.19323 0.19477
18305.0 1.93726 0.1853(25) 156350. 0.19326 0.19481
18315.0 1.93832 0.1949(26) 148770. 0.19330 0.19486
18325.0 1.93938 0.1913(26) 151196. 0.19333 0.19490
18335.0 1.94044 0.1940(26) 148910. 0.19337 0.19479
18345.0 1.94150 0.1959(26) 147213. 0.19340 0.19484
18355.0 1.94256 0.1960(26) 146761. 0.19344 0.19489
18365.0 1.94362 0.1925(26) 148812. 0.19348 0.19495
18375.0 1.94468 0.1939(26) 147617. 0.19351 0.19500
18385.0 1.94574 0.1910(26) 149406. 0.19355 0.19506
18395.0 1.94680 0.1946(26) 146547. 0.19358 0.19512
18405.0 1.94786 0.1979(26) 144021. 0.19362 0.19518
18415.0 1.94892 0.2003(27) 142098. 0.19366 0.19525
18425.0 1.94998 0.1984(26) 143225. 0.19369 0.19532
18435.0 1.95104 0.1943(26) 145813. 0.19373 0.19539
18445.0 1.95210 0.2003(27) 141617. 0.19377 0.19546
18455.0 1.95316 0.1966(26) 143818. 0.19380 0.19554
18465.0 1.95421 0.1926(26) 146355. 0.19384 0.19562
18475.0 1.95527 0.1931(26) 145730. 0.19387 0.19570
18485.0 1.95633 0.1945(26) 144348. 0.19391 0.19579
18495.0 1.95739 0.1925(26) 145536. 0.19395 0.19589
18505.0 1.95845 0.1981(27) 141333. 0.19398 0.19598
18515.0 1.95951 0.1906(26) 146249. 0.19402 0.19609
18525.0 1.96057 0.1951(26) 142667. 0.19406 0.19620
18535.0 1.96163 0.1992(27) 139530. 0.19410 0.19632
18545.0 1.96269 0.1927(26) 143667. 0.19413 0.19646
18555.0 1.96375 0.2004(27) 138099. 0.19417 0.19660
18565.0 1.96481 0.1939(27) 142311. 0.19421 0.19661
18575.0 1.96587 0.1969(27) 140115. 0.19424 0.19680
18585.0 1.96693 0.1943(27) 141658. 0.19428 0.19702
18595.0 1.96799 0.1996(27) 137894. 0.19432 0.19727
18605.0 1.96905 0.1980(27) 138739. 0.19436 0.19759
18615.0 1.97011 0.1964(27) 139661. 0.19439 0.19797
18625.0 1.97116 0.1990(27) 137676. 0.19443 0.19844
18635.0 1.97222 0.1974(27) 138483. 0.19447 0.19901
18645.0 1.97328 0.1998(27) 136667. 0.19451 0.19973
18655.0 1.97434 0.1977(27) 137621. 0.19454 0.20061
18665.0 1.97540 0.2032(27) 133869. 0.19458 0.20168
18675.0 1.97646 0.2035(27) 133348. 0.19462 0.20296
18685.0 1.97752 0.2061(28) 131547. 0.19466 0.20449
18695.0 1.97858 0.2062(28) 131038. 0.19469 0.20626
18705.0 1.97964 0.2093(28) 129076. 0.19473 0.20829
18715.0 1.98070 0.2104(28) 128137. 0.19477 0.21056
18725.0 1.98176 0.2176(28) 123810. 0.19481 0.21304
18735.0 1.98282 0.2136(28) 125829. 0.19485 0.21567
18745.0 1.98388 0.2149(28) 124720. 0.19489 0.21839
18755.0 1.98494 0.2193(29) 122195. 0.19492 0.22109
18765.0 1.98600 0.2242(29) 119373. 0.19496 0.22366
18775.0 1.98706 0.2246(29) 118812. 0.19500 0.22597
18785.0 1.98811 0.2230(29) 119466. 0.19504 0.22787
18795.0 1.98917 0.2279(29) 116873. 0.19508 0.22925
18805.0 1.99023 0.2319(30) 114806. 0.19512 0.23002
18815.0 1.99129 0.2303(29) 115376. 0.19516 0.23021
18825.0 1.99235 0.2310(29) 115030. 0.19520 0.22972
18835.0 1.99341 0.2290(29) 115837. 0.19524 0.22871
18845.0 1.99447 0.2249(29) 117632. 0.19527 0.22719
18855.0 1.99553 0.2296(29) 115094. 0.19531 0.22554
18865.0 1.99659 0.2204(29) 119535. 0.19535 0.22381
18875.0 1.99765 0.2216(29) 118689. 0.19539 0.22215
18885.0 1.99871 0.2235(29) 117523. 0.19543 0.22074
18895.0 1.99977 0.2179(29) 120282. 0.19547 0.21971
18905.0 2.00083 0.2272(29) 115463. 0.19551 0.21922
18915.0 2.00189 0.2183(29) 119784. 0.19555 0.21941
18925.0 2.00295 0.2244(29) 116599. 0.19559 0.22046
18935.0 2.00401 0.2261(29) 115554. 0.19563 0.22241
18945.0 2.00506 0.2235(29) 116581. 0.19567 0.22541
18955.0 2.00612 0.2327(30) 112031. 0.19571 0.22959
18965.0 2.00718 0.2359(30) 110391. 0.19575 0.23502
18975.0 2.00824 0.2472(31) 105391. 0.19579 0.24174
18985.0 2.00930 0.2531(31) 102945. 0.19583 0.24973
18995.0 2.01036 0.2645(32) 98498. 0.19587 0.25895
19005.0 2.01142 0.2675(32) 97339. 0.19591 0.26923
19015.0 2.01248 0.2832(33) 91993. 0.19595 0.28037
19025.0 2.01354 0.2937(34) 88661. 0.19599 0.29204
19035.0 2.01460 0.3079(34) 84598. 0.19603 0.30383
19045.0 2.01566 0.3199(35) 81306. 0.19607 0.31522
19055.0 2.01672 0.336(4) 77558. 0.1961 0.3256
19065.0 2.01778 0.336(4) 77382. 0.1962 0.3343
19075.0 2.01884 0.334(4) 77679. 0.1962 0.3408
19085.0 2.01990 0.355(4) 73360. 0.1962 0.3445
19095.0 2.02096 0.346(4) 74973. 0.1963 0.3451
19105.0 2.02202 0.342(4) 75794. 0.1963 0.3426
19115.0 2.02307 0.339(4) 76333. 0.1964 0.3373
19125.0 2.02413 0.330(4) 78388. 0.1964 0.3296
19135.0 2.02519 0.320(4) 80535. 0.1964 0.3200
19145.0 2.02625 0.3075(35) 83487. 0.19649 0.30914
19155.0 2.02731 0.2958(34) 86504. 0.19653 0.29763
19165.0 2.02837 0.2875(34) 88856. 0.19657 0.28595
19175.0 2.02943 0.2784(33) 91464. 0.19661 0.27455
19185.0 2.03049 0.2601(32) 97464. 0.19665 0.26374
19195.0 2.03155 0.2542(32) 99509. 0.19670 0.25379
19205.0 2.03261 0.2498(31) 101093. 0.19674 0.24484
19215.0 2.03367 0.2378(31) 105733. 0.19678 0.23697
19225.0 2.03473 0.2344(31) 107031. 0.19682 0.23020
19235.0 2.03579 0.2256(30) 110877. 0.19687 0.22449
19245.0 2.03685 0.2209(30) 112999. 0.19691 0.21975
19255.0 2.03791 0.2181(30) 114132. 0.19695 0.21589
19265.0 2.03897 0.2170(30) 114480. 0.19699 0.21278
19275.0 2.04003 0.2187(30) 113507. 0.19704 0.21032
19285.0 2.04109 0.2097(29) 118012. 0.19708 0.20839
19295.0 2.04214 0.2078(29) 118778. 0.19712 0.20689
19305.0 2.04320 0.2127(29) 116079. 0.19717 0.20574
19315.0 2.04426 0.2079(29) 118304. 0.19721 0.20486
19325.0 2.04532 0.2034(29) 120595. 0.19725 0.20420
19335.0 2.04638 0.2065(29) 118596. 0.19729 0.20371
19345.0 2.04744 0.2091(29) 116991. 0.19734 0.20336
19355.0 2.04850 0.2043(29) 119140. 0.19738 0.20312
19365.0 2.04956 0.2029(29) 119734. 0.19743 0.20299
19375.0 2.05062 0.2090(29) 116270. 0.19747 0.20295
19385.0 2.05168 0.2057(29) 117929. 0.19751 0.20299
19395.0 2.05274 0.2065(29) 117335. 0.19756 0.20311
19405.0 2.05380 0.2055(29) 117833. 0.19760 0.20331
19415.0 2.05486 0.2097(29) 115322. 0.19765 0.20356
19425.0 2.05592 0.2071(29) 116476. 0.19769 0.20388
19435.0 2.05698 0.2059(29) 116952. 0.19773 0.20425
19445.0 2.05804 0.2097(30) 114661. 0.19778 0.20466
19455.0 2.05910 0.2078(29) 115413. 0.19782 0.20509
19465.0 2.06015 0.2081(29) 114970. 0.19787 0.20551
19475.0 2.06121 0.2062(29) 115682. 0.19791 0.20592
19485.0 2.06227 0.2116(30) 112630. 0.19796 0.20628
19495.0 2.06333 0.2080(30) 114320. 0.19800 0.20657
19505.0 2.06439 0.2140(30) 111131. 0.19805 0.20675
19515.0 2.06545 0.2081(30) 113992. 0.19809 0.20682
19525.0 2.06651 0.2075(30) 114048. 0.19814 0.20677
19535.0 2.06757 0.2070(30) 114177. 0.19818 0.20659
19545.0 2.06863 0.2066(30) 114178. 0.19823 0.20631
19555.0 2.06969 0.2022(29) 116198. 0.19827 0.20594
19565.0 2.07075 0.2043(30) 114803. 0.19832 0.20550
19575.0 2.07181 0.2034(29) 115024. 0.19836 0.20503
19585.0 2.07287 0.1994(29) 117057. 0.19841 0.20453
19595.0 2.07393 0.2051(30) 113864. 0.19846 0.20403
19605.0 2.07499 0.2043(30) 113973. 0.19850 0.20355
19615.0 2.07605 0.2009(29) 115638. 0.19855 0.20309
19625.0 2.07711 0.2019(30) 114896. 0.19859 0.20268
19635.0 2.07817 0.2027(30) 114249. 0.19864 0.20231
19645.0 2.07922 0.2040(30) 113379. 0.19869 0.20198
19655.0 2.08028 0.1991(29) 115886. 0.19873 0.20171
19665.0 2.08134 0.2090(30) 110542. 0.19878 0.20148
19675.0 2.08240 0.2037(30) 112964. 0.19883 0.20129
19685.0 2.08346 0.2032(30) 113141. 0.19887 0.20122
19695.0 2.08452 0.2009(30) 114061. 0.19892 0.20111
19705.0 2.08558 0.2029(30) 112865. 0.19897 0.20103
19715.0 2.08664 0.2040(30) 112077. 0.19901 0.20097
19725.0 2.08770 0.1988(30) 114671. 0.19906 0.20093
19735.0 2.08876 0.2010(30) 113279. 0.19911 0.20090
19745.0 2.08982 0.2028(30) 112264. 0.19915 0.20089
19755.0 2.09088 0.2008(30) 113137. 0.19920 0.20089
19765.0 2.09194 0.1954(29) 116005. 0.19925 0.20090
19775.0 2.09300 0.2025(30) 111825. 0.19930 0.20092
19785.0 2.09406 0.2052(30) 110419. 0.19935 0.20094
19795.0 2.09512 0.2049(30) 110387. 0.19939 0.20096
19805.0 2.09618 0.2018(30) 111673. 0.19944 0.20099
19815.0 2.09724 0.2067(30) 109000. 0.19949 0.20103
19825.0 2.09829 0.2011(30) 111575. 0.19954 0.20106
19835.0 2.09935 0.1981(30) 112926. 0.19959 0.20110
19845.0 2.10041 0.2028(30) 110173. 0.19963 0.20114
19855.0 2.10147 0.2002(30) 111382. 0.19968 0.20118
19865.0 2.10253 0.1980(30) 112439. 0.19973 0.20123
19875.0 2.10359 0.2048(30) 108874. 0.19978 0.20127
19885.0 2.10465 0.1954(30) 113594. 0.19983 0.20132
19895.0 2.10571 0.1967(30) 112647. 0.19988 0.20137
19905.0 2.10677 0.2000(30) 110789. 0.19993 0.20142
19915.0 2.10783 0.1991(30) 111076. 0.19997 0.20148
19925.0 2.10889 0.1971(30) 111990. 0.20002 0.20153
19935.0 2.10995 0.2016(30) 109191. 0.20007 0.20159
19945.0 2.11101 0.2062(31) 106886. 0.20012 0.20165
19955.0 2.11207 0.2056(31) 107164. 0.20017 0.20171
19965.0 2.11313 0.2065(31) 106626. 0.20022 0.20177
19975.0 2.11419 0.2017(30) 108970. 0.20027 0.20183
19985.0 2.11525 0.2065(31) 106376. 0.20032 0.20190
19995.0 2.11631 0.2081(31) 105388. 0.20037 0.20197
20005.0 2.11737 0.2024(30) 108092. 0.20042 0.20204
20015.0 2.11842 0.2027(30) 107885. 0.20047 0.20211
20025.0 2.11948 0.1984(30) 109867. 0.20052 0.20219
20035.0 2.12054 0.1995(30) 109230. 0.20057 0.20226
20045.0 2.12160 0.2052(31) 106302. 0.20062 0.20234
20055.0 2.12266 0.2024(30) 107528. 0.20067 0.20242
20065.0 2.12372 0.2070(31) 105009. 0.20072 0.20250
20075.0 2.12478 0.2010(30) 107801. 0.20077 0.20259
20085.0 2.12584 0.1982(30) 109056. 0.20082 0.20267
20095.0 2.12690 0.1960(30) 110057. 0.20088 0.20276
20105.0 2.12796 0.2006(31) 107416. 0.20093 0.20286
20115.0 2.12902 0.2006(31) 107187. 0.20098 0.20295
20125.0 2.13008 0.1972(30) 108771. 0.20103 0.20305
20135.0 2.13114 0.2015(31) 106441. 0.20108 0.20315
20145.0 2.13220 0.2043(31) 104797. 0.20113 0.20326
20155.0 2.13326 0.2008(31) 106454. 0.20118 0.20337
20165.0 2.13432 0.2011(31) 106227. 0.20123 0.20348
20175.0 2.13538 0.2037(31) 104850. 0.20129 0.20360
20185.0 2.13644 0.1975(30) 107616. 0.20134 0.20372
20195.0 2.13750 0.2019(31) 105148. 0.20139 0.20385
20205.0 2.13856 0.1996(31) 105972. 0.20144 0.20399
20215.0 2.13961 0.2003(31) 105425. 0.20149 0.20413
20225.0 2.14067 0.2022(31) 104353. 0.20155 0.20427
20235.0 2.14173 0.2025(31) 104054. 0.20160 0.20443
20245.0 2.14279 0.1973(31) 106286. 0.20165 0.20459
20255.0 2.14385 0.2065(31) 101648. 0.20170 0.20477
20265.0 2.14491 0.2026(31) 103263. 0.20176 0.20494
20275.0 2.14597 0.2028(31) 102954. 0.20181 0.20514
20285.0 2.14703 0.2042(31) 102053. 0.20186 0.20534
20295.0 2.14809 0.2018(31) 102854. 0.20192 0.20557
20305.0 2.14915 0.2057(31) 100822. 0.20197 0.20582
20315.0 2.15021 0.2037(31) 101433. 0.20202 0.20610
20325.0 2.15127 0.2057(32) 100442. 0.20208 0.20642
20335.0 2.15233 0.2083(32) 99102. 0.20213 0.20678
20345.0 2.15339 0.2093(32) 98381. 0.20218 0.20720
20355.0 2.15445 0.2055(32) 99862. 0.20224 0.20770
20365.0 2.15551 0.2136(32) 96128. 0.20229 0.20830
20375.0 2.15657 0.2106(32) 97272. 0.20234 0.20902
20385.0 2.15763 0.2113(32) 96760. 0.20240 0.20990
20395.0 2.15869 0.2065(32) 98577. 0.20245 0.21097
20405.0 2.15974 0.2122(32) 95887. 0.20251 0.21229
20415.0 2.16080 0.2117(32) 95780. 0.20256 0.21389
20425.0 2.16186 0.2155(33) 94019. 0.20261 0.21583
20435.0 2.16292 0.2178(33) 92947. 0.20267 0.21816
20445.0 2.16398 0.2256(33) 89803. 0.20272 0.22093
20455.0 2.16504 0.2228(33) 90639. 0.20278 0.22420
20465.0 2.16610 0.2318(34) 87100. 0.20283 0.22799
20475.0 2.16716 0.2289(34) 87885. 0.20289 0.23233
20485.0 2.16822 0.2358(34) 85358. 0.20294 0.23724
20495.0 2.16928 0.2451(35) 82154. 0.20300 0.24269
20505.0 2.17034 0.248(4) 81185. 0.2031 0.2486
20515.0 2.17140 0.254(4) 78885. 0.2031 0.2550
20525.0 2.17246 0.266(4) 75312. 0.2032 0.2618
20535.0 2.17352 0.271(4) 73940. 0.2032 0.2687
20545.0 2.17458 0.276(4) 72518. 0.2033 0.2757
20555.0 2.17564 0.285(4) 69953. 0.2033 0.2825
20565.0 2.17670 0.291(4) 68428. 0.2034 0.2889
20575.0 2.17776 0.299(4) 66513. 0.2034 0.2947
20585.0 2.17882 0.298(4) 66392. 0.2035 0.2996
20595.0 2.17988 0.309(4) 64080. 0.2036 0.3037
20605.0 2.18094 0.308(4) 64128. 0.2036 0.3066
20615.0 2.18199 0.307(4) 64254. 0.2037 0.3085
20625.0 2.18305 0.318(4) 61918. 0.2037 0.3094
20635.0 2.18411 0.312(4) 62826. 0.2038 0.3095
20645.0 2.18517 0.312(4) 62664. 0.2038 0.3086
20655.0 2.18623 0.308(4) 63360. 0.2039 0.3073
20665.0 2.18729 0.308(4) 63228. 0.2039 0.3054
20675.0 2.18835 0.301(4) 64441. 0.2040 0.3031
20685.0 2.18941 0.295(4) 65672. 0.2041 0.3004
20695.0 2.19047 0.294(4) 65587. 0.2041 0.2973
20705.0 2.19153 0.289(4) 66686. 0.2042 0.2940
20715.0 2.19259 0.285(4) 67290. 0.2042 0.2903
20725.0 2.19365 0.284(4) 67345. 0.2043 0.2864
20735.0 2.19471 0.275(4) 69449. 0.2043 0.2825
20745.0 2.19577 0.280(4) 68128. 0.2044 0.2786
20755.0 2.19683 0.272(4) 69717. 0.2045 0.2749
20765.0 2.19789 0.271(4) 69738. 0.2045 0.2714
20775.0 2.19895 0.274(4) 69023. 0.2046 0.2684
20785.0 2.20001 0.265(4) 71001. 0.2046 0.2658
20795.0 2.20107 0.262(4) 71615. 0.2047 0.2639
20805.0 2.20213 0.264(4) 71031. 0.2048 0.2625
20815.0 2.20319 0.257(4) 72833. 0.2048 0.2616
20825.0 2.20424 0.265(4) 70419. 0.2049 0.2613
20835.0 2.20530 0.266(4) 70137. 0.2049 0.2615
20845.0 2.20636 0.265(4) 70162. 0.2050 0.2620
20855.0 2.20742 0.265(4) 69953. 0.2050 0.2627
20865.0 2.20848 0.263(4) 70459. 0.2051 0.2635
20875.0 2.20954 0.268(4) 69000. 0.2052 0.2642
20885.0 2.21060 0.263(4) 70174. 0.2052 0.2646
20895.0 2.21166 0.266(4) 69354. 0.2053 0.2645
20905.0 2.21272 0.268(4) 68457. 0.2053 0.2639
20915.0 2.21378 0.264(4) 69290. 0.2054 0.2627
20925.0 2.21484 0.260(4) 70369. 0.2055 0.2609
20935.0 2.21590 0.250(4) 72949. 0.2055 0.2586
20945.0 2.21696 0.257(4) 70644. 0.2056 0.2557
20955.0 2.21802 0.248(4) 73168. 0.2056 0.2525
20965.0 2.21908 0.244(4) 74016. 0.2057 0.2491
20975.0 2.22014 0.239(4) 75493. 0.2058 0.2455
20985.0 2.22120 0.234(4) 76668. 0.2058 0.2419
20995.0 2.22226 0.234(4) 76673. 0.2059 0.2383
21005.0 2.22332 0.232(4) 77189. 0.2059 0.2349
21015.0 2.22438 0.225(4) 79115. 0.2060 0.2317
21025.0 2.22544 0.229(4) 77712. 0.2061 0.2287
21035.0 2.22650 0.228(4) 77733. 0.2061 0.2260
21045.0 2.22755 0.225(4) 78609. 0.2062 0.2237
21055.0 2.22861 0.220(4) 80179. 0.2062 0.2216
21065.0 2.22967 0.221(4) 79663. 0.2063 0.2198
21075.0 2.23073 0.218(4) 80672. 0.2064 0.2183
21085.0 2.23179 0.225(4) 77999. 0.2064 0.2170
21095.0 2.23285 0.215(4) 80899. 0.2065 0.2160
21105.0 2.23391 0.227(4) 76789. 0.2065 0.2153
21115.0 2.23497 0.218(4) 79725. 0.2066 0.2147
21125.0 2.23603 0.213(4) 80978. 0.2067 0.2143
21135.0 2.23709 0.212(4) 81172. 0.2067 0.2140
21145.0 2.23815 0.2114(35) 81354. 0.20679 0.21386
21155.0 2.23921 0.220(4) 78340. 0.2069 0.2138
21165.0 2.24027 0.220(4) 78027. 0.2069 0.2139
21175.0 2.24133 0.220(4) 77986. 0.2070 0.2141
21185.0 2.24239 0.225(4) 76217. 0.2070 0.2143
21195.0 2.24345 0.212(4) 80470. 0.2071 0.2146
21205.0 2.24451 0.221(4) 77055. 0.2072 0.2149
21215.0 2.24557 0.218(4) 77927. 0.2072 0.2152
21225.0 2.24663 0.215(4) 79301. 0.2073 0.2156
21235.0 2.24769 0.220(4) 77097. 0.2074 0.2160
21245.0 2.24875 0.215(4) 78764. 0.2074 0.2164
21255.0 2.24981 0.222(4) 76286. 0.2075 0.2168
21265.0 2.25086 0.221(4) 76518. 0.2075 0.2172
21275.0 2.25192 0.218(4) 77338. 0.2076 0.2175
21285.0 2.25298 0.218(4) 77237. 0.2077 0.2178
21295.0 2.25404 0.217(4) 77510. 0.2077 0.2181
21305.0 2.25510 0.221(4) 76028. 0.2078 0.2184
21315.0 2.25616 0.215(4) 77745. 0.2079 0.2187
21325.0 2.25722 0.217(4) 76939. 0.2079 0.2191
21335.0 2.25828 0.222(4) 75132. 0.2080 0.2196
21345.0 2.25934 0.220(4) 75726. 0.2080 0.2202
21355.0 2.26040 0.218(4) 75978. 0.2081 0.2210
21365.0 2.26146 0.221(4) 74785. 0.2082 0.2221
21375.0 2.26252 0.227(4) 72935. 0.2082 0.2235
21385.0 2.26358 0.232(4) 71221. 0.2083 0.2252
21395.0 2.26464 0.219(4) 75035. 0.2084 0.2273
21405.0 2.26570 0.222(4) 73869. 0.2084 0.2299
21415.0 2.26676 0.230(4) 71356. 0.2085 0.2330
21425.0 2.26782 0.240(4) 68388. 0.2086 0.2367
21435.0 2.26888 0.241(4) 67995. 0.2086 0.2409
21445.0 2.26994 0.244(4) 66767. 0.2087 0.2457
21455.0 2.27100 0.252(4) 64895. 0.2087 0.2510
21465.0 2.27206 0.256(4) 63784. 0.2088 0.2568
21475.0 2.27312 0.259(4) 63051. 0.2089 0.2630
21485.0 2.27418 0.272(4) 59969. 0.2089 0.2696
21495.0 2.27524 0.274(4) 59516. 0.2090 0.2763
21505.0 2.27629 0.293(4) 55692. 0.2091 0.2829
21515.0 2.27735 0.290(4) 56096. 0.2091 0.2894
21525.0 2.27841 0.299(4) 54393. 0.2092 0.2954
21535.0 2.27947 0.307(4) 52929. 0.2093 0.3007
21545.0 2.28053 0.309(4) 52558. 0.2093 0.3051
21555.0 2.28159 0.307(4) 52740. 0.2094 0.3082
21565.0 2.28265 0.313(4) 51715. 0.2095 0.3101
21575.0 2.28371 0.320(4) 50404. 0.2095 0.3105
21585.0 2.28477 0.306(4) 52497. 0.2096 0.3094
21595.0 2.28583 0.312(4) 51503. 0.2097 0.3070
21605.0 2.28689 0.304(4) 52598. 0.2097 0.3035
21615.0 2.28795 0.304(4) 52487. 0.2098 0.2989
21625.0 2.28901 0.292(4) 54387. 0.2099 0.2935
21635.0 2.29007 0.287(4) 55075. 0.2099 0.2875
21645.0 2.29113 0.277(4) 56882. 0.2100 0.2813
21655.0 2.29219 0.271(4) 57931. 0.2101 0.2748
21665.0 2.29325 0.267(4) 58548. 0.2101 0.2685
21675.0 2.29431 0.260(4) 59866. 0.2102 0.2623
21685.0 2.29537 0.255(4) 60679. 0.2103 0.2564
21695.0 2.29643 0.247(4) 62209. 0.2103 0.2510
21705.0 2.29749 0.246(4) 62246. 0.2104 0.2460
21715.0 2.29855 0.234(4) 64988. 0.2104 0.2416
21725.0 2.29961 0.233(4) 65016. 0.2105 0.2377
21735.0 2.30067 0.235(4) 64385. 0.2106 0.2344
21745.0 2.30173 0.229(4) 65893. 0.2106 0.2316
21755.0 2.30278 0.229(4) 65780. 0.2107 0.2293
21765.0 2.30384 0.225(4) 66597. 0.2108 0.2274
21775.0 2.30490 0.234(4) 64110. 0.2109 0.2260
21785.0 2.30596 0.230(4) 64939. 0.2109 0.2250
21795.0 2.30702 0.230(4) 64745. 0.2110 0.2243
21805.0 2.30808 0.224(4) 66197. 0.2111 0.2238
21815.0 2.30914 0.224(4) 66189. 0.2111 0.2236
21825.0 2.31020 0.228(4) 64943. 0.2112 0.2236
21835.0 2.31126 0.225(4) 65485. 0.2113 0.2237
21845.0 2.31232 0.223(4) 65779. 0.2113 0.2240
21855.0 2.31338 0.230(4) 63801. 0.2114 0.2243
21865.0 2.31444 0.231(4) 63440. 0.2115 0.2247
21875.0 2.31550 0.229(4) 63612. 0.2115 0.2250
21885.0 2.31656 0.226(4) 64369. 0.2116 0.2253
21895.0 2.31762 0.227(4) 63720. 0.2117 0.2256
21905.0 2.31868 0.228(4) 63335. 0.2117 0.2258
21915.0 2.31974 0.222(4) 64880. 0.2118 0.2259
21925.0 2.32080 0.229(4) 62678. 0.2119 0.2260
21935.0 2.32186 0.229(4) 62733. 0.2119 0.2260
21945.0 2.32292 0.229(4) 62447. 0.2120 0.2260
21955.0 2.32398 0.226(4) 63044. 0.2121 0.2259
21965.0 2.32504 0.221(4) 64405. 0.2121 0.2259
21975.0 2.32610 0.224(4) 63357. 0.2122 0.2258
21985.0 2.32716 0.228(4) 62438. 0.2123 0.2258
21995.0 2.32822 0.232(4) 61039. 0.2123 0.2259
22005.0 2.32928 0.228(4) 61952. 0.2124 0.2259
22015.0 2.33033 0.224(4) 62868. 0.2125 0.2261
22025.0 2.33139 0.231(4) 60948. 0.2125 0.2263
22035.0 2.33245 0.228(4) 61578. 0.2126 0.2265
22045.0 2.33351 0.224(4) 62486. 0.2127 0.2268
22055.0 2.33457 0.225(4) 62141. 0.2128 0.2271
22065.0 2.33563 0.236(4) 59279. 0.2128 0.2275
22075.0 2.33669 0.237(4) 59020. 0.2129 0.2278
22085.0 2.33775 0.232(4) 60071. 0.2130 0.2281
22095.0 2.33881 0.240(4) 58034. 0.2130 0.2283
22105.0 2.33987 0.232(4) 59675. 0.2131 0.2285
22115.0 2.34093 0.221(4) 62412. 0.2132 0.2286
22125.0 2.34199 0.231(4) 59504. 0.2132 0.2285
22135.0 2.34305 0.235(4) 58471. 0.2133 0.2284
22145.0 2.34411 0.231(4) 59228. 0.2134 0.2281
22155.0 2.34517 0.231(4) 59232. 0.2135 0.2277
22165.0 2.34623 0.233(4) 58502. 0.2135 0.2271
22175.0 2.34729 0.234(4) 58260. 0.2136 0.2265
22185.0 2.34835 0.232(4) 58641. 0.2137 0.2258
22195.0 2.34941 0.234(4) 57962. 0.2137 0.2251
22205.0 2.35047 0.232(4) 58291. 0.2138 0.2243
22215.0 2.35153 0.228(4) 58893. 0.2139 0.2235
22225.0 2.35259 0.223(4) 59873. 0.2139 0.2227
22235.0 2.35365 0.224(4) 59729. 0.2140 0.2220
22245.0 2.35471 0.222(4) 60186. 0.2141 0.2213
22255.0 2.35577 0.226(4) 58921. 0.2142 0.2206
22265.0 2.35683 0.223(4) 59537. 0.2142 0.2200
22275.0 2.35789 0.219(4) 60148. 0.2143 0.2194
22285.0 2.35894 0.222(4) 59310. 0.2144 0.2189
22295.0 2.36000 0.225(4) 58559. 0.2144 0.2185
22305.0 2.36106 0.227(4) 57870. 0.2145 0.2181
22315.0 2.36212 0.218(4) 60163. 0.2146 0.2178
22325.0 2.36318 0.227(4) 57838. 0.2146 0.2175
22335.0 2.36424 0.225(4) 58212. 0.2147 0.2172
22345.0 2.36530 0.223(4) 58647. 0.2148 0.2171
22355.0 2.36636 0.221(4) 59329. 0.2149 0.2169
22365.0 2.36742 0.227(4) 57650. 0.2149 0.2168
22375.0 2.36848 0.221(4) 58823. 0.2150 0.2167
22385.0 2.36954 0.218(4) 59447. 0.2151 0.2167
22395.0 2.37060 0.220(4) 59109. 0.2151 0.2166
22405.0 2.37166 0.212(4) 61072. 0.2152 0.2166
22415.0 2.37272 0.216(4) 60131. 0.2153 0.2166
22425.0 2.37378 0.223(4) 58113. 0.2154 0.2166
22435.0 2.37484 0.213(4) 60567. 0.2154 0.2166
22445.0 2.37590 0.211(4) 61176. 0.2155 0.2167
22455.0 2.37696 0.216(4) 59595. 0.2156 0.2166
22465.0 2.37802 0.216(4) 59471. 0.2156 0.2167
22475.0 2.37908 0.218(4) 58925. 0.2157 0.2167
22485.0 2.38014 0.216(4) 59307. 0.2158 0.2168
22495.0 2.38120 0.221(4) 57949. 0.2159 0.2168
22505.0 2.38226 0.215(4) 59091. 0.2159 0.2168
22515.0 2.38332 0.214(4) 59273. 0.2160 0.2169
22525.0 2.38438 0.223(4) 56893. 0.2161 0.2169
22535.0 2.38544 0.229(4) 55451. 0.2161 0.2170
22545.0 2.38650 0.218(4) 57888. 0.2162 0.2171
22555.0 2.38756 0.213(4) 59055. 0.2163 0.2171
22565.0 2.38862 0.220(4) 57099. 0.2164 0.2172
22575.0 2.38967 0.224(4) 56167. 0.2164 0.2172
22585.0 2.39073 0.227(4) 55448. 0.2165 0.2173
22595.0 2.39179 0.223(4) 56339. 0.2166 0.2174
22605.0 2.39285 0.215(4) 58070. 0.2166 0.2174
22615.0 2.39391 0.223(4) 56182. 0.2167 0.2175
22625.0 2.39497 0.214(4) 58175. 0.2168 0.2175
22635.0 2.39603 0.223(4) 56088. 0.2169 0.2176
22645.0 2.39709 0.221(4) 56246. 0.2169 0.2176
22655.0 2.39815 0.219(4) 56752. 0.2170 0.2177
22665.0 2.39921 0.224(4) 55614. 0.2171 0.2177
22675.0 2.40027 0.217(4) 57078. 0.2172 0.2178
22685.0 2.40133 0.216(4) 57333. 0.2172 0.2179
22695.0 2.40239 0.222(4) 55722. 0.2173 0.2179
22705.0 2.40345 0.212(4) 58108. 0.2174 0.2180
22715.0 2.40451 0.213(4) 57542. 0.2174 0.2181
22725.0 2.40557 0.216(4) 56549. 0.2175 0.2182
22735.0 2.40663 0.219(4) 55913. 0.2176 0.2182
22745.0 2.40769 0.221(4) 55210. 0.2177 0.2183
22755.0 2.40875 0.217(4) 56046. 0.2177 0.2184
22765.0 2.40981 0.222(4) 54789. 0.2178 0.2184
22775.0 2.41087 0.226(4) 53592. 0.2179 0.2185
22785.0 2.41193 0.216(4) 55691. 0.2180 0.2186
22795.0 2.41299 0.224(4) 53692. 0.2180 0.2186
22805.0 2.41405 0.223(4) 53762. 0.2181 0.2187
22815.0 2.41511 0.214(4) 55662. 0.2182 0.2188
22825.0 2.41617 0.221(4) 53892. 0.2183 0.2189
22835.0 2.41723 0.227(4) 52466. 0.2183 0.2189
22845.0 2.41829 0.220(4) 53932. 0.2184 0.2190
22855.0 2.41935 0.213(4) 55307. 0.2185 0.2191
22865.0 2.42041 0.208(4) 56424. 0.2185 0.2192
22875.0 2.42147 0.214(4) 55027. 0.2186 0.2192
22885.0 2.42252 0.214(4) 54686. 0.2187 0.2193
22895.0 2.42358 0.229(4) 51085. 0.2188 0.2194
22905.0 2.42464 0.225(4) 51918. 0.2188 0.2195
22915.0 2.42570 0.227(4) 51326. 0.2189 0.2196
22925.0 2.42676 0.230(4) 50662. 0.2190 0.2196
22935.0 2.42782 0.214(4) 54071. 0.2191 0.2197
22945.0 2.42888 0.223(4) 51952. 0.2191 0.2198
22955.0 2.42994 0.226(4) 51420. 0.2192 0.2199
22965.0 2.43100 0.220(4) 52538. 0.2193 0.2200
22975.0 2.43206 0.225(4) 51301. 0.2194 0.2200
22985.0 2.43312 0.226(4) 50994. 0.2194 0.2201
22995.0 2.43418 0.227(4) 50647. 0.2195 0.2202
23005.0 2.43524 0.225(4) 51046. 0.2196 0.2203
23015.0 2.43630 0.214(4) 53298. 0.2197 0.2204
23025.0 2.43736 0.220(4) 51989. 0.2197 0.2205
23035.0 2.43842 0.221(4) 51804. 0.2198 0.2205
23045.0 2.43948 0.230(4) 49736. 0.2199 0.2206
23055.0 2.44054 0.226(4) 50552. 0.2200 0.2207
23065.0 2.44160 0.228(4) 49916. 0.2200 0.2208
23075.0 2.44266 0.223(4) 50783. 0.2201 0.2209
23085.0 2.44372 0.223(4) 50804. 0.2202 0.2210
23095.0 2.44478 0.225(4) 50380. 0.2202 0.2211
23105.0 2.44584 0.220(4) 51195. 0.2203 0.2212
23115.0 2.44690 0.223(4) 50564. 0.2204 0.2213
23125.0 2.44796 0.214(4) 52437. 0.2205 0.2214
23135.0 2.44902 0.218(4) 51567. 0.2205 0.2215
23145.0 2.45008 0.220(4) 50890. 0.2206 0.2216
23155.0 2.45114 0.225(4) 49850. 0.2207 0.2217
23165.0 2.45220 0.222(4) 50292. 0.2208 0.2218
23175.0 2.45326 0.230(5) 48601. 0.2208 0.2219
23185.0 2.45432 0.232(5) 48259. 0.2209 0.2220
23195.0 2.45538 0.223(4) 49902. 0.2210 0.2221
23205.0 2.45643 0.222(4) 49991. 0.2211 0.2223
23215.0 2.45749 0.222(4) 49831. 0.2211 0.2224
23225.0 2.45855 0.218(4) 50753. 0.2212 0.2225
23235.0 2.45961 0.228(5) 48306. 0.2213 0.2226
23245.0 2.46067 0.234(5) 47094. 0.2214 0.2228
23255.0 2.46173 0.222(4) 49566. 0.2214 0.2229
23265.0 2.46279 0.228(5) 48268. 0.2215 0.2231
23275.0 2.46385 0.228(5) 48155. 0.2216 0.2233
23285.0 2.46491 0.226(5) 48422. 0.2217 0.2235
23295.0 2.46597 0.230(5) 47616. 0.2217 0.2237
23305.0 2.46703 0.226(5) 48317. 0.2218 0.2239
23315.0 2.46809 0.222(5) 49141. 0.2219 0.2242
23325.0 2.46915 0.232(5) 46970. 0.2220 0.2245
23335.0 2.47021 0.223(5) 48864. 0.2220 0.2249
23345.0 2.47127 0.231(5) 47182. 0.2221 0.2253
23355.0 2.47233 0.230(5) 47206. 0.2222 0.2258
23365.0 2.47339 0.225(5) 48207. 0.2223 0.2264
23375.0 2.47445 0.225(5) 48029. 0.2223 0.2270
23385.0 2.47551 0.227(5) 47621. 0.2224 0.2278
23395.0 2.47657 0.224(5) 48124. 0.2225 0.2288
23405.0 2.47763 0.230(5) 46915. 0.2226 0.2297
23415.0 2.47869 0.223(5) 48297. 0.2226 0.2309
23425.0 2.47975 0.233(5) 46264. 0.2227 0.2323
23435.0 2.48081 0.231(5) 46558. 0.2228 0.2339
23445.0 2.48187 0.228(5) 47141. 0.2229 0.2356
23455.0 2.48293 0.237(5) 45502. 0.2229 0.2376
23465.0 2.48399 0.242(5) 44512. 0.2230 0.2397
23475.0 2.48505 0.245(5) 43825. 0.2231 0.2420
23485.0 2.48611 0.237(5) 45288. 0.2232 0.2444
23495.0 2.48717 0.246(5) 43622. 0.2233 0.2470
23505.0 2.48823 0.245(5) 43730. 0.2233 0.2497
23515.0 2.48929 0.255(5) 42077. 0.2234 0.2524
23525.0 2.49035 0.255(5) 42062. 0.2235 0.2552
23535.0 2.49141 0.266(5) 40336. 0.2236 0.2578
23545.0 2.49247 0.263(5) 40754. 0.2236 0.2604
23555.0 2.49353 0.261(5) 40938. 0.2237 0.2628
23565.0 2.49459 0.257(5) 41648. 0.2238 0.2649
23575.0 2.49564 0.267(5) 40089. 0.2239 0.2667
23585.0 2.49670 0.254(5) 41988. 0.2239 0.2681
23595.0 2.49776 0.266(5) 40231. 0.2240 0.2690
23605.0 2.49882 0.270(5) 39651. 0.2241 0.2694
23615.0 2.49988 0.267(5) 40077. 0.2242 0.2694
23625.0 2.50094 0.265(5) 40191. 0.2242 0.2689
23635.0 2.50200 0.262(5) 40547. 0.2243 0.2679
23645.0 2.50306 0.254(5) 41840. 0.2244 0.2665
23655.0 2.50412 0.260(5) 40867. 0.2245 0.2648
23665.0 2.50518 0.257(5) 41259. 0.2245 0.2628
23675.0 2.50624 0.254(5) 41574. 0.2246 0.2605
23685.0 2.50730 0.255(5) 41438. 0.2247 0.2582
23695.0 2.50836 0.250(5) 42159. 0.2248 0.2557
23705.0 2.50942 0.254(5) 41577. 0.2248 0.2532
23715.0 2.51048 0.247(5) 42679. 0.2249 0.2508
23725.0 2.51154 0.235(5) 44833. 0.2250 0.2484
23735.0 2.51260 0.239(5) 44077. 0.2251 0.2461
23745.0 2.51366 0.246(5) 42779. 0.2252 0.2439
23755.0 2.51472 0.232(5) 45305. 0.2252 0.2419
23765.0 2.51578 0.239(5) 43931. 0.2253 0.2401
23775.0 2.51684 0.235(5) 44487. 0.2254 0.2384
23785.0 2.51790 0.235(5) 44603. 0.2255 0.2370
23795.0 2.51896 0.228(5) 45708. 0.2255 0.2357
23805.0 2.52002 0.232(5) 45047. 0.2256 0.2346
23815.0 2.52108 0.228(5) 45627. 0.2257 0.2336
23825.0 2.52214 0.228(5) 45680. 0.2258 0.2328
23835.0 2.52320 0.233(5) 44614. 0.2258 0.2322
23845.0 2.52426 0.221(5) 46841. 0.2259 0.2317
23855.0 2.52532 0.226(5) 45753. 0.2260 0.2313
23865.0 2.52638 0.225(5) 45935. 0.2261 0.2310
23875.0 2.52744 0.237(5) 43584. 0.2261 0.2308
23885.0 2.52850 0.222(5) 46242. 0.2262 0.2307
23895.0 2.52956 0.223(5) 45829. 0.2263 0.2306
23905.0 2.53062 0.224(5) 45546. 0.2264 0.2306
23915.0 2.53168 0.225(5) 45203. 0.2265 0.2306
23925.0 2.53274 0.234(5) 43555. 0.2265 0.2307
23935.0 2.53380 0.228(5) 44634. 0.2266 0.2307
23945.0 2.53486 0.235(5) 43230. 0.2267 0.2308
23955.0 2.53592 0.231(5) 43929. 0.2268 0.2309
23965.0 2.53698 0.226(5) 44794. 0.2268 0.2310
23975.0 2.53803 0.227(5) 44651. 0.2269 0.2311
23985.0 2.53909 0.228(5) 44272. 0.2270 0.2311
23995.0 2.54015 0.231(5) 43602. 0.2271 0.2312
24005.0 2.54121 0.227(5) 44167. 0.2271 0.2312
24015.0 2.54227 0.229(5) 43622. 0.2272 0.2312
24025.0 2.54333 0.231(5) 43264. 0.2273 0.2312
24035.0 2.54439 0.228(5) 43909. 0.2274 0.2311
24045.0 2.54545 0.225(5) 44327. 0.2275 0.2310
24055.0 2.54651 0.226(5) 44047. 0.2275 0.2310
24065.0 2.54757 0.219(5) 45344. 0.2276 0.2309
24075.0 2.54863 0.243(5) 40889. 0.2277 0.2308
24085.0 2.54969 0.230(5) 43133. 0.2278 0.2307
24095.0 2.55075 0.225(5) 43725. 0.2278 0.2306
24105.0 2.55181 0.224(5) 43899. 0.2279 0.2305
24115.0 2.55287 0.228(5) 42993. 0.2280 0.2304
24125.0 2.55393 0.227(5) 43130. 0.2281 0.2303
24135.0 2.55499 0.227(5) 43066. 0.2281 0.2302
24145.0 2.55605 0.235(5) 41604. 0.2282 0.2301
24155.0 2.55711 0.244(5) 40116. 0.2283 0.2301
24165.0 2.55817 0.229(5) 42462. 0.2284 0.2300
24175.0 2.55923 0.232(5) 41784. 0.2285 0.2300
24185.0 2.56029 0.231(5) 41915. 0.2285 0.2300
24195.0 2.56135 0.236(5) 40987. 0.2286 0.2300
24205.0 2.56241 0.227(5) 42418. 0.2287 0.2300
24215.0 2.56347 0.231(5) 41537. 0.2288 0.2300
24225.0 2.56453 0.228(5) 41986. 0.2288 0.2300
24235.0 2.56559 0.231(5) 41293. 0.2289 0.2300
24245.0 2.56665 0.238(5) 40061. 0.2290 0.2301
24255.0 2.56771 0.227(5) 41981. 0.2291 0.2301
24265.0 2.56877 0.227(5) 41890. 0.2292 0.2302
24275.0 2.56983 0.225(5) 42257. 0.2292 0.2302
24285.0 2.57089 0.222(5) 42553. 0.2293 0.2303
24295.0 2.57195 0.230(5) 41285. 0.2294 0.2304
24305.0 2.57301 0.236(5) 40065. 0.2295 0.2305
24315.0 2.57407 0.226(5) 41814. 0.2295 0.2306
24325.0 2.57513 0.225(5) 41873. 0.2296 0.2307
24335.0 2.57619 0.231(5) 40868. 0.2297 0.2308
24345.0 2.57725 0.225(5) 41829. 0.2298 0.2309
24355.0 2.57831 0.220(5) 42561. 0.2299 0.2311
24365.0 2.57937 0.229(5) 40810. 0.2299 0.2312
24375.0 2.58043 0.230(5) 40639. 0.2300 0.2314
24385.0 2.58149 0.236(5) 39557. 0.2301 0.2316
24395.0 2.58255 0.227(5) 40984. 0.2302 0.2318
24405.0 2.58361 0.232(5) 39999. 0.2302 0.2320
24415.0 2.58467 0.238(5) 39125. 0.2303 0.2323
24425.0 2.58573 0.233(5) 39784. 0.2304 0.2326
24435.0 2.58678 0.238(5) 38904. 0.2305 0.2329
24445.0 2.58784 0.233(5) 39658. 0.2306 0.2332
24455.0 2.58890 0.243(5) 38151. 0.2306 0.2337
24465.0 2.58996 0.240(5) 38417. 0.2307 0.2341
24475.0 2.59102 0.249(5) 37054. 0.2308 0.2345
24485.0 2.59208 0.235(5) 39122. 0.2309 0.2350
24495.0 2.59314 0.239(5) 38373. 0.2310 0.2356
24505.0 2.59420 0.235(5) 38922. 0.2310 0.2361
24515.0 2.59526 0.239(5) 38368. 0.2311 0.2367
24525.0 2.59632 0.243(5) 37865. 0.2312 0.2373
24535.0 2.59738 0.239(5) 38278. 0.2313 0.2380
24545.0 2.59844 0.234(5) 39129. 0.2313 0.2387
24555.0 2.59950 0.238(5) 38447. 0.2314 0.2394
24565.0 2.60056 0.249(5) 36710. 0.2315 0.2401
24575.0 2.60162 0.250(5) 36554. 0.2316 0.2408
24585.0 2.60268 0.252(5) 36181. 0.2317 0.2415
24595.0 2.60374 0.249(5) 36694. 0.2317 0.2422
24605.0 2.60480 0.238(5) 38208. 0.2318 0.2429
24615.0 2.60586 0.250(5) 36394. 0.2319 0.2435
24625.0 2.60692 0.246(5) 36969. 0.2320 0.2442
24635.0 2.60798 0.250(5) 36364. 0.2321 0.2448
24645.0 2.60904 0.245(5) 37051. 0.2321 0.2454
24655.0 2.61010 0.251(5) 36094. 0.2322 0.2459
24665.0 2.61116 0.253(5) 35780. 0.2323 0.2465
24675.0 2.61222 0.244(5) 36997. 0.2324 0.2470
24685.0 2.61328 0.253(5) 35727. 0.2324 0.2475
24695.0 2.61434 0.245(5) 36782. 0.2325 0.2479
24705.0 2.61540 0.246(5) 36558. 0.2326 0.2483
24715.0 2.61646 0.245(5) 36705. 0.2327 0.2487
24725.0 2.61752 0.258(5) 34859. 0.2328 0.2490
24735.0 2.61858 0.249(5) 36008. 0.2328 0.2492
24745.0 2.61964 0.249(5) 35990. 0.2329 0.2494
24755.0 2.62070 0.250(5) 35846. 0.2330 0.2494
24765.0 2.62176 0.244(5) 36651. 0.2331 0.2494
24775.0 2.62282 0.251(5) 35690. 0.2332 0.2493
24785.0 2.62388 0.248(5) 36111. 0.2332 0.2491
24795.0 2.62494 0.247(5) 36260. 0.2333 0.2488
24805.0 2.62600 0.246(5) 36311. 0.2334 0.2484
24815.0 2.62706 0.240(5) 37128. 0.2335 0.2479
24825.0 2.62812 0.254(5) 35161. 0.2336 0.2474
24835.0 2.62918 0.239(5) 37106. 0.2336 0.2467
24845.0 2.63024 0.246(5) 36040. 0.2337 0.2461
24855.0 2.63130 0.243(5) 36443. 0.2338 0.2454
24865.0 2.63236 0.241(5) 36728. 0.2339 0.2447
24875.0 2.63342 0.246(5) 36019. 0.2340 0.2440
24885.0 2.63448 0.242(5) 36550. 0.2340 0.2433
24895.0 2.63554 0.235(5) 37525. 0.2341 0.2426
24905.0 2.63660 0.237(5) 37110. 0.2342 0.2419
24915.0 2.63766 0.238(5) 37030. 0.2343 0.2413
24925.0 2.63872 0.236(5) 37315. 0.2344 0.2407
24935.0 2.63978 0.237(5) 37101. 0.2344 0.2401
24945.0 2.64084 0.239(5) 36735. 0.2345 0.2396
24955.0 2.64190 0.235(5) 37237. 0.2346 0.2391
24965.0 2.64296 0.237(5) 36942. 0.2347 0.2387
24975.0 2.64402 0.238(5) 36862. 0.2348 0.2384
24985.0 2.64508 0.236(5) 36988. 0.2348 0.2380
24995.0 2.64613 0.242(5) 36125. 0.2349 0.2378
25005.0 2.64719 0.237(5) 36777. 0.2350 0.2375
25015.0 2.64825 0.236(5) 36888. 0.2351 0.2373
25025.0 2.64931 0.233(5) 37424. 0.2352 0.2372
25035.0 2.65037 0.229(5) 37869. 0.2352 0.2370
25045.0 2.65143 0.227(5) 38224. 0.2353 0.2369
25055.0 2.65249 0.238(5) 36458. 0.2354 0.2369
25065.0 2.65355 0.226(5) 38232. 0.2355 0.2368
25075.0 2.65461 0.232(5) 37348. 0.2356 0.2368
25085.0 2.65567 0.231(5) 37285. 0.2357 0.2368
25095.0 2.65673 0.228(5) 37816. 0.2357 0.2368
25105.0 2.65779 0.238(5) 36209. 0.2358 0.2368
25115.0 2.65885 0.239(5) 36095. 0.2359 0.2368
25125.0 2.65991 0.242(5) 35517. 0.2360 0.2368
25135.0 2.66097 0.240(5) 35718. 0.2361 0.2368
25145.0 2.66203 0.230(5) 37225. 0.2361 0.2369
25155.0 2.66309 0.232(5) 36760. 0.2362 0.2369
25165.0 2.66415 0.232(5) 36792. 0.2363 0.2370
25175.0 2.66521 0.243(5) 35243. 0.2364 0.2370
25185.0 2.66627 0.234(5) 36442. 0.2365 0.2371
25195.0 2.66733 0.234(5) 36314. 0.2365 0.2372
25205.0 2.66839 0.234(5) 36372. 0.2366 0.2372
25215.0 2.66945 0.244(5) 34804. 0.2367 0.2373
25225.0 2.67051 0.235(5) 36148. 0.2368 0.2373
25235.0 2.67157 0.227(5) 37288. 0.2369 0.2374
25245.0 2.67263 0.233(5) 36404. 0.2370 0.2375
25255.0 2.67369 0.241(5) 35269. 0.2370 0.2376
25265.0 2.67475 0.242(5) 35011. 0.2371 0.2376
25275.0 2.67581 0.237(5) 35684. 0.2372 0.2377
25285.0 2.67687 0.247(5) 34236. 0.2373 0.2378
25295.0 2.67793 0.242(5) 34970. 0.2374 0.2378
25305.0 2.67899 0.240(5) 35102. 0.2375 0.2379
25315.0 2.68005 0.233(5) 36047. 0.2375 0.2380
25325.0 2.68111 0.237(5) 35497. 0.2376 0.2381
25335.0 2.68217 0.251(5) 33390. 0.2377 0.2381
25345.0 2.68323 0.239(5) 34931. 0.2378 0.2382
25355.0 2.68429 0.236(5) 35338. 0.2379 0.2383
25365.0 2.68535 0.240(5) 34794. 0.2380 0.2384
25375.0 2.68641 0.226(5) 36777. 0.2380 0.2385
25385.0 2.68747 0.238(5) 35000. 0.2381 0.2385
25395.0 2.68853 0.238(5) 35017. 0.2382 0.2386
25405.0 2.68959 0.224(5) 37086. 0.2383 0.2387
25415.0 2.69065 0.238(5) 34941. 0.2384 0.2388
25425.0 2.69171 0.240(5) 34695. 0.2385 0.2388
25435.0 2.69277 0.236(5) 35283. 0.2385 0.2389
25445.0 2.69383 0.235(5) 35356. 0.2386 0.2390
25455.0 2.69489 0.236(5) 35299. 0.2387 0.2391
25465.0 2.69595 0.230(5) 36082. 0.2388 0.2392
25475.0 2.69701 0.234(5) 35666. 0.2389 0.2393
25485.0 2.69807 0.237(5) 35131. 0.2390 0.2393
25495.0 2.69913 0.242(5) 34501. 0.2390 0.2394
25505.0 2.70019 0.230(5) 36123. 0.2391 0.2395
25515.0 2.70125 0.231(5) 35975. 0.2392 0.2396
25525.0 2.70231 0.235(5) 35393. 0.2393 0.2397
25535.0 2.70337 0.228(5) 36350. 0.2394 0.2397
25545.0 2.70443 0.237(5) 35005. 0.2395 0.2398
25555.0 2.70549 0.229(5) 36149. 0.2395 0.2399
25565.0 2.70655 0.236(5) 35136. 0.2396 0.2400
25575.0 2.70761 0.236(5) 35090. 0.2397 0.2401
25585.0 2.70867 0.237(5) 34901. 0.2398 0.2402
25595.0 2.70973 0.232(5) 35661. 0.2399 0.2403
25605.0 2.71079 0.236(5) 35030. 0.2400 0.2403
25615.0 2.71185 0.236(5) 34919. 0.2401 0.2404
25625.0 2.71291 0.242(5) 34112. 0.2401 0.2405
25635.0 2.71397 0.230(5) 35668. 0.2402 0.2406
25645.0 2.71503 0.238(5) 34606. 0.2403 0.2406
25655.0 2.71609 0.241(5) 34193. 0.2404 0.2407
25665.0 2.71715 0.232(5) 35456. 0.2405 0.2408
25675.0 2.71821 0.233(5) 35175. 0.2406 0.2409
25685.0 2.71927 0.238(5) 34407. 0.2407 0.2410
25695.0 2.72033 0.241(5) 33954. 0.2407 0.2411
25705.0 2.72139 0.238(5) 34297. 0.2408 0.2412
25715.0 2.72245 0.241(5) 33965. 0.2409 0.2413
25725.0 2.72351 0.236(5) 34664. 0.2410 0.2413
25735.0 2.72456 0.242(5) 33668. 0.2411 0.2414
25745.0 2.72562 0.233(5) 34870. 0.2412 0.2415
25755.0 2.72668 0.245(6) 33051. 0.2413 0.2416
25765.0 2.72774 0.249(6) 32526. 0.2413 0.2417
25775.0 2.72880 0.240(5) 33733. 0.2414 0.2418
25785.0 2.72986 0.238(5) 34038. 0.2415 0.2419
25795.0 2.73092 0.242(5) 33457. 0.2416 0.2420
25805.0 2.73198 0.244(5) 33134. 0.2417 0.2421
25815.0 2.73304 0.237(5) 33976. 0.2418 0.2422
25825.0 2.73410 0.237(5) 33979. 0.2419 0.2423
25835.0 2.73516 0.245(6) 32855. 0.2420 0.2424
25845.0 2.73622 0.242(5) 33176. 0.2421 0.2424
25855.0 2.73728 0.242(6) 33030. 0.2421 0.2425
25865.0 2.73834 0.238(5) 33600. 0.2422 0.2426
25875.0 2.73940 0.236(5) 33729. 0.2423 0.2427
25885.0 2.74046 0.239(5) 33231. 0.2424 0.2428
25895.0 2.74152 0.231(5) 34293. 0.2425 0.2429
25905.0 2.74258 0.239(5) 33127. 0.2426 0.2430
25915.0 2.74364 0.236(5) 33384. 0.2427 0.2431
25925.0 2.74470 0.241(6) 32779. 0.2428 0.2432
25935.0 2.74576 0.234(5) 33616. 0.2428 0.2433
25945.0 2.74682 0.248(6) 31727. 0.2429 0.2434
25955.0 2.74788 0.249(6) 31605. 0.2430 0.2435
25965.0 2.74894 0.249(6) 31587. 0.2431 0.2436
25975.0 2.75000 0.240(6) 32678. 0.2432 0.2437
25985.0 2.75106 0.239(6) 32637. 0.2433 0.2438
25995.0 2.75212 0.246(6) 31780. 0.2434 0.2439
26005.0 2.75318 0.244(6) 32025. 0.2435 0.2440
26015.0 2.75424 0.242(6) 32191. 0.2436 0.2441
26025.0 2.75530 0.234(5) 33233. 0.2437 0.2442
26035.0 2.75636 0.252(6) 30884. 0.2437 0.2443
26045.0 2.75742 0.236(6) 32846. 0.2438 0.2444
26055.0 2.75848 0.254(6) 30589. 0.2439 0.2445
26065.0 2.75954 0.246(6) 31417. 0.2440 0.2446
26075.0 2.76060 0.242(6) 32013. 0.2441 0.2447
26085.0 2.76166 0.239(6) 32367. 0.2442 0.2448
26095.0 2.76272 0.235(6) 32741. 0.2443 0.2449
26105.0 2.76378 0.252(6) 30627. 0.2444 0.2450
26115.0 2.76484 0.244(6) 31575. 0.2445 0.2451
26125.0 2.76590 0.243(6) 31672. 0.2446 0.2452
26135.0 2.76696 0.248(6) 30952. 0.2447 0.2453
26145.0 2.76802 0.247(6) 31098. 0.2448 0.2454
26155.0 2.76908 0.247(6) 31017. 0.2448 0.2455
26165.0 2.77014 0.248(6) 30816. 0.2449 0.2457
26175.0 2.77120 0.238(6) 31996. 0.2450 0.2458
26185.0 2.77226 0.241(6) 31639. 0.2451 0.2459
26195.0 2.77332 0.245(6) 31158. 0.2452 0.2460
26205.0 2.77438 0.250(6) 30431. 0.2453 0.2461
26215.0 2.77544 0.247(6) 30816. 0.2454 0.2462
26225.0 2.77650 0.248(6) 30548. 0.2455 0.2463
26235.0 2.77756 0.250(6) 30328. 0.2456 0.2465
26245.0 2.77862 0.236(6) 32160. 0.2457 0.2466
26255.0 2.77968 0.244(6) 31100. 0.2458 0.2467
26265.0 2.78074 0.237(6) 31992. 0.2459 0.2468
26275.0 2.78180 0.249(6) 30425. 0.2460 0.2470
26285.0 2.78286 0.248(6) 30554. 0.2461 0.2471
26295.0 2.78392 0.251(6) 30097. 0.2462 0.2472
26305.0 2.78498 0.246(6) 30721. 0.2463 0.2473
26315.0 2.78604 0.251(6) 30156. 0.2463 0.2475
26325.0 2.78710 0.245(6) 30741. 0.2464 0.2476
26335.0 2.78816 0.249(6) 30308. 0.2465 0.2477
26345.0 2.78922 0.236(6) 31865. 0.2466 0.2479
26355.0 2.79028 0.237(6) 31800. 0.2467 0.2480
26365.0 2.79134 0.250(6) 30184. 0.2468 0.2482
26375.0 2.79240 0.250(6) 30174. 0.2469 0.2483
26385.0 2.79346 0.245(6) 30742. 0.2470 0.2485
26395.0 2.79452 0.249(6) 30250. 0.2471 0.2487
26405.0 2.79558 0.255(6) 29528. 0.2472 0.2488
26415.0 2.79664 0.245(6) 30661. 0.2473 0.2490
26425.0 2.79770 0.243(6) 30807. 0.2474 0.2492
26435.0 2.79876 0.245(6) 30578. 0.2475 0.2494
26445.0 2.79982 0.250(6) 29968. 0.2476 0.2496
26455.0 2.80088 0.247(6) 30270. 0.2477 0.2499
26465.0 2.80194 0.247(6) 30175. 0.2478 0.2501
26475.0 2.80300 0.251(6) 29687. 0.2479 0.2504
26485.0 2.80406 0.236(6) 31428. 0.2480 0.2507
26495.0 2.80512 0.254(6) 29179. 0.2481 0.2510
26505.0 2.80618 0.256(6) 28920. 0.2482 0.2514
26515.0 2.80724 0.256(6) 28924. 0.2483 0.2519
26525.0 2.80830 0.256(6) 28969. 0.2484 0.2523
26535.0 2.80936 0.246(6) 30066. 0.2485 0.2529
26545.0 2.81042 0.253(6) 29365. 0.2486 0.2535
26555.0 2.81148 0.264(6) 28086. 0.2487 0.2542
26565.0 2.81254 0.250(6) 29492. 0.2488 0.2551
26575.0 2.81360 0.252(6) 29324. 0.2489 0.2560
26585.0 2.81466 0.260(6) 28477. 0.2490 0.2570
26595.0 2.81572 0.251(6) 29436. 0.2491 0.2582
26605.0 2.81678 0.256(6) 28825. 0.2492 0.2595
26615.0 2.81784 0.241(6) 30479. 0.2493 0.2610
26625.0 2.81890 0.252(6) 29155. 0.2494 0.2626
26635.0 2.81996 0.261(6) 28246. 0.2495 0.2644
26645.0 2.82102 0.264(6) 27843. 0.2496 0.2664
26655.0 2.82208 0.261(6) 28120. 0.2497 0.2685
26665.0 2.82314 0.272(6) 26984. 0.2498 0.2708
26675.0 2.82420 0.287(6) 25573. 0.2499 0.2733
26685.0 2.82526 0.276(6) 26494. 0.2500 0.2759
26695.0 2.82632 0.273(6) 26811. 0.2501 0.2787
26705.0 2.82738 0.277(6) 26401. 0.2502 0.2817
26715.0 2.82844 0.282(6) 25857. 0.2503 0.2847
26725.0 2.82950 0.288(6) 25283. 0.2504 0.2878
26735.0 2.83056 0.292(6) 24923. 0.2505 0.2909
26745.0 2.83162 0.295(6) 24628. 0.2506 0.2940
26755.0 2.83268 0.298(6) 24355. 0.2507 0.2971
26765.0 2.83374 0.280(6) 25844. 0.2508 0.3001
26775.0 2.83480 0.293(6) 24727. 0.2510 0.3030
26785.0 2.83586 0.301(6) 23989. 0.2511 0.3056
26795.0 2.83692 0.307(7) 23517. 0.2512 0.3080
26805.0 2.83798 0.297(6) 24245. 0.2513 0.3101
26815.0 2.83904 0.297(6) 24214. 0.2514 0.3118
26825.0 2.84010 0.319(7) 22530. 0.2515 0.3131
26835.0 2.84116 0.313(7) 22957. 0.2516 0.3140
26845.0 2.84222 0.318(7) 22612. 0.2517 0.3144
26855.0 2.84328 0.311(7) 23061. 0.2518 0.3144
26865.0 2.84434 0.315(7) 22813. 0.2519 0.3139
26875.0 2.84540 0.311(7) 23051. 0.2520 0.3130
26885.0 2.84646 0.307(7) 23336. 0.2521 0.3117
26895.0 2.84752 0.324(7) 22072. 0.2522 0.3101
26905.0 2.84858 0.315(7) 22634. 0.2523 0.3081
26915.0 2.84964 0.307(7) 23181. 0.2525 0.3059
26925.0 2.85070 0.300(6) 23700. 0.2526 0.3035
26935.0 2.85176 0.293(6) 24136. 0.2527 0.3009
26945.0 2.85282 0.297(6) 23732. 0.2528 0.2981
26955.0 2.85388 0.304(7) 23164. 0.2529 0.2954
26965.0 2.85494 0.288(6) 24319. 0.2530 0.2925
26975.0 2.85600 0.282(6) 24871. 0.2531 0.2897
26985.0 2.85706 0.287(6) 24402. 0.2532 0.2870
26995.0 2.85812 0.274(6) 25460. 0.2533 0.2843
27005.0 2.85918 0.288(6) 24222. 0.2534 0.2817
27015.0 2.86024 0.280(6) 24829. 0.2536 0.2793
27025.0 2.86130 0.291(6) 23901. 0.2537 0.2770
27035.0 2.86236 0.268(6) 25816. 0.2538 0.2750
27045.0 2.86342 0.276(6) 25097. 0.2539 0.2730
27055.0 2.86448 0.268(6) 25785. 0.2540 0.2712
27065.0 2.86554 0.263(6) 26191. 0.2541 0.2695
27075.0 2.86660 0.267(6) 25812. 0.2542 0.2679
27085.0 2.86766 0.263(6) 26253. 0.2543 0.2666
27095.0 2.86872 0.271(6) 25437. 0.2545 0.2654
27105.0 2.86978 0.281(6) 24611. 0.2546 0.2643
27115.0 2.87084 0.273(6) 25273. 0.2547 0.2633
27125.0 2.87190 0.262(6) 26304. 0.2548 0.2625
27135.0 2.87296 0.273(6) 25287. 0.2549 0.2618
27145.0 2.87402 0.262(6) 26254. 0.2550 0.2612
27155.0 2.87508 0.263(6) 26103. 0.2551 0.2607
27165.0 2.87614 0.259(6) 26497. 0.2553 0.2602
27175.0 2.87720 0.273(6) 25151. 0.2554 0.2599
27185.0 2.87826 0.254(6) 26972. 0.2555 0.2596
27195.0 2.87932 0.260(6) 26366. 0.2556 0.2593
27205.0 2.88038 0.263(6) 26070. 0.2557 0.2591
27215.0 2.88144 0.268(6) 25533. 0.2558 0.2590
27225.0 2.88250 0.270(6) 25356. 0.2560 0.2589
27235.0 2.88356 0.256(6) 26703. 0.2561 0.2588
27245.0 2.88462 0.252(6) 27052. 0.2562 0.2587
27255.0 2.88568 0.257(6) 26562. 0.2563 0.2587
27265.0 2.88674 0.261(6) 26123. 0.2564 0.2587
27275.0 2.88780 0.264(6) 25917. 0.2566 0.2587
27285.0 2.88886 0.267(6) 25551. 0.2567 0.2587
27295.0 2.88992 0.265(6) 25734. 0.2568 0.2587
27305.0 2.89098 0.262(6) 25986. 0.2569 0.2587
27315.0 2.89204 0.277(6) 24598. 0.2570 0.2588
27325.0 2.89310 0.256(6) 26578. 0.2572 0.2588
27335.0 2.89416 0.266(6) 25625. 0.2573 0.2589
27345.0 2.89522 0.268(6) 25393. 0.2574 0.2590
27355.0 2.89628 0.266(6) 25471. 0.2575 0.2590
27365.0 2.89734 0.269(6) 25288. 0.2576 0.2591
27375.0 2.89840 0.257(6) 26419. 0.2578 0.2592
27385.0 2.89946 0.259(6) 26169. 0.2579 0.2593
27395.0 2.90052 0.275(6) 24757. 0.2580 0.2593
27405.0 2.90158 0.264(6) 25742. 0.2581 0.2594
27415.0 2.90264 0.261(6) 25897. 0.2583 0.2595
27425.0 2.90370 0.260(6) 25944. 0.2584 0.2596
27435.0 2.90476 0.275(6) 24603. 0.2585 0.2597
27445.0 2.90582 0.261(6) 25821. 0.2586 0.2598
27455.0 2.90688 0.263(6) 25659. 0.2588 0.2599
27465.0 2.90794 0.262(6) 25744. 0.2589 0.2600
27475.0 2.90900 0.257(6) 26234. 0.2590 0.2601
27485.0 2.91006 0.270(6) 24867. 0.2591 0.2602
27495.0 2.91112 0.267(6) 25163. 0.2593 0.2603
27505.0 2.91218 0.264(6) 25376. 0.2594 0.2604
27515.0 2.91324 0.268(6) 25011. 0.2595 0.2605
27525.0 2.91430 0.278(6) 24110. 0.2596 0.2606
27535.0 2.91536 0.271(6) 24729. 0.2598 0.2608
27545.0 2.91642 0.263(6) 25499. 0.2599 0.2609
27555.0 2.91748 0.265(6) 25224. 0.2600 0.2610
27565.0 2.91854 0.269(6) 24807. 0.2602 0.2611
27575.0 2.91960 0.256(6) 26128. 0.2603 0.2612
27585.0 2.92066 0.266(6) 25170. 0.2604 0.2613
27595.0 2.92172 0.269(6) 24927. 0.2606 0.2614
27605.0 2.92278 0.256(6) 26069. 0.2607 0.2616
27615.0 2.92384 0.261(6) 25552. 0.2608 0.2617
27625.0 2.92490 0.255(6) 26143. 0.2609 0.2618
27635.0 2.92596 0.250(6) 26532. 0.2611 0.2619
27645.0 2.92702 0.270(6) 24627. 0.2612 0.2621
27655.0 2.92808 0.260(6) 25473. 0.2613 0.2622
27665.0 2.92914 0.266(6) 24897. 0.2615 0.2623
27675.0 2.93020 0.270(6) 24518. 0.2616 0.2624
27685.0 2.93126 0.259(6) 25562. 0.2617 0.2625
27695.0 2.93232 0.262(6) 25182. 0.2619 0.2627
27705.0 2.93338 0.255(6) 25893. 0.2620 0.2628
27715.0 2.93444 0.262(6) 25169. 0.2621 0.2629
27725.0 2.93550 0.263(6) 25022. 0.2623 0.2631
27735.0 2.93656 0.256(6) 25690. 0.2624 0.2632
27745.0 2.93762 0.262(6) 25078. 0.2626 0.2633
27755.0 2.93868 0.258(6) 25487. 0.2627 0.2635
27765.0 2.93974 0.255(6) 25691. 0.2628 0.2636
27775.0 2.94080 0.265(6) 24665. 0.2630 0.2637
27785.0 2.94186 0.264(6) 24785. 0.2631 0.2638
27795.0 2.94292 0.276(6) 23709. 0.2632 0.2640
27805.0 2.94398 0.254(6) 25740. 0.2634 0.2641
27815.0 2.94504 0.276(6) 23696. 0.2635 0.2643
27825.0 2.94610 0.263(6) 24675. 0.2637 0.2644
27835.0 2.94716 0.278(7) 23348. 0.2638 0.2645
27845.0 2.94822 0.276(7) 23463. 0.2639 0.2647
27855.0 2.94928 0.267(6) 24256. 0.2641 0.2648
27865.0 2.95034 0.273(6) 23733. 0.2642 0.2649
27875.0 2.95140 0.274(6) 23686. 0.2644 0.2651
27885.0 2.95246 0.278(7) 23348. 0.2645 0.2652
27895.0 2.95352 0.264(6) 24573. 0.2646 0.2654
27905.0 2.95458 0.258(6) 25081. 0.2648 0.2655
27915.0 2.95564 0.265(6) 24394. 0.2649 0.2656
27925.0 2.95670 0.268(6) 24224. 0.2651 0.2658
27935.0 2.95776 0.261(6) 24798. 0.2652 0.2659
27945.0 2.95882 0.261(6) 24851. 0.2654 0.2661
27955.0 2.95988 0.262(6) 24724. 0.2655 0.2662
27965.0 2.96094 0.275(7) 23476. 0.2657 0.2664
27975.0 2.96200 0.261(6) 24635. 0.2658 0.2665
27985.0 2.96306 0.270(6) 23796. 0.2659 0.2667
27995.0 2.96412 0.277(7) 23262. 0.2661 0.2668
28005.0 2.96518 0.271(6) 23754. 0.2662 0.2669
28015.0 2.96624 0.272(6) 23684. 0.2664 0.2671
28025.0 2.96730 0.273(7) 23576. 0.2665 0.2672
28035.0 2.96836 0.272(7) 23556. 0.2667 0.2674
28045.0 2.96942 0.269(6) 23805. 0.2668 0.2675
28055.0 2.97048 0.277(7) 23098. 0.2670 0.2677
28065.0 2.97154 0.272(7) 23431. 0.2671 0.2678
28075.0 2.97260 0.276(7) 23025. 0.2673 0.2680
28085.0 2.97366 0.271(7) 23312. 0.2674 0.2681
28095.0 2.97472 0.275(7) 22968. 0.2676 0.2683
28105.0 2.97578 0.262(6) 24000. 0.2677 0.2684
28115.0 2.97684 0.269(7) 23362. 0.2679 0.2686
28125.0 2.97790 0.268(7) 23409. 0.2680 0.2688
28135.0 2.97896 0.282(7) 22298. 0.2682 0.2689
28145.0 2.98002 0.272(7) 23034. 0.2683 0.2691
28155.0 2.98108 0.265(7) 23598. 0.2685 0.2692
28165.0 2.98214 0.274(7) 22861. 0.2686 0.2694
28175.0 2.98320 0.269(7) 23166. 0.2688 0.2695
28185.0 2.98426 0.274(7) 22825. 0.2689 0.2697
28195.0 2.98532 0.289(7) 21539. 0.2691 0.2699
28205.0 2.98638 0.277(7) 22408. 0.2693 0.2700
28215.0 2.98744 0.278(7) 22441. 0.2694 0.2702
28225.0 2.98850 0.268(7) 23210. 0.2696 0.2703
28235.0 2.98956 0.272(7) 22855. 0.2697 0.2705
28245.0 2.99062 0.266(7) 23310. 0.2699 0.2707
28255.0 2.99168 0.263(7) 23618. 0.2700 0.2708
28265.0 2.99274 0.287(7) 21654. 0.2702 0.2710
28275.0 2.99380 0.278(7) 22320. 0.2704 0.2711
28285.0 2.99486 0.265(7) 23381. 0.2705 0.2713
28295.0 2.99592 0.288(7) 21544. 0.2707 0.2715
28305.0 2.99698 0.270(7) 22845. 0.2708 0.2716
28315.0 2.99804 0.270(7) 22887. 0.2710 0.2718
28325.0 2.99910 0.277(7) 22247. 0.2711 0.2720
28335.0 3.00016 0.277(7) 22256. 0.2713 0.2721
28345.0 3.00122 0.280(7) 22043. 0.2715 0.2723
28355.0 3.00228 0.283(7) 21702. 0.2716 0.2725
28365.0 3.00334 0.267(7) 22975. 0.2718 0.2726
28375.0 3.00440 0.279(7) 22043. 0.2720 0.2728
28385.0 3.00546 0.286(7) 21458. 0.2721 0.2730
28395.0 3.00652 0.276(7) 22209. 0.2723 0.2732
28405.0 3.00758 0.280(7) 21905. 0.2724 0.2733
28415.0 3.00864 0.268(7) 22825. 0.2726 0.2735
28425.0 3.00970 0.291(7) 21132. 0.2728 0.2737
28435.0 3.01076 0.274(7) 22446. 0.2729 0.2739
28445.0 3.01182 0.261(7) 23426. 0.2731 0.2740
28455.0 3.01288 0.274(7) 22316. 0.2733 0.2742
28465.0 3.01394 0.276(7) 22220. 0.2734 0.2744
28475.0 3.01500 0.271(7) 22540. 0.2736 0.2746
28485.0 3.01606 0.288(7) 21315. 0.2738 0.2747
28495.0 3.01712 0.274(7) 22358. 0.2739 0.2749
28505.0 3.01818 0.282(7) 21659. 0.2741 0.2751
28515.0 3.01924 0.268(7) 22782. 0.2743 0.2753
28525.0 3.02030 0.279(7) 21841. 0.2745 0.2754
28535.0 3.02136 0.276(7) 22058. 0.2746 0.2756
28545.0 3.02242 0.268(7) 22645. 0.2748 0.2758
28555.0 3.02348 0.293(7) 20750. 0.2750 0.2760
28565.0 3.02454 0.276(7) 22049. 0.2751 0.2762
28575.0 3.02560 0.284(7) 21374. 0.2753 0.2764
28585.0 3.02666 0.277(7) 21863. 0.2755 0.2765
28595.0 3.02772 0.290(7) 20940. 0.2756 0.2767
28605.0 3.02878 0.284(7) 21289. 0.2758 0.2769
28615.0 3.02984 0.273(7) 22150. 0.2760 0.2771
28625.0 3.03091 0.285(7) 21256. 0.2762 0.2773
28635.0 3.03197 0.277(7) 21811. 0.2763 0.2775
28645.0 3.03303 0.290(7) 20849. 0.2765 0.2777
28655.0 3.03409 0.264(7) 22773. 0.2767 0.2779
28665.0 3.03515 0.271(7) 22224. 0.2769 0.2781
28675.0 3.03621 0.276(7) 21824. 0.2770 0.2783
28685.0 3.03727 0.271(7) 22276. 0.2772 0.2784
28695.0 3.03833 0.281(7) 21378. 0.2774 0.2786
28705.0 3.03939 0.273(7) 21954. 0.2776 0.2788
28715.0 3.04045 0.282(7) 21351. 0.2778 0.2790
28725.0 3.04151 0.281(7) 21421. 0.2779 0.2792
28735.0 3.04257 0.275(7) 21836. 0.2781 0.2794
28745.0 3.04363 0.276(7) 21806. 0.2783 0.2796
28755.0 3.04469 0.274(7) 21923. 0.2785 0.2798
28765.0 3.04575 0.276(7) 21691. 0.2786 0.2800
28775.0 3.04681 0.283(7) 21155. 0.2788 0.2802
28785.0 3.04787 0.275(7) 21691. 0.2790 0.2804
28795.0 3.04893 0.288(7) 20727. 0.2792 0.2806
28805.0 3.04999 0.294(7) 20298. 0.2794 0.2808
28815.0 3.05105 0.296(7) 20118. 0.2796 0.2811
28825.0 3.05211 0.287(7) 20689. 0.2797 0.2813
28835.0 3.05317 0.289(7) 20565. 0.2799 0.2815
28845.0 3.05423 0.286(7) 20646. 0.2801 0.2817
28855.0 3.05529 0.293(7) 20208. 0.2803 0.2819
28865.0 3.05635 0.281(7) 21005. 0.2805 0.2821
28875.0 3.05741 0.281(7) 20982. 0.2807 0.2823
28885.0 3.05847 0.282(7) 20943. 0.2808 0.2825
28895.0 3.05953 0.282(7) 20925. 0.2810 0.2828
28905.0 3.06059 0.290(7) 20330. 0.2812 0.2830
28915.0 3.06165 0.283(7) 20823. 0.2814 0.2832
28925.0 3.06271 0.281(7) 20935. 0.2816 0.2834
28935.0 3.06377 0.286(7) 20569. 0.2818 0.2836
28945.0 3.06483 0.292(7) 20120. 0.2820 0.2839
28955.0 3.06589 0.282(7) 20721. 0.2822 0.2841
28965.0 3.06695 0.292(7) 20074. 0.2823 0.2843
28975.0 3.06801 0.276(7) 21239. 0.2825 0.2845
28985.0 3.06907 0.293(7) 20009. 0.2827 0.2848
28995.0 3.07013 0.297(7) 19765. 0.2829 0.2850
29005.0 3.07119 0.300(7) 19572. 0.2831 0.2852
29015.0 3.07225 0.294(7) 19870. 0.2833 0.2855
29025.0 3.07331 0.289(7) 20189. 0.2835 0.2857
29035.0 3.07437 0.293(7) 19878. 0.2837 0.2860
29045.0 3.07543 0.285(7) 20408. 0.2839 0.2862
29055.0 3.07649 0.289(7) 20148. 0.2841 0.2864
29065.0 3.07755 0.293(7) 19892. 0.2843 0.2867
29075.0 3.07861 0.296(7) 19702. 0.2845 0.2869
29085.0 3.07967 0.286(7) 20328. 0.2846 0.2872
29095.0 3.08073 0.279(7) 20813. 0.2848 0.2874
29105.0 3.08179 0.294(7) 19751. 0.2850 0.2877
29115.0 3.08285 0.291(7) 19926. 0.2852 0.2880
29125.0 3.08391 0.291(7) 19908. 0.2854 0.2882
29135.0 3.08497 0.296(7) 19574. 0.2856 0.2885
29145.0 3.08603 0.291(7) 19941. 0.2858 0.2888
29155.0 3.08709 0.295(7) 19631. 0.2860 0.2890
29165.0 3.08815 0.281(7) 20552. 0.2862 0.2893
29175.0 3.08921 0.300(7) 19189. 0.2864 0.2896
29185.0 3.09027 0.300(7) 19176. 0.2866 0.2899
29195.0 3.09133 0.290(7) 19840. 0.2868 0.2902
29205.0 3.09239 0.300(7) 19143. 0.2870 0.2904
29215.0 3.09345 0.297(7) 19309. 0.2872 0.2907
29225.0 3.09451 0.284(7) 20088. 0.2874 0.2910
29235.0 3.09557 0.308(7) 18601. 0.2876 0.2913
29245.0 3.09663 0.301(7) 18968. 0.2878 0.2917
29255.0 3.09769 0.293(7) 19470. 0.2880 0.2920
29265.0 3.09875 0.296(7) 19345. 0.2882 0.2923
29275.0 3.09981 0.301(7) 19017. 0.2884 0.2926
29285.0 3.10087 0.294(7) 19374. 0.2886 0.2930
29295.0 3.10193 0.295(7) 19349. 0.2888 0.2933
29305.0 3.10299 0.288(7) 19744. 0.2890 0.2936
29315.0 3.10405 0.294(7) 19344. 0.2892 0.2940
29325.0 3.10511 0.299(7) 18992. 0.2894 0.2943
29335.0 3.10617 0.292(7) 19454. 0.2896 0.2947
29345.0 3.10723 0.297(7) 19140. 0.2898 0.2951
29355.0 3.10829 0.291(7) 19514. 0.2900 0.2956
29365.0 3.10935 0.303(7) 18697. 0.2902 0.2960
29375.0 3.11041 0.296(7) 19175. 0.2905 0.2965
29385.0 3.11148 0.303(7) 18787. 0.2907 0.2970
29395.0 3.11254 0.283(7) 20044. 0.2909 0.2975
29405.0 3.11360 0.314(7) 18092. 0.2911 0.2980
29415.0 3.11466 0.306(7) 18579. 0.2913 0.2986
29425.0 3.11572 0.305(7) 18646. 0.2915 0.2993
29435.0 3.11678 0.297(7) 19129. 0.2917 0.3000
29445.0 3.11784 0.311(7) 18251. 0.2919 0.3008
29455.0 3.11890 0.318(7) 17796. 0.2921 0.3016
29465.0 3.11996 0.306(7) 18454. 0.2923 0.3026
29475.0 3.12102 0.301(7) 18705. 0.2925 0.3036
29485.0 3.12208 0.313(7) 17934. 0.2927 0.3048
29495.0 3.12314 0.315(7) 17806. 0.2929 0.3061
29505.0 3.12420 0.306(7) 18261. 0.2932 0.3075
29515.0 3.12526 0.297(7) 18786. 0.2934 0.3092
29525.0 3.12632 0.315(8) 17709. 0.2936 0.3110
29535.0 3.12738 0.333(8) 16794. 0.2938 0.3131
29545.0 3.12844 0.318(8) 17565. 0.2940 0.3154
29555.0 3.12950 0.318(8) 17563. 0.2942 0.3180
29565.0 3.13056 0.327(8) 17036. 0.2944 0.3208
29575.0 3.13162 0.338(8) 16488. 0.2946 0.3240
29585.0 3.13268 0.333(8) 16725. 0.2948 0.3276
29595.0 3.13374 0.335(8) 16602. 0.2951 0.3315
29605.0 3.13480 0.323(8) 17181. 0.2953 0.3358
29615.0 3.13586 0.343(8) 16171. 0.2955 0.3406
29625.0 3.13692 0.348(8) 15929. 0.2957 0.3458
29635.0 3.13798 0.344(8) 16113. 0.2959 0.3514
29645.0 3.13904 0.353(8) 15705. 0.2961 0.3576
29655.0 3.14010 0.375(8) 14774. 0.2963 0.3642
29665.0 3.14116 0.376(8) 14716. 0.2966 0.3712
29675.0 3.14222 0.369(8) 14960. 0.2968 0.3788
29685.0 3.14328 0.388(8) 14241. 0.2970 0.3868
29695.0 3.14434 0.391(8) 14088. 0.2972 0.3952
29705.0 3.14540 0.393(8) 14010. 0.2974 0.4040
29715.0 3.14646 0.390(8) 14083. 0.2976 0.4132
29725.0 3.14752 0.406(9) 13495. 0.2979 0.4227
29735.0 3.14858 0.423(9) 12983. 0.2981 0.4324
29745.0 3.14964 0.432(9) 12696. 0.2983 0.4423
29755.0 3.15070 0.469(9) 11733. 0.2985 0.4522
29765.0 3.15176 0.468(9) 11743. 0.2987 0.4622
29775.0 3.15282 0.479(9) 11464. 0.2989 0.4721
29785.0 3.15388 0.476(9) 11515. 0.2992 0.4817
29795.0 3.15494 0.453(9) 12086. 0.2994 0.4910
29805.0 3.15600 0.494(9) 11090. 0.2996 0.4998
29815.0 3.15706 0.504(10) 10857. 0.2998 0.5081
29825.0 3.15812 0.491(9) 11117. 0.3000 0.5156
29835.0 3.15918 0.523(10) 10429. 0.3003 0.5224
29845.0 3.16024 0.526(10) 10333. 0.3005 0.5281
29855.0 3.16130 0.532(10) 10201. 0.3007 0.5328
29865.0 3.16236 0.530(10) 10234. 0.3009 0.5364
29875.0 3.16342 0.535(10) 10111. 0.3011 0.5388
29885.0 3.16448 0.517(10) 10474. 0.3014 0.5400
29895.0 3.16554 0.527(10) 10256. 0.3016 0.5400
29905.0 3.16660 0.527(10) 10223. 0.3018 0.5387
29915.0 3.16766 0.535(10) 10058. 0.3020 0.5363
29925.0 3.16873 0.511(10) 10575. 0.3022 0.5327
29935.0 3.16979 0.513(10) 10542. 0.3025 0.5282
29945.0 3.17085 0.505(10) 10682. 0.3027 0.5226
29955.0 3.17191 0.488(10) 11026. 0.3029 0.5163
29965.0 3.17297 0.491(10) 10967. 0.3031 0.5091
29975.0 3.17403 0.475(9) 11298. 0.3033 0.5014
29985.0 3.17509 0.461(9) 11631. 0.3036 0.4932
29995.0 3.17615 0.471(9) 11369. 0.3038 0.4846
30005.0 3.17721 0.465(9) 11534. 0.3040 0.4756
30015.0 3.17827 0.455(9) 11758. 0.3042 0.4665
30025.0 3.17933 0.421(9) 12694. 0.3045 0.4573
30035.0 3.18039 0.426(9) 12512. 0.3047 0.4482
30045.0 3.18145 0.423(9) 12600. 0.3049 0.4391
30055.0 3.18251 0.417(9) 12766. 0.3051 0.4302
30065.0 3.18357 0.407(9) 13057. 0.3053 0.4215
30075.0 3.18463 0.398(9) 13348. 0.3056 0.4130
30085.0 3.18569 0.400(9) 13259. 0.3058 0.4050
30095.0 3.18675 0.378(8) 13970. 0.3060 0.3972
30105.0 3.18781 0.387(9) 13651. 0.3062 0.3899
30115.0 3.18887 0.384(9) 13704. 0.3065 0.3830
30125.0 3.18993 0.360(8) 14578. 0.3067 0.3766
30135.0 3.19099 0.369(8) 14203. 0.3069 0.3706
30145.0 3.19205 0.367(8) 14233. 0.3071 0.3650
30155.0 3.19311 0.353(8) 14718. 0.3073 0.3598
30165.0 3.19417 0.346(8) 15013. 0.3076 0.3551
30175.0 3.19523 0.341(8) 15294. 0.3078 0.3508
30185.0 3.19629 0.346(8) 15075. 0.3080 0.3469
30195.0 3.19735 0.350(8) 14920. 0.3082 0.3434
30205.0 3.19841 0.339(8) 15369. 0.3085 0.3402
30215.0 3.19947 0.337(8) 15463. 0.3087 0.3374
30225.0 3.20053 0.346(8) 15036. 0.3089 0.3349
30235.0 3.20159 0.344(8) 15119. 0.3091 0.3326
30245.0 3.20265 0.313(8) 16524. 0.3094 0.3306
30255.0 3.20371 0.341(8) 15214. 0.3096 0.3289
30265.0 3.20477 0.321(8) 16132. 0.3098 0.3274
30275.0 3.20583 0.322(8) 16039. 0.3100 0.3261
30285.0 3.20689 0.331(8) 15574. 0.3102 0.3249
30295.0 3.20795 0.324(8) 15838. 0.3105 0.3239
30305.0 3.20901 0.321(8) 15979. 0.3107 0.3230
30315.0 3.21007 0.337(8) 15259. 0.3109 0.3223
30325.0 3.21113 0.315(8) 16261. 0.3111 0.3217
30335.0 3.21219 0.329(8) 15580. 0.3114 0.3212
30345.0 3.21325 0.331(8) 15515. 0.3116 0.3207
30355.0 3.21431 0.332(8) 15478. 0.3118 0.3204
30365.0 3.21537 0.312(8) 16400. 0.3120 0.3201
30375.0 3.21643 0.320(8) 15978. 0.3122 0.3198
30385.0 3.21749 0.324(8) 15817. 0.3125 0.3196
30395.0 3.21856 0.325(8) 15789. 0.3127 0.3195
30405.0 3.21962 0.333(8) 15395. 0.3129 0.3193
30415.0 3.22068 0.334(8) 15372. 0.3131 0.3192
30425.0 3.22174 0.324(8) 15786. 0.3133 0.3192
30435.0 3.22280 0.323(8) 15855. 0.3136 0.3192
30445.0 3.22386 0.305(8) 16771. 0.3138 0.3191
30455.0 3.22492 0.308(8) 16625. 0.3140 0.3191
30465.0 3.22598 0.318(8) 16082. 0.3142 0.3192
30475.0 3.22704 0.302(8) 16957. 0.3144 0.3192
30485.0 3.22810 0.315(8) 16201. 0.3147 0.3193
30495.0 3.22916 0.325(8) 15645. 0.3149 0.3193
30505.0 3.23022 0.317(8) 16009. 0.3151 0.3194
30515.0 3.23128 0.322(8) 15787. 0.3153 0.3195
30525.0 3.23234 0.309(8) 16384. 0.3155 0.3195
30535.0 3.23340 0.320(8) 15800. 0.3158 0.3196
30545.0 3.23446 0.313(8) 16120. 0.3160 0.3197
30555.0 3.23552 0.317(8) 15875. 0.3162 0.3198
30565.0 3.23658 0.325(8) 15474. 0.3164 0.3200
30575.0 3.23764 0.321(8) 15636. 0.3166 0.3201
30585.0 3.23870 0.303(8) 16542. 0.3168 0.3202
30595.0 3.23976 0.331(8) 15164. 0.3171 0.3203
30605.0 3.24082 0.301(8) 16578. 0.3173 0.3204
30615.0 3.24188 0.322(8) 15478. 0.3175 0.3206
30625.0 3.24294 0.322(8) 15471. 0.3177 0.3207
30635.0 3.24400 0.307(8) 16172. 0.3179 0.3208
30645.0 3.24506 0.323(8) 15334. 0.3181 0.3210
30655.0 3.24612 0.323(8) 15272. 0.3183 0.3211
30665.0 3.24718 0.332(8) 14866. 0.3186 0.3213
30675.0 3.24824 0.327(8) 15109. 0.3188 0.3214
30685.0 3.24930 0.328(8) 15030. 0.3190 0.3216
30695.0 3.25036 0.324(8) 15200. 0.3192 0.3217
30705.0 3.25142 0.323(8) 15188. 0.3194 0.3219
30715.0 3.25248 0.325(8) 15077. 0.3196 0.3220
30725.0 3.25354 0.319(8) 15345. 0.3198 0.3222
30735.0 3.25460 0.316(8) 15411. 0.3200 0.3223
30745.0 3.25566 0.311(8) 15594. 0.3202 0.3225
30755.0 3.25672 0.338(8) 14404. 0.3205 0.3226
30765.0 3.25778 0.326(8) 14871. 0.3207 0.3228
30775.0 3.25884 0.333(8) 14525. 0.3209 0.3230
30785.0 3.25990 0.325(8) 14878. 0.3211 0.3231
30795.0 3.26097 0.320(8) 15085. 0.3213 0.3233
30805.0 3.26203 0.335(8) 14411. 0.3215 0.3234
30815.0 3.26309 0.334(8) 14393. 0.3217 0.3236
30825.0 3.26415 0.316(8) 15192. 0.3219 0.3238
30835.0 3.26521 0.325(8) 14741. 0.3221 0.3239
30845.0 3.26627 0.327(8) 14644. 0.3223 0.3241
30855.0 3.26733 0.338(8) 14157. 0.3225 0.3243
30865.0 3.26839 0.322(8) 14874. 0.3227 0.3244
30875.0 3.26945 0.323(8) 14876. 0.3229 0.3246
30885.0 3.27051 0.334(8) 14391. 0.3231 0.3248
30895.0 3.27157 0.325(8) 14815. 0.3233 0.3249
30905.0 3.27263 0.321(8) 14952. 0.3235 0.3251
30915.0 3.27369 0.326(8) 14713. 0.3237 0.3253
30925.0 3.27475 0.320(8) 14986. 0.3239 0.3254
30935.0 3.27581 0.332(8) 14421. 0.3241 0.3256
30945.0 3.27687 0.324(8) 14785. 0.3243 0.3258
30955.0 3.27793 0.321(8) 14919. 0.3245 0.3259
30965.0 3.27899 0.315(8) 15150. 0.3247 0.3261
30975.0 3.28005 0.321(8) 14872. 0.3249 0.3263
30985.0 3.28111 0.329(8) 14469. 0.3251 0.3264
30995.0 3.28217 0.339(8) 14077. 0.3253 0.3266
31005.0 3.28323 0.321(8) 14813. 0.3255 0.3268
31015.0 3.28429 0.311(8) 15304. 0.3256 0.3269
31025.0 3.28535 0.315(8) 15072. 0.3258 0.3271
31035.0 3.28641 0.316(8) 15080. 0.3260 0.3273
31045.0 3.28747 0.326(8) 14604. 0.3262 0.3275
31055.0 3.28853 0.338(8) 14060. 0.3264 0.3276
31065.0 3.28959 0.335(8) 14195. 0.3266 0.3278
31075.0 3.29065 0.323(8) 14734. 0.3268 0.3280
31085.0 3.29171 0.330(8) 14416. 0.3270 0.3281
31095.0 3.29277 0.324(8) 14641. 0.3271 0.3283
31105.0 3.29383 0.308(8) 15412. 0.3273 0.3285
31115.0 3.29489 0.321(8) 14757. 0.3275 0.3286
31125.0 3.29595 0.319(8) 14811. 0.3277 0.3288
31135.0 3.29701 0.326(8) 14520. 0.3279 0.3290
31145.0 3.29807 0.327(8) 14439. 0.3280 0.3291
31155.0 3.29914 0.346(9) 13609. 0.3282 0.3293
31165.0 3.30020 0.324(8) 14457. 0.3284 0.3294
31175.0 3.30126 0.331(8) 14134. 0.3286 0.3296
31185.0 3.30232 0.331(8) 14105. 0.3287 0.3297
31195.0 3.30338 0.327(8) 14272. 0.3289 0.3299
31205.0 3.30444 0.335(8) 13912. 0.3291 0.3301
31215.0 3.30550 0.332(8) 14009. 0.3292 0.3302
31225.0 3.30656 0.334(8) 13918. 0.3294 0.3304
31235.0 3.30762 0.334(8) 13897. 0.3296 0.3305
31245.0 3.30868 0.311(8) 14909. 0.3297 0.3307
31255.0 3.30974 0.333(8) 13888. 0.3299 0.3308
31265.0 3.31080 0.325(8) 14228. 0.3301 0.3310
31275.0 3.31186 0.321(8) 14361. 0.3302 0.3311
31285.0 3.31292 0.338(9) 13643. 0.3304 0.3313
31295.0 3.31398 0.330(8) 13933. 0.3305 0.3314
31305.0 3.31504 0.327(8) 14015. 0.3307 0.3316
31315.0 3.31610 0.320(8) 14273. 0.3309 0.3317
31325.0 3.31716 0.339(9) 13480. 0.3310 0.3319
31335.0 3.31822 0.334(9) 13681. 0.3312 0.3320
31345.0 3.31928 0.336(9) 13603. 0.3313 0.3321
31355.0 3.32034 0.342(9) 13362. 0.3315 0.3323
31365.0 3.32140 0.336(9) 13593. 0.3316 0.3324
31375.0 3.32246 0.328(8) 13869. 0.3318 0.3326
31385.0 3.32352 0.337(9) 13506. 0.3319 0.3327
31395.0 3.32458 0.316(8) 14370. 0.3321 0.3328
31405.0 3.32564 0.320(8) 14146. 0.3322 0.3330
31415.0 3.32670 0.319(8) 14140. 0.3323 0.3331
31425.0 3.32776 0.325(8) 13870. 0.3325 0.3332
31435.0 3.32882 0.339(9) 13299. 0.3326 0.3334
31445.0 3.32988 0.323(8) 13959. 0.3328 0.3335
31455.0 3.33094 0.322(8) 13983. 0.3329 0.3337
31465.0 3.33200 0.334(9) 13474. 0.3330 0.3338
31475.0 3.33306 0.331(9) 13592. 0.3332 0.3339
31485.0 3.33413 0.336(9) 13328. 0.3333 0.3340
31495.0 3.33519 0.335(9) 13355. 0.3334 0.3342
31505.0 3.33625 0.330(9) 13563. 0.3335 0.3343
31515.0 3.33731 0.320(8) 13926. 0.3337 0.3344
31525.0 3.33837 0.340(9) 13189. 0.3338 0.3345
31535.0 3.33943 0.336(9) 13294. 0.3339 0.3346
31545.0 3.34049 0.327(9) 13673. 0.3340 0.3347
31555.0 3.34155 0.342(9) 13015. 0.3341 0.3348
31565.0 3.34261 0.338(9) 13187. 0.3343 0.3350
31575.0 3.34367 0.331(9) 13445. 0.3344 0.3351
31585.0 3.34473 0.343(9) 12908. 0.3345 0.3352
31595.0 3.34579 0.340(9) 13027. 0.3346 0.3353
31605.0 3.34685 0.336(9) 13219. 0.3347 0.3354
31615.0 3.34791 0.335(9) 13199. 0.3348 0.3355
31625.0 3.34897 0.328(9) 13484. 0.3349 0.3356
31635.0 3.35003 0.346(9) 12738. 0.3350 0.3357
31645.0 3.35109 0.339(9) 12979. 0.3351 0.3358
31655.0 3.35215 0.335(9) 13086. 0.3352 0.3358
31665.0 3.35321 0.342(9) 12834. 0.3353 0.3359
31675.0 3.35427 0.327(9) 13371. 0.3354 0.3360
31685.0 3.35533 0.333(9) 13105. 0.3355 0.3361
31695.0 3.35639 0.327(9) 13294. 0.3356 0.3362
31705.0 3.35745 0.324(9) 13417. 0.3357 0.3363
31715.0 3.35851 0.367(9) 11923. 0.3357 0.3364
31725.0 3.35957 0.353(9) 12299. 0.3358 0.3364
31735.0 3.36063 0.353(9) 12325. 0.3359 0.3365
31745.0 3.36169 0.330(9) 13104. 0.3360 0.3366
31755.0 3.36275 0.337(9) 12769. 0.3360 0.3366
31765.0 3.36381 0.348(9) 12383. 0.3361 0.3367
31775.0 3.36487 0.345(9) 12402. 0.3362 0.3368
31785.0 3.36594 0.331(9) 12927. 0.3363 0.3368
31795.0 3.36700 0.338(9) 12628. 0.3363 0.3369
31805.0 3.36806 0.358(9) 11952. 0.3364 0.3370
31815.0 3.36912 0.329(9) 12959. 0.3364 0.3370
31825.0 3.37018 0.343(9) 12421. 0.3365 0.3371
31835.0 3.37124 0.340(9) 12533. 0.3366 0.3371
31845.0 3.37230 0.342(9) 12461. 0.3366 0.3372
31855.0 3.37336 0.327(9) 12916. 0.3367 0.3372
31865.0 3.37442 0.343(9) 12304. 0.3367 0.3373
31875.0 3.37548 0.336(9) 12556. 0.3368 0.3373
31885.0 3.37654 0.343(9) 12324. 0.3368 0.3373
31895.0 3.37760 0.332(9) 12670. 0.3368 0.3374
31905.0 3.37866 0.342(9) 12279. 0.3369 0.3374
31915.0 3.37972 0.342(9) 12246. 0.3369 0.3374
31925.0 3.38078 0.357(9) 11759. 0.3369 0.3375
31935.0 3.38184 0.332(9) 12611. 0.3370 0.3375
31945.0 3.38290 0.338(9) 12350. 0.3370 0.3375
31955.0 3.38396 0.320(9) 13034. 0.3370 0.3375
31965.0 3.38502 0.332(9) 12574. 0.3370 0.3375
31975.0 3.38608 0.334(9) 12485. 0.3370 0.3376
31985.0 3.38714 0.338(9) 12310. 0.3371 0.3376
31995.0 3.38820 0.350(9) 11888. 0.3371 0.3376
32005.0 3.38926 0.351(9) 11864. 0.3371 0.3376
32015.0 3.39032 0.349(9) 11915. 0.3371 0.3376
32025.0 3.39138 0.356(9) 11659. 0.3371 0.3376
32035.0 3.39244 0.337(9) 12306. 0.3371 0.3376
32045.0 3.39350 0.356(9) 11668. 0.3371 0.3376
32055.0 3.39456 0.330(9) 12569. 0.3371 0.3376
32065.0 3.39562 0.350(9) 11877. 0.3370 0.3375
32075.0 3.39669 0.335(9) 12350. 0.3370 0.3375
32085.0 3.39775 0.344(9) 12027. 0.3370 0.3375
32095.0 3.39881 0.347(9) 11894. 0.3370 0.3375
32105.0 . 0.348(9) . . .
32115.0 . 0.352(9) . . .
32125.0 . 0.349(9) . . .
32135.0 . 0.372(10) . . .
32145.0 . 0.351(9) . . .
32155.0 . 0.343(9) . . .
32165.0 . 0.353(9) . . .
32175.0 . 0.339(9) . . .
32185.0 . 0.345(9) . . .
32195.0 . 0.332(9) . . .
32205.0 . 0.349(9) . . .
32215.0 . 0.345(9) . . .
32225.0 . 0.346(9) . . .
32235.0 . 0.345(9) . . .
32245.0 . 0.329(9) . . .
32255.0 . 0.357(9) . . .
32265.0 . 0.344(9) . . .
32275.0 . 0.350(9) . . .
32285.0 . 0.359(10) . . .
32295.0 . 0.334(9) . . .
32305.0 . 0.340(9) . . .
32315.0 . 0.368(10) . . .
32325.0 . 0.350(9) . . .
32335.0 . 0.361(10) . . .
32345.0 . 0.370(10) . . .
32355.0 . 0.358(10) . . .
32365.0 . 0.363(10) . . .
32375.0 . 0.370(10) . . .
32385.0 . 0.357(10) . . .
32395.0 . 0.363(10) . . .
32405.0 . 0.330(9) . . .
32415.0 . 0.354(10) . . .
32425.0 . 0.343(9) . . .
32435.0 . 0.375(10) . . .
32445.0 . 0.344(9) . . .
32455.0 . 0.352(10) . . .
32465.0 . 0.348(10) . . .
32475.0 . 0.361(10) . . .
32485.0 . 0.376(10) . . .
32495.0 . 0.355(10) . . .
32505.0 . 0.360(10) . . .
32515.0 . 0.370(10) . . .
32525.0 . 0.344(10) . . .
32535.0 . 0.348(10) . . .
32545.0 . 0.361(10) . . .
32555.0 . 0.356(10) . . .
32565.0 . 0.364(10) . . .
32575.0 . 0.380(10) . . .
32585.0 . 0.360(10) . . .
32595.0 . 0.365(10) . . .
32605.0 . 0.345(10) . . .
32615.0 . 0.358(10) . . .
32625.0 . 0.362(10) . . .
32635.0 . 0.346(10) . . .
32645.0 . 0.347(10) . . .
32655.0 . 0.361(10) . . .
32665.0 . 0.350(10) . . .
32675.0 . 0.360(10) . . .
32685.0 . 0.342(10) . . .
32695.0 . 0.340(10) . . .
32705.0 . 0.364(10) . . .
32715.0 . 0.371(10) . . .
32725.0 . 0.372(10) . . .
32735.0 . 0.378(10) . . .
32745.0 . 0.362(10) . . .
32755.0 . 0.349(10) . . .
32765.0 . 0.342(10) . . .
32775.0 . 0.354(10) . . .
32785.0 . 0.343(10) . . .
32795.0 . 0.363(10) . . .
32805.0 . 0.358(10) . . .
32815.0 . 0.368(10) . . .
32825.0 . 0.349(10) . . .
32835.0 . 0.352(10) . . .
32845.0 . 0.350(10) . . .
32855.0 . 0.350(10) . . .
32865.0 . 0.351(10) . . .
32875.0 . 0.360(10) . . .
32885.0 . 0.362(10) . . .
32895.0 . 0.349(10) . . .
32905.0 . 0.340(10) . . .
32915.0 . 0.352(10) . . .
32925.0 . 0.341(10) . . .
32935.0 . 0.357(10) . . .
32945.0 . 0.356(10) . . .
32955.0 . 0.345(10) . . .
32965.0 . 0.348(10) . . .
32975.0 . 0.349(10) . . .
32985.0 . 0.349(10) . . .
32995.0 . 0.346(10) . . .
33005.0 . 0.344(10) . . .
33015.0 . 0.364(10) . . .
33025.0 . 0.336(10) . . .
33035.0 . 0.330(10) . . .
33045.0 . 0.349(10) . . .
33055.0 . 0.361(10) . . .
33065.0 . 0.348(10) . . .
33075.0 . 0.391(11) . . .
33085.0 . 0.349(10) . . .
33095.0 . 0.363(10) . . .
33105.0 . 0.355(10) . . .
33115.0 . 0.361(10) . . .
33125.0 . 0.365(10) . . .
33135.0 . 0.351(10) . . .
33145.0 . 0.358(10) . . .
33155.0 . 0.346(10) . . .
33165.0 . 0.368(10) . . .
33175.0 . 0.355(10) . . .
33185.0 . 0.370(10) . . .
33195.0 . 0.364(10) . . .
33205.0 . 0.366(10) . . .
33215.0 . 0.353(10) . . .
33225.0 . 0.364(10) . . .
33235.0 . 0.352(10) . . .
33245.0 . 0.347(10) . . .
33255.0 . 0.363(10) . . .
33265.0 . 0.335(10) . . .
33275.0 . 0.357(10) . . .
33285.0 . 0.348(10) . . .
33295.0 . 0.357(10) . . .
33305.0 . 0.361(10) . . .
33315.0 . 0.346(10) . . .
33325.0 . 0.372(10) . . .
33335.0 . 0.362(10) . . .
33345.0 . 0.366(10) . . .
33355.0 . 0.359(10) . . .
33365.0 . 0.354(10) . . .
33375.0 . 0.355(10) . . .
33385.0 . 0.352(10) . . .
33395.0 . 0.373(11) . . .
33405.0 . 0.353(10) . . .
33415.0 . 0.368(10) . . .
33425.0 . 0.371(11) . . .
33435.0 . 0.357(10) . . .
33445.0 . 0.353(10) . . .
33455.0 . 0.352(10) . . .
33465.0 . 0.381(11) . . .
33475.0 . 0.353(10) . . .
33485.0 . 0.359(10) . . .
33495.0 . 0.365(11) . . .
33505.0 . 0.357(10) . . .
33515.0 . 0.359(10) . . .
33525.0 . 0.363(11) . . .
33535.0 . 0.356(10) . . .
33545.0 . 0.376(11) . . .
33555.0 . 0.376(11) . . .
33565.0 . 0.369(11) . . .
33575.0 . 0.358(10) . . .
33585.0 . 0.354(10) . . .
33595.0 . 0.362(11) . . .
33605.0 . 0.358(10) . . .
33615.0 . 0.364(11) . . .
33625.0 . 0.373(11) . . .
33635.0 . 0.351(10) . . .
33645.0 . 0.357(10) . . .
33655.0 . 0.362(11) . . .
33665.0 . 0.370(11) . . .
33675.0 . 0.367(11) . . .
33685.0 . 0.357(11) . . .
33695.0 . 0.355(10) . . .
33705.0 . 0.343(10) . . .
33715.0 . 0.357(11) . . .
33725.0 . 0.362(11) . . .
33735.0 . 0.351(10) . . .
33745.0 . 0.347(10) . . .
33755.0 . 0.360(11) . . .
33765.0 . 0.355(10) . . .
33775.0 . 0.345(10) . . .
33785.0 . 0.371(11) . . .
33795.0 . 0.344(10) . . .
33805.0 . 0.351(10) . . .
33815.0 . 0.362(11) . . .
33825.0 . 0.356(11) . . .
33835.0 . 0.347(10) . . .
33845.0 . 0.342(10) . . .
33855.0 . 0.362(11) . . .
33865.0 . 0.353(11) . . .
33875.0 . 0.362(11) . . .
33885.0 . 0.367(11) . . .
33895.0 . 0.343(10) . . .
33905.0 . 0.366(11) . . .
33915.0 . 0.377(11) . . .
33925.0 . 0.347(11) . . .
33935.0 . 0.348(11) . . .
33945.0 . 0.342(10) . . .
33955.0 . 0.352(11) . . .
33965.0 . 0.364(11) . . .
33975.0 . 0.351(11) . . .
33985.0 . 0.345(11) . . .
33995.0 . 0.362(11) . . .
34005.0 . 0.352(11) . . .
34015.0 . 0.363(11) . . .
34025.0 . 0.339(10) . . .
34035.0 . 0.364(11) . . .
34045.0 . 0.370(11) . . .
34055.0 . 0.353(11) . . .
34065.0 . 0.357(11) . . .
34075.0 . 0.356(11) . . .
34085.0 . 0.344(11) . . .
34095.0 . 0.346(11) . . .
34105.0 . 0.351(11) . . .
34115.0 . 0.364(11) . . .
34125.0 . 0.347(11) . . .
34135.0 . 0.356(11) . . .
34145.0 . 0.345(11) . . .
34155.0 . 0.363(11) . . .
34165.0 . 0.352(11) . . .
34175.0 . 0.360(11) . . .
34185.0 . 0.360(11) . . .
34195.0 . 0.370(11) . . .
34205.0 . 0.376(11) . . .
34215.0 . 0.379(11) . . .
34225.0 . 0.381(11) . . .
34235.0 . 0.368(11) . . .
34245.0 . 0.364(11) . . .
34255.0 . 0.373(11) . . .
34265.0 . 0.374(11) . . .
34275.0 . 0.373(11) . . .
34285.0 . 0.386(11) . . .
34295.0 . 0.377(11) . . .
34305.0 . 0.375(11) . . .
34315.0 . 0.371(11) . . .
34325.0 . 0.384(11) . . .
34335.0 . 0.379(11) . . .
34345.0 . 0.395(12) . . .
34355.0 . 0.382(11) . . .
34365.0 . 0.380(11) . . .
34375.0 . 0.366(11) . . .
34385.0 . 0.398(12) . . .
34395.0 . 0.378(11) . . .
34405.0 . 0.351(11) . . .
34415.0 . 0.376(11) . . .
34425.0 . 0.375(11) . . .
34435.0 . 0.365(11) . . .
34445.0 . 0.382(11) . . .
34455.0 . 0.386(12) . . .
34465.0 . 0.368(11) . . .
34475.0 . 0.380(11) . . .
34485.0 . 0.386(12) . . .
34495.0 . 0.366(11) . . .
34505.0 . 0.379(11) . . .
34515.0 . 0.393(12) . . .
34525.0 . 0.362(11) . . .
34535.0 . 0.346(11) . . .
34545.0 . 0.359(11) . . .
34555.0 . 0.368(11) . . .
34565.0 . 0.375(11) . . .
34575.0 . 0.370(11) . . .
34585.0 . 0.371(11) . . .
34595.0 . 0.357(11) . . .
34605.0 . 0.342(11) . . .
34615.0 . 0.379(11) . . .
34625.0 . 0.359(11) . . .
34635.0 . 0.368(11) . . .
34645.0 . 0.357(11) . . .
34655.0 . 0.352(11) . . .
34665.0 . 0.362(11) . . .
34675.0 . 0.356(11) . . .
34685.0 . 0.367(11) . . .
34695.0 . 0.374(12) . . .
34705.0 . 0.374(12) . . .
34715.0 . 0.396(12) . . .
34725.0 . 0.383(12) . . .
34735.0 . 0.372(12) . . .
34745.0 . 0.363(11) . . .
34755.0 . 0.389(12) . . .
34765.0 . 0.366(11) . . .
34775.0 . 0.401(12) . . .
34785.0 . 0.385(12) . . .
34795.0 . 0.377(12) . . .
34805.0 . 0.408(12) . . .
34815.0 . 0.398(12) . . .
34825.0 . 0.410(12) . . .
34835.0 . 0.388(12) . . .
34845.0 . 0.406(12) . . .
34855.0 . 0.390(12) . . .
34865.0 . 0.418(12) . . .
34875.0 . 0.412(12) . . .
34885.0 . 0.370(12) . . .
34895.0 . 0.411(12) . . .
34905.0 . 0.407(12) . . .
34915.0 . 0.382(12) . . .
34925.0 . 0.379(12) . . .
34935.0 . 0.413(12) . . .
34945.0 . 0.390(12) . . .
34955.0 . 0.398(12) . . .
34965.0 . 0.385(12) . . .
34975.0 . 0.397(12) . . .
34985.0 . 0.413(12) . . .
34995.0 . 0.400(12) . . .
35005.0 . 0.389(12) . . .
35015.0 . 0.388(12) . . .
35025.0 . 0.399(12) . . .
35035.0 . 0.387(12) . . .
35045.0 . 0.371(12) . . .
35055.0 . 0.380(12) . . .
35065.0 . 0.381(12) . . .
35075.0 . 0.382(12) . . .
35085. . 0.378(12) . . .
35095. . 0.370(12) . . .
35105. . 0.379(12) . . .
35115. . 0.364(12) . . .
35125. . 0.366(12) . . .
35135. . 0.357(12) . . .
35145. . 0.376(12) . . .
35155. . 0.362(12) . . .
35165. . 0.374(12) . . .
35175. . 0.360(12) . . .
35185. . 0.337(11) . . .
35195. . 0.352(12) . . .
35205. . 0.345(12) . . .
35215. . 0.362(12) . . .
35225. . 0.351(12) . . .
35235. . 0.366(12) . . .
35245. . 0.355(12) . . .
35255. . 0.334(11) . . .
35265. . 0.358(12) . . .
35275. . 0.339(12) . . .
35285. . 0.340(12) . . .
35295. . 0.340(12) . . .
35305. . 0.344(12) . . .
35315. . 0.367(12) . . .
35325. . 0.340(12) . . .
35335. . 0.340(12) . . .
35345. . 0.362(12) . . .
35355. . 0.336(12) . . .
35365. . 0.359(12) . . .
35375. . 0.361(12) . . .
35385. . 0.325(12) . . .
35395. . 0.337(12) . . .
35405. . 0.330(12) . . .
35415. . 0.320(11) . . .
35425. . 0.328(12) . . .
35435. . 0.337(12) . . .
35445. . 0.357(12) . . .
35455. . 0.342(12) . . .
35465. . 0.336(12) . . .
35475. . 0.333(12) . . .
35485. . 0.331(12) . . .
35495. . 0.319(11) . . .
35505. . 0.340(12) . . .
35515. . 0.334(12) . . .
35525. . 0.324(12) . . .
35535. . 0.322(12) . . .
35545. . 0.329(12) . . .
35555. . 0.347(12) . . .
35565. . 0.323(12) . . .
35575. . 0.326(12) . . .
35585. . 0.323(12) . . .
35595. . 0.323(12) . . .
35605. . 0.315(12) . . .
35615. . 0.328(12) . . .
35625. . 0.307(11) . . .
35635. . 0.337(12) . . .
35645. . 0.337(12) . . .
35655. . 0.329(12) . . .
35665. . 0.332(12) . . .
35675. . 0.311(12) . . .
35685. . 0.313(12) . . .
35695. . 0.314(12) . . .
35705. . 0.314(12) . . .
35715. . 0.313(12) . . .
35725. . 0.318(12) . . .
35735. . 0.345(12) . . .
35745. . 0.336(12) . . .
35755. . 0.336(12) . . .
35765. . 0.337(12) . . .
35775. . 0.315(12) . . .
35785. . 0.306(11) . . .
35795. . 0.328(12) . . .
35805. . 0.329(12) . . .
35815. . 0.335(12) . . .
35825. . 0.306(12) . . .
35835. . 0.325(12) . . .
35845. . 0.332(12) . . .
35855. . 0.322(12) . . .
35865. . 0.323(12) . . .
35875. . 0.322(12) . . .
35885. . 0.322(12) . . .
35895. . 0.305(12) . . .
35905. . 0.323(12) . . .
35915. . 0.319(12) . . .
35925. . 0.307(12) . . .
35935. . 0.325(12) . . .
35945. . 0.340(12) . . .
35955. . 0.310(12) . . .
35965. . 0.339(12) . . .
35975. . 0.315(12) . . .
35985. . 0.328(12) . . .
35995. . 0.333(12) . . .
36005. . 0.312(12) . . .
36015. . 0.324(12) . . .
36025. . 0.307(12) . . .
36035. . 0.322(12) . . .
36045. . 0.323(12) . . .
36055. . 0.315(12) . . .
36065. . 0.326(12) . . .
36075. . 0.335(12) . . .
36085. . 0.325(12) . . .
36095. . 0.330(12) . . .
36105. . 0.324(12) . . .
36115. . 0.314(12) . . .
36125. . 0.317(12) . . .
36135. . 0.292(12) . . .
36145. . 0.323(12) . . .
36155. . 0.333(12) . . .
36165. . 0.325(12) . . .
36175. . 0.303(12) . . .
36185. . 0.315(12) . . .
36195. . 0.322(12) . . .
36205. . 0.300(12) . . .
36215. . 0.329(12) . . .
36225. . 0.322(12) . . .
36235. . 0.312(12) . . .
36245. . 0.344(13) . . .
36255. . 0.307(12) . . .
36265. . 0.298(12) . . .
36275. . 0.314(12) . . .
36285. . 0.302(12) . . .
36295. . 0.289(12) . . .
36305. . 0.296(12) . . .
36315. . 0.312(12) . . .
36325. . 0.292(12) . . .
36335. . 0.304(12) . . .
36345. . 0.316(12) . . .
36355. . 0.323(12) . . .
36365. . 0.318(12) . . .
36375. . 0.303(12) . . .
36385. . 0.301(12) . . .
36395. . 0.329(13) . . .
36405. . 0.318(12) . . .
36415. . 0.307(12) . . .
36425. . 0.287(12) . . .
36435. . 0.301(12) . . .
36445. . 0.298(12) . . .
36455. . 0.303(12) . . .
36465. . 0.286(12) . . .
36475. . 0.311(12) . . .
36485. . 0.307(12) . . .
36495. . 0.288(12) . . .
36505. . 0.273(11) . . .
36515. . 0.321(12) . . .
36525. . 0.289(12) . . .
36535. . 0.302(12) . . .
36545. . 0.292(12) . . .
36555. . 0.293(12) . . .
36565. . 0.275(11) . . .
36575. . 0.286(12) . . .
36585. . 0.288(12) . . .
36595. . 0.279(12) . . .
36605. . 0.282(12) . . .
36615. . 0.286(12) . . .
36625. . 0.281(12) . . .
36635. . 0.280(12) . . .
36645. . 0.269(11) . . .
36655. . 0.293(12) . . .
36665. . 0.282(12) . . .
36675. . 0.298(12) . . .
36685. . 0.280(12) . . .
36695. . 0.283(12) . . .
36705. . 0.253(11) . . .
36715. . 0.295(12) . . .
36725. . 0.280(12) . . .
36735. . 0.295(12) . . .
36745. . 0.270(12) . . .
36755. . 0.277(12) . . .
36765. . 0.296(12) . . .
36775. . 0.293(12) . . .
36785. . 0.275(12) . . .
36795. . 0.288(12) . . .
36805. . 0.290(12) . . .
36815. . 0.281(12) . . .
36825. . 0.296(12) . . .
36835. . 0.286(12) . . .
36845. . 0.288(12) . . .
36855. . 0.302(12) . . .
36865. . 0.266(12) . . .
36875. . 0.270(12) . . .
36885. . 0.292(12) . . .
36895. . 0.274(12) . . .
36905. . 0.290(12) . . .
36915. . 0.255(11) . . .
36925. . 0.292(12) . . .
36935. . 0.259(12) . . .
36945. . 0.250(11) . . .
36955. . 0.263(12) . . .
36965. . 0.272(12) . . .
36975. . 0.290(12) . . .
36985. . 0.266(12) . . .
36995. . 0.281(12) . . .
37005. . 0.261(12) . . .
37015. . 0.264(12) . . .
37025. . 0.277(12) . . .
37035. . 0.255(12) . . .
37045. . 0.276(12) . . .
37055. . 0.261(12) . . .
37065. . 0.270(12) . . .
37075. . 0.281(12) . . .
37085. . 0.288(12) . . .
37095. . 0.263(12) . . .
37105. . 0.279(12) . . .
37115. . 0.282(12) . . .
37125. . 0.303(13) . . .
37135. . 0.276(12) . . .
37145. . 0.281(12) . . .
37155. . 0.286(12) . . .
37165. . 0.268(12) . . .
37175. . 0.260(12) . . .
37185. . 0.259(12) . . .
37195. . 0.276(12) . . .
37205. . 0.275(12) . . .
37215. . 0.298(13) . . .
37225. . 0.264(12) . . .
37235. . 0.278(12) . . .
37245. . 0.278(13) . . .
37255. . 0.285(13) . . .
37265. . 0.298(13) . . .
37275. . 0.273(13) . . .
37285. . 0.271(13) . . .
37295. . 0.277(13) . . .
37305. . 0.270(13) . . .
37315. . 0.297(13) . . .
37325. . 0.306(13) . . .
37335. . 0.268(13) . . .
37345. . 0.279(13) . . .
37355. . 0.263(12) . . .
37365. . 0.281(13) . . .
37375. . 0.265(13) . . .
37385. . 0.255(12) . . .
37395. . 0.286(13) . . .
37405. . 0.243(12) . . .
37415. . 0.285(13) . . .
37425. . 0.315(14) . . .
37435. . 0.276(13) . . .
37445. . 0.270(13) . . .
37455. . 0.277(13) . . .
37465. . 0.274(13) . . .
37475. . 0.286(13) . . .
37485. . 0.297(14) . . .
37495. . 0.268(13) . . .
37505. . 0.254(13) . . .
37515. . 0.277(13) . . .
37525. . 0.292(14) . . .
37535. . 0.283(13) . . .
37545. . 0.262(13) . . .
37555. . 0.283(13) . . .
37565. . 0.258(13) . . .
37575. . 0.239(12) . . .
37585. . 0.262(13) . . .
37595. . 0.261(13) . . .
37605. . 0.268(13) . . .
37615. . 0.290(14) . . .
37625. . 0.272(13) . . .
37635. . 0.258(13) . . .
37645. . 0.285(13) . . .
37655. . 0.268(13) . . .
37665. . 0.252(13) . . .
37675. . 0.269(13) . . .
37685. . 0.258(13) . . .
37695. . 0.260(13) . . .
37705. . 0.251(13) . . .
37715. . 0.272(13) . . .
37725. . 0.282(14) . . .
37735. . 0.270(13) . . .
37745. . 0.265(13) . . .
37755. . 0.275(14) . . .
37765. . 0.285(14) . . .
37775. . 0.267(13) . . .
37785. . 0.260(13) . . .
37795. . 0.277(14) . . .
37805. . 0.282(14) . . .
37815. . 0.262(13) . . .
37825. . 0.257(13) . . .
37835. . 0.268(13) . . .
37845. . 0.258(13) . . .
37855. . 0.246(13) . . .
37865. . 0.250(13) . . .
37875. . 0.245(13) . . .
37885. . 0.234(13) . . .
37895. . 0.250(13) . . .
37905. . 0.254(13) . . .
37915. . 0.231(13) . . .
37925. . 0.244(13) . . .
37935. . 0.254(13) . . .
37945. . 0.258(13) . . .
37955. . 0.251(13) . . .
37965. . 0.240(13) . . .
37975. . 0.272(14) . . .
37985. . 0.255(13) . . .
37995. . 0.271(14) . . .
38005. . 0.254(13) . . .
38015. . 0.244(13) . . .
38025. . 0.257(14) . . .
38035. . 0.271(14) . . .
38045. . 0.244(13) . . .
38055. . 0.268(14) . . .
38065. . 0.242(13) . . .
38075. . 0.230(13) . . .
38085. . 0.280(14) . . .
38095. . 0.247(13) . . .
38105. . 0.227(13) . . .
38115. . 0.263(14) . . .
38125. . 0.255(13) . . .
38135. . 0.237(13) . . .
38145. . 0.258(14) . . .
38155. . 0.256(14) . . .
38165. . 0.234(13) . . .
38175. . 0.248(13) . . .
38185. . 0.235(13) . . .
38195. . 0.237(13) . . .
38205. . 0.235(13) . . .
38215. . 0.214(13) . . .
38225. . 0.235(13) . . .
38235. . 0.230(13) . . .
38245. . 0.224(13) . . .
38255. . 0.258(14) . . .
38265. . 0.233(13) . . .
38275. . 0.240(13) . . .
38285. . 0.224(13) . . .
38295. . 0.237(13) . . .
38305. . 0.231(13) . . .
38315. . 0.253(14) . . .
38325. . 0.248(14) . . .
38335. . 0.229(13) . . .
38345. . 0.217(13) . . .
38355. . 0.247(14) . . .
38365. . 0.212(13) . . .
38375. . 0.227(13) . . .
38385. . 0.239(14) . . .
38395. . 0.237(14) . . .
38405. . 0.231(13) . . .
38415. . 0.229(13) . . .
38425. . 0.250(14) . . .
38435. . 0.227(13) . . .
38445. . 0.247(14) . . .
38455. . 0.252(14) . . .
38465. . 0.281(15) . . .
38475. . 0.249(14) . . .
38485. . 0.207(13) . . .
38495. . 0.250(14) . . .
38505. . 0.247(14) . . .
38515. . 0.246(14) . . .
38525. . 0.239(14) . . .
38535. . 0.240(14) . . .
38545. . 0.235(14) . . .
38555. . 0.233(14) . . .
38565. . 0.265(15) . . .
38575. . 0.242(14) . . .
38585. . 0.223(14) . . .
38595. . 0.215(14) . . .
38605. . 0.202(13) . . .
38615. . 0.240(14) . . .
38625. . 0.229(14) . . .
38635. . 0.227(14) . . .
38645. . 0.245(15) . . .
38655. . 0.217(14) . . .
38665. . 0.232(14) . . .
38675. . 0.244(15) . . .
38685. . 0.222(14) . . .
38695. . 0.243(15) . . .
38705. . 0.238(15) . . .
38715. . 0.227(14) . . .
38725. . 0.228(14) . . .
38735. . 0.220(14) . . .
38745. . 0.228(14) . . .
38755. . 0.230(14) . . .
38765. . 0.243(15) . . .
38775. . 0.246(15) . . .
38785. . 0.196(14) . . .
38795. . 0.226(15) . . .
38805. . 0.235(15) . . .
38815. . 0.213(14) . . .
38825. . 0.221(14) . . .
38835. . 0.239(15) . . .
38845. . 0.249(15) . . .
38855. . 0.203(14) . . .
38865. . 0.234(15) . . .
38875. . 0.246(15) . . .
38885. . 0.224(15) . . .
38895. . 0.241(15) . . .
38905. . 0.242(16) . . .
38915. . 0.242(16) . . .
38925. . 0.233(15) . . .
38935. . 0.225(15) . . .
38945. . 0.246(16) . . .
38955. . 0.216(15) . . .
38965. . 0.213(15) . . .
38975. . 0.205(14) . . .
38985. . 0.227(15) . . .
38995. . 0.237(16) . . .
39005. . 0.229(15) . . .
39015. . 0.216(15) . . .
39025. . 0.225(15) . . .
39035. . 0.214(15) . . .
39045. . 0.211(15) . . .
39055. . 0.235(16) . . .
39065. . 0.220(15) . . .
39075. . 0.233(16) . . .
39085. . 0.229(16) . . .
39095. . 0.247(16) . . .
39105. . 0.247(16) . . .
39115. . 0.244(16) . . .
39125. . 0.219(15) . . .
39135. . 0.226(16) . . .
39145. . 0.229(16) . . .
39155. . 0.201(15) . . .
39165. . 0.217(15) . . .
39175. . 0.226(16) . . .
39185. . 0.187(15) . . .
39195. . 0.209(15) . . .
39205. . 0.224(16) . . .
39215. . 0.237(16) . . .
39225. . 0.216(16) . . .
39235. . 0.191(15) . . .
39245. . 0.217(16) . . .
39255. . 0.218(16) . . .
39265. . 0.229(16) . . .
39275. . 0.225(16) . . .
39285. . 0.236(17) . . .
39295. . 0.201(15) . . .
39305. . 0.276(18) . . .
39315. . 0.205(16) . . .
39325. . 0.200(15) . . .
39335. . 0.235(17) . . .
39345. . 0.214(16) . . .
39355. . 0.201(16) . . .
39365. . 0.200(15) . . .
39375. . 0.232(17) . . .
39385. . 0.207(16) . . .
39395. . 0.224(16) . . .
39405. . 0.214(16) . . .
39415. . 0.199(15) . . .
39425. . 0.193(15) . . .
39435. . 0.226(17) . . .
39445. . 0.243(17) . . .
39455. . 0.201(16) . . .
39465. . 0.166(14) . . .
39475. . 0.189(15) . . .
39485. . 0.225(17) . . .
39495. . 0.193(16) . . .
39505. . 0.194(16) . . .
39515. . 0.165(15) . . .
39525. . 0.199(16) . . .
39535. . 0.190(16) . . .
39545. . 0.229(17) . . .
39555. . 0.191(16) . . .
39565. . 0.221(17) . . .
39575. . 0.220(17) . . .
39585. . 0.198(16) . . .
39595. . 0.209(17) . . .
39605. . 0.197(16) . . .
39615. . 0.207(17) . . .
39625. . 0.202(16) . . .
39635. . 0.212(17) . . .
39645. . 0.241(18) . . .
39655. . 0.170(15) . . .
39665. . 0.186(16) . . .
39675. . 0.206(17) . . .
39685. . 0.201(17) . . .
39695. . 0.223(18) . . .
39705. . 0.211(17) . . .
39715. . 0.197(17) . . .
39725. . 0.216(17) . . .
39735. . 0.217(18) . . .
39745. . 0.178(16) . . .
39755. . 0.215(18) . . .
39765. . 0.217(18) . . .
39775. . 0.203(17) . . .
39785. . 0.223(18) . . .
39795. . 0.222(18) . . .
39805. . 0.173(16) . . .
39815. . 0.219(18) . . .
39825. . 0.209(18) . . .
39835. . 0.224(18) . . .
39845. . 0.216(18) . . .
39855. . 0.197(17) . . .
39865. . 0.174(16) . . .
39875. . 0.192(17) . . .
39885. . 0.182(17) . . .
39895. . 0.198(18) . . .
39905. . 0.181(17) . . .
39915. . 0.190(17) . . .
39925. . 0.182(17) . . .
39935. . 0.170(17) . . .
39945. . 0.195(18) . . .
39955. . 0.177(17) . . .
39965. . 0.178(17) . . .
loop_
_refln_index_h
_refln_index_k
_refln_index_l
_refln_observed_status
_refln_F_squared_meas
_refln_F_squared_calc
_refln_phase_calc
_refln_d_spacing
_gsas_i100_meas
1 1 -1 o 7.760 7.771 0.00 3.16106 48.10
1 1 1 o 2.607 2.662 180.00 2.83936 10.52
0 0 2 o 0.977 1.352 180.00 2.62099 1.43
0 2 0 o 0.867 0.776 180.00 2.60434 1.24
2 0 0 o 0.156 0.318 0.00 2.53814 0.20
1 0 -2 o 4.837 5.277 180.00 2.49678 5.83
0 1 2 o 1.107 0.771 0.00 2.34129 2.06
0 2 1 o 0.237 0.187 0.00 2.33235 0.43
1 2 0 o 0.778 0.667 0.00 2.31718 1.39
2 1 0 o 7.522 7.286 180.00 2.28167 12.66
1 1 -2 o 0.417 0.365 180.00 2.25148 0.67
2 1 -1 o 3.964 3.970 180.00 2.21124 5.88
1 0 2 o 7.987 8.039 180.00 2.19087 5.71
1 2 -1 o 6.621 6.620 180.00 2.17879 9.26
1 2 1 o 0.731 0.615 0.00 2.06453 0.82
1 1 2 o 15.183 14.725 0.00 2.01949 15.68
2 1 1 o 1.513 1.526 0.00 1.99031 1.47
2 0 -2 o 3.384 3.434 0.00 1.98861 1.64
2 1 -2 o 3.060 3.163 180.00 1.85782 2.26
0 2 2 o 15.365 15.698 180.00 1.84741 11.11
2 2 0 o 23.936 24.014 180.00 1.81769 16.22
1 2 -2 o 21.244 21.927 0.00 1.80232 13.91
2 2 -1 o 7.498 8.273 180.00 1.78148 4.69
2 0 2 o 27.842 28.525 0.00 1.69341 7.11
3 0 0 o 0.110 0.112 0.00 1.69210 0.03
1 2 2 o 1.077 1.016 0.00 1.67654 0.53
2 2 1 o 2.752 2.609 0.00 1.65972 1.30
0 1 3 o 10.406 10.000 180.00 1.65660 4.87
1 1 -3 o 7.099 6.888 180.00 1.65013 3.27
0 3 1 o 0.127 0.123 180.00 1.64818 0.06
1 3 0 o 6.991 6.711 180.00 1.64280 3.16
2 1 2 o 0.004 0.004 0.00 1.61043 0.00
3 1 0 o 0.310 0.296 0.00 1.60931 0.13
3 1 -1 o 8.134 7.772 180.00 1.60837 3.38
1 3 -1 o 1.883 1.729 0.00 1.59122 0.75
2 2 -2 o 0.432 0.344 0.00 1.58053 0.17
1 3 1 o 19.795 18.908 180.00 1.54504 7.00
3 0 -2 o 41.408 40.253 180.00 1.53766 7.18
1 1 3 o 2.167 1.927 0.00 1.50903 0.70
2 1 -3 o 2.346 2.159 0.00 1.49449 0.73
3 1 1 o 14.761 14.328 0.00 1.47690 4.36
3 1 -2 o 2.285 2.233 0.00 1.47474 0.67
0 2 3 o 2.185 1.824 0.00 1.45101 0.60
0 3 2 o 0.084 0.069 180.00 1.44745 0.02
1 2 -3 o 3.291 2.705 0.00 1.44665 0.89
2 3 0 o 3.988 3.357 0.00 1.43303 1.04
1 3 -2 o 1.958 1.649 0.00 1.42546 0.50
2 2 2 o 0.240 0.206 0.00 1.41968 0.06
3 2 0 o 6.161 5.269 0.00 1.41891 1.55
3 2 -1 o 0.509 0.434 180.00 1.41827 0.13
2 3 -1 o 0.007 0.006 180.00 1.41508 0.00
1 3 2 o 0.417 0.378 0.00 1.36074 0.09
2 3 1 o 3.555 3.416 180.00 1.35171 0.74
1 2 3 o 3.149 3.075 0.00 1.34875 0.65
2 2 -3 o 3.907 4.026 0.00 1.33833 0.78
3 0 2 o 1.234 1.209 0.00 1.32836 0.12
3 2 1 o 1.521 1.509 180.00 1.32566 0.29
3 2 -2 o 0.563 0.566 0.00 1.32409 0.11
1 0 -4 o 28.736 29.865 180.00 1.32088 2.72
0 0 4 o 2.906 3.722 0.00 1.31050 0.27
2 3 -2 o 0.265 0.347 180.00 1.30789 0.05
0 4 0 o 5.369 6.826 0.00 1.30217 0.48
2 1 3 o 0.291 0.369 0.00 1.30023 0.05
3 1 2 o 5.267 6.429 0.00 1.28716 0.90
3 1 -3 o 0.266 0.327 0.00 1.28478 0.04
1 1 -4 o 0.928 1.253 0.00 1.28035 0.15
0 1 4 o 3.211 3.824 180.00 1.27089 0.52
4 0 0 o 5.038 5.748 0.00 1.26907 0.41
0 4 1 o 13.536 14.805 180.00 1.26376 2.14
1 4 0 o 10.886 12.022 180.00 1.26133 1.71
2 0 -4 o 2.602 4.205 0.00 1.24839 0.20
4 1 -1 o 0.601 0.942 0.00 1.24396 0.09
1 4 -1 o 0.830 0.999 0.00 1.23753 0.12
4 1 0 o 17.529 19.306 180.00 1.23300 2.52
0 3 3 o 1.003 1.108 0.00 1.23161 0.14
1 3 -3 o 0.241 0.276 0.00 1.22894 0.03
1 0 4 o 1.657 2.201 180.00 1.22260 0.11
4 0 -2 o 1.897 2.537 180.00 1.22112 0.13
1 4 1 o 0.744 0.946 180.00 1.21543 0.10
2 1 -4 o 4.118 5.199 0.00 1.21401 0.56
2 3 2 o 3.771 4.779 0.00 1.21228 0.51
3 3 0 o 0.049 0.063 180.00 1.21179 0.01
3 3 -1 o 0.031 0.040 180.00 1.21140 0.00
2 2 3 o 0.048 0.559 0.00 1.19346 0.01
1 1 4 o 0.042 0.324 0.00 1.19025 0.01
4 1 -2 o 0.001 0.009 180.00 1.18889 0.00
3 2 2 o 0.000 0.007 0.00 1.18333 0.00
3 2 -3 o 0.035 0.217 0.00 1.18147 0.00
1 2 -4 o 0.037 0.057 0.00 1.17803 0.00
0 2 4 o 0.000 0.000 180.00 1.17064 0.00
1 3 3 o 9.986 10.308 0.00 1.16721 1.15
0 4 2 o 1.620 1.648 0.00 1.16618 0.19
4 1 1 o 0.069 0.070 180.00 1.16084 0.01
2 3 -3 o 13.879 14.249 0.00 1.16044 1.56
2 4 0 o 0.147 0.155 180.00 1.15859 0.02
1 4 -2 o 0.103 0.115 180.00 1.15458 0.01
3 3 1 o 0.027 0.031 180.00 1.15215 0.00
3 3 -2 o 4.848 5.803 180.00 1.15112 0.53
4 2 -1 o 0.160 0.198 0.00 1.14949 0.02
2 4 -1 o 0.135 0.168 180.00 1.14905 0.01
4 2 0 o 1.873 2.344 0.00 1.14083 0.20
2 2 -4 o 8.509 8.954 180.00 1.12574 0.85
3 0 -4 o 3.725 3.953 0.00 1.12669 0.19
1 4 2 o 6.409 6.201 180.00 1.11938 0.62
2 4 1 o 3.615 3.389 0.00 1.11433 0.35
1 2 4 o 20.842 19.316 0.00 1.10672 1.94
4 2 -2 o 2.312 2.124 180.00 1.10562 0.21
3 1 3 o 7.286 6.587 180.00 1.10332 0.67
3 1 -4 o 6.824 6.138 0.00 1.10122 0.62
2 0 4 o 11.954 10.923 180.00 1.09543 0.53
4 1 -3 o 7.394 6.791 180.00 1.09010 0.65
2 4 -2 o 20.171 18.483 0.00 1.08940 1.76
4 2 1 o 6.785 5.850 180.00 1.08296 0.58
4 0 2 o 0.219 0.180 180.00 1.07687 0.01
2 1 4 o 6.769 5.408 180.00 1.07198 0.55
2 3 3 o 5.177 4.452 0.00 1.06216 0.41
3 3 2 o 16.296 15.056 180.00 1.05500 1.25
4 1 2 o 4.027 3.732 180.00 1.05457 0.31
3 3 -3 o 1.327 1.237 0.00 1.05369 0.10
1 3 -4 o 0.023 0.022 180.00 1.05124 0.00
0 4 3 o 1.424 1.342 0.00 1.04412 0.11
1 4 -3 o 1.716 1.591 0.00 1.04249 0.13
0 3 4 o 7.197 6.876 0.00 1.04599 0.53
1 1 -5 o 1.482 1.360 0.00 1.03943 0.11
3 2 3 o 1.821 1.697 0.00 1.03581 0.13
3 2 -4 o 16.063 15.115 0.00 1.03407 1.14
2 4 2 o 5.953 5.637 0.00 1.03226 0.42
3 4 0 o 0.750 0.711 180.00 1.03197 0.05
3 4 -1 o 10.239 9.699 0.00 1.03172 0.72
4 3 -1 o 15.410 14.575 0.00 1.03081 1.08
0 1 5 o 8.168 7.565 0.00 1.02778 0.57
4 2 -3 o 3.792 3.443 0.00 1.02485 0.26
4 3 0 o 1.029 0.933 0.00 1.02456 0.07
0 5 1 o 0.045 0.040 0.00 1.02176 0.00
1 5 0 o 1.151 1.025 180.00 1.02047 0.08
5 0 0 o 12.954 11.868 180.00 1.01526 0.43
2 3 -4 o 4.773 4.454 0.00 1.01358 0.31
2 2 4 o 3.226 3.115 180.00 1.00975 0.21
2 1 -5 o 3.229 3.125 180.00 1.00908 0.21
5 1 -1 o 0.071 0.069 0.00 1.00835 0.00
1 5 -1 o 2.506 2.419 0.00 1.00774 0.16
1 4 3 o 0.320 0.297 0.00 1.00401 0.02
5 0 -2 o 1.426 1.316 0.00 1.00204 0.04
2 4 -3 o 0.094 0.089 180.00 0.99969 0.01
1 3 4 o 8.667 8.174 180.00 0.99963 0.54
4 3 -2 o 13.578 12.933 0.00 0.99882 0.84
5 1 0 o 0.187 0.182 0.00 0.99650 0.01
1 5 1 o 0.153 0.150 0.00 0.99570 0.01
4 2 2 o 13.100 12.941 180.00 0.99515 0.80
3 4 1 o 0.369 0.366 0.00 0.99438 0.02
4 0 -4 o 11.470 11.379 0.00 0.99431 0.35
3 4 -2 o 3.593 3.571 180.00 0.99372 0.22
5 1 -2 o 16.190 16.390 0.00 0.98400 0.94
1 2 -5 o 0.056 0.057 0.00 0.98241 0.00
4 3 1 o 4.303 4.400 180.00 0.98202 0.25
1 1 5 o 1.586 1.690 180.00 0.97806 0.09
4 1 -4 o 1.667 1.765 180.00 0.97667 0.09
0 2 5 o 4.152 4.207 180.00 0.97255 0.23
3 0 4 o 12.634 12.675 180.00 0.96435 0.34
2 5 0 o 1.101 1.109 0.00 0.96372 0.06
0 5 2 o 12.924 12.905 180.00 0.96807 0.70
1 5 -2 o 11.086 11.300 0.00 0.96141 0.59
2 5 -1 o 1.824 1.803 180.00 0.95821 0.10
2 2 -5 o 0.617 0.596 0.00 0.95666 0.03
5 2 -1 o 1.141 1.091 180.00 0.95603 0.06
5 1 1 o 4.349 4.102 180.00 0.95202 0.22
3 1 4 o 14.831 14.285 0.00 0.94823 0.74
3 1 -5 o 3.053 2.919 0.00 0.94652 0.15
3 3 3 o 4.137 3.954 180.00 0.94645 0.21
5 2 0 o 1.033 0.984 180.00 0.94592 0.05
3 3 -4 o 0.547 0.518 180.00 0.94513 0.03
4 1 3 o 0.009 0.009 0.00 0.94111 0.00
1 5 2 o 2.916 2.774 0.00 0.94080 0.14
4 3 -3 o 4.246 4.068 180.00 0.93807 0.20
2 5 1 o 0.352 0.337 0.00 0.93780 0.02
5 2 -2 o 11.853 11.332 0.00 0.93521 0.56
2 4 3 o 16.741 16.011 180.00 0.93479 0.79
5 1 -3 o 0.379 0.372 0.00 0.93055 0.02
1 2 5 o 10.234 10.103 180.00 0.93010 0.48
3 4 2 o 2.997 2.966 180.00 0.92990 0.14
3 4 -3 o 12.848 12.832 180.00 0.92900 0.59
4 2 -4 o 7.916 7.913 180.00 0.92891 0.37
1 4 -4 o 10.685 10.767 180.00 0.92732 0.49
2 3 4 o 0.714 0.717 0.00 0.92645 0.03
0 4 4 o 12.785 12.335 0.00 0.92370 0.58
2 5 -2 o 5.239 4.952 180.00 0.92279 0.24
4 3 2 o 6.463 6.031 0.00 0.91514 0.28
4 4 -1 o 2.586 2.393 0.00 0.91321 0.11
4 4 0 o 5.840 5.157 0.00 0.90885 0.25
5 2 1 o 2.187 1.938 180.00 0.90763 0.09
1 3 -5 o 2.377 2.126 180.00 0.90520 0.10
2 1 5 o 9.418 8.410 180.00 0.90473 0.39
3 2 4 o 0.020 0.018 180.00 0.90434 0.00
3 2 -5 o 1.305 1.146 0.00 0.90285 0.05
2 4 -4 o 3.167 2.748 0.00 0.90116 0.13
5 0 2 o 12.481 10.814 0.00 0.89964 0.25
4 2 3 o 11.582 10.111 0.00 0.89815 0.47
0 3 5 o 3.307 2.908 0.00 0.89747 0.13
0 5 3 o 4.860 4.489 180.00 0.89478 0.19
1 5 -3 o 0.853 0.804 180.00 0.89376 0.03
2 5 2 o 8.395 8.064 180.00 0.88729 0.32
3 5 0 o 36.213 34.745 0.00 0.88710 1.39
3 5 -1 o 1.015 0.973 180.00 0.88694 0.04
5 1 2 o 5.313 5.077 0.00 0.88652 0.20
1 4 4 o 0.584 0.564 0.00 0.89131 0.02
2 3 -5 o 14.017 13.203 180.00 0.88494 0.53
4 4 -2 o 2.287 2.210 0.00 0.89074 0.09
1 0 -6 o 8.148 7.672 0.00 0.88491 0.16
5 3 -1 o 9.972 9.345 0.00 0.88444 0.38
5 2 -3 o 7.152 6.909 0.00 0.88896 0.28
4 4 1 o 1.603 1.450 180.00 0.87876 0.06
5 3 0 o 13.680 12.758 180.00 0.87642 0.50
0 0 6 o 13.023 12.626 0.00 0.87366 0.24
5 0 -4 o 2.864 2.784 180.00 0.87277 0.05
1 1 -6 o 1.819 1.767 180.00 0.87241 0.07
2 0 -6 o 10.723 10.295 0.00 0.86987 0.19
1 5 3 o 0.215 0.206 0.00 0.86915 0.01
0 6 0 o 0.069 0.066 0.00 0.86811 0.00
5 3 -2 o 2.684 2.554 180.00 0.86787 0.09
4 1 -5 o 11.568 11.004 0.00 0.86778 0.41
2 2 5 o 0.281 0.268 180.00 0.86637 0.01
2 5 -3 o 0.162 0.155 180.00 0.86635 0.01
1 3 5 o 0.384 0.382 180.00 0.86379 0.01
3 5 1 o 4.241 4.268 0.00 0.86288 0.15
4 3 -4 o 0.076 0.076 180.00 0.86283 0.00
3 5 -2 o 0.206 0.207 180.00 0.86245 0.01
0 1 6 o 7.869 7.908 180.00 0.86163 0.27
5 1 -4 o 4.512 4.504 0.00 0.86077 0.15
2 1 -6 o 1.707 1.680 180.00 0.85799 0.06
0 6 1 o 7.166 7.051 180.00 0.85645 0.24
1 6 0 o 15.345 15.072 0.00 0.85569 0.51
3 4 3 o 4.106 3.929 180.00 0.85300 0.13
3 4 -4 o 1.478 1.393 180.00 0.85203 0.05
5 2 2 o 0.759 0.702 180.00 0.85034 0.02
1 6 -1 o 1.172 1.093 180.00 0.84815 0.04
4 4 -3 o 6.444 6.090 180.00 0.84685 0.21
4 0 4 o 0.996 0.942 0.00 0.84670 0.02
6 0 0 o 18.410 17.527 180.00 0.84605 0.29
5 3 1 o 5.259 5.020 180.00 0.84570 0.17
6 1 -1 o 11.477 10.960 180.00 0.84563 0.36
6 0 -2 o 0.090 0.086 0.00 0.84550 0.00
3 3 4 o 0.423 0.411 180.00 0.84304 0.01
3 3 -5 o 4.220 4.157 180.00 0.84183 0.13
1 6 1 o 0.411 0.410 180.00 0.84093 0.01
1 0 6 o 4.963 5.036 180.00 0.83894 0.08
2 4 4 o 0.827 0.840 0.00 0.83827 0.03
4 3 3 o 1.402 1.423 180.00 0.83802 0.04
1 2 -6 o 11.312 11.485 0.00 0.83786 0.35
4 1 4 o 0.182 0.186 180.00 0.83573 0.01
6 1 0 o 5.140 5.250 180.00 0.83510 0.16
6 1 -2 o 1.175 1.208 180.00 0.83458 0.04
4 2 -5 o 1.426 1.485 180.00 0.83376 0.04
3 0 -6 o 12.305 13.144 180.00 0.83226 0.18
5 3 -3 o 1.514 1.636 180.00 0.83054 0.04
4 4 2 o 5.714 6.170 180.00 0.82986 0.17
0 2 6 o 6.359 6.815 180.00 0.82830 0.19
1 1 6 o 0.641 0.687 0.00 0.82827 0.02
5 2 -4 o 4.433 4.724 180.00 0.82753 0.13
2 2 -6 o 13.309 13.905 180.00 0.82506 0.38
0 6 2 o 9.700 10.127 180.00 0.82409 0.28
3 1 5 o 0.655 0.686 0.00 0.82321 0.02
2 5 3 o 0.096 0.101 180.00 0.82307 0.00
1 4 -5 o 12.885 13.601 180.00 0.82243 0.37
3 1 -6 o 0.795 0.845 180.00 0.82183 0.02
2 6 0 o 0.571 0.610 180.00 0.82140 0.02
1 6 -2 o 0.503 0.548 0.00 0.81996 0.01
3 5 2 o 2.228 2.438 180.00 0.81973 0.06
3 5 -3 o 0.197 0.218 0.00 0.81911 0.01
2 6 -1 o 2.795 3.157 180.00 0.81798 0.08
1 5 -4 o 8.955 10.115 180.00 0.81796 0.25
2 3 5 o 0.064 0.068 180.00 0.81202 0.00
0 4 5 o 0.560 0.642 0.00 0.81662 0.02
0 5 4 o 5.334 6.101 0.00 0.81548 0.15
6 2 -1 o 0.617 0.693 0.00 0.81406 0.02
4 5 -1 o 0.154 0.159 180.00 0.80823 0.00
2 4 -5 o 0.343 0.355 180.00 0.80714 0.01
5 1 3 o 10.654 11.607 0.00 0.81264 0.29
1 6 2 o 3.138 3.243 0.00 0.80707 0.08
5 4 -1 o 2.939 3.037 180.00 0.80677 0.08
6 1 1 o 2.162 2.232 0.00 0.80525 0.06
4 2 4 o 9.481 9.787 0.00 0.80522 0.25
4 5 0 o 2.982 3.078 180.00 0.80520 0.08
2 6 1 o 9.430 9.733 0.00 0.80517 0.25
6 2 0 o 0.030 0.031 0.00 0.80465 0.00
6 1 -3 o 11.782 12.133 0.00 0.80432 0.31
6 2 -2 o 0.088 0.090 0.00 0.80419 0.00
5 4 0 o 0.126 0.129 180.00 0.80066 0.00
2 5 -4 o 0.148 0.155 0.00 0.79984 0.00
5 3 2 o 0.194 0.214 180.00 0.79878 0.00
1 2 6 o 3.530 3.937 180.00 0.79853 0.09
2 6 -2 o 11.698 14.505 180.00 0.79561 0.29
5 4 -2 o 1.412 1.761 0.00 0.79413 0.03
3 2 5 o 0.006 0.007 180.00 0.79400 0.00
1 5 4 o 0.340 0.418 0.00 0.79293 0.01
3 2 -6 o 0.145 0.177 180.00 0.79276 0.00
4 5 -2 o 0.396 0.485 180.00 0.79253 0.01
1 4 5 o 0.003 0.004 0.00 0.79100 0.00
4 4 -4 o 0.202 0.252 0.00 0.79027 0.00
1 3 -6 o 0.396 0.549 0.00 0.78841 0.01
2 0 6 o 2.712 3.776 0.00 0.78833 0.03
5 1 -5 o 0.237 0.368 180.00 0.78633 0.01
4 3 -5 o 0.088 0.140 0.00 0.78499 0.00
5 2 3 o 0.508 0.807 0.00 0.78450 0.01
4 5 1 o 0.014 0.022 0.00 0.78405 0.00
0 3 6 o 0.053 0.069 180.00 0.78043 0.00
4 0 -6 o 10.423 13.302 0.00 0.78004 0.12
5 3 -4 o 1.714 2.169 180.00 0.77979 0.04
2 1 6 o 8.611 10.781 180.00 0.77945 0.20
6 2 1 o 0.299 0.361 180.00 0.77785 0.01
2 3 -6 o 3.617 4.357 180.00 0.77772 0.08
0 6 3 o 3.796 4.551 0.00 0.77745 0.09
5 4 1 o 8.832 10.520 0.00 0.77704 0.20
6 2 -3 o 0.799 0.951 0.00 0.77701 0.02
1 6 -3 o 3.855 4.574 0.00 0.77678 0.09
3 4 4 o 0.012 0.014 180.00 0.77497 0.00
3 4 -5 o 4.957 5.784 0.00 0.77403 0.11
2 6 2 o 0.004 0.005 180.00 0.77252 0.00
3 6 0 o 2.727 3.238 0.00 0.77239 0.06
3 6 -1 o 1.651 1.964 0.00 0.77229 0.04
4 1 -6 o 4.211 5.076 180.00 0.77144 0.09
4 4 3 o 0.024 0.029 0.00 0.77107 0.00
6 0 2 o 6.035 7.399 0.00 0.77005 0.07
6 0 -4 o 9.440 11.576 0.00 0.76883 0.10
6 3 -1 o 0.048 0.059 180.00 0.76849 0.00
3 5 3 o 0.494 0.594 180.00 0.76559 0.01
5 4 -3 o 1.143 1.377 0.00 0.76523 0.02
3 5 -4 o 0.154 0.186 180.00 0.76489 0.00
6 1 2 o 9.528 11.693 180.00 0.76177 0.20
4 5 -3 o 1.158 1.421 180.00 0.76114 0.02
4 3 4 o 7.039 8.639 0.00 0.76103 0.15
5 2 -5 o 6.256 7.673 180.00 0.76075 0.13
6 1 -4 o 4.555 5.584 180.00 0.76059 0.09
6 3 0 o 10.201 12.502 0.00 0.76056 0.21
1 6 3 o 0.825 1.010 0.00 0.76046 0.02
6 3 -2 o 0.227 0.278 0.00 0.76016 0.00
2 6 -3 o 1.350 1.632 0.00 0.75858 0.03
3 6 1 o 0.997 1.198 180.00 0.75625 0.02
3 6 -2 o 0.273 0.328 180.00 0.75596 0.01
1 3 6 o 2.367 2.859 180.00 0.75538 0.05
2 5 4 o 11.798 14.287 180.00 0.75489 0.24
2 2 6 o 0.006 0.007 0.00 0.75452 0.00
3 3 5 o 8.856 10.347 0.00 0.75154 0.18
2 4 5 o 4.021 4.612 0.00 0.75067 0.08
1 1 -7 o 2.052 2.349 0.00 0.75058 0.04
3 3 -6 o 0.106 0.121 0.00 0.75049 0.00
4 5 2 o 4.027 4.544 180.00 0.74873 0.08
4 2 -6 o 0.420 0.488 180.00 0.74724 0.01
5 0 4 o 1.960 2.292 0.00 0.74700 0.02
5 1 4 o 8.588 9.527 0.00 0.73944 0.16
0 5 5 o 0.395 0.439 0.00 0.73896 0.01
4 1 5 o 0.280 0.328 0.00 0.74387 0.01
2 1 -7 o 3.711 4.334 0.00 0.74379 0.07
6 2 2 o 6.146 6.813 0.00 0.73845 0.11
5 3 3 o 0.229 0.265 0.00 0.74347 0.00
1 5 -5 o 1.331 1.529 0.00 0.74326 0.03
6 3 1 o 2.115 2.342 0.00 0.73780 0.04
6 2 -4 o 0.171 0.189 180.00 0.73737 0.00
6 3 -3 o 0.057 0.063 0.00 0.73708 0.00
0 7 1 o 1.603 1.767 0.00 0.73671 0.03
1 7 0 o 14.457 15.868 180.00 0.73623 0.26
0 1 7 o 2.796 3.109 180.00 0.74123 0.05
5 4 2 o 0.015 0.017 180.00 0.74017 0.00
2 5 -5 o 0.464 0.439 180.00 0.73192 0.01
1 4 -6 o 2.613 2.472 180.00 0.73190 0.05
5 5 -1 o 0.124 0.116 180.00 0.73164 0.00
1 7 -1 o 0.954 0.890 180.00 0.73141 0.02
3 0 6 o 5.952 5.487 0.00 0.73029 0.05
7 0 -2 o 0.923 0.856 180.00 0.72945 0.01
4 4 -5 o 0.026 0.024 180.00 0.72916 0.00
2 6 3 o 4.027 3.757 180.00 0.72902 0.07
1 2 -7 o 0.118 0.112 180.00 0.72824 0.00
7 1 -1 o 1.212 1.162 180.00 0.72722 0.02
5 5 0 o 3.226 3.098 0.00 0.72708 0.06
1 7 1 o 0.428 0.412 0.00 0.72676 0.01
3 6 2 o 6.347 6.114 0.00 0.72669 0.11
3 6 -3 o 9.297 8.981 180.00 0.72626 0.16
0 4 6 o 0.246 0.238 0.00 0.72550 0.00
1 6 -4 o 1.599 1.550 0.00 0.72546 0.03
7 0 0 o 2.697 2.618 0.00 0.72518 0.02
5 4 -4 o 13.820 13.430 180.00 0.72499 0.24
0 6 4 o 9.614 9.402 180.00 0.72373 0.16
2 4 -6 o 0.686 0.672 0.00 0.72333 0.01
3 1 6 o 0.035 0.034 0.00 0.72321 0.00
5 3 -5 o 5.357 5.248 180.00 0.72316 0.09
7 1 -2 o 13.671 13.380 0.00 0.72240 0.23
5 5 -2 o 1.196 1.169 0.00 0.72218 0.02
4 2 5 o 0.532 0.520 180.00 0.72211 0.01
3 1 -7 o 4.212 4.117 180.00 0.72211 0.07
2 2 -7 o 6.326 6.179 180.00 0.72204 0.11
5 0 -6 o 0.225 0.219 180.00 0.72153 0.00
1 5 5 o 0.069 0.066 180.00 0.71982 0.00
0 2 7 o 1.023 0.970 0.00 0.71969 0.02
4 5 -4 o 23.800 22.393 180.00 0.71926 0.40
4 6 -1 o 5.757 5.337 0.00 0.71864 0.10
7 1 0 o 5.622 5.154 0.00 0.71826 0.09
5 2 4 o 0.181 0.165 180.00 0.71805 0.00
2 3 6 o 15.645 14.134 0.00 0.71780 0.26
1 1 7 o 0.825 0.737 0.00 0.71745 0.01
4 6 0 o 1.129 0.974 180.00 0.71651 0.02
6 4 -1 o 5.774 4.874 180.00 0.71588 0.09
0 7 2 o 0.664 0.559 0.00 0.71581 0.01
5 1 -6 o 0.265 0.216 180.00 0.71470 0.00
2 7 0 o 0.642 0.517 0.00 0.71405 0.01
1 7 -2 o 0.984 0.782 0.00 0.71310 0.02
2 6 -4 o 4.216 3.336 180.00 0.71273 0.07
2 7 -1 o 0.293 0.231 0.00 0.71179 0.00
4 3 -6 o 7.136 5.608 0.00 0.71153 0.11
6 1 3 o 0.514 0.404 0.00 0.71119 0.01
6 1 -5 o 4.682 3.722 180.00 0.70990 0.07
4 4 4 o 3.011 2.396 0.00 0.70984 0.05
6 4 0 o 0.290 0.232 180.00 0.70945 0.00
5 5 1 o 0.494 0.397 180.00 0.70925 0.01
6 4 -2 o 0.002 0.002 0.00 0.70913 0.00
1 6 4 o 0.048 0.040 180.00 0.70783 0.00
3 5 4 o 13.106 10.839 0.00 0.70768 0.20
4 6 -2 o 9.800 8.128 180.00 0.70754 0.15
3 5 -5 o 3.057 2.566 0.00 0.70696 0.05
7 2 -1 o 7.793 6.558 0.00 0.70684 0.12
1 4 6 o 12.159 10.629 180.00 0.70525 0.19
4 5 3 o 0.087 0.077 0.00 0.70470 0.00
1 7 2 o 9.919 8.813 0.00 0.70457 0.15
7 1 -3 o 0.058 0.051 0.00 0.70459 0.00
6 3 2 o 1.318 1.186 0.00 0.70393 0.02
2 7 1 o 3.206 2.910 0.00 0.70331 0.05
3 2 6 o 3.944 3.585 0.00 0.70317 0.06
6 3 -4 o 15.276 13.909 0.00 0.70299 0.23
7 2 -2 o 13.722 12.537 180.00 0.70242 0.21
3 2 -7 o 6.910 6.318 180.00 0.70216 0.10
3 4 5 o 8.271 7.563 0.00 0.70212 0.12
4 6 1 o 3.034 2.775 180.00 0.70149 0.05
3 4 -6 o 17.833 16.299 180.00 0.70126 0.27
5 5 -3 o 0.525 0.477 0.00 0.70023 0.01
